data_PCOD8261998
_publ_section_title
;
Structure prediction by ZEFSAII (Michael W. Deem and Ramdas Pophale) SiO2 
 PCOD8261998
Probable space group: C M C A
;
_chemical_formula_sum "Si O2"
_cell_formula_units_Z 96
_cell_length_a 9.055605
_cell_length_b 25.228302
_cell_length_c 25.257754
_cell_angle_alpha 90.000000
_cell_angle_beta 90.000000
_cell_angle_gamma 90.000000
_cell_volume 5770.324287
_symmetry_space_group_name_H-M "C M C A"
_symmetry_group_IT_number 64
_symmetry_cell_setting 'orthorhombic'
loop_
_space_group_symop_operation_xyz
x,y,z
-x,1/2-y,1/2+z
x,-y,-z
-x,1/2+y,1/2-z
-x,-y,-z
x,1/2+y,1/2-z
-x,y,z
x,1/2-y,1/2+z
1/2+x,1/2+y,z
1/2-x,-y,1/2+z
1/2+x,1/2-y,-z
1/2-x,y,1/2-z
1/2-x,1/2-y,-z
1/2+x,y,1/2-z
1/2-x,1/2+y,z
1/2+x,-y,1/2+z
loop_
_atom_site_type_symbol
_atom_site_label
_atom_site_fract_x
_atom_site_fract_y
_atom_site_fract_z
Si Si1 0.674087 0.859562 0.193428
Si Si2 0.173826 0.063939 0.396551
Si Si3 0.828208 0.641456 0.194166
Si Si4 0.328720 0.057338 0.895142
Si Si5 0.827260 0.241325 0.806296
Si Si6 0.833731 0.437001 0.498722
O O1 0.500000 0.851290 0.200893
O O2 0.750000 0.869841 0.250000
O O3 0.710100 0.910108 0.157340
O O4 0.744856 0.807448 0.164081
O O5 0.233422 0.099163 0.347890
O O6 0.248964 0.085427 0.450119
O O7 0.000000 0.070803 0.403822
O O8 0.218699 0.003326 0.384510
O O9 0.750000 0.632787 0.250000
O O10 0.801316 0.700286 0.169005
O O11 0.000000 0.632391 0.205079
O O12 0.500000 0.060700 0.909743
O O13 0.242358 0.082716 0.944726
O O14 0.750000 0.242524 0.750000
O O15 0.000000 0.228293 0.801239
O O16 0.826690 0.500000 0.500000
O O17 0.000000 0.415406 0.499911
#
# Coordination Sequence:
#
# PCOD8261998 Si02
#       6
#    16  16  16  16  16  16
#     4  10  19  30  45  67  92 119 151 183 219 263
#     4   9  17  31  48  66  91 121 149 179 220 268
#     4   9  18  30  46  68  92 119 150 183 220 264
#     4   9  18  31  47  66  90 121 151 179 218 268
#     4   9  16  28  45  64  86 115 151 186 219 256
#     4   9  17  29  46  68  90 114 149 188 221 257
#
# _framework density 16.636846999999999
#
# number of rings (size 3 to 8) (size 9 to 14) (size 15 to 20)
#    0.000    2.833    0.000    2.500    0.000    5.333 
#    0.000    0.000    0.000    1.000    0.000    0.000 
#    0.000    0.000    0.000    0.000    0.000    0.000 
#
# Total GULP energy -594902.312309 kJ/mol
# GULP energy per Si atom -12393.798173 kJ/mol
# Density = 1.659898 g / cm^3
# Si number density = 16.636847 Si / 1000 Ang^3
#
#
#
# Elastic Constant Matrix: (Units=GPa)
#
#
# Indices 1 2 3 4 5 6 
#
# 1 81.0929 44.6122 53.3022 0.0000 0.0000 0.0000
# 2 44.6122 93.9144 61.5415 0.0000 0.0000 0.0000
# 3 53.3022 61.5415 109.4178 0.0000 0.0000 0.0000
# 4 0.0000 0.0000 0.0000 4.9618 0.0000 0.0000
# 5 0.0000 0.0000 0.0000 0.0000 23.9262 0.0000
# 6 0.0000 0.0000 0.0000 0.0000 0.0000 20.6388
#
#
#
# Elastic Compliance Matrix: (Units=1/GPa)
#
#
# Indices 1 2 3 4 5 6 
#
# 1 0.019411 -0.004790 -0.006762 0.000000 0.000000 0.000000
# 2 -0.004790 0.018045 -0.007816 0.000000 0.000000 0.000000
# 3 -0.006762 -0.007816 0.016829 0.000000 0.000000 0.000000
# 4 0.000000 0.000000 0.000000 0.201541 0.000000 0.000000
# 5 0.000000 0.000000 0.000000 0.000000 0.041795 0.000000
# 6 0.000000 0.000000 0.000000 0.000000 0.000000 0.048452
#
#
# Mechanical properties :
#
#
# Convention : Reuss Voigt Hill
#
# Bulk Modulus (GPa) = 64.30871 67.03743 65.67307
# Shear Modulus (GPa) = 12.82072 18.23664 15.52868
#
# Velocity S-wave (km/s) = 2.77902 3.31442 3.05846
# Velocity P-wave (km/s) = 7.00254 7.41817 7.21335
#
# Compressibility (1/GPa) = 0.01554999
#
# Stress axis : x y z
#
# Youngs Moduli (GPa) = 51.51645 55.41667 59.41949
#
# Poissons Ratio (x) = 0.26543 0.40180
# Poissons Ratio (y) = 0.24675 0.46443
# Poissons Ratio (z) = 0.34836 0.43314
#
# Static dielectric constant tensor:
#      x y z
#    x 3.218720 0.000000 0.000000 
#    y 0.000000 3.626930 0.000000 
#    z 0.000000 0.000000 3.004010 
# 
# 
# High freq. dielectric constant tensor:
#      x y z
#    x 1.648710 0.000000 0.000000 
#    y 0.000000 1.629650 0.000000 
#    z 0.000000 0.000000 1.619640 
# 
# From -- ./inp_files/43183.got.cif
#   From: 2010.03.12/outbox.cif.g09.slc.cpg/sg64_22_cif.got.tgz:43183.got - 2010.04.10 20:19:32.
