data_PCOD8261686
_publ_section_title
;
Structure prediction by ZEFSAII (Michael W. Deem and Ramdas Pophale) SiO2 
 PCOD8261686
Probable space group: C M C A
;
_chemical_formula_sum "Si O2"
_cell_formula_units_Z 64
_cell_length_a 8.920042
_cell_length_b 18.917581
_cell_length_c 23.384384
_cell_angle_alpha 90.000000
_cell_angle_beta 90.000000
_cell_angle_gamma 90.000000
_cell_volume 3946.012308
_symmetry_space_group_name_H-M "C M C A"
_symmetry_group_IT_number 64
_symmetry_cell_setting 'orthorhombic'
loop_
_space_group_symop_operation_xyz
x,y,z
-x,1/2-y,1/2+z
x,-y,-z
-x,1/2+y,1/2-z
-x,-y,-z
x,1/2+y,1/2-z
-x,y,z
x,1/2-y,1/2+z
1/2+x,1/2+y,z
1/2-x,-y,1/2+z
1/2+x,1/2-y,-z
1/2-x,y,1/2-z
1/2-x,1/2-y,-z
1/2+x,y,1/2-z
1/2-x,1/2+y,z
1/2+x,-y,1/2+z
loop_
_atom_site_type_symbol
_atom_site_label
_atom_site_fract_x
_atom_site_fract_y
_atom_site_fract_z
Si Si1 0.331248 0.167110 0.104476
Si Si2 0.823688 0.919488 0.988810
Si Si3 0.822861 0.241569 0.689224
Si Si4 0.169271 0.321240 0.410199
O O1 0.500000 0.143998 0.120543
O O2 0.254282 0.104320 0.069628
O O3 0.239529 0.184052 0.163045
O O4 0.332514 0.239819 0.066883
O O5 0.000000 0.908409 0.981370
O O6 0.762821 0.872766 0.041723
O O7 0.779493 0.000000 0.000000
O O8 0.750000 0.227122 0.750000
O O9 0.772232 0.176971 0.647091
O O10 0.000000 0.244639 0.694909
O O11 0.000000 0.345277 0.394278
#
# Coordination Sequence:
#
# PCOD8261686 Si02
#       4
#    16  16  16  16
#     4   9  18  31  48  70  97 126 159 197 235 280
#     4  10  19  31  48  71 100 131 160 194 237 282
#     4  10  18  30  50  73  95 120 156 199 241 280
#     4   8  17  31  47  70  98 125 158 195 234 280
#
# _framework density 16.218904999999999
#
# number of rings (size 3 to 8) (size 9 to 14) (size 15 to 20)
#    1.500    1.250    0.000    3.000    0.000    1.500 
#    0.000    0.000    0.000    1.500    0.000    7.000 
#    0.000    0.000    0.000    0.000    0.000    0.000 
#
# Total GULP energy -396434.186641 kJ/mol
# GULP energy per Si atom -12388.568333 kJ/mol
# Density = 1.618199 g / cm^3
# Si number density = 16.218905 Si / 1000 Ang^3
#
#
#
# Elastic Constant Matrix: (Units=GPa)
#
#
# Indices 1 2 3 4 5 6 
#
# 1 93.1085 15.3430 32.3649 0.0000 0.0000 0.0000
# 2 15.3430 47.5272 12.7906 0.0000 0.0000 0.0000
# 3 32.3649 12.7906 67.8957 0.0000 0.0000 0.0000
# 4 0.0000 0.0000 0.0000 9.1955 0.0000 0.0000
# 5 0.0000 0.0000 0.0000 0.0000 23.0041 0.0000
# 6 0.0000 0.0000 0.0000 0.0000 0.0000 17.3743
#
#
#
# Elastic Compliance Matrix: (Units=1/GPa)
#
#
# Indices 1 2 3 4 5 6 
#
# 1 0.013195 -0.002704 -0.005780 0.000000 0.000000 0.000000
# 2 -0.002704 0.022718 -0.002991 0.000000 0.000000 0.000000
# 3 -0.005780 -0.002991 0.018047 0.000000 0.000000 0.000000
# 4 0.000000 0.000000 0.000000 0.108749 0.000000 0.000000
# 5 0.000000 0.000000 0.000000 0.000000 0.043471 0.000000
# 6 0.000000 0.000000 0.000000 0.000000 0.000000 0.057556
#
#
# Mechanical properties :
#
#
# Convention : Reuss Voigt Hill
#
# Bulk Modulus (GPa) = 32.24757 36.61427 34.43092
# Shear Modulus (GPa) = 16.83367 19.78365 18.30866
#
# Velocity S-wave (km/s) = 3.22515 3.49634 3.36348
# Velocity P-wave (km/s) = 5.81332 6.23885 6.02984
#
# Compressibility (1/GPa) = 0.03101009
#
# Stress axis : x y z
#
# Youngs Moduli (GPa) = 75.78592 44.01713 55.40976
#
# Poissons Ratio (x) = 0.11903 0.32029
# Poissons Ratio (y) = 0.20493 0.16572
# Poissons Ratio (z) = 0.43808 0.13165
#
# Static dielectric constant tensor:
#      x y z
#    x 3.037180 0.000000 0.000000 
#    y 0.000000 2.782230 0.000000 
#    z 0.000000 0.000000 2.895340 
# 
# 
# High freq. dielectric constant tensor:
#      x y z
#    x 1.630920 0.000000 0.000000 
#    y 0.000000 1.585600 0.000000 
#    z 0.000000 0.000000 1.609670 
# 
# From -- ./inp_files/36301.got.cif
#   From: 2010.03.12/outbox.cif.g09.slc.cpg/sg64_19_cif.got.tgz:36301.got - 2010.04.10 20:19:32.
