data_PCOD8261221
_publ_section_title
;
Structure prediction by ZEFSAII (Michael W. Deem and Ramdas Pophale) SiO2 
 PCOD8261221
Probable space group: C M C M
;
_chemical_formula_sum "Si O2"
_cell_formula_units_Z 64
_cell_length_a 22.477062
_cell_length_b 14.720096
_cell_length_c 9.797849
_cell_angle_alpha 90.000000
_cell_angle_beta 90.000000
_cell_angle_gamma 90.000000
_cell_volume 3241.760513
_symmetry_space_group_name_H-M "C M C M"
_symmetry_group_IT_number 63
_symmetry_cell_setting 'orthorhombic'
loop_
_space_group_symop_operation_xyz
x,y,z
-x,-y,1/2+z
x,-y,-z
-x,y,1/2-z
-x,-y,-z
x,y,1/2-z
-x,y,z
x,-y,1/2+z
1/2+x,1/2+y,z
1/2-x,1/2-y,1/2+z
1/2+x,1/2-y,-z
1/2-x,1/2+y,1/2-z
1/2-x,1/2-y,-z
1/2+x,1/2+y,1/2-z
1/2-x,1/2+y,z
1/2+x,1/2-y,1/2+z
loop_
_atom_site_type_symbol
_atom_site_label
_atom_site_fract_x
_atom_site_fract_y
_atom_site_fract_z
Si Si1 0.500000 0.643162 0.750000
Si Si2 0.000000 0.161086 0.250000
Si Si3 0.316132 0.500000 0.500000
Si Si4 0.402344 0.494417 0.750000
Si Si5 0.000000 0.716086 0.012710
Si Si6 0.262381 0.163545 0.091656
Si Si7 0.893349 0.588806 0.407366
O O1 0.442422 0.582247 0.750000
O O2 0.500000 0.704629 0.619770
O O3 0.940966 0.098208 0.250000
O O4 0.000000 0.230905 0.372581
O O5 0.359705 0.504580 0.624613
O O6 0.273821 0.414228 0.515540
O O7 0.057729 0.654079 0.027942
O O8 0.241806 0.176494 0.250000
O O9 0.331725 0.141812 0.087068
O O10 0.250000 0.250000 0.000000
O O11 0.890198 0.500000 0.500000
O O12 0.909099 0.563259 0.250000
#
# Coordination Sequence:
#
# PCOD8261221 Si02
#       7
#     4   4   8   8   8  16  16
#     4  11  24  46  67  98 132 176 225 296 328 407
#     4  11  28  46  63 108 136 176 231 286 336 411
#     4  12  24  45  70 103 136 182 228 282 348 420
#     4  11  26  44  72  94 140 179 224 280 354 401
#     4  12  25  43  71  98 133 177 235 278 340 399
#     4  11  27  44  68 103 139 181 230 284 347 409
#     4  11  25  45  68  98 136 178 227 283 341 402
#
# _framework density 19.742359
#
# number of rings (size 3 to 8) (size 9 to 14) (size 15 to 20)
#    0.000    0.750    3.750    1.875   10.500    3.000 
#    0.000    0.000    0.000    0.000    0.000    0.000 
#    0.000    0.000    0.000    0.000    0.000    0.000 
#
# Total GULP energy -396769.638852 kJ/mol
# GULP energy per Si atom -12399.051214 kJ/mol
# Density = 1.969742 g / cm^3
# Si number density = 19.742359 Si / 1000 Ang^3
#
#
#
# Elastic Constant Matrix: (Units=GPa)
#
#
# Indices 1 2 3 4 5 6 
#
# 1 127.0335 57.1102 59.8385 0.0000 0.0000 0.0000
# 2 57.1102 156.2232 87.5211 0.0000 0.0000 0.0000
# 3 59.8385 87.5211 180.4486 0.0000 0.0000 0.0000
# 4 0.0000 0.0000 0.0000 40.6796 0.0000 0.0000
# 5 0.0000 0.0000 0.0000 0.0000 39.5534 0.0000
# 6 0.0000 0.0000 0.0000 0.0000 0.0000 48.3411
#
#
#
# Elastic Compliance Matrix: (Units=1/GPa)
#
#
# Indices 1 2 3 4 5 6 
#
# 1 0.009974 -0.002462 -0.002113 0.000000 0.000000 0.000000
# 2 -0.002462 0.009397 -0.003741 0.000000 0.000000 0.000000
# 3 -0.002113 -0.003741 0.008057 0.000000 0.000000 0.000000
# 4 0.000000 0.000000 0.000000 0.024582 0.000000 0.000000
# 5 0.000000 0.000000 0.000000 0.000000 0.025282 0.000000
# 6 0.000000 0.000000 0.000000 0.000000 0.000000 0.020686
#
#
# Mechanical properties :
#
#
# Convention : Reuss Voigt Hill
#
# Bulk Modulus (GPa) = 92.63702 96.96056 94.79879
# Shear Modulus (GPa) = 42.29687 42.99718 42.64702
#
# Velocity S-wave (km/s) = 4.63367 4.67188 4.65281
# Velocity P-wave (km/s) = 8.69786 8.84994 8.77423
#
# Compressibility (1/GPa) = 0.01079482
#
# Stress axis : x y z
#
# Youngs Moduli (GPa) = 100.25656 106.41391 124.11346
#
# Poissons Ratio (x) = 0.26203 0.26229
# Poissons Ratio (y) = 0.24687 0.46435
# Poissons Ratio (z) = 0.21187 0.39813
#
# Static dielectric constant tensor:
#      x y z
#    x 3.859710 0.000000 0.000000 
#    y 0.000000 3.803170 0.000000 
#    z 0.000000 0.000000 3.836880 
# 
# 
# High freq. dielectric constant tensor:
#      x y z
#    x 1.792810 0.000000 0.000000 
#    y 0.000000 1.783350 0.000000 
#    z 0.000000 0.000000 1.790610 
# 
# From -- ./inp_files/9720.got.cif
#   From: 2010.03.12/outbox.cif.g09.slc.cpg/sg63_5_cif.got.tgz:9720.got - 2010.04.10 19:34:48.
