data_PCOD8261483
_publ_section_title
;
Structure prediction by ZEFSAII (Michael W. Deem and Ramdas Pophale) SiO2 
 PCOD8261483
Probable space group: C M C A
;
_chemical_formula_sum "Si O2"
_cell_formula_units_Z 80
_cell_length_a 8.835710
_cell_length_b 20.742018
_cell_length_c 27.633667
_cell_angle_alpha 90.000000
_cell_angle_beta 90.000000
_cell_angle_gamma 90.000000
_cell_volume 5064.434748
_symmetry_space_group_name_H-M "C M C A"
_symmetry_group_IT_number 64
_symmetry_cell_setting 'orthorhombic'
loop_
_space_group_symop_operation_xyz
x,y,z
-x,1/2-y,1/2+z
x,-y,-z
-x,1/2+y,1/2-z
-x,-y,-z
x,1/2+y,1/2-z
-x,y,z
x,1/2-y,1/2+z
1/2+x,1/2+y,z
1/2-x,-y,1/2+z
1/2+x,1/2-y,-z
1/2-x,y,1/2-z
1/2-x,1/2-y,-z
1/2+x,y,1/2-z
1/2-x,1/2+y,z
1/2+x,-y,1/2+z
loop_
_atom_site_type_symbol
_atom_site_label
_atom_site_fract_x
_atom_site_fract_y
_atom_site_fract_z
Si Si1 0.668832 0.991275 0.620289
Si Si2 0.822244 0.434288 0.198044
Si Si3 0.167568 0.366429 0.380842
Si Si4 0.179650 0.814871 0.019671
Si Si5 0.678251 0.562735 0.469273
O O1 0.500000 0.962686 0.628628
O O2 0.765189 0.944749 0.585909
O O3 0.753288 0.001457 0.672228
O O4 0.657589 0.061917 0.595394
O O5 0.750000 0.425162 0.250000
O O6 0.779942 0.370604 0.165569
O O7 0.000000 0.441390 0.202893
O O8 0.227120 0.320050 0.423517
O O9 0.000000 0.344983 0.363025
O O10 0.000000 0.813758 0.014403
O O11 0.250000 0.750000 0.000000
O O12 0.243436 0.874399 0.990001
O O13 0.724367 0.500000 0.500000
O O14 0.500000 0.573483 0.469402
#
# Coordination Sequence:
#
# PCOD8261483 Si02
#       5
#    16  16  16  16  16
#     4   9  17  29  45  67  94 123 159 198 242 288
#     4  10  17  27  45  70  99 126 157 201 250 296
#     4   8  17  31  46  66  95 127 161 200 243 289
#     4  11  22  35  50  70 101 137 171 209 251 296
#     4  11  20  30  48  72  97 128 166 203 242 292
#
# _framework density 15.796431999999999
#
# number of rings (size 3 to 8) (size 9 to 14) (size 15 to 20)
#    1.200    1.000    2.000    3.000    0.000    2.400 
#    0.000    0.000    0.000    0.000    0.000    1.400 
#    0.000    6.400    0.000    0.000    0.000    0.000 
#
# Total GULP energy -495535.455908 kJ/mol
# GULP energy per Si atom -12388.386398 kJ/mol
# Density = 1.576048 g / cm^3
# Si number density = 15.796432 Si / 1000 Ang^3
#
#
#
# Elastic Constant Matrix: (Units=GPa)
#
#
# Indices 1 2 3 4 5 6 
#
# 1 105.0909 37.7258 63.5729 0.0000 0.0000 0.0000
# 2 37.7258 70.4219 45.7842 0.0000 0.0000 0.0000
# 3 63.5729 45.7842 130.2630 0.0000 0.0000 0.0000
# 4 0.0000 0.0000 0.0000 16.9742 0.0000 0.0000
# 5 0.0000 0.0000 0.0000 0.0000 29.3742 0.0000
# 6 0.0000 0.0000 0.0000 0.0000 0.0000 23.2222
#
#
#
# Elastic Compliance Matrix: (Units=1/GPa)
#
#
# Indices 1 2 3 4 5 6 
#
# 1 0.014345 -0.004061 -0.005573 0.000000 0.000000 0.000000
# 2 -0.004061 0.019556 -0.004891 0.000000 0.000000 0.000000
# 3 -0.005573 -0.004891 0.012116 0.000000 0.000000 0.000000
# 4 0.000000 0.000000 0.000000 0.058913 0.000000 0.000000
# 5 0.000000 0.000000 0.000000 0.000000 0.034043 0.000000
# 6 0.000000 0.000000 0.000000 0.000000 0.000000 0.043062
#
#
# Mechanical properties :
#
#
# Convention : Reuss Voigt Hill
#
# Bulk Modulus (GPa) = 58.94569 66.66018 62.80293
# Shear Modulus (GPa) = 23.06885 24.49366 23.78126
#
# Velocity S-wave (km/s) = 3.82564 3.94201 3.88426
# Velocity P-wave (km/s) = 7.54393 7.93791 7.74343
#
# Compressibility (1/GPa) = 0.01696477
#
# Stress axis : x y z
#
# Youngs Moduli (GPa) = 69.71041 51.13554 82.53541
#
# Poissons Ratio (x) = 0.20767 0.46001
# Poissons Ratio (y) = 0.28311 0.40371
# Poissons Ratio (z) = 0.38853 0.25012
#
# Static dielectric constant tensor:
#      x y z
#    x 3.085630 0.000000 0.000000 
#    y 0.000000 2.599050 0.000000 
#    z 0.000000 0.000000 2.936740 
# 
# 
# High freq. dielectric constant tensor:
#      x y z
#    x 1.623610 0.000000 0.000000 
#    y 0.000000 1.555730 0.000000 
#    z 0.000000 0.000000 1.601120 
# 
# From -- ./inp_files/51926.got.cif
#   From: 2010.03.12/outbox.cif.g09.slc.cpg/sg64_26_cif.got.tgz:51926.got - 2010.04.10 20:19:32.
