data_PCOD8261667
_publ_section_title
;
Structure prediction by ZEFSAII (Michael W. Deem and Ramdas Pophale) SiO2 
 PCOD8261667
Probable space group: C M C A
;
_chemical_formula_sum "Si O2"
_cell_formula_units_Z 96
_cell_length_a 25.995214
_cell_length_b 26.118509
_cell_length_c 7.911402
_cell_angle_alpha 90.000000
_cell_angle_beta 90.000000
_cell_angle_gamma 90.000000
_cell_volume 5371.495682
_symmetry_space_group_name_H-M "C M C A"
_symmetry_group_IT_number 64
_symmetry_cell_setting 'orthorhombic'
loop_
_space_group_symop_operation_xyz
x,y,z
-x,1/2-y,1/2+z
x,-y,-z
-x,1/2+y,1/2-z
-x,-y,-z
x,1/2+y,1/2-z
-x,y,z
x,1/2-y,1/2+z
1/2+x,1/2+y,z
1/2-x,-y,1/2+z
1/2+x,1/2-y,-z
1/2-x,y,1/2-z
1/2-x,1/2-y,-z
1/2+x,y,1/2-z
1/2-x,1/2+y,z
1/2+x,-y,1/2+z
loop_
_atom_site_type_symbol
_atom_site_label
_atom_site_fract_x
_atom_site_fract_y
_atom_site_fract_z
Si Si1 0.059374 0.178261 0.945924
Si Si2 0.147472 0.115975 0.839354
Si Si3 0.755667 0.866862 0.947733
Si Si4 0.168847 0.303549 0.055763
Si Si5 0.704014 0.539495 0.639688
Si Si6 0.891325 0.728305 0.249444
O O1 0.089931 0.124906 0.909570
O O2 0.076955 0.223471 0.821093
O O3 0.000000 0.165981 0.918637
O O4 0.069863 0.195251 0.138045
O O5 0.153102 0.152525 0.681583
O O6 0.158906 0.058253 0.770045
O O7 0.185475 0.133412 0.991537
O O8 0.750000 0.877161 0.750000
O O9 0.728143 0.812815 0.998702
O O10 0.726620 0.911342 0.047333
O O11 0.158459 0.248226 0.141758
O O12 0.131015 0.308323 0.894742
O O13 0.682167 0.500000 0.500000
O O14 0.750000 0.513451 0.750000
#
# Coordination Sequence:
#
# PCOD8261667 Si02
#       6
#    16  16  16  16  16  16
#     4  10  18  31  47  65  91 124 165 209 249 278
#     4   9  19  32  46  68  96 124 156 195 238 286
#     4  10  18  30  47  67  97 124 148 185 234 289
#     4   9  17  31  44  62  92 122 152 192 238 282
#     4   9  17  30  49  73  97 121 151 186 232 290
#     4   9  18  30  46  66  88 121 167 207 238 279
#
# _framework density 17.872116999999999
#
# number of rings (size 3 to 8) (size 9 to 14) (size 15 to 20)
#    0.000    2.667    0.000    3.500    0.000    0.000 
#    0.000   21.667    0.000    0.500    0.000    0.000 
#    0.000   38.667    0.000    0.000    0.000   17.167 
#
# Total GULP energy -594739.466416 kJ/mol
# GULP energy per Si atom -12390.405550 kJ/mol
# Density = 1.783144 g / cm^3
# Si number density = 17.872117 Si / 1000 Ang^3
#
#
#
# Elastic Constant Matrix: (Units=GPa)
#
#
# Indices 1 2 3 4 5 6 
#
# 1 117.0240 35.1572 42.4036 0.0000 0.0000 0.0000
# 2 35.1572 44.5925 23.5850 0.0000 0.0000 0.0000
# 3 42.4036 23.5850 105.9396 0.0000 0.0000 0.0000
# 4 0.0000 0.0000 0.0000 28.8605 0.0000 0.0000
# 5 0.0000 0.0000 0.0000 0.0000 18.7139 0.0000
# 6 0.0000 0.0000 0.0000 0.0000 0.0000 10.8924
#
#
#
# Elastic Compliance Matrix: (Units=1/GPa)
#
#
# Indices 1 2 3 4 5 6 
#
# 1 0.012013 -0.007853 -0.003060 0.000000 0.000000 0.000000
# 2 -0.007853 0.030551 -0.003658 0.000000 0.000000 0.000000
# 3 -0.003060 -0.003658 0.011479 0.000000 0.000000 0.000000
# 4 0.000000 0.000000 0.000000 0.034649 0.000000 0.000000
# 5 0.000000 0.000000 0.000000 0.000000 0.053436 0.000000
# 6 0.000000 0.000000 0.000000 0.000000 0.000000 0.091807
#
#
# Mechanical properties :
#
#
# Convention : Reuss Voigt Hill
#
# Bulk Modulus (GPa) = 40.15975 52.20529 46.18252
# Shear Modulus (GPa) = 18.42438 22.78738 20.60588
#
# Velocity S-wave (km/s) = 3.21425 3.57462 3.39921
# Velocity P-wave (km/s) = 6.02450 6.80523 6.42673
#
# Compressibility (1/GPa) = 0.02490055
#
# Stress axis : x y z
#
# Youngs Moduli (GPa) = 83.24071 32.73163 87.11802
#
# Poissons Ratio (x) = 0.25704 0.26660
# Poissons Ratio (y) = 0.65368 0.31871
# Poissons Ratio (z) = 0.25473 0.11974
#
# Static dielectric constant tensor:
#      x y z
#    x 3.300690 0.000000 0.000000 
#    y 0.000000 3.200370 0.000000 
#    z 0.000000 0.000000 3.766820 
# 
# 
# High freq. dielectric constant tensor:
#      x y z
#    x 1.659470 0.000000 0.000000 
#    y 0.000000 1.654030 0.000000 
#    z 0.000000 0.000000 1.715850 
# 
# From -- ./inp_files/10665.got.cif
#   From: 2010.03.12/outbox.cif.g09.slc.cpg/sg64_6_cif.got.tgz:10665.got - 2010.04.10 20:19:32.
