data_PCOD8261650
_publ_section_title
;
Structure prediction by ZEFSAII (Michael W. Deem and Ramdas Pophale) SiO2 
 PCOD8261650
Probable space group: C M C A
;
_chemical_formula_sum "Si O2"
_cell_formula_units_Z 96
_cell_length_a 20.396238
_cell_length_b 10.767625
_cell_length_c 23.476388
_cell_angle_alpha 90.000000
_cell_angle_beta 90.000000
_cell_angle_gamma 90.000000
_cell_volume 5155.861847
_symmetry_space_group_name_H-M "C M C A"
_symmetry_group_IT_number 64
_symmetry_cell_setting 'orthorhombic'
loop_
_space_group_symop_operation_xyz
x,y,z
-x,1/2-y,1/2+z
x,-y,-z
-x,1/2+y,1/2-z
-x,-y,-z
x,1/2+y,1/2-z
-x,y,z
x,1/2-y,1/2+z
1/2+x,1/2+y,z
1/2-x,-y,1/2+z
1/2+x,1/2-y,-z
1/2-x,y,1/2-z
1/2-x,1/2-y,-z
1/2+x,y,1/2-z
1/2-x,1/2+y,z
1/2+x,-y,1/2+z
loop_
_atom_site_type_symbol
_atom_site_label
_atom_site_fract_x
_atom_site_fract_y
_atom_site_fract_z
Si Si1 0.379600 0.265644 0.825830
Si Si2 0.192767 0.978676 0.564135
Si Si3 0.071819 0.011455 0.227189
Si Si4 0.927153 0.001292 0.647883
Si Si5 0.256045 0.236705 0.892841
Si Si6 0.812672 0.170855 0.779857
O O1 0.428998 0.379798 0.819861
O O2 0.423346 0.144994 0.834323
O O3 0.329584 0.279822 0.878095
O O4 0.337269 0.268355 0.767260
O O5 0.128146 0.965103 0.602872
O O6 0.239437 0.095410 0.582116
O O7 0.168829 0.000000 0.500000
O O8 0.229963 0.845305 0.565480
O O9 0.083559 0.067206 0.291260
O O10 0.129138 0.922437 0.206261
O O11 0.000000 0.946387 0.224721
O O12 0.000000 0.973082 0.622809
O O13 0.208248 0.236523 0.838335
O O14 0.750000 0.101418 0.750000
#
# Coordination Sequence:
#
# PCOD8261650 Si02
#       6
#    16  16  16  16  16  16
#     4   9  17  29  49  74 101 134 164 197 245 304
#     4  11  22  36  54  74  97 129 171 217 257 291
#     4  10  18  29  48  75 107 137 164 199 248 305
#     4   9  19  33  48  70 100 133 169 205 243 293
#     4  10  20  35  54  76 102 130 165 209 254 300
#     4   9  18  30  48  73 101 132 165 201 246 304
#
# _framework density 18.619584
#
# number of rings (size 3 to 8) (size 9 to 14) (size 15 to 20)
#    0.000    2.333    0.000    4.000    0.000    3.000 
#    0.000    0.833    0.000    0.000    0.000    0.000 
#    0.000   14.000    0.000    0.000    0.000    0.000 
#
# Total GULP energy -594647.249505 kJ/mol
# GULP energy per Si atom -12388.484365 kJ/mol
# Density = 1.857721 g / cm^3
# Si number density = 18.619584 Si / 1000 Ang^3
#
#
#
# Elastic Constant Matrix: (Units=GPa)
#
#
# Indices 1 2 3 4 5 6 
#
# 1 90.1713 29.4913 14.0933 0.0000 0.0000 0.0000
# 2 29.4913 70.9160 10.7438 0.0000 0.0000 0.0000
# 3 14.0933 10.7438 46.9680 0.0000 0.0000 0.0000
# 4 0.0000 0.0000 0.0000 20.4685 0.0000 0.0000
# 5 0.0000 0.0000 0.0000 0.0000 11.9282 0.0000
# 6 0.0000 0.0000 0.0000 0.0000 0.0000 16.0397
#
#
#
# Elastic Compliance Matrix: (Units=1/GPa)
#
#
# Indices 1 2 3 4 5 6 
#
# 1 0.013182 -0.005058 -0.002798 0.000000 0.000000 0.000000
# 2 -0.005058 0.016548 -0.002268 0.000000 0.000000 0.000000
# 3 -0.002798 -0.002268 0.022649 0.000000 0.000000 0.000000
# 4 0.000000 0.000000 0.000000 0.048855 0.000000 0.000000
# 5 0.000000 0.000000 0.000000 0.000000 0.083835 0.000000
# 6 0.000000 0.000000 0.000000 0.000000 0.000000 0.062345
#
#
# Mechanical properties :
#
#
# Convention : Reuss Voigt Hill
#
# Bulk Modulus (GPa) = 31.12205 35.19025 33.15615
# Shear Modulus (GPa) = 17.96155 19.93577 18.94866
#
# Velocity S-wave (km/s) = 3.10927 3.27569 3.19356
# Velocity P-wave (km/s) = 5.44436 5.76606 5.60752
#
# Compressibility (1/GPa) = 0.03213156
#
# Stress axis : x y z
#
# Youngs Moduli (GPa) = 75.86357 60.43001 44.15109
#
# Poissons Ratio (x) = 0.30564 0.12355
# Poissons Ratio (y) = 0.38370 0.10012
# Poissons Ratio (z) = 0.21229 0.13704
#
# Static dielectric constant tensor:
#      x y z
#    x 3.440110 0.000000 0.000000 
#    y 0.000000 3.249320 0.000000 
#    z 0.000000 0.000000 3.197290 
# 
# 
# High freq. dielectric constant tensor:
#      x y z
#    x 1.729850 0.000000 0.000000 
#    y 0.000000 1.709190 0.000000 
#    z 0.000000 0.000000 1.691350 
# 
# From -- ./inp_files/40848.got.cif
#   From: 2010.03.12/outbox.cif.g09.slc.cpg/sg64_21_cif.got.tgz:40848.got - 2010.04.10 20:19:32.
