data_PCOD8261542
_publ_section_title
;
Structure prediction by ZEFSAII (Michael W. Deem and Ramdas Pophale) SiO2 
 PCOD8261542
Probable space group: C M C A
;
_chemical_formula_sum "Si O2"
_cell_formula_units_Z 88
_cell_length_a 13.383344
_cell_length_b 18.221940
_cell_length_c 20.884772
_cell_angle_alpha 90.000000
_cell_angle_beta 90.000000
_cell_angle_gamma 90.000000
_cell_volume 5093.179610
_symmetry_space_group_name_H-M "C M C A"
_symmetry_group_IT_number 64
_symmetry_cell_setting 'orthorhombic'
loop_
_space_group_symop_operation_xyz
x,y,z
-x,1/2-y,1/2+z
x,-y,-z
-x,1/2+y,1/2-z
-x,-y,-z
x,1/2+y,1/2-z
-x,y,z
x,1/2-y,1/2+z
1/2+x,1/2+y,z
1/2-x,-y,1/2+z
1/2+x,1/2-y,-z
1/2-x,y,1/2-z
1/2-x,1/2-y,-z
1/2+x,y,1/2-z
1/2-x,1/2+y,z
1/2+x,-y,1/2+z
loop_
_atom_site_type_symbol
_atom_site_label
_atom_site_fract_x
_atom_site_fract_y
_atom_site_fract_z
Si Si1 0.750000 0.338391 0.750000
Si Si2 0.888969 0.736774 0.832802
Si Si3 0.117038 0.575801 0.148425
Si Si4 0.192190 0.363888 0.985607
Si Si5 0.115742 0.413396 0.115428
Si Si6 0.609980 0.710717 0.024415
O O1 0.820763 0.284695 0.711855
O O2 0.817485 0.388361 0.795859
O O3 0.843782 0.654389 0.841413
O O4 0.000000 0.733241 0.802650
O O5 0.891840 0.775651 0.900661
O O6 0.133431 0.488354 0.153650
O O7 0.000000 0.596038 0.156840
O O8 0.155703 0.599082 0.079193
O O9 0.166544 0.415547 0.045626
O O10 0.312063 0.354439 0.988760
O O11 0.139982 0.284589 0.987325
O O12 0.000000 0.398077 0.101390
O O13 0.500000 0.685974 0.000438
#
# Coordination Sequence:
#
# PCOD8261542 Si02
#       6
#     8  16  16  16  16  16
#     4  12  22  34  52  78 102 142 176 216 252 306
#     4   9  18  35  53  72 100 139 175 208 255 312
#     4  11  22  35  53  81 108 135 176 221 261 307
#     4  10  17  31  55  82 105 132 170 218 270 311
#     4   9  19  35  56  78 104 134 169 218 272 315
#     4   9  17  30  52  79 108 135 167 213 263 313
#
# _framework density 17.278009000000001
#
# number of rings (size 3 to 8) (size 9 to 14) (size 15 to 20)
#    0.000    2.182    1.818    3.818    0.000    2.182 
#    0.000    0.000    0.000    4.364    0.000    0.000 
#    0.000    0.000    0.000    0.000    0.000    0.000 
#
# Total GULP energy -545472.950438 kJ/mol
# GULP energy per Si atom -12397.112510 kJ/mol
# Density = 1.723868 g / cm^3
# Si number density = 17.278009 Si / 1000 Ang^3
#
#
#
# Elastic Constant Matrix: (Units=GPa)
#
#
# Indices 1 2 3 4 5 6 
#
# 1 122.0762 54.4788 54.5910 0.0000 0.0000 0.0000
# 2 54.4788 91.0893 61.8385 0.0000 0.0000 0.0000
# 3 54.5910 61.8385 64.6430 0.0000 0.0000 0.0000
# 4 0.0000 0.0000 0.0000 25.4494 0.0000 0.0000
# 5 0.0000 0.0000 0.0000 0.0000 30.9999 0.0000
# 6 0.0000 0.0000 0.0000 0.0000 0.0000 24.1541
#
#
#
# Elastic Compliance Matrix: (Units=1/GPa)
#
#
# Indices 1 2 3 4 5 6 
#
# 1 0.013190 -0.000932 -0.010248 0.000000 0.000000 0.000000
# 2 -0.000932 0.031381 -0.029232 0.000000 0.000000 0.000000
# 3 -0.010248 -0.029232 0.052088 0.000000 0.000000 0.000000
# 4 0.000000 0.000000 0.000000 0.039294 0.000000 0.000000
# 5 0.000000 0.000000 0.000000 0.000000 0.032258 0.000000
# 6 0.000000 0.000000 0.000000 0.000000 0.000000 0.041401
#
#
# Mechanical properties :
#
#
# Convention : Reuss Voigt Hill
#
# Bulk Modulus (GPa) = 63.15120 68.84723 65.99922
# Shear Modulus (GPa) = 16.90828 23.24735 20.07782
#
# Velocity S-wave (km/s) = 3.13165 3.67207 3.41258
# Velocity P-wave (km/s) = 7.05023 7.61000 7.33545
#
# Compressibility (1/GPa) = 0.01583501
#
# Stress axis : x y z
#
# Youngs Moduli (GPa) = 75.81464 31.86670 19.19839
#
# Poissons Ratio (x) = 0.02970 0.19674
# Poissons Ratio (y) = 0.07065 0.56121
# Poissons Ratio (z) = 0.77692 0.93154
#
# Static dielectric constant tensor:
#      x y z
#    x 3.322450 0.000000 0.000000 
#    y 0.000000 3.304120 0.000000 
#    z 0.000000 0.000000 3.297860 
# 
# 
# High freq. dielectric constant tensor:
#      x y z
#    x 1.671740 0.000000 0.000000 
#    y 0.000000 1.662210 0.000000 
#    z 0.000000 0.000000 1.653530 
# 
# From -- ./inp_files/32316.got.cif
#   From: 2010.03.12/outbox.cif.g09.slc.cpg/sg64_17_cif.got.tgz:32316.got - 2010.04.10 20:19:32.
