data_PCOD8261902
_publ_section_title
;
Structure prediction by ZEFSAII (Michael W. Deem and Ramdas Pophale) SiO2 
 PCOD8261902
Probable space group: C M C A
;
_chemical_formula_sum "Si O2"
_cell_formula_units_Z 112
_cell_length_a 15.569964
_cell_length_b 23.379428
_cell_length_c 15.017406
_cell_angle_alpha 90.000000
_cell_angle_beta 90.000000
_cell_angle_gamma 90.000000
_cell_volume 5466.588862
_symmetry_space_group_name_H-M "C M C A"
_symmetry_group_IT_number 64
_symmetry_cell_setting 'orthorhombic'
loop_
_space_group_symop_operation_xyz
x,y,z
-x,1/2-y,1/2+z
x,-y,-z
-x,1/2+y,1/2-z
-x,-y,-z
x,1/2+y,1/2-z
-x,y,z
x,1/2-y,1/2+z
1/2+x,1/2+y,z
1/2-x,-y,1/2+z
1/2+x,1/2-y,-z
1/2-x,y,1/2-z
1/2-x,1/2-y,-z
1/2+x,y,1/2-z
1/2-x,1/2+y,z
1/2+x,-y,1/2+z
loop_
_atom_site_type_symbol
_atom_site_label
_atom_site_fract_x
_atom_site_fract_y
_atom_site_fract_z
Si Si1 0.636562 0.439852 0.480609
Si Si2 0.732795 0.820852 0.654383
Si Si3 0.344599 0.394902 0.285778
Si Si4 0.903070 0.223817 0.644972
Si Si5 0.906150 0.820525 0.548732
Si Si6 0.180565 0.427294 0.553458
Si Si7 0.902836 0.535635 0.620717
O O1 0.586937 0.500000 0.500000
O O2 0.656439 0.431208 0.376424
O O3 0.584821 0.386992 0.521452
O O4 0.722912 0.445576 0.536562
O O5 0.750000 0.849736 0.750000
O O6 0.672821 0.766290 0.673505
O O7 0.825992 0.805538 0.612216
O O8 0.677521 0.864055 0.594498
O O9 0.250000 0.382851 0.250000
O O10 0.391905 0.334842 0.300480
O O11 0.395397 0.431818 0.213600
O O12 0.890573 0.215541 0.540035
O O13 0.000000 0.246714 0.664969
O O14 0.000000 0.804246 0.591312
O O15 0.129790 0.424809 0.460398
O O16 0.144967 0.474479 0.622108
O O17 0.000000 0.520594 0.601606
#
# Coordination Sequence:
#
# PCOD8261902 Si02
#       7
#    16  16  16  16  16  16  16
#     4  10  18  34  59  88 123 163 203 246 305 367
#     4  11  24  41  64  89 123 166 203 253 314 367
#     4  11  20  36  62  89 122 160 205 257 308 366
#     4  10  22  41  63  89 121 157 207 260 308 364
#     4   9  21  40  61  87 120 162 207 253 306 370
#     4  10  20  39  58  87 124 163 199 244 301 375
#     4  11  22  38  62  93 125 159 205 257 305 363
#
# _framework density 20.488097
#
# number of rings (size 3 to 8) (size 9 to 14) (size 15 to 20)
#    0.000    1.714    2.857    2.143    0.000    5.429 
#    2.571    1.429    0.000    0.000    0.000    0.000 
#    0.000    0.000    0.000    0.000    0.000    0.000 
#
# Total GULP energy -694166.458964 kJ/mol
# GULP energy per Si atom -12395.829624 kJ/mol
# Density = 2.044147 g / cm^3
# Si number density = 20.488097 Si / 1000 Ang^3
#
#
#
# Elastic Constant Matrix: (Units=GPa)
#
#
# Indices 1 2 3 4 5 6 
#
# 1 130.9089 28.5293 37.7991 0.0000 0.0000 0.0000
# 2 28.5293 88.0833 28.7411 0.0000 0.0000 0.0000
# 3 37.7991 28.7411 81.7831 0.0000 0.0000 0.0000
# 4 0.0000 0.0000 0.0000 27.0593 0.0000 0.0000
# 5 0.0000 0.0000 0.0000 0.0000 7.8472 0.0000
# 6 0.0000 0.0000 0.0000 0.0000 0.0000 29.1380
#
#
#
# Elastic Compliance Matrix: (Units=1/GPa)
#
#
# Indices 1 2 3 4 5 6 
#
# 1 0.009053 -0.001770 -0.003562 0.000000 0.000000 0.000000
# 2 -0.001770 0.013169 -0.003810 0.000000 0.000000 0.000000
# 3 -0.003562 -0.003810 0.015213 0.000000 0.000000 0.000000
# 4 0.000000 0.000000 0.000000 0.036956 0.000000 0.000000
# 5 0.000000 0.000000 0.000000 0.000000 0.127435 0.000000
# 6 0.000000 0.000000 0.000000 0.000000 0.000000 0.034319
#
#
# Mechanical properties :
#
#
# Convention : Reuss Voigt Hill
#
# Bulk Modulus (GPa) = 52.21680 54.54600 53.38140
# Shear Modulus (GPa) = 19.17078 26.52263 22.84671
#
# Velocity S-wave (km/s) = 3.06225 3.60187 3.34297
# Velocity P-wave (km/s) = 6.16805 6.63167 6.40406
#
# Compressibility (1/GPa) = 0.01915093
#
# Stress axis : x y z
#
# Youngs Moduli (GPa) = 110.45814 75.93389 65.73372
#
# Poissons Ratio (x) = 0.13439 0.23416
# Poissons Ratio (y) = 0.19550 0.25045
# Poissons Ratio (z) = 0.39348 0.28931
#
# Static dielectric constant tensor:
#      x y z
#    x 3.813560 0.000000 0.000000 
#    y 0.000000 4.338570 0.000000 
#    z 0.000000 0.000000 3.762510 
# 
# 
# High freq. dielectric constant tensor:
#      x y z
#    x 1.812560 0.000000 0.000000 
#    y 0.000000 1.792450 0.000000 
#    z 0.000000 0.000000 1.796240 
# 
# From -- ./inp_files/24203.got.cif
#   From: 2010.03.12/outbox.cif.g09.slc.cpg/sg64_13_cif.got.tgz:24203.got - 2010.04.10 20:19:32.
