data_PCOD8261129
_publ_section_title
;
Structure prediction by ZEFSAII (Michael W. Deem and Ramdas Pophale) SiO2 
 PCOD8261129
Probable space group: C M C M
;
_chemical_formula_sum "Si O2"
_cell_formula_units_Z 60
_cell_length_a 13.476046
_cell_length_b 13.219877
_cell_length_c 16.872588
_cell_angle_alpha 90.000000
_cell_angle_beta 90.000000
_cell_angle_gamma 90.000000
_cell_volume 3005.879739
_symmetry_space_group_name_H-M "C M C M"
_symmetry_group_IT_number 63
_symmetry_cell_setting 'orthorhombic'
loop_
_space_group_symop_operation_xyz
x,y,z
-x,-y,1/2+z
x,-y,-z
-x,y,1/2-z
-x,-y,-z
x,y,1/2-z
-x,y,z
x,-y,1/2+z
1/2+x,1/2+y,z
1/2-x,1/2-y,1/2+z
1/2+x,1/2-y,-z
1/2-x,1/2+y,1/2-z
1/2-x,1/2-y,-z
1/2+x,1/2+y,1/2-z
1/2-x,1/2+y,z
1/2+x,1/2-y,1/2+z
loop_
_atom_site_type_symbol
_atom_site_label
_atom_site_fract_x
_atom_site_fract_y
_atom_site_fract_z
Si Si1 0.000000 0.926867 0.250000
Si Si2 0.804701 0.601392 0.625952
Si Si3 0.815152 0.784208 0.250000
Si Si4 0.500000 0.801519 0.155963
Si Si5 0.619855 0.947123 0.750000
Si Si6 0.670191 0.500000 0.000000
Si Si7 0.500000 0.577606 0.393639
O O1 0.093495 0.857356 0.250000
O O2 0.000000 0.990020 0.329668
O O3 0.748477 0.689782 0.673021
O O4 0.909005 0.653317 0.605959
O O5 0.828716 0.498943 0.674235
O O6 0.741176 0.574624 0.548974
O O7 0.849017 0.669029 0.250000
O O8 0.500000 0.835175 0.250000
O O9 0.500000 0.681470 0.153500
O O10 0.500000 0.958229 0.750000
O O11 0.599760 0.430581 0.945582
#
# Coordination Sequence:
#
# PCOD8261129 Si02
#       7
#     4  16   8   8   8   8   8
#     4  12  20  42  70 100 120 166 226 274 306 374
#     4  11  24  43  64  96 133 168 217 268 317 398
#     4  11  23  37  71  98 126 169 224 267 324 374
#     4  12  23  43  71  98 123 170 228 264 314 381
#     4  11  22  44  67  96 129 167 218 277 313 373
#     4  11  26  45  60  96 140 169 208 269 336 382
#     4  11  26  43  68  94 132 169 215 277 313 386
#
# _framework density 19.960878999999998
#
# number of rings (size 3 to 8) (size 9 to 14) (size 15 to 20)
#    0.000    0.800    8.000    0.000    3.733    1.600 
#    0.000    0.000    0.000    0.000    0.000    0.000 
#    0.000    0.000    0.000    0.000    0.000    0.000 
#
# Total GULP energy -371959.611508 kJ/mol
# GULP energy per Si atom -12398.653717 kJ/mol
# Density = 1.991545 g / cm^3
# Si number density = 19.960879 Si / 1000 Ang^3
#
#
#
# Elastic Constant Matrix: (Units=GPa)
#
#
# Indices 1 2 3 4 5 6 
#
# 1 151.7013 48.6612 44.2456 0.0000 0.0000 0.0000
# 2 48.6612 137.2670 32.4980 0.0000 0.0000 0.0000
# 3 44.2456 32.4980 78.2989 0.0000 0.0000 0.0000
# 4 0.0000 0.0000 0.0000 170.0494 0.0000 0.0000
# 5 0.0000 0.0000 0.0000 0.0000 118.7551 0.0000
# 6 0.0000 0.0000 0.0000 0.0000 0.0000 36.7498
#
#
#
# Elastic Compliance Matrix: (Units=1/GPa)
#
#
# Indices 1 2 3 4 5 6 
#
# 1 0.008383 -0.002052 -0.003886 0.000000 0.000000 0.000000
# 2 -0.002052 0.008581 -0.002402 0.000000 0.000000 0.000000
# 3 -0.003886 -0.002402 0.015964 0.000000 0.000000 0.000000
# 4 0.000000 0.000000 0.000000 0.005881 0.000000 0.000000
# 5 0.000000 0.000000 0.000000 0.000000 0.008421 0.000000
# 6 0.000000 0.000000 0.000000 0.000000 0.000000 0.027211
#
#
# Mechanical properties :
#
#
# Convention : Reuss Voigt Hill
#
# Bulk Modulus (GPa) = 61.54063 68.67519 65.10791
# Shear Modulus (GPa) = 51.79346 81.23501 66.51423
#
# Velocity S-wave (km/s) = 5.09939 6.38635 5.77881
# Velocity P-wave (km/s) = 8.09749 9.42657 8.78719
#
# Compressibility (1/GPa) = 0.01624943
#
# Stress axis : x y z
#
# Youngs Moduli (GPa) = 119.28300 116.53387 62.63975
#
# Poissons Ratio (x) = 0.23913 0.24340
# Poissons Ratio (y) = 0.24477 0.15047
# Poissons Ratio (z) = 0.46349 0.27992
#
# Static dielectric constant tensor:
#      x y z
#    x 4.065550 0.000000 0.000000 
#    y 0.000000 3.548960 0.000000 
#    z 0.000000 0.000000 3.475290 
# 
# 
# High freq. dielectric constant tensor:
#      x y z
#    x 1.809280 0.000000 0.000000 
#    y 0.000000 1.784100 0.000000 
#    z 0.000000 0.000000 1.759250 
# 
# From -- ./inp_files/41477.got.cif
#   From: 2010.03.12/outbox.cif.g09.slc.cpg/sg63_21_cif.got.tgz:41477.got - 2010.04.10 19:34:48.
