data_PCOD8261468
_publ_section_title
;
Structure prediction by ZEFSAII (Michael W. Deem and Ramdas Pophale) SiO2 
 PCOD8261468
Probable space group: C M C A
;
_chemical_formula_sum "Si O2"
_cell_formula_units_Z 80
_cell_length_a 8.788213
_cell_length_b 26.127156
_cell_length_c 18.694451
_cell_angle_alpha 90.000000
_cell_angle_beta 90.000000
_cell_angle_gamma 90.000000
_cell_volume 4292.451813
_symmetry_space_group_name_H-M "C M C A"
_symmetry_group_IT_number 64
_symmetry_cell_setting 'orthorhombic'
loop_
_space_group_symop_operation_xyz
x,y,z
-x,1/2-y,1/2+z
x,-y,-z
-x,1/2+y,1/2-z
-x,-y,-z
x,1/2+y,1/2-z
-x,y,z
x,1/2-y,1/2+z
1/2+x,1/2+y,z
1/2-x,-y,1/2+z
1/2+x,1/2-y,-z
1/2-x,y,1/2-z
1/2-x,1/2-y,-z
1/2+x,y,1/2-z
1/2-x,1/2+y,z
1/2+x,-y,1/2+z
loop_
_atom_site_type_symbol
_atom_site_label
_atom_site_fract_x
_atom_site_fract_y
_atom_site_fract_z
Si Si1 0.823447 0.705347 0.172940
Si Si2 0.823875 0.407745 0.827399
Si Si3 0.179894 0.093254 0.827695
Si Si4 0.319322 0.695715 0.670684
Si Si5 0.821377 0.004967 0.080988
O O1 0.750000 0.700774 0.250000
O O2 0.798714 0.649213 0.138537
O O3 0.738851 0.752141 0.130744
O O4 0.000000 0.719458 0.179527
O O5 0.750000 0.415224 0.750000
O O6 0.757300 0.446321 0.884567
O O7 0.000000 0.419177 0.815964
O O8 0.250000 0.082989 0.750000
O O9 0.252244 0.144073 0.864738
O O10 0.225872 0.046141 0.877426
O O11 0.000000 0.100295 0.820341
O O12 0.500000 0.693633 0.671211
O O13 0.250000 0.697500 0.750000
O O14 0.000000 0.014365 0.084218
O O15 0.763273 0.000000 0.000000
#
# Coordination Sequence:
#
# PCOD8261468 Si02
#       5
#    16  16  16  16  16
#     4   9  16  27  44  70 102 131 161 198 245 295
#     4  10  20  33  53  79 105 135 169 209 252 298
#     4  10  19  32  51  74 101 131 165 205 248 296
#     4  10  17  26  44  71 101 130 161 199 245 293
#     4  10  22  38  54  73 100 135 172 212 259 306
#
# _framework density 18.637367000000001
#
# number of rings (size 3 to 8) (size 9 to 14) (size 15 to 20)
#    0.000    2.200    0.000    6.600    0.000    6.000 
#    0.000    0.000    0.000    1.200    0.000    0.000 
#    0.000    0.000    0.000    0.000    0.000    0.000 
#
# Total GULP energy -495729.555947 kJ/mol
# GULP energy per Si atom -12393.238899 kJ/mol
# Density = 1.859495 g / cm^3
# Si number density = 18.637367 Si / 1000 Ang^3
#
#
#
# Elastic Constant Matrix: (Units=GPa)
#
#
# Indices 1 2 3 4 5 6 
#
# 1 103.9030 78.7592 32.9466 0.0000 0.0000 0.0000
# 2 78.7592 192.0612 63.1621 0.0000 0.0000 0.0000
# 3 32.9466 63.1621 72.0798 0.0000 0.0000 0.0000
# 4 0.0000 0.0000 0.0000 0.6086 0.0000 0.0000
# 5 0.0000 0.0000 0.0000 0.0000 16.6158 0.0000
# 6 0.0000 0.0000 0.0000 0.0000 0.0000 35.9958
#
#
#
# Elastic Compliance Matrix: (Units=1/GPa)
#
#
# Indices 1 2 3 4 5 6 
#
# 1 0.014157 -0.005166 -0.001944 0.000000 0.000000 0.000000
# 2 -0.005166 0.009200 -0.005700 0.000000 0.000000 0.000000
# 3 -0.001944 -0.005700 0.019757 0.000000 0.000000 0.000000
# 4 0.000000 0.000000 0.000000 1.643066 0.000000 0.000000
# 5 0.000000 0.000000 0.000000 0.000000 0.060184 0.000000
# 6 0.000000 0.000000 0.000000 0.000000 0.000000 0.027781
#
#
# Mechanical properties :
#
#
# Convention : Reuss Voigt Hill
#
# Bulk Modulus (GPa) = 57.16541 79.75332 68.45937
# Shear Modulus (GPa) = 2.76917 23.52245 13.14581
#
# Velocity S-wave (km/s) = 1.22026 3.55648 2.65872
# Velocity P-wave (km/s) = 5.72053 7.72980 6.79979
#
# Compressibility (1/GPa) = 0.01749310
#
# Stress axis : x y z
#
# Youngs Moduli (GPa) = 70.63843 108.69912 50.61476
#
# Poissons Ratio (x) = 0.56153 0.09839
# Poissons Ratio (y) = 0.36491 0.28852
# Poissons Ratio (z) = 0.13732 0.61961
#
# Static dielectric constant tensor:
#      x y z
#    x 3.519860 0.000000 0.000000 
#    y 0.000000 4.700560 0.000000 
#    z 0.000000 0.000000 2.916330 
# 
# 
# High freq. dielectric constant tensor:
#      x y z
#    x 1.738740 0.000000 0.000000 
#    y 0.000000 1.758790 0.000000 
#    z 0.000000 0.000000 1.655140 
# 
# From -- ./inp_files/29823.got.cif
#   From: 2010.03.12/outbox.cif.g09.slc.cpg/sg64_15_cif.got.tgz:29823.got - 2010.04.10 20:19:32.
