data_PCOD8261235
_publ_section_title
;
Structure prediction by ZEFSAII (Michael W. Deem and Ramdas Pophale) SiO2 
 PCOD8261235
Probable space group: C M C M
;
_chemical_formula_sum "Si O2"
_cell_formula_units_Z 64
_cell_length_a 13.735253
_cell_length_b 28.043270
_cell_length_c 7.714206
_cell_angle_alpha 90.000000
_cell_angle_beta 90.000000
_cell_angle_gamma 90.000000
_cell_volume 2971.368732
_symmetry_space_group_name_H-M "C M C M"
_symmetry_group_IT_number 63
_symmetry_cell_setting 'orthorhombic'
loop_
_space_group_symop_operation_xyz
x,y,z
-x,-y,1/2+z
x,-y,-z
-x,y,1/2-z
-x,-y,-z
x,y,1/2-z
-x,y,z
x,-y,1/2+z
1/2+x,1/2+y,z
1/2-x,1/2-y,1/2+z
1/2+x,1/2-y,-z
1/2-x,1/2+y,1/2-z
1/2-x,1/2-y,-z
1/2+x,1/2+y,1/2-z
1/2-x,1/2+y,z
1/2+x,1/2-y,1/2+z
loop_
_atom_site_type_symbol
_atom_site_label
_atom_site_fract_x
_atom_site_fract_y
_atom_site_fract_z
Si Si1 0.614616 0.597762 0.750000
Si Si2 0.116770 0.794349 0.250000
Si Si3 0.111155 0.377507 0.452910
Si Si4 0.229254 0.052542 0.444030
Si Si5 0.615843 0.229765 0.941835
O O1 0.500000 0.598026 0.750000
O O2 0.656138 0.651749 0.750000
O O3 0.648401 0.571660 0.576165
O O4 0.158892 0.767878 0.421224
O O5 0.000000 0.792275 0.250000
O O6 0.126708 0.387045 0.250000
O O7 0.175943 0.414336 0.558967
O O8 0.143204 0.323716 0.500372
O O9 0.000000 0.386188 0.507525
O O10 0.184569 0.051908 0.250000
O O11 0.262307 0.000000 0.500000
O O12 0.658867 0.240560 0.750000
O O13 0.500000 0.233991 0.934064
#
# Coordination Sequence:
#
# PCOD8261235 Si02
#       5
#     8   8  16  16  16
#     4  11  26  48  68  91 121 159 213 276 329 373
#     4   9  18  34  59  87 121 159 204 256 308 367
#     4   9  18  36  65  98 137 176 206 242 297 372
#     4  12  25  45  68  93 127 162 206 267 321 375
#     4   8  15  29  54  89 126 167 205 239 288 358
#
# _framework density 21.538896000000001
#
# number of rings (size 3 to 8) (size 9 to 14) (size 15 to 20)
#    0.000    2.250    2.500    1.500    1.750    3.000 
#    0.000    3.750    0.000    0.000    0.000    0.000 
#    0.000    0.000    0.000    0.000    0.000    0.000 
#
# Total GULP energy -396860.119222 kJ/mol
# GULP energy per Si atom -12401.878726 kJ/mol
# Density = 2.148987 g / cm^3
# Si number density = 21.538896 Si / 1000 Ang^3
#
#
#
# Elastic Constant Matrix: (Units=GPa)
#
#
# Indices 1 2 3 4 5 6 
#
# 1 45.6042 32.2813 32.1092 0.0000 0.0000 0.0000
# 2 32.2813 151.0031 77.6456 0.0000 0.0000 0.0000
# 3 32.1092 77.6456 161.5175 0.0000 0.0000 0.0000
# 4 0.0000 0.0000 0.0000 36.4169 0.0000 0.0000
# 5 0.0000 0.0000 0.0000 0.0000 27.7380 0.0000
# 6 0.0000 0.0000 0.0000 0.0000 0.0000 29.5244
#
#
#
# Elastic Compliance Matrix: (Units=1/GPa)
#
#
# Indices 1 2 3 4 5 6 
#
# 1 0.027230 -0.004035 -0.003473 0.000000 0.000000 0.000000
# 2 -0.004035 0.009395 -0.003714 0.000000 0.000000 0.000000
# 3 -0.003473 -0.003714 0.008667 0.000000 0.000000 0.000000
# 4 0.000000 0.000000 0.000000 0.027460 0.000000 0.000000
# 5 0.000000 0.000000 0.000000 0.000000 0.036052 0.000000
# 6 0.000000 0.000000 0.000000 0.000000 0.000000 0.033870
#
#
# Mechanical properties :
#
#
# Convention : Reuss Voigt Hill
#
# Bulk Modulus (GPa) = 43.77055 71.35524 57.56290
# Shear Modulus (GPa) = 28.94619 33.14176 31.04397
#
# Velocity S-wave (km/s) = 3.66991 3.92687 3.80056
# Velocity P-wave (km/s) = 6.19059 7.33218 6.78544
#
# Compressibility (1/GPa) = 0.02284641
#
# Stress axis : x y z
#
# Youngs Moduli (GPa) = 36.72463 106.44155 115.37652
#
# Poissons Ratio (x) = 0.42951 0.40075
# Poissons Ratio (y) = 0.14819 0.42853
# Poissons Ratio (z) = 0.12756 0.39534
#
# Static dielectric constant tensor:
#      x y z
#    x 3.635970 0.000000 0.000000 
#    y 0.000000 4.014440 0.000000 
#    z 0.000000 0.000000 4.116100 
# 
# 
# High freq. dielectric constant tensor:
#      x y z
#    x 1.839700 0.000000 0.000000 
#    y 0.000000 1.846510 0.000000 
#    z 0.000000 0.000000 1.850510 
# 
# From -- ./inp_files/4320.got.cif
#   From: 2010.03.12/outbox.cif.g09.slc.cpg/sg63_3_cif.got.tgz:4320.got - 2010.04.10 19:34:48.
