data_PCOD8261602
_publ_section_title
;
Structure prediction by ZEFSAII (Michael W. Deem and Ramdas Pophale) SiO2 
 PCOD8261602
Probable space group: C M C A
;
_chemical_formula_sum "Si O2"
_cell_formula_units_Z 96
_cell_length_a 20.744178
_cell_length_b 28.009075
_cell_length_c 6.473875
_cell_angle_alpha 90.000000
_cell_angle_beta 90.000000
_cell_angle_gamma 90.000000
_cell_volume 3761.484759
_symmetry_space_group_name_H-M "C M C A"
_symmetry_group_IT_number 64
_symmetry_cell_setting 'orthorhombic'
loop_
_space_group_symop_operation_xyz
x,y,z
-x,1/2-y,1/2+z
x,-y,-z
-x,1/2+y,1/2-z
-x,-y,-z
x,1/2+y,1/2-z
-x,y,z
x,1/2-y,1/2+z
1/2+x,1/2+y,z
1/2-x,-y,1/2+z
1/2+x,1/2-y,-z
1/2-x,y,1/2-z
1/2-x,1/2-y,-z
1/2+x,y,1/2-z
1/2-x,1/2+y,z
1/2+x,-y,1/2+z
loop_
_atom_site_type_symbol
_atom_site_label
_atom_site_fract_x
_atom_site_fract_y
_atom_site_fract_z
Si Si1 0.500000 0.708941 0.007446
Si Si2 0.000000 0.682368 0.952096
Si Si3 0.425685 0.539278 0.697692
Si Si4 0.573751 0.438328 0.828880
Si Si5 0.874277 0.135093 0.596969
Si Si6 0.255628 0.193262 0.984150
Si Si7 0.374838 0.157800 0.417798
O O1 0.500000 0.681094 0.795003
O O2 0.565325 0.693848 0.131285
O O3 0.500000 0.764614 0.953529
O O4 0.063111 0.654480 0.023034
O O5 0.500000 0.552515 0.647812
O O6 0.412817 0.481522 0.659631
O O7 0.378232 0.576748 0.578898
O O8 0.412756 0.543546 0.941324
O O9 0.500000 0.421978 0.811850
O O10 0.618131 0.391741 0.788551
O O11 0.820550 0.163288 0.459172
O O12 0.873723 0.148701 0.836719
O O13 0.250000 0.176483 0.750000
O O14 0.196264 0.178637 0.133391
O O15 0.250000 0.250000 0.000000
#
# Coordination Sequence:
#
# PCOD8261602 Si02
#       7
#     8   8  16  16  16  16  16
#     4  10  18  28  43  63  93 125 160 204 249 292
#     4  10  18  28  43  63  93 127 164 206 249 290
#     4   8  12  20  38  65  94 121 151 192 248 312
#     4   8  12  20  38  65  94 120 149 192 255 309
#     4   9  16  27  42  64  95 130 163 203 251 301
#     4  10  20  32  46  66  96 135 177 211 249 302
#     4   9  16  27  42  64  94 128 161 204 255 299
#
# _framework density 25.521839
#
# number of rings (size 3 to 8) (size 9 to 14) (size 15 to 20)
#    0.000    3.000    1.667    2.000    0.000    0.000 
#    0.000    0.000    0.000    0.000    0.000   12.833 
#    0.000    5.333    0.000    1.500    0.000   23.250 
#
# Total GULP energy -594648.371526 kJ/mol
# GULP energy per Si atom -12388.507740 kJ/mol
# Density = 2.546375 g / cm^3
# Si number density = 25.521839 Si / 1000 Ang^3
#
#
#
# Elastic Constant Matrix: (Units=GPa)
#
#
# Indices 1 2 3 4 5 6 
#
# 1 208.7569 121.7476 5.1844 0.0000 0.0000 0.0000
# 2 121.7476 227.6996 28.7397 0.0000 0.0000 0.0000
# 3 5.1844 28.7397 74.1379 0.0000 0.0000 0.0000
# 4 0.0000 0.0000 0.0000 46.3464 0.0000 0.0000
# 5 0.0000 0.0000 0.0000 0.0000 -8.1748 0.0000
# 6 0.0000 0.0000 0.0000 0.0000 0.0000 51.5072
#
#
#
# Elastic Compliance Matrix: (Units=1/GPa)
#
#
# Indices 1 2 3 4 5 6 
#
# 1 0.007033 -0.003889 0.001016 0.000000 0.000000 0.000000
# 2 -0.003889 0.006768 -0.002352 0.000000 0.000000 0.000000
# 3 0.001016 -0.002352 0.014329 0.000000 0.000000 0.000000
# 4 0.000000 0.000000 0.000000 0.021577 0.000000 0.000000
# 5 0.000000 0.000000 0.000000 0.000000 -0.122327 0.000000
# 6 0.000000 0.000000 0.000000 0.000000 0.000000 0.019415
#
#
# Mechanical properties :
#
#
# Convention : Reuss Voigt Hill
#
# Bulk Modulus (GPa) = 56.55969 91.32642 73.94305
# Shear Modulus (GPa) = -135.63522 41.59727 -47.01897
#
# Velocity S-wave (km/s) = -7.29795 4.04154 -4.29686
# Velocity P-wave (km/s) = 6.98599 7.59211 2.10190
#
# Compressibility (1/GPa) = 0.01768044
#
# Stress axis : x y z
#
# Youngs Moduli (GPa) = 142.18979 147.76041 69.78880
#
# Poissons Ratio (x) = 0.57457 -0.07088
# Poissons Ratio (y) = 0.55291 0.16411
# Poissons Ratio (z) = -0.14441 0.34747
#
# Static dielectric constant tensor:
#      x y z
#    x 4.791660 0.000000 0.000000 
#    y 0.000000 4.887330 0.000000 
#    z 0.000000 0.000000 5.145100 
# 
# 
# High freq. dielectric constant tensor:
#      x y z
#    x 1.971080 0.000000 0.000000 
#    y 0.000000 2.030650 0.000000 
#    z 0.000000 0.000000 2.097200 
# 
# From -- ./inp_files/16374.got.cif
#   From: 2010.03.12/outbox.cif.g09.slc.cpg/sg64_9_cif.got.tgz:16374.got - 2010.04.10 20:19:32.
