data_PCOD8261126
_publ_section_title
;
Structure prediction by ZEFSAII (Michael W. Deem and Ramdas Pophale) SiO2 
 PCOD8261126
Probable space group: C M C M
;
_chemical_formula_sum "Si O2"
_cell_formula_units_Z 64
_cell_length_a 12.623898
_cell_length_b 14.023000
_cell_length_c 17.896365
_cell_angle_alpha 90.000000
_cell_angle_beta 90.000000
_cell_angle_gamma 90.000000
_cell_volume 3168.102612
_symmetry_space_group_name_H-M "C M C M"
_symmetry_group_IT_number 63
_symmetry_cell_setting 'orthorhombic'
loop_
_space_group_symop_operation_xyz
x,y,z
-x,-y,1/2+z
x,-y,-z
-x,y,1/2-z
-x,-y,-z
x,y,1/2-z
-x,y,z
x,-y,1/2+z
1/2+x,1/2+y,z
1/2-x,1/2-y,1/2+z
1/2+x,1/2-y,-z
1/2-x,1/2+y,1/2-z
1/2-x,1/2-y,-z
1/2+x,1/2+y,1/2-z
1/2-x,1/2+y,z
1/2+x,1/2-y,1/2+z
loop_
_atom_site_type_symbol
_atom_site_label
_atom_site_fract_x
_atom_site_fract_y
_atom_site_fract_z
Si Si1 0.000000 0.396098 0.586617
Si Si2 0.000000 0.448311 0.750000
Si Si3 0.500000 0.309628 0.456880
Si Si4 0.324550 0.578399 0.611395
Si Si5 0.500000 0.268895 0.750000
Si Si6 0.826559 0.500000 0.000000
Si Si7 0.500000 0.417426 0.884934
Si Si8 0.824393 0.392638 0.250000
O O1 0.895720 0.454357 0.565634
O O2 0.000000 0.380964 0.676330
O O3 0.000000 0.303409 0.533884
O O4 0.103481 0.513894 0.750000
O O5 0.399508 0.333308 0.405974
O O6 0.500000 0.367539 0.534147
O O7 0.248368 0.575555 0.539964
O O8 0.394288 0.481908 0.623331
O O9 0.253646 0.605902 0.680773
O O10 0.500000 0.335430 0.822893
O O11 0.604694 0.203082 0.750000
#
# Coordination Sequence:
#
# PCOD8261126 Si02
#       8
#     8   4   8  16   4   8   8   8
#     4  11  26  38  64  95 137 164 218 277 320 381
#     4  11  22  44  59  88 130 180 207 258 334 391
#     4  11  25  41  68 101 126 161 220 281 309 380
#     4  11  22  45  68  93 126 174 214 258 326 390
#     4  11  28  42  63 102 132 166 215 270 314 381
#     4  11  22  41  66  96 124 177 214 257 332 382
#     4  11  23  45  67  95 133 167 211 269 329 376
#     4  11  25  42  67  91 129 170 217 262 313 393
#
# _framework density 20.201366
#
# number of rings (size 3 to 8) (size 9 to 14) (size 15 to 20)
#    0.000    1.000    5.000    1.500    3.500    5.500 
#    4.500    0.000    0.000    0.000    0.000    0.000 
#    0.000    0.000    0.000    0.000    0.000    0.000 
#
# Total GULP energy -396717.525512 kJ/mol
# GULP energy per Si atom -12397.422672 kJ/mol
# Density = 2.015539 g / cm^3
# Si number density = 20.201366 Si / 1000 Ang^3
#
#
#
# Elastic Constant Matrix: (Units=GPa)
#
#
# Indices 1 2 3 4 5 6 
#
# 1 137.4106 31.3694 53.8726 0.0000 0.0000 0.0000
# 2 31.3694 85.6611 19.5341 0.0000 0.0000 0.0000
# 3 53.8726 19.5341 127.9598 0.0000 0.0000 0.0000
# 4 0.0000 0.0000 0.0000 31.8934 0.0000 0.0000
# 5 0.0000 0.0000 0.0000 0.0000 -19.8459 0.0000
# 6 0.0000 0.0000 0.0000 0.0000 0.0000 -8.9525
#
#
#
# Elastic Compliance Matrix: (Units=1/GPa)
#
#
# Indices 1 2 3 4 5 6 
#
# 1 0.009238 -0.002586 -0.003494 0.000000 0.000000 0.000000
# 2 -0.002586 0.012819 -0.000868 0.000000 0.000000 0.000000
# 3 -0.003494 -0.000868 0.009419 0.000000 0.000000 0.000000
# 4 0.000000 0.000000 0.000000 0.031354 0.000000 0.000000
# 5 0.000000 0.000000 0.000000 0.000000 -0.050388 0.000000
# 6 0.000000 0.000000 0.000000 0.000000 0.000000 -0.111700
#
#
# Mechanical properties :
#
#
# Convention : Reuss Voigt Hill
#
# Bulk Modulus (GPa) = 56.88894 62.28708 59.58801
# Shear Modulus (GPa) = -62.89180 17.03602 -22.92789
#
# Velocity S-wave (km/s) = -5.58570 2.90713 -3.37258
# Velocity P-wave (km/s) = 3.65759 6.49373 3.79411
#
# Compressibility (1/GPa) = 0.01757811
#
# Stress axis : x y z
#
# Youngs Moduli (GPa) = 108.25026 78.00978 106.17184
#
# Poissons Ratio (x) = 0.20174 0.37101
# Poissons Ratio (y) = 0.27994 0.09217
# Poissons Ratio (z) = 0.37828 0.06772
#
# Static dielectric constant tensor:
#      x y z
#    x 3.976510 0.000000 0.000000 
#    y 0.000000 3.488450 0.000000 
#    z 0.000000 0.000000 3.491180 
# 
# 
# High freq. dielectric constant tensor:
#      x y z
#    x 1.814400 0.000000 0.000000 
#    y 0.000000 1.772150 0.000000 
#    z 0.000000 0.000000 1.802540 
# 
# From -- ./inp_files/41624.got.cif
#   From: 2010.03.12/outbox.cif.g09.slc.cpg/sg63_21_cif.got.tgz:41624.got - 2010.04.10 19:34:48.
