data_PCOD8261047
_publ_section_title
;
Structure prediction by ZEFSAII (Michael W. Deem and Ramdas Pophale) SiO2 
 PCOD8261047
Probable space group: C M C M
;
_chemical_formula_sum "Si O2"
_cell_formula_units_Z 112
_cell_length_a 30.865273
_cell_length_b 11.412395
_cell_length_c 14.596044
_cell_angle_alpha 90.000000
_cell_angle_beta 90.000000
_cell_angle_gamma 90.000000
_cell_volume 5141.408146
_symmetry_space_group_name_H-M "C M C M"
_symmetry_group_IT_number 63
_symmetry_cell_setting 'orthorhombic'
loop_
_space_group_symop_operation_xyz
x,y,z
-x,-y,1/2+z
x,-y,-z
-x,y,1/2-z
-x,-y,-z
x,y,1/2-z
-x,y,z
x,-y,1/2+z
1/2+x,1/2+y,z
1/2-x,1/2-y,1/2+z
1/2+x,1/2-y,-z
1/2-x,1/2+y,1/2-z
1/2-x,1/2-y,-z
1/2+x,1/2+y,1/2-z
1/2-x,1/2+y,z
1/2+x,1/2-y,1/2+z
loop_
_atom_site_type_symbol
_atom_site_label
_atom_site_fract_x
_atom_site_fract_y
_atom_site_fract_z
Si Si1 0.421013 0.626238 0.981219
Si Si2 0.452025 0.174772 0.146296
Si Si3 0.659238 0.373083 0.149643
Si Si4 0.872749 0.233303 0.145115
Si Si5 0.293023 0.851046 0.852291
Si Si6 0.797563 0.921126 0.912156
Si Si7 0.626520 0.001096 0.393529
O O1 0.450240 0.716881 0.924574
O O2 0.379293 0.599496 0.919224
O O3 0.444031 0.500000 0.000000
O O4 0.409959 0.679701 0.080700
O O5 0.445522 0.221272 0.250000
O O6 0.500000 0.118664 0.135220
O O7 0.416353 0.076544 0.125873
O O8 0.642053 0.331321 0.250000
O O9 0.688186 0.269187 0.105269
O O10 0.688510 0.488319 0.167636
O O11 0.877974 0.188037 0.250000
O O12 0.826117 0.196518 0.101860
O O13 0.878679 0.372375 0.146395
O O14 0.274919 0.829128 0.750000
O O15 0.253063 0.891209 0.914554
O O16 0.331174 0.945403 0.846574
O O17 0.809945 0.000000 0.000000
O O18 0.635696 0.000000 0.500000
#
# Coordination Sequence:
#
# PCOD8261047 Si02
#       7
#    16  16  16  16  16  16  16
#     4  12  23  43  69 101 137 176 227 276 338 406
#     4  11  25  48  78 107 136 175 224 277 340 419
#     4  11  21  39  64  89 131 183 232 281 335 400
#     4  12  24  41  64  97 139 183 227 279 339 401
#     4  11  24  39  61  93 131 182 236 288 335 396
#     4  12  25  41  60  93 138 183 242 284 342 397
#     4  12  24  44  70  99 136 177 228 282 349 411
#
# _framework density 21.783916000000001
#
# number of rings (size 3 to 8) (size 9 to 14) (size 15 to 20)
#    0.000    0.429    5.714    3.429    2.000    1.714 
#    0.000    0.000    0.000    0.429    0.000    0.000 
#    0.000    0.000    0.000    0.000    0.000    0.000 
#
# Total GULP energy -694171.351087 kJ/mol
# GULP energy per Si atom -12395.916984 kJ/mol
# Density = 2.173433 g / cm^3
# Si number density = 21.783916 Si / 1000 Ang^3
#
#
#
# Elastic Constant Matrix: (Units=GPa)
#
#
# Indices 1 2 3 4 5 6 
#
# 1 94.7813 37.4718 20.1985 0.0000 0.0000 0.0000
# 2 37.4718 137.5658 19.7503 0.0000 0.0000 0.0000
# 3 20.1985 19.7503 112.2287 0.0000 0.0000 0.0000
# 4 0.0000 0.0000 0.0000 26.9578 0.0000 0.0000
# 5 0.0000 0.0000 0.0000 0.0000 63.8351 0.0000
# 6 0.0000 0.0000 0.0000 0.0000 0.0000 20.2266
#
#
#
# Elastic Compliance Matrix: (Units=1/GPa)
#
#
# Indices 1 2 3 4 5 6 
#
# 1 0.012111 -0.003063 -0.001641 0.000000 0.000000 0.000000
# 2 -0.003063 0.008233 -0.000897 0.000000 0.000000 0.000000
# 3 -0.001641 -0.000897 0.009364 0.000000 0.000000 0.000000
# 4 0.000000 0.000000 0.000000 0.037095 0.000000 0.000000
# 5 0.000000 0.000000 0.000000 0.000000 0.015665 0.000000
# 6 0.000000 0.000000 0.000000 0.000000 0.000000 0.049440
#
#
# Mechanical properties :
#
#
# Convention : Reuss Voigt Hill
#
# Bulk Modulus (GPa) = 54.04118 55.49077 54.76597
# Shear Modulus (GPa) = 33.49430 40.01424 36.75427
#
# Velocity S-wave (km/s) = 3.92544 4.29052 4.11204
# Velocity P-wave (km/s) = 6.73848 7.07625 6.90943
#
# Compressibility (1/GPa) = 0.01850441
#
# Stress axis : x y z
#
# Youngs Moduli (GPa) = 82.56692 121.46886 106.79674
#
# Poissons Ratio (x) = 0.37212 0.17521
# Poissons Ratio (y) = 0.25294 0.09584
# Poissons Ratio (z) = 0.13546 0.10901
#
# Static dielectric constant tensor:
#      x y z
#    x 3.643650 0.000000 0.000000 
#    y 0.000000 4.143880 0.000000 
#    z 0.000000 0.000000 4.191740 
# 
# 
# High freq. dielectric constant tensor:
#      x y z
#    x 1.828420 0.000000 0.000000 
#    y 0.000000 1.864790 0.000000 
#    z 0.000000 0.000000 1.877390 
# 
# From -- ./inp_files/38589.got.cif
#   From: 2010.03.12/outbox.cif.g09.slc.cpg/sg63_20_cif.got.tgz:38589.got - 2010.04.10 19:34:48.
