data_PCOD8261099
_publ_section_title
;
Structure prediction by ZEFSAII (Michael W. Deem and Ramdas Pophale) SiO2 
 PCOD8261099
Probable space group: C M C M
;
_chemical_formula_sum "Si O2"
_cell_formula_units_Z 80
_cell_length_a 7.768156
_cell_length_b 23.180135
_cell_length_c 23.284343
_cell_angle_alpha 90.000000
_cell_angle_beta 90.000000
_cell_angle_gamma 90.000000
_cell_volume 4192.739574
_symmetry_space_group_name_H-M "C M C M"
_symmetry_group_IT_number 63
_symmetry_cell_setting 'orthorhombic'
loop_
_space_group_symop_operation_xyz
x,y,z
-x,-y,1/2+z
x,-y,-z
-x,y,1/2-z
-x,-y,-z
x,y,1/2-z
-x,y,z
x,-y,1/2+z
1/2+x,1/2+y,z
1/2-x,1/2-y,1/2+z
1/2+x,1/2-y,-z
1/2-x,1/2+y,1/2-z
1/2-x,1/2-y,-z
1/2+x,1/2+y,1/2-z
1/2-x,1/2+y,z
1/2+x,1/2-y,1/2+z
loop_
_atom_site_type_symbol
_atom_site_label
_atom_site_fract_x
_atom_site_fract_y
_atom_site_fract_z
Si Si1 0.191017 0.343106 0.871799
Si Si2 0.000000 0.567717 0.569611
Si Si3 0.296935 0.186907 0.250000
Si Si4 0.000000 0.432082 0.564392
Si Si5 0.296632 0.317046 0.250000
Si Si6 0.190801 0.738832 0.563455
Si Si7 0.304860 0.633818 0.629590
O O1 0.263752 0.348691 0.806592
O O2 0.315749 0.300510 0.905506
O O3 0.000000 0.313966 0.869947
O O4 0.171318 0.404674 0.904831
O O5 0.826067 0.589493 0.599943
O O6 0.000000 0.499270 0.575272
O O7 0.000000 0.585410 0.502631
O O8 0.500000 0.190844 0.250000
O O9 0.218036 0.252050 0.250000
O O10 0.500000 0.311870 0.250000
O O11 0.235953 0.352214 0.306251
O O12 0.250000 0.750000 0.500000
O O13 0.314414 0.693627 0.594628
O O14 0.000000 0.711612 0.563811
O O15 0.500000 0.608209 0.630275
#
# Coordination Sequence:
#
# PCOD8261099 Si02
#       7
#    16   8   8   8   8  16  16
#     4   9  18  34  55  79 107 151 193 241 296 347
#     4  11  22  43  59  89 119 164 210 255 304 355
#     4   9  14  28  54  80 110 145 196 233 287 366
#     4   9  22  39  63  79 121 160 208 261 290 355
#     4   9  18  33  55  87 120 161 186 240 310 368
#     4  12  22  33  52  86 122 155 194 248 308 371
#     4  11  22  38  59  87 123 158 200 247 309 367
#
# _framework density 19.080603
#
# number of rings (size 3 to 8) (size 9 to 14) (size 15 to 20)
#    0.600    1.200    3.000    3.000    0.000    0.400 
#    0.000    6.500    0.000    0.000    0.000    0.000 
#    0.000    0.000    0.000    0.000    0.000    0.000 
#
# Total GULP energy -495700.461556 kJ/mol
# GULP energy per Si atom -12392.511539 kJ/mol
# Density = 1.903717 g / cm^3
# Si number density = 19.080603 Si / 1000 Ang^3
#
#
#
# Elastic Constant Matrix: (Units=GPa)
#
#
# Indices 1 2 3 4 5 6 
#
# 1 68.5840 22.8928 30.5012 0.0000 0.0000 0.0000
# 2 22.8928 92.6396 61.8235 0.0000 0.0000 0.0000
# 3 30.5012 61.8235 191.6511 0.0000 0.0000 0.0000
# 4 0.0000 0.0000 0.0000 26.3245 0.0000 0.0000
# 5 0.0000 0.0000 0.0000 0.0000 16.4376 0.0000
# 6 0.0000 0.0000 0.0000 0.0000 0.0000 25.3364
#
#
#
# Elastic Compliance Matrix: (Units=1/GPa)
#
#
# Indices 1 2 3 4 5 6 
#
# 1 0.016290 -0.002925 -0.001649 0.000000 0.000000 0.000000
# 2 -0.002925 0.014281 -0.004141 0.000000 0.000000 0.000000
# 3 -0.001649 -0.004141 0.006816 0.000000 0.000000 0.000000
# 4 0.000000 0.000000 0.000000 0.037987 0.000000 0.000000
# 5 0.000000 0.000000 0.000000 0.000000 0.060836 0.000000
# 6 0.000000 0.000000 0.000000 0.000000 0.000000 0.039469
#
#
# Mechanical properties :
#
#
# Convention : Reuss Voigt Hill
#
# Bulk Modulus (GPa) = 50.10840 64.81220 57.46030
# Shear Modulus (GPa) = 25.02959 29.46349 27.24654
#
# Velocity S-wave (km/s) = 3.62578 3.93384 3.78295
# Velocity P-wave (km/s) = 6.62169 7.39424 7.01861
#
# Compressibility (1/GPa) = 0.01995673
#
# Stress axis : x y z
#
# Youngs Moduli (GPa) = 61.38576 70.02263 146.70986
#
# Poissons Ratio (x) = 0.20483 0.24193
# Poissons Ratio (y) = 0.17956 0.60757
# Poissons Ratio (z) = 0.10123 0.28999
#
# Static dielectric constant tensor:
#      x y z
#    x 3.255600 0.000000 0.000000 
#    y 0.000000 2.996680 0.000000 
#    z 0.000000 0.000000 3.874250 
# 
# 
# High freq. dielectric constant tensor:
#      x y z
#    x 1.719160 0.000000 0.000000 
#    y 0.000000 1.704130 0.000000 
#    z 0.000000 0.000000 1.767270 
# 
# From -- ./inp_files/59810.got.cif
#   From: 2010.03.12/outbox.cif.g09.slc.cpg/sg63_30_cif.got.tgz:59810.got - 2010.04.10 19:34:48.
