data_PCOD8261834
_publ_section_title
;
Structure prediction by ZEFSAII (Michael W. Deem and Ramdas Pophale) SiO2 
 PCOD8261834
Probable space group: C M C A
;
_chemical_formula_sum "Si O2"
_cell_formula_units_Z 80
_cell_length_a 27.010055
_cell_length_b 9.167786
_cell_length_c 14.987445
_cell_angle_alpha 90.000000
_cell_angle_beta 90.000000
_cell_angle_gamma 90.000000
_cell_volume 3711.227162
_symmetry_space_group_name_H-M "C M C A"
_symmetry_group_IT_number 64
_symmetry_cell_setting 'orthorhombic'
loop_
_space_group_symop_operation_xyz
x,y,z
-x,1/2-y,1/2+z
x,-y,-z
-x,1/2+y,1/2-z
-x,-y,-z
x,1/2+y,1/2-z
-x,y,z
x,1/2-y,1/2+z
1/2+x,1/2+y,z
1/2-x,-y,1/2+z
1/2+x,1/2-y,-z
1/2-x,y,1/2-z
1/2-x,1/2-y,-z
1/2+x,y,1/2-z
1/2-x,1/2+y,z
1/2+x,-y,1/2+z
loop_
_atom_site_type_symbol
_atom_site_label
_atom_site_fract_x
_atom_site_fract_y
_atom_site_fract_z
Si Si1 0.350958 0.661103 0.535182
Si Si2 0.153567 0.225953 0.348301
Si Si3 0.304412 0.430134 0.286953
Si Si4 0.445050 0.592031 0.301567
Si Si5 0.054885 0.273016 0.133271
O O1 0.362974 0.500000 0.500000
O O2 0.327533 0.749551 0.450815
O O3 0.313487 0.656159 0.619517
O O4 0.402727 0.739057 0.559292
O O5 0.158533 0.371111 0.289595
O O6 0.096228 0.178102 0.357755
O O7 0.185524 0.100856 0.298779
O O8 0.250000 0.400990 0.250000
O O9 0.500000 0.634293 0.337238
O O10 0.435673 0.419579 0.309063
O O11 0.440177 0.634215 0.197778
O O12 0.000000 0.276515 0.089098
#
# Coordination Sequence:
#
# PCOD8261834 Si02
#       5
#    16  16  16  16  16
#     4  10  20  36  59  87 116 147 200 241 282 351
#     4  11  21  40  63  85 118 153 194 246 287 354
#     4  11  23  40  61  84 116 154 195 247 301 340
#     4  10  18  32  58  88 119 155 189 231 290 350
#     4  10  19  33  58  88 120 155 195 235 288 352
#
# _framework density 21.556211999999999
#
# number of rings (size 3 to 8) (size 9 to 14) (size 15 to 20)
#    0.000    1.600    6.000    0.600    0.000    2.000 
#    0.000    3.000    0.000    0.000    0.000    8.400 
#    0.000    0.000    0.000    0.000    0.000    0.000 
#
# Total GULP energy -495805.716816 kJ/mol
# GULP energy per Si atom -12395.142920 kJ/mol
# Density = 2.150715 g / cm^3
# Si number density = 21.556212 Si / 1000 Ang^3
#
#
#
# Elastic Constant Matrix: (Units=GPa)
#
#
# Indices 1 2 3 4 5 6 
#
# 1 112.1273 15.3850 51.0021 0.0000 0.0000 0.0000
# 2 15.3850 41.2418 31.4300 0.0000 0.0000 0.0000
# 3 51.0021 31.4300 136.9515 0.0000 0.0000 0.0000
# 4 0.0000 0.0000 0.0000 26.9348 0.0000 0.0000
# 5 0.0000 0.0000 0.0000 0.0000 25.9803 0.0000
# 6 0.0000 0.0000 0.0000 0.0000 0.0000 17.2983
#
#
#
# Elastic Compliance Matrix: (Units=1/GPa)
#
#
# Indices 1 2 3 4 5 6 
#
# 1 0.010783 -0.001166 -0.003748 0.000000 0.000000 0.000000
# 2 -0.001166 0.029513 -0.006339 0.000000 0.000000 0.000000
# 3 -0.003748 -0.006339 0.010152 0.000000 0.000000 0.000000
# 4 0.000000 0.000000 0.000000 0.037127 0.000000 0.000000
# 5 0.000000 0.000000 0.000000 0.000000 0.038491 0.000000
# 6 0.000000 0.000000 0.000000 0.000000 0.000000 0.057809
#
#
# Mechanical properties :
#
#
# Convention : Reuss Voigt Hill
#
# Bulk Modulus (GPa) = 35.78793 53.99499 44.89146
# Shear Modulus (GPa) = 23.18077 26.87625 25.02851
#
# Velocity S-wave (km/s) = 3.28283 3.53483 3.41116
# Velocity P-wave (km/s) = 5.56844 6.46242 6.03201
#
# Compressibility (1/GPa) = 0.02794238
#
# Stress axis : x y z
#
# Youngs Moduli (GPa) = 92.73554 33.88328 98.49815
#
# Poissons Ratio (x) = 0.03951 0.36919
# Poissons Ratio (y) = 0.10815 0.62437
# Poissons Ratio (z) = 0.34759 0.21478
#
# Static dielectric constant tensor:
#      x y z
#    x 3.978990 0.000000 0.000000 
#    y 0.000000 3.635430 0.000000 
#    z 0.000000 0.000000 4.132180 
# 
# 
# High freq. dielectric constant tensor:
#      x y z
#    x 1.849430 0.000000 0.000000 
#    y 0.000000 1.816140 0.000000 
#    z 0.000000 0.000000 1.840220 
# 
# From -- ./inp_files/19578.got.cif
#   From: 2010.03.12/outbox.cif.g09.slc.cpg/sg64_10_cif.got.tgz:19578.got - 2010.04.10 20:19:32.
