data_PCOD8261608
_publ_section_title
;
Structure prediction by ZEFSAII (Michael W. Deem and Ramdas Pophale) SiO2 
 PCOD8261608
Probable space group: C M C A
;
_chemical_formula_sum "Si O2"
_cell_formula_units_Z 96
_cell_length_a 9.288845
_cell_length_b 23.892375
_cell_length_c 25.251515
_cell_angle_alpha 90.000000
_cell_angle_beta 90.000000
_cell_angle_gamma 90.000000
_cell_volume 5604.133571
_symmetry_space_group_name_H-M "C M C A"
_symmetry_group_IT_number 64
_symmetry_cell_setting 'orthorhombic'
loop_
_space_group_symop_operation_xyz
x,y,z
-x,1/2-y,1/2+z
x,-y,-z
-x,1/2+y,1/2-z
-x,-y,-z
x,1/2+y,1/2-z
-x,y,z
x,1/2-y,1/2+z
1/2+x,1/2+y,z
1/2-x,-y,1/2+z
1/2+x,1/2-y,-z
1/2-x,y,1/2-z
1/2-x,1/2-y,-z
1/2+x,y,1/2-z
1/2-x,1/2+y,z
1/2+x,-y,1/2+z
loop_
_atom_site_type_symbol
_atom_site_label
_atom_site_fract_x
_atom_site_fract_y
_atom_site_fract_z
Si Si1 0.664106 0.504477 0.896483
Si Si2 0.840838 0.570501 0.034247
Si Si3 0.339332 0.342004 0.627368
Si Si4 0.667985 0.742584 0.944848
Si Si5 0.836961 0.117856 0.940195
Si Si6 0.670210 0.577954 0.195975
O O1 0.500000 0.488074 0.908879
O O2 0.756182 0.485322 0.947767
O O3 0.685309 0.572069 0.893004
O O4 0.710180 0.474358 0.842228
O O5 0.848359 0.609880 0.084541
O O6 0.000000 0.553096 0.015484
O O7 0.765304 0.605237 0.988797
O O8 0.500000 0.331234 0.650978
O O9 0.276458 0.285846 0.599871
O O10 0.231087 0.363186 0.673132
O O11 0.500000 0.754252 0.956166
O O12 0.695670 0.680744 0.920417
O O13 0.750000 0.750000 0.000000
O O14 0.000000 0.114440 0.961535
O O15 0.500000 0.583970 0.204969
O O16 0.750000 0.563433 0.250000
#
# Coordination Sequence:
#
# PCOD8261608 Si02
#       6
#    16  16  16  16  16  16
#     4   9  19  33  47  68  96 127 163 198 240 296
#     4  10  18  28  44  68  99 132 165 202 240 278
#     4   9  18  32  48  71 101 130 165 204 243 287
#     4  10  19  31  48  70 100 138 173 204 238 282
#     4  10  19  30  46  67  97 136 170 196 233 286
#     4  10  20  35  56  76  94 119 156 205 257 301
#
# _framework density 17.130213000000001
#
# number of rings (size 3 to 8) (size 9 to 14) (size 15 to 20)
#    0.000    2.333    1.667    1.500    0.000    4.667 
#    0.000    0.000    0.000    1.000    0.000    2.333 
#    0.000    0.000    0.000    0.000    0.000    0.000 
#
# Total GULP energy -594965.054335 kJ/mol
# GULP energy per Si atom -12395.105299 kJ/mol
# Density = 1.709122 g / cm^3
# Si number density = 17.130213 Si / 1000 Ang^3
#
#
#
# Elastic Constant Matrix: (Units=GPa)
#
#
# Indices 1 2 3 4 5 6 
#
# 1 79.2203 32.3226 38.3668 0.0000 0.0000 0.0000
# 2 32.3226 114.5293 30.7848 0.0000 0.0000 0.0000
# 3 38.3668 30.7848 65.7369 0.0000 0.0000 0.0000
# 4 0.0000 0.0000 0.0000 15.8936 0.0000 0.0000
# 5 0.0000 0.0000 0.0000 0.0000 25.4630 0.0000
# 6 0.0000 0.0000 0.0000 0.0000 0.0000 17.1050
#
#
#
# Elastic Compliance Matrix: (Units=1/GPa)
#
#
# Indices 1 2 3 4 5 6 
#
# 1 0.018258 -0.002618 -0.009430 0.000000 0.000000 0.000000
# 2 -0.002618 0.010364 -0.003326 0.000000 0.000000 0.000000
# 3 -0.009430 -0.003326 0.022273 0.000000 0.000000 0.000000
# 4 0.000000 0.000000 0.000000 0.062919 0.000000 0.000000
# 5 0.000000 0.000000 0.000000 0.000000 0.039273 0.000000
# 6 0.000000 0.000000 0.000000 0.000000 0.000000 0.058462
#
#
# Mechanical properties :
#
#
# Convention : Reuss Voigt Hill
#
# Bulk Modulus (GPa) = 49.63243 51.38165 50.50704
# Shear Modulus (GPa) = 20.07925 22.22647 21.15286
#
# Velocity S-wave (km/s) = 3.42739 3.60599 3.51782
# Velocity P-wave (km/s) = 6.68574 6.88458 6.78589
#
# Compressibility (1/GPa) = 0.02014812
#
# Stress axis : x y z
#
# Youngs Moduli (GPa) = 54.76945 96.48637 44.89665
#
# Poissons Ratio (x) = 0.25261 0.42339
# Poissons Ratio (y) = 0.14339 0.14931
# Poissons Ratio (z) = 0.51649 0.32087
#
# Static dielectric constant tensor:
#      x y z
#    x 3.458540 0.000000 0.000000 
#    y 0.000000 3.507270 0.000000 
#    z 0.000000 0.000000 2.931890 
# 
# 
# High freq. dielectric constant tensor:
#      x y z
#    x 1.668160 0.000000 0.000000 
#    y 0.000000 1.668400 0.000000 
#    z 0.000000 0.000000 1.621400 
# 
# From -- ./inp_files/42999.got.cif
#   From: 2010.03.12/outbox.cif.g09.slc.cpg/sg64_22_cif.got.tgz:42999.got - 2010.04.10 20:19:32.
