data_PCOD8261503
_publ_section_title
;
Structure prediction by ZEFSAII (Michael W. Deem and Ramdas Pophale) SiO2 
 PCOD8261503
Probable space group: C M C A
;
_chemical_formula_sum "Si O2"
_cell_formula_units_Z 104
_cell_length_a 18.867326
_cell_length_b 13.678588
_cell_length_c 22.456563
_cell_angle_alpha 90.000000
_cell_angle_beta 90.000000
_cell_angle_gamma 90.000000
_cell_volume 5795.553377
_symmetry_space_group_name_H-M "C M C A"
_symmetry_group_IT_number 64
_symmetry_cell_setting 'orthorhombic'
loop_
_space_group_symop_operation_xyz
x,y,z
-x,1/2-y,1/2+z
x,-y,-z
-x,1/2+y,1/2-z
-x,-y,-z
x,1/2+y,1/2-z
-x,y,z
x,1/2-y,1/2+z
1/2+x,1/2+y,z
1/2-x,-y,1/2+z
1/2+x,1/2-y,-z
1/2-x,y,1/2-z
1/2-x,1/2-y,-z
1/2+x,y,1/2-z
1/2-x,1/2+y,z
1/2+x,-y,1/2+z
loop_
_atom_site_type_symbol
_atom_site_label
_atom_site_fract_x
_atom_site_fract_y
_atom_site_fract_z
Si Si1 0.211577 0.535459 0.170194
Si Si2 0.360833 0.167807 0.825474
Si Si3 0.500000 0.349349 0.246925
Si Si4 0.420801 0.376565 0.446710
Si Si5 0.345919 0.376365 0.786377
Si Si6 0.500000 0.333185 0.658504
Si Si7 0.000000 0.938125 0.774870
Si Si8 0.386722 0.593230 0.425473
O O1 0.193125 0.422319 0.182524
O O2 0.296123 0.549155 0.176342
O O3 0.168492 0.603355 0.216888
O O4 0.189546 0.571482 0.104299
O O5 0.431354 0.149874 0.788000
O O6 0.380132 0.181663 0.895053
O O7 0.322861 0.266057 0.802605
O O8 0.500000 0.261052 0.200749
O O9 0.500000 0.448211 0.208437
O O10 0.500000 0.334559 0.454883
O O11 0.428039 0.490626 0.429839
O O12 0.377643 0.361317 0.508633
O O13 0.429104 0.389189 0.802507
O O14 0.500000 0.426571 0.702880
O O15 0.431174 0.333884 0.616489
#
# Coordination Sequence:
#
# PCOD8261503 Si02
#       8
#    16  16   8  16  16   8   8  16
#     4  10  22  35  53  78 116 146 174 231 277 336
#     4  11  20  36  54  84 116 141 189 221 276 338
#     4  12  20  31  56  85 116 147 183 221 278 328
#     4  10  17  28  56  85 108 146 175 244 281 317
#     4  11  22  36  55  80 111 151 179 224 282 328
#     4  12  18  30  53  84 114 147 171 232 264 334
#     4  12  20  36  53  80 111 145 189 219 271 327
#     4  10  17  32  51  82 117 137 186 225 291 323
#
# _framework density 17.944792
#
# number of rings (size 3 to 8) (size 9 to 14) (size 15 to 20)
#    0.000    1.231    6.923    1.385    0.000    2.462 
#    2.769    0.769    0.000    0.000    0.000    1.077 
#    0.000    0.000    0.000    0.000    0.000    0.000 
#
# Total GULP energy -644647.683359 kJ/mol
# GULP energy per Si atom -12397.070834 kJ/mol
# Density = 1.790395 g / cm^3
# Si number density = 17.944792 Si / 1000 Ang^3
#
#
#
# Elastic Constant Matrix: (Units=GPa)
#
#
# Indices 1 2 3 4 5 6 
#
# 1 109.9422 37.4971 38.8881 0.0000 0.0000 0.0000
# 2 37.4971 93.9073 43.5456 0.0000 0.0000 0.0000
# 3 38.8881 43.5456 111.2493 0.0000 0.0000 0.0000
# 4 0.0000 0.0000 0.0000 18.9912 0.0000 0.0000
# 5 0.0000 0.0000 0.0000 0.0000 21.2621 0.0000
# 6 0.0000 0.0000 0.0000 0.0000 0.0000 20.5735
#
#
#
# Elastic Compliance Matrix: (Units=1/GPa)
#
#
# Indices 1 2 3 4 5 6 
#
# 1 0.011124 -0.003224 -0.002627 0.000000 0.000000 0.000000
# 2 -0.003224 0.013945 -0.004331 0.000000 0.000000 0.000000
# 3 -0.002627 -0.004331 0.011602 0.000000 0.000000 0.000000
# 4 0.000000 0.000000 0.000000 0.052656 0.000000 0.000000
# 5 0.000000 0.000000 0.000000 0.000000 0.047032 0.000000
# 6 0.000000 0.000000 0.000000 0.000000 0.000000 0.048606
#
#
# Mechanical properties :
#
#
# Convention : Reuss Voigt Hill
#
# Bulk Modulus (GPa) = 61.32150 61.66225 61.49187
# Shear Modulus (GPa) = 23.72309 25.17656 24.44983
#
# Velocity S-wave (km/s) = 3.63988 3.74973 3.69521
# Velocity P-wave (km/s) = 7.20496 7.29274 7.24899
#
# Compressibility (1/GPa) = 0.01630749
#
# Stress axis : x y z
#
# Youngs Moduli (GPa) = 89.89302 71.71256 86.18935
#
# Poissons Ratio (x) = 0.23120 0.22639
# Poissons Ratio (y) = 0.28981 0.37331
# Poissons Ratio (z) = 0.23612 0.31061
#
# Static dielectric constant tensor:
#      x y z
#    x 3.232880 0.000000 0.000000 
#    y 0.000000 3.231060 0.000000 
#    z 0.000000 0.000000 3.418350 
# 
# 
# High freq. dielectric constant tensor:
#      x y z
#    x 1.685350 0.000000 0.000000 
#    y 0.000000 1.673010 0.000000 
#    z 0.000000 0.000000 1.683910 
# 
# From -- ./inp_files/46438.got.cif
#   From: 2010.03.12/outbox.cif.g09.slc.cpg/sg64_24_cif.got.tgz:46438.got - 2010.04.10 20:19:32.
