data_PCOD8261586
_publ_section_title
;
Structure prediction by ZEFSAII (Michael W. Deem and Ramdas Pophale) SiO2 
 PCOD8261586
Probable space group: C M C A
;
_chemical_formula_sum "Si O2"
_cell_formula_units_Z 80
_cell_length_a 23.712789
_cell_length_b 14.884414
_cell_length_c 14.158547
_cell_angle_alpha 90.000000
_cell_angle_beta 90.000000
_cell_angle_gamma 90.000000
_cell_volume 4997.272877
_symmetry_space_group_name_H-M "C M C A"
_symmetry_group_IT_number 64
_symmetry_cell_setting 'orthorhombic'
loop_
_space_group_symop_operation_xyz
x,y,z
-x,1/2-y,1/2+z
x,-y,-z
-x,1/2+y,1/2-z
-x,-y,-z
x,1/2+y,1/2-z
-x,y,z
x,1/2-y,1/2+z
1/2+x,1/2+y,z
1/2-x,-y,1/2+z
1/2+x,1/2-y,-z
1/2-x,y,1/2-z
1/2-x,1/2-y,-z
1/2+x,y,1/2-z
1/2-x,1/2+y,z
1/2+x,-y,1/2+z
loop_
_atom_site_type_symbol
_atom_site_label
_atom_site_fract_x
_atom_site_fract_y
_atom_site_fract_z
Si Si1 0.241142 0.093462 0.973845
Si Si2 0.803415 0.818286 0.315061
Si Si3 0.651578 0.856098 0.617336
Si Si4 0.354822 0.550892 0.824343
Si Si5 0.562790 0.102255 0.531859
O O1 0.285031 0.159534 0.922619
O O2 0.191481 0.066548 0.903636
O O3 0.212739 0.138127 0.065834
O O4 0.272646 0.000000 0.000000
O O5 0.750000 0.795373 0.250000
O O6 0.844689 0.732135 0.316845
O O7 0.836932 0.904701 0.274490
O O8 0.601266 0.842101 0.541612
O O9 0.638942 0.942559 0.684389
O O10 0.411329 0.600722 0.862158
O O11 0.500000 0.144280 0.534439
O O12 0.561704 0.000000 0.500000
#
# Coordination Sequence:
#
# PCOD8261586 Si02
#       5
#    16  16  16  16  16
#     4   8  15  27  41  57  82 113 140 165 195 239
#     4  10  18  26  39  61  88 115 137 162 203 244
#     4   9  16  27  42  61  84 108 140 171 196 240
#     4   8  16  28  40  61  85 103 133 175 206 237
#     4   8  14  28  48  61  73 100 136 175 213 240
#
# _framework density 16.008731000000001
#
# number of rings (size 3 to 8) (size 9 to 14) (size 15 to 20)
#    0.000    3.400    0.000    3.000    0.000    4.000 
#    0.000    1.000    0.000    0.000    0.000    0.000 
#    0.000    3.200    0.000    0.000    0.000    0.000 
#
# Total GULP energy -495655.807242 kJ/mol
# GULP energy per Si atom -12391.395181 kJ/mol
# Density = 1.597229 g / cm^3
# Si number density = 16.008731 Si / 1000 Ang^3
#
#
#
# Elastic Constant Matrix: (Units=GPa)
#
#
# Indices 1 2 3 4 5 6 
#
# 1 76.0572 34.2328 26.1131 0.0000 0.0000 0.0000
# 2 34.2328 89.7161 32.5745 0.0000 0.0000 0.0000
# 3 26.1131 32.5745 50.6748 0.0000 0.0000 0.0000
# 4 0.0000 0.0000 0.0000 20.8205 0.0000 0.0000
# 5 0.0000 0.0000 0.0000 0.0000 10.8181 0.0000
# 6 0.0000 0.0000 0.0000 0.0000 0.0000 12.7578
#
#
#
# Elastic Compliance Matrix: (Units=1/GPa)
#
#
# Indices 1 2 3 4 5 6 
#
# 1 0.017189 -0.004361 -0.006055 0.000000 0.000000 0.000000
# 2 -0.004361 0.015646 -0.007810 0.000000 0.000000 0.000000
# 3 -0.006055 -0.007810 0.027874 0.000000 0.000000 0.000000
# 4 0.000000 0.000000 0.000000 0.048030 0.000000 0.000000
# 5 0.000000 0.000000 0.000000 0.000000 0.092438 0.000000
# 6 0.000000 0.000000 0.000000 0.000000 0.000000 0.078384
#
#
# Mechanical properties :
#
#
# Convention : Reuss Voigt Hill
#
# Bulk Modulus (GPa) = 41.22310 44.69875 42.96092
# Shear Modulus (GPa) = 15.42739 17.11444 16.27091
#
# Velocity S-wave (km/s) = 3.10770 3.27321 3.19153
# Velocity P-wave (km/s) = 6.21959 6.50133 6.36202
#
# Compressibility (1/GPa) = 0.02425825
#
# Stress axis : x y z
#
# Youngs Moduli (GPa) = 58.17508 63.91423 35.87521
#
# Poissons Ratio (x) = 0.27870 0.21722
# Poissons Ratio (y) = 0.25368 0.28020
# Poissons Ratio (z) = 0.35224 0.49920
#
# Static dielectric constant tensor:
#      x y z
#    x 3.135880 0.000000 0.000000 
#    y 0.000000 2.980150 0.000000 
#    z 0.000000 0.000000 2.982390 
# 
# 
# High freq. dielectric constant tensor:
#      x y z
#    x 1.582520 0.000000 0.000000 
#    y 0.000000 1.604820 0.000000 
#    z 0.000000 0.000000 1.592310 
# 
# From -- ./inp_files/18991.got.cif
#   From: 2010.03.12/outbox.cif.g09.slc.cpg/sg64_10_cif.got.tgz:18991.got - 2010.04.10 20:19:32.
