data_PCOD8261492
_publ_section_title
;
Structure prediction by ZEFSAII (Michael W. Deem and Ramdas Pophale) SiO2 
 PCOD8261492
Probable space group: C M C A
;
_chemical_formula_sum "Si O2"
_cell_formula_units_Z 128
_cell_length_a 18.277124
_cell_length_b 18.968642
_cell_length_c 23.359366
_cell_angle_alpha 90.000000
_cell_angle_beta 90.000000
_cell_angle_gamma 90.000000
_cell_volume 8098.510502
_symmetry_space_group_name_H-M "C M C A"
_symmetry_group_IT_number 64
_symmetry_cell_setting 'orthorhombic'
loop_
_space_group_symop_operation_xyz
x,y,z
-x,1/2-y,1/2+z
x,-y,-z
-x,1/2+y,1/2-z
-x,-y,-z
x,1/2+y,1/2-z
-x,y,z
x,1/2-y,1/2+z
1/2+x,1/2+y,z
1/2-x,-y,1/2+z
1/2+x,1/2-y,-z
1/2-x,y,1/2-z
1/2-x,1/2-y,-z
1/2+x,y,1/2-z
1/2-x,1/2+y,z
1/2+x,-y,1/2+z
loop_
_atom_site_type_symbol
_atom_site_label
_atom_site_fract_x
_atom_site_fract_y
_atom_site_fract_z
Si Si1 0.086160 0.866795 0.931655
Si Si2 0.665059 0.992152 0.251482
Si Si3 0.085642 0.259826 0.342771
Si Si4 0.585677 0.644962 0.942420
Si Si5 0.583512 0.877365 0.783502
Si Si6 0.086447 0.010729 0.872136
Si Si7 0.584824 0.781212 0.674754
Si Si8 0.834967 0.832669 0.257879
O O1 0.116051 0.810612 0.885356
O O2 0.000000 0.856562 0.933623
O O3 0.105320 0.945911 0.913506
O O4 0.121483 0.851560 0.994286
O O5 0.750000 0.010092 0.250000
O O6 0.632282 0.997986 0.314679
O O7 0.651096 0.914225 0.226391
O O8 0.628194 0.050419 0.210496
O O9 0.102344 0.282367 0.408205
O O10 0.111367 0.179492 0.331041
O O11 0.124863 0.315019 0.301240
O O12 0.000000 0.266039 0.327986
O O13 0.500000 0.632449 0.950180
O O14 0.615465 0.579510 0.905481
O O15 0.500000 0.897386 0.794600
O O16 0.594633 0.843217 0.721078
O O17 0.000000 0.014075 0.856948
O O18 0.500000 0.758588 0.671447
O O19 0.632941 0.713310 0.690239
O O20 0.750000 0.815622 0.250000
#
# Coordination Sequence:
#
# PCOD8261492 Si02
#       8
#    16  16  16  16  16  16  16  16
#     4   9  16  27  44  71  97 118 151 190 231 279
#     4  11  21  30  43  68  92 126 158 189 229 273
#     4   9  17  30  47  69  93 121 151 184 228 277
#     4   9  16  26  46  71  94 121 152 187 231 281
#     4   9  17  29  45  65  92 121 151 187 226 272
#     4  10  17  28  45  68  99 126 150 187 232 282
#     4   9  17  30  47  68  94 121 149 186 230 277
#     4  10  20  31  44  65  91 125 156 190 229 268
#
# _framework density 15.805375
#
# number of rings (size 3 to 8) (size 9 to 14) (size 15 to 20)
#    0.000    2.500    2.500    1.875    0.000    5.000 
#    0.000    0.000    0.000    0.750    0.000    0.875 
#    0.000    5.000    0.000    0.000    0.000    0.500 
#
# Total GULP energy -793331.723516 kJ/mol
# GULP energy per Si atom -12395.808180 kJ/mol
# Density = 1.576940 g / cm^3
# Si number density = 15.805375 Si / 1000 Ang^3
#
#
#
# Elastic Constant Matrix: (Units=GPa)
#
#
# Indices 1 2 3 4 5 6 
#
# 1 52.8067 45.3591 25.3539 0.0000 0.0000 0.0000
# 2 45.3591 117.4961 42.3028 0.0000 0.0000 0.0000
# 3 25.3539 42.3028 92.3637 0.0000 0.0000 0.0000
# 4 0.0000 0.0000 0.0000 22.2557 0.0000 0.0000
# 5 0.0000 0.0000 0.0000 0.0000 6.9167 0.0000
# 6 0.0000 0.0000 0.0000 0.0000 0.0000 19.7599
#
#
#
# Elastic Compliance Matrix: (Units=1/GPa)
#
#
# Indices 1 2 3 4 5 6 
#
# 1 0.029205 -0.010045 -0.003416 0.000000 0.000000 0.000000
# 2 -0.010045 0.013646 -0.003493 0.000000 0.000000 0.000000
# 3 -0.003416 -0.003493 0.013364 0.000000 0.000000 0.000000
# 4 0.000000 0.000000 0.000000 0.044932 0.000000 0.000000
# 5 0.000000 0.000000 0.000000 0.000000 0.144579 0.000000
# 6 0.000000 0.000000 0.000000 0.000000 0.000000 0.050608
#
#
# Mechanical properties :
#
#
# Convention : Reuss Voigt Hill
#
# Bulk Modulus (GPa) = 44.82662 54.29980 49.56321
# Shear Modulus (GPa) = 14.80703 19.76317 17.28510
#
# Velocity S-wave (km/s) = 3.06410 3.53995 3.31058
# Velocity P-wave (km/s) = 6.39855 7.15109 6.78526
#
# Compressibility (1/GPa) = 0.02230817
#
# Stress axis : x y z
#
# Youngs Moduli (GPa) = 34.24047 73.28100 74.82654
#
# Poissons Ratio (x) = 0.73608 0.25564
# Poissons Ratio (y) = 0.34393 0.26135
# Poissons Ratio (z) = 0.11698 0.25595
#
# Static dielectric constant tensor:
#      x y z
#    x 2.765490 0.000000 0.000000 
#    y 0.000000 3.136050 0.000000 
#    z 0.000000 0.000000 3.119620 
# 
# 
# High freq. dielectric constant tensor:
#      x y z
#    x 1.574520 0.000000 0.000000 
#    y 0.000000 1.612200 0.000000 
#    z 0.000000 0.000000 1.589390 
# 
# From -- ./inp_files/46023.got.cif
#   From: 2010.03.12/outbox.cif.g09.slc.cpg/sg64_24_cif.got.tgz:46023.got - 2010.04.10 20:19:32.
