data_PCOD8261886
_publ_section_title
;
Structure prediction by ZEFSAII (Michael W. Deem and Ramdas Pophale) SiO2 
 PCOD8261886
Probable space group: C M C A
;
_chemical_formula_sum "Si O2"
_cell_formula_units_Z 56
_cell_length_a 18.536540
_cell_length_b 13.373651
_cell_length_c 12.161323
_cell_angle_alpha 90.000000
_cell_angle_beta 90.000000
_cell_angle_gamma 90.000000
_cell_volume 3014.806768
_symmetry_space_group_name_H-M "C M C A"
_symmetry_group_IT_number 64
_symmetry_cell_setting 'orthorhombic'
loop_
_space_group_symop_operation_xyz
x,y,z
-x,1/2-y,1/2+z
x,-y,-z
-x,1/2+y,1/2-z
-x,-y,-z
x,1/2+y,1/2-z
-x,y,z
x,1/2-y,1/2+z
1/2+x,1/2+y,z
1/2-x,-y,1/2+z
1/2+x,1/2-y,-z
1/2-x,y,1/2-z
1/2-x,1/2-y,-z
1/2+x,y,1/2-z
1/2-x,1/2+y,z
1/2+x,-y,1/2+z
loop_
_atom_site_type_symbol
_atom_site_label
_atom_site_fract_x
_atom_site_fract_y
_atom_site_fract_z
Si Si1 0.250000 0.101695 0.750000
Si Si2 0.584722 0.597811 0.431599
Si Si3 0.825249 0.912256 0.786299
Si Si4 0.679368 0.263133 0.429346
O O1 0.301889 0.165108 0.827570
O O2 0.195671 0.027224 0.819144
O O3 0.606212 0.500000 0.500000
O O4 0.500000 0.612384 0.421322
O O5 0.616107 0.589072 0.309733
O O6 0.616585 0.692607 0.495152
O O7 0.750000 0.858169 0.750000
O O8 0.851844 0.844258 0.888068
O O9 0.750000 0.250000 0.500000
#
# Coordination Sequence:
#
# PCOD8261886 Si02
#       4
#     8  16  16  16
#     4  10  18  34  54  84 118 142 198 242 280 344
#     4  11  22  38  59  84 119 157 190 237 306 358
#     4  10  20  34  57  85 109 152 197 238 286 345
#     4  12  20  35  59  90 113 150 200 243 292 346
#
# _framework density 18.574988000000001
#
# number of rings (size 3 to 8) (size 9 to 14) (size 15 to 20)
#    0.857    0.286    7.143    0.000    0.000    1.143 
#    0.000    0.000    0.000    0.000    0.000    6.000 
#    0.000    0.000    0.000    0.000    0.000    0.000 
#
# Total GULP energy -346971.565524 kJ/mol
# GULP energy per Si atom -12391.841626 kJ/mol
# Density = 1.853271 g / cm^3
# Si number density = 18.574988 Si / 1000 Ang^3
#
#
#
# Elastic Constant Matrix: (Units=GPa)
#
#
# Indices 1 2 3 4 5 6 
#
# 1 77.9750 17.5111 25.8952 0.0000 0.0000 0.0000
# 2 17.5111 80.0920 20.3406 0.0000 0.0000 0.0000
# 3 25.8952 20.3406 56.5746 0.0000 0.0000 0.0000
# 4 0.0000 0.0000 0.0000 32.9122 0.0000 0.0000
# 5 0.0000 0.0000 0.0000 0.0000 33.7012 0.0000
# 6 0.0000 0.0000 0.0000 0.0000 0.0000 20.9852
#
#
#
# Elastic Compliance Matrix: (Units=1/GPa)
#
#
# Indices 1 2 3 4 5 6 
#
# 1 0.015338 -0.001728 -0.006399 0.000000 0.000000 0.000000
# 2 -0.001728 0.013935 -0.004219 0.000000 0.000000 0.000000
# 3 -0.006399 -0.004219 0.022122 0.000000 0.000000 0.000000
# 4 0.000000 0.000000 0.000000 0.030384 0.000000 0.000000
# 5 0.000000 0.000000 0.000000 0.000000 0.029673 0.000000
# 6 0.000000 0.000000 0.000000 0.000000 0.000000 0.047653
#
#
# Mechanical properties :
#
#
# Convention : Reuss Voigt Hill
#
# Bulk Modulus (GPa) = 37.45077 38.01504 37.73290
# Shear Modulus (GPa) = 25.94751 27.57938 26.76345
#
# Velocity S-wave (km/s) = 3.74158 3.85744 3.79995
# Velocity P-wave (km/s) = 6.23471 6.35216 6.29371
#
# Compressibility (1/GPa) = 0.02670172
#
# Stress axis : x y z
#
# Youngs Moduli (GPa) = 65.19826 71.76175 45.20467
#
# Poissons Ratio (x) = 0.12402 0.28927
# Poissons Ratio (y) = 0.11268 0.19072
# Poissons Ratio (z) = 0.41720 0.30277
#
# Static dielectric constant tensor:
#      x y z
#    x 2.796920 0.000000 0.000000 
#    y 0.000000 3.784000 0.000000 
#    z 0.000000 0.000000 3.495710 
# 
# 
# High freq. dielectric constant tensor:
#      x y z
#    x 1.694260 0.000000 0.000000 
#    y 0.000000 1.734770 0.000000 
#    z 0.000000 0.000000 1.710170 
# 
# From -- ./inp_files/15353.got.cif
#   From: 2010.03.12/outbox.cif.g09.slc.cpg/sg64_8_cif.got.tgz:15353.got - 2010.04.10 20:19:32.
