data_PCOD8261053
_publ_section_title
;
Structure prediction by ZEFSAII (Michael W. Deem and Ramdas Pophale) SiO2 
 PCOD8261053
Probable space group: C M C M
;
_chemical_formula_sum "Si O2"
_cell_formula_units_Z 80
_cell_length_a 11.593500
_cell_length_b 21.914475
_cell_length_c 15.398079
_cell_angle_alpha 90.000000
_cell_angle_beta 90.000000
_cell_angle_gamma 90.000000
_cell_volume 3912.120115
_symmetry_space_group_name_H-M "C M C M"
_symmetry_group_IT_number 63
_symmetry_cell_setting 'orthorhombic'
loop_
_space_group_symop_operation_xyz
x,y,z
-x,-y,1/2+z
x,-y,-z
-x,y,1/2-z
-x,-y,-z
x,y,1/2-z
-x,y,z
x,-y,1/2+z
1/2+x,1/2+y,z
1/2-x,1/2-y,1/2+z
1/2+x,1/2-y,-z
1/2-x,1/2+y,1/2-z
1/2-x,1/2-y,-z
1/2+x,1/2+y,1/2-z
1/2-x,1/2+y,z
1/2+x,1/2-y,1/2+z
loop_
_atom_site_type_symbol
_atom_site_label
_atom_site_fract_x
_atom_site_fract_y
_atom_site_fract_z
Si Si1 0.753104 0.862237 0.093488
Si Si2 0.500000 0.392206 0.148979
Si Si3 0.134705 0.568312 0.750000
Si Si4 0.000000 0.964588 0.648141
Si Si5 0.866893 0.755724 0.849947
Si Si6 0.865684 0.574326 0.250000
Si Si7 0.711717 0.613720 0.404204
O O1 0.889985 0.860381 0.106717
O O2 0.691544 0.904252 0.164371
O O3 0.707607 0.793428 0.097901
O O4 0.728618 0.890197 0.998533
O O5 0.500000 0.378495 0.250000
O O6 0.500000 0.463968 0.130101
O O7 0.161310 0.497178 0.750000
O O8 0.000000 0.583971 0.750000
O O9 0.885642 0.937852 0.604452
O O10 0.000000 0.947796 0.750000
O O11 0.826888 0.756302 0.750000
O O12 0.848341 0.821201 0.892304
O O13 0.000000 0.737254 0.857384
O O14 0.812501 0.604580 0.335095
O O15 0.000000 0.588618 0.250000
#
# Coordination Sequence:
#
# PCOD8261053 Si02
#       7
#    16   8   8   8  16   8  16
#     4  12  25  42  66 102 134 172 220 274 335 393
#     4  11  23  41  65 102 143 175 210 272 343 391
#     4  11  24  46  69  93 130 181 227 267 320 401
#     4  11  21  41  73  98 133 181 224 266 321 399
#     4  11  22  43  71  95 126 177 229 272 323 394
#     4  11  26  44  65  97 136 173 219 275 338 391
#     4  12  24  43  68 101 132 171 226 277 329 393
#
# _framework density 20.449271
#
# number of rings (size 3 to 8) (size 9 to 14) (size 15 to 20)
#    0.000    0.600    5.000    3.000    0.000    5.600 
#    1.800    2.000    0.000    0.000    0.000    0.000 
#    0.000    0.000    0.000    0.000    0.000    0.000 
#
# Total GULP energy -496317.255477 kJ/mol
# GULP energy per Si atom -12407.931387 kJ/mol
# Density = 2.040273 g / cm^3
# Si number density = 20.449271 Si / 1000 Ang^3
#
#
#
# Elastic Constant Matrix: (Units=GPa)
#
#
# Indices 1 2 3 4 5 6 
#
# 1 112.5076 41.7950 51.7245 0.0000 0.0000 0.0000
# 2 41.7950 66.1829 28.2600 0.0000 0.0000 0.0000
# 3 51.7245 28.2600 147.6745 0.0000 0.0000 0.0000
# 4 0.0000 0.0000 0.0000 14.1509 0.0000 0.0000
# 5 0.0000 0.0000 0.0000 0.0000 -19.2137 0.0000
# 6 0.0000 0.0000 0.0000 0.0000 0.0000 43.5473
#
#
#
# Elastic Compliance Matrix: (Units=1/GPa)
#
#
# Indices 1 2 3 4 5 6 
#
# 1 0.012878 -0.006759 -0.003217 0.000000 0.000000 0.000000
# 2 -0.006759 0.020001 -0.001460 0.000000 0.000000 0.000000
# 3 -0.003217 -0.001460 0.008178 0.000000 0.000000 0.000000
# 4 0.000000 0.000000 0.000000 0.070667 0.000000 0.000000
# 5 0.000000 0.000000 0.000000 0.000000 -0.052046 0.000000
# 6 0.000000 0.000000 0.000000 0.000000 0.000000 0.022964
#
#
# Mechanical properties :
#
#
# Convention : Reuss Voigt Hill
#
# Bulk Modulus (GPa) = 54.99106 63.32490 59.15798
# Shear Modulus (GPa) = 44.81236 21.33594 33.07415
#
# Velocity S-wave (km/s) = 4.68631 3.23361 4.02602
# Velocity P-wave (km/s) = 7.49879 6.70639 7.11363
#
# Compressibility (1/GPa) = 0.01818477
#
# Stress axis : x y z
#
# Youngs Moduli (GPa) = 77.65023 49.99633 122.27948
#
# Poissons Ratio (x) = 0.33792 0.39341
# Poissons Ratio (y) = 0.52483 0.17856
# Poissons Ratio (z) = 0.24982 0.07301
#
# Static dielectric constant tensor:
#      x y z
#    x 3.824990 0.000000 0.000000 
#    y 0.000000 3.748170 0.000000 
#    z 0.000000 0.000000 3.949200 
# 
# 
# High freq. dielectric constant tensor:
#      x y z
#    x 1.804050 0.000000 0.000000 
#    y 0.000000 1.806200 0.000000 
#    z 0.000000 0.000000 1.810560 
# 
# From -- ./inp_files/29803.got.cif
#   From: 2010.03.12/outbox.cif.g09.slc.cpg/sg63_15_cif.got.tgz:29803.got - 2010.04.10 19:34:48.
