data_PCOD8261939
_publ_section_title
;
Structure prediction by ZEFSAII (Michael W. Deem and Ramdas Pophale) SiO2 
 PCOD8261939
Probable space group: C M C A
;
_chemical_formula_sum "Si O2"
_cell_formula_units_Z 56
_cell_length_a 10.057641
_cell_length_b 13.910669
_cell_length_c 19.140015
_cell_angle_alpha 90.000000
_cell_angle_beta 90.000000
_cell_angle_gamma 90.000000
_cell_volume 2677.851073
_symmetry_space_group_name_H-M "C M C A"
_symmetry_group_IT_number 64
_symmetry_cell_setting 'orthorhombic'
loop_
_space_group_symop_operation_xyz
x,y,z
-x,1/2-y,1/2+z
x,-y,-z
-x,1/2+y,1/2-z
-x,-y,-z
x,1/2+y,1/2-z
-x,y,z
x,1/2-y,1/2+z
1/2+x,1/2+y,z
1/2-x,-y,1/2+z
1/2+x,1/2-y,-z
1/2-x,y,1/2-z
1/2-x,1/2-y,-z
1/2+x,y,1/2-z
1/2-x,1/2+y,z
1/2+x,-y,1/2+z
loop_
_atom_site_type_symbol
_atom_site_label
_atom_site_fract_x
_atom_site_fract_y
_atom_site_fract_z
Si Si1 0.261809 0.593271 0.030813
Si Si2 0.000000 0.555441 0.370667
Si Si3 0.500000 0.268981 0.346594
Si Si4 0.500000 0.144587 0.697066
Si Si5 0.711547 0.279771 0.096054
O O1 0.372464 0.546569 0.080246
O O2 0.174377 0.668985 0.075530
O O3 0.181555 0.500000 0.000000
O O4 0.331653 0.652405 0.967872
O O5 0.000000 0.655562 0.327340
O O6 0.000000 0.469857 0.314262
O O7 0.500000 0.335589 0.278849
O O8 0.630312 0.292156 0.392247
O O9 0.368551 0.192896 0.664998
#
# Coordination Sequence:
#
# PCOD8261939 Si02
#       5
#    16   8   8   8  16
#     4  10  18  36  62  92 118 150 199 252 298 354
#     4  10  20  38  67  84 117 167 210 227 302 383
#     4  10  24  43  55  89 127 159 199 252 291 356
#     4  12  21  42  65  84 119 172 208 232 292 374
#     4  10  22  37  63  92 120 155 199 256 300 346
#
# _framework density 20.912291
#
# number of rings (size 3 to 8) (size 9 to 14) (size 15 to 20)
#    0.000    1.714    2.857    2.143    0.000    3.429 
#    5.143    4.286    0.000    0.000    0.000    0.000 
#    0.000    0.000    0.000    0.000    0.000    0.000 
#
# Total GULP energy -347050.641827 kJ/mol
# GULP energy per Si atom -12394.665780 kJ/mol
# Density = 2.086469 g / cm^3
# Si number density = 20.912291 Si / 1000 Ang^3
#
#
#
# Elastic Constant Matrix: (Units=GPa)
#
#
# Indices 1 2 3 4 5 6 
#
# 1 73.5555 17.8940 10.2412 0.0000 0.0000 0.0000
# 2 17.8940 159.3650 43.5188 0.0000 0.0000 0.0000
# 3 10.2412 43.5188 91.1610 0.0000 0.0000 0.0000
# 4 0.0000 0.0000 0.0000 46.0446 0.0000 0.0000
# 5 0.0000 0.0000 0.0000 0.0000 0.9255 0.0000
# 6 0.0000 0.0000 0.0000 0.0000 0.0000 20.4926
#
#
#
# Elastic Compliance Matrix: (Units=1/GPa)
#
#
# Indices 1 2 3 4 5 6 
#
# 1 0.014048 -0.001318 -0.000949 0.000000 0.000000 0.000000
# 2 -0.001318 0.007339 -0.003356 0.000000 0.000000 0.000000
# 3 -0.000949 -0.003356 0.012678 0.000000 0.000000 0.000000
# 4 0.000000 0.000000 0.000000 0.021718 0.000000 0.000000
# 5 0.000000 0.000000 0.000000 0.000000 1.080499 0.000000
# 6 0.000000 0.000000 0.000000 0.000000 0.000000 0.048798
#
#
# Mechanical properties :
#
#
# Convention : Reuss Voigt Hill
#
# Bulk Modulus (GPa) = 43.82120 51.93217 47.87668
# Shear Modulus (GPa) = 4.15306 30.32104 17.23705
#
# Velocity S-wave (km/s) = 1.41076 3.81191 2.87410
# Velocity P-wave (km/s) = 4.86353 6.65292 5.82732
#
# Compressibility (1/GPa) = 0.02282001
#
# Stress axis : x y z
#
# Youngs Moduli (GPa) = 71.18463 136.25389 78.87627
#
# Poissons Ratio (x) = 0.17962 0.07484
# Poissons Ratio (y) = 0.09384 0.26467
# Poissons Ratio (z) = 0.06754 0.45721
#
# Static dielectric constant tensor:
#      x y z
#    x 3.514730 0.000000 0.000000 
#    y 0.000000 4.110360 0.000000 
#    z 0.000000 0.000000 3.529610 
# 
# 
# High freq. dielectric constant tensor:
#      x y z
#    x 1.787880 0.000000 0.000000 
#    y 0.000000 1.840350 0.000000 
#    z 0.000000 0.000000 1.807240 
# 
# From -- ./inp_files/21763.got.cif
#   From: 2010.03.12/outbox.cif.g09.slc.cpg/sg64_11_cif.got.tgz:21763.got - 2010.04.10 20:19:32.
