data_PCOD8261416
_publ_section_title
;
Structure prediction by ZEFSAII (Michael W. Deem and Ramdas Pophale) SiO2 
 PCOD8261416
Probable space group: C M C A
;
_chemical_formula_sum "Si O2"
_cell_formula_units_Z 88
_cell_length_a 33.231328
_cell_length_b 32.466166
_cell_length_c 5.133864
_cell_angle_alpha 90.000000
_cell_angle_beta 90.000000
_cell_angle_gamma 90.000000
_cell_volume 5538.894097
_symmetry_space_group_name_H-M "C M C A"
_symmetry_group_IT_number 64
_symmetry_cell_setting 'orthorhombic'
loop_
_space_group_symop_operation_xyz
x,y,z
-x,1/2-y,1/2+z
x,-y,-z
-x,1/2+y,1/2-z
-x,-y,-z
x,1/2+y,1/2-z
-x,y,z
x,1/2-y,1/2+z
1/2+x,1/2+y,z
1/2-x,-y,1/2+z
1/2+x,1/2-y,-z
1/2-x,y,1/2-z
1/2-x,1/2-y,-z
1/2+x,y,1/2-z
1/2-x,1/2+y,z
1/2+x,-y,1/2+z
loop_
_atom_site_type_symbol
_atom_site_label
_atom_site_fract_x
_atom_site_fract_y
_atom_site_fract_z
Si Si1 0.952141 0.523938 0.750366
Si Si2 0.731903 0.704314 0.497906
Si Si3 0.953276 0.384562 0.356396
Si Si4 0.500000 0.224414 0.190333
Si Si5 0.639308 0.222707 0.029147
Si Si6 0.930666 0.163390 0.345992
O O1 0.936145 0.500000 0.500000
O O2 0.936621 0.570759 0.729159
O O3 0.000000 0.523918 0.766752
O O4 0.934096 0.500000 0.000000
O O5 0.750000 0.680194 0.250000
O O6 0.750000 0.750000 0.500000
O O7 0.684236 0.705478 0.476451
O O8 0.750000 0.680919 0.750000
O O9 0.927529 0.368921 0.606078
O O10 0.000000 0.386554 0.442875
O O11 0.949004 0.355986 0.105733
O O12 0.500000 0.262546 0.388567
O O13 0.539829 0.198928 0.254243
O O14 0.630621 0.256613 0.250717
O O15 0.612272 0.182707 0.081344
#
# Coordination Sequence:
#
# PCOD8261416 Si02
#       6
#    16  16  16   8  16  16
#     4   9  17  29  49  73  88 107 146 193 232 274
#     4  10  16  30  49  67  85 107 142 194 249 294
#     4  11  20  36  50  64  93 125 154 193 240 296
#     4  12  22  36  46  56  80 118 172 212 230 262
#     4  12  21  33  48  67  89 115 160 214 234 276
#     4  12  23  34  47  65  88 126 162 196 254 274
#
# _framework density 15.887648
#
# number of rings (size 3 to 8) (size 9 to 14) (size 15 to 20)
#    0.000    1.091    5.455    4.364    0.000    2.909 
#    0.000    0.000    0.000    0.000    0.000    0.000 
#    0.000    0.000    0.000    0.000    0.000   50.909 
#
# Total GULP energy -545499.514250 kJ/mol
# GULP energy per Si atom -12397.716233 kJ/mol
# Density = 1.585149 g / cm^3
# Si number density = 15.887648 Si / 1000 Ang^3
#
#
#
# Elastic Constant Matrix: (Units=GPa)
#
#
# Indices 1 2 3 4 5 6 
#
# 1 77.1479 34.1918 21.6687 0.0000 0.0000 0.0000
# 2 34.1918 72.1154 32.2995 0.0000 0.0000 0.0000
# 3 21.6687 32.2995 128.3923 0.0000 0.0000 0.0000
# 4 0.0000 0.0000 0.0000 25.9132 0.0000 0.0000
# 5 0.0000 0.0000 0.0000 0.0000 19.6218 0.0000
# 6 0.0000 0.0000 0.0000 0.0000 0.0000 6.9254
#
#
#
# Elastic Compliance Matrix: (Units=1/GPa)
#
#
# Indices 1 2 3 4 5 6 
#
# 1 0.016507 -0.007414 -0.000921 0.000000 0.000000 0.000000
# 2 -0.007414 0.018957 -0.003518 0.000000 0.000000 0.000000
# 3 -0.000921 -0.003518 0.008829 0.000000 0.000000 0.000000
# 4 0.000000 0.000000 0.000000 0.038590 0.000000 0.000000
# 5 0.000000 0.000000 0.000000 0.000000 0.050964 0.000000
# 6 0.000000 0.000000 0.000000 0.000000 0.000000 0.144396
#
#
# Mechanical properties :
#
#
# Convention : Reuss Voigt Hill
#
# Bulk Modulus (GPa) = 48.57171 50.44173 49.50672
# Shear Modulus (GPa) = 16.19118 23.12512 19.65815
#
# Velocity S-wave (km/s) = 3.19581 3.81929 3.52138
# Velocity P-wave (km/s) = 6.65251 7.16012 6.91098
#
# Compressibility (1/GPa) = 0.02058812
#
# Stress axis : x y z
#
# Youngs Moduli (GPa) = 60.58218 52.74999 113.26316
#
# Poissons Ratio (x) = 0.39108 0.10428
# Poissons Ratio (y) = 0.44914 0.39844
# Poissons Ratio (z) = 0.05578 0.18557
#
# Static dielectric constant tensor:
#      x y z
#    x 2.825060 0.000000 0.000000 
#    y 0.000000 2.860610 0.000000 
#    z 0.000000 0.000000 3.069020 
# 
# 
# High freq. dielectric constant tensor:
#      x y z
#    x 1.571610 0.000000 0.000000 
#    y 0.000000 1.576200 0.000000 
#    z 0.000000 0.000000 1.644350 
# 
# From -- ./inp_files/3390.got.cif
#   From: 2010.03.12/outbox.cif.g09.slc.cpg/sg64_2_cif.got.tgz:3390.got - 2010.04.10 20:19:32.
