data_PCOD8261726
_publ_section_title
;
Structure prediction by ZEFSAII (Michael W. Deem and Ramdas Pophale) SiO2 
 PCOD8261726
Probable space group: C M C A
;
_chemical_formula_sum "Si O2"
_cell_formula_units_Z 96
_cell_length_a 8.955440
_cell_length_b 23.683461
_cell_length_c 25.093498
_cell_angle_alpha 90.000000
_cell_angle_beta 90.000000
_cell_angle_gamma 90.000000
_cell_volume 5322.225884
_symmetry_space_group_name_H-M "C M C A"
_symmetry_group_IT_number 64
_symmetry_cell_setting 'orthorhombic'
loop_
_space_group_symop_operation_xyz
x,y,z
-x,1/2-y,1/2+z
x,-y,-z
-x,1/2+y,1/2-z
-x,-y,-z
x,1/2+y,1/2-z
-x,y,z
x,1/2-y,1/2+z
1/2+x,1/2+y,z
1/2-x,-y,1/2+z
1/2+x,1/2-y,-z
1/2-x,y,1/2-z
1/2-x,1/2-y,-z
1/2+x,y,1/2-z
1/2-x,1/2+y,z
1/2+x,-y,1/2+z
loop_
_atom_site_type_symbol
_atom_site_label
_atom_site_fract_x
_atom_site_fract_y
_atom_site_fract_z
Si Si1 0.822512 0.810732 0.497525
Si Si2 0.839563 0.992439 0.439824
Si Si3 0.324823 0.385969 0.597209
Si Si4 0.825824 0.559128 0.695734
Si Si5 0.176598 0.069577 0.194054
Si Si6 0.827263 0.886606 0.088105
O O1 0.750000 0.750000 0.500000
O O2 0.768528 0.843815 0.550723
O O3 0.770487 0.840145 0.442546
O O4 0.000000 0.806637 0.496000
O O5 0.706875 0.947837 0.435593
O O6 0.000000 0.974543 0.412253
O O7 0.881567 0.000000 0.500000
O O8 0.779955 0.051466 0.419235
O O9 0.500000 0.377056 0.606900
O O10 0.236255 0.381980 0.653102
O O11 0.750000 0.579342 0.750000
O O12 0.774425 0.495387 0.678629
O O13 0.785766 0.606191 0.650813
O O14 0.000000 0.557574 0.706428
O O15 0.250000 0.085280 0.250000
O O16 0.000000 0.074888 0.198305
O O17 0.000000 0.871325 0.079830
#
# Coordination Sequence:
#
# PCOD8261726 Si02
#       6
#    16  16  16  16  16  16
#     4  11  24  42  59  80 106 142 186 229 279 328
#     4  10  18  31  49  76 110 145 178 214 269 330
#     4  10  20  34  54  78 110 145 180 222 271 325
#     4   9  19  32  48  76 112 147 181 216 259 315
#     4  10  19  32  50  78 114 149 184 218 263 321
#     4  11  21  34  53  81 113 144 180 225 272 324
#
# _framework density 18.037565000000001
#
# number of rings (size 3 to 8) (size 9 to 14) (size 15 to 20)
#    0.000    1.833    3.333    1.500    0.000    3.667 
#    0.000    0.000    0.000    1.000    0.000    4.667 
#    0.000    0.000    0.000    0.000    0.000    0.000 
#
# Total GULP energy -594727.028982 kJ/mol
# GULP energy per Si atom -12390.146437 kJ/mol
# Density = 1.799651 g / cm^3
# Si number density = 18.037565 Si / 1000 Ang^3
#
#
#
# Elastic Constant Matrix: (Units=GPa)
#
#
# Indices 1 2 3 4 5 6 
#
# 1 67.1153 39.9461 57.3177 0.0000 0.0000 0.0000
# 2 39.9461 85.8073 58.8069 0.0000 0.0000 0.0000
# 3 57.3177 58.8069 136.8094 0.0000 0.0000 0.0000
# 4 0.0000 0.0000 0.0000 11.7162 0.0000 0.0000
# 5 0.0000 0.0000 0.0000 0.0000 32.1471 0.0000
# 6 0.0000 0.0000 0.0000 0.0000 0.0000 26.7651
#
#
#
# Elastic Compliance Matrix: (Units=1/GPa)
#
#
# Indices 1 2 3 4 5 6 
#
# 1 0.025491 -0.006447 -0.007909 0.000000 0.000000 0.000000
# 2 -0.006447 0.018151 -0.005101 0.000000 0.000000 0.000000
# 3 -0.007909 -0.005101 0.012816 0.000000 0.000000 0.000000
# 4 0.000000 0.000000 0.000000 0.085352 0.000000 0.000000
# 5 0.000000 0.000000 0.000000 0.000000 0.031107 0.000000
# 6 0.000000 0.000000 0.000000 0.000000 0.000000 0.037362
#
#
# Mechanical properties :
#
#
# Convention : Reuss Voigt Hill
#
# Bulk Modulus (GPa) = 56.99807 66.87483 61.93645
# Shear Modulus (GPa) = 19.60479 23.03645 21.32062
#
# Velocity S-wave (km/s) = 3.30037 3.57758 3.44177
# Velocity P-wave (km/s) = 6.79643 7.36351 7.08565
#
# Compressibility (1/GPa) = 0.01754445
#
# Stress axis : x y z
#
# Youngs Moduli (GPa) = 39.22981 55.09238 78.03012
#
# Poissons Ratio (x) = 0.35517 0.61710
# Poissons Ratio (y) = 0.25291 0.39806
# Poissons Ratio (z) = 0.31025 0.28104
#
# Static dielectric constant tensor:
#      x y z
#    x 3.373780 0.000000 0.000000 
#    y 0.000000 3.060170 0.000000 
#    z 0.000000 0.000000 3.704030 
# 
# 
# High freq. dielectric constant tensor:
#      x y z
#    x 1.705530 0.000000 0.000000 
#    y 0.000000 1.652680 0.000000 
#    z 0.000000 0.000000 1.709460 
# 
# From -- ./inp_files/48352.got.cif
#   From: 2010.03.12/outbox.cif.g09.slc.cpg/sg64_25_cif.got.tgz:48352.got - 2010.04.10 20:19:32.
