data_PCOD8261296
_publ_section_title
;
Structure prediction by ZEFSAII (Michael W. Deem and Ramdas Pophale) SiO2 
 PCOD8261296
Probable space group: C M C M
;
_chemical_formula_sum "Si O2"
_cell_formula_units_Z 96
_cell_length_a 26.623547
_cell_length_b 28.898877
_cell_length_c 9.317594
_cell_angle_alpha 90.000000
_cell_angle_beta 90.000000
_cell_angle_gamma 90.000000
_cell_volume 7168.869332
_symmetry_space_group_name_H-M "C M C M"
_symmetry_group_IT_number 63
_symmetry_cell_setting 'orthorhombic'
loop_
_space_group_symop_operation_xyz
x,y,z
-x,-y,1/2+z
x,-y,-z
-x,y,1/2-z
-x,-y,-z
x,y,1/2-z
-x,y,z
x,-y,1/2+z
1/2+x,1/2+y,z
1/2-x,1/2-y,1/2+z
1/2+x,1/2-y,-z
1/2-x,1/2+y,1/2-z
1/2-x,1/2-y,-z
1/2+x,1/2+y,1/2-z
1/2-x,1/2+y,z
1/2+x,1/2-y,1/2+z
loop_
_atom_site_type_symbol
_atom_site_label
_atom_site_fract_x
_atom_site_fract_y
_atom_site_fract_z
Si Si1 0.351492 0.305438 0.083692
Si Si2 0.248406 0.855683 0.418901
Si Si3 0.944536 0.140238 0.579107
Si Si4 0.708339 0.220733 0.418157
Si Si5 0.781453 0.956017 0.084299
Si Si6 0.602764 0.544701 0.917639
O O1 0.353769 0.318315 0.250000
O O2 0.304401 0.334840 0.022964
O O3 0.404334 0.322495 0.015390
O O4 0.343466 0.250048 0.060735
O O5 0.255408 0.845992 0.250000
O O6 0.293337 0.829908 0.506917
O O7 0.250512 0.910194 0.453926
O O8 0.945793 0.142566 0.750000
O O9 0.000000 0.151420 0.516820
O O10 0.928388 0.089028 0.529682
O O11 0.721307 0.216087 0.250000
O O12 0.750000 0.250000 0.500000
O O13 0.776522 0.968142 0.250000
O O14 0.839129 0.946586 0.042445
O O15 0.759179 0.000000 0.000000
O O16 0.595702 0.535849 0.750000
O O17 0.581616 0.500000 0.000000
#
# Coordination Sequence:
#
# PCOD8261296 Si02
#       6
#    16  16  16  16  16  16
#     4   8  13  23  35  48  68  89 109 142 180 210
#     4   9  15  25  39  52  70  92 114 143 178 210
#     4   9  15  23  37  53  66  87 119 148 178 218
#     4   9  16  24  37  54  71  89 110 139 177 215
#     4   9  16  25  37  51  70  95 118 145 179 212
#     4   9  16  26  38  50  65  87 116 149 185 217
#
# _framework density 13.391233
#
# number of rings (size 3 to 8) (size 9 to 14) (size 15 to 20)
#    0.000    3.167    1.667    1.500    0.000    1.000 
#    0.000    0.000    0.000    0.000    0.000    0.000 
#    0.000    0.000    0.000    0.000    0.000    0.833 
#
# Total GULP energy -594681.135702 kJ/mol
# GULP energy per Si atom -12389.190327 kJ/mol
# Density = 1.336075 g / cm^3
# Si number density = 13.391233 Si / 1000 Ang^3
#
#
#
# Elastic Constant Matrix: (Units=GPa)
#
#
# Indices 1 2 3 4 5 6 
#
# 1 49.5636 50.9761 19.5191 0.0000 0.0000 0.0000
# 2 50.9761 108.2985 39.1257 0.0000 0.0000 0.0000
# 3 19.5191 39.1257 37.3571 0.0000 0.0000 0.0000
# 4 0.0000 0.0000 0.0000 24.0919 0.0000 0.0000
# 5 0.0000 0.0000 0.0000 0.0000 7.9068 0.0000
# 6 0.0000 0.0000 0.0000 0.0000 0.0000 18.6927
#
#
#
# Elastic Compliance Matrix: (Units=1/GPa)
#
#
# Indices 1 2 3 4 5 6 
#
# 1 0.039190 -0.017774 -0.001861 0.000000 0.000000 0.000000
# 2 -0.017774 0.022916 -0.014714 0.000000 0.000000 0.000000
# 3 -0.001861 -0.014714 0.043151 0.000000 0.000000 0.000000
# 4 0.000000 0.000000 0.000000 0.041508 0.000000 0.000000
# 5 0.000000 0.000000 0.000000 0.000000 0.126473 0.000000
# 6 0.000000 0.000000 0.000000 0.000000 0.000000 0.053497
#
#
# Mechanical properties :
#
#
# Convention : Reuss Voigt Hill
#
# Bulk Modulus (GPa) = 27.35291 46.05120 36.70206
# Shear Modulus (GPa) = 12.26638 15.84484 14.05561
#
# Velocity S-wave (km/s) = 3.02983 3.44353 3.24329
# Velocity P-wave (km/s) = 5.71928 7.09044 6.44145
#
# Compressibility (1/GPa) = 0.03655917
#
# Stress axis : x y z
#
# Youngs Moduli (GPa) = 25.51682 43.63799 23.17440
#
# Poissons Ratio (x) = 0.77564 0.04312
# Poissons Ratio (y) = 0.45355 0.34098
# Poissons Ratio (z) = 0.04748 0.64207
#
# Static dielectric constant tensor:
#      x y z
#    x 2.635720 0.000000 0.000000 
#    y 0.000000 2.986230 0.000000 
#    z 0.000000 0.000000 2.547880 
# 
# 
# High freq. dielectric constant tensor:
#      x y z
#    x 1.460280 0.000000 0.000000 
#    y 0.000000 1.509660 0.000000 
#    z 0.000000 0.000000 1.489430 
# 
# From -- ./inp_files/24153.got.cif
#   From: 2010.03.12/outbox.cif.g09.slc.cpg/sg63_13_cif.got.tgz:24153.got - 2010.04.10 19:34:48.
