data_PCOD8261125
_publ_section_title
;
Structure prediction by ZEFSAII (Michael W. Deem and Ramdas Pophale) SiO2 
 PCOD8261125
Probable space group: C M C M
;
_chemical_formula_sum "Si O2"
_cell_formula_units_Z 80
_cell_length_a 28.408978
_cell_length_b 9.130187
_cell_length_c 14.972336
_cell_angle_alpha 90.000000
_cell_angle_beta 90.000000
_cell_angle_gamma 90.000000
_cell_volume 3883.513756
_symmetry_space_group_name_H-M "C M C M"
_symmetry_group_IT_number 63
_symmetry_cell_setting 'orthorhombic'
loop_
_space_group_symop_operation_xyz
x,y,z
-x,-y,1/2+z
x,-y,-z
-x,y,1/2-z
-x,-y,-z
x,y,1/2-z
-x,y,z
x,-y,1/2+z
1/2+x,1/2+y,z
1/2-x,1/2-y,1/2+z
1/2+x,1/2-y,-z
1/2-x,1/2+y,1/2-z
1/2-x,1/2-y,-z
1/2+x,1/2+y,1/2-z
1/2-x,1/2+y,z
1/2+x,1/2-y,1/2+z
loop_
_atom_site_type_symbol
_atom_site_label
_atom_site_fract_x
_atom_site_fract_y
_atom_site_fract_z
Si Si1 0.781498 0.992056 0.894990
Si Si2 0.308130 0.829769 0.350234
Si Si3 0.605291 0.839522 0.019268
Si Si4 0.051715 0.920157 0.906721
Si Si5 0.624818 0.646985 0.652802
O O1 0.784159 0.826528 0.862570
O O2 0.731073 0.047221 0.863754
O O3 0.822388 0.088069 0.851550
O O4 0.788294 0.000000 0.000000
O O5 0.329079 0.843456 0.250000
O O6 0.347278 0.857208 0.424607
O O7 0.615081 0.762754 0.924549
O O8 0.568467 0.746613 0.077614
O O9 0.583884 0.000000 0.000000
O O10 0.000000 0.917257 0.860427
O O11 0.089710 0.007366 0.848637
O O12 0.047601 0.000000 0.000000
O O13 0.618136 0.722908 0.750000
#
# Coordination Sequence:
#
# PCOD8261125 Si02
#       5
#    16  16  16  16  16
#     4  12  23  42  61  86 125 166 215 267 316 376
#     4  12  25  40  60  89 125 170 216 263 319 378
#     4  11  24  41  60  93 134 170 210 262 316 383
#     4   9  19  40  68  93 120 160 209 261 318 375
#     4  11  22  41  65  92 126 166 215 267 317 374
#
# _framework density 20.599902
#
# number of rings (size 3 to 8) (size 9 to 14) (size 15 to 20)
#    0.000    1.000    4.000    3.600    2.800    1.600 
#    0.000    0.000    0.000    0.000    0.000    2.800 
#    0.000    0.000    0.000    0.000    0.000    0.000 
#
# Total GULP energy -496025.187637 kJ/mol
# GULP energy per Si atom -12400.629691 kJ/mol
# Density = 2.055302 g / cm^3
# Si number density = 20.599902 Si / 1000 Ang^3
#
#
#
# Elastic Constant Matrix: (Units=GPa)
#
#
# Indices 1 2 3 4 5 6 
#
# 1 97.3747 21.3341 24.5548 0.0000 0.0000 0.0000
# 2 21.3341 108.1914 15.9311 0.0000 0.0000 0.0000
# 3 24.5548 15.9311 138.5012 0.0000 0.0000 0.0000
# 4 0.0000 0.0000 0.0000 -2.5796 0.0000 0.0000
# 5 0.0000 0.0000 0.0000 0.0000 -11.5312 0.0000
# 6 0.0000 0.0000 0.0000 0.0000 0.0000 -7.4286
#
#
#
# Elastic Compliance Matrix: (Units=1/GPa)
#
#
# Indices 1 2 3 4 5 6 
#
# 1 0.011136 -0.001938 -0.001751 0.000000 0.000000 0.000000
# 2 -0.001938 0.009739 -0.000777 0.000000 0.000000 0.000000
# 3 -0.001751 -0.000777 0.007620 0.000000 0.000000 0.000000
# 4 0.000000 0.000000 0.000000 -0.387661 0.000000 0.000000
# 5 0.000000 0.000000 0.000000 0.000000 -0.086721 0.000000
# 6 0.000000 0.000000 0.000000 0.000000 0.000000 -0.134615
#
#
# Mechanical properties :
#
#
# Convention : Reuss Voigt Hill
#
# Bulk Modulus (GPa) = 51.11642 51.96748 51.54195
# Shear Modulus (GPa) = -8.84879 14.50861 2.82991
#
# Velocity S-wave (km/s) = -2.07482 2.65675 1.17334
# Velocity P-wave (km/s) = 4.37355 5.89007 5.18753
#
# Compressibility (1/GPa) = 0.01956319
#
# Stress axis : x y z
#
# Youngs Moduli (GPa) = 89.80019 102.67580 131.23378
#
# Poissons Ratio (x) = 0.19898 0.22984
# Poissons Ratio (y) = 0.17403 0.10193
# Poissons Ratio (z) = 0.15727 0.07975
#
# Static dielectric constant tensor:
#      x y z
#    x 3.940770 0.000000 0.000000 
#    y 0.000000 3.788870 0.000000 
#    z 0.000000 0.000000 3.902410 
# 
# 
# High freq. dielectric constant tensor:
#      x y z
#    x 1.798190 0.000000 0.000000 
#    y 0.000000 1.802630 0.000000 
#    z 0.000000 0.000000 1.813950 
# 
# From -- ./inp_files/49414.got.cif
#   From: 2010.03.12/outbox.cif.g09.slc.cpg/sg63_25_cif.got.tgz:49414.got - 2010.04.10 19:34:48.
