data_PCOD8261061
_publ_section_title
;
Structure prediction by ZEFSAII (Michael W. Deem and Ramdas Pophale) SiO2 
 PCOD8261061
Probable space group: C M C M
;
_chemical_formula_sum "Si O2"
_cell_formula_units_Z 96
_cell_length_a 9.227629
_cell_length_b 22.476056
_cell_length_c 23.691467
_cell_angle_alpha 90.000000
_cell_angle_beta 90.000000
_cell_angle_gamma 90.000000
_cell_volume 4913.626986
_symmetry_space_group_name_H-M "C M C M"
_symmetry_group_IT_number 63
_symmetry_cell_setting 'orthorhombic'
loop_
_space_group_symop_operation_xyz
x,y,z
-x,-y,1/2+z
x,-y,-z
-x,y,1/2-z
-x,-y,-z
x,y,1/2-z
-x,y,z
x,-y,1/2+z
1/2+x,1/2+y,z
1/2-x,1/2-y,1/2+z
1/2+x,1/2-y,-z
1/2-x,1/2+y,1/2-z
1/2-x,1/2-y,-z
1/2+x,1/2+y,1/2-z
1/2-x,1/2+y,z
1/2+x,1/2-y,1/2+z
loop_
_atom_site_type_symbol
_atom_site_label
_atom_site_fract_x
_atom_site_fract_y
_atom_site_fract_z
Si Si1 0.670531 0.400779 0.081618
Si Si2 0.828702 0.174202 0.813878
Si Si3 0.672649 0.793696 0.628887
Si Si4 0.833416 0.519632 0.084160
Si Si5 0.832766 0.642057 0.481069
Si Si6 0.672108 0.090367 0.188614
O O1 0.500000 0.401500 0.072840
O O2 0.711468 0.381685 0.145940
O O3 0.733992 0.464990 0.065976
O O4 0.736592 0.352750 0.037591
O O5 0.764446 0.166560 0.750000
O O6 0.764248 0.232520 0.845560
O O7 0.000000 0.181295 0.809084
O O8 0.500000 0.793252 0.630211
O O9 0.720151 0.807930 0.564119
O O10 0.734740 0.846450 0.668079
O O11 0.810430 0.576070 0.044245
O O12 0.783332 0.537191 0.147198
O O13 0.000000 0.498395 0.081903
O O14 0.000000 0.652034 0.496924
O O15 0.736465 0.075505 0.250000
O O16 0.500000 0.095796 0.189444
#
# Coordination Sequence:
#
# PCOD8261061 Si02
#       6
#    16  16  16  16  16  16
#     4  11  22  32  46  71 100 131 164 192 226 281
#     4   9  18  32  48  68  98 132 161 192 232 280
#     4   8  14  27  49  73  94 120 156 197 242 287
#     4   9  18  32  49  70  97 128 160 197 242 285
#     4   9  18  33  53  75  96 120 156 202 247 285
#     4   8  13  23  44  73  96 115 151 204 250 283
#
# _framework density 19.537503000000001
#
# number of rings (size 3 to 8) (size 9 to 14) (size 15 to 20)
#    0.000    3.000    0.000    3.500    0.000    6.000 
#    0.000    0.000    0.000    2.500    0.000    0.000 
#    0.000    6.667    0.000    0.000    0.000    0.000 
#
# Total GULP energy -594791.703127 kJ/mol
# GULP energy per Si atom -12391.493815 kJ/mol
# Density = 1.949303 g / cm^3
# Si number density = 19.537503 Si / 1000 Ang^3
#
#
#
# Elastic Constant Matrix: (Units=GPa)
#
#
# Indices 1 2 3 4 5 6 
#
# 1 41.7993 15.8428 30.2518 0.0000 0.0000 0.0000
# 2 15.8428 46.3775 12.5355 0.0000 0.0000 0.0000
# 3 30.2518 12.5355 117.8949 0.0000 0.0000 0.0000
# 4 0.0000 0.0000 0.0000 21.4245 0.0000 0.0000
# 5 0.0000 0.0000 0.0000 0.0000 20.3079 0.0000
# 6 0.0000 0.0000 0.0000 0.0000 0.0000 9.6277
#
#
#
# Elastic Compliance Matrix: (Units=1/GPa)
#
#
# Indices 1 2 3 4 5 6 
#
# 1 0.032789 -0.009191 -0.007436 0.000000 0.000000 0.000000
# 2 -0.009191 0.024776 -0.000276 0.000000 0.000000 0.000000
# 3 -0.007436 -0.000276 0.010420 0.000000 0.000000 0.000000
# 4 0.000000 0.000000 0.000000 0.046676 0.000000 0.000000
# 5 0.000000 0.000000 0.000000 0.000000 0.049242 0.000000
# 6 0.000000 0.000000 0.000000 0.000000 0.000000 0.103867
#
#
# Mechanical properties :
#
#
# Convention : Reuss Voigt Hill
#
# Bulk Modulus (GPa) = 29.25811 35.92577 32.59194
# Shear Modulus (GPa) = 15.97597 20.10146 18.03871
#
# Velocity S-wave (km/s) = 2.86266 3.21107 3.04186
# Velocity P-wave (km/s) = 5.09257 5.67239 5.39028
#
# Compressibility (1/GPa) = 0.03417855
#
# Stress axis : x y z
#
# Youngs Moduli (GPa) = 30.49760 40.36089 95.97224
#
# Poissons Ratio (x) = 0.37096 0.71370
# Poissons Ratio (y) = 0.28030 0.02649
# Poissons Ratio (z) = 0.22680 0.01114
#
# Static dielectric constant tensor:
#      x y z
#    x 2.947700 0.000000 0.000000 
#    y 0.000000 3.507530 0.000000 
#    z 0.000000 0.000000 4.501400 
# 
# 
# High freq. dielectric constant tensor:
#      x y z
#    x 1.694230 0.000000 0.000000 
#    y 0.000000 1.753590 0.000000 
#    z 0.000000 0.000000 1.780100 
# 
# From -- ./inp_files/59928.got.cif
#   From: 2010.03.12/outbox.cif.g09.slc.cpg/sg63_30_cif.got.tgz:59928.got - 2010.04.10 19:34:48.
