data_PCOD8261700
_publ_section_title
;
Structure prediction by ZEFSAII (Michael W. Deem and Ramdas Pophale) SiO2 
 PCOD8261700
Probable space group: C M C A
;
_chemical_formula_sum "Si O2"
_cell_formula_units_Z 80
_cell_length_a 8.638268
_cell_length_b 25.513344
_cell_length_c 19.851586
_cell_angle_alpha 90.000000
_cell_angle_beta 90.000000
_cell_angle_gamma 90.000000
_cell_volume 4375.112936
_symmetry_space_group_name_H-M "C M C A"
_symmetry_group_IT_number 64
_symmetry_cell_setting 'orthorhombic'
loop_
_space_group_symop_operation_xyz
x,y,z
-x,1/2-y,1/2+z
x,-y,-z
-x,1/2+y,1/2-z
-x,-y,-z
x,1/2+y,1/2-z
-x,y,z
x,1/2-y,1/2+z
1/2+x,1/2+y,z
1/2-x,-y,1/2+z
1/2+x,1/2-y,-z
1/2-x,y,1/2-z
1/2-x,1/2-y,-z
1/2+x,y,1/2-z
1/2-x,1/2+y,z
1/2+x,-y,1/2+z
loop_
_atom_site_type_symbol
_atom_site_label
_atom_site_fract_x
_atom_site_fract_y
_atom_site_fract_z
Si Si1 0.681619 0.440242 0.821162
Si Si2 0.682331 0.650020 0.402962
Si Si3 0.679338 0.261713 0.070779
Si Si4 0.182485 0.126630 0.951290
Si Si5 0.820502 0.981113 0.425107
O O1 0.500000 0.432122 0.815369
O O2 0.750000 0.458135 0.750000
O O3 0.758931 0.385173 0.841798
O O4 0.717968 0.485203 0.874691
O O5 0.500000 0.641138 0.414593
O O6 0.719088 0.711284 0.382230
O O7 0.769470 0.633071 0.470893
O O8 0.500000 0.264723 0.057803
O O9 0.730323 0.320770 0.092240
O O10 0.750000 0.250000 0.000000
O O11 0.275043 0.079513 0.916785
O O12 0.000000 0.114871 0.948203
O O13 0.000000 0.989187 0.407544
O O14 0.781457 0.000000 0.500000
#
# Coordination Sequence:
#
# PCOD8261700 Si02
#       5
#    16  16  16  16  16
#     4  12  25  40  58  80 109 145 186 230 280 337
#     4  10  18  32  52  77 110 144 178 221 272 324
#     4   8  16  28  46  74 108 140 172 214 263 316
#     4  10  18  30  51  81 111 143 182 225 274 322
#     4  11  22  36  56  81 112 147 186 231 280 330
#
# _framework density 18.285243999999999
#
# number of rings (size 3 to 8) (size 9 to 14) (size 15 to 20)
#    0.000    1.800    2.000    3.600    0.000    2.400 
#    0.000    0.000    0.000    1.200    0.000    5.600 
#    0.000    0.000    0.000    0.000    0.000    0.000 
#
# Total GULP energy -495658.972057 kJ/mol
# GULP energy per Si atom -12391.474301 kJ/mol
# Density = 1.824363 g / cm^3
# Si number density = 18.285244 Si / 1000 Ang^3
#
#
#
# Elastic Constant Matrix: (Units=GPa)
#
#
# Indices 1 2 3 4 5 6 
#
# 1 36.8283 34.3701 13.6818 0.0000 0.0000 0.0000
# 2 34.3701 157.0776 32.7357 0.0000 0.0000 0.0000
# 3 13.6818 32.7357 53.7577 0.0000 0.0000 0.0000
# 4 0.0000 0.0000 0.0000 11.2574 0.0000 0.0000
# 5 0.0000 0.0000 0.0000 0.0000 23.7204 0.0000
# 6 0.0000 0.0000 0.0000 0.0000 0.0000 27.2711
#
#
#
# Elastic Compliance Matrix: (Units=1/GPa)
#
#
# Indices 1 2 3 4 5 6 
#
# 1 0.035208 -0.006685 -0.004890 0.000000 0.000000 0.000000
# 2 -0.006685 0.008561 -0.003512 0.000000 0.000000 0.000000
# 3 -0.004890 -0.003512 0.021985 0.000000 0.000000 0.000000
# 4 0.000000 0.000000 0.000000 0.088830 0.000000 0.000000
# 5 0.000000 0.000000 0.000000 0.000000 0.042158 0.000000
# 6 0.000000 0.000000 0.000000 0.000000 0.000000 0.036669
#
#
# Mechanical properties :
#
#
# Convention : Reuss Voigt Hill
#
# Bulk Modulus (GPa) = 28.10503 45.47098 36.78800
# Shear Modulus (GPa) = 18.15245 23.57484 20.86365
#
# Velocity S-wave (km/s) = 3.15419 3.59455 3.38155
# Velocity P-wave (km/s) = 5.35434 6.49225 5.95056
#
# Compressibility (1/GPa) = 0.03558083
#
# Stress axis : x y z
#
# Youngs Moduli (GPa) = 28.40240 116.81084 45.48540
#
# Poissons Ratio (x) = 0.78086 0.22243
# Poissons Ratio (y) = 0.18986 0.15974
# Poissons Ratio (z) = 0.13889 0.41022
#
# Static dielectric constant tensor:
#      x y z
#    x 3.392670 0.000000 0.000000 
#    y 0.000000 4.218730 0.000000 
#    z 0.000000 0.000000 2.663350 
# 
# 
# High freq. dielectric constant tensor:
#      x y z
#    x 1.723360 0.000000 0.000000 
#    y 0.000000 1.738050 0.000000 
#    z 0.000000 0.000000 1.648450 
# 
# From -- ./inp_files/29801.got.cif
#   From: 2010.03.12/outbox.cif.g09.slc.cpg/sg64_15_cif.got.tgz:29801.got - 2010.04.10 20:19:32.
