data_PCOD8261031
_publ_section_title
;
Structure prediction by ZEFSAII (Michael W. Deem and Ramdas Pophale) SiO2 
 PCOD8261031
Probable space group: C M C M
;
_chemical_formula_sum "Si O2"
_cell_formula_units_Z 80
_cell_length_a 11.748129
_cell_length_b 14.842137
_cell_length_c 23.604087
_cell_angle_alpha 90.000000
_cell_angle_beta 90.000000
_cell_angle_gamma 90.000000
_cell_volume 4115.781866
_symmetry_space_group_name_H-M "C M C M"
_symmetry_group_IT_number 63
_symmetry_cell_setting 'orthorhombic'
loop_
_space_group_symop_operation_xyz
x,y,z
-x,-y,1/2+z
x,-y,-z
-x,y,1/2-z
-x,-y,-z
x,y,1/2-z
-x,y,z
x,-y,1/2+z
1/2+x,1/2+y,z
1/2-x,1/2-y,1/2+z
1/2+x,1/2-y,-z
1/2-x,1/2+y,1/2-z
1/2-x,1/2-y,-z
1/2+x,1/2+y,1/2-z
1/2-x,1/2+y,z
1/2+x,1/2-y,1/2+z
loop_
_atom_site_type_symbol
_atom_site_label
_atom_site_fract_x
_atom_site_fract_y
_atom_site_fract_z
Si Si1 0.728211 0.274531 0.065530
Si Si2 0.000000 0.872820 0.448012
Si Si3 0.863684 0.579935 0.870100
Si Si4 0.629731 0.853302 0.250000
Si Si5 0.500000 0.577765 0.425517
Si Si6 0.134588 0.140348 0.250000
Si Si7 0.232231 0.101866 0.131812
O O1 0.611492 0.326112 0.074942
O O2 0.829471 0.340585 0.086484
O O3 0.705985 0.189025 0.106133
O O4 0.750000 0.250000 0.000000
O O5 0.000000 0.873662 0.514962
O O6 0.000000 0.971787 0.423829
O O7 0.816903 0.606059 0.807446
O O8 0.803526 0.485963 0.887101
O O9 0.000000 0.568690 0.872716
O O10 0.500000 0.883001 0.250000
O O11 0.642649 0.746975 0.250000
O O12 0.390558 0.612890 0.394764
O O13 0.209372 0.102168 0.198536
O O14 0.000000 0.109995 0.250000
#
# Coordination Sequence:
#
# PCOD8261031 Si02
#       7
#    16   8  16   8   8   8  16
#     4  12  26  41  67  94 130 171 217 271 322 383
#     4  11  24  44  62  92 132 174 217 269 325 375
#     4  11  25  44  66  96 134 172 215 266 323 388
#     4   9  19  40  66  91 125 168 211 261 316 379
#     4  11  22  41  68  89 127 172 220 266 323 382
#     4  11  21  36  71 102 122 163 219 266 319 384
#     4  12  24  42  66  99 129 168 217 267 323 388
#
# _framework density 19.437374999999999
#
# number of rings (size 3 to 8) (size 9 to 14) (size 15 to 20)
#    0.000    0.800    7.000    0.600    4.200    0.800 
#    0.000    1.000    0.000    1.200    0.000    0.000 
#    0.000    0.000    0.000    0.000    0.000    0.000 
#
# Total GULP energy -495883.975954 kJ/mol
# GULP energy per Si atom -12397.099399 kJ/mol
# Density = 1.939313 g / cm^3
# Si number density = 19.437375 Si / 1000 Ang^3
#
#
#
# Elastic Constant Matrix: (Units=GPa)
#
#
# Indices 1 2 3 4 5 6 
#
# 1 75.2808 21.1772 17.1297 0.0000 0.0000 0.0000
# 2 21.1772 111.4394 26.4227 0.0000 0.0000 0.0000
# 3 17.1297 26.4227 117.7755 0.0000 0.0000 0.0000
# 4 0.0000 0.0000 0.0000 34.2653 0.0000 0.0000
# 5 0.0000 0.0000 0.0000 0.0000 33.7469 0.0000
# 6 0.0000 0.0000 0.0000 0.0000 0.0000 45.3831
#
#
#
# Elastic Compliance Matrix: (Units=1/GPa)
#
#
# Indices 1 2 3 4 5 6 
#
# 1 0.014298 -0.002349 -0.001553 0.000000 0.000000 0.000000
# 2 -0.002349 0.009864 -0.001871 0.000000 0.000000 0.000000
# 3 -0.001553 -0.001871 0.009136 0.000000 0.000000 0.000000
# 4 0.000000 0.000000 0.000000 0.029184 0.000000 0.000000
# 5 0.000000 0.000000 0.000000 0.000000 0.029632 0.000000
# 6 0.000000 0.000000 0.000000 0.000000 0.000000 0.022035
#
#
# Mechanical properties :
#
#
# Convention : Reuss Voigt Hill
#
# Bulk Modulus (GPa) = 45.97242 48.21721 47.09482
# Shear Modulus (GPa) = 37.60964 38.66346 38.13655
#
# Velocity S-wave (km/s) = 4.40354 4.46480 4.43428
# Velocity P-wave (km/s) = 7.03973 7.17214 7.10624
#
# Compressibility (1/GPa) = 0.02175217
#
# Stress axis : x y z
#
# Youngs Moduli (GPa) = 69.94162 101.38352 109.45296
#
# Poissons Ratio (x) = 0.23814 0.16993
# Poissons Ratio (y) = 0.16429 0.20481
# Poissons Ratio (z) = 0.10859 0.18971
#
# Static dielectric constant tensor:
#      x y z
#    x 3.476820 0.000000 0.000000 
#    y 0.000000 3.582780 0.000000 
#    z 0.000000 0.000000 3.889700 
# 
# 
# High freq. dielectric constant tensor:
#      x y z
#    x 1.752030 0.000000 0.000000 
#    y 0.000000 1.770030 0.000000 
#    z 0.000000 0.000000 1.765550 
# 
# From -- ./inp_files/61199.got.cif
#   From: 2010.03.12/outbox.cif.g09.slc.cpg/sg63_31_cif.got.tgz:61199.got - 2010.04.10 19:34:48.
