data_PCOD8261634
_publ_section_title
;
Structure prediction by ZEFSAII (Michael W. Deem and Ramdas Pophale) SiO2 
 PCOD8261634
Probable space group: C M C A
;
_chemical_formula_sum "Si O2"
_cell_formula_units_Z 96
_cell_length_a 8.825086
_cell_length_b 27.551574
_cell_length_c 23.896852
_cell_angle_alpha 90.000000
_cell_angle_beta 90.000000
_cell_angle_gamma 90.000000
_cell_volume 5810.400318
_symmetry_space_group_name_H-M "C M C A"
_symmetry_group_IT_number 64
_symmetry_cell_setting 'orthorhombic'
loop_
_space_group_symop_operation_xyz
x,y,z
-x,1/2-y,1/2+z
x,-y,-z
-x,1/2+y,1/2-z
-x,-y,-z
x,1/2+y,1/2-z
-x,y,z
x,1/2-y,1/2+z
1/2+x,1/2+y,z
1/2-x,-y,1/2+z
1/2+x,1/2-y,-z
1/2-x,y,1/2-z
1/2-x,1/2-y,-z
1/2+x,y,1/2-z
1/2-x,1/2+y,z
1/2+x,-y,1/2+z
loop_
_atom_site_type_symbol
_atom_site_label
_atom_site_fract_x
_atom_site_fract_y
_atom_site_fract_z
Si Si1 0.679150 0.980060 0.083057
Si Si2 0.680578 0.072740 0.807477
Si Si3 0.320708 0.075470 0.024666
Si Si4 0.322670 0.233978 0.582160
Si Si5 0.822143 0.321921 0.527500
Si Si6 0.320508 0.177107 0.692715
O O1 0.500000 0.977755 0.079806
O O2 0.736984 0.963420 0.143780
O O3 0.730693 0.035211 0.070526
O O4 0.739851 0.942929 0.035712
O O5 0.500000 0.075671 0.803140
O O6 0.750000 0.052197 0.750000
O O7 0.745589 0.125622 0.820824
O O8 0.500000 0.082597 0.024532
O O9 0.245305 0.125812 0.040827
O O10 0.500000 0.244111 0.577119
O O11 0.236847 0.284696 0.574415
O O12 0.270768 0.195997 0.534188
O O13 0.278168 0.213231 0.642606
O O14 0.000000 0.325502 0.532328
O O15 0.500000 0.170358 0.699228
O O16 0.250000 0.198586 0.750000
#
# Coordination Sequence:
#
# PCOD8261634 Si02
#       6
#    16  16  16  16  16  16
#     4   8  16  29  47  68  89 118 153 184 217 266
#     4  10  18  29  45  67  93 120 150 182 220 264
#     4   9  16  30  49  67  89 118 151 185 224 267
#     4   9  19  33  47  65  92 124 152 181 222 271
#     4  10  19  30  46  70  95 118 149 187 226 267
#     4  10  19  31  47  68  93 120 151 185 224 268
#
# _framework density 16.522096999999999
#
# number of rings (size 3 to 8) (size 9 to 14) (size 15 to 20)
#    0.000    2.667    0.000    4.500    0.000    2.000 
#    0.000    4.167    0.000    1.000    0.000    2.333 
#    0.000    0.000    0.000    0.000    0.000    0.000 
#
# Total GULP energy -595103.005149 kJ/mol
# GULP energy per Si atom -12397.979274 kJ/mol
# Density = 1.648449 g / cm^3
# Si number density = 16.522097 Si / 1000 Ang^3
#
#
#
# Elastic Constant Matrix: (Units=GPa)
#
#
# Indices 1 2 3 4 5 6 
#
# 1 56.1127 43.1301 45.5171 0.0000 0.0000 0.0000
# 2 43.1301 134.7464 81.9198 0.0000 0.0000 0.0000
# 3 45.5171 81.9198 141.5837 0.0000 0.0000 0.0000
# 4 0.0000 0.0000 0.0000 26.2654 0.0000 0.0000
# 5 0.0000 0.0000 0.0000 0.0000 22.1550 0.0000
# 6 0.0000 0.0000 0.0000 0.0000 0.0000 25.0056
#
#
#
# Elastic Compliance Matrix: (Units=1/GPa)
#
#
# Indices 1 2 3 4 5 6 
#
# 1 0.026143 -0.005026 -0.005496 0.000000 0.000000 0.000000
# 2 -0.005026 0.012415 -0.005567 0.000000 0.000000 0.000000
# 3 -0.005496 -0.005567 0.012051 0.000000 0.000000 0.000000
# 4 0.000000 0.000000 0.000000 0.038073 0.000000 0.000000
# 5 0.000000 0.000000 0.000000 0.000000 0.045137 0.000000
# 6 0.000000 0.000000 0.000000 0.000000 0.000000 0.039991
#
#
# Mechanical properties :
#
#
# Convention : Reuss Voigt Hill
#
# Bulk Modulus (GPa) = 54.26199 74.84185 64.55192
# Shear Modulus (GPa) = 23.57009 25.47692 24.52351
#
# Velocity S-wave (km/s) = 3.78111 3.93108 3.85682
# Velocity P-wave (km/s) = 7.20942 8.12409 7.68038
#
# Compressibility (1/GPa) = 0.01842911
#
# Stress axis : x y z
#
# Youngs Moduli (GPa) = 38.25064 80.54846 82.97951
#
# Poissons Ratio (x) = 0.40488 0.45609
# Poissons Ratio (y) = 0.19227 0.46197
# Poissons Ratio (z) = 0.21024 0.44843
#
# Static dielectric constant tensor:
#      x y z
#    x 2.999470 0.000000 0.000000 
#    y 0.000000 3.083450 0.000000 
#    z 0.000000 0.000000 3.412920 
# 
# 
# High freq. dielectric constant tensor:
#      x y z
#    x 1.631060 0.000000 0.000000 
#    y 0.000000 1.626720 0.000000 
#    z 0.000000 0.000000 1.630420 
# 
# From -- ./inp_files/42962.got.cif
#   From: 2010.03.12/outbox.cif.g09.slc.cpg/sg64_22_cif.got.tgz:42962.got - 2010.04.10 20:19:32.
