data_PCOD8261300
_publ_section_title
;
Structure prediction by ZEFSAII (Michael W. Deem and Ramdas Pophale) SiO2 
 PCOD8261300
Probable space group: C M C M
;
_chemical_formula_sum "Si O2"
_cell_formula_units_Z 80
_cell_length_a 32.024688
_cell_length_b 14.734193
_cell_length_c 9.924454
_cell_angle_alpha 90.000000
_cell_angle_beta 90.000000
_cell_angle_gamma 90.000000
_cell_volume 4682.932358
_symmetry_space_group_name_H-M "C M C M"
_symmetry_group_IT_number 63
_symmetry_cell_setting 'orthorhombic'
loop_
_space_group_symop_operation_xyz
x,y,z
-x,-y,1/2+z
x,-y,-z
-x,y,1/2-z
-x,-y,-z
x,y,1/2-z
-x,y,z
x,-y,1/2+z
1/2+x,1/2+y,z
1/2-x,1/2-y,1/2+z
1/2+x,1/2-y,-z
1/2-x,1/2+y,1/2-z
1/2-x,1/2-y,-z
1/2+x,1/2+y,1/2-z
1/2-x,1/2+y,z
1/2+x,1/2-y,1/2+z
loop_
_atom_site_type_symbol
_atom_site_label
_atom_site_fract_x
_atom_site_fract_y
_atom_site_fract_z
Si Si1 0.770862 0.371272 0.602985
Si Si2 0.863938 0.579874 0.092437
Si Si3 0.294579 0.336762 0.399410
Si Si4 0.952119 0.916453 0.405726
Si Si5 0.117833 0.778126 0.408755
O O1 0.756177 0.405799 0.750000
O O2 0.814518 0.417268 0.564349
O O3 0.735270 0.397747 0.494407
O O4 0.776474 0.263782 0.609498
O O5 0.873724 0.561573 0.250000
O O6 0.884684 0.674207 0.040206
O O7 0.883193 0.500000 0.000000
O O8 0.294883 0.380902 0.250000
O O9 0.341355 0.331825 0.463911
O O10 0.944080 0.943485 0.250000
O O11 0.924218 0.830624 0.449405
O O12 0.000000 0.888100 0.429336
O O13 0.939431 0.000000 0.500000
O O14 0.124868 0.772216 0.250000
#
# Coordination Sequence:
#
# PCOD8261300 Si02
#       5
#    16  16  16  16  16
#     4   8  14  24  37  55  80 109 143 183 220 248
#     4   9  17  29  44  62  87 120 156 190 220 254
#     4   8  13  23  40  58  78 109 145 178 212 252
#     4   9  17  31  52  74  93 114 141 175 218 270
#     4   8  15  29  47  66  90 119 148 180 222 268
#
# _framework density 17.083313
#
# number of rings (size 3 to 8) (size 9 to 14) (size 15 to 20)
#    0.000    3.600    0.000    2.400    0.000    0.800 
#    0.000    6.000    0.000    5.400    0.000    0.000 
#    0.000    0.000    0.000    0.000    0.000    0.000 
#
# Total GULP energy -495678.020038 kJ/mol
# GULP energy per Si atom -12391.950501 kJ/mol
# Density = 1.704443 g / cm^3
# Si number density = 17.083313 Si / 1000 Ang^3
#
#
#
# Elastic Constant Matrix: (Units=GPa)
#
#
# Indices 1 2 3 4 5 6 
#
# 1 82.3483 50.4774 41.9619 0.0000 0.0000 0.0000
# 2 50.4774 82.1084 47.8136 0.0000 0.0000 0.0000
# 3 41.9619 47.8136 69.4311 0.0000 0.0000 0.0000
# 4 0.0000 0.0000 0.0000 22.1329 0.0000 0.0000
# 5 0.0000 0.0000 0.0000 0.0000 17.2871 0.0000
# 6 0.0000 0.0000 0.0000 0.0000 0.0000 19.6697
#
#
#
# Elastic Compliance Matrix: (Units=1/GPa)
#
#
# Indices 1 2 3 4 5 6 
#
# 1 0.021044 -0.009234 -0.006360 0.000000 0.000000 0.000000
# 2 -0.009234 0.024385 -0.011212 0.000000 0.000000 0.000000
# 3 -0.006360 -0.011212 0.025967 0.000000 0.000000 0.000000
# 4 0.000000 0.000000 0.000000 0.045182 0.000000 0.000000
# 5 0.000000 0.000000 0.000000 0.000000 0.057846 0.000000
# 6 0.000000 0.000000 0.000000 0.000000 0.000000 0.050840
#
#
# Mechanical properties :
#
#
# Convention : Reuss Voigt Hill
#
# Bulk Modulus (GPa) = 56.22507 57.15485 56.68996
# Shear Modulus (GPa) = 17.55600 18.06026 17.80813
#
# Velocity S-wave (km/s) = 3.20921 3.25497 3.23217
# Velocity P-wave (km/s) = 6.83489 6.90330 6.86918
#
# Compressibility (1/GPa) = 0.01778566
#
# Stress axis : x y z
#
# Youngs Moduli (GPa) = 47.51868 41.00949 38.51014
#
# Poissons Ratio (x) = 0.37868 0.24491
# Poissons Ratio (y) = 0.43879 0.43176
# Poissons Ratio (z) = 0.30220 0.45978
#
# Static dielectric constant tensor:
#      x y z
#    x 3.102770 0.000000 0.000000 
#    y 0.000000 2.998440 0.000000 
#    z 0.000000 0.000000 3.342310 
# 
# 
# High freq. dielectric constant tensor:
#      x y z
#    x 1.635480 0.000000 0.000000 
#    y 0.000000 1.641650 0.000000 
#    z 0.000000 0.000000 1.643120 
# 
# From -- ./inp_files/25823.got.cif
#   From: 2010.03.12/outbox.cif.g09.slc.cpg/sg63_13_cif.got.tgz:25823.got - 2010.04.10 19:34:48.
