data_PCOD8261305
_publ_section_title
;
Structure prediction by ZEFSAII (Michael W. Deem and Ramdas Pophale) SiO2 
 PCOD8261305
Probable space group: C M C M
;
_chemical_formula_sum "Si O2"
_cell_formula_units_Z 112
_cell_length_a 9.771567
_cell_length_b 23.383552
_cell_length_c 30.192604
_cell_angle_alpha 90.000000
_cell_angle_beta 90.000000
_cell_angle_gamma 90.000000
_cell_volume 6898.827200
_symmetry_space_group_name_H-M "C M C M"
_symmetry_group_IT_number 63
_symmetry_cell_setting 'orthorhombic'
loop_
_space_group_symop_operation_xyz
x,y,z
-x,-y,1/2+z
x,-y,-z
-x,y,1/2-z
-x,-y,-z
x,y,1/2-z
-x,y,z
x,-y,1/2+z
1/2+x,1/2+y,z
1/2-x,1/2-y,1/2+z
1/2+x,1/2-y,-z
1/2-x,1/2+y,1/2-z
1/2-x,1/2-y,-z
1/2+x,1/2+y,1/2-z
1/2-x,1/2+y,z
1/2+x,1/2-y,1/2+z
loop_
_atom_site_type_symbol
_atom_site_label
_atom_site_fract_x
_atom_site_fract_y
_atom_site_fract_z
Si Si1 0.841907 0.455486 0.899004
Si Si2 0.342376 0.877740 0.515812
Si Si3 0.162511 0.580222 0.921429
Si Si4 0.663091 0.267298 0.700835
Si Si5 0.337237 0.805383 0.379449
Si Si6 0.151892 0.872974 0.853795
Si Si7 0.847949 0.794672 0.939542
O O1 0.822599 0.423635 0.945499
O O2 0.781371 0.519407 0.904649
O O3 0.756388 0.425544 0.859750
O O4 0.000000 0.455643 0.884406
O O5 0.500000 0.859067 0.510984
O O6 0.285920 0.906797 0.471081
O O7 0.256950 0.819698 0.524342
O O8 0.214647 0.630062 0.888071
O O9 0.000000 0.577233 0.922354
O O10 0.722684 0.256035 0.750000
O O11 0.500000 0.264015 0.700926
O O12 0.722513 0.219144 0.667010
O O13 0.706516 0.330893 0.684938
O O14 0.500000 0.802852 0.377061
O O15 0.292271 0.766159 0.421300
O O16 0.144172 0.837254 0.898477
O O17 0.000000 0.896664 0.842338
O O18 0.000000 0.788646 0.960536
#
# Coordination Sequence:
#
# PCOD8261305 Si02
#       7
#    16  16  16  16  16  16  16
#     4   9  16  26  40  56  77 107 140 168 191 223
#     4   9  16  25  38  56  76 103 141 175 196 220
#     4   9  16  25  37  53  76 108 141 167 192 226
#     4   8  13  23  42  65  82  96 121 158 196 238
#     4   8  14  24  38  57  79 102 128 160 201 241
#     4   8  14  25  41  60  80  99 121 156 201 237
#     4   8  14  25  39  55  77 102 127 161 204 239
#
# _framework density 16.234643999999999
#
# number of rings (size 3 to 8) (size 9 to 14) (size 15 to 20)
#    0.000    3.571    0.000    2.143    0.000    2.286 
#    0.000    0.714    0.000    5.571    0.000    2.000 
#    0.000    0.000    0.000    0.000    0.000    0.000 
#
# Total GULP energy -693944.120055 kJ/mol
# GULP energy per Si atom -12391.859287 kJ/mol
# Density = 1.619769 g / cm^3
# Si number density = 16.234644 Si / 1000 Ang^3
#
#
#
# Elastic Constant Matrix: (Units=GPa)
#
#
# Indices 1 2 3 4 5 6 
#
# 1 32.4705 24.2809 19.7125 0.0000 0.0000 0.0000
# 2 24.2809 96.8065 40.7193 0.0000 0.0000 0.0000
# 3 19.7125 40.7193 72.3614 0.0000 0.0000 0.0000
# 4 0.0000 0.0000 0.0000 16.3458 0.0000 0.0000
# 5 0.0000 0.0000 0.0000 0.0000 11.5422 0.0000
# 6 0.0000 0.0000 0.0000 0.0000 0.0000 15.2308
#
#
#
# Elastic Compliance Matrix: (Units=1/GPa)
#
#
# Indices 1 2 3 4 5 6 
#
# 1 0.040410 -0.007212 -0.006950 0.000000 0.000000 0.000000
# 2 -0.007212 0.014820 -0.006375 0.000000 0.000000 0.000000
# 3 -0.006950 -0.006375 0.019300 0.000000 0.000000 0.000000
# 4 0.000000 0.000000 0.000000 0.061178 0.000000 0.000000
# 5 0.000000 0.000000 0.000000 0.000000 0.086639 0.000000
# 6 0.000000 0.000000 0.000000 0.000000 0.000000 0.065656
#
#
# Mechanical properties :
#
#
# Convention : Reuss Voigt Hill
#
# Bulk Modulus (GPa) = 29.89003 41.22931 35.55967
# Shear Modulus (GPa) = 14.69600 16.41881 15.55740
#
# Velocity S-wave (km/s) = 3.01196 3.18361 3.09897
# Velocity P-wave (km/s) = 5.52694 6.24218 5.89542
#
# Compressibility (1/GPa) = 0.03345597
#
# Stress axis : x y z
#
# Youngs Moduli (GPa) = 24.74663 67.47492 51.81320
#
# Poissons Ratio (x) = 0.48664 0.36009
# Poissons Ratio (y) = 0.17848 0.33031
# Poissons Ratio (z) = 0.17198 0.43015
#
# Static dielectric constant tensor:
#      x y z
#    x 2.867460 0.000000 0.000000 
#    y 0.000000 3.312360 0.000000 
#    z 0.000000 0.000000 3.099160 
# 
# 
# High freq. dielectric constant tensor:
#      x y z
#    x 1.577150 0.000000 0.000000 
#    y 0.000000 1.624140 0.000000 
#    z 0.000000 0.000000 1.601530 
# 
# From -- ./inp_files/68767.got.cif
#   From: 2010.03.12/outbox.cif.g09.slc.cpg/sg63_35_cif.got.tgz:68767.got - 2010.04.10 19:34:48.
