data_PCOD8261848
_publ_section_title
;
Structure prediction by ZEFSAII (Michael W. Deem and Ramdas Pophale) SiO2 
 PCOD8261848
Probable space group: C M C A
;
_chemical_formula_sum "Si O2"
_cell_formula_units_Z 120
_cell_length_a 18.437773
_cell_length_b 14.779627
_cell_length_c 24.201996
_cell_angle_alpha 90.000000
_cell_angle_beta 90.000000
_cell_angle_gamma 90.000000
_cell_volume 6595.126382
_symmetry_space_group_name_H-M "C M C A"
_symmetry_group_IT_number 64
_symmetry_cell_setting 'orthorhombic'
loop_
_space_group_symop_operation_xyz
x,y,z
-x,1/2-y,1/2+z
x,-y,-z
-x,1/2+y,1/2-z
-x,-y,-z
x,1/2+y,1/2-z
-x,y,z
x,1/2-y,1/2+z
1/2+x,1/2+y,z
1/2-x,-y,1/2+z
1/2+x,1/2-y,-z
1/2-x,y,1/2-z
1/2-x,1/2-y,-z
1/2+x,y,1/2-z
1/2-x,1/2+y,z
1/2+x,-y,1/2+z
loop_
_atom_site_type_symbol
_atom_site_label
_atom_site_fract_x
_atom_site_fract_y
_atom_site_fract_z
Si Si1 0.782961 0.486248 0.378131
Si Si2 0.917830 0.388592 0.337772
Si Si3 0.695762 0.153118 0.160220
Si Si4 0.239570 0.000000 0.500000
Si Si5 0.197638 0.804354 0.368007
Si Si6 0.580823 0.714878 0.412953
Si Si7 0.677827 0.806109 0.011718
Si Si8 0.668516 0.784307 0.249453
O O1 0.864865 0.469474 0.356925
O O2 0.750067 0.569285 0.342842
O O3 0.788029 0.504165 0.444150
O O4 0.728733 0.405119 0.364828
O O5 0.917273 0.311715 0.383848
O O6 0.888997 0.347722 0.280000
O O7 0.000000 0.425316 0.329017
O O8 0.732319 0.240204 0.131558
O O9 0.624059 0.138882 0.122803
O O10 0.673607 0.183241 0.222867
O O11 0.189179 0.912011 0.499791
O O12 0.153343 0.790677 0.424685
O O13 0.146248 0.779538 0.315416
O O14 0.500000 0.677133 0.418586
O O15 0.613206 0.729429 0.473783
O O16 0.750000 0.750000 0.000000
O O17 0.750000 0.827406 0.250000
#
# Coordination Sequence:
#
# PCOD8261848 Si02
#       8
#    16  16  16   8  16  16  16  16
#     4  11  18  33  57  86 112 149 184 230 282 332
#     4  10  20  35  59  85 112 147 185 232 284 333
#     4  10  18  33  54  85 110 142 187 234 272 334
#     4  10  20  28  54  84 116 142 188 228 276 332
#     4  10  19  34  55  84 111 139 198 230 278 324
#     4  10  18  33  55  85 115 145 185 234 288 335
#     4  11  18  33  55  80 116 148 184 236 280 337
#     4   9  17  36  52  83 107 137 194 229 270 330
#
# _framework density 18.195253999999998
#
# number of rings (size 3 to 8) (size 9 to 14) (size 15 to 20)
#    0.000    1.867    6.667    0.800    0.000    0.000 
#    7.200    1.333    0.000    7.200    0.000    0.000 
#    0.000    0.000    0.000    0.000    0.000    0.000 
#
# Total GULP energy -743565.874364 kJ/mol
# GULP energy per Si atom -12392.764573 kJ/mol
# Density = 1.815384 g / cm^3
# Si number density = 18.195254 Si / 1000 Ang^3
#
#
#
# Elastic Constant Matrix: (Units=GPa)
#
#
# Indices 1 2 3 4 5 6 
#
# 1 112.6913 26.2228 67.5387 0.0000 0.0000 0.0000
# 2 26.2228 73.6938 39.2605 0.0000 0.0000 0.0000
# 3 67.5387 39.2605 167.2935 0.0000 0.0000 0.0000
# 4 0.0000 0.0000 0.0000 18.7378 0.0000 0.0000
# 5 0.0000 0.0000 0.0000 0.0000 26.0054 0.0000
# 6 0.0000 0.0000 0.0000 0.0000 0.0000 22.5051
#
#
#
# Elastic Compliance Matrix: (Units=1/GPa)
#
#
# Indices 1 2 3 4 5 6 
#
# 1 0.011939 -0.001921 -0.004369 0.000000 0.000000 0.000000
# 2 -0.001921 0.015818 -0.002937 0.000000 0.000000 0.000000
# 3 -0.004369 -0.002937 0.008431 0.000000 0.000000 0.000000
# 4 0.000000 0.000000 0.000000 0.053368 0.000000 0.000000
# 5 0.000000 0.000000 0.000000 0.000000 0.038454 0.000000
# 6 0.000000 0.000000 0.000000 0.000000 0.000000 0.044434
#
#
# Mechanical properties :
#
#
# Convention : Reuss Voigt Hill
#
# Bulk Modulus (GPa) = 56.38797 68.85807 62.62302
# Shear Modulus (GPa) = 25.40540 28.16010 26.78275
#
# Velocity S-wave (km/s) = 3.74072 3.93830 3.84078
# Velocity P-wave (km/s) = 7.05089 7.65548 7.35940
#
# Compressibility (1/GPa) = 0.01773428
#
# Stress axis : x y z
#
# Youngs Moduli (GPa) = 83.75636 63.22059 118.61452
#
# Poissons Ratio (x) = 0.12143 0.51827
# Poissons Ratio (y) = 0.16087 0.34833
# Poissons Ratio (z) = 0.36596 0.18566
#
# Static dielectric constant tensor:
#      x y z
#    x 3.247630 0.000000 0.000000 
#    y 0.000000 3.585210 0.000000 
#    z 0.000000 0.000000 4.525420 
# 
# 
# High freq. dielectric constant tensor:
#      x y z
#    x 1.665230 0.000000 0.000000 
#    y 0.000000 1.685390 0.000000 
#    z 0.000000 0.000000 1.724930 
# 
# From -- ./inp_files/50892.got.cif
#   From: 2010.03.12/outbox.cif.g09.slc.cpg/sg64_26_cif.got.tgz:50892.got - 2010.04.10 20:19:32.
