data_PCOD8261729
_publ_section_title
;
Structure prediction by ZEFSAII (Michael W. Deem and Ramdas Pophale) SiO2 
 PCOD8261729
Probable space group: C M C A
;
_chemical_formula_sum "Si O2"
_cell_formula_units_Z 112
_cell_length_a 9.050108
_cell_length_b 25.243420
_cell_length_c 29.180465
_cell_angle_alpha 90.000000
_cell_angle_beta 90.000000
_cell_angle_gamma 90.000000
_cell_volume 6666.442895
_symmetry_space_group_name_H-M "C M C A"
_symmetry_group_IT_number 64
_symmetry_cell_setting 'orthorhombic'
loop_
_space_group_symop_operation_xyz
x,y,z
-x,1/2-y,1/2+z
x,-y,-z
-x,1/2+y,1/2-z
-x,-y,-z
x,1/2+y,1/2-z
-x,y,z
x,1/2-y,1/2+z
1/2+x,1/2+y,z
1/2-x,-y,1/2+z
1/2+x,1/2-y,-z
1/2-x,y,1/2-z
1/2-x,1/2-y,-z
1/2+x,y,1/2-z
1/2-x,1/2+y,z
1/2+x,-y,1/2+z
loop_
_atom_site_type_symbol
_atom_site_label
_atom_site_fract_x
_atom_site_fract_y
_atom_site_fract_z
Si Si1 0.674002 0.476342 0.704329
Si Si2 0.824330 0.584631 0.053526
Si Si3 0.323932 0.016006 0.891852
Si Si4 0.828003 0.355083 0.794991
Si Si5 0.324806 0.390392 0.453396
Si Si6 0.173972 0.812007 0.608069
Si Si7 0.675721 0.229821 0.953657
O O1 0.500000 0.481343 0.710607
O O2 0.750000 0.499338 0.750000
O O3 0.730281 0.510205 0.660632
O O4 0.722270 0.415528 0.695861
O O5 0.759579 0.532145 0.077549
O O6 0.771795 0.636113 0.081172
O O7 0.000000 0.582257 0.053784
O O8 0.761961 0.588581 0.001919
O O9 0.500000 0.013033 0.892953
O O10 0.265367 0.071465 0.912806
O O11 0.750000 0.331367 0.750000
O O12 0.786487 0.319177 0.838527
O O13 0.000000 0.353500 0.785430
O O14 0.500000 0.393179 0.455316
O O15 0.273579 0.330482 0.444557
O O16 0.266233 0.762374 0.589787
O O17 0.000000 0.802232 0.600436
O O18 0.500000 0.234833 0.958620
O O19 0.750000 0.250000 0.000000
#
# Coordination Sequence:
#
# PCOD8261729 Si02
#       7
#    16  16  16  16  16  16  16
#     4   9  16  27  45  69  95 121 150 187 234 284
#     4   9  14  24  43  69  97 121 149 188 234 277
#     4   9  15  25  44  70  96 121 152 192 236 277
#     4   9  17  29  47  71  99 125 153 192 239 289
#     4   9  17  27  43  68  95 123 158 196 229 272
#     4  10  18  31  50  72  99 127 156 196 241 285
#     4  11  21  33  49  70  96 128 165 202 238 281
#
# _framework density 16.800564000000001
#
# number of rings (size 3 to 8) (size 9 to 14) (size 15 to 20)
#    0.000    2.571    2.857    0.857    0.000    2.286 
#    0.000    0.000    0.000    2.571    0.000    5.000 
#    0.000    0.000    0.000    0.000    0.000    0.000 
#
# Total GULP energy -694228.346641 kJ/mol
# GULP energy per Si atom -12396.934761 kJ/mol
# Density = 1.676233 g / cm^3
# Si number density = 16.800564 Si / 1000 Ang^3
#
#
#
# Elastic Constant Matrix: (Units=GPa)
#
#
# Indices 1 2 3 4 5 6 
#
# 1 25.6317 27.1041 35.0128 0.0000 0.0000 0.0000
# 2 27.1041 127.3671 82.0678 0.0000 0.0000 0.0000
# 3 35.0128 82.0678 163.3431 0.0000 0.0000 0.0000
# 4 0.0000 0.0000 0.0000 25.8791 0.0000 0.0000
# 5 0.0000 0.0000 0.0000 0.0000 25.6340 0.0000
# 6 0.0000 0.0000 0.0000 0.0000 0.0000 15.8311
#
#
#
# Elastic Compliance Matrix: (Units=1/GPa)
#
#
# Indices 1 2 3 4 5 6 
#
# 1 0.058562 -0.006468 -0.009303 0.000000 0.000000 0.000000
# 2 -0.006468 0.012324 -0.004806 0.000000 0.000000 0.000000
# 3 -0.009303 -0.004806 0.010531 0.000000 0.000000 0.000000
# 4 0.000000 0.000000 0.000000 0.038641 0.000000 0.000000
# 5 0.000000 0.000000 0.000000 0.000000 0.039011 0.000000
# 6 0.000000 0.000000 0.000000 0.000000 0.000000 0.063167
#
#
# Mechanical properties :
#
#
# Convention : Reuss Voigt Hill
#
# Bulk Modulus (GPa) = 24.83641 67.19014 46.01328
# Shear Modulus (GPa) = 18.06298 24.94598 21.50448
#
# Velocity S-wave (km/s) = 3.28249 3.85753 3.58157
# Velocity P-wave (km/s) = 5.40199 7.74082 6.67465
#
# Compressibility (1/GPa) = 0.04026347
#
# Stress axis : x y z
#
# Youngs Moduli (GPa) = 17.07602 81.14193 94.96038
#
# Poissons Ratio (x) = 0.52479 0.88344
# Poissons Ratio (y) = 0.11044 0.45634
# Poissons Ratio (z) = 0.15886 0.38994
#
# Static dielectric constant tensor:
#      x y z
#    x 2.748060 0.000000 0.000000 
#    y 0.000000 3.227910 0.000000 
#    z 0.000000 0.000000 3.362740 
# 
# 
# High freq. dielectric constant tensor:
#      x y z
#    x 1.603110 0.000000 0.000000 
#    y 0.000000 1.631730 0.000000 
#    z 0.000000 0.000000 1.656030 
# 
# From -- ./inp_files/44538.got.cif
#   From: 2010.03.12/outbox.cif.g09.slc.cpg/sg64_23_cif.got.tgz:44538.got - 2010.04.10 20:19:32.
