data_PCOD8261347
_publ_section_title
;
Structure prediction by ZEFSAII (Michael W. Deem and Ramdas Pophale) SiO2 
 PCOD8261347
Probable space group: C M C M
;
_chemical_formula_sum "Si O2"
_cell_formula_units_Z 112
_cell_length_a 27.200517
_cell_length_b 28.456424
_cell_length_c 9.656425
_cell_angle_alpha 90.000000
_cell_angle_beta 90.000000
_cell_angle_gamma 90.000000
_cell_volume 7474.357281
_symmetry_space_group_name_H-M "C M C M"
_symmetry_group_IT_number 63
_symmetry_cell_setting 'orthorhombic'
loop_
_space_group_symop_operation_xyz
x,y,z
-x,-y,1/2+z
x,-y,-z
-x,y,1/2-z
-x,-y,-z
x,y,1/2-z
-x,y,z
x,-y,1/2+z
1/2+x,1/2+y,z
1/2-x,1/2-y,1/2+z
1/2+x,1/2-y,-z
1/2-x,1/2+y,1/2-z
1/2-x,1/2-y,-z
1/2+x,1/2+y,1/2-z
1/2-x,1/2+y,z
1/2+x,1/2-y,1/2+z
loop_
_atom_site_type_symbol
_atom_site_label
_atom_site_fract_x
_atom_site_fract_y
_atom_site_fract_z
Si Si1 0.352386 0.773871 0.089336
Si Si2 0.299744 0.701694 0.907080
Si Si3 0.644395 0.456368 0.090068
Si Si4 0.709265 0.142919 0.911176
Si Si5 0.055114 0.216294 0.410668
Si Si6 0.241211 0.544265 0.911383
Si Si7 0.103208 0.141903 0.905523
O O1 0.343374 0.762306 0.250000
O O2 0.342704 0.829799 0.061722
O O3 0.407567 0.758396 0.045129
O O4 0.311510 0.745960 0.003444
O O5 0.290448 0.719440 0.750000
O O6 0.252699 0.675371 0.972277
O O7 0.343909 0.665269 0.911270
O O8 0.636983 0.469222 0.250000
O O9 0.701514 0.445279 0.060427
O O10 0.610744 0.411974 0.047820
O O11 0.625661 0.500000 0.000000
O O12 0.721256 0.137477 0.750000
O O13 0.710475 0.089629 0.968798
O O14 0.061383 0.204001 0.250000
O O15 0.065659 0.168362 0.493144
O O16 0.000000 0.233826 0.444190
O O17 0.231024 0.533719 0.750000
O O18 0.222656 0.500000 0.000000
O O19 0.081642 0.144529 0.750000
#
# Coordination Sequence:
#
# PCOD8261347 Si02
#       7
#    16  16  16  16  16  16  16
#     4   9  17  27  40  59  79 104 136 162 192 238
#     4   9  15  25  39  56  81 109 131 158 193 228
#     4   9  16  26  40  58  80 105 133 165 197 231
#     4   9  15  25  41  57  80 111 136 159 191 232
#     4   9  18  31  44  59  81 104 128 166 209 241
#     4   9  16  27  40  56  80 111 140 164 192 227
#     4   9  16  27  43  61  79 103 135 164 195 239
#
# _framework density 14.984565
#
# number of rings (size 3 to 8) (size 9 to 14) (size 15 to 20)
#    0.000    3.000    1.429    0.429    0.000    0.857 
#    0.000    1.429    0.000    0.429    0.000    0.000 
#    0.000    0.571    0.000    0.429    0.000    0.857 
#
# Total GULP energy -693991.839092 kJ/mol
# GULP energy per Si atom -12392.711412 kJ/mol
# Density = 1.495046 g / cm^3
# Si number density = 14.984565 Si / 1000 Ang^3
#
#
#
# Elastic Constant Matrix: (Units=GPa)
#
#
# Indices 1 2 3 4 5 6 
#
# 1 61.2032 54.6337 24.9363 0.0000 0.0000 0.0000
# 2 54.6337 117.6052 43.2205 0.0000 0.0000 0.0000
# 3 24.9363 43.2205 41.9620 0.0000 0.0000 0.0000
# 4 0.0000 0.0000 0.0000 21.4193 0.0000 0.0000
# 5 0.0000 0.0000 0.0000 0.0000 12.4181 0.0000
# 6 0.0000 0.0000 0.0000 0.0000 0.0000 14.4511
#
#
#
# Elastic Compliance Matrix: (Units=1/GPa)
#
#
# Indices 1 2 3 4 5 6 
#
# 1 0.028639 -0.011343 -0.005335 0.000000 0.000000 0.000000
# 2 -0.011343 0.018175 -0.011979 0.000000 0.000000 0.000000
# 3 -0.005335 -0.011979 0.039340 0.000000 0.000000 0.000000
# 4 0.000000 0.000000 0.000000 0.046687 0.000000 0.000000
# 5 0.000000 0.000000 0.000000 0.000000 0.080528 0.000000
# 6 0.000000 0.000000 0.000000 0.000000 0.000000 0.069199
#
#
# Mechanical properties :
#
#
# Convention : Reuss Voigt Hill
#
# Bulk Modulus (GPa) = 34.67630 51.81682 43.24656
# Shear Modulus (GPa) = 14.30636 16.18970 15.24803
#
# Velocity S-wave (km/s) = 3.09324 3.29055 3.19342
# Velocity P-wave (km/s) = 5.99576 7.00658 6.52078
#
# Compressibility (1/GPa) = 0.02883814
#
# Stress axis : x y z
#
# Youngs Moduli (GPa) = 34.91802 55.02051 25.41945
#
# Poissons Ratio (x) = 0.62412 0.13561
# Poissons Ratio (y) = 0.39609 0.30450
# Poissons Ratio (z) = 0.18629 0.65910
#
# Static dielectric constant tensor:
#      x y z
#    x 2.707210 0.000000 0.000000 
#    y 0.000000 3.009450 0.000000 
#    z 0.000000 0.000000 2.889040 
# 
# 
# High freq. dielectric constant tensor:
#      x y z
#    x 1.537810 0.000000 0.000000 
#    y 0.000000 1.568610 0.000000 
#    z 0.000000 0.000000 1.563320 
# 
# From -- ./inp_files/24099.got.cif
#   From: 2010.03.12/outbox.cif.g09.slc.cpg/sg63_13_cif.got.tgz:24099.got - 2010.04.10 19:34:48.
