data_PCOD8261973
_publ_section_title
;
Structure prediction by ZEFSAII (Michael W. Deem and Ramdas Pophale) SiO2 
 PCOD8261973
Probable space group: C M C A
;
_chemical_formula_sum "Si O2"
_cell_formula_units_Z 96
_cell_length_a 9.019026
_cell_length_b 22.806285
_cell_length_c 26.113585
_cell_angle_alpha 90.000000
_cell_angle_beta 90.000000
_cell_angle_gamma 90.000000
_cell_volume 5371.315765
_symmetry_space_group_name_H-M "C M C A"
_symmetry_group_IT_number 64
_symmetry_cell_setting 'orthorhombic'
loop_
_space_group_symop_operation_xyz
x,y,z
-x,1/2-y,1/2+z
x,-y,-z
-x,1/2+y,1/2-z
-x,-y,-z
x,1/2+y,1/2-z
-x,y,z
x,1/2-y,1/2+z
1/2+x,1/2+y,z
1/2-x,-y,1/2+z
1/2+x,1/2-y,-z
1/2-x,y,1/2-z
1/2-x,1/2-y,-z
1/2+x,y,1/2-z
1/2-x,1/2+y,z
1/2+x,-y,1/2+z
loop_
_atom_site_type_symbol
_atom_site_label
_atom_site_fract_x
_atom_site_fract_y
_atom_site_fract_z
Si Si1 0.174247 0.485748 0.557450
Si Si2 0.828551 0.825032 0.303084
Si Si3 0.835907 0.893811 0.620078
Si Si4 0.325507 0.078409 0.642591
Si Si5 0.171692 0.188182 0.196754
Si Si6 0.161789 0.511164 0.205202
O O1 0.223164 0.500000 0.500000
O O2 0.250919 0.423838 0.572418
O O3 0.221969 0.542042 0.591810
O O4 0.000000 0.475150 0.563014
O O5 0.750000 0.842578 0.250000
O O6 0.754313 0.858367 0.351927
O O7 0.808021 0.756564 0.313961
O O8 0.000000 0.842491 0.299071
O O9 0.742757 0.842548 0.646990
O O10 0.000000 0.870637 0.603465
O O11 0.858363 0.945879 0.659004
O O12 0.500000 0.087775 0.644636
O O13 0.267051 0.043341 0.691839
O O14 0.250000 0.169909 0.250000
O O15 0.000000 0.169805 0.201383
O O16 0.250000 0.545253 0.250000
O O17 0.000000 0.488931 0.223125
#
# Coordination Sequence:
#
# PCOD8261973 Si02
#       6
#    16  16  16  16  16  16
#     4   9  19  36  56  76  98 126 161 204 256 307
#     4  10  20  33  49  71 101 136 170 202 238 283
#     4  10  20  32  49  73  99 128 162 202 246 293
#     4  10  19  31  49  71  95 125 160 199 243 291
#     4  10  20  33  50  72 101 137 171 203 239 284
#     4  10  19  29  42  64  95 127 157 191 234 284
#
# _framework density 17.872713999999998
#
# number of rings (size 3 to 8) (size 9 to 14) (size 15 to 20)
#    0.000    2.167    0.000    3.500    0.000    6.333 
#    0.000    0.000    0.000    1.000    0.000    0.000 
#    0.000    0.000    0.000    0.000    0.000    0.000 
#
# Total GULP energy -594925.764890 kJ/mol
# GULP energy per Si atom -12394.286769 kJ/mol
# Density = 1.783204 g / cm^3
# Si number density = 17.872714 Si / 1000 Ang^3
#
#
#
# Elastic Constant Matrix: (Units=GPa)
#
#
# Indices 1 2 3 4 5 6 
#
# 1 121.3508 49.6893 52.6409 0.0000 0.0000 0.0000
# 2 49.6893 75.7700 35.3834 0.0000 0.0000 0.0000
# 3 52.6409 35.3834 85.7386 0.0000 0.0000 0.0000
# 4 0.0000 0.0000 0.0000 24.8036 0.0000 0.0000
# 5 0.0000 0.0000 0.0000 0.0000 22.7523 0.0000
# 6 0.0000 0.0000 0.0000 0.0000 0.0000 26.4506
#
#
#
# Elastic Compliance Matrix: (Units=1/GPa)
#
#
# Indices 1 2 3 4 5 6 
#
# 1 0.013115 -0.005996 -0.005578 0.000000 0.000000 0.000000
# 2 -0.005996 0.019090 -0.004197 0.000000 0.000000 0.000000
# 3 -0.005578 -0.004197 0.016820 0.000000 0.000000 0.000000
# 4 0.000000 0.000000 0.000000 0.040317 0.000000 0.000000
# 5 0.000000 0.000000 0.000000 0.000000 0.043952 0.000000
# 6 0.000000 0.000000 0.000000 0.000000 0.000000 0.037806
#
#
# Mechanical properties :
#
#
# Convention : Reuss Voigt Hill
#
# Bulk Modulus (GPa) = 57.19630 62.03185 59.61407
# Shear Modulus (GPa) = 23.98432 24.47770 24.23101
#
# Velocity S-wave (km/s) = 3.66724 3.70477 3.68605
# Velocity P-wave (km/s) = 7.07128 7.28583 7.17936
#
# Compressibility (1/GPa) = 0.01748365
#
# Stress axis : x y z
#
# Youngs Moduli (GPa) = 76.24577 52.38379 59.45316
#
# Poissons Ratio (x) = 0.31410 0.33163
# Poissons Ratio (y) = 0.45719 0.24951
# Poissons Ratio (z) = 0.42529 0.21984
#
# Static dielectric constant tensor:
#      x y z
#    x 3.697450 0.000000 0.000000 
#    y 0.000000 3.312830 0.000000 
#    z 0.000000 0.000000 3.259590 
# 
# 
# High freq. dielectric constant tensor:
#      x y z
#    x 1.711060 0.000000 0.000000 
#    y 0.000000 1.685310 0.000000 
#    z 0.000000 0.000000 1.658330 
# 
# From -- ./inp_files/43051.got.cif
#   From: 2010.03.12/outbox.cif.g09.slc.cpg/sg64_22_cif.got.tgz:43051.got - 2010.04.10 20:19:32.
