data_PCOD8261643
_publ_section_title
;
Structure prediction by ZEFSAII (Michael W. Deem and Ramdas Pophale) SiO2 
 PCOD8261643
Probable space group: C M C A
;
_chemical_formula_sum "Si O2"
_cell_formula_units_Z 88
_cell_length_a 13.713616
_cell_length_b 27.068076
_cell_length_c 12.520757
_cell_angle_alpha 90.000000
_cell_angle_beta 90.000000
_cell_angle_gamma 90.000000
_cell_volume 4647.720025
_symmetry_space_group_name_H-M "C M C A"
_symmetry_group_IT_number 64
_symmetry_cell_setting 'orthorhombic'
loop_
_space_group_symop_operation_xyz
x,y,z
-x,1/2-y,1/2+z
x,-y,-z
-x,1/2+y,1/2-z
-x,-y,-z
x,1/2+y,1/2-z
-x,y,z
x,1/2-y,1/2+z
1/2+x,1/2+y,z
1/2-x,-y,1/2+z
1/2+x,1/2-y,-z
1/2-x,y,1/2-z
1/2-x,1/2-y,-z
1/2+x,y,1/2-z
1/2-x,1/2+y,z
1/2+x,-y,1/2+z
loop_
_atom_site_type_symbol
_atom_site_label
_atom_site_fract_x
_atom_site_fract_y
_atom_site_fract_z
Si Si1 0.750000 0.080919 0.250000
Si Si2 0.114227 0.844773 0.623073
Si Si3 0.218027 0.797252 0.434678
Si Si4 0.608516 0.651741 0.996881
Si Si5 0.111359 0.723485 0.310997
Si Si6 0.388943 0.456758 0.922090
O O1 0.818358 0.112025 0.330133
O O2 0.680611 0.045380 0.319408
O O3 0.142659 0.831511 0.501946
O O4 0.134339 0.795173 0.692223
O O5 0.000000 0.860104 0.630738
O O6 0.250000 0.750000 0.500000
O O7 0.314063 0.830079 0.407533
O O8 0.167909 0.775232 0.328723
O O9 0.500000 0.667325 0.960520
O O10 0.639081 0.678391 0.108459
O O11 0.616472 0.593669 0.011451
O O12 0.000000 0.736876 0.328310
O O13 0.500000 0.466430 0.883650
O O14 0.352356 0.500000 0.000000
#
# Coordination Sequence:
#
# PCOD8261643 Si02
#       6
#     8  16  16  16  16  16
#     4  12  18  34  56  84 106 130 180 226 274 316
#     4  11  20  31  51  78 105 137 177 220 262 304
#     4  10  18  29  46  73 105 138 172 208 257 304
#     4   9  16  29  47  71 101 131 168 212 256 306
#     4   9  17  29  46  72 108 138 167 209 252 303
#     4  10  20  34  56  84 110 137 174 224 282 333
#
# _framework density 18.934014999999999
#
# number of rings (size 3 to 8) (size 9 to 14) (size 15 to 20)
#    0.000    2.000    3.636    2.182    0.000    0.727 
#    0.000    0.000    0.000    7.636    0.000    5.091 
#    0.000    0.000    0.000    0.000    0.000    0.000 
#
# Total GULP energy -545388.502116 kJ/mol
# GULP energy per Si atom -12395.193230 kJ/mol
# Density = 1.889092 g / cm^3
# Si number density = 18.934015 Si / 1000 Ang^3
#
#
#
# Elastic Constant Matrix: (Units=GPa)
#
#
# Indices 1 2 3 4 5 6 
#
# 1 107.4185 52.9170 44.0413 0.0000 0.0000 0.0000
# 2 52.9170 78.4074 35.2352 0.0000 0.0000 0.0000
# 3 44.0413 35.2352 43.2094 0.0000 0.0000 0.0000
# 4 0.0000 0.0000 0.0000 24.5867 0.0000 0.0000
# 5 0.0000 0.0000 0.0000 0.0000 26.0646 0.0000
# 6 0.0000 0.0000 0.0000 0.0000 0.0000 26.5033
#
#
#
# Elastic Compliance Matrix: (Units=1/GPa)
#
#
# Indices 1 2 3 4 5 6 
#
# 1 0.017634 -0.006036 -0.013051 0.000000 0.000000 0.000000
# 2 -0.006036 0.022197 -0.011948 0.000000 0.000000 0.000000
# 3 -0.013051 -0.011948 0.046189 0.000000 0.000000 0.000000
# 4 0.000000 0.000000 0.000000 0.040672 0.000000 0.000000
# 5 0.000000 0.000000 0.000000 0.000000 0.038366 0.000000
# 6 0.000000 0.000000 0.000000 0.000000 0.000000 0.037731
#
#
# Mechanical properties :
#
#
# Convention : Reuss Voigt Hill
#
# Bulk Modulus (GPa) = 41.75619 54.82468 48.29043
# Shear Modulus (GPa) = 18.32550 21.88705 20.10628
#
# Velocity S-wave (km/s) = 3.11442 3.40364 3.26224
# Velocity P-wave (km/s) = 5.91897 6.66820 6.30472
#
# Compressibility (1/GPa) = 0.02394855
#
# Stress axis : x y z
#
# Youngs Moduli (GPa) = 56.70910 45.05113 21.65014
#
# Poissons Ratio (x) = 0.27193 0.28256
# Poissons Ratio (y) = 0.34229 0.25868
# Poissons Ratio (z) = 0.74013 0.53829
#
# Static dielectric constant tensor:
#      x y z
#    x 4.076000 0.000000 0.000000 
#    y 0.000000 3.358900 0.000000 
#    z 0.000000 0.000000 3.265800 
# 
# 
# High freq. dielectric constant tensor:
#      x y z
#    x 1.763940 0.000000 0.000000 
#    y 0.000000 1.702760 0.000000 
#    z 0.000000 0.000000 1.694410 
# 
# From -- ./inp_files/14861.got.cif
#   From: 2010.03.12/outbox.cif.g09.slc.cpg/sg64_8_cif.got.tgz:14861.got - 2010.04.10 20:19:32.
