data_PCOD8261915
_publ_section_title
;
Structure prediction by ZEFSAII (Michael W. Deem and Ramdas Pophale) SiO2 
 PCOD8261915
Probable space group: C M C A
;
_chemical_formula_sum "Si O2"
_cell_formula_units_Z 96
_cell_length_a 15.654224
_cell_length_b 19.526205
_cell_length_c 17.150951
_cell_angle_alpha 90.000000
_cell_angle_beta 90.000000
_cell_angle_gamma 90.000000
_cell_volume 5242.489806
_symmetry_space_group_name_H-M "C M C A"
_symmetry_group_IT_number 64
_symmetry_cell_setting 'orthorhombic'
loop_
_space_group_symop_operation_xyz
x,y,z
-x,1/2-y,1/2+z
x,-y,-z
-x,1/2+y,1/2-z
-x,-y,-z
x,1/2+y,1/2-z
-x,y,z
x,1/2-y,1/2+z
1/2+x,1/2+y,z
1/2-x,-y,1/2+z
1/2+x,1/2-y,-z
1/2-x,y,1/2-z
1/2-x,1/2-y,-z
1/2+x,y,1/2-z
1/2-x,1/2+y,z
1/2+x,-y,1/2+z
loop_
_atom_site_type_symbol
_atom_site_label
_atom_site_fract_x
_atom_site_fract_y
_atom_site_fract_z
Si Si1 0.402129 0.222768 0.818458
Si Si2 0.748390 0.426561 0.494162
Si Si3 0.284919 0.792508 0.569563
Si Si4 0.330918 0.330042 0.702335
Si Si5 0.901547 0.452278 0.887644
Si Si6 0.808594 0.917740 0.323735
O O1 0.500000 0.204964 0.829066
O O2 0.370942 0.258200 0.898520
O O3 0.388064 0.276575 0.749444
O O4 0.354998 0.152037 0.799301
O O5 0.796523 0.500000 0.500000
O O6 0.802502 0.370895 0.542692
O O7 0.654879 0.436746 0.535114
O O8 0.743174 0.403491 0.404000
O O9 0.250000 0.750000 0.500000
O O10 0.209234 0.787518 0.631847
O O11 0.250000 0.360631 0.750000
O O12 0.391034 0.391382 0.674661
O O13 0.874463 0.521489 0.843021
O O14 0.000000 0.457332 0.913821
O O15 0.750000 0.939433 0.250000
#
# Coordination Sequence:
#
# PCOD8261915 Si02
#       6
#    16  16  16  16  16  16
#     4  11  22  35  55  83 113 144 183 239 284 323
#     4   9  20  35  55  82 108 144 185 230 272 333
#     4  10  18  35  57  77 104 147 186 219 271 339
#     4   9  19  35  54  76 106 144 188 223 271 337
#     4  10  20  35  56  84 113 142 182 237 287 328
#     4  11  21  35  56  79 113 150 186 222 279 342
#
# _framework density 18.311910000000001
#
# number of rings (size 3 to 8) (size 9 to 14) (size 15 to 20)
#    0.000    2.000    1.667    3.000    0.000    5.000 
#    0.000    0.833    0.000    0.500    0.000    0.000 
#    0.000    0.000    0.000    0.000    0.000    0.000 
#
# Total GULP energy -594997.306568 kJ/mol
# GULP energy per Si atom -12395.777220 kJ/mol
# Density = 1.827023 g / cm^3
# Si number density = 18.311910 Si / 1000 Ang^3
#
#
#
# Elastic Constant Matrix: (Units=GPa)
#
#
# Indices 1 2 3 4 5 6 
#
# 1 53.0462 11.9244 20.3336 0.0000 0.0000 0.0000
# 2 11.9244 86.0724 28.3035 0.0000 0.0000 0.0000
# 3 20.3336 28.3035 114.0622 0.0000 0.0000 0.0000
# 4 0.0000 0.0000 0.0000 34.4977 0.0000 0.0000
# 5 0.0000 0.0000 0.0000 0.0000 16.3761 0.0000
# 6 0.0000 0.0000 0.0000 0.0000 0.0000 22.9964
#
#
#
# Elastic Compliance Matrix: (Units=1/GPa)
#
#
# Indices 1 2 3 4 5 6 
#
# 1 0.020482 -0.001782 -0.003209 0.000000 0.000000 0.000000
# 2 -0.001782 0.012805 -0.002860 0.000000 0.000000 0.000000
# 3 -0.003209 -0.002860 0.010049 0.000000 0.000000 0.000000
# 4 0.000000 0.000000 0.000000 0.028987 0.000000 0.000000
# 5 0.000000 0.000000 0.000000 0.000000 0.061064 0.000000
# 6 0.000000 0.000000 0.000000 0.000000 0.000000 0.043485
#
#
# Mechanical properties :
#
#
# Convention : Reuss Voigt Hill
#
# Bulk Modulus (GPa) = 36.18718 41.58931 38.88824
# Shear Modulus (GPa) = 24.77857 27.61534 26.19695
#
# Velocity S-wave (km/s) = 3.68250 3.88758 3.78643
# Velocity P-wave (km/s) = 6.15512 6.55072 6.35600
#
# Compressibility (1/GPa) = 0.02763410
#
# Stress axis : x y z
#
# Youngs Moduli (GPa) = 48.82282 78.09168 99.51385
#
# Poissons Ratio (x) = 0.13919 0.31934
# Poissons Ratio (y) = 0.08702 0.28459
# Poissons Ratio (z) = 0.15667 0.22333
#
# Static dielectric constant tensor:
#      x y z
#    x 3.008770 0.000000 0.000000 
#    y 0.000000 3.905960 0.000000 
#    z 0.000000 0.000000 2.429680 
# 
# 
# High freq. dielectric constant tensor:
#      x y z
#    x 1.667270 0.000000 0.000000 
#    y 0.000000 1.732080 0.000000 
#    z 0.000000 0.000000 1.722460 
# 
# From -- ./inp_files/33502.got.cif
#   From: 2010.03.12/outbox.cif.g09.slc.cpg/sg64_17_cif.got.tgz:33502.got - 2010.04.10 20:19:32.
