data_PCOD8261046
_publ_section_title
;
Structure prediction by ZEFSAII (Michael W. Deem and Ramdas Pophale) SiO2 
 PCOD8261046
Probable space group: C M C M
;
_chemical_formula_sum "Si O2"
_cell_formula_units_Z 96
_cell_length_a 14.471310
_cell_length_b 20.205480
_cell_length_c 16.820651
_cell_angle_alpha 90.000000
_cell_angle_beta 90.000000
_cell_angle_gamma 90.000000
_cell_volume 4918.354396
_symmetry_space_group_name_H-M "C M C M"
_symmetry_group_IT_number 63
_symmetry_cell_setting 'orthorhombic'
loop_
_space_group_symop_operation_xyz
x,y,z
-x,-y,1/2+z
x,-y,-z
-x,y,1/2-z
-x,-y,-z
x,y,1/2-z
-x,y,z
x,-y,1/2+z
1/2+x,1/2+y,z
1/2-x,1/2-y,1/2+z
1/2+x,1/2-y,-z
1/2-x,1/2+y,1/2-z
1/2-x,1/2-y,-z
1/2+x,1/2+y,1/2-z
1/2-x,1/2+y,z
1/2+x,1/2-y,1/2+z
loop_
_atom_site_type_symbol
_atom_site_label
_atom_site_fract_x
_atom_site_fract_y
_atom_site_fract_z
Si Si1 0.000000 0.706687 0.655876
Si Si2 0.197183 0.244959 0.156933
Si Si3 0.000000 0.947206 0.655407
Si Si4 0.306887 0.634884 0.593889
Si Si5 0.303133 0.012726 0.657459
Si Si6 0.500000 0.600036 0.843574
Si Si7 0.309227 0.605748 0.090816
Si Si8 0.500000 0.940764 0.344157
O O1 0.091481 0.745085 0.627227
O O2 0.000000 0.702465 0.750000
O O3 0.000000 0.632929 0.618681
O O4 0.208311 0.260120 0.250000
O O5 0.263202 0.293407 0.107944
O O6 0.226220 0.170063 0.137985
O O7 0.911357 0.912125 0.619140
O O8 0.000000 0.938297 0.750000
O O9 0.000000 0.023565 0.629338
O O10 0.250887 0.580913 0.644265
O O11 0.411779 0.637657 0.622654
O O12 0.305850 0.617904 0.501996
O O13 0.296221 0.994701 0.750000
O O14 0.260134 0.953908 0.607229
O O15 0.408811 0.020227 0.628110
O O16 0.500000 0.605115 0.750000
O O17 0.500000 0.933503 0.250000
#
# Coordination Sequence:
#
# PCOD8261046 Si02
#       8
#     8  16   8  16  16   8  16   8
#     4   9  17  33  61  91 110 141 202 262 292 328
#     4  11  22  40  64  88 120 161 207 252 300 365
#     4  11  22  39  65  92 122 160 204 256 310 365
#     4  12  24  40  61  89 125 165 201 250 309 367
#     4  11  21  39  64  89 119 158 205 249 298 366
#     4  11  23  39  63  91 119 162 215 250 294 377
#     4  12  25  39  59  95 130 156 195 257 320 359
#     4   9  18  35  62  91 113 146 203 256 286 334
#
# _framework density 19.518723000000001
#
# number of rings (size 3 to 8) (size 9 to 14) (size 15 to 20)
#    0.000    1.000    3.333    5.000    0.000    1.333 
#    0.000    3.333    0.000    1.000    0.000    0.000 
#    0.000    0.000    0.000    0.000    0.000    0.000 
#
# Total GULP energy -595458.746222 kJ/mol
# GULP energy per Si atom -12405.390546 kJ/mol
# Density = 1.947430 g / cm^3
# Si number density = 19.518723 Si / 1000 Ang^3
#
#
#
# Elastic Constant Matrix: (Units=GPa)
#
#
# Indices 1 2 3 4 5 6 
#
# 1 133.0497 40.1641 15.1118 0.0000 0.0000 0.0000
# 2 40.1641 100.4987 2.3838 0.0000 0.0000 0.0000
# 3 15.1118 2.3838 56.9137 0.0000 0.0000 0.0000
# 4 0.0000 0.0000 0.0000 11.4865 0.0000 0.0000
# 5 0.0000 0.0000 0.0000 0.0000 19.5081 0.0000
# 6 0.0000 0.0000 0.0000 0.0000 0.0000 28.7802
#
#
#
# Elastic Compliance Matrix: (Units=1/GPa)
#
#
# Indices 1 2 3 4 5 6 
#
# 1 0.008813 -0.003470 -0.002195 0.000000 0.000000 0.000000
# 2 -0.003470 0.011327 0.000447 0.000000 0.000000 0.000000
# 3 -0.002195 0.000447 0.018134 0.000000 0.000000 0.000000
# 4 0.000000 0.000000 0.000000 0.087059 0.000000 0.000000
# 5 0.000000 0.000000 0.000000 0.000000 0.051261 0.000000
# 6 0.000000 0.000000 0.000000 0.000000 0.000000 0.034746
#
#
# Mechanical properties :
#
#
# Convention : Reuss Voigt Hill
#
# Bulk Modulus (GPa) = 35.92151 45.08683 40.50417
# Shear Modulus (GPa) = 21.63994 27.47511 24.55752
#
# Velocity S-wave (km/s) = 3.33329 3.75591 3.55089
# Velocity P-wave (km/s) = 5.76698 6.47754 6.13256
#
# Compressibility (1/GPa) = 0.02783848
#
# Stress axis : x y z
#
# Youngs Moduli (GPa) = 113.47211 88.28833 55.14360
#
# Poissons Ratio (x) = 0.30635 0.12102
# Poissons Ratio (y) = 0.39374 -0.02465
# Poissons Ratio (z) = 0.24903 -0.03946
#
# Static dielectric constant tensor:
#      x y z
#    x 3.810330 0.000000 0.000000 
#    y 0.000000 3.650060 0.000000 
#    z 0.000000 0.000000 3.431800 
# 
# 
# High freq. dielectric constant tensor:
#      x y z
#    x 1.768430 0.000000 0.000000 
#    y 0.000000 1.764120 0.000000 
#    z 0.000000 0.000000 1.752500 
# 
# From -- ./inp_files/32019.got.cif
#   From: 2010.03.12/outbox.cif.g09.slc.cpg/sg63_17_cif.got.tgz:32019.got - 2010.04.10 19:34:48.
