data_PCOD8261044
_publ_section_title
;
Structure prediction by ZEFSAII (Michael W. Deem and Ramdas Pophale) SiO2 
 PCOD8261044
Probable space group: C M C M
;
_chemical_formula_sum "Si O2"
_cell_formula_units_Z 112
_cell_length_a 29.186147
_cell_length_b 11.335413
_cell_length_c 17.627388
_cell_angle_alpha 90.000000
_cell_angle_beta 90.000000
_cell_angle_gamma 90.000000
_cell_volume 5831.792695
_symmetry_space_group_name_H-M "C M C M"
_symmetry_group_IT_number 63
_symmetry_cell_setting 'orthorhombic'
loop_
_space_group_symop_operation_xyz
x,y,z
-x,-y,1/2+z
x,-y,-z
-x,y,1/2-z
-x,-y,-z
x,y,1/2-z
-x,y,z
x,-y,1/2+z
1/2+x,1/2+y,z
1/2-x,1/2-y,1/2+z
1/2+x,1/2-y,-z
1/2-x,1/2+y,1/2-z
1/2-x,1/2-y,-z
1/2+x,1/2+y,1/2-z
1/2-x,1/2+y,z
1/2+x,1/2-y,1/2+z
loop_
_atom_site_type_symbol
_atom_site_label
_atom_site_fract_x
_atom_site_fract_y
_atom_site_fract_z
Si Si1 0.373635 0.613196 0.338081
Si Si2 0.703073 0.797371 0.965057
Si Si3 0.948685 0.380126 0.048582
Si Si4 0.193703 0.054680 0.580556
Si Si5 0.147672 0.358821 0.108570
Si Si6 0.447828 0.615517 0.044280
Si Si7 0.720197 0.979053 0.664267
O O1 0.378956 0.588475 0.250000
O O2 0.347470 0.507782 0.377728
O O3 0.344550 0.730571 0.355262
O O4 0.423784 0.622970 0.374214
O O5 0.674446 0.685185 0.935660
O O6 0.715673 0.869728 0.891077
O O7 0.750000 0.750000 0.000000
O O8 0.671398 0.867274 0.025121
O O9 0.906458 0.391280 0.107151
O O10 0.942374 0.249276 0.006687
O O11 0.000000 0.378092 0.086318
O O12 0.945552 0.500000 0.000000
O O13 0.208494 0.000000 0.500000
O O14 0.238149 0.059935 0.634690
O O15 0.172743 0.449135 0.164079
O O16 0.500000 0.585647 0.060575
O O17 0.427060 0.500000 0.000000
O O18 0.730154 0.936118 0.750000
#
# Coordination Sequence:
#
# PCOD8261044 Si02
#       7
#    16  16  16  16  16  16  16
#     4  11  23  37  58  87 118 151 190 242 304 351
#     4  12  22  39  61  80 110 154 203 238 286 348
#     4   9  18  33  58  91 117 144 192 248 294 342
#     4  12  22  39  58  81 110 151 196 239 283 345
#     4  11  21  39  62  84 116 156 194 241 292 355
#     4   9  19  36  59  87 118 154 198 244 294 358
#     4  12  25  38  56  84 117 149 191 245 298 349
#
# _framework density 19.205071
#
# number of rings (size 3 to 8) (size 9 to 14) (size 15 to 20)
#    0.000    1.143    4.286    2.571    2.000    1.429 
#    0.000    0.000    0.000    1.286    0.000    0.000 
#    0.000    6.857    0.000    0.000    0.000    0.000 
#
# Total GULP energy -693814.203837 kJ/mol
# GULP energy per Si atom -12389.539354 kJ/mol
# Density = 1.916136 g / cm^3
# Si number density = 19.205071 Si / 1000 Ang^3
#
#
#
# Elastic Constant Matrix: (Units=GPa)
#
#
# Indices 1 2 3 4 5 6 
#
# 1 85.3905 17.3999 30.8051 0.0000 0.0000 0.0000
# 2 17.3999 112.3903 35.8349 0.0000 0.0000 0.0000
# 3 30.8051 35.8349 121.9009 0.0000 0.0000 0.0000
# 4 0.0000 0.0000 0.0000 25.0276 0.0000 0.0000
# 5 0.0000 0.0000 0.0000 0.0000 15.8008 0.0000
# 6 0.0000 0.0000 0.0000 0.0000 0.0000 28.1823
#
#
#
# Elastic Compliance Matrix: (Units=1/GPa)
#
#
# Indices 1 2 3 4 5 6 
#
# 1 0.013000 -0.001065 -0.002972 0.000000 0.000000 0.000000
# 2 -0.001065 0.009905 -0.002643 0.000000 0.000000 0.000000
# 3 -0.002972 -0.002643 0.009731 0.000000 0.000000 0.000000
# 4 0.000000 0.000000 0.000000 0.039956 0.000000 0.000000
# 5 0.000000 0.000000 0.000000 0.000000 0.063288 0.000000
# 6 0.000000 0.000000 0.000000 0.000000 0.000000 0.035483
#
#
# Mechanical properties :
#
#
# Convention : Reuss Voigt Hill
#
# Bulk Modulus (GPa) = 51.87539 54.19570 53.03555
# Shear Modulus (GPa) = 26.15762 29.51158 27.83460
#
# Velocity S-wave (km/s) = 3.69455 3.92427 3.81114
# Velocity P-wave (km/s) = 6.72827 6.98670 6.85870
#
# Compressibility (1/GPa) = 0.01927696
#
# Stress axis : x y z
#
# Youngs Moduli (GPa) = 76.92227 100.95883 102.76108
#
# Poissons Ratio (x) = 0.10752 0.30542
# Poissons Ratio (y) = 0.08192 0.27156
# Poissons Ratio (z) = 0.22862 0.26680
#
# Static dielectric constant tensor:
#      x y z
#    x 3.709400 0.000000 0.000000 
#    y 0.000000 4.106110 0.000000 
#    z 0.000000 0.000000 3.273060 
# 
# 
# High freq. dielectric constant tensor:
#      x y z
#    x 1.755670 0.000000 0.000000 
#    y 0.000000 1.765990 0.000000 
#    z 0.000000 0.000000 1.708670 
# 
# From -- ./inp_files/38526.got.cif
#   From: 2010.03.12/outbox.cif.g09.slc.cpg/sg63_20_cif.got.tgz:38526.got - 2010.04.10 19:34:48.
