data_PCOD8261942
_publ_section_title
;
Structure prediction by ZEFSAII (Michael W. Deem and Ramdas Pophale) SiO2 
 PCOD8261942
Probable space group: C M C A
;
_chemical_formula_sum "Si O2"
_cell_formula_units_Z 56
_cell_length_a 10.101023
_cell_length_b 18.765771
_cell_length_c 14.368896
_cell_angle_alpha 90.000000
_cell_angle_beta 90.000000
_cell_angle_gamma 90.000000
_cell_volume 2723.674305
_symmetry_space_group_name_H-M "C M C A"
_symmetry_group_IT_number 64
_symmetry_cell_setting 'orthorhombic'
loop_
_space_group_symop_operation_xyz
x,y,z
-x,1/2-y,1/2+z
x,-y,-z
-x,1/2+y,1/2-z
-x,-y,-z
x,1/2+y,1/2-z
-x,y,z
x,1/2-y,1/2+z
1/2+x,1/2+y,z
1/2-x,-y,1/2+z
1/2+x,1/2-y,-z
1/2-x,y,1/2-z
1/2-x,1/2-y,-z
1/2+x,y,1/2-z
1/2-x,1/2+y,z
1/2+x,-y,1/2+z
loop_
_atom_site_type_symbol
_atom_site_label
_atom_site_fract_x
_atom_site_fract_y
_atom_site_fract_z
Si Si1 0.211782 0.910276 0.589860
Si Si2 0.500000 0.869689 0.058087
Si Si3 0.250000 0.797624 0.750000
Si Si4 0.500000 0.261791 0.829192
Si Si5 0.000000 0.572161 0.376799
Si Si6 0.500000 0.504359 0.684422
O O1 0.134151 0.888104 0.497167
O O2 0.215057 0.844392 0.660130
O O3 0.362544 0.936673 0.565202
O O4 0.133090 0.973676 0.638755
O O5 0.500000 0.784828 0.076930
O O6 0.500000 0.911834 0.157171
O O7 0.369818 0.743642 0.729761
O O8 0.500000 0.347232 0.839817
O O9 0.000000 0.513819 0.293686
#
# Coordination Sequence:
#
# PCOD8261942 Si02
#       6
#    16   8   8   8   8   8
#     4  10  18  37  61  90 109 159 197 239 279 359
#     4  11  25  35  58  91 131 144 188 247 319 315
#     4  10  18  36  66  80 118 160 210 224 282 360
#     4  10  20  39  56  93 114 156 191 253 279 355
#     4  10  19  35  69  84 111 158 215 225 282 359
#     4  11  18  39  58  87 115 165 189 241 281 364
#
# _framework density 20.560461
#
# number of rings (size 3 to 8) (size 9 to 14) (size 15 to 20)
#    0.000    1.714    5.714    2.571    0.000    4.571 
#    5.143    4.286    0.000    0.000    0.000    0.000 
#    0.000    0.000    0.000    0.000    0.000    0.000 
#
# Total GULP energy -346885.328209 kJ/mol
# GULP energy per Si atom -12388.761722 kJ/mol
# Density = 2.051366 g / cm^3
# Si number density = 20.560461 Si / 1000 Ang^3
#
#
#
# Elastic Constant Matrix: (Units=GPa)
#
#
# Indices 1 2 3 4 5 6 
#
# 1 200.5420 25.4520 40.3705 0.0000 0.0000 0.0000
# 2 25.4520 46.2370 44.4281 0.0000 0.0000 0.0000
# 3 40.3705 44.4281 82.3832 0.0000 0.0000 0.0000
# 4 0.0000 0.0000 0.0000 -113.1840 0.0000 0.0000
# 5 0.0000 0.0000 0.0000 0.0000 16.3070 0.0000
# 6 0.0000 0.0000 0.0000 0.0000 0.0000 -3.5866
#
#
#
# Elastic Compliance Matrix: (Units=1/GPa)
#
#
# Indices 1 2 3 4 5 6 
#
# 1 0.005551 -0.000917 -0.002226 0.000000 0.000000 0.000000
# 2 -0.000917 0.045040 -0.023840 0.000000 0.000000 0.000000
# 3 -0.002226 -0.023840 0.026086 0.000000 0.000000 0.000000
# 4 0.000000 0.000000 0.000000 -0.008835 0.000000 0.000000
# 5 0.000000 0.000000 0.000000 0.000000 0.061323 0.000000
# 6 0.000000 0.000000 0.000000 0.000000 0.000000 -0.278819
#
#
# Mechanical properties :
#
#
# Convention : Reuss Voigt Hill
#
# Bulk Modulus (GPa) = 44.03141 61.07372 52.55257
# Shear Modulus (GPa) = -56.74170 -5.49861 -31.12016
#
# Velocity S-wave (km/s) = -5.25903 -1.63712 -3.89471
# Velocity P-wave (km/s) = 3.92613 5.11814 2.32174
#
# Compressibility (1/GPa) = 0.02271106
#
# Stress axis : x y z
#
# Youngs Moduli (GPa) = 180.15100 22.20255 38.33537
#
# Poissons Ratio (x) = 0.02036 0.08532
# Poissons Ratio (y) = 0.16522 0.91391
# Poissons Ratio (z) = 0.40093 0.52931
#
# Static dielectric constant tensor:
#      x y z
#    x 4.927670 0.000000 0.000000 
#    y 0.000000 3.422220 0.000000 
#    z 0.000000 0.000000 3.476760 
# 
# 
# High freq. dielectric constant tensor:
#      x y z
#    x 1.838450 0.000000 0.000000 
#    y 0.000000 1.773730 0.000000 
#    z 0.000000 0.000000 1.771190 
# 
# From -- ./inp_files/12780.got.cif
#   From: 2010.03.12/outbox.cif.g09.slc.cpg/sg64_7_cif.got.tgz:12780.got - 2010.04.10 20:19:32.
