data_PCOD8261604
_publ_section_title
;
Structure prediction by ZEFSAII (Michael W. Deem and Ramdas Pophale) SiO2 
 PCOD8261604
Probable space group: C M C A
;
_chemical_formula_sum "Si O2"
_cell_formula_units_Z 96
_cell_length_a 8.761858
_cell_length_b 23.323089
_cell_length_c 26.171320
_cell_angle_alpha 90.000000
_cell_angle_beta 90.000000
_cell_angle_gamma 90.000000
_cell_volume 5348.203300
_symmetry_space_group_name_H-M "C M C A"
_symmetry_group_IT_number 64
_symmetry_cell_setting 'orthorhombic'
loop_
_space_group_symop_operation_xyz
x,y,z
-x,1/2-y,1/2+z
x,-y,-z
-x,1/2+y,1/2-z
-x,-y,-z
x,1/2+y,1/2-z
-x,y,z
x,1/2-y,1/2+z
1/2+x,1/2+y,z
1/2-x,-y,1/2+z
1/2+x,1/2-y,-z
1/2-x,y,1/2-z
1/2-x,1/2-y,-z
1/2+x,y,1/2-z
1/2-x,1/2+y,z
1/2+x,-y,1/2+z
loop_
_atom_site_type_symbol
_atom_site_label
_atom_site_fract_x
_atom_site_fract_y
_atom_site_fract_z
Si Si1 0.320483 0.240459 0.445206
Si Si2 0.666176 0.758556 0.796521
Si Si3 0.666730 0.648577 0.381596
Si Si4 0.818414 0.569974 0.695867
Si Si5 0.678154 0.830167 0.140149
Si Si6 0.816905 0.946241 0.695728
O O1 0.500000 0.240525 0.449283
O O2 0.250000 0.250000 0.500000
O O3 0.272995 0.176964 0.424966
O O4 0.266553 0.293782 0.409488
O O5 0.500000 0.733073 0.781618
O O6 0.750000 0.790742 0.750000
O O7 0.640946 0.803224 0.840279
O O8 0.781738 0.707706 0.810707
O O9 0.500000 0.632965 0.405304
O O10 0.737673 0.593848 0.351867
O O11 0.750000 0.592026 0.750000
O O12 0.770557 0.610694 0.648239
O O13 0.748049 0.508423 0.682845
O O14 0.000000 0.565782 0.700128
O O15 0.500000 0.844041 0.137454
O O16 0.750000 0.924278 0.750000
O O17 0.000000 0.946503 0.699596
#
# Coordination Sequence:
#
# PCOD8261604 Si02
#       6
#    16  16  16  16  16  16
#     4  10  21  36  57  79 101 128 162 207 259 309
#     4  10  18  28  43  67  98 130 161 198 241 291
#     4   9  19  33  50  72 100 132 167 204 247 296
#     4  11  21  33  50  73 103 140 175 210 246 290
#     4  10  20  34  50  71  97 129 166 204 247 298
#     4  10  19  32  50  74 105 141 175 209 244 290
#
# _framework density 17.949954000000002
#
# number of rings (size 3 to 8) (size 9 to 14) (size 15 to 20)
#    0.000    2.000    0.000    5.500    0.000    4.000 
#    0.000    0.000    0.000    1.000    0.000    7.000 
#    0.000    0.000    0.000    0.000    0.000    0.000 
#
# Total GULP energy -594761.494741 kJ/mol
# GULP energy per Si atom -12390.864474 kJ/mol
# Density = 1.790910 g / cm^3
# Si number density = 17.949954 Si / 1000 Ang^3
#
#
#
# Elastic Constant Matrix: (Units=GPa)
#
#
# Indices 1 2 3 4 5 6 
#
# 1 88.6623 36.5071 47.9030 0.0000 0.0000 0.0000
# 2 36.5071 100.2016 46.4054 0.0000 0.0000 0.0000
# 3 47.9030 46.4054 87.7199 0.0000 0.0000 0.0000
# 4 0.0000 0.0000 0.0000 23.8532 0.0000 0.0000
# 5 0.0000 0.0000 0.0000 0.0000 27.5811 0.0000
# 6 0.0000 0.0000 0.0000 0.0000 0.0000 -8.4028
#
#
#
# Elastic Compliance Matrix: (Units=1/GPa)
#
#
# Indices 1 2 3 4 5 6 
#
# 1 0.016432 -0.002425 -0.007691 0.000000 0.000000 0.000000
# 2 -0.002425 0.013576 -0.005858 0.000000 0.000000 0.000000
# 3 -0.007691 -0.005858 0.018699 0.000000 0.000000 0.000000
# 4 0.000000 0.000000 0.000000 0.041923 0.000000 0.000000
# 5 0.000000 0.000000 0.000000 0.000000 0.036257 0.000000
# 6 0.000000 0.000000 0.000000 0.000000 0.000000 -0.119008
#
#
# Mechanical properties :
#
#
# Convention : Reuss Voigt Hill
#
# Bulk Modulus (GPa) = 59.66530 59.80164 59.73347
# Shear Modulus (GPa) = 110.10058 18.32421 64.21239
#
# Velocity S-wave (km/s) = 7.84032 3.19854 5.98754
# Velocity P-wave (km/s) = 10.73652 6.85777 9.00838
#
# Compressibility (1/GPa) = 0.01676016
#
# Stress axis : x y z
#
# Youngs Moduli (GPa) = 60.85503 73.65773 53.48013
#
# Poissons Ratio (x) = 0.17864 0.41130
# Poissons Ratio (y) = 0.14759 0.31327
# Poissons Ratio (z) = 0.46801 0.43146
#
# Static dielectric constant tensor:
#      x y z
#    x 4.290340 0.000000 0.000000 
#    y 0.000000 3.507410 0.000000 
#    z 0.000000 0.000000 3.696990 
# 
# 
# High freq. dielectric constant tensor:
#      x y z
#    x 1.709480 0.000000 0.000000 
#    y 0.000000 1.689340 0.000000 
#    z 0.000000 0.000000 1.664990 
# 
# From -- ./inp_files/43206.got.cif
#   From: 2010.03.12/outbox.cif.g09.slc.cpg/sg64_22_cif.got.tgz:43206.got - 2010.04.10 20:19:32.
