data_PCOD8261929
_publ_section_title
;
Structure prediction by ZEFSAII (Michael W. Deem and Ramdas Pophale) SiO2 
 PCOD8261929
Probable space group: C M C A
;
_chemical_formula_sum "Si O2"
_cell_formula_units_Z 56
_cell_length_a 21.254641
_cell_length_b 16.061734
_cell_length_c 10.142083
_cell_angle_alpha 90.000000
_cell_angle_beta 90.000000
_cell_angle_gamma 90.000000
_cell_volume 3462.369103
_symmetry_space_group_name_H-M "C M C A"
_symmetry_group_IT_number 64
_symmetry_cell_setting 'orthorhombic'
loop_
_space_group_symop_operation_xyz
x,y,z
-x,1/2-y,1/2+z
x,-y,-z
-x,1/2+y,1/2-z
-x,-y,-z
x,1/2+y,1/2-z
-x,y,z
x,1/2-y,1/2+z
1/2+x,1/2+y,z
1/2-x,-y,1/2+z
1/2+x,1/2-y,-z
1/2-x,y,1/2-z
1/2-x,1/2-y,-z
1/2+x,y,1/2-z
1/2-x,1/2+y,z
1/2+x,-y,1/2+z
loop_
_atom_site_type_symbol
_atom_site_label
_atom_site_fract_x
_atom_site_fract_y
_atom_site_fract_z
Si Si1 0.750000 0.145625 0.750000
Si Si2 0.925936 0.735110 0.609057
Si Si3 0.655042 0.408317 0.043912
Si Si4 0.853307 0.234978 0.138844
O O1 0.712684 0.087519 0.647342
O O2 0.795949 0.203989 0.666241
O O3 0.904914 0.637187 0.613607
O O4 0.895041 0.783064 0.732028
O O5 0.898430 0.775526 0.474231
O O6 0.000000 0.744569 0.614793
O O7 0.635397 0.500000 0.000000
O O8 0.674184 0.353076 0.915449
#
# Coordination Sequence:
#
# PCOD8261929 Si02
#       4
#     8  16  16  16
#     4  10  18  36  50  78 104 136 176 212 254 314
#     4   9  18  33  53  76 101 134 175 210 251 308
#     4   9  20  33  50  79 103 137 167 212 265 300
#     4   9  19  31  55  73 103 133 175 211 254 303
#
# _framework density 16.173895999999999
#
# number of rings (size 3 to 8) (size 9 to 14) (size 15 to 20)
#    1.714    1.143    0.000    1.714    0.000    1.714 
#    0.000    0.000    0.000    0.000    0.000    6.000 
#    0.000    0.000    0.000    0.000    0.000    0.000 
#
# Total GULP energy -346866.644699 kJ/mol
# GULP energy per Si atom -12388.094454 kJ/mol
# Density = 1.613708 g / cm^3
# Si number density = 16.173896 Si / 1000 Ang^3
#
#
#
# Elastic Constant Matrix: (Units=GPa)
#
#
# Indices 1 2 3 4 5 6 
#
# 1 81.1579 4.3219 30.3587 0.0000 0.0000 0.0000
# 2 4.3219 57.2063 20.5848 0.0000 0.0000 0.0000
# 3 30.3587 20.5848 107.9872 0.0000 0.0000 0.0000
# 4 0.0000 0.0000 0.0000 13.7248 0.0000 0.0000
# 5 0.0000 0.0000 0.0000 0.0000 28.7456 0.0000
# 6 0.0000 0.0000 0.0000 0.0000 0.0000 10.6098
#
#
#
# Elastic Compliance Matrix: (Units=1/GPa)
#
#
# Indices 1 2 3 4 5 6 
#
# 1 0.013777 0.000379 -0.003945 0.000000 0.000000 0.000000
# 2 0.000379 0.018778 -0.003686 0.000000 0.000000 0.000000
# 3 -0.003945 -0.003686 0.011072 0.000000 0.000000 0.000000
# 4 0.000000 0.000000 0.000000 0.072861 0.000000 0.000000
# 5 0.000000 0.000000 0.000000 0.000000 0.034788 0.000000
# 6 0.000000 0.000000 0.000000 0.000000 0.000000 0.094253
#
#
# Mechanical properties :
#
#
# Convention : Reuss Voigt Hill
#
# Bulk Modulus (GPa) = 34.33771 39.65357 36.99564
# Shear Modulus (GPa) = 18.53621 23.35511 20.94566
#
# Velocity S-wave (km/s) = 3.38902 3.80412 3.60255
# Velocity P-wave (km/s) = 6.04900 6.62309 6.34254
#
# Compressibility (1/GPa) = 0.02912250
#
# Stress axis : x y z
#
# Youngs Moduli (GPa) = 72.58277 53.25282 90.31626
#
# Poissons Ratio (x) = -0.02017 0.35634
# Poissons Ratio (y) = -0.02750 0.33291
# Poissons Ratio (z) = 0.28637 0.19629
#
# Static dielectric constant tensor:
#      x y z
#    x 2.945100 0.000000 0.000000 
#    y 0.000000 2.593010 0.000000 
#    z 0.000000 0.000000 3.216200 
# 
# 
# High freq. dielectric constant tensor:
#      x y z
#    x 1.620350 0.000000 0.000000 
#    y 0.000000 1.576810 0.000000 
#    z 0.000000 0.000000 1.637460 
# 
# From -- ./inp_files/17851.got.cif
#   From: 2010.03.12/outbox.cif.g09.slc.cpg/sg64_9_cif.got.tgz:17851.got - 2010.04.10 20:19:32.
