data_PCOD8261814
_publ_section_title
;
Structure prediction by ZEFSAII (Michael W. Deem and Ramdas Pophale) SiO2 
 PCOD8261814
Probable space group: C M C A
;
_chemical_formula_sum "Si O2"
_cell_formula_units_Z 64
_cell_length_a 20.644463
_cell_length_b 19.097994
_cell_length_c 7.801497
_cell_angle_alpha 90.000000
_cell_angle_beta 90.000000
_cell_angle_gamma 90.000000
_cell_volume 3075.879297
_symmetry_space_group_name_H-M "C M C A"
_symmetry_group_IT_number 64
_symmetry_cell_setting 'orthorhombic'
loop_
_space_group_symop_operation_xyz
x,y,z
-x,1/2-y,1/2+z
x,-y,-z
-x,1/2+y,1/2-z
-x,-y,-z
x,1/2+y,1/2-z
-x,y,z
x,1/2-y,1/2+z
1/2+x,1/2+y,z
1/2-x,-y,1/2+z
1/2+x,1/2-y,-z
1/2-x,y,1/2-z
1/2-x,1/2-y,-z
1/2+x,y,1/2-z
1/2-x,1/2+y,z
1/2+x,-y,1/2+z
loop_
_atom_site_type_symbol
_atom_site_label
_atom_site_fract_x
_atom_site_fract_y
_atom_site_fract_z
Si Si1 0.113989 0.784277 0.410042
Si Si2 0.428747 0.355128 0.738133
Si Si3 0.191845 0.435083 0.620467
Si Si4 0.803759 0.308823 0.382029
O O1 0.076938 0.712670 0.360477
O O2 0.073611 0.833205 0.537525
O O3 0.132596 0.826675 0.236924
O O4 0.180406 0.760539 0.507619
O O5 0.500000 0.388285 0.769219
O O6 0.373187 0.411973 0.779131
O O7 0.174521 0.500000 0.500000
O O8 0.250000 0.454468 0.750000
O O9 0.217099 0.373614 0.497788
O O10 0.750000 0.285420 0.250000
#
# Coordination Sequence:
#
# PCOD8261814 Si02
#       4
#    16  16  16  16
#     4   9  19  32  54  87 119 150 182 228 289 345
#     4  10  20  36  59  87 119 153 189 231 283 343
#     4  11  24  40  59  80 110 153 198 243 287 334
#     4  10  18  32  54  82 115 148 188 234 284 342
#
# _framework density 20.807058000000001
#
# number of rings (size 3 to 8) (size 9 to 14) (size 15 to 20)
#    0.000    2.000    0.000    3.750    0.000    7.500 
#    0.000    1.250    0.000    5.250    0.000    0.000 
#    0.000    0.000    0.000    0.000    0.000    0.000 
#
# Total GULP energy -396605.656164 kJ/mol
# GULP energy per Si atom -12393.926755 kJ/mol
# Density = 2.075970 g / cm^3
# Si number density = 20.807058 Si / 1000 Ang^3
#
#
#
# Elastic Constant Matrix: (Units=GPa)
#
#
# Indices 1 2 3 4 5 6 
#
# 1 101.1962 28.2128 29.6082 0.0000 0.0000 0.0000
# 2 28.2128 64.4599 29.3972 0.0000 0.0000 0.0000
# 3 29.6082 29.3972 112.5830 0.0000 0.0000 0.0000
# 4 0.0000 0.0000 0.0000 35.1084 0.0000 0.0000
# 5 0.0000 0.0000 0.0000 0.0000 16.6737 0.0000
# 6 0.0000 0.0000 0.0000 0.0000 0.0000 13.2444
#
#
#
# Elastic Compliance Matrix: (Units=1/GPa)
#
#
# Indices 1 2 3 4 5 6 
#
# 1 0.011625 -0.004193 -0.001962 0.000000 0.000000 0.000000
# 2 -0.004193 0.019123 -0.003891 0.000000 0.000000 0.000000
# 3 -0.001962 -0.003891 0.010414 0.000000 0.000000 0.000000
# 4 0.000000 0.000000 0.000000 0.028483 0.000000 0.000000
# 5 0.000000 0.000000 0.000000 0.000000 0.059975 0.000000
# 6 0.000000 0.000000 0.000000 0.000000 0.000000 0.075503
#
#
# Mechanical properties :
#
#
# Convention : Reuss Voigt Hill
#
# Bulk Modulus (GPa) = 47.46024 50.29726 48.87875
# Shear Modulus (GPa) = 21.52954 25.74003 23.63478
#
# Velocity S-wave (km/s) = 3.22020 3.52103 3.37397
# Velocity P-wave (km/s) = 6.05685 6.38403 6.22259
#
# Compressibility (1/GPa) = 0.02107027
#
# Stress axis : x y z
#
# Youngs Moduli (GPa) = 86.02194 52.29293 96.02163
#
# Poissons Ratio (x) = 0.21927 0.18843
# Poissons Ratio (y) = 0.36069 0.37358
# Poissons Ratio (z) = 0.16881 0.20345
#
# Static dielectric constant tensor:
#      x y z
#    x 3.712730 0.000000 0.000000 
#    y 0.000000 3.301560 0.000000 
#    z 0.000000 0.000000 4.333630 
# 
# 
# High freq. dielectric constant tensor:
#      x y z
#    x 1.810550 0.000000 0.000000 
#    y 0.000000 1.762920 0.000000 
#    z 0.000000 0.000000 1.844230 
# 
# From -- ./inp_files/7772.got.cif
#   From: 2010.03.12/outbox.cif.g09.slc.cpg/sg64_4_cif.got.tgz:7772.got - 2010.04.10 20:19:32.
