data_PCOD8261419
_publ_section_title
;
Structure prediction by ZEFSAII (Michael W. Deem and Ramdas Pophale) SiO2 
 PCOD8261419
Probable space group: C M C A
;
_chemical_formula_sum "Si O2"
_cell_formula_units_Z 88
_cell_length_a 9.321036
_cell_length_b 20.014575
_cell_length_c 24.891620
_cell_angle_alpha 90.000000
_cell_angle_beta 90.000000
_cell_angle_gamma 90.000000
_cell_volume 4643.695351
_symmetry_space_group_name_H-M "C M C A"
_symmetry_group_IT_number 64
_symmetry_cell_setting 'orthorhombic'
loop_
_space_group_symop_operation_xyz
x,y,z
-x,1/2-y,1/2+z
x,-y,-z
-x,1/2+y,1/2-z
-x,-y,-z
x,1/2+y,1/2-z
-x,y,z
x,1/2-y,1/2+z
1/2+x,1/2+y,z
1/2-x,-y,1/2+z
1/2+x,1/2-y,-z
1/2-x,y,1/2-z
1/2-x,1/2-y,-z
1/2+x,y,1/2-z
1/2-x,1/2+y,z
1/2+x,-y,1/2+z
loop_
_atom_site_type_symbol
_atom_site_label
_atom_site_fract_x
_atom_site_fract_y
_atom_site_fract_z
Si Si1 0.339686 0.025881 0.614782
Si Si2 0.672911 0.085769 0.305591
Si Si3 0.341194 0.145804 0.010231
Si Si4 0.332889 0.831678 0.408874
Si Si5 0.832976 0.311300 0.872581
Si Si6 0.243712 0.500000 0.000000
O O1 0.500000 0.031326 0.636191
O O2 0.269369 0.100434 0.618605
O O3 0.341040 0.000849 0.553293
O O4 0.266830 0.971872 0.654116
O O5 0.500000 0.089031 0.300238
O O6 0.750000 0.069847 0.250000
O O7 0.731612 0.156469 0.327527
O O8 0.500000 0.176480 0.004113
O O9 0.282368 0.161877 0.069445
O O10 0.240447 0.181096 0.966472
O O11 0.352960 0.066115 0.001569
O O12 0.500000 0.842463 0.421536
O O13 0.307511 0.768682 0.370089
O O14 0.000000 0.328784 0.861644
#
# Coordination Sequence:
#
# PCOD8261419 Si02
#       6
#    16  16  16  16  16   8
#     4   9  18  33  55  82 110 142 183 227 275 331
#     4  11  23  40  60  82 106 141 186 233 277 327
#     4  10  19  29  47  79 117 151 182 220 273 328
#     4   9  19  34  54  79 112 148 182 222 272 330
#     4  10  20  36  55  79 111 148 185 227 274 323
#     4  10  16  30  50  80 115 146 185 222 281 332
#
# _framework density 18.950426
#
# number of rings (size 3 to 8) (size 9 to 14) (size 15 to 20)
#    0.000    2.182    1.818    1.636    0.000    2.182 
#    0.000    1.818    0.000    2.182    0.000    0.000 
#    0.000    0.000    0.000    0.000    0.000    0.000 
#
# Total GULP energy -545358.487212 kJ/mol
# GULP energy per Si atom -12394.511073 kJ/mol
# Density = 1.890729 g / cm^3
# Si number density = 18.950426 Si / 1000 Ang^3
#
#
#
# Elastic Constant Matrix: (Units=GPa)
#
#
# Indices 1 2 3 4 5 6 
#
# 1 61.9372 28.6996 34.1058 0.0000 0.0000 0.0000
# 2 28.6996 105.8957 58.0832 0.0000 0.0000 0.0000
# 3 34.1058 58.0832 110.9419 0.0000 0.0000 0.0000
# 4 0.0000 0.0000 0.0000 25.8982 0.0000 0.0000
# 5 0.0000 0.0000 0.0000 0.0000 29.4771 0.0000
# 6 0.0000 0.0000 0.0000 0.0000 0.0000 22.5051
#
#
#
# Elastic Compliance Matrix: (Units=1/GPa)
#
#
# Indices 1 2 3 4 5 6 
#
# 1 0.020042 -0.002879 -0.004654 0.000000 0.000000 0.000000
# 2 -0.002879 0.013661 -0.006267 0.000000 0.000000 0.000000
# 3 -0.004654 -0.006267 0.013726 0.000000 0.000000 0.000000
# 4 0.000000 0.000000 0.000000 0.038613 0.000000 0.000000
# 5 0.000000 0.000000 0.000000 0.000000 0.033925 0.000000
# 6 0.000000 0.000000 0.000000 0.000000 0.000000 0.044434
#
#
# Mechanical properties :
#
#
# Convention : Reuss Voigt Hill
#
# Bulk Modulus (GPa) = 50.43277 57.83913 54.13595
# Shear Modulus (GPa) = 25.17491 26.10182 25.63837
#
# Velocity S-wave (km/s) = 3.64876 3.71533 3.68219
# Velocity P-wave (km/s) = 6.66499 6.99946 6.83427
#
# Compressibility (1/GPa) = 0.01982838
#
# Stress axis : x y z
#
# Youngs Moduli (GPa) = 49.89469 73.20117 72.85664
#
# Poissons Ratio (x) = 0.21075 0.33908
# Poissons Ratio (y) = 0.14365 0.45660
# Poissons Ratio (z) = 0.23221 0.45876
#
# Static dielectric constant tensor:
#      x y z
#    x 3.210320 0.000000 0.000000 
#    y 0.000000 3.771220 0.000000 
#    z 0.000000 0.000000 3.256940 
# 
# 
# High freq. dielectric constant tensor:
#      x y z
#    x 1.717320 0.000000 0.000000 
#    y 0.000000 1.752120 0.000000 
#    z 0.000000 0.000000 1.709110 
# 
# From -- ./inp_files/42823.got.cif
#   From: 2010.03.12/outbox.cif.g09.slc.cpg/sg64_22_cif.got.tgz:42823.got - 2010.04.10 20:19:32.
