data_PCOD8261927
_publ_section_title
;
Structure prediction by ZEFSAII (Michael W. Deem and Ramdas Pophale) SiO2 
 PCOD8261927
Probable space group: C M C A
;
_chemical_formula_sum "Si O2"
_cell_formula_units_Z 104
_cell_length_a 17.075251
_cell_length_b 25.114974
_cell_length_c 12.825384
_cell_angle_alpha 90.000000
_cell_angle_beta 90.000000
_cell_angle_gamma 90.000000
_cell_volume 5500.095195
_symmetry_space_group_name_H-M "C M C A"
_symmetry_group_IT_number 64
_symmetry_cell_setting 'orthorhombic'
loop_
_space_group_symop_operation_xyz
x,y,z
-x,1/2-y,1/2+z
x,-y,-z
-x,1/2+y,1/2-z
-x,-y,-z
x,1/2+y,1/2-z
-x,y,z
x,1/2-y,1/2+z
1/2+x,1/2+y,z
1/2-x,-y,1/2+z
1/2+x,1/2-y,-z
1/2-x,y,1/2-z
1/2-x,1/2-y,-z
1/2+x,y,1/2-z
1/2-x,1/2+y,z
1/2+x,-y,1/2+z
loop_
_atom_site_type_symbol
_atom_site_label
_atom_site_fract_x
_atom_site_fract_y
_atom_site_fract_z
Si Si1 0.411802 0.408389 0.911157
Si Si2 0.775459 0.086214 0.630447
Si Si3 0.316333 0.177381 0.520128
Si Si4 0.410933 0.063061 0.002241
Si Si5 0.706723 0.726888 0.350533
Si Si6 0.162324 0.115462 0.296945
Si Si7 0.190202 0.000000 0.000000
O O1 0.500000 0.422348 0.937765
O O2 0.402406 0.397040 0.789120
O O3 0.389328 0.357392 0.981637
O O4 0.361941 0.460149 0.934174
O O5 0.750000 0.086142 0.750000
O O6 0.744557 0.139883 0.579012
O O7 0.869044 0.084336 0.604664
O O8 0.742704 0.032311 0.580511
O O9 0.342970 0.225434 0.596542
O O10 0.275622 0.203899 0.421830
O O11 0.500000 0.086129 0.008450
O O12 0.356330 0.080888 0.100217
O O13 0.415172 0.000000 0.000000
O O14 0.750000 0.751079 0.250000
O O15 0.650285 0.677744 0.323529
O O16 0.250000 0.104556 0.250000
#
# Coordination Sequence:
#
# PCOD8261927 Si02
#       7
#    16  16  16  16  16  16   8
#     4  11  22  38  58  88 122 157 196 247 306 359
#     4  11  22  38  61  87 116 159 208 244 295 371
#     4  10  20  37  60  85 116 151 200 251 295 352
#     4  11  24  39  56  89 129 157 193 258 315 355
#     4  10  18  35  65  88 111 146 204 252 290 345
#     4  11  20  39  64  90 115 159 209 245 291 369
#     4  10  23  38  59  88 118 160 202 250 289 358
#
# _framework density 18.908764000000001
#
# number of rings (size 3 to 8) (size 9 to 14) (size 15 to 20)
#    0.000    1.385    5.385    2.077    2.154    0.000 
#    0.000    4.615    0.000    0.000    0.000    0.000 
#    0.000    0.000    0.000    0.000    0.000    0.000 
#
# Total GULP energy -644550.981389 kJ/mol
# GULP energy per Si atom -12395.211181 kJ/mol
# Density = 1.886573 g / cm^3
# Si number density = 18.908764 Si / 1000 Ang^3
#
#
#
# Elastic Constant Matrix: (Units=GPa)
#
#
# Indices 1 2 3 4 5 6 
#
# 1 100.5986 26.0689 37.5206 0.0000 0.0000 0.0000
# 2 26.0689 98.2377 38.3905 0.0000 0.0000 0.0000
# 3 37.5206 38.3905 121.4386 0.0000 0.0000 0.0000
# 4 0.0000 0.0000 0.0000 22.7676 0.0000 0.0000
# 5 0.0000 0.0000 0.0000 0.0000 24.4667 0.0000
# 6 0.0000 0.0000 0.0000 0.0000 0.0000 79.5152
#
#
#
# Elastic Compliance Matrix: (Units=1/GPa)
#
#
# Indices 1 2 3 4 5 6 
#
# 1 0.011539 -0.001904 -0.002963 0.000000 0.000000 0.000000
# 2 -0.001904 0.011928 -0.003183 0.000000 0.000000 0.000000
# 3 -0.002963 -0.003183 0.010156 0.000000 0.000000 0.000000
# 4 0.000000 0.000000 0.000000 0.043922 0.000000 0.000000
# 5 0.000000 0.000000 0.000000 0.000000 0.040872 0.000000
# 6 0.000000 0.000000 0.000000 0.000000 0.000000 0.012576
#
#
# Mechanical properties :
#
#
# Convention : Reuss Voigt Hill
#
# Bulk Modulus (GPa) = 57.06504 58.24833 57.65669
# Shear Modulus (GPa) = 32.69356 39.90290 36.29823
#
# Velocity S-wave (km/s) = 4.16266 4.59877 4.38614
# Velocity P-wave (km/s) = 7.30399 7.68570 7.49728
#
# Compressibility (1/GPa) = 0.01752386
#
# Stress axis : x y z
#
# Youngs Moduli (GPa) = 86.66162 83.83341 98.46095
#
# Poissons Ratio (x) = 0.15962 0.29177
# Poissons Ratio (y) = 0.16501 0.31337
# Poissons Ratio (z) = 0.25680 0.26681
#
# Static dielectric constant tensor:
#      x y z
#    x 3.385840 0.000000 0.000000 
#    y 0.000000 7.098120 0.000000 
#    z 0.000000 0.000000 3.758270 
# 
# 
# High freq. dielectric constant tensor:
#      x y z
#    x 1.705860 0.000000 0.000000 
#    y 0.000000 1.746760 0.000000 
#    z 0.000000 0.000000 1.744450 
# 
# From -- ./inp_files/16396.got.cif
#   From: 2010.03.12/outbox.cif.g09.slc.cpg/sg64_9_cif.got.tgz:16396.got - 2010.04.10 20:19:32.
