data_PCOD8261954
_publ_section_title
;
Structure prediction by ZEFSAII (Michael W. Deem and Ramdas Pophale) SiO2 
 PCOD8261954
Probable space group: C M C A
;
_chemical_formula_sum "Si O2"
_cell_formula_units_Z 96
_cell_length_a 23.054217
_cell_length_b 26.785858
_cell_length_c 8.237476
_cell_angle_alpha 90.000000
_cell_angle_beta 90.000000
_cell_angle_gamma 90.000000
_cell_volume 5086.863701
_symmetry_space_group_name_H-M "C M C A"
_symmetry_group_IT_number 64
_symmetry_cell_setting 'orthorhombic'
loop_
_space_group_symop_operation_xyz
x,y,z
-x,1/2-y,1/2+z
x,-y,-z
-x,1/2+y,1/2-z
-x,-y,-z
x,1/2+y,1/2-z
-x,y,z
x,1/2-y,1/2+z
1/2+x,1/2+y,z
1/2-x,-y,1/2+z
1/2+x,1/2-y,-z
1/2-x,y,1/2-z
1/2-x,1/2-y,-z
1/2+x,y,1/2-z
1/2-x,1/2+y,z
1/2+x,-y,1/2+z
loop_
_atom_site_type_symbol
_atom_site_label
_atom_site_fract_x
_atom_site_fract_y
_atom_site_fract_z
Si Si1 0.652430 0.705760 0.428140
Si Si2 0.816712 0.194369 0.781171
Si Si3 0.567223 0.635045 0.247504
Si Si4 0.660856 0.892749 0.510703
Si Si5 0.750000 0.350589 0.750000
Si Si6 0.933611 0.474601 0.838886
Si Si7 0.125441 0.500000 0.500000
O O1 0.654350 0.765338 0.401878
O O2 0.645733 0.695528 0.617818
O O3 0.597849 0.681341 0.336875
O O4 0.714049 0.684135 0.371055
O O5 0.750000 0.208101 0.750000
O O6 0.822093 0.139243 0.854384
O O7 0.500000 0.648379 0.217339
O O8 0.597303 0.624574 0.073330
O O9 0.574300 0.585109 0.356254
O O10 0.706969 0.886007 0.653411
O O11 0.663974 0.951044 0.466944
O O12 0.910268 0.493405 0.665910
O O13 0.000000 0.490732 0.836330
O O14 0.904269 0.500000 0.000000
#
# Coordination Sequence:
#
# PCOD8261954 Si02
#       7
#    16  16  16  16   8  16   8
#     4  11  21  35  62  86 116 150 197 247 294 352
#     4  12  22  38  60  91 113 153 206 245 293 356
#     4   9  20  39  59  86 122 157 194 243 299 354
#     4  10  22  38  60  86 119 158 202 242 304 350
#     4  10  18  38  56  82 112 152 192 250 294 352
#     4   9  18  34  60  86 114 159 206 247 288 345
#     4  10  21  38  56  86 126 156 197 250 302 358
#
# _framework density 18.872138
#
# number of rings (size 3 to 8) (size 9 to 14) (size 15 to 20)
#    0.000    1.833    2.500    2.750    2.333    0.667 
#    1.500    4.167    3.667    0.000    0.000    0.000 
#    0.000    0.000    0.000    0.000    0.000    0.000 
#
# Total GULP energy -595147.773559 kJ/mol
# GULP energy per Si atom -12398.911949 kJ/mol
# Density = 1.882918 g / cm^3
# Si number density = 18.872138 Si / 1000 Ang^3
#
#
#
# Elastic Constant Matrix: (Units=GPa)
#
#
# Indices 1 2 3 4 5 6 
#
# 1 82.1087 34.4229 19.3744 0.0000 0.0000 0.0000
# 2 34.4229 137.2529 47.9062 0.0000 0.0000 0.0000
# 3 19.3744 47.9062 114.4077 0.0000 0.0000 0.0000
# 4 0.0000 0.0000 0.0000 26.2380 0.0000 0.0000
# 5 0.0000 0.0000 0.0000 0.0000 13.0628 0.0000
# 6 0.0000 0.0000 0.0000 0.0000 0.0000 24.3604
#
#
#
# Elastic Compliance Matrix: (Units=1/GPa)
#
#
# Indices 1 2 3 4 5 6 
#
# 1 0.013713 -0.003079 -0.001033 0.000000 0.000000 0.000000
# 2 -0.003079 0.009224 -0.003341 0.000000 0.000000 0.000000
# 3 -0.001033 -0.003341 0.010315 0.000000 0.000000 0.000000
# 4 0.000000 0.000000 0.000000 0.038113 0.000000 0.000000
# 5 0.000000 0.000000 0.000000 0.000000 0.076553 0.000000
# 6 0.000000 0.000000 0.000000 0.000000 0.000000 0.041050
#
#
# Mechanical properties :
#
#
# Convention : Reuss Voigt Hill
#
# Bulk Modulus (GPa) = 54.50674 59.68625 57.09650
# Shear Modulus (GPa) = 23.81071 28.20329 26.00700
#
# Velocity S-wave (km/s) = 3.55587 3.86999 3.71625
# Velocity P-wave (km/s) = 6.76785 7.18780 6.98098
#
# Compressibility (1/GPa) = 0.01834635
#
# Stress axis : x y z
#
# Youngs Moduli (GPa) = 72.92099 108.41148 96.94956
#
# Poissons Ratio (x) = 0.33377 0.10016
# Poissons Ratio (y) = 0.22450 0.32392
# Poissons Ratio (z) = 0.07534 0.36221
#
# Static dielectric constant tensor:
#      x y z
#    x 3.352420 0.000000 0.000000 
#    y 0.000000 3.509290 0.000000 
#    z 0.000000 0.000000 3.520260 
# 
# 
# High freq. dielectric constant tensor:
#      x y z
#    x 1.713980 0.000000 0.000000 
#    y 0.000000 1.738090 0.000000 
#    z 0.000000 0.000000 1.736280 
# 
# From -- ./inp_files/9532.got.cif
#   From: 2010.03.12/outbox.cif.g09.slc.cpg/sg64_5_cif.got.tgz:9532.got - 2010.04.10 20:19:32.
