data_PCOD8261281
_publ_section_title
;
Structure prediction by ZEFSAII (Michael W. Deem and Ramdas Pophale) SiO2 
 PCOD8261281
Probable space group: C M C M
;
_chemical_formula_sum "Si O2"
_cell_formula_units_Z 80
_cell_length_a 9.720993
_cell_length_b 23.253008
_cell_length_c 21.470301
_cell_angle_alpha 90.000000
_cell_angle_beta 90.000000
_cell_angle_gamma 90.000000
_cell_volume 4853.196821
_symmetry_space_group_name_H-M "C M C M"
_symmetry_group_IT_number 63
_symmetry_cell_setting 'orthorhombic'
loop_
_space_group_symop_operation_xyz
x,y,z
-x,-y,1/2+z
x,-y,-z
-x,y,1/2-z
-x,-y,-z
x,y,1/2-z
-x,y,z
x,-y,1/2+z
1/2+x,1/2+y,z
1/2-x,1/2-y,1/2+z
1/2+x,1/2-y,-z
1/2-x,1/2+y,1/2-z
1/2-x,1/2-y,-z
1/2+x,1/2+y,1/2-z
1/2-x,1/2+y,z
1/2+x,1/2-y,1/2+z
loop_
_atom_site_type_symbol
_atom_site_label
_atom_site_fract_x
_atom_site_fract_y
_atom_site_fract_z
Si Si1 0.336706 0.541995 0.054145
Si Si2 0.664117 0.486925 0.319046
Si Si3 0.841230 0.140882 0.679773
Si Si4 0.156370 0.233274 0.587468
Si Si5 0.655515 0.672217 0.044480
O O1 0.500000 0.536849 0.053429
O O2 0.280803 0.525230 0.123365
O O3 0.289060 0.606947 0.040134
O O4 0.276640 0.500000 0.000000
O O5 0.712797 0.509390 0.250000
O O6 0.500000 0.484713 0.318841
O O7 0.723328 0.422444 0.329711
O O8 0.822089 0.161894 0.750000
O O9 0.773097 0.189290 0.636320
O O10 0.000000 0.137097 0.660104
O O11 0.245712 0.291444 0.589685
O O12 0.161046 0.200870 0.522405
O O13 0.000000 0.250181 0.605069
O O14 0.500000 0.672966 0.071181
#
# Coordination Sequence:
#
# PCOD8261281 Si02
#       5
#    16  16  16  16  16
#     4   9  15  23  37  56  77 101 129 160 195 235
#     4   8  13  21  34  54  79 102 124 157 200 236
#     4   8  13  22  38  59  79 100 131 168 199 228
#     4   9  16  27  42  58  79 106 133 162 196 232
#     4   9  17  27  40  60  83 105 130 161 197 236
#
# _framework density 16.483981
#
# number of rings (size 3 to 8) (size 9 to 14) (size 15 to 20)
#    0.000    3.400    0.000    2.400    0.000    4.800 
#    0.000    1.000    0.000    2.400    0.000    1.400 
#    0.000    1.600    0.000    0.000    0.000    0.000 
#
# Total GULP energy -495596.682944 kJ/mol
# GULP energy per Si atom -12389.917074 kJ/mol
# Density = 1.644646 g / cm^3
# Si number density = 16.483981 Si / 1000 Ang^3
#
#
#
# Elastic Constant Matrix: (Units=GPa)
#
#
# Indices 1 2 3 4 5 6 
#
# 1 24.1302 27.2761 12.3469 0.0000 0.0000 0.0000
# 2 27.2761 114.8206 34.6347 0.0000 0.0000 0.0000
# 3 12.3469 34.6347 63.5138 0.0000 0.0000 0.0000
# 4 0.0000 0.0000 0.0000 30.0523 0.0000 0.0000
# 5 0.0000 0.0000 0.0000 0.0000 7.9370 0.0000
# 6 0.0000 0.0000 0.0000 0.0000 0.0000 18.8217
#
#
#
# Elastic Compliance Matrix: (Units=1/GPa)
#
#
# Indices 1 2 3 4 5 6 
#
# 1 0.057700 -0.012356 -0.004479 0.000000 0.000000 0.000000
# 2 -0.012356 0.013070 -0.004725 0.000000 0.000000 0.000000
# 3 -0.004479 -0.004725 0.019192 0.000000 0.000000 0.000000
# 4 0.000000 0.000000 0.000000 0.033275 0.000000 0.000000
# 5 0.000000 0.000000 0.000000 0.000000 0.125992 0.000000
# 6 0.000000 0.000000 0.000000 0.000000 0.000000 0.053130
#
#
# Mechanical properties :
#
#
# Convention : Reuss Voigt Hill
#
# Bulk Modulus (GPa) = 21.34834 38.99780 30.17307
# Shear Modulus (GPa) = 13.84681 19.90932 16.87807
#
# Velocity S-wave (km/s) = 2.90145 3.47911 3.20333
# Velocity P-wave (km/s) = 4.91972 6.31255 5.65915
#
# Compressibility (1/GPa) = 0.04684206
#
# Stress axis : x y z
#
# Youngs Moduli (GPa) = 17.33090 76.51270 52.10522
#
# Poissons Ratio (x) = 0.94539 0.23338
# Poissons Ratio (y) = 0.21414 0.24620
# Poissons Ratio (z) = 0.07762 0.36153
#
# Static dielectric constant tensor:
#      x y z
#    x 2.626610 0.000000 0.000000 
#    y 0.000000 3.307030 0.000000 
#    z 0.000000 0.000000 3.263580 
# 
# 
# High freq. dielectric constant tensor:
#      x y z
#    x 1.560020 0.000000 0.000000 
#    y 0.000000 1.637340 0.000000 
#    z 0.000000 0.000000 1.636530 
# 
# From -- ./inp_files/54564.got.cif
#   From: 2010.03.12/outbox.cif.g09.slc.cpg/sg63_28_cif.got.tgz:54564.got - 2010.04.10 19:34:48.
