data_PCOD8261026
_publ_section_title
;
Structure prediction by ZEFSAII (Michael W. Deem and Ramdas Pophale) SiO2 
 PCOD8261026
Probable space group: C M C M
;
_chemical_formula_sum "Si O2"
_cell_formula_units_Z 80
_cell_length_a 13.247580
_cell_length_b 13.788669
_cell_length_c 21.991834
_cell_angle_alpha 90.000000
_cell_angle_beta 90.000000
_cell_angle_gamma 90.000000
_cell_volume 4017.171250
_symmetry_space_group_name_H-M "C M C M"
_symmetry_group_IT_number 63
_symmetry_cell_setting 'orthorhombic'
loop_
_space_group_symop_operation_xyz
x,y,z
-x,-y,1/2+z
x,-y,-z
-x,y,1/2-z
-x,-y,-z
x,y,1/2-z
-x,y,z
x,-y,1/2+z
1/2+x,1/2+y,z
1/2-x,1/2-y,1/2+z
1/2+x,1/2-y,-z
1/2-x,1/2+y,1/2-z
1/2-x,1/2-y,-z
1/2+x,1/2+y,1/2-z
1/2-x,1/2+y,z
1/2+x,1/2-y,1/2+z
loop_
_atom_site_type_symbol
_atom_site_label
_atom_site_fract_x
_atom_site_fract_y
_atom_site_fract_z
Si Si1 0.810485 0.143931 0.679426
Si Si2 0.260876 0.600517 0.475388
Si Si3 0.891759 0.732328 0.681173
Si Si4 0.615932 0.735635 0.564523
Si Si5 0.616301 0.557040 0.358970
O O1 0.824795 0.176568 0.750000
O O2 0.698403 0.169154 0.653021
O O3 0.885214 0.205072 0.635921
O O4 0.824353 0.029061 0.674425
O O5 0.214317 0.500000 0.500000
O O6 0.319662 0.655815 0.528688
O O7 0.168530 0.660567 0.446354
O O8 0.345504 0.575512 0.426384
O O9 0.903565 0.699363 0.750000
O O10 0.865882 0.846155 0.679731
O O11 0.000000 0.713022 0.647310
O O12 0.500000 0.740838 0.542007
O O13 0.500000 0.526100 0.362106
#
# Coordination Sequence:
#
# PCOD8261026 Si02
#       5
#    16  16  16  16  16
#     4  11  22  37  61  92 124 154 196 249 296 350
#     4  11  23  41  62  86 121 155 198 250 298 352
#     4   9  19  37  59  83 116 157 198 238 286 348
#     4  11  24  41  62  90 120 156 201 248 302 355
#     4  11  21  36  61  90 117 154 198 243 296 352
#
# _framework density 19.91451
#
# number of rings (size 3 to 8) (size 9 to 14) (size 15 to 20)
#    0.000    1.400    4.000    1.800    0.000    3.600 
#    0.000    1.000    0.000    0.000    0.000    0.000 
#    0.000    0.000    0.000    0.000    0.000    0.000 
#
# Total GULP energy -495871.466715 kJ/mol
# GULP energy per Si atom -12396.786668 kJ/mol
# Density = 1.986918 g / cm^3
# Si number density = 19.914510 Si / 1000 Ang^3
#
#
#
# Elastic Constant Matrix: (Units=GPa)
#
#
# Indices 1 2 3 4 5 6 
#
# 1 121.5822 67.7439 21.9452 0.0000 0.0000 0.0000
# 2 67.7439 113.7284 21.7479 0.0000 0.0000 0.0000
# 3 21.9452 21.7479 83.1963 0.0000 0.0000 0.0000
# 4 0.0000 0.0000 0.0000 30.4619 0.0000 0.0000
# 5 0.0000 0.0000 0.0000 0.0000 21.8525 0.0000
# 6 0.0000 0.0000 0.0000 0.0000 0.0000 26.7309
#
#
#
# Elastic Compliance Matrix: (Units=1/GPa)
#
#
# Indices 1 2 3 4 5 6 
#
# 1 0.012468 -0.007155 -0.001418 0.000000 0.000000 0.000000
# 2 -0.007155 0.013362 -0.001605 0.000000 0.000000 0.000000
# 3 -0.001418 -0.001605 0.012814 0.000000 0.000000 0.000000
# 4 0.000000 0.000000 0.000000 0.032828 0.000000 0.000000
# 5 0.000000 0.000000 0.000000 0.000000 0.045761 0.000000
# 6 0.000000 0.000000 0.000000 0.000000 0.000000 0.037410
#
#
# Mechanical properties :
#
#
# Convention : Reuss Voigt Hill
#
# Bulk Modulus (GPa) = 54.68919 60.15344 57.42132
# Shear Modulus (GPa) = 27.60969 29.61372 28.61171
#
# Velocity S-wave (km/s) = 3.72749 3.86040 3.79453
# Velocity P-wave (km/s) = 6.78581 7.08108 6.93502
#
# Compressibility (1/GPa) = 0.01828515
#
# Stress axis : x y z
#
# Youngs Moduli (GPa) = 80.20691 74.83855 78.04242
#
# Poissons Ratio (x) = 0.53550 0.11068
# Poissons Ratio (y) = 0.57391 0.12530
# Poissons Ratio (z) = 0.11375 0.12015
#
# Static dielectric constant tensor:
#      x y z
#    x 3.946210 0.000000 0.000000 
#    y 0.000000 3.699240 0.000000 
#    z 0.000000 0.000000 3.578950 
# 
# 
# High freq. dielectric constant tensor:
#      x y z
#    x 1.775190 0.000000 0.000000 
#    y 0.000000 1.772800 0.000000 
#    z 0.000000 0.000000 1.777460 
# 
# From -- ./inp_files/61077.got.cif
#   From: 2010.03.12/outbox.cif.g09.slc.cpg/sg63_31_cif.got.tgz:61077.got - 2010.04.10 19:34:48.
