data_PCOD8261355
_publ_section_title
;
Structure prediction by ZEFSAII (Michael W. Deem and Ramdas Pophale) SiO2 
 PCOD8261355
Probable space group: C M C M
;
_chemical_formula_sum "Si O2"
_cell_formula_units_Z 80
_cell_length_a 9.519232
_cell_length_b 27.305825
_cell_length_c 18.244661
_cell_angle_alpha 90.000000
_cell_angle_beta 90.000000
_cell_angle_gamma 90.000000
_cell_volume 4742.343548
_symmetry_space_group_name_H-M "C M C M"
_symmetry_group_IT_number 63
_symmetry_cell_setting 'orthorhombic'
loop_
_space_group_symop_operation_xyz
x,y,z
-x,-y,1/2+z
x,-y,-z
-x,y,1/2-z
-x,-y,-z
x,y,1/2-z
-x,y,z
x,-y,1/2+z
1/2+x,1/2+y,z
1/2-x,1/2-y,1/2+z
1/2+x,1/2-y,-z
1/2-x,1/2+y,1/2-z
1/2-x,1/2-y,-z
1/2+x,1/2+y,1/2-z
1/2-x,1/2+y,z
1/2+x,1/2-y,1/2+z
loop_
_atom_site_type_symbol
_atom_site_label
_atom_site_fract_x
_atom_site_fract_y
_atom_site_fract_z
Si Si1 0.161979 0.089296 0.833395
Si Si2 0.836105 0.450684 0.038786
Si Si3 0.836467 0.651003 0.469559
Si Si4 0.165726 0.291844 0.669327
Si Si5 0.163466 0.192118 0.597479
O O1 0.204967 0.078380 0.750000
O O2 0.254753 0.054700 0.884914
O O3 0.191350 0.146244 0.849416
O O4 0.000000 0.076582 0.847965
O O5 0.000000 0.453249 0.057618
O O6 0.783571 0.500000 0.000000
O O7 0.800850 0.405779 0.984214
O O8 0.793395 0.664139 0.386028
O O9 0.749132 0.686179 0.522621
O O10 0.000000 0.662048 0.483586
O O11 0.231632 0.302165 0.750000
O O12 0.221659 0.240085 0.638521
O O13 0.000000 0.287892 0.677081
O O14 0.000000 0.197175 0.576938
#
# Coordination Sequence:
#
# PCOD8261355 Si02
#       5
#    16  16  16  16  16
#     4   9  17  29  46  69  92 112 140 179 220 262
#     4   9  18  32  47  64  88 117 149 184 222 262
#     4   9  17  29  45  64  86 113 146 182 215 252
#     4   9  16  26  42  64  88 114 144 176 210 252
#     4   9  16  27  45  66  88 114 141 172 213 260
#
# _framework density 16.869295999999999
#
# number of rings (size 3 to 8) (size 9 to 14) (size 15 to 20)
#    0.000    3.000    0.000    1.200    0.000    3.200 
#    0.000    1.000    0.000    7.200    0.000    0.000 
#    0.000    0.000    0.000    0.000    0.000    0.000 
#
# Total GULP energy -495935.491504 kJ/mol
# GULP energy per Si atom -12398.387288 kJ/mol
# Density = 1.683090 g / cm^3
# Si number density = 16.869296 Si / 1000 Ang^3
#
#
#
# Elastic Constant Matrix: (Units=GPa)
#
#
# Indices 1 2 3 4 5 6 
#
# 1 36.8766 30.7530 47.2952 0.0000 0.0000 0.0000
# 2 30.7530 98.2172 78.8275 0.0000 0.0000 0.0000
# 3 47.2952 78.8275 165.9429 0.0000 0.0000 0.0000
# 4 0.0000 0.0000 0.0000 23.2812 0.0000 0.0000
# 5 0.0000 0.0000 0.0000 0.0000 25.7281 0.0000
# 6 0.0000 0.0000 0.0000 0.0000 0.0000 16.9248
#
#
#
# Elastic Compliance Matrix: (Units=1/GPa)
#
#
# Indices 1 2 3 4 5 6 
#
# 1 0.044909 -0.006124 -0.009891 0.000000 0.000000 0.000000
# 2 -0.006124 0.017290 -0.006468 0.000000 0.000000 0.000000
# 3 -0.009891 -0.006468 0.011918 0.000000 0.000000 0.000000
# 4 0.000000 0.000000 0.000000 0.042953 0.000000 0.000000
# 5 0.000000 0.000000 0.000000 0.000000 0.038868 0.000000
# 6 0.000000 0.000000 0.000000 0.000000 0.000000 0.059085
#
#
# Mechanical properties :
#
#
# Convention : Reuss Voigt Hill
#
# Bulk Modulus (GPa) = 34.30248 68.30980 51.30614
# Shear Modulus (GPa) = 18.53880 22.79755 20.66818
#
# Velocity S-wave (km/s) = 3.31866 3.68016 3.50408
# Velocity P-wave (km/s) = 5.92141 7.65765 6.84480
#
# Compressibility (1/GPa) = 0.02915241
#
# Stress axis : x y z
#
# Youngs Moduli (GPa) = 22.26713 57.83709 83.90975
#
# Poissons Ratio (x) = 0.35417 0.82993
# Poissons Ratio (y) = 0.13635 0.54272
# Poissons Ratio (z) = 0.22024 0.37409
#
# Static dielectric constant tensor:
#      x y z
#    x 2.971300 0.000000 0.000000 
#    y 0.000000 3.133070 0.000000 
#    z 0.000000 0.000000 3.380940 
# 
# 
# High freq. dielectric constant tensor:
#      x y z
#    x 1.626050 0.000000 0.000000 
#    y 0.000000 1.640920 0.000000 
#    z 0.000000 0.000000 1.652620 
# 
# From -- ./inp_files/17863.got.cif
#   From: 2010.03.12/outbox.cif.g09.slc.cpg/sg63_9_cif.got.tgz:17863.got - 2010.04.10 19:34:48.
