data_PCOD8261844
_publ_section_title
;
Structure prediction by ZEFSAII (Michael W. Deem and Ramdas Pophale) SiO2 
 PCOD8261844
Probable space group: C M C A
;
_chemical_formula_sum "Si O2"
_cell_formula_units_Z 80
_cell_length_a 16.704793
_cell_length_b 13.710914
_cell_length_c 20.368883
_cell_angle_alpha 90.000000
_cell_angle_beta 90.000000
_cell_angle_gamma 90.000000
_cell_volume 4665.247821
_symmetry_space_group_name_H-M "C M C A"
_symmetry_group_IT_number 64
_symmetry_cell_setting 'orthorhombic'
loop_
_space_group_symop_operation_xyz
x,y,z
-x,1/2-y,1/2+z
x,-y,-z
-x,1/2+y,1/2-z
-x,-y,-z
x,1/2+y,1/2-z
-x,y,z
x,1/2-y,1/2+z
1/2+x,1/2+y,z
1/2-x,-y,1/2+z
1/2+x,1/2-y,-z
1/2-x,y,1/2-z
1/2-x,1/2-y,-z
1/2+x,y,1/2-z
1/2-x,1/2+y,z
1/2+x,-y,1/2+z
loop_
_atom_site_type_symbol
_atom_site_label
_atom_site_fract_x
_atom_site_fract_y
_atom_site_fract_z
Si Si1 0.701368 0.766847 0.093638
Si Si2 0.406079 0.928460 0.861220
Si Si3 0.907160 0.139921 0.693280
Si Si4 0.221777 0.098921 0.471046
Si Si5 0.680074 0.753274 0.797600
O O1 0.623259 0.784194 0.137772
O O2 0.709847 0.653107 0.072036
O O3 0.781184 0.791741 0.136122
O O4 0.693814 0.832772 0.029973
O O5 0.500000 0.920576 0.877691
O O6 0.357247 0.925036 0.928949
O O7 0.380652 0.841039 0.813117
O O8 0.385276 0.029530 0.825116
O O9 0.866459 0.164669 0.762812
O O10 0.000000 0.157198 0.700495
O O11 0.259441 0.000000 0.500000
O O12 0.750000 0.794425 0.750000
#
# Coordination Sequence:
#
# PCOD8261844 Si02
#       5
#    16  16  16  16  16
#     4   9  19  33  50  77  99 133 168 205 255 294
#     4  10  20  32  51  78 102 132 169 210 260 298
#     4  10  19  33  52  75 105 133 166 210 255 301
#     4  10  18  33  53  73 104 131 168 211 246 301
#     4   9  19  34  50  72 102 136 170 207 248 304
#
# _framework density 17.148071000000002
#
# number of rings (size 3 to 8) (size 9 to 14) (size 15 to 20)
#    0.000    2.400    2.000    0.600    0.000    3.600 
#    3.600    0.000    0.000    0.600    0.000    0.000 
#    0.000    0.000    0.000    0.000    0.000    0.000 
#
# Total GULP energy -495883.896965 kJ/mol
# GULP energy per Si atom -12397.097424 kJ/mol
# Density = 1.710904 g / cm^3
# Si number density = 17.148071 Si / 1000 Ang^3
#
#
#
# Elastic Constant Matrix: (Units=GPa)
#
#
# Indices 1 2 3 4 5 6 
#
# 1 75.9704 54.9979 40.4202 0.0000 0.0000 0.0000
# 2 54.9979 109.4563 55.3402 0.0000 0.0000 0.0000
# 3 40.4202 55.3402 100.3863 0.0000 0.0000 0.0000
# 4 0.0000 0.0000 0.0000 36.6141 0.0000 0.0000
# 5 0.0000 0.0000 0.0000 0.0000 15.2819 0.0000
# 6 0.0000 0.0000 0.0000 0.0000 0.0000 23.3438
#
#
#
# Elastic Compliance Matrix: (Units=1/GPa)
#
#
# Indices 1 2 3 4 5 6 
#
# 1 0.021674 -0.008981 -0.003776 0.000000 0.000000 0.000000
# 2 -0.008981 0.016388 -0.005418 0.000000 0.000000 0.000000
# 3 -0.003776 -0.005418 0.014469 0.000000 0.000000 0.000000
# 4 0.000000 0.000000 0.000000 0.027312 0.000000 0.000000
# 5 0.000000 0.000000 0.000000 0.000000 0.065437 0.000000
# 6 0.000000 0.000000 0.000000 0.000000 0.000000 0.042838
#
#
# Mechanical properties :
#
#
# Convention : Reuss Voigt Hill
#
# Bulk Modulus (GPa) = 61.80316 65.25884 63.53100
# Shear Modulus (GPa) = 21.75228 24.05160 22.90194
#
# Velocity S-wave (km/s) = 3.56546 3.74917 3.65847
# Velocity P-wave (km/s) = 7.28486 7.54191 7.41450
#
# Compressibility (1/GPa) = 0.01618040
#
# Stress axis : x y z
#
# Youngs Moduli (GPa) = 46.13854 61.01956 69.11501
#
# Poissons Ratio (x) = 0.54804 0.26096
# Poissons Ratio (y) = 0.41439 0.37447
# Poissons Ratio (z) = 0.17421 0.33061
#
# Static dielectric constant tensor:
#      x y z
#    x 3.091270 0.000000 0.000000 
#    y 0.000000 3.327050 0.000000 
#    z 0.000000 0.000000 3.405600 
# 
# 
# High freq. dielectric constant tensor:
#      x y z
#    x 1.645350 0.000000 0.000000 
#    y 0.000000 1.659490 0.000000 
#    z 0.000000 0.000000 1.676260 
# 
# From -- ./inp_files/32993.got.cif
#   From: 2010.03.12/outbox.cif.g09.slc.cpg/sg64_17_cif.got.tgz:32993.got - 2010.04.10 20:19:32.
