data_PCOD8261219
_publ_section_title
;
Structure prediction by ZEFSAII (Michael W. Deem and Ramdas Pophale) SiO2 
 PCOD8261219
Probable space group: C M C M
;
_chemical_formula_sum "Si O2"
_cell_formula_units_Z 64
_cell_length_a 10.243313
_cell_length_b 10.076534
_cell_length_c 30.321514
_cell_angle_alpha 90.000000
_cell_angle_beta 90.000000
_cell_angle_gamma 90.000000
_cell_volume 3129.698492
_symmetry_space_group_name_H-M "C M C M"
_symmetry_group_IT_number 63
_symmetry_cell_setting 'orthorhombic'
loop_
_space_group_symop_operation_xyz
x,y,z
-x,-y,1/2+z
x,-y,-z
-x,y,1/2-z
-x,-y,-z
x,y,1/2-z
-x,y,z
x,-y,1/2+z
1/2+x,1/2+y,z
1/2-x,1/2-y,1/2+z
1/2+x,1/2-y,-z
1/2-x,1/2+y,1/2-z
1/2-x,1/2-y,-z
1/2+x,1/2+y,1/2-z
1/2-x,1/2+y,z
1/2+x,1/2-y,1/2+z
loop_
_atom_site_type_symbol
_atom_site_label
_atom_site_fract_x
_atom_site_fract_y
_atom_site_fract_z
Si Si1 0.761573 0.389552 0.409615
Si Si2 0.748180 0.862027 0.850573
Si Si3 0.000000 0.723128 0.198218
Si Si4 0.000000 0.633751 0.526357
Si Si5 0.500000 0.616887 0.535162
Si Si6 0.000000 0.971836 0.802565
O O1 0.770344 0.282013 0.371151
O O2 0.784840 0.534294 0.389155
O O3 0.623307 0.390969 0.433263
O O4 0.871575 0.354150 0.444608
O O5 0.625870 0.855841 0.818150
O O6 0.873395 0.901491 0.822231
O O7 0.000000 0.719653 0.250000
O O8 0.000000 0.875453 0.181683
O O9 0.000000 0.500000 0.500000
O O10 0.000000 0.746460 0.490146
O O11 0.500000 0.500000 0.500000
O O12 0.000000 0.956935 0.750000
#
# Coordination Sequence:
#
# PCOD8261219 Si02
#       6
#    16  16   8   8   8   8
#     4  12  24  41  67  96 131 175 224 274 329 399
#     4  12  23  45  68 102 133 179 224 273 336 392
#     4  11  24  45  69 101 139 176 219 277 334 396
#     4  12  24  41  60  94 129 172 223 274 329 393
#     4  12  24  43  64  94 133 178 217 274 339 389
#     4  11  24  45  69 101 139 177 219 276 336 398
#
# _framework density 20.449255000000001
#
# number of rings (size 3 to 8) (size 9 to 14) (size 15 to 20)
#    0.000    0.250    2.500    8.250    0.000    0.000 
#    0.000    1.250    0.000    0.000    0.000    0.000 
#    0.000    0.000    0.000    0.000    0.000    0.000 
#
# Total GULP energy -397053.455364 kJ/mol
# GULP energy per Si atom -12407.920480 kJ/mol
# Density = 2.040271 g / cm^3
# Si number density = 20.449255 Si / 1000 Ang^3
#
#
#
# Elastic Constant Matrix: (Units=GPa)
#
#
# Indices 1 2 3 4 5 6 
#
# 1 189.3488 51.3947 65.0664 0.0000 0.0000 0.0000
# 2 51.3947 96.0655 41.1997 0.0000 0.0000 0.0000
# 3 65.0664 41.1997 97.8052 0.0000 0.0000 0.0000
# 4 0.0000 0.0000 0.0000 51.3079 0.0000 0.0000
# 5 0.0000 0.0000 0.0000 0.0000 66.1284 0.0000
# 6 0.0000 0.0000 0.0000 0.0000 0.0000 34.2184
#
#
#
# Elastic Compliance Matrix: (Units=1/GPa)
#
#
# Indices 1 2 3 4 5 6 
#
# 1 0.007207 -0.002196 -0.003869 0.000000 0.000000 0.000000
# 2 -0.002196 0.013374 -0.004173 0.000000 0.000000 0.000000
# 3 -0.003869 -0.004173 0.014556 0.000000 0.000000 0.000000
# 4 0.000000 0.000000 0.000000 0.019490 0.000000 0.000000
# 5 0.000000 0.000000 0.000000 0.000000 0.015122 0.000000
# 6 0.000000 0.000000 0.000000 0.000000 0.000000 0.029224
#
#
# Mechanical properties :
#
#
# Convention : Reuss Voigt Hill
#
# Bulk Modulus (GPa) = 68.20929 77.61569 72.91249
# Shear Modulus (GPa) = 40.21320 45.36820 42.79070
#
# Velocity S-wave (km/s) = 4.43932 4.71528 4.57938
# Velocity P-wave (km/s) = 7.72687 8.22696 7.98083
#
# Compressibility (1/GPa) = 0.01466076
#
# Stress axis : x y z
#
# Youngs Moduli (GPa) = 138.75297 74.77155 68.69879
#
# Poissons Ratio (x) = 0.16422 0.26583
# Poissons Ratio (y) = 0.30474 0.28665
# Poissons Ratio (z) = 0.53690 0.31199
#
# Static dielectric constant tensor:
#      x y z
#    x 3.826010 0.000000 0.000000 
#    y 0.000000 4.209100 0.000000 
#    z 0.000000 0.000000 3.800700 
# 
# 
# High freq. dielectric constant tensor:
#      x y z
#    x 1.820710 0.000000 0.000000 
#    y 0.000000 1.814940 0.000000 
#    z 0.000000 0.000000 1.817780 
# 
# From -- ./inp_files/71388.got.cif
#   From: 2010.03.12/outbox.cif.g09.slc.cpg/sg63_36_cif.got.tgz:71388.got - 2010.04.10 19:34:48.
