data_PCOD8261117
_publ_section_title
;
Structure prediction by ZEFSAII (Michael W. Deem and Ramdas Pophale) SiO2 
 PCOD8261117
Probable space group: C M C M
;
_chemical_formula_sum "Si O2"
_cell_formula_units_Z 80
_cell_length_a 11.639172
_cell_length_b 14.567637
_cell_length_c 22.558332
_cell_angle_alpha 90.000000
_cell_angle_beta 90.000000
_cell_angle_gamma 90.000000
_cell_volume 3824.883231
_symmetry_space_group_name_H-M "C M C M"
_symmetry_group_IT_number 63
_symmetry_cell_setting 'orthorhombic'
loop_
_space_group_symop_operation_xyz
x,y,z
-x,-y,1/2+z
x,-y,-z
-x,y,1/2-z
-x,-y,-z
x,y,1/2-z
-x,y,z
x,-y,1/2+z
1/2+x,1/2+y,z
1/2-x,1/2-y,1/2+z
1/2+x,1/2-y,-z
1/2-x,1/2+y,1/2-z
1/2-x,1/2-y,-z
1/2+x,1/2+y,1/2-z
1/2-x,1/2+y,z
1/2+x,1/2-y,1/2+z
loop_
_atom_site_type_symbol
_atom_site_label
_atom_site_fract_x
_atom_site_fract_y
_atom_site_fract_z
Si Si1 0.500000 0.864872 0.185039
Si Si2 0.868134 0.727725 0.182192
Si Si3 0.369759 0.892283 0.509310
Si Si4 0.500000 0.649179 0.182339
Si Si5 0.223471 0.379589 0.385178
Si Si6 0.730697 0.414244 0.876223
O O1 0.500000 0.909467 0.250000
O O2 0.500000 0.756563 0.190176
O O3 0.390010 0.901120 0.151358
O O4 0.851307 0.757465 0.250000
O O5 0.801091 0.800458 0.142033
O O6 0.818659 0.624506 0.173659
O O7 0.000000 0.729103 0.163120
O O8 0.500000 0.852974 0.520117
O O9 0.311728 0.847749 0.451158
O O10 0.282779 0.871166 0.563145
O O11 0.380779 0.000000 0.500000
O O12 0.500000 0.605796 0.250000
O O13 0.607076 0.623128 0.141711
O O14 0.287794 0.477039 0.382165
#
# Coordination Sequence:
#
# PCOD8261117 Si02
#       6
#     8  16  16   8  16  16
#     4  11  22  40  65  91 125 167 220 266 304 373
#     4  11  25  43  61  91 133 168 209 267 320 376
#     4   9  19  39  66  94 128 161 208 268 316 369
#     4  11  24  44  63  89 133 171 210 268 316 365
#     4  11  23  42  66  96 125 169 213 260 320 379
#     4  11  24  42  66  94 124 170 212 259 318 381
#
# _framework density 20.915671
#
# number of rings (size 3 to 8) (size 9 to 14) (size 15 to 20)
#    0.000    1.400    3.000    1.800    4.200    4.000 
#    1.800    1.500    0.000    0.000    0.000    0.000 
#    0.000    0.000    0.000    0.000    0.000    0.000 
#
# Total GULP energy -495807.666921 kJ/mol
# GULP energy per Si atom -12395.191673 kJ/mol
# Density = 2.086807 g / cm^3
# Si number density = 20.915671 Si / 1000 Ang^3
#
#
#
# Elastic Constant Matrix: (Units=GPa)
#
#
# Indices 1 2 3 4 5 6 
#
# 1 144.3347 8.9326 76.0388 0.0000 0.0000 0.0000
# 2 8.9326 45.9450 14.7900 0.0000 0.0000 0.0000
# 3 76.0388 14.7900 129.8524 0.0000 0.0000 0.0000
# 4 0.0000 0.0000 0.0000 28.7899 0.0000 0.0000
# 5 0.0000 0.0000 0.0000 0.0000 44.6725 0.0000
# 6 0.0000 0.0000 0.0000 0.0000 0.0000 292.8416
#
#
#
# Elastic Compliance Matrix: (Units=1/GPa)
#
#
# Indices 1 2 3 4 5 6 
#
# 1 0.010019 -0.000062 -0.005860 0.000000 0.000000 0.000000
# 2 -0.000062 0.022594 -0.002537 0.000000 0.000000 0.000000
# 3 -0.005860 -0.002537 0.011422 0.000000 0.000000 0.000000
# 4 0.000000 0.000000 0.000000 0.034734 0.000000 0.000000
# 5 0.000000 0.000000 0.000000 0.000000 0.022385 0.000000
# 6 0.000000 0.000000 0.000000 0.000000 0.000000 0.003415
#
#
# Mechanical properties :
#
#
# Convention : Reuss Voigt Hill
#
# Bulk Modulus (GPa) = 36.87746 57.73942 47.30844
# Shear Modulus (GPa) = 38.30645 87.95220 63.12933
#
# Velocity S-wave (km/s) = 4.28421 6.49170 5.49985
# Velocity P-wave (km/s) = 6.49172 9.15725 7.93718
#
# Compressibility (1/GPa) = 0.02711683
#
# Stress axis : x y z
#
# Youngs Moduli (GPa) = 99.80634 44.25972 87.55324
#
# Poissons Ratio (x) = 0.00272 0.51307
# Poissons Ratio (y) = 0.00614 0.22215
# Poissons Ratio (z) = 0.58488 0.11230
#
# Static dielectric constant tensor:
#      x y z
#    x 3.672740 0.000000 0.000000 
#    y 0.000000 3.592150 0.000000 
#    z 0.000000 0.000000 4.203840 
# 
# 
# High freq. dielectric constant tensor:
#      x y z
#    x 1.826070 0.000000 0.000000 
#    y 0.000000 1.805030 0.000000 
#    z 0.000000 0.000000 1.833270 
# 
# From -- ./inp_files/61166.got.cif
#   From: 2010.03.12/outbox.cif.g09.slc.cpg/sg63_31_cif.got.tgz:61166.got - 2010.04.10 19:34:48.
