data_PCOD8261591
_publ_section_title
;
Structure prediction by ZEFSAII (Michael W. Deem and Ramdas Pophale) SiO2 
 PCOD8261591
Probable space group: C M C A
;
_chemical_formula_sum "Si O2"
_cell_formula_units_Z 96
_cell_length_a 9.477985
_cell_length_b 19.410174
_cell_length_c 30.535586
_cell_angle_alpha 90.000000
_cell_angle_beta 90.000000
_cell_angle_gamma 90.000000
_cell_volume 5617.611542
_symmetry_space_group_name_H-M "C M C A"
_symmetry_group_IT_number 64
_symmetry_cell_setting 'orthorhombic'
loop_
_space_group_symop_operation_xyz
x,y,z
-x,1/2-y,1/2+z
x,-y,-z
-x,1/2+y,1/2-z
-x,-y,-z
x,1/2+y,1/2-z
-x,y,z
x,1/2-y,1/2+z
1/2+x,1/2+y,z
1/2-x,-y,1/2+z
1/2+x,1/2-y,-z
1/2-x,y,1/2-z
1/2-x,1/2-y,-z
1/2+x,y,1/2-z
1/2-x,1/2+y,z
1/2+x,-y,1/2+z
loop_
_atom_site_type_symbol
_atom_site_label
_atom_site_fract_x
_atom_site_fract_y
_atom_site_fract_z
Si Si1 0.666756 0.653649 0.614528
Si Si2 0.167243 0.998048 0.368939
Si Si3 0.663729 0.219812 0.139332
Si Si4 0.665168 0.612674 0.430550
Si Si5 0.662974 0.600586 0.293948
Si Si6 0.664260 0.684724 0.515647
O O1 0.500000 0.661503 0.621530
O O2 0.726003 0.579610 0.630408
O O3 0.744938 0.710846 0.643628
O O4 0.709206 0.660796 0.563632
O O5 0.000000 0.993812 0.372449
O O6 0.227447 0.041215 0.410995
O O7 0.213239 0.037476 0.324818
O O8 0.500000 0.240014 0.134391
O O9 0.721976 0.178492 0.096833
O O10 0.688793 0.173424 0.182211
O O11 0.500000 0.610979 0.420529
O O12 0.698765 0.621830 0.481957
O O13 0.500000 0.591630 0.281977
O O14 0.750000 0.597995 0.250000
O O15 0.500000 0.704058 0.513390
O O16 0.750000 0.750000 0.500000
#
# Coordination Sequence:
#
# PCOD8261591 Si02
#       6
#    16  16  16  16  16  16
#     4  10  19  29  46  74 101 125 159 204 241 271
#     4   8  16  31  48  69  98 127 156 195 242 285
#     4   9  17  31  50  69  94 127 157 188 235 289
#     4   8  14  27  46  65  90 128 165 193 226 274
#     4   9  18  34  56  75  92 120 157 195 237 288
#     4  10  18  27  44  70  96 128 167 203 237 271
#
# _framework density 17.089113999999999
#
# number of rings (size 3 to 8) (size 9 to 14) (size 15 to 20)
#    0.000    3.000    1.667    2.000    0.000    1.333 
#    0.000    5.000    0.000    6.000    0.000    2.333 
#    0.000    0.000    0.000    0.000    0.000    0.000 
#
# Total GULP energy -594899.473279 kJ/mol
# GULP energy per Si atom -12393.739027 kJ/mol
# Density = 1.705022 g / cm^3
# Si number density = 17.089114 Si / 1000 Ang^3
#
#
#
# Elastic Constant Matrix: (Units=GPa)
#
#
# Indices 1 2 3 4 5 6 
#
# 1 36.5443 41.5017 38.8531 0.0000 0.0000 0.0000
# 2 41.5017 150.6129 57.1733 0.0000 0.0000 0.0000
# 3 38.8531 57.1733 102.8319 0.0000 0.0000 0.0000
# 4 0.0000 0.0000 0.0000 18.3572 0.0000 0.0000
# 5 0.0000 0.0000 0.0000 0.0000 24.1828 0.0000
# 6 0.0000 0.0000 0.0000 0.0000 0.0000 23.5129
#
#
#
# Elastic Compliance Matrix: (Units=1/GPa)
#
#
# Indices 1 2 3 4 5 6 
#
# 1 0.053962 -0.009037 -0.015364 0.000000 0.000000 0.000000
# 2 -0.009037 0.009929 -0.002106 0.000000 0.000000 0.000000
# 3 -0.015364 -0.002106 0.016700 0.000000 0.000000 0.000000
# 4 0.000000 0.000000 0.000000 0.054474 0.000000 0.000000
# 5 0.000000 0.000000 0.000000 0.000000 0.041352 0.000000
# 6 0.000000 0.000000 0.000000 0.000000 0.000000 0.042530
#
#
# Mechanical properties :
#
#
# Convention : Reuss Voigt Hill
#
# Bulk Modulus (GPa) = 36.26163 62.78281 49.52222
# Shear Modulus (GPa) = 17.78387 23.37464 20.57925
#
# Velocity S-wave (km/s) = 3.22942 3.70240 3.47397
# Velocity P-wave (km/s) = 5.93049 7.42262 6.71811
#
# Compressibility (1/GPa) = 0.02757736
#
# Stress axis : x y z
#
# Youngs Moduli (GPa) = 18.53169 100.71334 59.87846
#
# Poissons Ratio (x) = 0.91015 0.91997
# Poissons Ratio (y) = 0.16747 0.12611
# Poissons Ratio (z) = 0.28472 0.21210
#
# Static dielectric constant tensor:
#      x y z
#    x 2.826410 0.000000 0.000000 
#    y 0.000000 3.482520 0.000000 
#    z 0.000000 0.000000 3.149580 
# 
# 
# High freq. dielectric constant tensor:
#      x y z
#    x 1.620760 0.000000 0.000000 
#    y 0.000000 1.661360 0.000000 
#    z 0.000000 0.000000 1.652430 
# 
# From -- ./inp_files/44199.got.cif
#   From: 2010.03.12/outbox.cif.g09.slc.cpg/sg64_23_cif.got.tgz:44199.got - 2010.04.10 20:19:32.
