data_PCOD8261529
_publ_section_title
;
Structure prediction by ZEFSAII (Michael W. Deem and Ramdas Pophale) SiO2 
 PCOD8261529
Probable space group: C M C A
;
_chemical_formula_sum "Si O2"
_cell_formula_units_Z 128
_cell_length_a 20.062876
_cell_length_b 20.360786
_cell_length_c 18.467769
_cell_angle_alpha 90.000000
_cell_angle_beta 90.000000
_cell_angle_gamma 90.000000
_cell_volume 7544.008376
_symmetry_space_group_name_H-M "C M C A"
_symmetry_group_IT_number 64
_symmetry_cell_setting 'orthorhombic'
loop_
_space_group_symop_operation_xyz
x,y,z
-x,1/2-y,1/2+z
x,-y,-z
-x,1/2+y,1/2-z
-x,-y,-z
x,1/2+y,1/2-z
-x,y,z
x,1/2-y,1/2+z
1/2+x,1/2+y,z
1/2-x,-y,1/2+z
1/2+x,1/2-y,-z
1/2-x,y,1/2-z
1/2-x,1/2-y,-z
1/2+x,y,1/2-z
1/2-x,1/2+y,z
1/2+x,-y,1/2+z
loop_
_atom_site_type_symbol
_atom_site_label
_atom_site_fract_x
_atom_site_fract_y
_atom_site_fract_z
Si Si1 0.708479 0.108991 0.821054
Si Si2 0.072708 0.905998 0.260524
Si Si3 0.695829 0.262812 0.808805
Si Si4 0.425878 0.744936 0.781611
Si Si5 0.302780 0.300502 0.968760
Si Si6 0.427463 0.063972 0.602176
Si Si7 0.426220 0.784776 0.438855
Si Si8 0.788597 0.939362 0.042809
O O1 0.750000 0.091135 0.750000
O O2 0.633507 0.079081 0.815236
O O3 0.706149 0.187195 0.831577
O O4 0.744462 0.074442 0.887253
O O5 0.078492 0.831499 0.235259
O O6 0.079132 0.949570 0.188065
O O7 0.000000 0.918951 0.297480
O O8 0.750000 0.285130 0.750000
O O9 0.625287 0.280607 0.771823
O O10 0.700336 0.304499 0.882049
O O11 0.500000 0.772456 0.766619
O O12 0.406586 0.756450 0.866340
O O13 0.250000 0.250000 0.000000
O O14 0.374366 0.273264 0.996285
O O15 0.289582 0.374017 0.995046
O O16 0.500000 0.035191 0.575935
O O17 0.426276 0.140634 0.585868
O O18 0.362934 0.033907 0.563116
O O19 0.500000 0.763849 0.466164
O O20 0.755042 0.000000 0.000000
#
# Coordination Sequence:
#
# PCOD8261529 Si02
#       8
#    16  16  16  16  16  16  16  16
#     4  10  17  30  51  74  97 129 167 207 249 297
#     4   8  13  23  45  73  96 118 160 212 246 281
#     4  10  19  29  49  73  96 129 171 207 243 294
#     4   8  14  25  42  69 100 126 156 201 248 291
#     4  11  20  33  50  73 103 133 167 208 256 303
#     4   8  14  27  47  72  98 127 159 197 246 300
#     4   8  15  27  46  72 103 131 158 199 253 302
#     4  11  22  34  49  74 106 135 166 208 257 303
#
# _framework density 16.967106999999999
#
# number of rings (size 3 to 8) (size 9 to 14) (size 15 to 20)
#    0.000    2.750    2.500    2.250    3.500    0.750 
#    0.000    0.625    0.000    0.375    0.000    0.000 
#    0.000    0.000    0.000    0.000    0.000    0.000 
#
# Total GULP energy -792948.209492 kJ/mol
# GULP energy per Si atom -12389.815773 kJ/mol
# Density = 1.692849 g / cm^3
# Si number density = 16.967107 Si / 1000 Ang^3
#
#
#
# Elastic Constant Matrix: (Units=GPa)
#
#
# Indices 1 2 3 4 5 6 
#
# 1 132.9426 29.1206 72.3867 0.0000 0.0000 0.0000
# 2 29.1206 39.1709 33.1126 0.0000 0.0000 0.0000
# 3 72.3867 33.1126 126.7718 0.0000 0.0000 0.0000
# 4 0.0000 0.0000 0.0000 18.2427 0.0000 0.0000
# 5 0.0000 0.0000 0.0000 0.0000 28.8727 0.0000
# 6 0.0000 0.0000 0.0000 0.0000 0.0000 5.8245
#
#
#
# Elastic Compliance Matrix: (Units=1/GPa)
#
#
# Indices 1 2 3 4 5 6 
#
# 1 0.011339 -0.003794 -0.005483 0.000000 0.000000 0.000000
# 2 -0.003794 0.034033 -0.006723 0.000000 0.000000 0.000000
# 3 -0.005483 -0.006723 0.012775 0.000000 0.000000 0.000000
# 4 0.000000 0.000000 0.000000 0.054816 0.000000 0.000000
# 5 0.000000 0.000000 0.000000 0.000000 0.034635 0.000000
# 6 0.000000 0.000000 0.000000 0.000000 0.000000 0.171689
#
#
# Mechanical properties :
#
#
# Convention : Reuss Voigt Hill
#
# Bulk Modulus (GPa) = 38.24679 63.12502 50.68591
# Shear Modulus (GPa) = 13.88876 21.53902 17.71389
#
# Velocity S-wave (km/s) = 2.86417 3.56681 3.23462
# Velocity P-wave (km/s) = 5.79039 7.36532 6.62482
#
# Compressibility (1/GPa) = 0.02614598
#
# Stress axis : x y z
#
# Youngs Moduli (GPa) = 88.19229 29.38331 78.27652
#
# Poissons Ratio (x) = 0.11149 0.42922
# Poissons Ratio (y) = 0.33462 0.52624
# Poissons Ratio (z) = 0.48360 0.19754
#
# Static dielectric constant tensor:
#      x y z
#    x 3.787360 0.000000 0.000000 
#    y 0.000000 2.555970 0.000000 
#    z 0.000000 0.000000 3.230670 
# 
# 
# High freq. dielectric constant tensor:
#      x y z
#    x 1.673410 0.000000 0.000000 
#    y 0.000000 1.582100 0.000000 
#    z 0.000000 0.000000 1.649250 
# 
# From -- ./inp_files/34693.got.cif
#   From: 2010.03.12/outbox.cif.g09.slc.cpg/sg64_18_cif.got.tgz:34693.got - 2010.04.10 20:19:32.
