data_PCOD8261789
_publ_section_title
;
Structure prediction by ZEFSAII (Michael W. Deem and Ramdas Pophale) SiO2 
 PCOD8261789
Probable space group: C M C A
;
_chemical_formula_sum "Si O2"
_cell_formula_units_Z 72
_cell_length_a 8.273132
_cell_length_b 12.362686
_cell_length_c 30.712420
_cell_angle_alpha 90.000000
_cell_angle_beta 90.000000
_cell_angle_gamma 90.000000
_cell_volume 3141.208982
_symmetry_space_group_name_H-M "C M C A"
_symmetry_group_IT_number 64
_symmetry_cell_setting 'orthorhombic'
loop_
_space_group_symop_operation_xyz
x,y,z
-x,1/2-y,1/2+z
x,-y,-z
-x,1/2+y,1/2-z
-x,-y,-z
x,1/2+y,1/2-z
-x,y,z
x,1/2-y,1/2+z
1/2+x,1/2+y,z
1/2-x,-y,1/2+z
1/2+x,1/2-y,-z
1/2-x,y,1/2-z
1/2-x,1/2-y,-z
1/2+x,y,1/2-z
1/2-x,1/2+y,z
1/2+x,-y,1/2+z
loop_
_atom_site_type_symbol
_atom_site_label
_atom_site_fract_x
_atom_site_fract_y
_atom_site_fract_z
Si Si1 0.750000 0.104613 0.750000
Si Si2 0.500000 0.772662 0.193991
Si Si3 0.000000 0.514732 0.405808
Si Si4 0.000000 0.725047 0.905650
Si Si5 0.000000 0.981942 0.806017
Si Si6 0.817770 0.747136 0.548268
Si Si7 0.175600 0.491400 0.948169
O O1 0.654829 0.182906 0.781709
O O2 0.845156 0.026323 0.781702
O O3 0.500000 0.811659 0.144230
O O4 0.500000 0.645368 0.196759
O O5 0.000000 0.478889 0.355726
O O6 0.159997 0.459877 0.427567
O O7 0.000000 0.644474 0.411907
O O8 0.172100 0.681913 0.926629
O O9 0.750000 0.750000 0.500000
O O10 0.831558 0.867312 0.567136
O O11 0.000000 0.695025 0.551196
O O12 0.000000 0.542739 0.932484
O O13 0.189015 0.500000 0.000000
#
# Coordination Sequence:
#
# PCOD8261789 Si02
#       7
#     8   8   8   8   8  16  16
#     4  10  22  42  66  98 124 158 218 256 318 412
#     4  10  21  43  67  91 132 165 202 271 325 378
#     4   9  18  35  56  77 112 151 201 245 304 375
#     4   9  19  36  55  78 113 159 203 247 311 377
#     4  10  21  42  66  94 125 168 201 257 332 379
#     4  10  18  32  51  76 110 153 199 246 300 364
#     4   9  18  33  50  75 108 150 196 242 295 356
#
# _framework density 22.921111
#
# number of rings (size 3 to 8) (size 9 to 14) (size 15 to 20)
#    0.000    2.444    1.111    1.000    0.000    0.000 
#   12.000    0.000    0.000    0.000    0.000    0.000 
#    0.000    0.000    0.000    0.000    0.000    0.000 
#
# Total GULP energy -446187.702163 kJ/mol
# GULP energy per Si atom -12394.102838 kJ/mol
# Density = 2.286894 g / cm^3
# Si number density = 22.921111 Si / 1000 Ang^3
#
#
#
# Elastic Constant Matrix: (Units=GPa)
#
#
# Indices 1 2 3 4 5 6 
#
# 1 268.9073 80.3573 127.8504 0.0000 0.0000 0.0000
# 2 80.3573 56.3979 13.9919 0.0000 0.0000 0.0000
# 3 127.8504 13.9919 185.0076 0.0000 0.0000 0.0000
# 4 0.0000 0.0000 0.0000 12.9483 0.0000 0.0000
# 5 0.0000 0.0000 0.0000 0.0000 54.9943 0.0000
# 6 0.0000 0.0000 0.0000 0.0000 0.0000 53.3759
#
#
#
# Elastic Compliance Matrix: (Units=1/GPa)
#
#
# Indices 1 2 3 4 5 6 
#
# 1 0.011079 -0.014152 -0.006586 0.000000 0.000000 0.000000
# 2 -0.014152 0.036147 0.007046 0.000000 0.000000 0.000000
# 3 -0.006586 0.007046 0.009423 0.000000 0.000000 0.000000
# 4 0.000000 0.000000 0.000000 0.077230 0.000000 0.000000
# 5 0.000000 0.000000 0.000000 0.000000 0.018184 0.000000
# 6 0.000000 0.000000 0.000000 0.000000 0.000000 0.018735
#
#
# Mechanical properties :
#
#
# Convention : Reuss Voigt Hill
#
# Bulk Modulus (GPa) = 34.16961 106.07912 70.12436
# Shear Modulus (GPa) = 24.04579 43.47123 33.75851
#
# Velocity S-wave (km/s) = 3.24244 4.35967 3.84189
# Velocity P-wave (km/s) = 5.38124 8.46894 7.09509
#
# Compressibility (1/GPa) = 0.02926577
#
# Stress axis : x y z
#
# Youngs Moduli (GPa) = 90.26223 27.66507 106.11796
#
# Poissons Ratio (x) = 0.39150 0.69887
# Poissons Ratio (y) = 1.27735 -0.74768
# Poissons Ratio (z) = 0.59445 -0.19492
#
# Static dielectric constant tensor:
#      x y z
#    x 4.920090 0.000000 0.000000 
#    y 0.000000 4.440400 0.000000 
#    z 0.000000 0.000000 3.929680 
# 
# 
# High freq. dielectric constant tensor:
#      x y z
#    x 1.944760 0.000000 0.000000 
#    y 0.000000 1.946580 0.000000 
#    z 0.000000 0.000000 1.872520 
# 
# From -- ./inp_files/47674.got.cif
#   From: 2010.03.12/outbox.cif.g09.slc.cpg/sg64_24_cif.got.tgz:47674.got - 2010.04.10 20:19:32.
