data_PCOD8261396
_publ_section_title
;
Structure prediction by ZEFSAII (Michael W. Deem and Ramdas Pophale) SiO2 
 PCOD8261396
Probable space group: C M C A
;
_chemical_formula_sum "Si O2"
_cell_formula_units_Z 112
_cell_length_a 23.867892
_cell_length_b 27.106500
_cell_length_c 10.526357
_cell_angle_alpha 90.000000
_cell_angle_beta 90.000000
_cell_angle_gamma 90.000000
_cell_volume 6810.289973
_symmetry_space_group_name_H-M "C M C A"
_symmetry_group_IT_number 64
_symmetry_cell_setting 'orthorhombic'
loop_
_space_group_symop_operation_xyz
x,y,z
-x,1/2-y,1/2+z
x,-y,-z
-x,1/2+y,1/2-z
-x,-y,-z
x,1/2+y,1/2-z
-x,y,z
x,1/2-y,1/2+z
1/2+x,1/2+y,z
1/2-x,-y,1/2+z
1/2+x,1/2-y,-z
1/2-x,y,1/2-z
1/2-x,1/2-y,-z
1/2+x,y,1/2-z
1/2-x,1/2+y,z
1/2+x,-y,1/2+z
loop_
_atom_site_type_symbol
_atom_site_label
_atom_site_fract_x
_atom_site_fract_y
_atom_site_fract_z
Si Si1 0.162775 0.355611 0.015438
Si Si2 0.436536 0.922454 0.048140
Si Si3 0.275198 0.949399 0.941854
Si Si4 0.436067 0.483107 0.706049
Si Si5 0.835686 0.562763 0.324096
Si Si6 0.786336 0.262036 0.124696
Si Si7 0.683521 0.166071 0.263972
O O1 0.207129 0.401130 0.022990
O O2 0.157661 0.330651 0.876780
O O3 0.102797 0.375148 0.062752
O O4 0.179808 0.312498 0.111347
O O5 0.500000 0.903657 0.054087
O O6 0.425223 0.960836 0.162474
O O7 0.423963 0.947599 0.912917
O O8 0.207258 0.953810 0.934497
O O9 0.304179 0.944755 0.807629
O O10 0.298922 0.000000 0.000000
O O11 0.500000 0.476856 0.753783
O O12 0.393935 0.468030 0.821261
O O13 0.846594 0.621427 0.339598
O O14 0.750000 0.268586 0.250000
O O15 0.827422 0.215614 0.154150
O O16 0.750000 0.250000 0.000000
O O17 0.750000 0.155183 0.250000
#
# Coordination Sequence:
#
# PCOD8261396 Si02
#       7
#    16  16  16  16  16  16  16
#     4  11  18  31  50  70 102 132 161 207 258 302
#     4   9  17  28  47  72  97 126 165 205 250 295
#     4  10  18  28  43  67  99 128 151 189 246 310
#     4   9  16  27  46  71  94 121 162 207 240 287
#     4  10  16  28  46  65  94 129 155 193 248 296
#     4  11  20  33  50  73 101 131 173 209 246 305
#     4  10  16  30  48  67  93 132 162 196 248 297
#
# _framework density 16.445701
#
# number of rings (size 3 to 8) (size 9 to 14) (size 15 to 20)
#    0.000    2.000    8.571    1.714    0.000    0.000 
#    5.143    0.000    0.000    2.143    0.000    0.000 
#    0.000    0.000    0.000    0.000    0.000    0.000 
#
# Total GULP energy -693954.558453 kJ/mol
# GULP energy per Si atom -12392.045687 kJ/mol
# Density = 1.640827 g / cm^3
# Si number density = 16.445701 Si / 1000 Ang^3
#
#
#
# Elastic Constant Matrix: (Units=GPa)
#
#
# Indices 1 2 3 4 5 6 
#
# 1 103.6530 48.5373 22.9356 0.0000 0.0000 0.0000
# 2 48.5373 129.8784 40.6464 0.0000 0.0000 0.0000
# 3 22.9356 40.6464 39.9175 0.0000 0.0000 0.0000
# 4 0.0000 0.0000 0.0000 22.6689 0.0000 0.0000
# 5 0.0000 0.0000 0.0000 0.0000 16.1182 0.0000
# 6 0.0000 0.0000 0.0000 0.0000 0.0000 27.8690
#
#
#
# Elastic Compliance Matrix: (Units=1/GPa)
#
#
# Indices 1 2 3 4 5 6 
#
# 1 0.012004 -0.003416 -0.003419 0.000000 0.000000 0.000000
# 2 -0.003416 0.012273 -0.010534 0.000000 0.000000 0.000000
# 3 -0.003419 -0.010534 0.037742 0.000000 0.000000 0.000000
# 4 0.000000 0.000000 0.000000 0.044113 0.000000 0.000000
# 5 0.000000 0.000000 0.000000 0.000000 0.062042 0.000000
# 6 0.000000 0.000000 0.000000 0.000000 0.000000 0.035882
#
#
# Mechanical properties :
#
#
# Convention : Reuss Voigt Hill
#
# Bulk Modulus (GPa) = 36.65511 55.29862 45.97687
# Shear Modulus (GPa) = 20.17044 24.08654 22.12849
#
# Velocity S-wave (km/s) = 3.50592 3.83117 3.67215
# Velocity P-wave (km/s) = 6.22299 7.29853 6.78211
#
# Compressibility (1/GPa) = 0.02728132
#
# Stress axis : x y z
#
# Youngs Moduli (GPa) = 83.30815 81.48040 26.49539
#
# Poissons Ratio (x) = 0.27834 0.09058
# Poissons Ratio (y) = 0.28459 0.27911
# Poissons Ratio (z) = 0.28479 0.85833
#
# Static dielectric constant tensor:
#      x y z
#    x 3.151930 0.000000 0.000000 
#    y 0.000000 3.584860 0.000000 
#    z 0.000000 0.000000 2.632420 
# 
# 
# High freq. dielectric constant tensor:
#      x y z
#    x 1.611120 0.000000 0.000000 
#    y 0.000000 1.636430 0.000000 
#    z 0.000000 0.000000 1.594690 
# 
# From -- ./inp_files/18731.got.cif
#   From: 2010.03.12/outbox.cif.g09.slc.cpg/sg64_10_cif.got.tgz:18731.got - 2010.04.10 20:19:32.
