data_PCOD8261151
_publ_section_title
;
Structure prediction by ZEFSAII (Michael W. Deem and Ramdas Pophale) SiO2 
 PCOD8261151
Probable space group: C M C M
;
_chemical_formula_sum "Si O2"
_cell_formula_units_Z 80
_cell_length_a 8.445574
_cell_length_b 29.650616
_cell_length_c 16.175697
_cell_angle_alpha 90.000000
_cell_angle_beta 90.000000
_cell_angle_gamma 90.000000
_cell_volume 4050.660968
_symmetry_space_group_name_H-M "C M C M"
_symmetry_group_IT_number 63
_symmetry_cell_setting 'orthorhombic'
loop_
_space_group_symop_operation_xyz
x,y,z
-x,-y,1/2+z
x,-y,-z
-x,y,1/2-z
-x,-y,-z
x,y,1/2-z
-x,y,z
x,-y,1/2+z
1/2+x,1/2+y,z
1/2-x,1/2-y,1/2+z
1/2+x,1/2-y,-z
1/2-x,1/2+y,1/2-z
1/2-x,1/2-y,-z
1/2+x,1/2+y,1/2-z
1/2-x,1/2+y,z
1/2+x,1/2-y,1/2+z
loop_
_atom_site_type_symbol
_atom_site_label
_atom_site_fract_x
_atom_site_fract_y
_atom_site_fract_z
Si Si1 0.187513 0.708599 0.250000
Si Si2 0.688541 0.054924 0.921168
Si Si3 0.188042 0.644672 0.658707
Si Si4 0.811868 0.543401 0.104934
Si Si5 0.310936 0.105762 0.250000
Si Si6 0.186980 0.261581 0.090377
O O1 0.251154 0.657041 0.250000
O O2 0.246026 0.731582 0.334628
O O3 0.000000 0.709837 0.250000
O O4 0.500000 0.057593 0.922360
O O5 0.762143 0.098134 0.875164
O O6 0.741089 0.008392 0.875955
O O7 0.752860 0.056529 0.014775
O O8 0.255995 0.652931 0.750000
O O9 0.240591 0.686744 0.603053
O O10 0.000000 0.640899 0.660856
O O11 0.742312 0.578861 0.170701
O O12 0.000000 0.545873 0.106614
O O13 0.500000 0.105191 0.250000
O O14 0.000000 0.255932 0.092381
O O15 0.250000 0.250000 0.000000
#
# Coordination Sequence:
#
# PCOD8261151 Si02
#       6
#     8  16  16  16   8  16
#     4  11  23  39  58  83 115 153 191 233 280 333
#     4   8  14  23  39  61  94 135 172 207 262 327
#     4   9  17  29  47  71 100 137 176 219 274 329
#     4   8  14  24  36  60  96 135 171 210 257 321
#     4   9  18  27  42  67 101 139 177 215 264 323
#     4  11  23  40  60  83 113 149 190 238 286 337
#
# _framework density 19.749863999999999
#
# number of rings (size 3 to 8) (size 9 to 14) (size 15 to 20)
#    0.000    2.800    1.000    2.100    4.200    0.000 
#    0.000    0.000    0.000    0.000    0.000    0.000 
#    0.000   11.200    0.000    0.000    0.000    0.000 
#
# Total GULP energy -495659.000112 kJ/mol
# GULP energy per Si atom -12391.475003 kJ/mol
# Density = 1.970491 g / cm^3
# Si number density = 19.749864 Si / 1000 Ang^3
#
#
#
# Elastic Constant Matrix: (Units=GPa)
#
#
# Indices 1 2 3 4 5 6 
#
# 1 28.8635 25.4595 21.6019 0.0000 0.0000 0.0000
# 2 25.4595 197.1143 98.0710 0.0000 0.0000 0.0000
# 3 21.6019 98.0710 154.5723 0.0000 0.0000 0.0000
# 4 0.0000 0.0000 0.0000 43.8327 0.0000 0.0000
# 5 0.0000 0.0000 0.0000 0.0000 20.0962 0.0000
# 6 0.0000 0.0000 0.0000 0.0000 0.0000 15.8451
#
#
#
# Elastic Compliance Matrix: (Units=1/GPa)
#
#
# Indices 1 2 3 4 5 6 
#
# 1 0.040289 -0.003511 -0.003403 0.000000 0.000000 0.000000
# 2 -0.003511 0.007719 -0.004407 0.000000 0.000000 0.000000
# 3 -0.003403 -0.004407 0.009741 0.000000 0.000000 0.000000
# 4 0.000000 0.000000 0.000000 0.022814 0.000000 0.000000
# 5 0.000000 0.000000 0.000000 0.000000 0.049761 0.000000
# 6 0.000000 0.000000 0.000000 0.000000 0.000000 0.063111
#
#
# Mechanical properties :
#
#
# Convention : Reuss Voigt Hill
#
# Bulk Modulus (GPa) = 28.48332 74.53500 51.50916
# Shear Modulus (GPa) = 21.95103 31.64933 26.80018
#
# Velocity S-wave (km/s) = 3.33746 4.00748 3.68772
# Velocity P-wave (km/s) = 5.41340 7.69640 6.65355
#
# Compressibility (1/GPa) = 0.03510827
#
# Stress axis : x y z
#
# Youngs Moduli (GPa) = 24.82037 129.54600 102.65713
#
# Poissons Ratio (x) = 0.45479 0.34936
# Poissons Ratio (y) = 0.08714 0.45241
# Poissons Ratio (z) = 0.08447 0.57091
#
# Static dielectric constant tensor:
#      x y z
#    x 2.936380 0.000000 0.000000 
#    y 0.000000 4.074790 0.000000 
#    z 0.000000 0.000000 3.834710 
# 
# 
# High freq. dielectric constant tensor:
#      x y z
#    x 1.699740 0.000000 0.000000 
#    y 0.000000 1.790040 0.000000 
#    z 0.000000 0.000000 1.779130 
# 
# From -- ./inp_files/40550.got.cif
#   From: 2010.03.12/outbox.cif.g09.slc.cpg/sg63_21_cif.got.tgz:40550.got - 2010.04.10 19:34:48.
