data_PCOD8261506
_publ_section_title
;
Structure prediction by ZEFSAII (Michael W. Deem and Ramdas Pophale) SiO2 
 PCOD8261506
Probable space group: C M C A
;
_chemical_formula_sum "Si O2"
_cell_formula_units_Z 96
_cell_length_a 8.236197
_cell_length_b 24.423672
_cell_length_c 25.991220
_cell_angle_alpha 90.000000
_cell_angle_beta 90.000000
_cell_angle_gamma 90.000000
_cell_volume 5228.346357
_symmetry_space_group_name_H-M "C M C A"
_symmetry_group_IT_number 64
_symmetry_cell_setting 'orthorhombic'
loop_
_space_group_symop_operation_xyz
x,y,z
-x,1/2-y,1/2+z
x,-y,-z
-x,1/2+y,1/2-z
-x,-y,-z
x,1/2+y,1/2-z
-x,y,z
x,1/2-y,1/2+z
1/2+x,1/2+y,z
1/2-x,-y,1/2+z
1/2+x,1/2-y,-z
1/2-x,y,1/2-z
1/2-x,1/2-y,-z
1/2+x,y,1/2-z
1/2-x,1/2+y,z
1/2+x,-y,1/2+z
loop_
_atom_site_type_symbol
_atom_site_label
_atom_site_fract_x
_atom_site_fract_y
_atom_site_fract_z
Si Si1 0.811829 0.909431 0.391305
Si Si2 0.685589 0.363653 0.574102
Si Si3 0.690658 0.518291 0.444399
Si Si4 0.814345 0.326973 0.470167
Si Si5 0.693093 0.245273 0.114380
Si Si6 0.192213 0.664359 0.692236
O O1 0.697790 0.876925 0.430233
O O2 0.768088 0.890479 0.333347
O O3 0.000000 0.897580 0.403379
O O4 0.773673 0.973773 0.400021
O O5 0.500000 0.371368 0.589711
O O6 0.770754 0.423728 0.574447
O O7 0.695630 0.337756 0.517420
O O8 0.760626 0.317787 0.613686
O O9 0.763650 0.500000 0.500000
O O10 0.500000 0.528276 0.452442
O O11 0.754648 0.272745 0.439925
O O12 0.000000 0.322852 0.489179
O O13 0.500000 0.245061 0.117096
O O14 0.758740 0.281356 0.162196
O O15 0.250000 0.668969 0.750000
O O16 0.000000 0.660240 0.689284
#
# Coordination Sequence:
#
# PCOD8261506 Si02
#       6
#    16  16  16  16  16  16
#     4  10  18  31  50  72  97 130 167 202 240 279
#     4  10  17  29  47  65  93 134 168 196 232 279
#     4   9  16  27  45  71  98 129 172 205 225 274
#     4  10  18  28  41  66 100 130 162 201 237 280
#     4   8  17  30  46  68  94 122 157 198 240 286
#     4  10  20  36  55  77  97 117 154 201 251 299
#
# _framework density 18.361446999999998
#
# number of rings (size 3 to 8) (size 9 to 14) (size 15 to 20)
#    0.000    2.500    1.667    3.000    0.000    0.000 
#    0.000    6.667    0.000    1.000    0.000    2.333 
#    0.000    0.000    0.000    0.000    0.000    0.000 
#
# Total GULP energy -594693.367808 kJ/mol
# GULP energy per Si atom -12389.445163 kJ/mol
# Density = 1.831966 g / cm^3
# Si number density = 18.361447 Si / 1000 Ang^3
#
#
#
# Elastic Constant Matrix: (Units=GPa)
#
#
# Indices 1 2 3 4 5 6 
#
# 1 23.7656 15.9720 -2.9158 0.0000 0.0000 0.0000
# 2 15.9720 184.1500 64.9313 0.0000 0.0000 0.0000
# 3 -2.9158 64.9313 85.5774 0.0000 0.0000 0.0000
# 4 0.0000 0.0000 0.0000 14.5000 0.0000 0.0000
# 5 0.0000 0.0000 0.0000 0.0000 18.0336 0.0000
# 6 0.0000 0.0000 0.0000 0.0000 0.0000 13.3470
#
#
#
# Elastic Compliance Matrix: (Units=1/GPa)
#
#
# Indices 1 2 3 4 5 6 
#
# 1 0.047137 -0.006355 0.006428 0.000000 0.000000 0.000000
# 2 -0.006355 0.008271 -0.006492 0.000000 0.000000 0.000000
# 3 0.006428 -0.006492 0.016830 0.000000 0.000000 0.000000
# 4 0.000000 0.000000 0.000000 0.068965 0.000000 0.000000
# 5 0.000000 0.000000 0.000000 0.000000 0.055452 0.000000
# 6 0.000000 0.000000 0.000000 0.000000 0.000000 0.074923
#
#
# Mechanical properties :
#
#
# Convention : Reuss Voigt Hill
#
# Bulk Modulus (GPa) = 16.83503 49.94088 33.38796
# Shear Modulus (GPa) = 16.43571 23.54317 19.98944
#
# Velocity S-wave (km/s) = 2.99510 3.58468 3.30307
# Velocity P-wave (km/s) = 4.59885 6.66266 5.72453
#
# Compressibility (1/GPa) = 0.05939995
#
# Stress axis : x y z
#
# Youngs Moduli (GPa) = 21.21470 120.91150 59.41813
#
# Poissons Ratio (x) = 0.76837 -0.38192
# Poissons Ratio (y) = 0.13481 0.38573
# Poissons Ratio (z) = -0.13636 0.78492
#
# Static dielectric constant tensor:
#      x y z
#    x 3.108990 0.000000 0.000000 
#    y 0.000000 3.905590 0.000000 
#    z 0.000000 0.000000 3.968720 
# 
# 
# High freq. dielectric constant tensor:
#      x y z
#    x 1.684890 0.000000 0.000000 
#    y 0.000000 1.724110 0.000000 
#    z 0.000000 0.000000 1.669080 
# 
# From -- ./inp_files/43211.got.cif
#   From: 2010.03.12/outbox.cif.g09.slc.cpg/sg64_22_cif.got.tgz:43211.got - 2010.04.10 20:19:32.
