data_PCOD8261154
_publ_section_title
;
Structure prediction by ZEFSAII (Michael W. Deem and Ramdas Pophale) SiO2 
 PCOD8261154
Probable space group: C M C M
;
_chemical_formula_sum "Si O2"
_cell_formula_units_Z 116
_cell_length_a 17.643634
_cell_length_b 12.097611
_cell_length_c 26.602416
_cell_angle_alpha 90.000000
_cell_angle_beta 90.000000
_cell_angle_gamma 90.000000
_cell_volume 5678.174517
_symmetry_space_group_name_H-M "C M C M"
_symmetry_group_IT_number 63
_symmetry_cell_setting 'orthorhombic'
loop_
_space_group_symop_operation_xyz
x,y,z
-x,-y,1/2+z
x,-y,-z
-x,y,1/2-z
-x,-y,-z
x,y,1/2-z
-x,y,z
x,-y,1/2+z
1/2+x,1/2+y,z
1/2-x,1/2-y,1/2+z
1/2+x,1/2-y,-z
1/2-x,1/2+y,1/2-z
1/2-x,1/2-y,-z
1/2+x,1/2+y,1/2-z
1/2-x,1/2+y,z
1/2+x,1/2-y,1/2+z
loop_
_atom_site_type_symbol
_atom_site_label
_atom_site_fract_x
_atom_site_fract_y
_atom_site_fract_z
Si Si1 0.588296 0.410120 0.460481
Si Si2 0.798591 0.752022 0.192873
Si Si3 0.330771 0.802673 0.988966
Si Si4 0.330916 0.528367 0.640541
Si Si5 0.874286 0.207660 0.331604
Si Si6 0.171106 0.572393 0.385042
Si Si7 0.500000 0.286933 0.750000
Si Si8 0.913056 0.627949 0.583890
O O1 0.618935 0.500000 0.500000
O O2 0.500000 0.425266 0.450767
O O3 0.605095 0.290126 0.482653
O O4 0.630338 0.422419 0.408240
O O5 0.818995 0.721451 0.250000
O O6 0.828045 0.875675 0.182272
O O7 0.708785 0.746649 0.184765
O O8 0.842929 0.665913 0.157053
O O9 0.323215 0.874650 0.939533
O O10 0.250000 0.750000 0.000000
O O11 0.358427 0.877648 0.035329
O O12 0.378122 0.425949 0.663058
O O13 0.247484 0.491919 0.626388
O O14 0.936333 0.239555 0.291423
O O15 0.893839 0.261750 0.385134
O O16 0.103513 0.482559 0.383419
O O17 0.000000 0.628016 0.566887
#
# Coordination Sequence:
#
# PCOD8261154 Si02
#       8
#    16  16  16  16  16  16   4  16
#     4  11  23  39  61  96 134 176 214 266 338 403
#     4  11  23  45  70  98 129 176 228 283 340 397
#     4  12  23  41  67  96 134 176 225 277 333 404
#     4  11  23  42  68  95 133 174 220 284 335 403
#     4  11  24  43  67 101 133 173 225 282 341 411
#     4  11  24  43  65  98 133 173 229 274 335 404
#     4  12  24  44  68 100 138 176 226 286 356 402
#     4  12  25  44  68  99 140 181 225 281 341 412
#
# _framework density 20.429102
#
# number of rings (size 3 to 8) (size 9 to 14) (size 15 to 20)
#    0.000    0.690    4.138    4.966    1.931    3.310 
#    1.241    0.000    0.000    0.828    0.000    0.000 
#    0.000    0.000    0.000    0.000    0.000    0.000 
#
# Total GULP energy -718607.822913 kJ/mol
# GULP energy per Si atom -12389.790050 kJ/mol
# Density = 2.038260 g / cm^3
# Si number density = 20.429102 Si / 1000 Ang^3
#
#
#
# Elastic Constant Matrix: (Units=GPa)
#
#
# Indices 1 2 3 4 5 6 
#
# 1 50.6437 25.7173 27.1804 0.0000 0.0000 0.0000
# 2 25.7173 111.5523 40.9678 0.0000 0.0000 0.0000
# 3 27.1804 40.9678 137.5847 0.0000 0.0000 0.0000
# 4 0.0000 0.0000 0.0000 23.4901 0.0000 0.0000
# 5 0.0000 0.0000 0.0000 0.0000 34.1151 0.0000
# 6 0.0000 0.0000 0.0000 0.0000 0.0000 38.8336
#
#
#
# Elastic Compliance Matrix: (Units=1/GPa)
#
#
# Indices 1 2 3 4 5 6 
#
# 1 0.023726 -0.004209 -0.003434 0.000000 0.000000 0.000000
# 2 -0.004209 0.010812 -0.002388 0.000000 0.000000 0.000000
# 3 -0.003434 -0.002388 0.008658 0.000000 0.000000 0.000000
# 4 0.000000 0.000000 0.000000 0.042571 0.000000 0.000000
# 5 0.000000 0.000000 0.000000 0.000000 0.029313 0.000000
# 6 0.000000 0.000000 0.000000 0.000000 0.000000 0.025751
#
#
# Mechanical properties :
#
#
# Convention : Reuss Voigt Hill
#
# Bulk Modulus (GPa) = 43.22595 54.16798 48.69697
# Shear Modulus (GPa) = 29.65559 33.01545 31.33552
#
# Velocity S-wave (km/s) = 3.81417 4.02443 3.92071
# Velocity P-wave (km/s) = 6.37198 6.94028 6.66219
#
# Compressibility (1/GPa) = 0.02313425
#
# Stress axis : x y z
#
# Youngs Moduli (GPa) = 42.14785 92.49305 115.50454
#
# Poissons Ratio (x) = 0.38927 0.39664
# Poissons Ratio (y) = 0.17739 0.27581
# Poissons Ratio (z) = 0.14473 0.22086
#
# Static dielectric constant tensor:
#      x y z
#    x 4.377390 0.000000 0.000000 
#    y 0.000000 3.949540 0.000000 
#    z 0.000000 0.000000 4.508430 
# 
# 
# High freq. dielectric constant tensor:
#      x y z
#    x 1.798500 0.000000 0.000000 
#    y 0.000000 1.801100 0.000000 
#    z 0.000000 0.000000 1.811820 
# 
# From -- ./inp_files/70015.got.cif
#   From: 2010.03.12/outbox.cif.g09.slc.cpg/sg63_36_cif.got.tgz:70015.got - 2010.04.10 19:34:48.
