data_PCOD8261457
_publ_section_title
;
Structure prediction by ZEFSAII (Michael W. Deem and Ramdas Pophale) SiO2 
 PCOD8261457
Probable space group: C M C A
;
_chemical_formula_sum "Si O2"
_cell_formula_units_Z 112
_cell_length_a 18.234304
_cell_length_b 22.019670
_cell_length_c 17.027589
_cell_angle_alpha 90.000000
_cell_angle_beta 90.000000
_cell_angle_gamma 90.000000
_cell_volume 6836.804417
_symmetry_space_group_name_H-M "C M C A"
_symmetry_group_IT_number 64
_symmetry_cell_setting 'orthorhombic'
loop_
_space_group_symop_operation_xyz
x,y,z
-x,1/2-y,1/2+z
x,-y,-z
-x,1/2+y,1/2-z
-x,-y,-z
x,1/2+y,1/2-z
-x,y,z
x,1/2-y,1/2+z
1/2+x,1/2+y,z
1/2-x,-y,1/2+z
1/2+x,1/2-y,-z
1/2-x,y,1/2-z
1/2-x,1/2-y,-z
1/2+x,y,1/2-z
1/2-x,1/2+y,z
1/2+x,-y,1/2+z
loop_
_atom_site_type_symbol
_atom_site_label
_atom_site_fract_x
_atom_site_fract_y
_atom_site_fract_z
Si Si1 0.413267 0.286811 0.606882
Si Si2 0.667214 0.672529 0.248212
Si Si3 0.673926 0.228698 0.961121
Si Si4 0.178577 0.812405 0.293613
Si Si5 0.085961 0.651003 0.660664
Si Si6 0.917264 0.561938 0.529814
Si Si7 0.417174 0.659893 0.103148
O O1 0.500000 0.298473 0.606922
O O2 0.373697 0.331607 0.668530
O O3 0.377421 0.305273 0.524059
O O4 0.393491 0.216312 0.623269
O O5 0.750000 0.646049 0.250000
O O6 0.667931 0.741873 0.221894
O O7 0.618877 0.636267 0.184460
O O8 0.684606 0.181039 0.888354
O O9 0.631062 0.287236 0.932625
O O10 0.750000 0.250000 0.000000
O O11 0.250000 0.837520 0.250000
O O12 0.114043 0.851148 0.251152
O O13 0.119430 0.597262 0.604672
O O14 0.000000 0.642983 0.662863
O O15 0.876515 0.500000 0.500000
O O16 0.917670 0.604655 0.455271
O O17 0.000000 0.544886 0.554941
O O18 0.500000 0.683731 0.118433
#
# Coordination Sequence:
#
# PCOD8261457 Si02
#       7
#    16  16  16  16  16  16  16
#     4  10  17  26  40  61  90 121 151 181 215 264
#     4   9  17  29  41  62  91 124 152 181 222 275
#     4  11  19  27  42  64  94 124 157 185 223 279
#     4   9  18  28  39  60  88 119 154 176 216 276
#     4   9  16  28  43  60  88 119 147 188 233 270
#     4   9  17  29  47  70  90 113 153 202 246 280
#     4  10  18  29  46  66  90 122 158 192 230 276
#
# _framework density 16.381921999999999
#
# number of rings (size 3 to 8) (size 9 to 14) (size 15 to 20)
#    0.000    2.429    1.429    4.286    0.000    4.000 
#    0.000    0.000    0.000    0.857    0.000    0.000 
#    0.000    0.000    0.000    8.571    0.000    0.571 
#
# Total GULP energy -693776.874767 kJ/mol
# GULP energy per Si atom -12388.872764 kJ/mol
# Density = 1.634464 g / cm^3
# Si number density = 16.381922 Si / 1000 Ang^3
#
#
#
# Elastic Constant Matrix: (Units=GPa)
#
#
# Indices 1 2 3 4 5 6 
#
# 1 87.9699 16.5472 52.6895 0.0000 0.0000 0.0000
# 2 16.5472 23.8143 19.2126 0.0000 0.0000 0.0000
# 3 52.6895 19.2126 146.7949 0.0000 0.0000 0.0000
# 4 0.0000 0.0000 0.0000 11.9920 0.0000 0.0000
# 5 0.0000 0.0000 0.0000 0.0000 35.2769 0.0000
# 6 0.0000 0.0000 0.0000 0.0000 0.0000 6.7164
#
#
#
# Elastic Compliance Matrix: (Units=1/GPa)
#
#
# Indices 1 2 3 4 5 6 
#
# 1 0.015460 -0.007005 -0.004632 0.000000 0.000000 0.000000
# 2 -0.007005 0.050123 -0.004046 0.000000 0.000000 0.000000
# 3 -0.004632 -0.004046 0.009004 0.000000 0.000000 0.000000
# 4 0.000000 0.000000 0.000000 0.083389 0.000000 0.000000
# 5 0.000000 0.000000 0.000000 0.000000 0.028347 0.000000
# 6 0.000000 0.000000 0.000000 0.000000 0.000000 0.148890
#
#
# Mechanical properties :
#
#
# Convention : Reuss Voigt Hill
#
# Bulk Modulus (GPa) = 23.13680 48.38640 35.76160
# Shear Modulus (GPa) = 13.12385 22.13904 17.63145
#
# Velocity S-wave (km/s) = 2.83347 3.68017 3.28422
# Velocity P-wave (km/s) = 4.98586 6.90353 6.02153
#
# Compressibility (1/GPa) = 0.04322119
#
# Stress axis : x y z
#
# Youngs Moduli (GPa) = 64.68487 19.95093 111.05709
#
# Poissons Ratio (x) = 0.13975 0.51443
# Poissons Ratio (y) = 0.45311 0.44932
# Poissons Ratio (z) = 0.29963 0.08072
#
# Static dielectric constant tensor:
#      x y z
#    x 3.295540 0.000000 0.000000 
#    y 0.000000 2.658210 0.000000 
#    z 0.000000 0.000000 3.883890 
# 
# 
# High freq. dielectric constant tensor:
#      x y z
#    x 1.631390 0.000000 0.000000 
#    y 0.000000 1.552850 0.000000 
#    z 0.000000 0.000000 1.648780 
# 
# From -- ./inp_files/33621.got.cif
#   From: 2010.03.12/outbox.cif.g09.slc.cpg/sg64_17_cif.got.tgz:33621.got - 2010.04.10 20:19:32.
