data_PCOD8261841
_publ_section_title
;
Structure prediction by ZEFSAII (Michael W. Deem and Ramdas Pophale) SiO2 
 PCOD8261841
Probable space group: C M C A
;
_chemical_formula_sum "Si O2"
_cell_formula_units_Z 112
_cell_length_a 19.822494
_cell_length_b 17.460386
_cell_length_c 18.017440
_cell_angle_alpha 90.000000
_cell_angle_beta 90.000000
_cell_angle_gamma 90.000000
_cell_volume 6235.987271
_symmetry_space_group_name_H-M "C M C A"
_symmetry_group_IT_number 64
_symmetry_cell_setting 'orthorhombic'
loop_
_space_group_symop_operation_xyz
x,y,z
-x,1/2-y,1/2+z
x,-y,-z
-x,1/2+y,1/2-z
-x,-y,-z
x,1/2+y,1/2-z
-x,y,z
x,1/2-y,1/2+z
1/2+x,1/2+y,z
1/2-x,-y,1/2+z
1/2+x,1/2-y,-z
1/2-x,y,1/2-z
1/2-x,1/2-y,-z
1/2+x,y,1/2-z
1/2-x,1/2+y,z
1/2+x,-y,1/2+z
loop_
_atom_site_type_symbol
_atom_site_label
_atom_site_fract_x
_atom_site_fract_y
_atom_site_fract_z
Si Si1 0.680995 0.813175 0.463977
Si Si2 0.181392 0.120267 0.703442
Si Si3 0.575341 0.025595 0.714239
Si Si4 0.800702 0.935107 0.814852
Si Si5 0.765554 0.958849 0.429309
Si Si6 0.573264 0.068557 0.546586
Si Si7 0.716763 0.232277 0.377253
O O1 0.730998 0.884952 0.464394
O O2 0.607135 0.847798 0.454687
O O3 0.681577 0.768471 0.542034
O O4 0.705226 0.758355 0.395204
O O5 0.250000 0.105646 0.750000
O O6 0.114532 0.097969 0.748991
O O7 0.178913 0.066199 0.630504
O O8 0.179137 0.208486 0.677348
O O9 0.500000 0.011985 0.749907
O O10 0.564042 0.044409 0.629943
O O11 0.623590 0.949978 0.717317
O O12 0.750000 0.959856 0.750000
O O13 0.787221 0.847829 0.835852
O O14 0.789909 0.988144 0.887508
O O15 0.800228 0.000000 0.500000
O O16 0.500000 0.080516 0.509063
O O17 0.610781 0.000000 0.500000
#
# Coordination Sequence:
#
# PCOD8261841 Si02
#       7
#    16  16  16  16  16  16  16
#     4  10  18  33  50  83 111 140 180 231 287 337
#     4  11  20  39  54  81 112 150 182 225 280 340
#     4  11  21  35  57  81 110 151 191 226 274 335
#     4  12  20  35  55  87 108 141 186 237 284 332
#     4  11  18  31  60  81 110 139 186 233 275 332
#     4  10  19  31  53  81 111 148 188 230 275 330
#     4  10  22  31  55  80 111 141 179 233 287 337
#
# _framework density 17.960267000000002
#
# number of rings (size 3 to 8) (size 9 to 14) (size 15 to 20)
#    0.000    1.286    5.714    2.571    0.000    0.000 
#    0.000    1.429    0.000    1.286    0.000    0.000 
#    0.000    0.000    0.000    0.000    0.000    0.000 
#
# Total GULP energy -693768.385194 kJ/mol
# GULP energy per Si atom -12388.721164 kJ/mol
# Density = 1.791939 g / cm^3
# Si number density = 17.960267 Si / 1000 Ang^3
#
#
#
# Elastic Constant Matrix: (Units=GPa)
#
#
# Indices 1 2 3 4 5 6 
#
# 1 112.8043 43.2478 28.5482 0.0000 0.0000 0.0000
# 2 43.2478 113.3559 34.8973 0.0000 0.0000 0.0000
# 3 28.5482 34.8973 83.2815 0.0000 0.0000 0.0000
# 4 0.0000 0.0000 0.0000 42.6763 0.0000 0.0000
# 5 0.0000 0.0000 0.0000 0.0000 14.0829 0.0000
# 6 0.0000 0.0000 0.0000 0.0000 0.0000 106.1678
#
#
#
# Elastic Compliance Matrix: (Units=1/GPa)
#
#
# Indices 1 2 3 4 5 6 
#
# 1 0.010741 -0.003403 -0.002256 0.000000 0.000000 0.000000
# 2 -0.003403 0.011207 -0.003529 0.000000 0.000000 0.000000
# 3 -0.002256 -0.003529 0.014260 0.000000 0.000000 0.000000
# 4 0.000000 0.000000 0.000000 0.023432 0.000000 0.000000
# 5 0.000000 0.000000 0.000000 0.000000 0.071008 0.000000
# 6 0.000000 0.000000 0.000000 0.000000 0.000000 0.009419
#
#
# Mechanical properties :
#
#
# Convention : Reuss Voigt Hill
#
# Bulk Modulus (GPa) = 56.08451 58.09202 57.08827
# Shear Modulus (GPa) = 30.41616 46.10195 38.25905
#
# Velocity S-wave (km/s) = 4.11971 5.07194 4.62042
# Velocity P-wave (km/s) = 7.34331 8.16789 7.76655
#
# Compressibility (1/GPa) = 0.01783024
#
# Stress axis : x y z
#
# Youngs Moduli (GPa) = 93.10492 89.23202 70.12825
#
# Poissons Ratio (x) = 0.30369 0.15819
# Poissons Ratio (y) = 0.31687 0.24750
# Poissons Ratio (z) = 0.21002 0.31493
#
# Static dielectric constant tensor:
#      x y z
#    x 3.363540 0.000000 0.000000 
#    y 0.000000 3.461140 0.000000 
#    z 0.000000 0.000000 3.543180 
# 
# 
# High freq. dielectric constant tensor:
#      x y z
#    x 1.654740 0.000000 0.000000 
#    y 0.000000 1.694340 0.000000 
#    z 0.000000 0.000000 1.707870 
# 
# From -- ./inp_files/34473.got.cif
#   From: 2010.03.12/outbox.cif.g09.slc.cpg/sg64_18_cif.got.tgz:34473.got - 2010.04.10 20:19:32.
