data_PCOD8261847
_publ_section_title
;
Structure prediction by ZEFSAII (Michael W. Deem and Ramdas Pophale) SiO2 
 PCOD8261847
Probable space group: C M C A
;
_chemical_formula_sum "Si O2"
_cell_formula_units_Z 88
_cell_length_a 12.457560
_cell_length_b 26.124064
_cell_length_c 14.641649
_cell_angle_alpha 90.000000
_cell_angle_beta 90.000000
_cell_angle_gamma 90.000000
_cell_volume 4765.008921
_symmetry_space_group_name_H-M "C M C A"
_symmetry_group_IT_number 64
_symmetry_cell_setting 'orthorhombic'
loop_
_space_group_symop_operation_xyz
x,y,z
-x,1/2-y,1/2+z
x,-y,-z
-x,1/2+y,1/2-z
-x,-y,-z
x,1/2+y,1/2-z
-x,y,z
x,1/2-y,1/2+z
1/2+x,1/2+y,z
1/2-x,-y,1/2+z
1/2+x,1/2-y,-z
1/2-x,y,1/2-z
1/2-x,1/2-y,-z
1/2+x,y,1/2-z
1/2-x,1/2+y,z
1/2+x,-y,1/2+z
loop_
_atom_site_type_symbol
_atom_site_label
_atom_site_fract_x
_atom_site_fract_y
_atom_site_fract_z
Si Si1 0.624320 0.123478 0.598746
Si Si2 0.623067 0.501505 0.623800
Si Si3 0.799704 0.084656 0.479900
Si Si4 0.272862 0.225529 0.640971
Si Si5 0.378226 0.695214 0.484134
Si Si6 0.750000 0.563027 0.750000
O O1 0.500000 0.107247 0.601165
O O2 0.677990 0.103155 0.504252
O O3 0.635063 0.184167 0.615131
O O4 0.698429 0.098947 0.675210
O O5 0.500000 0.484691 0.621646
O O6 0.697234 0.450380 0.611130
O O7 0.645669 0.546302 0.551593
O O8 0.653121 0.526395 0.719787
O O9 0.873381 0.134474 0.469803
O O10 0.250000 0.229546 0.750000
O O11 0.313537 0.279327 0.600200
O O12 0.166076 0.209834 0.584986
O O13 0.500000 0.714014 0.481074
#
# Coordination Sequence:
#
# PCOD8261847 Si02
#       6
#    16  16  16  16  16   8
#     4  10  19  34  54  78 108 137 172 229 280 317
#     4  10  18  33  54  75 106 141 179 228 269 315
#     4   9  19  34  53  78 101 137 186 220 265 330
#     4  10  21  37  53  84 113 142 186 227 273 340
#     4  10  20  35  57  80 109 145 183 229 277 328
#     4  10  20  32  48  82 106 134 184 220 266 330
#
# _framework density 18.467962
#
# number of rings (size 3 to 8) (size 9 to 14) (size 15 to 20)
#    0.000    2.182    0.909    3.273    0.000    1.455 
#    1.636    8.182    0.000    0.000    0.000    0.000 
#    0.000    0.000    0.000    0.000    0.000    0.000 
#
# Total GULP energy -545164.286773 kJ/mol
# GULP energy per Si atom -12390.097427 kJ/mol
# Density = 1.842593 g / cm^3
# Si number density = 18.467962 Si / 1000 Ang^3
#
#
#
# Elastic Constant Matrix: (Units=GPa)
#
#
# Indices 1 2 3 4 5 6 
#
# 1 107.9128 31.6707 18.5770 0.0000 0.0000 0.0000
# 2 31.6707 122.2841 36.5166 0.0000 0.0000 0.0000
# 3 18.5770 36.5166 52.7048 0.0000 0.0000 0.0000
# 4 0.0000 0.0000 0.0000 13.7994 0.0000 0.0000
# 5 0.0000 0.0000 0.0000 0.0000 19.4604 0.0000
# 6 0.0000 0.0000 0.0000 0.0000 0.0000 19.4199
#
#
#
# Elastic Compliance Matrix: (Units=1/GPa)
#
#
# Indices 1 2 3 4 5 6 
#
# 1 0.010233 -0.001984 -0.002233 0.000000 0.000000 0.000000
# 2 -0.001984 0.010696 -0.006711 0.000000 0.000000 0.000000
# 3 -0.002233 -0.006711 0.024410 0.000000 0.000000 0.000000
# 4 0.000000 0.000000 0.000000 0.072467 0.000000 0.000000
# 5 0.000000 0.000000 0.000000 0.000000 0.051386 0.000000
# 6 0.000000 0.000000 0.000000 0.000000 0.000000 0.051494
#
#
# Mechanical properties :
#
#
# Convention : Reuss Voigt Hill
#
# Bulk Modulus (GPa) = 42.58166 50.71449 46.64807
# Shear Modulus (GPa) = 19.97050 23.61176 21.79113
#
# Velocity S-wave (km/s) = 3.29197 3.57953 3.43876
# Velocity P-wave (km/s) = 6.12834 6.67865 6.40940
#
# Compressibility (1/GPa) = 0.02348429
#
# Stress axis : x y z
#
# Youngs Moduli (GPa) = 97.72077 93.49682 40.96609
#
# Poissons Ratio (x) = 0.18546 0.09146
# Poissons Ratio (y) = 0.19384 0.27493
# Poissons Ratio (z) = 0.21817 0.62748
#
# Static dielectric constant tensor:
#      x y z
#    x 3.306260 0.000000 0.000000 
#    y 0.000000 3.678860 0.000000 
#    z 0.000000 0.000000 3.559090 
# 
# 
# High freq. dielectric constant tensor:
#      x y z
#    x 1.708330 0.000000 0.000000 
#    y 0.000000 1.729690 0.000000 
#    z 0.000000 0.000000 1.694310 
# 
# From -- ./inp_files/22584.got.cif
#   From: 2010.03.12/outbox.cif.g09.slc.cpg/sg64_12_cif.got.tgz:22584.got - 2010.04.10 20:19:32.
