data_PCOD8261590
_publ_section_title
;
Structure prediction by ZEFSAII (Michael W. Deem and Ramdas Pophale) SiO2 
 PCOD8261590
Probable space group: C M C A
;
_chemical_formula_sum "Si O2"
_cell_formula_units_Z 96
_cell_length_a 9.037952
_cell_length_b 30.275460
_cell_length_c 21.282979
_cell_angle_alpha 90.000000
_cell_angle_beta 90.000000
_cell_angle_gamma 90.000000
_cell_volume 5823.622261
_symmetry_space_group_name_H-M "C M C A"
_symmetry_group_IT_number 64
_symmetry_cell_setting 'orthorhombic'
loop_
_space_group_symop_operation_xyz
x,y,z
-x,1/2-y,1/2+z
x,-y,-z
-x,1/2+y,1/2-z
-x,-y,-z
x,1/2+y,1/2-z
-x,y,z
x,1/2-y,1/2+z
1/2+x,1/2+y,z
1/2-x,-y,1/2+z
1/2+x,1/2-y,-z
1/2-x,y,1/2-z
1/2-x,1/2-y,-z
1/2+x,y,1/2-z
1/2-x,1/2+y,z
1/2+x,-y,1/2+z
loop_
_atom_site_type_symbol
_atom_site_label
_atom_site_fract_x
_atom_site_fract_y
_atom_site_fract_z
Si Si1 0.825043 0.398147 0.316945
Si Si2 0.824944 0.063191 0.047439
Si Si3 0.672649 0.651746 0.451727
Si Si4 0.168176 0.330763 0.097230
Si Si5 0.674429 0.469455 0.086529
Si Si6 0.329246 0.736107 0.063011
O O1 0.750000 0.397644 0.250000
O O2 0.779426 0.355090 0.356156
O O3 0.768178 0.442121 0.353391
O O4 0.000000 0.397844 0.308376
O O5 0.740033 0.105887 0.073399
O O6 0.000000 0.072029 0.048867
O O7 0.780463 0.021090 0.091018
O O8 0.765148 0.052834 0.977271
O O9 0.500000 0.653073 0.437455
O O10 0.708888 0.657350 0.525476
O O11 0.749617 0.691567 0.412206
O O12 0.185639 0.277997 0.109927
O O13 0.000000 0.345590 0.111468
O O14 0.500000 0.466256 0.081650
O O15 0.500000 0.725683 0.048976
O O16 0.250000 0.750000 0.000000
#
# Coordination Sequence:
#
# PCOD8261590 Si02
#       6
#    16  16  16  16  16  16
#     4  11  21  33  49  68  91 124 160 195 234 276
#     4   9  15  28  48  67  90 121 157 192 233 286
#     4  10  18  27  42  69  99 124 152 185 230 283
#     4   9  18  31  44  63  92 122 155 192 226 272
#     4   8  16  29  46  67  89 119 158 195 233 282
#     4   9  17  28  43  64  92 123 153 185 225 271
#
# _framework density 16.484584999999999
#
# number of rings (size 3 to 8) (size 9 to 14) (size 15 to 20)
#    0.000    2.667    1.667    3.500    0.000    3.333 
#    0.000    3.333    0.000    0.000    0.000    1.167 
#    0.000    2.667    0.000    0.000    0.000    0.000 
#
# Total GULP energy -594894.126210 kJ/mol
# GULP energy per Si atom -12393.627629 kJ/mol
# Density = 1.644707 g / cm^3
# Si number density = 16.484585 Si / 1000 Ang^3
#
#
#
# Elastic Constant Matrix: (Units=GPa)
#
#
# Indices 1 2 3 4 5 6 
#
# 1 84.9820 59.0760 27.8222 0.0000 0.0000 0.0000
# 2 59.0760 152.2820 31.4954 0.0000 0.0000 0.0000
# 3 27.8222 31.4954 50.0819 0.0000 0.0000 0.0000
# 4 0.0000 0.0000 0.0000 12.6901 0.0000 0.0000
# 5 0.0000 0.0000 0.0000 0.0000 15.7136 0.0000
# 6 0.0000 0.0000 0.0000 0.0000 0.0000 29.1345
#
#
#
# Elastic Compliance Matrix: (Units=1/GPa)
#
#
# Indices 1 2 3 4 5 6 
#
# 1 0.017707 -0.005558 -0.006342 0.000000 0.000000 0.000000
# 2 -0.005558 0.009293 -0.002757 0.000000 0.000000 0.000000
# 3 -0.006342 -0.002757 0.025224 0.000000 0.000000 0.000000
# 4 0.000000 0.000000 0.000000 0.078802 0.000000 0.000000
# 5 0.000000 0.000000 0.000000 0.000000 0.063639 0.000000
# 6 0.000000 0.000000 0.000000 0.000000 0.000000 0.034324
#
#
# Mechanical properties :
#
#
# Convention : Reuss Voigt Hill
#
# Bulk Modulus (GPa) = 43.64571 58.23700 50.94136
# Shear Modulus (GPa) = 18.80144 22.77112 20.78628
#
# Velocity S-wave (km/s) = 3.38086 3.72069 3.55484
# Velocity P-wave (km/s) = 6.46332 7.33914 6.91511
#
# Compressibility (1/GPa) = 0.02291176
#
# Stress axis : x y z
#
# Youngs Moduli (GPa) = 56.47560 107.60920 39.64489
#
# Poissons Ratio (x) = 0.59804 0.25142
# Poissons Ratio (y) = 0.31386 0.10929
# Poissons Ratio (z) = 0.35815 0.29665
#
# Static dielectric constant tensor:
#      x y z
#    x 3.053040 0.000000 0.000000 
#    y 0.000000 3.560760 0.000000 
#    z 0.000000 0.000000 2.741900 
# 
# 
# High freq. dielectric constant tensor:
#      x y z
#    x 1.632260 0.000000 0.000000 
#    y 0.000000 1.654850 0.000000 
#    z 0.000000 0.000000 1.567400 
# 
# From -- ./inp_files/43185.got.cif
#   From: 2010.03.12/outbox.cif.g09.slc.cpg/sg64_22_cif.got.tgz:43185.got - 2010.04.10 20:19:32.
