data_PCOD8261960
_publ_section_title
;
Structure prediction by ZEFSAII (Michael W. Deem and Ramdas Pophale) SiO2 
 PCOD8261960
Probable space group: C M C A
;
_chemical_formula_sum "Si O2"
_cell_formula_units_Z 64
_cell_length_a 17.964976
_cell_length_b 12.821239
_cell_length_c 13.237788
_cell_angle_alpha 90.000000
_cell_angle_beta 90.000000
_cell_angle_gamma 90.000000
_cell_volume 3049.102745
_symmetry_space_group_name_H-M "C M C A"
_symmetry_group_IT_number 64
_symmetry_cell_setting 'orthorhombic'
loop_
_space_group_symop_operation_xyz
x,y,z
-x,1/2-y,1/2+z
x,-y,-z
-x,1/2+y,1/2-z
-x,-y,-z
x,1/2+y,1/2-z
-x,y,z
x,1/2-y,1/2+z
1/2+x,1/2+y,z
1/2-x,-y,1/2+z
1/2+x,1/2-y,-z
1/2-x,y,1/2-z
1/2-x,1/2-y,-z
1/2+x,y,1/2-z
1/2-x,1/2+y,z
1/2+x,-y,1/2+z
loop_
_atom_site_type_symbol
_atom_site_label
_atom_site_fract_x
_atom_site_fract_y
_atom_site_fract_z
Si Si1 0.500000 0.377517 0.988127
Si Si2 0.500000 0.246841 0.688207
Si Si3 0.750000 0.421666 0.750000
Si Si4 0.500000 0.976622 0.883027
Si Si5 0.623684 0.779127 0.652761
Si Si6 0.848217 0.947458 0.391463
O O1 0.426153 0.340031 0.929178
O O2 0.500000 0.500000 0.000000
O O3 0.500000 0.340461 0.103158
O O4 0.500000 0.354459 0.629045
O O5 0.426086 0.238417 0.754967
O O6 0.688347 0.351877 0.804492
O O7 0.781408 0.499694 0.833039
O O8 0.573476 0.028067 0.833598
O O9 0.500000 0.000000 0.000000
O O10 0.661584 0.677605 0.600779
O O11 0.850474 0.000000 0.500000
#
# Coordination Sequence:
#
# PCOD8261960 Si02
#       6
#     8   8   8   8  16  16
#     4  11  26  45  73 104 138 174 233 305 346 386
#     4  11  22  45  72  98 137 176 231 304 330 406
#     4  12  26  44  68 104 148 182 220 282 348 424
#     4  10  18  38  73  94 117 172 235 271 328 396
#     4  11  26  44  69 107 133 183 238 276 351 414
#     4  11  24  45  72  96 135 186 230 282 338 420
#
# _framework density 20.98978
#
# number of rings (size 3 to 8) (size 9 to 14) (size 15 to 20)
#    0.000    1.000    2.500    5.250    3.500    2.000 
#    0.000    0.000    0.000    0.000    0.000    0.000 
#    0.000    0.000    0.000    0.000    0.000    0.000 
#
# Total GULP energy -396794.824543 kJ/mol
# GULP energy per Si atom -12399.838267 kJ/mol
# Density = 2.094201 g / cm^3
# Si number density = 20.989780 Si / 1000 Ang^3
#
#
#
# Elastic Constant Matrix: (Units=GPa)
#
#
# Indices 1 2 3 4 5 6 
#
# 1 137.3334 56.2206 55.0194 0.0000 0.0000 0.0000
# 2 56.2206 191.8853 66.1589 0.0000 0.0000 0.0000
# 3 55.0194 66.1589 118.8066 0.0000 0.0000 0.0000
# 4 0.0000 0.0000 0.0000 40.4064 0.0000 0.0000
# 5 0.0000 0.0000 0.0000 0.0000 18.9681 0.0000
# 6 0.0000 0.0000 0.0000 0.0000 0.0000 -168.4724
#
#
#
# Elastic Compliance Matrix: (Units=1/GPa)
#
#
# Indices 1 2 3 4 5 6 
#
# 1 0.009291 -0.001533 -0.003449 0.000000 0.000000 0.000000
# 2 -0.001533 0.006703 -0.003023 0.000000 0.000000 0.000000
# 3 -0.003449 -0.003023 0.011697 0.000000 0.000000 0.000000
# 4 0.000000 0.000000 0.000000 0.024749 0.000000 0.000000
# 5 0.000000 0.000000 0.000000 0.000000 0.052720 0.000000
# 6 0.000000 0.000000 0.000000 0.000000 0.000000 -0.005936
#
#
# Mechanical properties :
#
#
# Convention : Reuss Voigt Hill
#
# Bulk Modulus (GPa) = 85.60185 89.20256 87.40220
# Shear Modulus (GPa) = 41.97209 -3.77781 19.09714
#
# Velocity S-wave (km/s) = 4.47659 -1.34303 3.01961
# Velocity P-wave (km/s) = 8.22137 6.33919 7.34086
#
# Compressibility (1/GPa) = 0.01168199
#
# Stress axis : x y z
#
# Youngs Moduli (GPa) = 107.63270 149.19292 85.48911
#
# Poissons Ratio (x) = 0.22871 0.29485
# Poissons Ratio (y) = 0.16500 0.25840
# Poissons Ratio (z) = 0.37122 0.45094
#
# Static dielectric constant tensor:
#      x y z
#    x 5.136450 0.000000 0.000000 
#    y 0.000000 3.884330 0.000000 
#    z 0.000000 0.000000 3.651610 
# 
# 
# High freq. dielectric constant tensor:
#      x y z
#    x 1.827440 0.000000 0.000000 
#    y 0.000000 1.841050 0.000000 
#    z 0.000000 0.000000 1.820910 
# 
# From -- ./inp_files/24949.got.cif
#   From: 2010.03.12/outbox.cif.g09.slc.cpg/sg64_13_cif.got.tgz:24949.got - 2010.04.10 20:19:32.
