data_PCOD8261336
_publ_section_title
;
Structure prediction by ZEFSAII (Michael W. Deem and Ramdas Pophale) SiO2 
 PCOD8261336
Probable space group: C M C M
;
_chemical_formula_sum "Si O2"
_cell_formula_units_Z 80
_cell_length_a 13.635330
_cell_length_b 12.681996
_cell_length_c 27.260651
_cell_angle_alpha 90.000000
_cell_angle_beta 90.000000
_cell_angle_gamma 90.000000
_cell_volume 4713.999019
_symmetry_space_group_name_H-M "C M C M"
_symmetry_group_IT_number 63
_symmetry_cell_setting 'orthorhombic'
loop_
_space_group_symop_operation_xyz
x,y,z
-x,-y,1/2+z
x,-y,-z
-x,y,1/2-z
-x,-y,-z
x,y,1/2-z
-x,y,z
x,-y,1/2+z
1/2+x,1/2+y,z
1/2-x,1/2-y,1/2+z
1/2+x,1/2-y,-z
1/2-x,1/2+y,1/2-z
1/2-x,1/2-y,-z
1/2+x,1/2+y,1/2-z
1/2-x,1/2+y,z
1/2+x,1/2-y,1/2+z
loop_
_atom_site_type_symbol
_atom_site_label
_atom_site_fract_x
_atom_site_fract_y
_atom_site_fract_z
Si Si1 0.738159 0.501103 0.192680
Si Si2 0.385327 0.383451 0.382095
Si Si3 0.765951 0.499391 0.557279
Si Si4 0.114631 0.621596 0.867912
Si Si5 0.746950 0.809103 0.875124
O O1 0.718852 0.502067 0.250000
O O2 0.642915 0.451923 0.165823
O O3 0.832956 0.430167 0.179502
O O4 0.755254 0.619811 0.173790
O O5 0.500000 0.385942 0.391441
O O6 0.331206 0.433345 0.429475
O O7 0.349874 0.263544 0.374710
O O8 0.785443 0.500000 0.500000
O O9 0.859505 0.551874 0.584233
O O10 0.753152 0.379835 0.575843
O O11 0.154098 0.739934 0.875414
O O12 0.000000 0.624579 0.858565
#
# Coordination Sequence:
#
# PCOD8261336 Si02
#       5
#    16  16  16  16  16
#     4   9  19  35  52  72 100 131 163 201 244 290
#     4   9  19  34  51  73 100 128 162 203 243 288
#     4   9  19  35  52  72 100 131 163 201 244 290
#     4   9  19  34  51  73 100 128 162 203 243 288
#     4   8  18  33  51  71 100 131 159 198 245 288
#
# _framework density 16.970728000000001
#
# number of rings (size 3 to 8) (size 9 to 14) (size 15 to 20)
#    0.000    4.000    0.000    0.000    0.000   14.400 
#    0.000    2.000    0.000    0.000    0.000    0.000 
#    0.000    0.000    0.000    0.000    0.000    0.000 
#
# Total GULP energy -495823.330321 kJ/mol
# GULP energy per Si atom -12395.583258 kJ/mol
# Density = 1.693210 g / cm^3
# Si number density = 16.970728 Si / 1000 Ang^3
#
#
#
# Elastic Constant Matrix: (Units=GPa)
#
#
# Indices 1 2 3 4 5 6 
#
# 1 81.0437 0.5393 -27.4210 0.0000 0.0000 0.0000
# 2 0.5393 99.6528 6.2062 0.0000 0.0000 0.0000
# 3 -27.4210 6.2062 81.2711 0.0000 0.0000 0.0000
# 4 0.0000 0.0000 0.0000 10.8088 0.0000 0.0000
# 5 0.0000 0.0000 0.0000 0.0000 13.4626 0.0000
# 6 0.0000 0.0000 0.0000 0.0000 0.0000 12.3776
#
#
#
# Elastic Compliance Matrix: (Units=1/GPa)
#
#
# Indices 1 2 3 4 5 6 
#
# 1 0.013943 -0.000370 0.004733 0.000000 0.000000 0.000000
# 2 -0.000370 0.010093 -0.000896 0.000000 0.000000 0.000000
# 3 0.004733 -0.000896 0.013970 0.000000 0.000000 0.000000
# 4 0.000000 0.000000 0.000000 0.092517 0.000000 0.000000
# 5 0.000000 0.000000 0.000000 0.000000 0.074280 0.000000
# 6 0.000000 0.000000 0.000000 0.000000 0.000000 0.080791
#
#
# Mechanical properties :
#
#
# Convention : Reuss Voigt Hill
#
# Bulk Modulus (GPa) = 22.25260 24.51296 23.38278
# Shear Modulus (GPa) = 17.02769 26.17267 21.60018
#
# Velocity S-wave (km/s) = 3.17102 3.93138 3.57149
# Velocity P-wave (km/s) = 5.15247 5.92311 5.55118
#
# Compressibility (1/GPa) = 0.04493857
#
# Stress axis : x y z
#
# Youngs Moduli (GPa) = 71.72184 99.08231 71.58369
#
# Poissons Ratio (x) = 0.03668 -0.33878
# Poissons Ratio (y) = 0.02655 0.06411
# Poissons Ratio (z) = -0.33943 0.08874
#
# Static dielectric constant tensor:
#      x y z
#    x 2.925670 0.000000 0.000000 
#    y 0.000000 3.360790 0.000000 
#    z 0.000000 0.000000 2.928830 
# 
# 
# High freq. dielectric constant tensor:
#      x y z
#    x 1.638660 0.000000 0.000000 
#    y 0.000000 1.672350 0.000000 
#    z 0.000000 0.000000 1.638170 
# 
# From -- ./inp_files/62563.got.cif
#   From: 2010.03.12/outbox.cif.g09.slc.cpg/sg63_32_cif.got.tgz:62563.got - 2010.04.10 19:34:48.
