data_PCOD8261374
_publ_section_title
;
Structure prediction by ZEFSAII (Michael W. Deem and Ramdas Pophale) SiO2 
 PCOD8261374
Probable space group: C M C M
;
_chemical_formula_sum "Si O2"
_cell_formula_units_Z 48
_cell_length_a 9.000000
_cell_length_b 24.000000
_cell_length_c 24.000000
_cell_angle_alpha 90.000000
_cell_angle_beta 90.000000
_cell_angle_gamma 90.000000
_cell_volume 5184.000000
_symmetry_space_group_name_H-M "C M C M"
_symmetry_group_IT_number 63
_symmetry_cell_setting 'orthorhombic'
loop_
_space_group_symop_operation_xyz
x,y,z
-x,-y,1/2+z
x,-y,-z
-x,y,1/2-z
-x,-y,-z
x,y,1/2-z
-x,y,z
x,-y,1/2+z
1/2+x,1/2+y,z
1/2-x,1/2-y,1/2+z
1/2+x,1/2-y,-z
1/2-x,1/2+y,1/2-z
1/2-x,1/2-y,-z
1/2+x,1/2+y,1/2-z
1/2-x,1/2+y,z
1/2+x,1/2-y,1/2+z
loop_
_atom_site_type_symbol
_atom_site_label
_atom_site_fract_x
_atom_site_fract_y
_atom_site_fract_z
Si Si1 0.171700 0.817239 0.813329
Si Si2 0.823990 0.496507 0.312674
Si Si3 0.329311 0.402576 0.378007
Si Si4 0.174280 0.935873 0.999785
Si Si5 0.324363 0.903526 0.888996
Si Si6 0.333541 0.705895 0.812017
O O1 0.207294 0.836646 0.750000
O O2 0.274287 0.848676 0.857022
O O3 0.209862 0.752603 0.820502
O O4 0.000000 0.826861 0.827817
O O5 0.762763 0.505931 0.250000
O O6 0.768527 0.438281 0.336077
O O7 0.762248 0.544555 0.353218
O O8 0.000000 0.496489 0.312162
O O9 0.500000 0.421993 0.372615
O O10 0.275993 0.408729 0.441751
O O11 0.306292 0.339258 0.359797
O O12 0.257649 0.903560 0.950759
O O13 0.000000 0.929802 0.989185
O O14 0.224444 0.000000 0.000000
O O15 0.500000 0.904610 0.893948
O O16 0.316717 0.679390 0.750000
O O17 0.500000 0.731048 0.818249
#
# Coordination Sequence:
#
# PCOD8261374 Si02
#       6
#    16  16  16  16  16  16
#     4  10  21  37  58  83 110 142 180 224 277 331
#     4  10  21  34  50  77 111 142 174 220 274 325
#     4  10  20  35  56  81 109 144 184 224 270 326
#     4  10  20  36  56  79 111 148 186 229 275 322
#     4  11  22  36  56  80 110 146 187 228 271 326
#     4   9  18  34  56  81 109 141 178 221 271 327
#
# _framework density 9.2592590000000001
#
# number of rings (size 3 to 8) (size 9 to 14) (size 15 to 20)
#    0.000    2.000    1.667    2.000    0.000    5.000 
#    0.000    2.500    0.000    0.000    0.000    0.000 
#    0.000    0.000    0.000    0.000    0.000    0.000 
#
# Total GULP energy -595294.886216 kJ/mol
# GULP energy per Si atom -12401.976796 kJ/mol
# Density = 0.923818 g / cm^3
# Si number density = 9.259259 Si / 1000 Ang^3
#
#
#
# Elastic Constant Matrix: (Units=GPa)
#
#
# Indices 1 2 3 4 5 6 
#
# 1 33.9551 20.2510 36.1173 0.0000 0.0000 0.0000
# 2 20.2510 60.9558 46.7850 0.0000 0.0000 0.0000
# 3 36.1173 46.7850 140.2765 0.0000 0.0000 0.0000
# 4 0.0000 0.0000 0.0000 29.8913 0.0000 0.0000
# 5 0.0000 0.0000 0.0000 0.0000 29.0493 0.0000
# 6 0.0000 0.0000 0.0000 0.0000 0.0000 27.5493
#
#
#
# Elastic Compliance Matrix: (Units=1/GPa)
#
#
# Indices 1 2 3 4 5 6 
#
# 1 0.043157 -0.007808 -0.008507 0.000000 0.000000 0.000000
# 2 -0.007808 0.023462 -0.005815 0.000000 0.000000 0.000000
# 3 -0.008507 -0.005815 0.011259 0.000000 0.000000 0.000000
# 4 0.000000 0.000000 0.000000 0.033455 0.000000 0.000000
# 5 0.000000 0.000000 0.000000 0.000000 0.034424 0.000000
# 6 0.000000 0.000000 0.000000 0.000000 0.000000 0.036299
#
#
# Mechanical properties :
#
#
# Convention : Reuss Voigt Hill
#
# Bulk Modulus (GPa) = 29.74692 49.05489 39.40091
# Shear Modulus (GPa) = 21.05077 26.10025 23.57551
#
# Velocity S-wave (km/s) = 3.37522 3.75829 3.57189
# Velocity P-wave (km/s) = 5.59354 6.73648 6.19144
#
# Compressibility (1/GPa) = 0.03361692
#
# Stress axis : x y z
#
# Youngs Moduli (GPa) = 23.17145 42.62151 88.82112
#
# Poissons Ratio (x) = 0.33279 0.75565
# Poissons Ratio (y) = 0.18092 0.51648
# Poissons Ratio (z) = 0.19713 0.24784
#
# Static dielectric constant tensor:
#      x y z
#    x 3.292640 0.000000 0.000000 
#    y 0.000000 3.148290 0.000000 
#    z 0.000000 0.000000 3.583010 
# 
# 
# High freq. dielectric constant tensor:
#      x y z
#    x 1.713850 0.000000 0.000000 
#    y 0.000000 1.700430 0.000000 
#    z 0.000000 0.000000 1.727950 
# 
# From -- ./inp_files/51314.got.cif
#   From: 2010.03.12/outbox.ucp.g09.slc.cvg/sg63_26_cif.got.tgz:51314.got - 2010.05.04 19:38:17.
