data_PCOD8261832
_publ_section_title
;
Structure prediction by ZEFSAII (Michael W. Deem and Ramdas Pophale) SiO2 
 PCOD8261832
Probable space group: C M C A
;
_chemical_formula_sum "Si O2"
_cell_formula_units_Z 96
_cell_length_a 17.581256
_cell_length_b 14.046544
_cell_length_c 19.850817
_cell_angle_alpha 90.000000
_cell_angle_beta 90.000000
_cell_angle_gamma 90.000000
_cell_volume 4902.276100
_symmetry_space_group_name_H-M "C M C A"
_symmetry_group_IT_number 64
_symmetry_cell_setting 'orthorhombic'
loop_
_space_group_symop_operation_xyz
x,y,z
-x,1/2-y,1/2+z
x,-y,-z
-x,1/2+y,1/2-z
-x,-y,-z
x,1/2+y,1/2-z
-x,y,z
x,1/2-y,1/2+z
1/2+x,1/2+y,z
1/2-x,-y,1/2+z
1/2+x,1/2-y,-z
1/2-x,y,1/2-z
1/2-x,1/2-y,-z
1/2+x,y,1/2-z
1/2-x,1/2+y,z
1/2+x,-y,1/2+z
loop_
_atom_site_type_symbol
_atom_site_label
_atom_site_fract_x
_atom_site_fract_y
_atom_site_fract_z
Si Si1 0.589988 0.284711 0.052701
Si Si2 0.913796 0.531674 0.625362
Si Si3 0.834953 0.476263 0.234296
Si Si4 0.588610 0.644657 0.334303
Si Si5 0.412237 0.822540 0.594149
Si Si6 0.833519 0.257283 0.222045
O O1 0.500000 0.298722 0.052478
O O2 0.626844 0.379190 0.087833
O O3 0.613832 0.190478 0.094185
O O4 0.616341 0.273766 0.975303
O O5 0.880205 0.508559 0.697688
O O6 0.907238 0.435967 0.581229
O O7 0.000000 0.560673 0.638718
O O8 0.750000 0.507735 0.250000
O O9 0.866775 0.546167 0.176583
O O10 0.841001 0.369043 0.208164
O O11 0.500000 0.621017 0.333383
O O12 0.605398 0.722456 0.276605
O O13 0.500000 0.794261 0.612507
O O14 0.352642 0.792566 0.651457
O O15 0.750000 0.229901 0.250000
#
# Coordination Sequence:
#
# PCOD8261832 Si02
#       6
#    16  16  16  16  16  16
#     4   9  19  35  56  86 122 150 190 246 295 342
#     4  10  18  32  58  87 116 150 194 246 295 340
#     4  11  23  37  57  82 121 154 194 241 291 346
#     4  11  21  36  60  87 114 149 192 242 292 343
#     4  10  20  35  59  89 117 155 196 240 293 347
#     4  11  23  38  58  83 118 153 193 236 290 345
#
# _framework density 19.582740000000001
#
# number of rings (size 3 to 8) (size 9 to 14) (size 15 to 20)
#    0.000    1.667    3.333    2.000    0.000    4.000 
#    0.000    1.667    0.000    3.000    0.000    0.000 
#    0.000    0.000    0.000    0.000    0.000    0.000 
#
# Total GULP energy -595115.764104 kJ/mol
# GULP energy per Si atom -12398.245085 kJ/mol
# Density = 1.953817 g / cm^3
# Si number density = 19.582740 Si / 1000 Ang^3
#
#
#
# Elastic Constant Matrix: (Units=GPa)
#
#
# Indices 1 2 3 4 5 6 
#
# 1 59.7529 47.5499 30.9792 0.0000 0.0000 0.0000
# 2 47.5499 104.5345 37.2503 0.0000 0.0000 0.0000
# 3 30.9792 37.2503 115.0455 0.0000 0.0000 0.0000
# 4 0.0000 0.0000 0.0000 21.4530 0.0000 0.0000
# 5 0.0000 0.0000 0.0000 0.0000 16.6143 0.0000
# 6 0.0000 0.0000 0.0000 0.0000 0.0000 28.6777
#
#
#
# Elastic Compliance Matrix: (Units=1/GPa)
#
#
# Indices 1 2 3 4 5 6 
#
# 1 0.027633 -0.011212 -0.003811 0.000000 0.000000 0.000000
# 2 -0.011212 0.015363 -0.001955 0.000000 0.000000 0.000000
# 3 -0.003811 -0.001955 0.010351 0.000000 0.000000 0.000000
# 4 0.000000 0.000000 0.000000 0.046614 0.000000 0.000000
# 5 0.000000 0.000000 0.000000 0.000000 0.060189 0.000000
# 6 0.000000 0.000000 0.000000 0.000000 0.000000 0.034870
#
#
# Mechanical properties :
#
#
# Convention : Reuss Voigt Hill
#
# Bulk Modulus (GPa) = 51.56732 56.76574 54.16653
# Shear Modulus (GPa) = 21.23683 24.25257 22.74470
#
# Velocity S-wave (km/s) = 3.29670 3.52300 3.41173
# Velocity P-wave (km/s) = 6.39384 6.75273 6.57573
#
# Compressibility (1/GPa) = 0.01939213
#
# Stress axis : x y z
#
# Youngs Moduli (GPa) = 36.18816 65.09208 96.60457
#
# Poissons Ratio (x) = 0.72979 0.36815
# Poissons Ratio (y) = 0.40573 0.18889
# Poissons Ratio (z) = 0.13791 0.12727
#
# Static dielectric constant tensor:
#      x y z
#    x 3.396410 0.000000 0.000000 
#    y 0.000000 3.692610 0.000000 
#    z 0.000000 0.000000 3.886660 
# 
# 
# High freq. dielectric constant tensor:
#      x y z
#    x 1.741840 0.000000 0.000000 
#    y 0.000000 1.768800 0.000000 
#    z 0.000000 0.000000 1.755790 
# 
# From -- ./inp_files/39195.got.cif
#   From: 2010.03.12/outbox.cif.g09.slc.cpg/sg64_20_cif.got.tgz:39195.got - 2010.04.10 20:19:32.
