data_PCOD8261192
_publ_section_title
;
Structure prediction by ZEFSAII (Michael W. Deem and Ramdas Pophale) SiO2 
 PCOD8261192
Probable space group: C M C M
;
_chemical_formula_sum "Si O2"
_cell_formula_units_Z 80
_cell_length_a 25.117198
_cell_length_b 18.323302
_cell_length_c 8.763385
_cell_angle_alpha 90.000000
_cell_angle_beta 90.000000
_cell_angle_gamma 90.000000
_cell_volume 4033.172717
_symmetry_space_group_name_H-M "C M C M"
_symmetry_group_IT_number 63
_symmetry_cell_setting 'orthorhombic'
loop_
_space_group_symop_operation_xyz
x,y,z
-x,-y,1/2+z
x,-y,-z
-x,y,1/2-z
-x,-y,-z
x,y,1/2-z
-x,y,z
x,-y,1/2+z
1/2+x,1/2+y,z
1/2-x,1/2-y,1/2+z
1/2+x,1/2-y,-z
1/2-x,1/2+y,1/2-z
1/2-x,1/2-y,-z
1/2+x,1/2+y,1/2-z
1/2-x,1/2+y,z
1/2+x,1/2-y,1/2+z
loop_
_atom_site_type_symbol
_atom_site_label
_atom_site_fract_x
_atom_site_fract_y
_atom_site_fract_z
Si Si1 0.561510 0.340199 0.425986
Si Si2 0.061249 0.327150 0.926850
Si Si3 0.348913 0.079269 0.571025
Si Si4 0.153999 0.921471 0.570458
Si Si5 0.252793 0.670491 0.568832
O O1 0.576255 0.355077 0.250000
O O2 0.500000 0.357573 0.455960
O O3 0.574263 0.256508 0.468515
O O4 0.594611 0.393905 0.533959
O O5 0.073356 0.341679 0.750000
O O6 0.000000 0.344772 0.964392
O O7 0.096923 0.380013 0.027625
O O8 0.346843 0.069798 0.750000
O O9 0.298397 0.125173 0.511958
O O10 0.346928 0.000000 0.500000
O O11 0.163199 0.925077 0.750000
O O12 0.194197 0.865604 0.494073
O O13 0.164430 0.000000 0.500000
O O14 0.255445 0.675189 0.750000
O O15 0.250000 0.750000 0.500000
#
# Coordination Sequence:
#
# PCOD8261192 Si02
#       5
#    16  16  16  16  16
#     4   9  19  38  63  89 118 154 196 242 293 350
#     4   9  19  37  61  87 116 152 192 235 285 341
#     4  11  24  39  58  85 116 152 192 236 287 341
#     4  12  25  40  60  87 120 158 198 243 296 350
#     4  11  24  42  64  90 118 151 194 241 293 353
#
# _framework density 19.8355
#
# number of rings (size 3 to 8) (size 9 to 14) (size 15 to 20)
#    0.000    1.600    0.000    6.000    0.000   10.400 
#    0.000    2.000    0.000    0.000    0.000    0.000 
#    0.000    0.000    0.000    0.000    0.000    0.000 
#
# Total GULP energy -496214.617217 kJ/mol
# GULP energy per Si atom -12405.365430 kJ/mol
# Density = 1.979035 g / cm^3
# Si number density = 19.835500 Si / 1000 Ang^3
#
#
#
# Elastic Constant Matrix: (Units=GPa)
#
#
# Indices 1 2 3 4 5 6 
#
# 1 94.8342 49.7334 30.8840 0.0000 0.0000 0.0000
# 2 49.7334 124.4130 37.5025 0.0000 0.0000 0.0000
# 3 30.8840 37.5025 68.1752 0.0000 0.0000 0.0000
# 4 0.0000 0.0000 0.0000 32.8254 0.0000 0.0000
# 5 0.0000 0.0000 0.0000 0.0000 35.3724 0.0000
# 6 0.0000 0.0000 0.0000 0.0000 0.0000 26.5404
#
#
#
# Elastic Compliance Matrix: (Units=1/GPa)
#
#
# Indices 1 2 3 4 5 6 
#
# 1 0.014182 -0.004475 -0.003963 0.000000 0.000000 0.000000
# 2 -0.004475 0.011047 -0.004050 0.000000 0.000000 0.000000
# 3 -0.003963 -0.004050 0.018691 0.000000 0.000000 0.000000
# 4 0.000000 0.000000 0.000000 0.030464 0.000000 0.000000
# 5 0.000000 0.000000 0.000000 0.000000 0.028271 0.000000
# 6 0.000000 0.000000 0.000000 0.000000 0.000000 0.037678
#
#
# Mechanical properties :
#
#
# Convention : Reuss Voigt Hill
#
# Bulk Modulus (GPa) = 52.78399 58.18470 55.48435
# Shear Modulus (GPa) = 29.13346 30.23447 29.68396
#
# Velocity S-wave (km/s) = 3.83659 3.90841 3.87267
# Velocity P-wave (km/s) = 6.80401 7.05442 6.93035
#
# Compressibility (1/GPa) = 0.01894514
#
# Stress axis : x y z
#
# Youngs Moduli (GPa) = 70.51231 90.52053 53.50088
#
# Poissons Ratio (x) = 0.40504 0.21203
# Poissons Ratio (y) = 0.31551 0.21668
# Poissons Ratio (z) = 0.27945 0.36661
#
# Static dielectric constant tensor:
#      x y z
#    x 3.723850 0.000000 0.000000 
#    y 0.000000 3.663370 0.000000 
#    z 0.000000 0.000000 3.652240 
# 
# 
# High freq. dielectric constant tensor:
#      x y z
#    x 1.788150 0.000000 0.000000 
#    y 0.000000 1.782910 0.000000 
#    z 0.000000 0.000000 1.774520 
# 
# From -- ./inp_files/12038.got.cif
#   From: 2010.03.12/outbox.cif.g09.slc.cpg/sg63_7_cif.got.tgz:12038.got - 2010.04.10 19:34:48.
