data_PCOD8261620
_publ_section_title
;
Structure prediction by ZEFSAII (Michael W. Deem and Ramdas Pophale) SiO2 
 PCOD8261620
Probable space group: C M C A
;
_chemical_formula_sum "Si O2"
_cell_formula_units_Z 88
_cell_length_a 23.814274
_cell_length_b 10.424615
_cell_length_c 21.486241
_cell_angle_alpha 90.000000
_cell_angle_beta 90.000000
_cell_angle_gamma 90.000000
_cell_volume 5334.058980
_symmetry_space_group_name_H-M "C M C A"
_symmetry_group_IT_number 64
_symmetry_cell_setting 'orthorhombic'
loop_
_space_group_symop_operation_xyz
x,y,z
-x,1/2-y,1/2+z
x,-y,-z
-x,1/2+y,1/2-z
-x,-y,-z
x,1/2+y,1/2-z
-x,y,z
x,1/2-y,1/2+z
1/2+x,1/2+y,z
1/2-x,-y,1/2+z
1/2+x,1/2-y,-z
1/2-x,y,1/2-z
1/2-x,1/2-y,-z
1/2+x,y,1/2-z
1/2-x,1/2+y,z
1/2+x,-y,1/2+z
loop_
_atom_site_type_symbol
_atom_site_label
_atom_site_fract_x
_atom_site_fract_y
_atom_site_fract_z
Si Si1 0.061990 0.748419 0.703962
Si Si2 0.062370 0.460098 0.692471
Si Si3 0.678490 0.524244 0.139079
Si Si4 0.675141 0.264448 0.643616
Si Si5 0.256603 0.875683 0.959230
Si Si6 0.250000 0.129627 0.250000
O O1 0.069243 0.599625 0.726153
O O2 0.070374 0.842934 0.761108
O O3 0.108562 0.782340 0.652807
O O4 0.000000 0.768404 0.674474
O O5 0.111915 0.446175 0.642272
O O6 0.000000 0.451949 0.661499
O O7 0.689383 0.377752 0.120001
O O8 0.700637 0.611005 0.082591
O O9 0.710149 0.546131 0.204836
O O10 0.692049 0.362867 0.589392
O O11 0.708638 0.284770 0.708073
O O12 0.250000 0.750000 0.000000
O O13 0.269264 0.000000 0.000000
#
# Coordination Sequence:
#
# PCOD8261620 Si02
#       6
#    16  16  16  16  16   8
#     4   9  17  31  50  75 105 136 166 202 253 308
#     4   9  17  31  50  75 106 136 166 203 254 307
#     4  10  19  32  52  75 107 134 167 219 247 313
#     4  10  19  32  52  75 106 134 168 214 252 312
#     4  11  22  39  54  73  99 138 178 214 259 299
#     4  10  18  28  46  82 104 138 162 204 262 306
#
# _framework density 16.497755999999999
#
# number of rings (size 3 to 8) (size 9 to 14) (size 15 to 20)
#    0.000    2.182    3.636    0.545    0.000    0.000 
#    3.273    0.000    0.000    2.182    0.000    0.000 
#    0.000    0.000    0.000    0.000    0.000    0.000 
#
# Total GULP energy -545286.748635 kJ/mol
# GULP energy per Si atom -12392.880651 kJ/mol
# Density = 1.646021 g / cm^3
# Si number density = 16.497756 Si / 1000 Ang^3
#
#
#
# Elastic Constant Matrix: (Units=GPa)
#
#
# Indices 1 2 3 4 5 6 
#
# 1 123.5133 52.6208 50.7050 0.0000 0.0000 0.0000
# 2 52.6208 97.0517 48.2325 0.0000 0.0000 0.0000
# 3 50.7050 48.2325 88.1491 0.0000 0.0000 0.0000
# 4 0.0000 0.0000 0.0000 31.4294 0.0000 0.0000
# 5 0.0000 0.0000 0.0000 0.0000 15.4178 0.0000
# 6 0.0000 0.0000 0.0000 0.0000 0.0000 24.2693
#
#
#
# Elastic Compliance Matrix: (Units=1/GPa)
#
#
# Indices 1 2 3 4 5 6 
#
# 1 0.011684 -0.004113 -0.004470 0.000000 0.000000 0.000000
# 2 -0.004113 0.015600 -0.006170 0.000000 0.000000 0.000000
# 3 -0.004470 -0.006170 0.017292 0.000000 0.000000 0.000000
# 4 0.000000 0.000000 0.000000 0.031817 0.000000 0.000000
# 5 0.000000 0.000000 0.000000 0.000000 0.064860 0.000000
# 6 0.000000 0.000000 0.000000 0.000000 0.000000 0.041204
#
#
# Mechanical properties :
#
#
# Convention : Reuss Voigt Hill
#
# Bulk Modulus (GPa) = 66.36090 67.98121 67.17106
# Shear Modulus (GPa) = 23.04284 24.70035 23.87160
#
# Velocity S-wave (km/s) = 3.74133 3.87356 3.80802
# Velocity P-wave (km/s) = 7.67952 7.82954 7.75489
#
# Compressibility (1/GPa) = 0.01506911
#
# Stress axis : x y z
#
# Youngs Moduli (GPa) = 85.58885 64.10109 57.83137
#
# Poissons Ratio (x) = 0.26367 0.25851
# Poissons Ratio (y) = 0.35206 0.35682
# Poissons Ratio (z) = 0.38258 0.39550
#
# Static dielectric constant tensor:
#      x y z
#    x 3.382610 0.000000 0.000000 
#    y 0.000000 3.269940 0.000000 
#    z 0.000000 0.000000 2.873010 
# 
# 
# High freq. dielectric constant tensor:
#      x y z
#    x 1.646260 0.000000 0.000000 
#    y 0.000000 1.646470 0.000000 
#    z 0.000000 0.000000 1.599900 
# 
# From -- ./inp_files/41375.got.cif
#   From: 2010.03.12/outbox.cif.g09.slc.cpg/sg64_21_cif.got.tgz:41375.got - 2010.04.10 20:19:32.
