data_PCOD8261685
_publ_section_title
;
Structure prediction by ZEFSAII (Michael W. Deem and Ramdas Pophale) SiO2 
 PCOD8261685
Probable space group: C M C A
;
_chemical_formula_sum "Si O2"
_cell_formula_units_Z 80
_cell_length_a 16.785458
_cell_length_b 14.450238
_cell_length_c 14.585029
_cell_angle_alpha 90.000000
_cell_angle_beta 90.000000
_cell_angle_gamma 90.000000
_cell_volume 3537.655126
_symmetry_space_group_name_H-M "C M C A"
_symmetry_group_IT_number 64
_symmetry_cell_setting 'orthorhombic'
loop_
_space_group_symop_operation_xyz
x,y,z
-x,1/2-y,1/2+z
x,-y,-z
-x,1/2+y,1/2-z
-x,-y,-z
x,1/2+y,1/2-z
-x,y,z
x,1/2-y,1/2+z
1/2+x,1/2+y,z
1/2-x,-y,1/2+z
1/2+x,1/2-y,-z
1/2-x,y,1/2-z
1/2-x,1/2-y,-z
1/2+x,y,1/2-z
1/2-x,1/2+y,z
1/2+x,-y,1/2+z
loop_
_atom_site_type_symbol
_atom_site_label
_atom_site_fract_x
_atom_site_fract_y
_atom_site_fract_z
Si Si1 0.810824 0.640591 0.421691
Si Si2 0.412682 0.598804 0.547680
Si Si3 0.297041 0.496837 0.336473
Si Si4 0.906970 0.156649 0.256761
Si Si5 0.656797 0.250320 0.083849
O O1 0.766951 0.541924 0.407843
O O2 0.881268 0.660813 0.349180
O O3 0.748643 0.723093 0.403702
O O4 0.845212 0.652028 0.526521
O O5 0.413352 0.500000 0.500000
O O6 0.500000 0.619571 0.591044
O O7 0.343023 0.592100 0.623599
O O8 0.392452 0.676995 0.475849
O O9 0.250000 0.456939 0.250000
O O10 0.359640 0.575047 0.307254
O O11 0.885449 0.250710 0.315322
O O12 0.000000 0.135776 0.260861
#
# Coordination Sequence:
#
# PCOD8261685 Si02
#       5
#    16  16  16  16  16
#     4   9  19  33  50  71 103 138 173 210 252 317
#     4  11  19  30  54  84 108 129 167 226 276 307
#     4   9  18  34  51  74 105 141 178 210 256 319
#     4  10  18  30  50  73 100 134 174 215 255 302
#     4  10  19  33  52  76 104 137 171 215 267 312
#
# _framework density 22.613848000000001
#
# number of rings (size 3 to 8) (size 9 to 14) (size 15 to 20)
#    0.000    2.200    4.000    3.000    0.000    1.600 
#    0.000    7.000    0.000    0.000    0.000   12.600 
#    0.000    0.000    0.000    0.000    0.000    0.000 
#
# Total GULP energy -495557.545749 kJ/mol
# GULP energy per Si atom -12388.938644 kJ/mol
# Density = 2.256238 g / cm^3
# Si number density = 22.613848 Si / 1000 Ang^3
#
#
#
# Elastic Constant Matrix: (Units=GPa)
#
#
# Indices 1 2 3 4 5 6 
#
# 1 129.1206 14.1138 37.0249 0.0000 0.0000 0.0000
# 2 14.1138 25.4712 0.1804 0.0000 0.0000 0.0000
# 3 37.0249 0.1804 59.3784 0.0000 0.0000 0.0000
# 4 0.0000 0.0000 0.0000 20.7541 0.0000 0.0000
# 5 0.0000 0.0000 0.0000 0.0000 37.2159 0.0000
# 6 0.0000 0.0000 0.0000 0.0000 0.0000 0.7023
#
#
#
# Elastic Compliance Matrix: (Units=1/GPa)
#
#
# Indices 1 2 3 4 5 6 
#
# 1 0.010169 -0.005590 -0.006324 0.000000 0.000000 0.000000
# 2 -0.005590 0.042334 0.003357 0.000000 0.000000 0.000000
# 3 -0.006324 0.003357 0.020774 0.000000 0.000000 0.000000
# 4 0.000000 0.000000 0.000000 0.048183 0.000000 0.000000
# 5 0.000000 0.000000 0.000000 0.000000 0.026870 0.000000
# 6 0.000000 0.000000 0.000000 0.000000 0.000000 1.423846
#
#
# Mechanical properties :
#
#
# Convention : Reuss Voigt Hill
#
# Bulk Modulus (GPa) = 17.80525 35.17871 26.49198
# Shear Modulus (GPa) = 3.10943 22.57787 12.84365
#
# Velocity S-wave (km/s) = 1.17388 3.16319 2.38577
# Velocity P-wave (km/s) = 3.11898 5.37876 4.39654
#
# Compressibility (1/GPa) = 0.05616320
#
# Stress axis : x y z
#
# Youngs Moduli (GPa) = 98.33744 23.62180 48.13681
#
# Poissons Ratio (x) = 0.13205 0.30441
# Poissons Ratio (y) = 0.54971 -0.16159
# Poissons Ratio (z) = 0.62187 -0.07930
#
# Static dielectric constant tensor:
#      x y z
#    x 4.317880 0.000000 0.000000 
#    y 0.000000 3.838750 0.000000 
#    z 0.000000 0.000000 4.561040 
# 
# 
# High freq. dielectric constant tensor:
#      x y z
#    x 1.891830 0.000000 0.000000 
#    y 0.000000 1.841690 0.000000 
#    z 0.000000 0.000000 1.894630 
# 
# From -- ./inp_files/25305.got.cif
#   From: 2010.03.12/outbox.cif.g09.slc.cpg/sg64_13_cif.got.tgz:25305.got - 2010.04.10 20:19:32.
