data_PCOD8261029
_publ_section_title
;
Structure prediction by ZEFSAII (Michael W. Deem and Ramdas Pophale) SiO2 
 PCOD8261029
Probable space group: C M C M
;
_chemical_formula_sum "Si O2"
_cell_formula_units_Z 112
_cell_length_a 18.155237
_cell_length_b 11.781596
_cell_length_c 28.525599
_cell_angle_alpha 90.000000
_cell_angle_beta 90.000000
_cell_angle_gamma 90.000000
_cell_volume 6101.559094
_symmetry_space_group_name_H-M "C M C M"
_symmetry_group_IT_number 63
_symmetry_cell_setting 'orthorhombic'
loop_
_space_group_symop_operation_xyz
x,y,z
-x,-y,1/2+z
x,-y,-z
-x,y,1/2-z
-x,-y,-z
x,y,1/2-z
-x,y,z
x,-y,1/2+z
1/2+x,1/2+y,z
1/2-x,1/2-y,1/2+z
1/2+x,1/2-y,-z
1/2-x,1/2+y,1/2-z
1/2-x,1/2-y,-z
1/2+x,1/2+y,1/2-z
1/2-x,1/2+y,z
1/2+x,1/2-y,1/2+z
loop_
_atom_site_type_symbol
_atom_site_label
_atom_site_fract_x
_atom_site_fract_y
_atom_site_fract_z
Si Si1 0.663614 0.921124 0.544091
Si Si2 0.342118 0.566020 0.612231
Si Si3 0.915592 0.202223 0.966138
Si Si4 0.676974 0.659628 0.444728
Si Si5 0.585820 0.796630 0.303558
Si Si6 0.325826 0.118279 0.888076
Si Si7 0.084924 0.036942 0.196929
O O1 0.594584 0.838471 0.536347
O O2 0.735136 0.840339 0.548491
O O3 0.678144 0.000000 0.500000
O O4 0.648678 0.999433 0.589217
O O5 0.394654 0.651465 0.584306
O O6 0.345632 0.444813 0.587369
O O7 0.261767 0.619639 0.616868
O O8 0.370680 0.550198 0.664832
O O9 0.000000 0.175518 0.978272
O O10 0.864078 0.146251 0.005714
O O11 0.650431 0.776438 0.420813
O O12 0.599545 0.835835 0.250000
O O13 0.500000 0.810713 0.316495
O O14 0.634954 0.874107 0.337690
O O15 0.611265 0.666553 0.309851
O O16 0.098675 0.997717 0.250000
O O17 0.000000 0.029027 0.183296
#
# Coordination Sequence:
#
# PCOD8261029 Si02
#       7
#    16  16  16  16  16  16  16
#     4  11  22  39  58  78 113 155 193 229 276 333
#     4  11  22  36  59  83 113 147 188 236 280 331
#     4  12  25  38  55  82 118 152 189 230 278 339
#     4  11  21  39  58  81 110 151 191 235 278 325
#     4   9  19  37  60  86 114 142 181 235 285 332
#     4  11  21  36  63  83 111 151 188 229 281 333
#     4   9  18  34  57  83 111 143 180 230 288 334
#
# _framework density 18.355965000000001
#
# number of rings (size 3 to 8) (size 9 to 14) (size 15 to 20)
#    0.000    1.429    4.286    3.857    0.000    3.714 
#    0.000    0.000    0.000    0.857    0.000    2.000 
#    0.000    0.000    0.000    0.000    0.000    0.000 
#
# Total GULP energy -694594.317557 kJ/mol
# GULP energy per Si atom -12403.469956 kJ/mol
# Density = 1.831419 g / cm^3
# Si number density = 18.355965 Si / 1000 Ang^3
#
#
#
# Elastic Constant Matrix: (Units=GPa)
#
#
# Indices 1 2 3 4 5 6 
#
# 1 56.4243 32.3994 39.9392 0.0000 0.0000 0.0000
# 2 32.3994 62.1772 33.2812 0.0000 0.0000 0.0000
# 3 39.9392 33.2812 108.8431 0.0000 0.0000 0.0000
# 4 0.0000 0.0000 0.0000 30.7172 0.0000 0.0000
# 5 0.0000 0.0000 0.0000 0.0000 33.5086 0.0000
# 6 0.0000 0.0000 0.0000 0.0000 0.0000 13.0227
#
#
#
# Elastic Compliance Matrix: (Units=1/GPa)
#
#
# Indices 1 2 3 4 5 6 
#
# 1 0.029471 -0.011441 -0.007316 0.000000 0.000000 0.000000
# 2 -0.011441 0.023672 -0.003040 0.000000 0.000000 0.000000
# 3 -0.007316 -0.003040 0.012802 0.000000 0.000000 0.000000
# 4 0.000000 0.000000 0.000000 0.032555 0.000000 0.000000
# 5 0.000000 0.000000 0.000000 0.000000 0.029843 0.000000
# 6 0.000000 0.000000 0.000000 0.000000 0.000000 0.076789
#
#
# Mechanical properties :
#
#
# Convention : Reuss Voigt Hill
#
# Bulk Modulus (GPa) = 44.74103 48.74271 46.74187
# Shear Modulus (GPa) = 19.51793 23.57135 21.54464
#
# Velocity S-wave (km/s) = 3.26437 3.58736 3.42967
# Velocity P-wave (km/s) = 6.21572 6.61594 6.41895
#
# Compressibility (1/GPa) = 0.02235085
#
# Stress axis : x y z
#
# Youngs Moduli (GPa) = 33.93205 42.24418 78.11533
#
# Poissons Ratio (x) = 0.48331 0.57147
# Poissons Ratio (y) = 0.38821 0.23748
# Poissons Ratio (z) = 0.24824 0.12843
#
# Static dielectric constant tensor:
#      x y z
#    x 3.222490 0.000000 0.000000 
#    y 0.000000 3.322300 0.000000 
#    z 0.000000 0.000000 3.386300 
# 
# 
# High freq. dielectric constant tensor:
#      x y z
#    x 1.700700 0.000000 0.000000 
#    y 0.000000 1.706080 0.000000 
#    z 0.000000 0.000000 1.714140 
# 
# From -- ./inp_files/73414.got.cif
#   From: 2010.03.12/outbox.cif.g09.slc.cpg/sg63_37_cif.got.tgz:73414.got - 2010.04.10 19:34:48.
