data_PCOD8261699
_publ_section_title
;
Structure prediction by ZEFSAII (Michael W. Deem and Ramdas Pophale) SiO2 
 PCOD8261699
Probable space group: C M C A
;
_chemical_formula_sum "Si O2"
_cell_formula_units_Z 64
_cell_length_a 20.885776
_cell_length_b 18.282544
_cell_length_c 8.532853
_cell_angle_alpha 90.000000
_cell_angle_beta 90.000000
_cell_angle_gamma 90.000000
_cell_volume 3258.228267
_symmetry_space_group_name_H-M "C M C A"
_symmetry_group_IT_number 64
_symmetry_cell_setting 'orthorhombic'
loop_
_space_group_symop_operation_xyz
x,y,z
-x,1/2-y,1/2+z
x,-y,-z
-x,1/2+y,1/2-z
-x,-y,-z
x,1/2+y,1/2-z
-x,y,z
x,1/2-y,1/2+z
1/2+x,1/2+y,z
1/2-x,-y,1/2+z
1/2+x,1/2-y,-z
1/2-x,y,1/2-z
1/2-x,1/2-y,-z
1/2+x,y,1/2-z
1/2-x,1/2+y,z
1/2+x,-y,1/2+z
loop_
_atom_site_type_symbol
_atom_site_label
_atom_site_fract_x
_atom_site_fract_y
_atom_site_fract_z
Si Si1 0.000000 0.342545 0.919205
Si Si2 0.630730 0.158663 0.965970
Si Si3 0.000000 0.681737 0.449467
Si Si4 0.870467 0.680594 0.596874
Si Si5 0.743560 0.578416 0.933942
O O1 0.000000 0.330548 0.734925
O O2 0.934275 0.382361 0.973468
O O3 0.000000 0.267437 0.016457
O O4 0.627144 0.173887 0.782594
O O5 0.690107 0.106625 0.009457
O O6 0.639442 0.234608 0.057427
O O7 0.063917 0.647276 0.525291
O O8 0.812328 0.635172 0.521873
O O9 0.750000 0.571646 0.750000
O O10 0.724796 0.500000 0.000000
#
# Coordination Sequence:
#
# PCOD8261699 Si02
#       5
#     8  16   8  16  16
#     4  10  18  30  51  80 107 136 170 212 260 308
#     4  10  19  34  55  81 107 136 172 215 260 309
#     4  10  18  30  51  80 107 136 170 212 260 308
#     4  10  19  34  55  81 107 136 172 215 260 309
#     4  10  23  38  54  76 106 140 177 216 260 308
#
# _framework density 19.642576999999999
#
# number of rings (size 3 to 8) (size 9 to 14) (size 15 to 20)
#    0.000    2.000    0.000    7.500    0.000    4.000 
#    0.000    1.250    0.000    0.000    0.000    0.000 
#    0.000    0.000    0.000    0.000    0.000    0.000 
#
# Total GULP energy -396744.797124 kJ/mol
# GULP energy per Si atom -12398.274910 kJ/mol
# Density = 1.959787 g / cm^3
# Si number density = 19.642577 Si / 1000 Ang^3
#
#
#
# Elastic Constant Matrix: (Units=GPa)
#
#
# Indices 1 2 3 4 5 6 
#
# 1 132.4604 16.8696 6.0340 0.0000 0.0000 0.0000
# 2 16.8696 43.7379 -6.2864 0.0000 0.0000 0.0000
# 3 6.0340 -6.2864 57.6652 0.0000 0.0000 0.0000
# 4 0.0000 0.0000 0.0000 16.5221 0.0000 0.0000
# 5 0.0000 0.0000 0.0000 0.0000 31.2242 0.0000
# 6 0.0000 0.0000 0.0000 0.0000 0.0000 8.5111
#
#
#
# Elastic Compliance Matrix: (Units=1/GPa)
#
#
# Indices 1 2 3 4 5 6 
#
# 1 0.008020 -0.003265 -0.001195 0.000000 0.000000 0.000000
# 2 -0.003265 0.024557 0.003019 0.000000 0.000000 0.000000
# 3 -0.001195 0.003019 0.017796 0.000000 0.000000 0.000000
# 4 0.000000 0.000000 0.000000 0.060525 0.000000 0.000000
# 5 0.000000 0.000000 0.000000 0.000000 0.032026 0.000000
# 6 0.000000 0.000000 0.000000 0.000000 0.000000 0.117494
#
#
# Mechanical properties :
#
#
# Convention : Reuss Voigt Hill
#
# Bulk Modulus (GPa) = 21.05741 29.67754 25.36748
# Shear Modulus (GPa) = 17.91280 25.73455 21.82368
#
# Velocity S-wave (km/s) = 3.02311 3.62351 3.33684
# Velocity P-wave (km/s) = 4.78844 5.71385 5.27149
#
# Compressibility (1/GPa) = 0.04748922
#
# Stress axis : x y z
#
# Youngs Moduli (GPa) = 124.69332 40.72225 56.19362
#
# Poissons Ratio (x) = 0.13296 0.06716
# Poissons Ratio (y) = 0.40712 -0.16963
# Poissons Ratio (z) = 0.14902 -0.12293
#
# Static dielectric constant tensor:
#      x y z
#    x 4.574370 0.000000 0.000000 
#    y 0.000000 3.542390 0.000000 
#    z 0.000000 0.000000 3.524040 
# 
# 
# High freq. dielectric constant tensor:
#      x y z
#    x 1.796270 0.000000 0.000000 
#    y 0.000000 1.716180 0.000000 
#    z 0.000000 0.000000 1.773850 
# 
# From -- ./inp_files/6649.got.cif
#   From: 2010.03.12/outbox.cif.g09.slc.cpg/sg64_4_cif.got.tgz:6649.got - 2010.04.10 20:19:32.
