data_PCOD8261217
_publ_section_title
;
Structure prediction by ZEFSAII (Michael W. Deem and Ramdas Pophale) SiO2 
 PCOD8261217
Probable space group: C M C M
;
_chemical_formula_sum "Si O2"
_cell_formula_units_Z 60
_cell_length_a 11.721664
_cell_length_b 16.562315
_cell_length_c 14.228347
_cell_angle_alpha 90.000000
_cell_angle_beta 90.000000
_cell_angle_gamma 90.000000
_cell_volume 2762.261286
_symmetry_space_group_name_H-M "C M C M"
_symmetry_group_IT_number 63
_symmetry_cell_setting 'orthorhombic'
loop_
_space_group_symop_operation_xyz
x,y,z
-x,-y,1/2+z
x,-y,-z
-x,y,1/2-z
-x,-y,-z
x,y,1/2-z
-x,y,z
x,-y,1/2+z
1/2+x,1/2+y,z
1/2-x,1/2-y,1/2+z
1/2+x,1/2-y,-z
1/2-x,1/2+y,1/2-z
1/2-x,1/2-y,-z
1/2+x,1/2+y,1/2-z
1/2-x,1/2+y,z
1/2+x,1/2-y,1/2+z
loop_
_atom_site_type_symbol
_atom_site_label
_atom_site_fract_x
_atom_site_fract_y
_atom_site_fract_z
Si Si1 0.873668 0.956363 0.597833
Si Si2 0.702473 0.817296 0.932365
Si Si3 0.253731 0.556852 0.750000
Si Si4 0.500000 0.093009 0.966841
Si Si5 0.500000 0.927099 0.250000
Si Si6 0.870189 0.223982 0.750000
O O1 0.807768 0.872339 0.599024
O O2 0.000000 0.937749 0.637235
O O3 0.882604 0.000000 0.500000
O O4 0.809947 0.022323 0.658266
O O5 0.644453 0.779189 0.841176
O O6 0.750000 0.750000 0.000000
O O7 0.612638 0.869264 0.989892
O O8 0.274858 0.653338 0.750000
O O9 0.121241 0.527194 0.750000
O O10 0.500000 0.114794 0.854195
O O11 0.500000 0.000000 0.000000
O O12 0.000000 0.188754 0.750000
#
# Coordination Sequence:
#
# PCOD8261217 Si02
#       6
#    16  16   8   8   4   8
#     4  11  24  44  71 102 140 185 239 298 361 440
#     4  12  26  44  72 107 148 192 246 311 379 448
#     4  12  25  46  72 105 140 190 241 300 367 445
#     4  12  26  46  72 106 145 200 253 307 380 460
#     4  12  24  42  70 104 146 182 246 306 362 448
#     4  12  25  47  71 101 143 191 247 303 376 447
#
# _framework density 21.721335
#
# number of rings (size 3 to 8) (size 9 to 14) (size 15 to 20)
#    0.000    0.267    1.333    9.200    1.867    3.200 
#    4.800    0.000    0.000    0.000    0.000    0.000 
#    0.000    0.000    0.000    0.000    0.000    0.000 
#
# Total GULP energy -371891.606080 kJ/mol
# GULP energy per Si atom -12396.386869 kJ/mol
# Density = 2.167190 g / cm^3
# Si number density = 21.721335 Si / 1000 Ang^3
#
#
#
# Elastic Constant Matrix: (Units=GPa)
#
#
# Indices 1 2 3 4 5 6 
#
# 1 196.7434 59.0816 55.6635 0.0000 0.0000 0.0000
# 2 59.0816 129.4734 47.1501 0.0000 0.0000 0.0000
# 3 55.6635 47.1501 155.6537 0.0000 0.0000 0.0000
# 4 0.0000 0.0000 0.0000 63.1845 0.0000 0.0000
# 5 0.0000 0.0000 0.0000 0.0000 56.1922 0.0000
# 6 0.0000 0.0000 0.0000 0.0000 0.0000 35.1451
#
#
#
# Elastic Compliance Matrix: (Units=1/GPa)
#
#
# Indices 1 2 3 4 5 6 
#
# 1 0.006197 -0.002271 -0.001528 0.000000 0.000000 0.000000
# 2 -0.002271 0.009514 -0.002070 0.000000 0.000000 0.000000
# 3 -0.001528 -0.002070 0.007598 0.000000 0.000000 0.000000
# 4 0.000000 0.000000 0.000000 0.015827 0.000000 0.000000
# 5 0.000000 0.000000 0.000000 0.000000 0.017796 0.000000
# 6 0.000000 0.000000 0.000000 0.000000 0.000000 0.028453
#
#
# Mechanical properties :
#
#
# Convention : Reuss Voigt Hill
#
# Bulk Modulus (GPa) = 86.42607 89.51788 87.97197
# Shear Modulus (GPa) = 49.51462 52.23606 50.87534
#
# Velocity S-wave (km/s) = 4.77963 4.90922 4.84486
# Velocity P-wave (km/s) = 8.38658 8.56945 8.47851
#
# Compressibility (1/GPa) = 0.01157058
#
# Stress axis : x y z
#
# Youngs Moduli (GPa) = 161.36281 105.11072 131.61511
#
# Poissons Ratio (x) = 0.23875 0.20113
# Poissons Ratio (y) = 0.36652 0.27239
# Poissons Ratio (z) = 0.24658 0.21754
#
# Static dielectric constant tensor:
#      x y z
#    x 4.420150 0.000000 0.000000 
#    y 0.000000 4.105230 0.000000 
#    z 0.000000 0.000000 4.231520 
# 
# 
# High freq. dielectric constant tensor:
#      x y z
#    x 1.881060 0.000000 0.000000 
#    y 0.000000 1.846130 0.000000 
#    z 0.000000 0.000000 1.880110 
# 
# From -- ./inp_files/29083.got.cif
#   From: 2010.03.12/outbox.cif.g09.slc.cpg/sg63_15_cif.got.tgz:29083.got - 2010.04.10 19:34:48.
