data_PCOD8261259
_publ_section_title
;
Structure prediction by ZEFSAII (Michael W. Deem and Ramdas Pophale) SiO2 
 PCOD8261259
Probable space group: C M C M
;
_chemical_formula_sum "Si O2"
_cell_formula_units_Z 48
_cell_length_a 9.756131
_cell_length_b 23.859093
_cell_length_c 9.696343
_cell_angle_alpha 90.000000
_cell_angle_beta 90.000000
_cell_angle_gamma 90.000000
_cell_volume 2257.041389
_symmetry_space_group_name_H-M "C M C M"
_symmetry_group_IT_number 63
_symmetry_cell_setting 'orthorhombic'
loop_
_space_group_symop_operation_xyz
x,y,z
-x,-y,1/2+z
x,-y,-z
-x,y,1/2-z
-x,-y,-z
x,y,1/2-z
-x,y,z
x,-y,1/2+z
1/2+x,1/2+y,z
1/2-x,1/2-y,1/2+z
1/2+x,1/2-y,-z
1/2-x,1/2+y,1/2-z
1/2-x,1/2-y,-z
1/2+x,1/2+y,1/2-z
1/2-x,1/2+y,z
1/2+x,1/2-y,1/2+z
loop_
_atom_site_type_symbol
_atom_site_label
_atom_site_fract_x
_atom_site_fract_y
_atom_site_fract_z
Si Si1 0.240366 0.374432 0.029640
Si Si2 0.155848 0.462390 0.250000
Si Si3 0.000000 0.705581 0.916172
Si Si4 0.335607 0.571578 0.250000
Si Si5 0.000000 0.809678 0.102749
O O1 0.175363 0.425768 0.113145
O O2 0.132016 0.324287 0.020763
O O3 0.371573 0.350766 0.105963
O O4 0.282890 0.393955 0.879271
O O5 0.268586 0.510578 0.250000
O O6 0.000000 0.486267 0.250000
O O7 0.000000 0.705015 0.750000
O O8 0.000000 0.769190 0.970679
O O9 0.500000 0.565136 0.250000
O O10 0.000000 0.776566 0.250000
#
# Coordination Sequence:
#
# PCOD8261259 Si02
#       5
#    16   8   8   8   8
#     4  12  25  48  71 104 150 183 232 299 355 417
#     4  12  26  50  75 104 144 188 239 292 359 420
#     4  12  26  48  75 105 144 188 239 295 353 420
#     4  12  30  44  73 110 142 188 239 294 347 432
#     4  12  26  44  75 107 140 194 235 289 359 420
#
# _framework density 21.266777999999999
#
# number of rings (size 3 to 8) (size 9 to 14) (size 15 to 20)
#    0.000    0.000    6.667    2.000    9.333    2.667 
#    0.000    0.000    0.000    0.000    0.000    0.000 
#    0.000    0.000    0.000    0.000    0.000    0.000 
#
# Total GULP energy -297695.609027 kJ/mol
# GULP energy per Si atom -12403.983709 kJ/mol
# Density = 2.121837 g / cm^3
# Si number density = 21.266778 Si / 1000 Ang^3
#
#
#
# Elastic Constant Matrix: (Units=GPa)
#
#
# Indices 1 2 3 4 5 6 
#
# 1 146.4881 26.4832 49.9884 0.0000 0.0000 0.0000
# 2 26.4832 79.2832 47.0799 0.0000 0.0000 0.0000
# 3 49.9884 47.0799 155.6380 0.0000 0.0000 0.0000
# 4 0.0000 0.0000 0.0000 35.7009 0.0000 0.0000
# 5 0.0000 0.0000 0.0000 0.0000 14.5438 0.0000
# 6 0.0000 0.0000 0.0000 0.0000 0.0000 37.8027
#
#
#
# Elastic Compliance Matrix: (Units=1/GPa)
#
#
# Indices 1 2 3 4 5 6 
#
# 1 0.007785 -0.001360 -0.002089 0.000000 0.000000 0.000000
# 2 -0.001360 0.015612 -0.004286 0.000000 0.000000 0.000000
# 3 -0.002089 -0.004286 0.008393 0.000000 0.000000 0.000000
# 4 0.000000 0.000000 0.000000 0.028010 0.000000 0.000000
# 5 0.000000 0.000000 0.000000 0.000000 0.068758 0.000000
# 6 0.000000 0.000000 0.000000 0.000000 0.000000 0.026453
#
#
# Mechanical properties :
#
#
# Convention : Reuss Voigt Hill
#
# Bulk Modulus (GPa) = 61.27346 69.83472 65.55409
# Shear Modulus (GPa) = 28.42171 34.80000 31.61085
#
# Velocity S-wave (km/s) = 3.65970 4.04958 3.85956
# Velocity P-wave (km/s) = 6.83610 7.40096 7.12413
#
# Compressibility (1/GPa) = 0.01632028
#
# Stress axis : x y z
#
# Youngs Moduli (GPa) = 128.44787 64.05200 119.15248
#
# Poissons Ratio (x) = 0.08711 0.24892
# Poissons Ratio (y) = 0.17469 0.51067
# Poissons Ratio (z) = 0.26834 0.27452
#
# Static dielectric constant tensor:
#      x y z
#    x 4.172600 0.000000 0.000000 
#    y 0.000000 3.797200 0.000000 
#    z 0.000000 0.000000 3.989790 
# 
# 
# High freq. dielectric constant tensor:
#      x y z
#    x 1.859330 0.000000 0.000000 
#    y 0.000000 1.832790 0.000000 
#    z 0.000000 0.000000 1.850470 
# 
# From -- ./inp_files/2020.got.cif
#   From: 2010.03.12/outbox.cif.g09.slc.cpg/sg63_2_cif.got.tgz:2020.got - 2010.04.10 19:34:48.
