data_PCOD8261819
_publ_section_title
;
Structure prediction by ZEFSAII (Michael W. Deem and Ramdas Pophale) SiO2 
 PCOD8261819
Probable space group: C M C A
;
_chemical_formula_sum "Si O2"
_cell_formula_units_Z 80
_cell_length_a 24.700006
_cell_length_b 19.920011
_cell_length_c 8.774683
_cell_angle_alpha 90.000000
_cell_angle_beta 90.000000
_cell_angle_gamma 90.000000
_cell_volume 4317.358061
_symmetry_space_group_name_H-M "C M C A"
_symmetry_group_IT_number 64
_symmetry_cell_setting 'orthorhombic'
loop_
_space_group_symop_operation_xyz
x,y,z
-x,1/2-y,1/2+z
x,-y,-z
-x,1/2+y,1/2-z
-x,-y,-z
x,1/2+y,1/2-z
-x,y,z
x,1/2-y,1/2+z
1/2+x,1/2+y,z
1/2-x,-y,1/2+z
1/2+x,1/2-y,-z
1/2-x,y,1/2-z
1/2-x,1/2-y,-z
1/2+x,y,1/2-z
1/2-x,1/2+y,z
1/2+x,-y,1/2+z
loop_
_atom_site_type_symbol
_atom_site_label
_atom_site_fract_x
_atom_site_fract_y
_atom_site_fract_z
Si Si1 0.382516 0.784553 0.481916
Si Si2 0.216598 0.935833 0.397749
Si Si3 0.500000 0.720085 0.959082
Si Si4 0.000000 0.658233 0.856597
Si Si5 0.616915 0.153860 0.843482
Si Si6 0.229309 0.317512 0.579765
O O1 0.443479 0.810608 0.527567
O O2 0.377748 0.704113 0.511947
O O3 0.372226 0.799419 0.303864
O O4 0.336161 0.821669 0.579515
O O5 0.250000 0.958494 0.250000
O O6 0.158799 0.906499 0.348621
O O7 0.250199 0.881077 0.488397
O O8 0.205388 0.000000 0.500000
O O9 0.500000 0.799932 0.987127
O O10 0.500000 0.713868 0.777572
O O11 0.056836 0.618046 0.842242
O O12 0.250000 0.319857 0.750000
O O13 0.250000 0.250000 0.500000
#
# Coordination Sequence:
#
# PCOD8261819 Si02
#       6
#    16  16   8   8  16  16
#     4  10  18  32  55  85 117 146 185 227 277 328
#     4  12  25  42  56  79 112 152 193 241 294 350
#     4   8  16  28  48  80 116 148 175 224 274 324
#     4   8  16  30  51  82 114 148 180 225 278 331
#     4  10  19  34  57  85 117 148 187 230 282 339
#     4  12  22  35  58  87 115 147 190 236 284 342
#
# _framework density 18.529851000000001
#
# number of rings (size 3 to 8) (size 9 to 14) (size 15 to 20)
#    0.000    1.600    4.000    2.400    0.000    0.000 
#    0.000    0.500    0.000    0.000    0.000    5.600 
#    0.000    0.000    0.000    0.000    0.000    0.000 
#
# Total GULP energy -495555.712008 kJ/mol
# GULP energy per Si atom -12388.892800 kJ/mol
# Density = 1.848768 g / cm^3
# Si number density = 18.529851 Si / 1000 Ang^3
#
#
#
# Elastic Constant Matrix: (Units=GPa)
#
#
# Indices 1 2 3 4 5 6 
#
# 1 191.5674 50.9799 49.7454 0.0000 0.0000 0.0000
# 2 50.9799 69.9783 34.8540 0.0000 0.0000 0.0000
# 3 49.7454 34.8540 92.8411 0.0000 0.0000 0.0000
# 4 0.0000 0.0000 0.0000 23.0789 0.0000 0.0000
# 5 0.0000 0.0000 0.0000 0.0000 25.7066 0.0000
# 6 0.0000 0.0000 0.0000 0.0000 0.0000 12.3142
#
#
#
# Elastic Compliance Matrix: (Units=1/GPa)
#
#
# Indices 1 2 3 4 5 6 
#
# 1 0.006823 -0.003874 -0.002201 0.000000 0.000000 0.000000
# 2 -0.003874 0.019776 -0.005349 0.000000 0.000000 0.000000
# 3 -0.002201 -0.005349 0.013959 0.000000 0.000000 0.000000
# 4 0.000000 0.000000 0.000000 0.043330 0.000000 0.000000
# 5 0.000000 0.000000 0.000000 0.000000 0.038901 0.000000
# 6 0.000000 0.000000 0.000000 0.000000 0.000000 0.081207
#
#
# Mechanical properties :
#
#
# Convention : Reuss Voigt Hill
#
# Bulk Modulus (GPa) = 56.46616 69.50505 62.98561
# Shear Modulus (GPa) = 21.48267 26.80711 24.14489
#
# Velocity S-wave (km/s) = 3.40862 3.80768 3.61366
# Velocity P-wave (km/s) = 6.78460 7.54469 7.17472
#
# Compressibility (1/GPa) = 0.01770972
#
# Stress axis : x y z
#
# Youngs Moduli (GPa) = 146.57027 50.56534 71.64071
#
# Poissons Ratio (x) = 0.19589 0.15770
# Poissons Ratio (y) = 0.56781 0.38318
# Poissons Ratio (z) = 0.32265 0.27046
#
# Static dielectric constant tensor:
#      x y z
#    x 4.138710 0.000000 0.000000 
#    y 0.000000 2.932210 0.000000 
#    z 0.000000 0.000000 3.591230 
# 
# 
# High freq. dielectric constant tensor:
#      x y z
#    x 1.756030 0.000000 0.000000 
#    y 0.000000 1.653080 0.000000 
#    z 0.000000 0.000000 1.724070 
# 
# From -- ./inp_files/9279.got.cif
#   From: 2010.03.12/outbox.cif.g09.slc.cpg/sg64_5_cif.got.tgz:9279.got - 2010.04.10 20:19:32.
