data_PCOD8261558
_publ_section_title
;
Structure prediction by ZEFSAII (Michael W. Deem and Ramdas Pophale) SiO2 
 PCOD8261558
Probable space group: C M C A
;
_chemical_formula_sum "Si O2"
_cell_formula_units_Z 112
_cell_length_a 17.698262
_cell_length_b 20.597713
_cell_length_c 18.141137
_cell_angle_alpha 90.000000
_cell_angle_beta 90.000000
_cell_angle_gamma 90.000000
_cell_volume 6613.237590
_symmetry_space_group_name_H-M "C M C A"
_symmetry_group_IT_number 64
_symmetry_cell_setting 'orthorhombic'
loop_
_space_group_symop_operation_xyz
x,y,z
-x,1/2-y,1/2+z
x,-y,-z
-x,1/2+y,1/2-z
-x,-y,-z
x,1/2+y,1/2-z
-x,y,z
x,1/2-y,1/2+z
1/2+x,1/2+y,z
1/2-x,-y,1/2+z
1/2+x,1/2-y,-z
1/2-x,y,1/2-z
1/2-x,1/2-y,-z
1/2+x,y,1/2-z
1/2-x,1/2+y,z
1/2+x,-y,1/2+z
loop_
_atom_site_type_symbol
_atom_site_label
_atom_site_fract_x
_atom_site_fract_y
_atom_site_fract_z
Si Si1 0.175335 0.832812 0.680405
Si Si2 0.844295 0.623691 0.334153
Si Si3 0.911519 0.233523 0.440893
Si Si4 0.087852 0.247647 0.608973
Si Si5 0.588350 0.501172 0.086563
Si Si6 0.669278 0.805348 0.242580
Si Si7 0.587849 0.637078 0.867512
O O1 0.138232 0.877777 0.745298
O O2 0.255820 0.860537 0.655028
O O3 0.124797 0.825203 0.606820
O O4 0.182779 0.763218 0.718263
O O5 0.894614 0.676802 0.376996
O O6 0.863433 0.555335 0.371134
O O7 0.892542 0.225121 0.526477
O O8 0.878772 0.304195 0.417259
O O9 0.000000 0.230861 0.424587
O O10 0.141108 0.202853 0.659285
O O11 0.000000 0.235926 0.627041
O O12 0.500000 0.511304 0.105688
O O13 0.622592 0.432481 0.112970
O O14 0.602237 0.500000 0.000000
O O15 0.750000 0.842163 0.250000
O O16 0.605463 0.847678 0.282577
O O17 0.500000 0.632266 0.882365
#
# Coordination Sequence:
#
# PCOD8261558 Si02
#       7
#    16  16  16  16  16  16  16
#     4   9  18  33  49  71 103 128 166 202 243 295
#     4  10  18  32  50  71  99 135 166 202 243 295
#     4   9  18  31  50  76 103 129 159 201 250 297
#     4  10  18  29  49  76 100 130 164 198 246 299
#     4  10  20  34  50  72  99 127 163 205 244 291
#     4  10  17  33  47  71 100 128 159 199 243 293
#     4   9  18  32  49  70  97 128 160 198 242 289
#
# _framework density 16.935728000000001
#
# number of rings (size 3 to 8) (size 9 to 14) (size 15 to 20)
#    0.000    2.429    2.857    1.714    0.000    6.857 
#    5.143    0.000    0.000    0.000    0.000    0.000 
#    0.000    5.143    0.000    0.000    0.000    0.000 
#
# Total GULP energy -693982.571856 kJ/mol
# GULP energy per Si atom -12392.545926 kJ/mol
# Density = 1.689718 g / cm^3
# Si number density = 16.935728 Si / 1000 Ang^3
#
#
#
# Elastic Constant Matrix: (Units=GPa)
#
#
# Indices 1 2 3 4 5 6 
#
# 1 63.7379 32.9516 56.5466 0.0000 0.0000 0.0000
# 2 32.9516 82.1835 56.4452 0.0000 0.0000 0.0000
# 3 56.5466 56.4452 131.0052 0.0000 0.0000 0.0000
# 4 0.0000 0.0000 0.0000 22.6323 0.0000 0.0000
# 5 0.0000 0.0000 0.0000 0.0000 18.2796 0.0000
# 6 0.0000 0.0000 0.0000 0.0000 0.0000 20.6303
#
#
#
# Elastic Compliance Matrix: (Units=1/GPa)
#
#
# Indices 1 2 3 4 5 6 
#
# 1 0.026277 -0.003900 -0.009662 0.000000 0.000000 0.000000
# 2 -0.003900 0.017861 -0.006012 0.000000 0.000000 0.000000
# 3 -0.009662 -0.006012 0.014394 0.000000 0.000000 0.000000
# 4 0.000000 0.000000 0.000000 0.044185 0.000000 0.000000
# 5 0.000000 0.000000 0.000000 0.000000 0.054706 0.000000
# 6 0.000000 0.000000 0.000000 0.000000 0.000000 0.048473
#
#
# Mechanical properties :
#
#
# Convention : Reuss Voigt Hill
#
# Bulk Modulus (GPa) = 51.58841 63.20149 57.39495
# Shear Modulus (GPa) = 19.88036 21.04066 20.46051
#
# Velocity S-wave (km/s) = 3.42990 3.52857 3.47958
# Velocity P-wave (km/s) = 6.79801 7.34850 7.07861
#
# Compressibility (1/GPa) = 0.01938420
#
# Stress axis : x y z
#
# Youngs Moduli (GPa) = 38.05575 55.98821 69.47261
#
# Poissons Ratio (x) = 0.21835 0.67124
# Poissons Ratio (y) = 0.14841 0.41769
# Poissons Ratio (z) = 0.36769 0.33661
#
# Static dielectric constant tensor:
#      x y z
#    x 3.149070 0.000000 0.000000 
#    y 0.000000 3.029760 0.000000 
#    z 0.000000 0.000000 3.364050 
# 
# 
# High freq. dielectric constant tensor:
#      x y z
#    x 1.647000 0.000000 0.000000 
#    y 0.000000 1.618490 0.000000 
#    z 0.000000 0.000000 1.660050 
# 
# From -- ./inp_files/33556.got.cif
#   From: 2010.03.12/outbox.cif.g09.slc.cpg/sg64_17_cif.got.tgz:33556.got - 2010.04.10 20:19:32.
