data_PCOD8261893
_publ_section_title
;
Structure prediction by ZEFSAII (Michael W. Deem and Ramdas Pophale) SiO2 
 PCOD8261893
Probable space group: C M C A
;
_chemical_formula_sum "Si O2"
_cell_formula_units_Z 80
_cell_length_a 14.050931
_cell_length_b 17.988843
_cell_length_c 17.885016
_cell_angle_alpha 90.000000
_cell_angle_beta 90.000000
_cell_angle_gamma 90.000000
_cell_volume 4520.616497
_symmetry_space_group_name_H-M "C M C A"
_symmetry_group_IT_number 64
_symmetry_cell_setting 'orthorhombic'
loop_
_space_group_symop_operation_xyz
x,y,z
-x,1/2-y,1/2+z
x,-y,-z
-x,1/2+y,1/2-z
-x,-y,-z
x,1/2+y,1/2-z
-x,y,z
x,1/2-y,1/2+z
1/2+x,1/2+y,z
1/2-x,-y,1/2+z
1/2+x,1/2-y,-z
1/2-x,y,1/2-z
1/2-x,1/2-y,-z
1/2+x,y,1/2-z
1/2-x,1/2+y,z
1/2+x,-y,1/2+z
loop_
_atom_site_type_symbol
_atom_site_label
_atom_site_fract_x
_atom_site_fract_y
_atom_site_fract_z
Si Si1 0.392080 0.197500 0.974707
Si Si2 0.267012 0.971736 0.663502
Si Si3 0.606831 0.563765 0.938881
Si Si4 0.606573 0.964496 0.075035
Si Si5 0.790023 0.160957 0.054981
O O1 0.500000 0.210563 0.004217
O O2 0.389563 0.124487 0.923012
O O3 0.356145 0.267846 0.925916
O O4 0.319952 0.185960 0.044388
O O5 0.250000 0.957963 0.750000
O O6 0.296582 0.894471 0.624591
O O7 0.344900 0.033576 0.637955
O O8 0.163618 0.001506 0.642627
O O9 0.500000 0.592553 0.920006
O O10 0.600476 0.500000 0.000000
O O11 0.671490 0.628120 0.975688
O O12 0.500000 0.995150 0.081972
O O13 0.653645 0.000000 0.000000
#
# Coordination Sequence:
#
# PCOD8261893 Si02
#       5
#    16  16  16  16  16
#     4  10  19  32  58  83 102 134 180 233 276 311
#     4  11  21  34  51  80 114 146 177 216 274 332
#     4   9  17  32  53  76 105 139 179 224 265 313
#     4  10  18  34  57  79 104 135 182 229 265 314
#     4  10  19  34  55  81 108 138 187 230 269 322
#
# _framework density 17.696701999999998
#
# number of rings (size 3 to 8) (size 9 to 14) (size 15 to 20)
#    0.000    2.000    4.000    1.200    0.000    1.600 
#    0.000    1.000    0.000    0.000    0.000    0.000 
#    0.000    0.000    0.000    0.000    0.000    0.000 
#
# Total GULP energy -495730.911383 kJ/mol
# GULP energy per Si atom -12393.272785 kJ/mol
# Density = 1.765642 g / cm^3
# Si number density = 17.696702 Si / 1000 Ang^3
#
#
#
# Elastic Constant Matrix: (Units=GPa)
#
#
# Indices 1 2 3 4 5 6 
#
# 1 133.9758 39.2299 44.3908 0.0000 0.0000 0.0000
# 2 39.2299 107.2804 41.9522 0.0000 0.0000 0.0000
# 3 44.3908 41.9522 99.8119 0.0000 0.0000 0.0000
# 4 0.0000 0.0000 0.0000 14.8303 0.0000 0.0000
# 5 0.0000 0.0000 0.0000 0.0000 15.3930 0.0000
# 6 0.0000 0.0000 0.0000 0.0000 0.0000 28.5430
#
#
#
# Elastic Compliance Matrix: (Units=1/GPa)
#
#
# Indices 1 2 3 4 5 6 
#
# 1 0.009131 -0.002095 -0.003180 0.000000 0.000000 0.000000
# 2 -0.002095 0.011636 -0.003959 0.000000 0.000000 0.000000
# 3 -0.003180 -0.003959 0.013097 0.000000 0.000000 0.000000
# 4 0.000000 0.000000 0.000000 0.067430 0.000000 0.000000
# 5 0.000000 0.000000 0.000000 0.000000 0.064965 0.000000
# 6 0.000000 0.000000 0.000000 0.000000 0.000000 0.035035
#
#
# Mechanical properties :
#
#
# Convention : Reuss Voigt Hill
#
# Bulk Modulus (GPa) = 64.95522 65.80153 65.37838
# Shear Modulus (GPa) = 22.23268 26.11961 24.17614
#
# Velocity S-wave (km/s) = 3.54830 3.84599 3.70014
# Velocity P-wave (km/s) = 7.31927 7.54890 7.43497
#
# Compressibility (1/GPa) = 0.01539522
#
# Stress axis : x y z
#
# Youngs Moduli (GPa) = 109.51253 85.94269 76.35226
#
# Poissons Ratio (x) = 0.18009 0.24283
# Poissons Ratio (y) = 0.22948 0.30225
# Poissons Ratio (z) = 0.34829 0.34022
#
# Static dielectric constant tensor:
#      x y z
#    x 3.665220 0.000000 0.000000 
#    y 0.000000 3.473650 0.000000 
#    z 0.000000 0.000000 2.848570 
# 
# 
# High freq. dielectric constant tensor:
#      x y z
#    x 1.709880 0.000000 0.000000 
#    y 0.000000 1.692960 0.000000 
#    z 0.000000 0.000000 1.617640 
# 
# From -- ./inp_files/32027.got.cif
#   From: 2010.03.12/outbox.cif.g09.slc.cpg/sg64_17_cif.got.tgz:32027.got - 2010.04.10 20:19:32.
