data_PCOD8261407
_publ_section_title
;
Structure prediction by ZEFSAII (Michael W. Deem and Ramdas Pophale) SiO2 
 PCOD8261407
Probable space group: C M C A
;
_chemical_formula_sum "Si O2"
_cell_formula_units_Z 112
_cell_length_a 18.823531
_cell_length_b 17.049234
_cell_length_c 19.613375
_cell_angle_alpha 90.000000
_cell_angle_beta 90.000000
_cell_angle_gamma 90.000000
_cell_volume 6294.457376
_symmetry_space_group_name_H-M "C M C A"
_symmetry_group_IT_number 64
_symmetry_cell_setting 'orthorhombic'
loop_
_space_group_symop_operation_xyz
x,y,z
-x,1/2-y,1/2+z
x,-y,-z
-x,1/2+y,1/2-z
-x,-y,-z
x,1/2+y,1/2-z
-x,y,z
x,1/2-y,1/2+z
1/2+x,1/2+y,z
1/2-x,-y,1/2+z
1/2+x,1/2-y,-z
1/2-x,y,1/2-z
1/2-x,1/2-y,-z
1/2+x,y,1/2-z
1/2-x,1/2+y,z
1/2+x,-y,1/2+z
loop_
_atom_site_type_symbol
_atom_site_label
_atom_site_fract_x
_atom_site_fract_y
_atom_site_fract_z
Si Si1 0.325898 0.708189 0.105364
Si Si2 0.581779 0.700967 0.976356
Si Si3 0.672550 0.341478 0.559279
Si Si4 0.804905 0.618512 0.908563
Si Si5 0.847984 0.550563 0.566987
Si Si6 0.164303 0.940326 0.815845
Si Si7 0.170534 0.469312 0.832618
O O1 0.255829 0.677513 0.066486
O O2 0.313986 0.797681 0.129414
O O3 0.343916 0.652890 0.169762
O O4 0.391385 0.702269 0.053848
O O5 0.500000 0.725138 0.974710
O O6 0.626201 0.763191 0.931554
O O7 0.590516 0.613869 0.945694
O O8 0.661657 0.377775 0.484156
O O9 0.644589 0.402600 0.615292
O O10 0.722544 0.596603 0.911523
O O11 0.847895 0.554172 0.864464
O O12 0.830814 0.500000 0.500000
O O13 0.875396 0.492592 0.626954
O O14 0.132406 0.958461 0.740869
O O15 0.246197 0.962751 0.820482
#
# Coordination Sequence:
#
# PCOD8261407 Si02
#       7
#    16  16  16  16  16  16  16
#     4  10  17  33  53  74 104 139 168 212 269 308
#     4  11  21  32  51  81 103 129 176 220 254 306
#     4  10  17  33  54  75 105 136 173 212 269 305
#     4  10  16  28  54  79 102 131 170 209 263 311
#     4  11  17  31  50  73 104 139 165 210 261 310
#     4   9  18  31  46  75 112 133 170 213 259 311
#     4   9  18  30  48  80 105 134 169 221 257 304
#
# _framework density 17.793433
#
# number of rings (size 3 to 8) (size 9 to 14) (size 15 to 20)
#    0.000    2.000    4.286    3.000    0.000    0.286 
#    2.571    2.857    0.000    8.571    0.000    0.000 
#    0.000    0.000    0.000    0.000    0.000    0.000 
#
# Total GULP energy -694269.776793 kJ/mol
# GULP energy per Si atom -12397.674586 kJ/mol
# Density = 1.775293 g / cm^3
# Si number density = 17.793433 Si / 1000 Ang^3
#
#
#
# Elastic Constant Matrix: (Units=GPa)
#
#
# Indices 1 2 3 4 5 6 
#
# 1 44.1229 12.3553 7.0943 0.0000 0.0000 0.0000
# 2 12.3553 151.0189 68.7491 0.0000 0.0000 0.0000
# 3 7.0943 68.7491 111.7274 0.0000 0.0000 0.0000
# 4 0.0000 0.0000 0.0000 25.3931 0.0000 0.0000
# 5 0.0000 0.0000 0.0000 0.0000 5.2251 0.0000
# 6 0.0000 0.0000 0.0000 0.0000 0.0000 10.1366
#
#
#
# Elastic Compliance Matrix: (Units=1/GPa)
#
#
# Indices 1 2 3 4 5 6 
#
# 1 0.023210 -0.001706 -0.000424 0.000000 0.000000 0.000000
# 2 -0.001706 0.009324 -0.005629 0.000000 0.000000 0.000000
# 3 -0.000424 -0.005629 0.012441 0.000000 0.000000 0.000000
# 4 0.000000 0.000000 0.000000 0.039381 0.000000 0.000000
# 5 0.000000 0.000000 0.000000 0.000000 0.191383 0.000000
# 6 0.000000 0.000000 0.000000 0.000000 0.000000 0.098652
#
#
# Mechanical properties :
#
#
# Convention : Reuss Voigt Hill
#
# Bulk Modulus (GPa) = 33.94790 53.69629 43.82209
# Shear Modulus (GPa) = 12.50856 22.72901 17.61878
#
# Velocity S-wave (km/s) = 2.65427 3.57793 3.15013
# Velocity P-wave (km/s) = 5.33983 6.87836 6.15734
#
# Compressibility (1/GPa) = 0.02945691
#
# Stress axis : x y z
#
# Youngs Moduli (GPa) = 43.08522 107.25380 80.38029
#
# Poissons Ratio (x) = 0.18295 0.03409
# Poissons Ratio (y) = 0.07349 0.45245
# Poissons Ratio (z) = 0.01827 0.60371
#
# Static dielectric constant tensor:
#      x y z
#    x 2.701520 0.000000 0.000000 
#    y 0.000000 3.680970 0.000000 
#    z 0.000000 0.000000 3.525190 
# 
# 
# High freq. dielectric constant tensor:
#      x y z
#    x 1.623230 0.000000 0.000000 
#    y 0.000000 1.710430 0.000000 
#    z 0.000000 0.000000 1.676060 
# 
# From -- ./inp_files/40391.got.cif
#   From: 2010.03.12/outbox.cif.g09.slc.cpg/sg64_21_cif.got.tgz:40391.got - 2010.04.10 20:19:32.
