data_PCOD8261581
_publ_section_title
;
Structure prediction by ZEFSAII (Michael W. Deem and Ramdas Pophale) SiO2 
 PCOD8261581
Probable space group: C M C A
;
_chemical_formula_sum "Si O2"
_cell_formula_units_Z 88
_cell_length_a 28.544947
_cell_length_b 9.976030
_cell_length_c 14.445343
_cell_angle_alpha 90.000000
_cell_angle_beta 90.000000
_cell_angle_gamma 90.000000
_cell_volume 4113.531676
_symmetry_space_group_name_H-M "C M C A"
_symmetry_group_IT_number 64
_symmetry_cell_setting 'orthorhombic'
loop_
_space_group_symop_operation_xyz
x,y,z
-x,1/2-y,1/2+z
x,-y,-z
-x,1/2+y,1/2-z
-x,-y,-z
x,1/2+y,1/2-z
-x,y,z
x,1/2-y,1/2+z
1/2+x,1/2+y,z
1/2-x,-y,1/2+z
1/2+x,1/2-y,-z
1/2-x,y,1/2-z
1/2-x,1/2-y,-z
1/2+x,y,1/2-z
1/2-x,1/2+y,z
1/2+x,-y,1/2+z
loop_
_atom_site_type_symbol
_atom_site_label
_atom_site_fract_x
_atom_site_fract_y
_atom_site_fract_z
Si Si1 0.802937 0.738035 0.362305
Si Si2 0.112047 0.283998 0.272436
Si Si3 0.052277 0.474627 0.798369
Si Si4 0.420749 0.500000 0.500000
Si Si5 0.845652 0.201850 0.450932
Si Si6 0.234898 0.516635 0.104384
O O1 0.849364 0.739990 0.301808
O O2 0.815160 0.724273 0.471511
O O3 0.771608 0.607680 0.337393
O O4 0.771663 0.872205 0.346589
O O5 0.087804 0.422735 0.248403
O O6 0.136657 0.304926 0.372537
O O7 0.071974 0.172073 0.277491
O O8 0.047915 0.501536 0.908097
O O9 0.000000 0.486496 0.756170
O O10 0.389227 0.633222 0.502050
O O11 0.815970 0.087115 0.398088
O O12 0.253695 0.500000 0.000000
#
# Coordination Sequence:
#
# PCOD8261581 Si02
#       6
#    16  16  16   8  16  16
#     4  11  21  40  58  88 127 168 212 258 310 363
#     4  11  24  40  67  93 126 169 208 264 322 382
#     4  11  23  42  67  97 125 160 211 268 326 389
#     4  10  17  38  70  90 120 164 216 252 313 390
#     4  10  18  37  63  89 123 166 213 252 311 368
#     4  10  20  36  61  85 123 170 216 261 294 361
#
# _framework density 21.392809
#
# number of rings (size 3 to 8) (size 9 to 14) (size 15 to 20)
#    0.000    1.455    4.545    4.091    0.000    3.636 
#    0.000    5.455    0.000    1.091    0.000    0.000 
#    0.000    0.000    0.000    0.000    0.000    0.000 
#
# Total GULP energy -545610.862927 kJ/mol
# GULP energy per Si atom -12400.246885 kJ/mol
# Density = 2.134412 g / cm^3
# Si number density = 21.392809 Si / 1000 Ang^3
#
#
#
# Elastic Constant Matrix: (Units=GPa)
#
#
# Indices 1 2 3 4 5 6 
#
# 1 104.6338 28.9458 20.7877 0.0000 0.0000 0.0000
# 2 28.9458 70.3427 22.3292 0.0000 0.0000 0.0000
# 3 20.7877 22.3292 68.9341 0.0000 0.0000 0.0000
# 4 0.0000 0.0000 0.0000 26.1615 0.0000 0.0000
# 5 0.0000 0.0000 0.0000 0.0000 20.4901 0.0000
# 6 0.0000 0.0000 0.0000 0.0000 0.0000 22.2024
#
#
#
# Elastic Compliance Matrix: (Units=1/GPa)
#
#
# Indices 1 2 3 4 5 6 
#
# 1 0.011044 -0.003887 -0.002071 0.000000 0.000000 0.000000
# 2 -0.003887 0.017214 -0.004404 0.000000 0.000000 0.000000
# 3 -0.002071 -0.004404 0.016558 0.000000 0.000000 0.000000
# 4 0.000000 0.000000 0.000000 0.038224 0.000000 0.000000
# 5 0.000000 0.000000 0.000000 0.000000 0.048804 0.000000
# 6 0.000000 0.000000 0.000000 0.000000 0.000000 0.045040
#
#
# Mechanical properties :
#
#
# Convention : Reuss Voigt Hill
#
# Bulk Modulus (GPa) = 41.50907 43.11511 42.31209
# Shear Modulus (GPa) = 24.31457 25.22731 24.77094
#
# Velocity S-wave (km/s) = 3.37497 3.43774 3.40650
# Velocity P-wave (km/s) = 5.88495 5.99626 5.94087
#
# Compressibility (1/GPa) = 0.02409112
#
# Stress axis : x y z
#
# Youngs Moduli (GPa) = 90.54717 58.09389 60.39494
#
# Poissons Ratio (x) = 0.22581 0.12510
# Poissons Ratio (y) = 0.35196 0.26596
# Poissons Ratio (z) = 0.18755 0.25583
#
# Static dielectric constant tensor:
#      x y z
#    x 3.708300 0.000000 0.000000 
#    y 0.000000 3.774360 0.000000 
#    z 0.000000 0.000000 3.863290 
# 
# 
# High freq. dielectric constant tensor:
#      x y z
#    x 1.837670 0.000000 0.000000 
#    y 0.000000 1.827200 0.000000 
#    z 0.000000 0.000000 1.836920 
# 
# From -- ./inp_files/27952.got.cif
#   From: 2010.03.12/outbox.cif.g09.slc.cpg/sg64_14_cif.got.tgz:27952.got - 2010.04.10 20:19:32.
