data_PCOD8261204
_publ_section_title
;
Structure prediction by ZEFSAII (Michael W. Deem and Ramdas Pophale) SiO2 
 PCOD8261204
Probable space group: C M C M
;
_chemical_formula_sum "Si O2"
_cell_formula_units_Z 64
_cell_length_a 12.039928
_cell_length_b 15.216065
_cell_length_c 17.288885
_cell_angle_alpha 90.000000
_cell_angle_beta 90.000000
_cell_angle_gamma 90.000000
_cell_volume 3167.329386
_symmetry_space_group_name_H-M "C M C M"
_symmetry_group_IT_number 63
_symmetry_cell_setting 'orthorhombic'
loop_
_space_group_symop_operation_xyz
x,y,z
-x,-y,1/2+z
x,-y,-z
-x,y,1/2-z
-x,-y,-z
x,y,1/2-z
-x,y,z
x,-y,1/2+z
1/2+x,1/2+y,z
1/2-x,1/2-y,1/2+z
1/2+x,1/2-y,-z
1/2-x,1/2+y,1/2-z
1/2-x,1/2-y,-z
1/2+x,1/2+y,1/2-z
1/2-x,1/2+y,z
1/2+x,1/2-y,1/2+z
loop_
_atom_site_type_symbol
_atom_site_label
_atom_site_fract_x
_atom_site_fract_y
_atom_site_fract_z
Si Si1 0.500000 0.884111 0.160611
Si Si2 0.265068 0.832413 0.399464
Si Si3 0.733547 0.861613 0.576943
Si Si4 0.872373 0.010703 0.838923
Si Si5 0.000000 0.446171 0.579275
O O1 0.500000 0.856079 0.250000
O O2 0.605765 0.847203 0.115985
O O3 0.500000 0.989319 0.153060
O O4 0.232980 0.852255 0.487714
O O5 0.244790 0.730719 0.378421
O O6 0.189058 0.895742 0.347598
O O7 0.606161 0.885740 0.585423
O O8 0.813409 0.935512 0.611458
O O9 0.865305 0.982246 0.750000
O O10 0.000000 0.019772 0.866027
O O11 0.000000 0.500000 0.500000
#
# Coordination Sequence:
#
# PCOD8261204 Si02
#       5
#     8  16  16  16   8
#     4  12  24  42  68  95 131 175 213 268 332 385
#     4  11  24  42  66  99 127 169 219 270 323 391
#     4  11  24  41  69  97 129 168 219 269 325 388
#     4  11  25  44  63  92 134 174 213 267 330 392
#     4  12  20  42  70  97 131 164 215 278 319 384
#
# _framework density 20.206296999999999
#
# number of rings (size 3 to 8) (size 9 to 14) (size 15 to 20)
#    0.000    0.750    5.000    1.500    3.500    4.000 
#    0.000    0.000    0.000    0.000    0.000    0.000 
#    0.000    0.000    0.000    0.000    0.000    0.000 
#
# Total GULP energy -396928.769041 kJ/mol
# GULP energy per Si atom -12404.024033 kJ/mol
# Density = 2.016031 g / cm^3
# Si number density = 20.206297 Si / 1000 Ang^3
#
#
#
# Elastic Constant Matrix: (Units=GPa)
#
#
# Indices 1 2 3 4 5 6 
#
# 1 162.0572 58.6820 16.4812 0.0000 0.0000 0.0000
# 2 58.6820 136.0287 17.8553 0.0000 0.0000 0.0000
# 3 16.4812 17.8553 63.9891 0.0000 0.0000 0.0000
# 4 0.0000 0.0000 0.0000 17.4457 0.0000 0.0000
# 5 0.0000 0.0000 0.0000 0.0000 68.4836 0.0000
# 6 0.0000 0.0000 0.0000 0.0000 0.0000 47.7161
#
#
#
# Elastic Compliance Matrix: (Units=1/GPa)
#
#
# Indices 1 2 3 4 5 6 
#
# 1 0.007381 -0.003046 -0.001051 0.000000 0.000000 0.000000
# 2 -0.003046 0.008888 -0.001696 0.000000 0.000000 0.000000
# 3 -0.001051 -0.001696 0.016371 0.000000 0.000000 0.000000
# 4 0.000000 0.000000 0.000000 0.057321 0.000000 0.000000
# 5 0.000000 0.000000 0.000000 0.000000 0.014602 0.000000
# 6 0.000000 0.000000 0.000000 0.000000 0.000000 0.020957
#
#
# Mechanical properties :
#
#
# Convention : Reuss Voigt Hill
#
# Bulk Modulus (GPa) = 47.49480 60.90135 54.19808
# Shear Modulus (GPa) = 34.69248 44.66617 39.67932
#
# Velocity S-wave (km/s) = 4.14806 4.70670 4.43619
# Velocity P-wave (km/s) = 6.81893 7.72934 7.28836
#
# Compressibility (1/GPa) = 0.02105493
#
# Stress axis : x y z
#
# Youngs Moduli (GPa) = 135.49200 112.51182 61.08181
#
# Poissons Ratio (x) = 0.34271 0.06420
# Poissons Ratio (y) = 0.41270 0.10357
# Poissons Ratio (z) = 0.14240 0.19077
#
# Static dielectric constant tensor:
#      x y z
#    x 3.869480 0.000000 0.000000 
#    y 0.000000 3.900690 0.000000 
#    z 0.000000 0.000000 3.789520 
# 
# 
# High freq. dielectric constant tensor:
#      x y z
#    x 1.804120 0.000000 0.000000 
#    y 0.000000 1.798730 0.000000 
#    z 0.000000 0.000000 1.786140 
# 
# From -- ./inp_files/41522.got.cif
#   From: 2010.03.12/outbox.cif.g09.slc.cpg/sg63_21_cif.got.tgz:41522.got - 2010.04.10 19:34:48.
