data_PCOD8261761
_publ_section_title
;
Structure prediction by ZEFSAII (Michael W. Deem and Ramdas Pophale) SiO2 
 PCOD8261761
Probable space group: C M C A
;
_chemical_formula_sum "Si O2"
_cell_formula_units_Z 96
_cell_length_a 8.973446
_cell_length_b 29.119605
_cell_length_c 20.493687
_cell_angle_alpha 90.000000
_cell_angle_beta 90.000000
_cell_angle_gamma 90.000000
_cell_volume 5355.066055
_symmetry_space_group_name_H-M "C M C A"
_symmetry_group_IT_number 64
_symmetry_cell_setting 'orthorhombic'
loop_
_space_group_symop_operation_xyz
x,y,z
-x,1/2-y,1/2+z
x,-y,-z
-x,1/2+y,1/2-z
-x,-y,-z
x,1/2+y,1/2-z
-x,y,z
x,1/2-y,1/2+z
1/2+x,1/2+y,z
1/2-x,-y,1/2+z
1/2+x,1/2-y,-z
1/2-x,y,1/2-z
1/2-x,1/2-y,-z
1/2+x,y,1/2-z
1/2-x,1/2+y,z
1/2+x,-y,1/2+z
loop_
_atom_site_type_symbol
_atom_site_label
_atom_site_fract_x
_atom_site_fract_y
_atom_site_fract_z
Si Si1 0.322321 0.528844 0.938678
Si Si2 0.175885 0.128869 0.129139
Si Si3 0.676504 0.782325 0.816195
Si Si4 0.675261 0.029274 0.317743
Si Si5 0.175240 0.275432 0.440323
Si Si6 0.176121 0.626226 0.519007
O O1 0.500000 0.527417 0.939264
O O2 0.263043 0.506263 0.871951
O O3 0.260640 0.580979 0.944777
O O4 0.260895 0.500000 0.000000
O O5 0.263183 0.167053 0.169476
O O6 0.218574 0.080491 0.160917
O O7 0.000000 0.138818 0.132805
O O8 0.235902 0.129503 0.054961
O O9 0.500000 0.784320 0.808324
O O10 0.750000 0.763563 0.750000
O O11 0.726785 0.747205 0.872764
O O12 0.500000 0.024359 0.309755
O O13 0.750000 0.015971 0.250000
O O14 0.250000 0.250000 0.500000
O O15 0.225315 0.328800 0.440495
O O16 0.000000 0.270902 0.450421
O O17 0.000000 0.621614 0.514889
#
# Coordination Sequence:
#
# PCOD8261761 Si02
#       6
#    16  16  16  16  16  16
#     4   9  15  28  51  77 100 128 171 211 242 292
#     4  10  18  31  54  80 105 133 165 210 264 309
#     4  11  23  36  51  75 106 140 175 210 256 308
#     4  10  20  32  50  77 106 136 169 207 254 305
#     4  10  20  34  54  78 103 134 171 213 259 306
#     4   9  16  29  52  79 103 127 166 214 255 297
#
# _framework density 17.926950000000001
#
# number of rings (size 3 to 8) (size 9 to 14) (size 15 to 20)
#    0.000    2.167    3.333    1.000    0.000    2.667 
#    0.000    0.833    0.000    2.500    0.000    0.000 
#    0.000    0.000    0.000    0.000    0.000    0.000 
#
# Total GULP energy -595189.848713 kJ/mol
# GULP energy per Si atom -12399.788515 kJ/mol
# Density = 1.788615 g / cm^3
# Si number density = 17.926950 Si / 1000 Ang^3
#
#
#
# Elastic Constant Matrix: (Units=GPa)
#
#
# Indices 1 2 3 4 5 6 
#
# 1 27.0009 28.5428 35.1323 0.0000 0.0000 0.0000
# 2 28.5428 146.0310 85.4697 0.0000 0.0000 0.0000
# 3 35.1323 85.4697 168.6279 0.0000 0.0000 0.0000
# 4 0.0000 0.0000 0.0000 33.5596 0.0000 0.0000
# 5 0.0000 0.0000 0.0000 0.0000 22.7649 0.0000
# 6 0.0000 0.0000 0.0000 0.0000 0.0000 16.6671
#
#
#
# Elastic Compliance Matrix: (Units=1/GPa)
#
#
# Indices 1 2 3 4 5 6 
#
# 1 0.053882 -0.005632 -0.008371 0.000000 0.000000 0.000000
# 2 -0.005632 0.010325 -0.004060 0.000000 0.000000 0.000000
# 3 -0.008371 -0.004060 0.009732 0.000000 0.000000 0.000000
# 4 0.000000 0.000000 0.000000 0.029798 0.000000 0.000000
# 5 0.000000 0.000000 0.000000 0.000000 0.043927 0.000000
# 6 0.000000 0.000000 0.000000 0.000000 0.000000 0.059998
#
#
# Mechanical properties :
#
#
# Convention : Reuss Voigt Hill
#
# Bulk Modulus (GPa) = 26.44632 71.10550 48.77591
# Shear Modulus (GPa) = 19.50139 27.43267 23.46703
#
# Velocity S-wave (km/s) = 3.30180 3.91608 3.62199
# Velocity P-wave (km/s) = 5.41481 7.75872 6.69021
#
# Compressibility (1/GPa) = 0.03781244
#
# Stress axis : x y z
#
# Youngs Moduli (GPa) = 18.55920 96.85410 102.75382
#
# Poissons Ratio (x) = 0.54549 0.86017
# Poissons Ratio (y) = 0.10453 0.41716
# Poissons Ratio (z) = 0.15536 0.39321
#
# Static dielectric constant tensor:
#      x y z
#    x 2.949460 0.000000 0.000000 
#    y 0.000000 3.725500 0.000000 
#    z 0.000000 0.000000 3.554770 
# 
# 
# High freq. dielectric constant tensor:
#      x y z
#    x 1.655400 0.000000 0.000000 
#    y 0.000000 1.700320 0.000000 
#    z 0.000000 0.000000 1.698360 
# 
# From -- ./inp_files/37131.got.cif
#   From: 2010.03.12/outbox.cif.g09.slc.cpg/sg64_19_cif.got.tgz:37131.got - 2010.04.10 20:19:32.
