data_PCOD8261291
_publ_section_title
;
Structure prediction by ZEFSAII (Michael W. Deem and Ramdas Pophale) SiO2 
 PCOD8261291
Probable space group: C M C M
;
_chemical_formula_sum "Si O2"
_cell_formula_units_Z 96
_cell_length_a 19.471238
_cell_length_b 30.947406
_cell_length_c 9.368193
_cell_angle_alpha 90.000000
_cell_angle_beta 90.000000
_cell_angle_gamma 90.000000
_cell_volume 5645.126093
_symmetry_space_group_name_H-M "C M C M"
_symmetry_group_IT_number 63
_symmetry_cell_setting 'orthorhombic'
loop_
_space_group_symop_operation_xyz
x,y,z
-x,-y,1/2+z
x,-y,-z
-x,y,1/2-z
-x,-y,-z
x,y,1/2-z
-x,y,z
x,-y,1/2+z
1/2+x,1/2+y,z
1/2-x,1/2-y,1/2+z
1/2+x,1/2-y,-z
1/2-x,1/2+y,1/2-z
1/2-x,1/2-y,-z
1/2+x,1/2+y,1/2-z
1/2-x,1/2+y,z
1/2+x,1/2-y,1/2+z
loop_
_atom_site_type_symbol
_atom_site_label
_atom_site_fract_x
_atom_site_fract_y
_atom_site_fract_z
Si Si1 0.672322 0.708635 0.083284
Si Si2 0.923616 0.132902 0.420322
Si Si3 0.081688 0.961315 0.592381
Si Si4 0.918360 0.540968 0.912164
Si Si5 0.920225 0.625117 0.084142
Si Si6 0.330546 0.793108 0.584285
O O1 0.659211 0.715919 0.250000
O O2 0.628356 0.668850 0.021662
O O3 0.751117 0.697186 0.050472
O O4 0.646038 0.751395 0.004027
O O5 0.924165 0.131330 0.250000
O O6 0.899459 0.085510 0.475158
O O7 0.000000 0.143818 0.477152
O O8 0.113470 0.965789 0.750000
O O9 0.000000 0.965302 0.600059
O O10 0.114102 0.000000 0.500000
O O11 0.889741 0.540254 0.750000
O O12 0.000000 0.538654 0.910371
O O13 0.888859 0.500000 0.000000
O O14 0.894467 0.584657 0.990971
O O15 0.907499 0.613999 0.250000
O O16 0.875979 0.666317 0.035038
O O17 0.000000 0.635579 0.055632
O O18 0.342385 0.782997 0.750000
#
# Coordination Sequence:
#
# PCOD8261291 Si02
#       6
#    16  16  16  16  16  16
#     4   9  17  30  47  63  81 110 144 174 208 255
#     4   8  14  25  42  64  86 108 137 172 207 243
#     4   8  13  22  37  57  81 106 131 160 194 234
#     4   9  16  26  42  65  91 116 143 176 214 256
#     4   9  17  29  44  62  86 115 145 178 216 255
#     4   9  18  31  45  62  84 111 142 175 214 257
#
# _framework density 17.00582
#
# number of rings (size 3 to 8) (size 9 to 14) (size 15 to 20)
#    0.000    3.333    0.000    1.500    0.000    3.333 
#    0.000    0.833    0.000    2.000    0.000    2.333 
#    0.000    0.000    0.000    0.000    0.000    0.000 
#
# Total GULP energy -595003.543927 kJ/mol
# GULP energy per Si atom -12395.907165 kJ/mol
# Density = 1.696711 g / cm^3
# Si number density = 17.005820 Si / 1000 Ang^3
#
#
#
# Elastic Constant Matrix: (Units=GPa)
#
#
# Indices 1 2 3 4 5 6 
#
# 1 46.6220 64.9439 26.6256 0.0000 0.0000 0.0000
# 2 64.9439 190.8363 70.7920 0.0000 0.0000 0.0000
# 3 26.6256 70.7920 68.4965 0.0000 0.0000 0.0000
# 4 0.0000 0.0000 0.0000 34.6426 0.0000 0.0000
# 5 0.0000 0.0000 0.0000 0.0000 12.3806 0.0000
# 6 0.0000 0.0000 0.0000 0.0000 0.0000 6.2819
#
#
#
# Elastic Compliance Matrix: (Units=1/GPa)
#
#
# Indices 1 2 3 4 5 6 
#
# 1 0.041036 -0.013052 -0.002462 0.000000 0.000000 0.000000
# 2 -0.013052 0.012649 -0.008000 0.000000 0.000000 0.000000
# 3 -0.002462 -0.008000 0.023824 0.000000 0.000000 0.000000
# 4 0.000000 0.000000 0.000000 0.028866 0.000000 0.000000
# 5 0.000000 0.000000 0.000000 0.000000 0.080771 0.000000
# 6 0.000000 0.000000 0.000000 0.000000 0.000000 0.159188
#
#
# Mechanical properties :
#
#
# Convention : Reuss Voigt Hill
#
# Bulk Modulus (GPa) = 32.80598 70.07531 51.44064
# Shear Modulus (GPa) = 12.39083 20.23389 16.31236
#
# Velocity S-wave (km/s) = 2.70223 3.45312 3.10049
# Velocity P-wave (km/s) = 5.39156 7.56273 6.56749
#
# Compressibility (1/GPa) = 0.03048225
#
# Stress axis : x y z
#
# Youngs Moduli (GPa) = 24.36873 79.05523 41.97380
#
# Poissons Ratio (x) = 1.03181 0.10335
# Poissons Ratio (y) = 0.31805 0.33579
# Poissons Ratio (z) = 0.06000 0.63243
#
# Static dielectric constant tensor:
#      x y z
#    x 2.899030 0.000000 0.000000 
#    y 0.000000 3.461340 0.000000 
#    z 0.000000 0.000000 3.138650 
# 
# 
# High freq. dielectric constant tensor:
#      x y z
#    x 1.613750 0.000000 0.000000 
#    y 0.000000 1.669620 0.000000 
#    z 0.000000 0.000000 1.638530 
# 
# From -- ./inp_files/10429.got.cif
#   From: 2010.03.12/outbox.cif.g09.slc.cpg/sg63_6_cif.got.tgz:10429.got - 2010.04.10 19:34:48.
