data_PCOD8261119
_publ_section_title
;
Structure prediction by ZEFSAII (Michael W. Deem and Ramdas Pophale) SiO2 
 PCOD8261119
Probable space group: C M C M
;
_chemical_formula_sum "Si O2"
_cell_formula_units_Z 60
_cell_length_a 10.765416
_cell_length_b 18.525238
_cell_length_c 14.292406
_cell_angle_alpha 90.000000
_cell_angle_beta 90.000000
_cell_angle_gamma 90.000000
_cell_volume 2850.361592
_symmetry_space_group_name_H-M "C M C M"
_symmetry_group_IT_number 63
_symmetry_cell_setting 'orthorhombic'
loop_
_space_group_symop_operation_xyz
x,y,z
-x,-y,1/2+z
x,-y,-z
-x,y,1/2-z
-x,-y,-z
x,y,1/2-z
-x,y,z
x,-y,1/2+z
1/2+x,1/2+y,z
1/2-x,1/2-y,1/2+z
1/2+x,1/2-y,-z
1/2-x,1/2+y,1/2-z
1/2-x,1/2-y,-z
1/2+x,1/2+y,1/2-z
1/2-x,1/2+y,z
1/2+x,1/2-y,1/2+z
loop_
_atom_site_type_symbol
_atom_site_label
_atom_site_fract_x
_atom_site_fract_y
_atom_site_fract_z
Si Si1 0.351004 0.640419 0.250000
Si Si2 0.361485 0.561176 0.937702
Si Si3 0.000000 0.418555 0.546984
Si Si4 0.748056 0.826644 0.950636
Si Si5 0.261984 0.523775 0.750000
Si Si6 0.500000 0.969639 0.750000
O O1 0.500000 0.655311 0.250000
O O2 0.282392 0.675799 0.159728
O O3 0.327261 0.554573 0.250000
O O4 0.500000 0.535190 0.915959
O O5 0.295272 0.571147 0.839286
O O6 0.292485 0.500000 0.000000
O O7 0.361344 0.634130 0.996763
O O8 0.000000 0.500000 0.500000
O O9 0.122752 0.371557 0.522421
O O10 0.000000 0.420220 0.658913
O O11 0.750000 0.750000 0.000000
O O12 0.115567 0.521968 0.750000
#
# Coordination Sequence:
#
# PCOD8261119 Si02
#       6
#     8  16   8  16   8   4
#     4  12  24  45  73  98 139 182 237 293 366 434
#     4  11  22  40  67  99 133 172 229 288 341 418
#     4  12  24  46  72 102 143 189 238 287 350 432
#     4  12  27  44  71 105 143 186 234 291 366 427
#     4  12  22  39  67 107 127 183 233 290 348 414
#     4  12  20  40  68  94 140 172 236 286 330 422
#
# _framework density 21.049961
#
# number of rings (size 3 to 8) (size 9 to 14) (size 15 to 20)
#    0.000    0.267    5.333    4.400    3.733    1.067 
#    0.000    1.333    2.933    0.000    0.000    0.000 
#    0.000    0.000    0.000    0.000    0.000    0.000 
#
# Total GULP energy -371764.642281 kJ/mol
# GULP energy per Si atom -12392.154743 kJ/mol
# Density = 2.100205 g / cm^3
# Si number density = 21.049961 Si / 1000 Ang^3
#
#
#
# Elastic Constant Matrix: (Units=GPa)
#
#
# Indices 1 2 3 4 5 6 
#
# 1 119.4981 33.7960 37.8444 0.0000 0.0000 0.0000
# 2 33.7960 131.4431 65.0241 0.0000 0.0000 0.0000
# 3 37.8444 65.0241 177.6071 0.0000 0.0000 0.0000
# 4 0.0000 0.0000 0.0000 31.5572 0.0000 0.0000
# 5 0.0000 0.0000 0.0000 0.0000 32.4403 0.0000
# 6 0.0000 0.0000 0.0000 0.0000 0.0000 26.3925
#
#
#
# Elastic Compliance Matrix: (Units=1/GPa)
#
#
# Indices 1 2 3 4 5 6 
#
# 1 0.009282 -0.001719 -0.001348 0.000000 0.000000 0.000000
# 2 -0.001719 0.009609 -0.003152 0.000000 0.000000 0.000000
# 3 -0.001348 -0.003152 0.007072 0.000000 0.000000 0.000000
# 4 0.000000 0.000000 0.000000 0.031689 0.000000 0.000000
# 5 0.000000 0.000000 0.000000 0.000000 0.030826 0.000000
# 6 0.000000 0.000000 0.000000 0.000000 0.000000 0.037890
#
#
# Mechanical properties :
#
#
# Convention : Reuss Voigt Hill
#
# Bulk Modulus (GPa) = 73.94486 77.98637 75.96562
# Shear Modulus (GPa) = 34.88880 37.53693 36.21286
#
# Velocity S-wave (km/s) = 4.07557 4.22741 4.15218
# Velocity P-wave (km/s) = 7.57308 7.80748 7.69117
#
# Compressibility (1/GPa) = 0.01352359
#
# Stress axis : x y z
#
# Youngs Moduli (GPa) = 107.74002 104.06873 141.41246
#
# Poissons Ratio (x) = 0.17895 0.19065
# Poissons Ratio (y) = 0.18526 0.44567
# Poissons Ratio (z) = 0.14525 0.32798
#
# Static dielectric constant tensor:
#      x y z
#    x 4.124670 0.000000 0.000000 
#    y 0.000000 2.894900 0.000000 
#    z 0.000000 0.000000 4.184720 
# 
# 
# High freq. dielectric constant tensor:
#      x y z
#    x 1.842970 0.000000 0.000000 
#    y 0.000000 1.792280 0.000000 
#    z 0.000000 0.000000 1.845430 
# 
# From -- ./inp_files/17196.got.cif
#   From: 2010.03.12/outbox.cif.g09.slc.cpg/sg63_9_cif.got.tgz:17196.got - 2010.04.10 19:34:48.
