data_PCOD8261299
_publ_section_title
;
Structure prediction by ZEFSAII (Michael W. Deem and Ramdas Pophale) SiO2 
 PCOD8261299
Probable space group: C M C M
;
_chemical_formula_sum "Si O2"
_cell_formula_units_Z 96
_cell_length_a 29.328436
_cell_length_b 20.685562
_cell_length_c 9.465863
_cell_angle_alpha 90.000000
_cell_angle_beta 90.000000
_cell_angle_gamma 90.000000
_cell_volume 5742.704151
_symmetry_space_group_name_H-M "C M C M"
_symmetry_group_IT_number 63
_symmetry_cell_setting 'orthorhombic'
loop_
_space_group_symop_operation_xyz
x,y,z
-x,-y,1/2+z
x,-y,-z
-x,y,1/2-z
-x,-y,-z
x,y,1/2-z
-x,y,z
x,-y,1/2+z
1/2+x,1/2+y,z
1/2-x,1/2-y,1/2+z
1/2+x,1/2-y,-z
1/2-x,1/2+y,1/2-z
1/2-x,1/2-y,-z
1/2+x,1/2+y,1/2-z
1/2-x,1/2+y,z
1/2+x,1/2-y,1/2+z
loop_
_atom_site_type_symbol
_atom_site_label
_atom_site_fract_x
_atom_site_fract_y
_atom_site_fract_z
Si Si1 0.554201 0.939686 0.410503
Si Si2 0.782034 0.201612 0.582409
Si Si3 0.781359 0.942848 0.405426
Si Si4 0.110274 0.057688 0.593199
Si Si5 0.553104 0.184318 0.414108
Si Si6 0.615286 0.301566 0.417527
O O1 0.573499 0.940766 0.250000
O O2 0.500000 0.943506 0.406494
O O3 0.570088 0.875062 0.490553
O O4 0.573797 0.000000 0.500000
O O5 0.777052 0.211789 0.750000
O O6 0.750000 0.250000 0.500000
O O7 0.767891 0.128473 0.538892
O O8 0.833744 0.215380 0.531000
O O9 0.760738 0.952861 0.250000
O O10 0.835538 0.948506 0.399526
O O11 0.760000 0.000000 0.500000
O O12 0.089377 0.050888 0.750000
O O13 0.098617 0.128130 0.525357
O O14 0.088952 0.000000 0.500000
O O15 0.563442 0.168570 0.250000
O O16 0.500000 0.198638 0.436983
O O17 0.580451 0.246783 0.468676
O O18 0.616350 0.307944 0.250000
#
# Coordination Sequence:
#
# PCOD8261299 Si02
#       6
#    16  16  16  16  16  16
#     4   9  16  26  41  62  87 112 139 175 216 253
#     4   9  17  29  44  63  87 113 140 172 211 253
#     4   8  14  24  39  59  81 104 133 170 207 241
#     4   8  13  23  39  58  80 106 136 170 206 241
#     4   9  16  27  45  66  85 110 145 178 209 252
#     4   8  15  28  44  62  87 115 139 170 214 255
#
# _framework density 16.716863
#
# number of rings (size 3 to 8) (size 9 to 14) (size 15 to 20)
#    0.000    3.500    0.000    2.500    0.000    2.667 
#    0.000    4.167    0.000    1.500    0.000    2.333 
#    0.000    0.000    0.000    0.000    0.000    0.000 
#
# Total GULP energy -594827.582046 kJ/mol
# GULP energy per Si atom -12392.241293 kJ/mol
# Density = 1.667881 g / cm^3
# Si number density = 16.716863 Si / 1000 Ang^3
#
#
#
# Elastic Constant Matrix: (Units=GPa)
#
#
# Indices 1 2 3 4 5 6 
#
# 1 35.8859 50.7244 25.0603 0.0000 0.0000 0.0000
# 2 50.7244 182.4562 77.2133 0.0000 0.0000 0.0000
# 3 25.0603 77.2133 79.4474 0.0000 0.0000 0.0000
# 4 0.0000 0.0000 0.0000 33.0691 0.0000 0.0000
# 5 0.0000 0.0000 0.0000 0.0000 11.4288 0.0000
# 6 0.0000 0.0000 0.0000 0.0000 0.0000 24.7993
#
#
#
# Elastic Compliance Matrix: (Units=1/GPa)
#
#
# Indices 1 2 3 4 5 6 
#
# 1 0.046495 -0.011414 -0.003573 0.000000 0.000000 0.000000
# 2 -0.011414 0.012112 -0.008171 0.000000 0.000000 0.000000
# 3 -0.003573 -0.008171 0.021655 0.000000 0.000000 0.000000
# 4 0.000000 0.000000 0.000000 0.030240 0.000000 0.000000
# 5 0.000000 0.000000 0.000000 0.000000 0.087498 0.000000
# 6 0.000000 0.000000 0.000000 0.000000 0.000000 0.040324
#
#
# Mechanical properties :
#
#
# Convention : Reuss Voigt Hill
#
# Bulk Modulus (GPa) = 29.45861 67.08730 48.27296
# Shear Modulus (GPa) = 16.89452 23.51219 20.20335
#
# Velocity S-wave (km/s) = 3.18249 3.75440 3.48021
# Velocity P-wave (km/s) = 5.58253 7.68197 6.71481
#
# Compressibility (1/GPa) = 0.03394593
#
# Stress axis : x y z
#
# Youngs Moduli (GPa) = 21.50788 82.56479 46.17857
#
# Poissons Ratio (x) = 0.94238 0.16500
# Poissons Ratio (y) = 0.24549 0.37732
# Poissons Ratio (z) = 0.07685 0.67462
#
# Static dielectric constant tensor:
#      x y z
#    x 2.676430 0.000000 0.000000 
#    y 0.000000 3.499570 0.000000 
#    z 0.000000 0.000000 3.194770 
# 
# 
# High freq. dielectric constant tensor:
#      x y z
#    x 1.583980 0.000000 0.000000 
#    y 0.000000 1.661640 0.000000 
#    z 0.000000 0.000000 1.628950 
# 
# From -- ./inp_files/12416.got.cif
#   From: 2010.03.12/outbox.cif.g09.slc.cpg/sg63_7_cif.got.tgz:12416.got - 2010.04.10 19:34:48.
