data_PCOD8261245
_publ_section_title
;
Structure prediction by ZEFSAII (Michael W. Deem and Ramdas Pophale) SiO2 
 PCOD8261245
Probable space group: C M C M
;
_chemical_formula_sum "Si O2"
_cell_formula_units_Z 64
_cell_length_a 11.352077
_cell_length_b 27.128536
_cell_length_c 9.993104
_cell_angle_alpha 90.000000
_cell_angle_beta 90.000000
_cell_angle_gamma 90.000000
_cell_volume 3077.528567
_symmetry_space_group_name_H-M "C M C M"
_symmetry_group_IT_number 63
_symmetry_cell_setting 'orthorhombic'
loop_
_space_group_symop_operation_xyz
x,y,z
-x,-y,1/2+z
x,-y,-z
-x,y,1/2-z
-x,-y,-z
x,y,1/2-z
-x,y,z
x,-y,1/2+z
1/2+x,1/2+y,z
1/2-x,1/2-y,1/2+z
1/2+x,1/2-y,-z
1/2-x,1/2+y,1/2-z
1/2-x,1/2-y,-z
1/2+x,1/2+y,1/2-z
1/2-x,1/2+y,z
1/2+x,1/2-y,1/2+z
loop_
_atom_site_type_symbol
_atom_site_label
_atom_site_fract_x
_atom_site_fract_y
_atom_site_fract_z
Si Si1 0.500000 0.878005 0.250000
Si Si2 0.500000 0.161809 0.250000
Si Si3 0.639359 0.645207 0.476437
Si Si4 0.749654 0.791229 0.750000
Si Si5 0.747445 0.541598 0.099136
Si Si6 0.754904 0.325086 0.250000
Si Si7 0.000000 0.578135 0.463379
O O1 0.387732 0.843268 0.250000
O O2 0.500000 0.913067 0.378566
O O3 0.387725 0.196591 0.250000
O O4 0.500000 0.129662 0.384512
O O5 0.500000 0.647546 0.475134
O O6 0.688718 0.687886 0.381845
O O7 0.681172 0.592582 0.423806
O O8 0.686528 0.653606 0.623955
O O9 0.760850 0.733179 0.750000
O O10 0.723429 0.523750 0.250000
O O11 0.886679 0.546958 0.077585
O O12 0.696329 0.500000 0.000000
#
# Coordination Sequence:
#
# PCOD8261245 Si02
#       7
#     4   4  16   8  16   8   8
#     4  12  24  40  75 100 148 176 229 290 346 400
#     4  12  20  44  75  98 140 186 221 298 352 400
#     4  12  26  48  70 100 148 187 231 287 343 416
#     4  12  25  46  75 102 139 186 239 283 350 408
#     4  12  26  45  72 104 138 182 233 286 352 414
#     4  12  27  46  69 112 137 186 235 289 342 410
#     4  12  21  44  67 102 145 180 224 290 353 407
#
# _framework density 20.795908000000001
#
# number of rings (size 3 to 8) (size 9 to 14) (size 15 to 20)
#    0.000    0.000    7.500    1.875    7.000    0.500 
#    0.000    0.000    0.000    0.000    0.000    0.000 
#    0.000    0.000    0.000    0.000    0.000    0.000 
#
# Total GULP energy -397043.531329 kJ/mol
# GULP energy per Si atom -12407.610354 kJ/mol
# Density = 2.074858 g / cm^3
# Si number density = 20.795908 Si / 1000 Ang^3
#
#
#
# Elastic Constant Matrix: (Units=GPa)
#
#
# Indices 1 2 3 4 5 6 
#
# 1 144.8906 19.2329 40.0581 0.0000 0.0000 0.0000
# 2 19.2329 93.0350 45.6414 0.0000 0.0000 0.0000
# 3 40.0581 45.6414 193.0251 0.0000 0.0000 0.0000
# 4 0.0000 0.0000 0.0000 47.8623 0.0000 0.0000
# 5 0.0000 0.0000 0.0000 0.0000 -4.1163 0.0000
# 6 0.0000 0.0000 0.0000 0.0000 0.0000 6.4810
#
#
#
# Elastic Compliance Matrix: (Units=1/GPa)
#
#
# Indices 1 2 3 4 5 6 
#
# 1 0.007384 -0.000876 -0.001325 0.000000 0.000000 0.000000
# 2 -0.000876 0.012263 -0.002718 0.000000 0.000000 0.000000
# 3 -0.001325 -0.002718 0.006098 0.000000 0.000000 0.000000
# 4 0.000000 0.000000 0.000000 0.020893 0.000000 0.000000
# 5 0.000000 0.000000 0.000000 0.000000 -0.242939 0.000000
# 6 0.000000 0.000000 0.000000 0.000000 0.000000 0.154297
#
#
# Mechanical properties :
#
#
# Convention : Reuss Voigt Hill
#
# Bulk Modulus (GPa) = 62.86531 71.20172 67.03351
# Shear Modulus (GPa) = -186.13963 31.77997 -77.17983
#
# Velocity S-wave (km/s) = -9.47112 3.91344 -6.09865
# Velocity P-wave (km/s) = 9.45027 7.39815 4.15782
#
# Compressibility (1/GPa) = 0.01590702
#
# Stress axis : x y z
#
# Youngs Moduli (GPa) = 135.41891 81.54535 163.97950
#
# Poissons Ratio (x) = 0.07147 0.21731
# Poissons Ratio (y) = 0.11869 0.44566
# Poissons Ratio (z) = 0.17946 0.22162
#
# Static dielectric constant tensor:
#      x y z
#    x 3.984230 0.000000 0.000000 
#    y 0.000000 3.750320 0.000000 
#    z 0.000000 0.000000 3.955500 
# 
# 
# High freq. dielectric constant tensor:
#      x y z
#    x 1.823040 0.000000 0.000000 
#    y 0.000000 1.817220 0.000000 
#    z 0.000000 0.000000 1.839080 
# 
# From -- ./inp_files/3264.got.cif
#   From: 2010.03.12/outbox.cif.g09.slc.cpg/sg63_2_cif.got.tgz:3264.got - 2010.04.10 19:34:48.
