data_PCOD8261121
_publ_section_title
;
Structure prediction by ZEFSAII (Michael W. Deem and Ramdas Pophale) SiO2 
 PCOD8261121
Probable space group: C M C M
;
_chemical_formula_sum "Si O2"
_cell_formula_units_Z 80
_cell_length_a 12.465968
_cell_length_b 18.696723
_cell_length_c 16.711966
_cell_angle_alpha 90.000000
_cell_angle_beta 90.000000
_cell_angle_gamma 90.000000
_cell_volume 3895.103884
_symmetry_space_group_name_H-M "C M C M"
_symmetry_group_IT_number 63
_symmetry_cell_setting 'orthorhombic'
loop_
_space_group_symop_operation_xyz
x,y,z
-x,-y,1/2+z
x,-y,-z
-x,y,1/2-z
-x,-y,-z
x,y,1/2-z
-x,y,z
x,-y,1/2+z
1/2+x,1/2+y,z
1/2-x,1/2-y,1/2+z
1/2+x,1/2-y,-z
1/2-x,1/2+y,1/2-z
1/2-x,1/2-y,-z
1/2+x,1/2+y,1/2-z
1/2-x,1/2+y,z
1/2+x,1/2-y,1/2+z
loop_
_atom_site_type_symbol
_atom_site_label
_atom_site_fract_x
_atom_site_fract_y
_atom_site_fract_z
Si Si1 0.500000 0.674809 0.655668
Si Si2 0.190426 0.062459 0.057988
Si Si3 0.878126 0.616199 0.840134
Si Si4 0.300029 0.312666 0.447691
Si Si5 0.618629 0.948284 0.659735
Si Si6 0.000000 0.004316 0.657201
O O1 0.500000 0.694149 0.750000
O O2 0.394622 0.709650 0.613946
O O3 0.500000 0.589159 0.643579
O O4 0.293589 0.091870 0.106336
O O5 0.102891 0.031652 0.118046
O O6 0.146458 0.129061 0.007164
O O7 0.230139 0.000000 0.000000
O O8 0.856972 0.643780 0.750000
O O9 0.798766 0.655009 0.899460
O O10 0.856288 0.532155 0.843061
O O11 0.000000 0.633571 0.865805
O O12 0.250000 0.250000 0.500000
O O13 0.627088 0.919770 0.750000
O O14 0.500000 0.932018 0.625568
O O15 0.000000 0.984840 0.750000
#
# Coordination Sequence:
#
# PCOD8261121 Si02
#       6
#     8  16  16  16  16   8
#     4  11  23  45  71  93 123 170 218 260 318 396
#     4  12  21  37  61  93 123 154 201 264 324 363
#     4   9  18  36  61  87 116 157 204 245 297 368
#     4  12  26  40  61  92 128 163 210 260 318 381
#     4   9  18  34  58  88 120 156 198 243 296 365
#     4  11  22  40  70  98 120 156 211 268 325 379
#
# _framework density 20.538606000000001
#
# number of rings (size 3 to 8) (size 9 to 14) (size 15 to 20)
#    0.000    1.400    4.000    3.300    1.400    4.400 
#    0.000    4.000    0.000    0.000    0.000    0.000 
#    0.000    0.000    0.000    0.000    0.000    0.000 
#
# Total GULP energy -495961.756233 kJ/mol
# GULP energy per Si atom -12399.043906 kJ/mol
# Density = 2.049186 g / cm^3
# Si number density = 20.538606 Si / 1000 Ang^3
#
#
#
# Elastic Constant Matrix: (Units=GPa)
#
#
# Indices 1 2 3 4 5 6 
#
# 1 127.4420 6.7021 68.7251 0.0000 0.0000 0.0000
# 2 6.7021 37.4774 26.2518 0.0000 0.0000 0.0000
# 3 68.7251 26.2518 124.8897 0.0000 0.0000 0.0000
# 4 0.0000 0.0000 0.0000 29.3259 0.0000 0.0000
# 5 0.0000 0.0000 0.0000 0.0000 34.4571 0.0000
# 6 0.0000 0.0000 0.0000 0.0000 0.0000 -1.0327
#
#
#
# Elastic Compliance Matrix: (Units=1/GPa)
#
#
# Indices 1 2 3 4 5 6 
#
# 1 0.011396 0.002761 -0.006852 0.000000 0.000000 0.000000
# 2 0.002761 0.031959 -0.008237 0.000000 0.000000 0.000000
# 3 -0.006852 -0.008237 0.013509 0.000000 0.000000 0.000000
# 4 0.000000 0.000000 0.000000 0.034100 0.000000 0.000000
# 5 0.000000 0.000000 0.000000 0.000000 0.029022 0.000000
# 6 0.000000 0.000000 0.000000 0.000000 0.000000 -0.968340
#
#
# Mechanical properties :
#
#
# Convention : Reuss Voigt Hill
#
# Bulk Modulus (GPa) = 31.04723 54.79634 42.92179
# Shear Modulus (GPa) = -6.15034 25.09209 9.47088
#
# Velocity S-wave (km/s) = -1.73235 3.49908 2.14971
# Velocity P-wave (km/s) = 3.33886 6.56219 5.20626
#
# Compressibility (1/GPa) = 0.03220899
#
# Stress axis : x y z
#
# Youngs Moduli (GPa) = 87.74708 31.29018 74.02494
#
# Poissons Ratio (x) = -0.08641 0.50720
# Poissons Ratio (y) = -0.24231 0.60977
# Poissons Ratio (z) = 0.60122 0.25775
#
# Static dielectric constant tensor:
#      x y z
#    x 4.078370 0.000000 0.000000 
#    y 0.000000 3.527640 0.000000 
#    z 0.000000 0.000000 4.262090 
# 
# 
# High freq. dielectric constant tensor:
#      x y z
#    x 1.817700 0.000000 0.000000 
#    y 0.000000 1.757910 0.000000 
#    z 0.000000 0.000000 1.821130 
# 
# From -- ./inp_files/42148.got.cif
#   From: 2010.03.12/outbox.cif.g09.slc.cpg/sg63_22_cif.got.tgz:42148.got - 2010.04.10 19:34:48.
