data_PCOD8261412
_publ_section_title
;
Structure prediction by ZEFSAII (Michael W. Deem and Ramdas Pophale) SiO2 
 PCOD8261412
Probable space group: C M C A
;
_chemical_formula_sum "Si O2"
_cell_formula_units_Z 88
_cell_length_a 23.431816
_cell_length_b 5.118516
_cell_length_c 40.193184
_cell_angle_alpha 90.000000
_cell_angle_beta 90.000000
_cell_angle_gamma 90.000000
_cell_volume 4820.614745
_symmetry_space_group_name_H-M "C M C A"
_symmetry_group_IT_number 64
_symmetry_cell_setting 'orthorhombic'
loop_
_space_group_symop_operation_xyz
x,y,z
-x,1/2-y,1/2+z
x,-y,-z
-x,1/2+y,1/2-z
-x,-y,-z
x,1/2+y,1/2-z
-x,y,z
x,1/2-y,1/2+z
1/2+x,1/2+y,z
1/2-x,-y,1/2+z
1/2+x,1/2-y,-z
1/2-x,y,1/2-z
1/2-x,1/2-y,-z
1/2+x,y,1/2-z
1/2-x,1/2+y,z
1/2+x,-y,1/2+z
loop_
_atom_site_type_symbol
_atom_site_label
_atom_site_fract_x
_atom_site_fract_y
_atom_site_fract_z
Si Si1 0.813228 0.059182 0.735305
Si Si2 0.500000 0.562947 0.398543
Si Si3 0.378055 0.464657 0.396166
Si Si4 0.877220 0.464870 0.440796
Si Si5 0.289661 0.500000 0.000000
Si Si6 0.286579 0.454441 0.339911
Si Si7 0.500000 0.063108 0.439688
O O1 0.845602 0.826610 0.754847
O O2 0.750000 0.115016 0.750000
O O3 0.814245 0.007344 0.696180
O O4 0.441193 0.495213 0.379338
O O5 0.500000 0.370547 0.430934
O O6 0.500000 0.870094 0.407492
O O7 0.370126 0.177897 0.411613
O O8 0.333342 0.515282 0.367364
O O9 0.370201 0.677224 0.425378
O O10 0.828500 0.507475 0.467535
O O11 0.940159 0.496691 0.458386
O O12 0.250000 0.750000 0.000000
O O13 0.264352 0.160651 0.344379
#
# Coordination Sequence:
#
# PCOD8261412 Si02
#       7
#    16   8  16  16   8  16   8
#     4  10  16  30  46  63 100 134 162 200 242 295
#     4   8  16  34  52  73 100 133 162 201 268 303
#     4  10  21  35  55  77 104 131 168 219 254 296
#     4  10  21  39  55  77 100 132 175 216 257 297
#     4  12  26  39  56  73 106 150 176 190 256 328
#     4  12  21  30  48  78 104 133 169 200 254 306
#     4   8  16  33  60  76  94 121 166 227 260 283
#
# _framework density 18.254935
#
# number of rings (size 3 to 8) (size 9 to 14) (size 15 to 20)
#    0.000    1.818    3.636    2.182    0.000    4.727 
#    0.000    0.000    0.000    7.636    0.000    1.273 
#    0.000    0.000    0.000    0.000    0.000    0.000 
#
# Total GULP energy -545218.602145 kJ/mol
# GULP energy per Si atom -12391.331867 kJ/mol
# Density = 1.821339 g / cm^3
# Si number density = 18.254935 Si / 1000 Ang^3
#
#
#
# Elastic Constant Matrix: (Units=GPa)
#
#
# Indices 1 2 3 4 5 6 
#
# 1 101.1636 21.3318 50.0321 0.0000 0.0000 0.0000
# 2 21.3318 110.3138 10.4254 0.0000 0.0000 0.0000
# 3 50.0321 10.4254 69.1068 0.0000 0.0000 0.0000
# 4 0.0000 0.0000 0.0000 22.6989 0.0000 0.0000
# 5 0.0000 0.0000 0.0000 0.0000 -6.2122 0.0000
# 6 0.0000 0.0000 0.0000 0.0000 0.0000 16.8877
#
#
#
# Elastic Compliance Matrix: (Units=1/GPa)
#
#
# Indices 1 2 3 4 5 6 
#
# 1 0.015824 -0.002006 -0.011154 0.000000 0.000000 0.000000
# 2 -0.002006 0.009450 0.000027 0.000000 0.000000 0.000000
# 3 -0.011154 0.000027 0.022542 0.000000 0.000000 0.000000
# 4 0.000000 0.000000 0.000000 0.044055 0.000000 0.000000
# 5 0.000000 0.000000 0.000000 0.000000 -0.160973 0.000000
# 6 0.000000 0.000000 0.000000 0.000000 0.000000 0.059215
#
#
# Mechanical properties :
#
#
# Convention : Reuss Voigt Hill
#
# Bulk Modulus (GPa) = 46.40410 49.35141 47.87776
# Shear Modulus (GPa) = 212.20398 19.92788 116.06593
#
# Velocity S-wave (km/s) = 10.79338 3.30759 7.98239
# Velocity P-wave (km/s) = 13.44636 6.45601 10.54715
#
# Compressibility (1/GPa) = 0.02154982
#
# Stress axis : x y z
#
# Youngs Moduli (GPa) = 63.19404 105.81529 44.36248
#
# Poissons Ratio (x) = 0.21225 0.49481
# Poissons Ratio (y) = 0.12676 -0.00118
# Poissons Ratio (z) = 0.70486 -0.00281
#
# Static dielectric constant tensor:
#      x y z
#    x 3.473190 0.000000 0.000000 
#    y 0.000000 3.908500 0.000000 
#    z 0.000000 0.000000 3.029300 
# 
# 
# High freq. dielectric constant tensor:
#      x y z
#    x 1.687150 0.000000 0.000000 
#    y 0.000000 1.743070 0.000000 
#    z 0.000000 0.000000 1.670410 
# 
# From -- ./inp_files/53901.got.cif
#   From: 2010.03.12/outbox.cif.g09.slc.cpg/sg64_27_cif.got.tgz:53901.got - 2010.04.10 20:19:32.
