data_PCOD8261557
_publ_section_title
;
Structure prediction by ZEFSAII (Michael W. Deem and Ramdas Pophale) SiO2 
 PCOD8261557
Probable space group: C M C A
;
_chemical_formula_sum "Si O2"
_cell_formula_units_Z 72
_cell_length_a 14.757978
_cell_length_b 14.530935
_cell_length_c 18.749737
_cell_angle_alpha 90.000000
_cell_angle_beta 90.000000
_cell_angle_gamma 90.000000
_cell_volume 4020.828958
_symmetry_space_group_name_H-M "C M C A"
_symmetry_group_IT_number 64
_symmetry_cell_setting 'orthorhombic'
loop_
_space_group_symop_operation_xyz
x,y,z
-x,1/2-y,1/2+z
x,-y,-z
-x,1/2+y,1/2-z
-x,-y,-z
x,1/2+y,1/2-z
-x,y,z
x,1/2-y,1/2+z
1/2+x,1/2+y,z
1/2-x,-y,1/2+z
1/2+x,1/2-y,-z
1/2-x,y,1/2-z
1/2-x,1/2-y,-z
1/2+x,y,1/2-z
1/2-x,1/2+y,z
1/2+x,-y,1/2+z
loop_
_atom_site_type_symbol
_atom_site_label
_atom_site_fract_x
_atom_site_fract_y
_atom_site_fract_z
Si Si1 0.000000 0.593719 0.220813
Si Si2 0.802481 0.853159 0.678312
Si Si3 0.687061 0.646182 0.812342
Si Si4 0.000000 0.402428 0.275935
Si Si5 0.809488 0.520554 0.420061
Si Si6 0.000000 0.941449 0.876606
O O1 0.910243 0.632098 0.183402
O O2 0.000000 0.481686 0.214626
O O3 0.000000 0.622424 0.305122
O O4 0.750000 0.884599 0.750000
O O5 0.781039 0.746379 0.661361
O O6 0.765269 0.912174 0.612857
O O7 0.750000 0.605927 0.750000
O O8 0.589342 0.659880 0.773851
O O9 0.687323 0.574854 0.876948
O O10 0.000000 0.452123 0.352997
O O11 0.778758 0.500000 0.500000
O O12 0.907437 0.573069 0.421267
#
# Coordination Sequence:
#
# PCOD8261557 Si02
#       6
#     8  16  16   8  16   8
#     4  10  17  32  60  78 108 133 181 232 272 324
#     4  11  20  34  56  82 107 142 182 231 278 323
#     4  10  20  33  54  81 107 138 186 227 273 324
#     4   8  15  30  50  75 103 129 166 221 272 307
#     4  11  21  36  55  79 114 147 182 226 277 335
#     4   8  17  32  57  77  99 138 180 225 270 311
#
# _framework density 17.906753999999999
#
# number of rings (size 3 to 8) (size 9 to 14) (size 15 to 20)
#    0.667    1.333    2.222    3.000    0.000    0.889 
#    0.000    0.556    0.000    0.000    0.000    0.000 
#    0.000    0.000    0.000    0.000    0.000    0.000 
#
# Total GULP energy -446148.266868 kJ/mol
# GULP energy per Si atom -12393.007413 kJ/mol
# Density = 1.786600 g / cm^3
# Si number density = 17.906754 Si / 1000 Ang^3
#
#
#
# Elastic Constant Matrix: (Units=GPa)
#
#
# Indices 1 2 3 4 5 6 
#
# 1 129.1096 25.6814 48.9596 0.0000 0.0000 0.0000
# 2 25.6814 77.4628 38.7658 0.0000 0.0000 0.0000
# 3 48.9596 38.7658 99.8348 0.0000 0.0000 0.0000
# 4 0.0000 0.0000 0.0000 13.6932 0.0000 0.0000
# 5 0.0000 0.0000 0.0000 0.0000 20.2588 0.0000
# 6 0.0000 0.0000 0.0000 0.0000 0.0000 21.3563
#
#
#
# Elastic Compliance Matrix: (Units=1/GPa)
#
#
# Indices 1 2 3 4 5 6 
#
# 1 0.009580 -0.001024 -0.004300 0.000000 0.000000 0.000000
# 2 -0.001024 0.016132 -0.005762 0.000000 0.000000 0.000000
# 3 -0.004300 -0.005762 0.014363 0.000000 0.000000 0.000000
# 4 0.000000 0.000000 0.000000 0.073029 0.000000 0.000000
# 5 0.000000 0.000000 0.000000 0.000000 0.049361 0.000000
# 6 0.000000 0.000000 0.000000 0.000000 0.000000 0.046825
#
#
# Mechanical properties :
#
#
# Convention : Reuss Voigt Hill
#
# Bulk Modulus (GPa) = 55.85856 59.24677 57.55267
# Shear Modulus (GPa) = 21.05879 23.92834 22.49356
#
# Velocity S-wave (km/s) = 3.43304 3.65947 3.54806
# Velocity P-wave (km/s) = 6.85392 7.14239 6.99964
#
# Compressibility (1/GPa) = 0.01790236
#
# Stress axis : x y z
#
# Youngs Moduli (GPa) = 104.38650 61.98674 69.62373
#
# Poissons Ratio (x) = 0.06347 0.29941
# Poissons Ratio (y) = 0.10688 0.40118
# Poissons Ratio (z) = 0.44890 0.35717
#
# Static dielectric constant tensor:
#      x y z
#    x 3.507330 0.000000 0.000000 
#    y 0.000000 3.106530 0.000000 
#    z 0.000000 0.000000 2.904110 
# 
# 
# High freq. dielectric constant tensor:
#      x y z
#    x 1.709430 0.000000 0.000000 
#    y 0.000000 1.683780 0.000000 
#    z 0.000000 0.000000 1.648900 
# 
# From -- ./inp_files/31957.got.cif
#   From: 2010.03.12/outbox.cif.g09.slc.cpg/sg64_16_cif.got.tgz:31957.got - 2010.04.10 20:19:32.
