data_PCOD8261682
_publ_section_title
;
Structure prediction by ZEFSAII (Michael W. Deem and Ramdas Pophale) SiO2 
 PCOD8261682
Probable space group: C M C A
;
_chemical_formula_sum "Si O2"
_cell_formula_units_Z 128
_cell_length_a 18.034015
_cell_length_b 21.508640
_cell_length_c 18.133782
_cell_angle_alpha 90.000000
_cell_angle_beta 90.000000
_cell_angle_gamma 90.000000
_cell_volume 7033.860772
_symmetry_space_group_name_H-M "C M C A"
_symmetry_group_IT_number 64
_symmetry_cell_setting 'orthorhombic'
loop_
_space_group_symop_operation_xyz
x,y,z
-x,1/2-y,1/2+z
x,-y,-z
-x,1/2+y,1/2-z
-x,-y,-z
x,1/2+y,1/2-z
-x,y,z
x,1/2-y,1/2+z
1/2+x,1/2+y,z
1/2-x,-y,1/2+z
1/2+x,1/2-y,-z
1/2-x,y,1/2-z
1/2-x,1/2-y,-z
1/2+x,y,1/2-z
1/2-x,1/2+y,z
1/2+x,-y,1/2+z
loop_
_atom_site_type_symbol
_atom_site_label
_atom_site_fract_x
_atom_site_fract_y
_atom_site_fract_z
Si Si1 0.917226 0.161846 0.897569
Si Si2 0.582067 0.733973 0.751229
Si Si3 0.272132 0.847514 0.877749
Si Si4 0.583492 0.372432 0.693272
Si Si5 0.817560 0.948919 0.795206
Si Si6 0.276317 0.683725 0.973624
Si Si7 0.584069 0.484463 0.085052
Si Si8 0.221292 0.786742 0.328488
O O1 0.889181 0.193924 0.821756
O O2 0.865093 0.184553 0.964192
O O3 0.913691 0.087830 0.895171
O O4 0.000000 0.185609 0.915074
O O5 0.500000 0.710604 0.731073
O O6 0.582692 0.807405 0.763966
O O7 0.632962 0.721207 0.679924
O O8 0.359213 0.865635 0.874659
O O9 0.222074 0.886954 0.823360
O O10 0.262759 0.776790 0.850833
O O11 0.246568 0.862921 0.961276
O O12 0.500000 0.388815 0.665949
O O13 0.613236 0.428365 0.744539
O O14 0.750000 0.984562 0.750000
O O15 0.852665 0.986927 0.862615
O O16 0.238035 0.664898 0.895254
O O17 0.250000 0.750000 0.000000
O O18 0.500000 0.509691 0.100478
O O19 0.604737 0.500000 0.000000
O O20 0.250000 0.811523 0.250000
#
# Coordination Sequence:
#
# PCOD8261682 Si02
#       8
#    16  16  16  16  16  16  16  16
#     4  10  20  35  53  75 107 143 177 219 271 327
#     4  10  18  30  49  74 100 132 173 214 263 314
#     4  10  18  31  48  74 107 133 165 218 266 313
#     4  10  18  30  53  78 102 139 172 211 266 320
#     4  10  19  34  55  78 108 132 178 229 263 320
#     4  10  20  31  50  75 103 138 173 207 264 319
#     4  10  21  37  55  77 109 146 182 228 280 327
#     4  11  16  31  47  70 100 134 173 212 256 316
#
# _framework density 18.197686999999998
#
# number of rings (size 3 to 8) (size 9 to 14) (size 15 to 20)
#    0.000    1.875    3.750    2.250    0.000    0.000 
#    2.250    3.750    0.000    0.000    0.000    0.000 
#    0.000    5.750    0.000    0.000    0.000    0.000 
#
# Total GULP energy -792948.170384 kJ/mol
# GULP energy per Si atom -12389.815162 kJ/mol
# Density = 1.815627 g / cm^3
# Si number density = 18.197687 Si / 1000 Ang^3
#
#
#
# Elastic Constant Matrix: (Units=GPa)
#
#
# Indices 1 2 3 4 5 6 
#
# 1 145.7695 16.5410 63.9779 0.0000 0.0000 0.0000
# 2 16.5410 34.1713 8.6877 0.0000 0.0000 0.0000
# 3 63.9779 8.6877 112.1604 0.0000 0.0000 0.0000
# 4 0.0000 0.0000 0.0000 18.4398 0.0000 0.0000
# 5 0.0000 0.0000 0.0000 0.0000 35.1541 0.0000
# 6 0.0000 0.0000 0.0000 0.0000 0.0000 18.9340
#
#
#
# Elastic Compliance Matrix: (Units=1/GPa)
#
#
# Indices 1 2 3 4 5 6 
#
# 1 0.009499 -0.003285 -0.005164 0.000000 0.000000 0.000000
# 2 -0.003285 0.030988 -0.000526 0.000000 0.000000 0.000000
# 3 -0.005164 -0.000526 0.011902 0.000000 0.000000 0.000000
# 4 0.000000 0.000000 0.000000 0.054230 0.000000 0.000000
# 5 0.000000 0.000000 0.000000 0.000000 0.028446 0.000000
# 6 0.000000 0.000000 0.000000 0.000000 0.000000 0.052815
#
#
# Mechanical properties :
#
#
# Convention : Reuss Voigt Hill
#
# Bulk Modulus (GPa) = 29.03719 52.27939 40.65829
# Shear Modulus (GPa) = 23.00827 28.03189 25.52008
#
# Velocity S-wave (km/s) = 3.55963 3.92906 3.74890
# Velocity P-wave (km/s) = 5.73461 7.02669 6.41327
#
# Compressibility (1/GPa) = 0.03443859
#
# Stress axis : x y z
#
# Youngs Moduli (GPa) = 105.26883 32.27004 84.01753
#
# Poissons Ratio (x) = 0.10602 0.43388
# Poissons Ratio (y) = 0.34585 0.04422
# Poissons Ratio (z) = 0.54363 0.01698
#
# Static dielectric constant tensor:
#      x y z
#    x 3.936970 0.000000 0.000000 
#    y 0.000000 2.997600 0.000000 
#    z 0.000000 0.000000 4.189060 
# 
# 
# High freq. dielectric constant tensor:
#      x y z
#    x 1.724990 0.000000 0.000000 
#    y 0.000000 1.664270 0.000000 
#    z 0.000000 0.000000 1.695130 
# 
# From -- ./inp_files/33761.got.cif
#   From: 2010.03.12/outbox.cif.g09.slc.cpg/sg64_17_cif.got.tgz:33761.got - 2010.04.10 20:19:32.
