data_PCOD8261910
_publ_section_title
;
Structure prediction by ZEFSAII (Michael W. Deem and Ramdas Pophale) SiO2 
 PCOD8261910
Probable space group: C M C A
;
_chemical_formula_sum "Si O2"
_cell_formula_units_Z 96
_cell_length_a 17.512452
_cell_length_b 19.378387
_cell_length_c 15.454203
_cell_angle_alpha 90.000000
_cell_angle_beta 90.000000
_cell_angle_gamma 90.000000
_cell_volume 5244.585808
_symmetry_space_group_name_H-M "C M C A"
_symmetry_group_IT_number 64
_symmetry_cell_setting 'orthorhombic'
loop_
_space_group_symop_operation_xyz
x,y,z
-x,1/2-y,1/2+z
x,-y,-z
-x,1/2+y,1/2-z
-x,-y,-z
x,1/2+y,1/2-z
-x,y,z
x,1/2-y,1/2+z
1/2+x,1/2+y,z
1/2-x,-y,1/2+z
1/2+x,1/2-y,-z
1/2-x,y,1/2-z
1/2-x,1/2-y,-z
1/2+x,y,1/2-z
1/2-x,1/2+y,z
1/2+x,-y,1/2+z
loop_
_atom_site_type_symbol
_atom_site_label
_atom_site_fract_x
_atom_site_fract_y
_atom_site_fract_z
Si Si1 0.307899 0.972178 0.183350
Si Si2 0.085439 0.571293 0.263132
Si Si3 0.728389 0.245868 0.657724
Si Si4 0.912195 0.182983 0.388970
Si Si5 0.302048 0.364086 0.461845
Si Si6 0.716730 0.395980 0.880882
O O1 0.250000 0.933475 0.250000
O O2 0.329134 0.921868 0.105379
O O3 0.385662 0.996505 0.229635
O O4 0.267279 0.042416 0.155325
O O5 0.091211 0.627178 0.187092
O O6 0.129969 0.594771 0.350009
O O7 0.000000 0.561222 0.295062
O O8 0.750000 0.212310 0.750000
O O9 0.636500 0.248578 0.639516
O O10 0.774423 0.205451 0.584298
O O11 0.752960 0.325193 0.658836
O O12 0.873789 0.151421 0.475823
O O13 0.000000 0.204097 0.408564
O O14 0.228780 0.393422 0.515277
#
# Coordination Sequence:
#
# PCOD8261910 Si02
#       6
#    16  16  16  16  16  16
#     4  10  19  35  55  81 111 146 185 230 275 330
#     4  10  19  33  58  82 106 145 184 227 276 325
#     4  11  19  37  57  77 111 150 192 229 274 334
#     4  10  20  35  55  82 113 139 181 233 279 329
#     4  11  22  32  56  86 112 147 184 237 286 325
#     4  10  18  35  55  76 106 142 192 231 259 328
#
# _framework density 18.304590999999999
#
# number of rings (size 3 to 8) (size 9 to 14) (size 15 to 20)
#    0.000    1.667    5.000    3.500    0.000    0.667 
#    0.000    5.833    0.000   16.000    0.000    0.000 
#    0.000    0.000    0.000    0.000    0.000    0.000 
#
# Total GULP energy -594814.481453 kJ/mol
# GULP energy per Si atom -12391.968364 kJ/mol
# Density = 1.826293 g / cm^3
# Si number density = 18.304591 Si / 1000 Ang^3
#
#
#
# Elastic Constant Matrix: (Units=GPa)
#
#
# Indices 1 2 3 4 5 6 
#
# 1 153.9689 34.5981 45.3807 0.0000 0.0000 0.0000
# 2 34.5981 54.8071 21.3636 0.0000 0.0000 0.0000
# 3 45.3807 21.3636 91.5084 0.0000 0.0000 0.0000
# 4 0.0000 0.0000 0.0000 24.1771 0.0000 0.0000
# 5 0.0000 0.0000 0.0000 0.0000 25.7027 0.0000
# 6 0.0000 0.0000 0.0000 0.0000 0.0000 13.9007
#
#
#
# Elastic Compliance Matrix: (Units=1/GPa)
#
#
# Indices 1 2 3 4 5 6 
#
# 1 0.008340 -0.004018 -0.003198 0.000000 0.000000 0.000000
# 2 -0.004018 0.022009 -0.003145 0.000000 0.000000 0.000000
# 3 -0.003198 -0.003145 0.013248 0.000000 0.000000 0.000000
# 4 0.000000 0.000000 0.000000 0.041362 0.000000 0.000000
# 5 0.000000 0.000000 0.000000 0.000000 0.038906 0.000000
# 6 0.000000 0.000000 0.000000 0.000000 0.000000 0.071939
#
#
# Mechanical properties :
#
#
# Convention : Reuss Voigt Hill
#
# Bulk Modulus (GPa) = 43.71848 55.88548 49.80198
# Shear Modulus (GPa) = 22.30628 26.01888 24.16258
#
# Velocity S-wave (km/s) = 3.49466 3.77429 3.63716
# Velocity P-wave (km/s) = 6.34186 7.04207 6.70112
#
# Compressibility (1/GPa) = 0.02287362
#
# Stress axis : x y z
#
# Youngs Moduli (GPa) = 119.89872 45.43688 75.48191
#
# Poissons Ratio (x) = 0.18259 0.24139
# Poissons Ratio (y) = 0.48181 0.23741
# Poissons Ratio (z) = 0.38344 0.14291
#
# Static dielectric constant tensor:
#      x y z
#    x 3.605330 0.000000 0.000000 
#    y 0.000000 3.212930 0.000000 
#    z 0.000000 0.000000 4.043390 
# 
# 
# High freq. dielectric constant tensor:
#      x y z
#    x 1.693650 0.000000 0.000000 
#    y 0.000000 1.695660 0.000000 
#    z 0.000000 0.000000 1.717020 
# 
# From -- ./inp_files/33254.got.cif
#   From: 2010.03.12/outbox.cif.g09.slc.cpg/sg64_17_cif.got.tgz:33254.got - 2010.04.10 20:19:32.
