data_PCOD8261953
_publ_section_title
;
Structure prediction by ZEFSAII (Michael W. Deem and Ramdas Pophale) SiO2 
 PCOD8261953
Probable space group: C M C A
;
_chemical_formula_sum "Si O2"
_cell_formula_units_Z 80
_cell_length_a 21.348273
_cell_length_b 13.415560
_cell_length_c 14.435655
_cell_angle_alpha 90.000000
_cell_angle_beta 90.000000
_cell_angle_gamma 90.000000
_cell_volume 4134.357695
_symmetry_space_group_name_H-M "C M C A"
_symmetry_group_IT_number 64
_symmetry_cell_setting 'orthorhombic'
loop_
_space_group_symop_operation_xyz
x,y,z
-x,1/2-y,1/2+z
x,-y,-z
-x,1/2+y,1/2-z
-x,-y,-z
x,1/2+y,1/2-z
-x,y,z
x,1/2-y,1/2+z
1/2+x,1/2+y,z
1/2-x,-y,1/2+z
1/2+x,1/2-y,-z
1/2-x,y,1/2-z
1/2-x,1/2-y,-z
1/2+x,y,1/2-z
1/2-x,1/2+y,z
1/2+x,-y,1/2+z
loop_
_atom_site_type_symbol
_atom_site_label
_atom_site_fract_x
_atom_site_fract_y
_atom_site_fract_z
Si Si1 0.430014 0.261252 0.901036
Si Si2 0.109073 0.959097 0.395926
Si Si3 0.928014 0.347012 0.795659
Si Si4 0.661270 0.253748 0.063972
Si Si5 0.763252 0.403511 0.046684
O O1 0.500000 0.287013 0.935379
O O2 0.428362 0.142988 0.879839
O O3 0.413505 0.327194 0.811458
O O4 0.379849 0.292613 0.977930
O O5 0.183198 0.937302 0.380661
O O6 0.096301 0.000000 0.500000
O O7 0.086159 0.038192 0.320060
O O8 0.884024 0.272533 0.852360
O O9 0.000000 0.322175 0.819698
O O10 0.708787 0.340574 0.096325
O O11 0.701971 0.158274 0.034774
O O12 0.731715 0.500000 0.000000
#
# Coordination Sequence:
#
# PCOD8261953 Si02
#       5
#    16  16  16  16  16
#     4  10  21  35  56  90 121 148 197 247 296 359
#     4  10  18  37  65  84 108 152 203 248 292 337
#     4  11  21  35  61  90 118 150 196 253 296 346
#     4  10  19  35  60  81 118 152 190 244 304 336
#     4   9  17  35  59  80 108 150 195 245 280 350
#
# _framework density 19.350042999999999
#
# number of rings (size 3 to 8) (size 9 to 14) (size 15 to 20)
#    0.000    2.000    6.000    1.200    0.000    0.800 
#    3.600    9.000    4.400    1.200    0.000    0.000 
#    0.000    0.000    0.000    0.000    0.000    0.000 
#
# Total GULP energy -495900.218550 kJ/mol
# GULP energy per Si atom -12397.505464 kJ/mol
# Density = 1.930600 g / cm^3
# Si number density = 19.350043 Si / 1000 Ang^3
#
#
#
# Elastic Constant Matrix: (Units=GPa)
#
#
# Indices 1 2 3 4 5 6 
#
# 1 105.1463 25.1088 26.6198 0.0000 0.0000 0.0000
# 2 25.1088 57.7322 15.0215 0.0000 0.0000 0.0000
# 3 26.6198 15.0215 51.0708 0.0000 0.0000 0.0000
# 4 0.0000 0.0000 0.0000 31.2438 0.0000 0.0000
# 5 0.0000 0.0000 0.0000 0.0000 8.2638 0.0000
# 6 0.0000 0.0000 0.0000 0.0000 0.0000 34.9486
#
#
#
# Elastic Compliance Matrix: (Units=1/GPa)
#
#
# Indices 1 2 3 4 5 6 
#
# 1 0.011673 -0.003783 -0.004971 0.000000 0.000000 0.000000
# 2 -0.003783 0.019983 -0.003906 0.000000 0.000000 0.000000
# 3 -0.004971 -0.003906 0.023321 0.000000 0.000000 0.000000
# 4 0.000000 0.000000 0.000000 0.032006 0.000000 0.000000
# 5 0.000000 0.000000 0.000000 0.000000 0.121010 0.000000
# 6 0.000000 0.000000 0.000000 0.000000 0.000000 0.028613
#
#
# Mechanical properties :
#
#
# Convention : Reuss Voigt Hill
#
# Bulk Modulus (GPa) = 33.72025 38.60550 36.16287
# Shear Modulus (GPa) = 18.39509 24.70450 21.54979
#
# Velocity S-wave (km/s) = 3.08660 3.57699 3.34081
# Velocity P-wave (km/s) = 5.49246 6.08722 5.79747
#
# Compressibility (1/GPa) = 0.02965577
#
# Stress axis : x y z
#
# Youngs Moduli (GPa) = 85.67101 50.04266 42.88037
#
# Poissons Ratio (x) = 0.18932 0.21317
# Poissons Ratio (y) = 0.32410 0.16748
# Poissons Ratio (z) = 0.42590 0.19545
#
# Static dielectric constant tensor:
#      x y z
#    x 3.717220 0.000000 0.000000 
#    y 0.000000 3.654360 0.000000 
#    z 0.000000 0.000000 3.150150 
# 
# 
# High freq. dielectric constant tensor:
#      x y z
#    x 1.766310 0.000000 0.000000 
#    y 0.000000 1.752490 0.000000 
#    z 0.000000 0.000000 1.713650 
# 
# From -- ./inp_files/26140.got.cif
#   From: 2010.03.12/outbox.cif.g09.slc.cpg/sg64_14_cif.got.tgz:26140.got - 2010.04.10 20:19:32.
