data_PCOD8261512
_publ_section_title
;
Structure prediction by ZEFSAII (Michael W. Deem and Ramdas Pophale) SiO2 
 PCOD8261512
Probable space group: C M C A
;
_chemical_formula_sum "Si O2"
_cell_formula_units_Z 128
_cell_length_a 25.281424
_cell_length_b 11.919128
_cell_length_c 24.050994
_cell_angle_alpha 90.000000
_cell_angle_beta 90.000000
_cell_angle_gamma 90.000000
_cell_volume 7247.346839
_symmetry_space_group_name_H-M "C M C A"
_symmetry_group_IT_number 64
_symmetry_cell_setting 'orthorhombic'
loop_
_space_group_symop_operation_xyz
x,y,z
-x,1/2-y,1/2+z
x,-y,-z
-x,1/2+y,1/2-z
-x,-y,-z
x,1/2+y,1/2-z
-x,y,z
x,1/2-y,1/2+z
1/2+x,1/2+y,z
1/2-x,-y,1/2+z
1/2+x,1/2-y,-z
1/2-x,y,1/2-z
1/2-x,1/2-y,-z
1/2+x,y,1/2-z
1/2-x,1/2+y,z
1/2+x,-y,1/2+z
loop_
_atom_site_type_symbol
_atom_site_label
_atom_site_fract_x
_atom_site_fract_y
_atom_site_fract_z
Si Si1 0.438605 0.502960 0.782449
Si Si2 0.744432 0.014720 0.313246
Si Si3 0.439972 0.943823 0.841464
Si Si4 0.798928 0.810496 0.614131
Si Si5 0.203820 0.671751 0.883965
Si Si6 0.145400 0.168938 0.194482
Si Si7 0.619691 0.728495 0.809844
Si Si8 0.862397 0.507165 0.061593
O O1 0.500000 0.500571 0.799602
O O2 0.431610 0.511417 0.715799
O O3 0.412452 0.389833 0.808511
O O4 0.409725 0.611285 0.805792
O O5 0.750000 0.981723 0.250000
O O6 0.787617 0.103797 0.334727
O O7 0.686137 0.067667 0.317633
O O8 0.756080 0.899691 0.345477
O O9 0.500000 0.947632 0.861587
O O10 0.424174 0.816254 0.830240
O O11 0.406387 0.000387 0.890618
O O12 0.744390 0.761731 0.588852
O O13 0.836644 0.716144 0.641400
O O14 0.829261 0.877333 0.565631
O O15 0.156461 0.734276 0.850837
O O16 0.177465 0.597434 0.931600
O O17 0.149528 0.230740 0.253948
O O18 0.887672 0.500000 0.000000
#
# Coordination Sequence:
#
# PCOD8261512 Si02
#       8
#    16  16  16  16  16  16  16  16
#     4  10  20  32  49  73 104 139 164 190 241 303
#     4  10  18  28  46  73 104 134 165 192 233 290
#     4   9  19  34  49  71  98 123 165 208 242 293
#     4   9  19  32  46  75 102 129 166 198 238 291
#     4  10  21  31  49  73 101 134 164 200 243 290
#     4  10  20  30  46  70 103 136 166 198 230 292
#     4  10  17  29  49  72 102 136 159 191 238 290
#     4  10  21  37  53  70  94 126 169 216 252 283
#
# _framework density 17.661635
#
# number of rings (size 3 to 8) (size 9 to 14) (size 15 to 20)
#    0.000    2.250    1.250    1.875    5.250    1.250 
#    0.000    0.625    0.000    0.000    0.000    0.000 
#    0.000    5.000    0.000    0.000    0.000    0.000 
#
# Total GULP energy -793079.803726 kJ/mol
# GULP energy per Si atom -12391.871933 kJ/mol
# Density = 1.762144 g / cm^3
# Si number density = 17.661635 Si / 1000 Ang^3
#
#
#
# Elastic Constant Matrix: (Units=GPa)
#
#
# Indices 1 2 3 4 5 6 
#
# 1 89.5254 33.2985 26.8234 0.0000 0.0000 0.0000
# 2 33.2985 69.0941 19.6187 0.0000 0.0000 0.0000
# 3 26.8234 19.6187 53.5726 0.0000 0.0000 0.0000
# 4 0.0000 0.0000 0.0000 7.5537 0.0000 0.0000
# 5 0.0000 0.0000 0.0000 0.0000 14.7342 0.0000
# 6 0.0000 0.0000 0.0000 0.0000 0.0000 25.6601
#
#
#
# Elastic Compliance Matrix: (Units=1/GPa)
#
#
# Indices 1 2 3 4 5 6 
#
# 1 0.014882 -0.005643 -0.005385 0.000000 0.000000 0.000000
# 2 -0.005643 0.018292 -0.003873 0.000000 0.000000 0.000000
# 3 -0.005385 -0.003873 0.022781 0.000000 0.000000 0.000000
# 4 0.000000 0.000000 0.000000 0.132386 0.000000 0.000000
# 5 0.000000 0.000000 0.000000 0.000000 0.067869 0.000000
# 6 0.000000 0.000000 0.000000 0.000000 0.000000 0.038971
#
#
# Mechanical properties :
#
#
# Convention : Reuss Voigt Hill
#
# Bulk Modulus (GPa) = 38.23684 41.29704 39.76694
# Shear Modulus (GPa) = 14.98339 18.41970 16.70155
#
# Velocity S-wave (km/s) = 2.91582 3.23293 3.07846
# Velocity P-wave (km/s) = 5.74740 6.11301 5.93302
#
# Compressibility (1/GPa) = 0.02615279
#
# Stress axis : x y z
#
# Youngs Moduli (GPa) = 67.19338 54.66731 43.89654
#
# Poissons Ratio (x) = 0.30850 0.23638
# Poissons Ratio (y) = 0.37919 0.17002
# Poissons Ratio (z) = 0.36183 0.21174
#
# Static dielectric constant tensor:
#      x y z
#    x 3.355840 0.000000 0.000000 
#    y 0.000000 3.289170 0.000000 
#    z 0.000000 0.000000 2.859220 
# 
# 
# High freq. dielectric constant tensor:
#      x y z
#    x 1.686670 0.000000 0.000000 
#    y 0.000000 1.689230 0.000000 
#    z 0.000000 0.000000 1.636170 
# 
# From -- ./inp_files/46759.got.cif
#   From: 2010.03.12/outbox.cif.g09.slc.cpg/sg64_24_cif.got.tgz:46759.got - 2010.04.10 20:19:32.
