data_PCOD8261357
_publ_section_title
;
Structure prediction by ZEFSAII (Michael W. Deem and Ramdas Pophale) SiO2 
 PCOD8261357
Probable space group: C M C M
;
_chemical_formula_sum "Si O2"
_cell_formula_units_Z 80
_cell_length_a 9.508079
_cell_length_b 19.301975
_cell_length_c 25.804974
_cell_angle_alpha 90.000000
_cell_angle_beta 90.000000
_cell_angle_gamma 90.000000
_cell_volume 4735.850193
_symmetry_space_group_name_H-M "C M C M"
_symmetry_group_IT_number 63
_symmetry_cell_setting 'orthorhombic'
loop_
_space_group_symop_operation_xyz
x,y,z
-x,-y,1/2+z
x,-y,-z
-x,y,1/2-z
-x,-y,-z
x,y,1/2-z
-x,y,z
x,-y,1/2+z
1/2+x,1/2+y,z
1/2-x,1/2-y,1/2+z
1/2+x,1/2-y,-z
1/2-x,1/2+y,1/2-z
1/2-x,1/2-y,-z
1/2+x,1/2+y,1/2-z
1/2-x,1/2+y,z
1/2+x,1/2-y,1/2+z
loop_
_atom_site_type_symbol
_atom_site_label
_atom_site_fract_x
_atom_site_fract_y
_atom_site_fract_z
Si Si1 0.162891 0.137069 0.035131
Si Si2 0.336514 0.877274 0.809103
Si Si3 0.836943 0.731485 0.105962
Si Si4 0.837066 0.974429 0.621830
Si Si5 0.664768 0.617425 0.919752
O O1 0.247985 0.201202 0.058653
O O2 0.185471 0.068791 0.069379
O O3 0.000000 0.159135 0.032973
O O4 0.225075 0.122067 0.978105
O O5 0.292677 0.863773 0.750000
O O6 0.500000 0.895794 0.814423
O O7 0.299076 0.807247 0.840522
O O8 0.249683 0.942041 0.830900
O O9 0.799757 0.812728 0.112144
O O10 0.000000 0.721918 0.091550
O O11 0.000000 0.975471 0.638479
O O12 0.774414 0.051234 0.611123
O O13 0.500000 0.604288 0.925028
#
# Coordination Sequence:
#
# PCOD8261357 Si02
#       5
#    16  16  16  16  16
#     4   9  16  27  44  65  92 124 149 171 208 257
#     4   9  18  33  49  62  81 112 146 181 224 267
#     4   9  17  29  45  65  88 115 149 183 213 253
#     4   9  17  29  46  68  90 114 147 181 213 255
#     4   9  16  27  44  67  94 119 143 176 216 256
#
# _framework density 16.892427000000001
#
# number of rings (size 3 to 8) (size 9 to 14) (size 15 to 20)
#    0.000    3.000    0.000    1.200    0.000    2.800 
#    0.000    3.000    0.000    8.400    0.000    0.000 
#    0.000    0.000    0.000    0.000    0.000    0.000 
#
# Total GULP energy -495937.203164 kJ/mol
# GULP energy per Si atom -12398.430079 kJ/mol
# Density = 1.685398 g / cm^3
# Si number density = 16.892427 Si / 1000 Ang^3
#
#
#
# Elastic Constant Matrix: (Units=GPa)
#
#
# Indices 1 2 3 4 5 6 
#
# 1 36.7123 36.6675 33.5686 0.0000 0.0000 0.0000
# 2 36.6675 135.0839 58.3916 0.0000 0.0000 0.0000
# 3 33.5686 58.3916 117.2948 0.0000 0.0000 0.0000
# 4 0.0000 0.0000 0.0000 14.8541 0.0000 0.0000
# 5 0.0000 0.0000 0.0000 0.0000 21.3530 0.0000
# 6 0.0000 0.0000 0.0000 0.0000 0.0000 21.3643
#
#
#
# Elastic Compliance Matrix: (Units=1/GPa)
#
#
# Indices 1 2 3 4 5 6 
#
# 1 0.042829 -0.008062 -0.008244 0.000000 0.000000 0.000000
# 2 -0.008062 0.010950 -0.003144 0.000000 0.000000 0.000000
# 3 -0.008244 -0.003144 0.012450 0.000000 0.000000 0.000000
# 4 0.000000 0.000000 0.000000 0.067322 0.000000 0.000000
# 5 0.000000 0.000000 0.000000 0.000000 0.046832 0.000000
# 6 0.000000 0.000000 0.000000 0.000000 0.000000 0.046807
#
#
# Mechanical properties :
#
#
# Convention : Reuss Voigt Hill
#
# Bulk Modulus (GPa) = 36.59057 60.70515 48.64786
# Shear Modulus (GPa) = 18.16869 22.21183 20.19026
#
# Velocity S-wave (km/s) = 3.28312 3.63009 3.46095
# Velocity P-wave (km/s) = 6.00665 7.32013 6.69568
#
# Compressibility (1/GPa) = 0.02732945
#
# Stress axis : x y z
#
# Youngs Moduli (GPa) = 23.34874 91.32252 80.32186
#
# Poissons Ratio (x) = 0.73625 0.66215
# Poissons Ratio (y) = 0.18824 0.25253
# Poissons Ratio (z) = 0.19248 0.28711
#
# Static dielectric constant tensor:
#      x y z
#    x 3.001480 0.000000 0.000000 
#    y 0.000000 3.318590 0.000000 
#    z 0.000000 0.000000 3.107560 
# 
# 
# High freq. dielectric constant tensor:
#      x y z
#    x 1.627130 0.000000 0.000000 
#    y 0.000000 1.656310 0.000000 
#    z 0.000000 0.000000 1.638970 
# 
# From -- ./inp_files/61099.got.cif
#   From: 2010.03.12/outbox.cif.g09.slc.cpg/sg63_31_cif.got.tgz:61099.got - 2010.04.10 19:34:48.
