data_PCOD8261456
_publ_section_title
;
Structure prediction by ZEFSAII (Michael W. Deem and Ramdas Pophale) SiO2 
 PCOD8261456
Probable space group: C M C A
;
_chemical_formula_sum "Si O2"
_cell_formula_units_Z 112
_cell_length_a 9.661722
_cell_length_b 27.614193
_cell_length_c 27.921576
_cell_angle_alpha 90.000000
_cell_angle_beta 90.000000
_cell_angle_gamma 90.000000
_cell_volume 7449.494794
_symmetry_space_group_name_H-M "C M C A"
_symmetry_group_IT_number 64
_symmetry_cell_setting 'orthorhombic'
loop_
_space_group_symop_operation_xyz
x,y,z
-x,1/2-y,1/2+z
x,-y,-z
-x,1/2+y,1/2-z
-x,-y,-z
x,1/2+y,1/2-z
-x,y,z
x,1/2-y,1/2+z
1/2+x,1/2+y,z
1/2-x,-y,1/2+z
1/2+x,1/2-y,-z
1/2-x,y,1/2-z
1/2-x,1/2-y,-z
1/2+x,y,1/2-z
1/2-x,1/2+y,z
1/2+x,-y,1/2+z
loop_
_atom_site_type_symbol
_atom_site_label
_atom_site_fract_x
_atom_site_fract_y
_atom_site_fract_z
Si Si1 0.835652 0.606997 0.395677
Si Si2 0.160802 0.300660 0.552697
Si Si3 0.162639 0.706817 0.895405
Si Si4 0.339447 0.354370 0.042264
Si Si5 0.659975 0.634666 0.205718
Si Si6 0.659253 0.747101 0.205305
Si Si7 0.835516 0.051496 0.015299
O O1 0.769971 0.656637 0.415984
O O2 0.793931 0.601890 0.339962
O O3 0.784727 0.563186 0.430136
O O4 0.000000 0.610880 0.400014
O O5 0.220427 0.249222 0.569605
O O6 0.185717 0.312120 0.496994
O O7 0.000000 0.299199 0.565492
O O8 0.247520 0.658834 0.911127
O O9 0.197730 0.720644 0.840733
O O10 0.000000 0.696728 0.902020
O O11 0.500000 0.356921 0.057192
O O12 0.288950 0.406063 0.021139
O O13 0.500000 0.626543 0.218519
O O14 0.750000 0.616115 0.250000
O O15 0.689517 0.690850 0.193624
O O16 0.500000 0.754242 0.219470
O O17 0.750000 0.765234 0.250000
O O18 0.000000 0.048636 0.014251
O O19 0.769717 0.000000 0.000000
#
# Coordination Sequence:
#
# PCOD8261456 Si02
#       7
#    16  16  16  16  16  16  16
#     4   8  12  21  38  57  78 107 136 161 196 240
#     4   8  13  23  37  54  79 109 135 157 187 230
#     4  10  17  26  40  56  79 110 138 160 190 237
#     4   9  17  26  39  60  82 103 131 167 201 231
#     4   9  15  24  38  56  79 107 136 163 194 233
#     4   9  17  27  39  55  77 108 141 168 194 230
#     4   8  14  25  42  63  83 102 132 173 208 240
#
# _framework density 15.034577000000001
#
# number of rings (size 3 to 8) (size 9 to 14) (size 15 to 20)
#    0.000    3.286    1.429    2.143    0.000    0.571 
#    0.000    0.000    0.000    3.857    0.000    1.000 
#    0.000    4.571    0.000    0.000    0.000    0.000 
#
# Total GULP energy -693790.073343 kJ/mol
# GULP energy per Si atom -12389.108453 kJ/mol
# Density = 1.500036 g / cm^3
# Si number density = 15.034577 Si / 1000 Ang^3
#
#
#
# Elastic Constant Matrix: (Units=GPa)
#
#
# Indices 1 2 3 4 5 6 
#
# 1 34.7803 25.8343 44.1117 0.0000 0.0000 0.0000
# 2 25.8343 74.5627 60.2434 0.0000 0.0000 0.0000
# 3 44.1117 60.2434 113.5913 0.0000 0.0000 0.0000
# 4 0.0000 0.0000 0.0000 17.9014 0.0000 0.0000
# 5 0.0000 0.0000 0.0000 0.0000 24.0355 0.0000
# 6 0.0000 0.0000 0.0000 0.0000 0.0000 8.7371
#
#
#
# Elastic Compliance Matrix: (Units=1/GPa)
#
#
# Indices 1 2 3 4 5 6 
#
# 1 0.057109 -0.003269 -0.020443 0.000000 0.000000 0.000000
# 2 -0.003269 0.023654 -0.011276 0.000000 0.000000 0.000000
# 3 -0.020443 -0.011276 0.022722 0.000000 0.000000 0.000000
# 4 0.000000 0.000000 0.000000 0.055862 0.000000 0.000000
# 5 0.000000 0.000000 0.000000 0.000000 0.041605 0.000000
# 6 0.000000 0.000000 0.000000 0.000000 0.000000 0.114455
#
#
# Mechanical properties :
#
#
# Convention : Reuss Voigt Hill
#
# Bulk Modulus (GPa) = 29.84293 53.70144 41.77219
# Shear Modulus (GPa) = 12.60862 16.31779 14.46320
#
# Velocity S-wave (km/s) = 2.89907 3.29804 3.10497
# Velocity P-wave (km/s) = 5.57663 7.09217 6.37957
#
# Compressibility (1/GPa) = 0.03350877
#
# Stress axis : x y z
#
# Youngs Moduli (GPa) = 17.51043 42.27527 44.00932
#
# Poissons Ratio (x) = 0.13822 0.89970
# Poissons Ratio (y) = 0.05725 0.49623
# Poissons Ratio (z) = 0.35797 0.47668
#
# Static dielectric constant tensor:
#      x y z
#    x 2.529590 0.000000 0.000000 
#    y 0.000000 2.840330 0.000000 
#    z 0.000000 0.000000 3.003270 
# 
# 
# High freq. dielectric constant tensor:
#      x y z
#    x 1.536780 0.000000 0.000000 
#    y 0.000000 1.540060 0.000000 
#    z 0.000000 0.000000 1.577040 
# 
# From -- ./inp_files/44522.got.cif
#   From: 2010.03.12/outbox.cif.g09.slc.cpg/sg64_23_cif.got.tgz:44522.got - 2010.04.10 20:19:32.
