data_PCOD8261574
_publ_section_title
;
Structure prediction by ZEFSAII (Michael W. Deem and Ramdas Pophale) SiO2 
 PCOD8261574
Probable space group: C M C A
;
_chemical_formula_sum "Si O2"
_cell_formula_units_Z 88
_cell_length_a 14.107976
_cell_length_b 21.293192
_cell_length_c 15.782415
_cell_angle_alpha 90.000000
_cell_angle_beta 90.000000
_cell_angle_gamma 90.000000
_cell_volume 4741.098097
_symmetry_space_group_name_H-M "C M C A"
_symmetry_group_IT_number 64
_symmetry_cell_setting 'orthorhombic'
loop_
_space_group_symop_operation_xyz
x,y,z
-x,1/2-y,1/2+z
x,-y,-z
-x,1/2+y,1/2-z
-x,-y,-z
x,1/2+y,1/2-z
-x,y,z
x,1/2-y,1/2+z
1/2+x,1/2+y,z
1/2-x,-y,1/2+z
1/2+x,1/2-y,-z
1/2-x,y,1/2-z
1/2-x,1/2-y,-z
1/2+x,y,1/2-z
1/2-x,1/2+y,z
1/2+x,-y,1/2+z
loop_
_atom_site_type_symbol
_atom_site_label
_atom_site_fract_x
_atom_site_fract_y
_atom_site_fract_z
Si Si1 0.000000 0.212321 0.502139
Si Si2 0.606842 0.037554 0.390374
Si Si3 0.289895 0.319528 0.513762
Si Si4 0.500000 0.245075 0.309637
Si Si5 0.822608 0.845328 0.820745
Si Si6 0.500000 0.821724 0.367029
Si Si7 0.658354 0.907646 0.431830
O O1 0.903595 0.176163 0.476609
O O2 0.000000 0.215350 0.603997
O O3 0.000000 0.277324 0.450342
O O4 0.500000 0.013358 0.376894
O O5 0.636145 0.083903 0.313775
O O6 0.610061 0.077692 0.477398
O O7 0.674928 0.976078 0.388895
O O8 0.250000 0.250000 0.500000
O O9 0.240141 0.344136 0.596384
O O10 0.256434 0.368357 0.440408
O O11 0.593337 0.203736 0.314722
O O12 0.500000 0.285530 0.223177
O O13 0.750000 0.826904 0.750000
O O14 0.592253 0.865071 0.372289
#
# Coordination Sequence:
#
# PCOD8261574 Si02
#       7
#     8  16  16   8  16   8  16
#     4  12  22  40  54  85 129 160 191 232 309 370
#     4  10  17  35  63  85 111 151 200 259 291 333
#     4  11  21  36  62  84 120 157 188 244 303 360
#     4  12  24  35  60  87 121 158 200 246 298 368
#     4  11  23  38  56  87 118 156 201 242 300 361
#     4  12  20  32  60  92 122 156 197 245 297 362
#     4  10  19  33  60  93 113 145 202 248 297 350
#
# _framework density 18.5611
#
# number of rings (size 3 to 8) (size 9 to 14) (size 15 to 20)
#    0.000    1.091    6.364    2.727    0.000    0.000 
#    0.000    1.818    0.000    9.818    0.000    0.000 
#    0.000    0.000    0.000    0.000    0.000    0.000 
#
# Total GULP energy -545192.953139 kJ/mol
# GULP energy per Si atom -12390.748935 kJ/mol
# Density = 1.851885 g / cm^3
# Si number density = 18.561100 Si / 1000 Ang^3
#
#
#
# Elastic Constant Matrix: (Units=GPa)
#
#
# Indices 1 2 3 4 5 6 
#
# 1 137.3196 55.4972 24.6685 0.0000 0.0000 0.0000
# 2 55.4972 107.5389 26.0530 0.0000 0.0000 0.0000
# 3 24.6685 26.0530 61.1085 0.0000 0.0000 0.0000
# 4 0.0000 0.0000 0.0000 10.2676 0.0000 0.0000
# 5 0.0000 0.0000 0.0000 0.0000 20.6118 0.0000
# 6 0.0000 0.0000 0.0000 0.0000 0.0000 29.5349
#
#
#
# Elastic Compliance Matrix: (Units=1/GPa)
#
#
# Indices 1 2 3 4 5 6 
#
# 1 0.009400 -0.004385 -0.001925 0.000000 0.000000 0.000000
# 2 -0.004385 0.012415 -0.003523 0.000000 0.000000 0.000000
# 3 -0.001925 -0.003523 0.018644 0.000000 0.000000 0.000000
# 4 0.000000 0.000000 0.000000 0.097393 0.000000 0.000000
# 5 0.000000 0.000000 0.000000 0.000000 0.048516 0.000000
# 6 0.000000 0.000000 0.000000 0.000000 0.000000 0.033858
#
#
# Mechanical properties :
#
#
# Convention : Reuss Voigt Hill
#
# Bulk Modulus (GPa) = 48.09352 57.60048 52.84700
# Shear Modulus (GPa) = 20.25736 25.39942 22.82839
#
# Velocity S-wave (km/s) = 3.30720 3.70323 3.51080
# Velocity P-wave (km/s) = 6.36794 7.02748 6.70582
#
# Compressibility (1/GPa) = 0.02079282
#
# Stress axis : x y z
#
# Youngs Moduli (GPa) = 106.38065 80.54591 53.63772
#
# Poissons Ratio (x) = 0.35317 0.10327
# Poissons Ratio (y) = 0.46645 0.18897
# Poissons Ratio (z) = 0.20482 0.28377
#
# Static dielectric constant tensor:
#      x y z
#    x 4.166580 0.000000 0.000000 
#    y 0.000000 1.703060 0.000000 
#    z 0.000000 0.000000 3.394000 
# 
# 
# High freq. dielectric constant tensor:
#      x y z
#    x 1.720520 0.000000 0.000000 
#    y 0.000000 1.723760 0.000000 
#    z 0.000000 0.000000 1.693720 
# 
# From -- ./inp_files/32339.got.cif
#   From: 2010.03.12/outbox.cif.g09.slc.cpg/sg64_17_cif.got.tgz:32339.got - 2010.04.10 20:19:32.
