data_PCOD8261442
_publ_section_title
;
Structure prediction by ZEFSAII (Michael W. Deem and Ramdas Pophale) SiO2 
 PCOD8261442
Probable space group: C M C A
;
_chemical_formula_sum "Si O2"
_cell_formula_units_Z 88
_cell_length_a 14.337457
_cell_length_b 10.477047
_cell_length_c 24.870461
_cell_angle_alpha 90.000000
_cell_angle_beta 90.000000
_cell_angle_gamma 90.000000
_cell_volume 3735.896673
_symmetry_space_group_name_H-M "C M C A"
_symmetry_group_IT_number 64
_symmetry_cell_setting 'orthorhombic'
loop_
_space_group_symop_operation_xyz
x,y,z
-x,1/2-y,1/2+z
x,-y,-z
-x,1/2+y,1/2-z
-x,-y,-z
x,1/2+y,1/2-z
-x,y,z
x,1/2-y,1/2+z
1/2+x,1/2+y,z
1/2-x,-y,1/2+z
1/2+x,1/2-y,-z
1/2-x,y,1/2-z
1/2-x,1/2-y,-z
1/2+x,y,1/2-z
1/2-x,1/2+y,z
1/2+x,-y,1/2+z
loop_
_atom_site_type_symbol
_atom_site_label
_atom_site_fract_x
_atom_site_fract_y
_atom_site_fract_z
Si Si1 0.500000 0.995442 0.331319
Si Si2 0.679534 0.647450 0.331140
Si Si3 0.000000 0.485565 0.790178
Si Si4 0.655310 0.860859 0.060008
Si Si5 0.199219 0.087156 0.853413
Si Si6 0.895947 0.858498 0.553594
Si Si7 0.000000 0.272579 0.131964
O O1 0.500000 0.954249 0.268926
O O2 0.500000 0.148581 0.331020
O O3 0.410515 0.937314 0.361543
O O4 0.589188 0.604624 0.298521
O O5 0.756560 0.537292 0.324473
O O6 0.716098 0.788909 0.313695
O O7 0.657442 0.684782 0.393121
O O8 0.000000 0.600102 0.832431
O O9 0.754174 0.891663 0.087856
O O10 0.594031 0.764560 0.096161
O O11 0.594485 0.989067 0.056253
O O12 0.664364 0.810816 0.998375
O O13 0.000000 0.800245 0.551104
#
# Coordination Sequence:
#
# PCOD8261442 Si02
#       7
#     8  16   8  16  16  16   8
#     4  12  31  44  67  98 142 182 238 291 352 406
#     4  11  23  45  73 100 143 177 233 287 351 412
#     4  12  25  47  73  98 125 189 234 293 352 417
#     4  10  18  36  70 101 138 177 224 281 347 413
#     4  11  25  45  65 101 140 183 226 289 340 416
#     4  10  16  33  70 109 132 179 232 279 341 426
#     4  12  20  44  69  99 134 174 226 292 347 412
#
# _framework density 23.555254999999999
#
# number of rings (size 3 to 8) (size 9 to 14) (size 15 to 20)
#    0.000    1.091    6.364    2.182    2.545    1.455 
#    0.000    5.455    0.000    9.818    0.000    0.000 
#    0.000    0.000    0.000    0.000    0.000    0.000 
#
# Total GULP energy -545402.544836 kJ/mol
# GULP energy per Si atom -12395.512383 kJ/mol
# Density = 2.350164 g / cm^3
# Si number density = 23.555255 Si / 1000 Ang^3
#
#
#
# Elastic Constant Matrix: (Units=GPa)
#
#
# Indices 1 2 3 4 5 6 
#
# 1 165.8182 41.6572 41.2914 0.0000 0.0000 0.0000
# 2 41.6572 121.1661 -2.6396 0.0000 0.0000 0.0000
# 3 41.2914 -2.6396 101.8421 0.0000 0.0000 0.0000
# 4 0.0000 0.0000 0.0000 14.2540 0.0000 0.0000
# 5 0.0000 0.0000 0.0000 0.0000 23.6924 0.0000
# 6 0.0000 0.0000 0.0000 0.0000 0.0000 30.8298
#
#
#
# Elastic Compliance Matrix: (Units=1/GPa)
#
#
# Indices 1 2 3 4 5 6 
#
# 1 0.007463 -0.002633 -0.003094 0.000000 0.000000 0.000000
# 2 -0.002633 0.009187 0.001306 0.000000 0.000000 0.000000
# 3 -0.003094 0.001306 0.011107 0.000000 0.000000 0.000000
# 4 0.000000 0.000000 0.000000 0.070156 0.000000 0.000000
# 5 0.000000 0.000000 0.000000 0.000000 0.042208 0.000000
# 6 0.000000 0.000000 0.000000 0.000000 0.000000 0.032436
#
#
# Mechanical properties :
#
#
# Convention : Reuss Voigt Hill
#
# Bulk Modulus (GPa) = 52.87038 61.04939 56.95988
# Shear Modulus (GPa) = 26.63774 34.32309 30.48041
#
# Velocity S-wave (km/s) = 3.36648 3.82138 3.60112
# Velocity P-wave (km/s) = 6.13228 6.74124 6.44396
#
# Compressibility (1/GPa) = 0.01891418
#
# Stress axis : x y z
#
# Youngs Moduli (GPa) = 134.00118 108.85151 90.03023
#
# Poissons Ratio (x) = 0.28661 0.27855
# Poissons Ratio (y) = 0.35283 -0.11755
# Poissons Ratio (z) = 0.41459 -0.14212
#
# Static dielectric constant tensor:
#      x y z
#    x 4.114180 0.000000 0.000000 
#    y 0.000000 4.288480 0.000000 
#    z 0.000000 0.000000 4.274630 
# 
# 
# High freq. dielectric constant tensor:
#      x y z
#    x 1.935290 0.000000 0.000000 
#    y 0.000000 1.929330 0.000000 
#    z 0.000000 0.000000 1.913770 
# 
# From -- ./inp_files/45118.got.cif
#   From: 2010.03.12/outbox.cif.g09.slc.cpg/sg64_23_cif.got.tgz:45118.got - 2010.04.10 20:19:32.
