data_PCOD8261854
_publ_section_title
;
Structure prediction by ZEFSAII (Michael W. Deem and Ramdas Pophale) SiO2 
 PCOD8261854
Probable space group: C M C A
;
_chemical_formula_sum "Si O2"
_cell_formula_units_Z 96
_cell_length_a 8.651825
_cell_length_b 20.708661
_cell_length_c 28.177873
_cell_angle_alpha 90.000000
_cell_angle_beta 90.000000
_cell_angle_gamma 90.000000
_cell_volume 5048.565005
_symmetry_space_group_name_H-M "C M C A"
_symmetry_group_IT_number 64
_symmetry_cell_setting 'orthorhombic'
loop_
_space_group_symop_operation_xyz
x,y,z
-x,1/2-y,1/2+z
x,-y,-z
-x,1/2+y,1/2-z
-x,-y,-z
x,1/2+y,1/2-z
-x,y,z
x,1/2-y,1/2+z
1/2+x,1/2+y,z
1/2-x,-y,1/2+z
1/2+x,1/2-y,-z
1/2-x,y,1/2-z
1/2-x,1/2-y,-z
1/2+x,y,1/2-z
1/2-x,1/2+y,z
1/2+x,-y,1/2+z
loop_
_atom_site_type_symbol
_atom_site_label
_atom_site_fract_x
_atom_site_fract_y
_atom_site_fract_z
Si Si1 0.182284 0.682218 0.200848
Si Si2 0.183208 0.753374 0.551699
Si Si3 0.817937 0.378198 0.895292
Si Si4 0.682799 0.677608 0.699952
Si Si5 0.317834 0.871892 0.391804
Si Si6 0.317534 0.493002 0.444787
O O1 0.250000 0.654952 0.250000
O O2 0.224886 0.630194 0.160228
O O3 0.253629 0.751330 0.187644
O O4 0.000000 0.692253 0.205327
O O5 0.250000 0.750000 0.500000
O O6 0.251661 0.817640 0.576090
O O7 0.240433 0.691731 0.581052
O O8 0.000000 0.755131 0.549513
O O9 0.752185 0.444703 0.916465
O O10 0.000000 0.378102 0.902477
O O11 0.500000 0.680116 0.703355
O O12 0.750000 0.653060 0.750000
O O13 0.735540 0.627223 0.659522
O O14 0.500000 0.871980 0.383838
O O15 0.269605 0.932354 0.423257
O O16 0.274536 0.500000 0.500000
O O17 0.500000 0.483779 0.437942
#
# Coordination Sequence:
#
# PCOD8261854 Si02
#       6
#    16  16  16  16  16  16
#     4  10  18  33  55  82 115 147 184 228 285 338
#     4  10  20  35  55  80 109 143 186 237 287 333
#     4   9  18  35  56  78 110 149 184 231 286 336
#     4  11  21  35  58  87 117 149 189 233 286 343
#     4  11  22  38  58  83 117 152 190 238 291 342
#     4  10  21  38  60  82 111 154 201 240 286 346
#
# _framework density 19.015304
#
# number of rings (size 3 to 8) (size 9 to 14) (size 15 to 20)
#    0.000    1.833    1.667    4.500    0.000    3.000 
#    0.000    3.333    0.000    2.000    0.000    0.000 
#    0.000    0.000    0.000    0.000    0.000    0.000 
#
# Total GULP energy -595252.544297 kJ/mol
# GULP energy per Si atom -12401.094673 kJ/mol
# Density = 1.897202 g / cm^3
# Si number density = 19.015304 Si / 1000 Ang^3
#
#
#
# Elastic Constant Matrix: (Units=GPa)
#
#
# Indices 1 2 3 4 5 6 
#
# 1 79.1689 31.5302 48.6136 0.0000 0.0000 0.0000
# 2 31.5302 113.0799 63.3684 0.0000 0.0000 0.0000
# 3 48.6136 63.3684 157.8474 0.0000 0.0000 0.0000
# 4 0.0000 0.0000 0.0000 36.4553 0.0000 0.0000
# 5 0.0000 0.0000 0.0000 0.0000 30.1684 0.0000
# 6 0.0000 0.0000 0.0000 0.0000 0.0000 24.3604
#
#
#
# Elastic Compliance Matrix: (Units=1/GPa)
#
#
# Indices 1 2 3 4 5 6 
#
# 1 0.015987 -0.002192 -0.004044 0.000000 0.000000 0.000000
# 2 -0.002192 0.011711 -0.004026 0.000000 0.000000 0.000000
# 3 -0.004044 -0.004026 0.009197 0.000000 0.000000 0.000000
# 4 0.000000 0.000000 0.000000 0.027431 0.000000 0.000000
# 5 0.000000 0.000000 0.000000 0.000000 0.033147 0.000000
# 6 0.000000 0.000000 0.000000 0.000000 0.000000 0.041050
#
#
# Mechanical properties :
#
#
# Convention : Reuss Voigt Hill
#
# Bulk Modulus (GPa) = 61.08248 70.79119 65.93683
# Shear Modulus (GPa) = 30.39440 31.96909 31.18175
#
# Velocity S-wave (km/s) = 4.00236 4.10473 4.05387
# Velocity P-wave (km/s) = 7.31786 7.73139 7.52746
#
# Compressibility (1/GPa) = 0.01637131
#
# Stress axis : x y z
#
# Youngs Moduli (GPa) = 62.54999 85.39211 108.73051
#
# Poissons Ratio (x) = 0.18714 0.43970
# Poissons Ratio (y) = 0.13708 0.43779
# Poissons Ratio (z) = 0.25295 0.34382
#
# Static dielectric constant tensor:
#      x y z
#    x 3.334580 0.000000 0.000000 
#    y 0.000000 3.517900 0.000000 
#    z 0.000000 0.000000 10.050130 
# 
# 
# High freq. dielectric constant tensor:
#      x y z
#    x 1.727370 0.000000 0.000000 
#    y 0.000000 1.723950 0.000000 
#    z 0.000000 0.000000 1.758940 
# 
# From -- ./inp_files/48122.got.cif
#   From: 2010.03.12/outbox.cif.g09.slc.cpg/sg64_25_cif.got.tgz:48122.got - 2010.04.10 20:19:32.
