data_PCOD8261491
_publ_section_title
;
Structure prediction by ZEFSAII (Michael W. Deem and Ramdas Pophale) SiO2 
 PCOD8261491
Probable space group: C M C A
;
_chemical_formula_sum "Si O2"
_cell_formula_units_Z 96
_cell_length_a 9.180212
_cell_length_b 29.846839
_cell_length_c 21.502564
_cell_angle_alpha 90.000000
_cell_angle_beta 90.000000
_cell_angle_gamma 90.000000
_cell_volume 5891.709192
_symmetry_space_group_name_H-M "C M C A"
_symmetry_group_IT_number 64
_symmetry_cell_setting 'orthorhombic'
loop_
_space_group_symop_operation_xyz
x,y,z
-x,1/2-y,1/2+z
x,-y,-z
-x,1/2+y,1/2-z
-x,-y,-z
x,1/2+y,1/2-z
-x,y,z
x,1/2-y,1/2+z
1/2+x,1/2+y,z
1/2-x,-y,1/2+z
1/2+x,1/2-y,-z
1/2-x,y,1/2-z
1/2-x,1/2-y,-z
1/2+x,y,1/2-z
1/2-x,1/2+y,z
1/2+x,-y,1/2+z
loop_
_atom_site_type_symbol
_atom_site_label
_atom_site_fract_x
_atom_site_fract_y
_atom_site_fract_z
Si Si1 0.666312 0.281187 0.920263
Si Si2 0.167671 0.815034 0.462172
Si Si3 0.664520 0.012146 0.927983
Si Si4 0.830629 0.402419 0.455353
Si Si5 0.168793 0.652936 0.314391
Si Si6 0.168796 0.927016 0.902815
O O1 0.500000 0.293674 0.939908
O O2 0.686196 0.227579 0.916488
O O3 0.702415 0.301894 0.853089
O O4 0.775112 0.302338 0.969816
O O5 0.258995 0.855878 0.433243
O O6 0.000000 0.829610 0.468450
O O7 0.500000 0.018749 0.903941
O O8 0.754826 0.057564 0.917065
O O9 0.738928 0.971826 0.889862
O O10 0.667953 0.000000 0.000000
O O11 0.802510 0.407461 0.528741
O O12 0.000000 0.402416 0.438491
O O13 0.250000 0.655786 0.250000
O O14 0.221805 0.609988 0.353722
O O15 0.000000 0.648325 0.299548
O O16 0.000000 0.939340 0.894927
#
# Coordination Sequence:
#
# PCOD8261491 Si02
#       6
#    16  16  16  16  16  16
#     4   9  18  33  46  63  93 126 155 191 239 286
#     4  10  18  27  46  70  93 121 156 194 235 283
#     4   9  17  27  41  65  93 117 150 189 223 264
#     4  10  17  28  45  65  94 127 153 180 230 287
#     4  10  20  34  49  67  92 125 163 197 232 276
#     4   9  17  30  45  61  89 126 156 184 227 280
#
# _framework density 16.294083000000001
#
# number of rings (size 3 to 8) (size 9 to 14) (size 15 to 20)
#    0.000    2.500    1.667    1.500    0.000    4.667 
#    0.000    0.000    0.000    0.000    0.000    1.167 
#    0.000    5.333    0.000    0.000    0.000    0.000 
#
# Total GULP energy -595201.955333 kJ/mol
# GULP energy per Si atom -12400.040736 kJ/mol
# Density = 1.625700 g / cm^3
# Si number density = 16.294083 Si / 1000 Ang^3
#
#
#
# Elastic Constant Matrix: (Units=GPa)
#
#
# Indices 1 2 3 4 5 6 
#
# 1 104.8555 76.0456 31.6521 0.0000 0.0000 0.0000
# 2 76.0456 144.9621 44.0916 0.0000 0.0000 0.0000
# 3 31.6521 44.0916 61.6901 0.0000 0.0000 0.0000
# 4 0.0000 0.0000 0.0000 17.1957 0.0000 0.0000
# 5 0.0000 0.0000 0.0000 0.0000 20.3804 0.0000
# 6 0.0000 0.0000 0.0000 0.0000 0.0000 33.9132
#
#
#
# Elastic Compliance Matrix: (Units=1/GPa)
#
#
# Indices 1 2 3 4 5 6 
#
# 1 0.015758 -0.007421 -0.002782 0.000000 0.000000 0.000000
# 2 -0.007421 0.012309 -0.004990 0.000000 0.000000 0.000000
# 3 -0.002782 -0.004990 0.021204 0.000000 0.000000 0.000000
# 4 0.000000 0.000000 0.000000 0.058154 0.000000 0.000000
# 5 0.000000 0.000000 0.000000 0.000000 0.049067 0.000000
# 6 0.000000 0.000000 0.000000 0.000000 0.000000 0.029487
#
#
# Mechanical properties :
#
#
# Convention : Reuss Voigt Hill
#
# Bulk Modulus (GPa) = 52.94820 68.34292 60.64556
# Shear Modulus (GPa) = 22.45587 24.94577 23.70082
#
# Velocity S-wave (km/s) = 3.71639 3.91701 3.81801
# Velocity P-wave (km/s) = 7.14012 7.90517 7.53236
#
# Compressibility (1/GPa) = 0.01888638
#
# Stress axis : x y z
#
# Youngs Moduli (GPa) = 63.45850 81.24197 47.16122
#
# Poissons Ratio (x) = 0.60286 0.13119
# Poissons Ratio (y) = 0.47090 0.23534
# Poissons Ratio (z) = 0.17652 0.40541
#
# Static dielectric constant tensor:
#      x y z
#    x 3.184380 0.000000 0.000000 
#    y 0.000000 3.341520 0.000000 
#    z 0.000000 0.000000 2.571870 
# 
# 
# High freq. dielectric constant tensor:
#      x y z
#    x 1.638210 0.000000 0.000000 
#    y 0.000000 1.642380 0.000000 
#    z 0.000000 0.000000 1.560930 
# 
# From -- ./inp_files/43196.got.cif
#   From: 2010.03.12/outbox.cif.g09.slc.cpg/sg64_22_cif.got.tgz:43196.got - 2010.04.10 20:19:32.
