data_PCOD8261526
_publ_section_title
;
Structure prediction by ZEFSAII (Michael W. Deem and Ramdas Pophale) SiO2 
 PCOD8261526
Probable space group: C M C A
;
_chemical_formula_sum "Si O2"
_cell_formula_units_Z 96
_cell_length_a 10.227449
_cell_length_b 19.664160
_cell_length_c 26.832205
_cell_angle_alpha 90.000000
_cell_angle_beta 90.000000
_cell_angle_gamma 90.000000
_cell_volume 5396.337269
_symmetry_space_group_name_H-M "C M C A"
_symmetry_group_IT_number 64
_symmetry_cell_setting 'orthorhombic'
loop_
_space_group_symop_operation_xyz
x,y,z
-x,1/2-y,1/2+z
x,-y,-z
-x,1/2+y,1/2-z
-x,-y,-z
x,1/2+y,1/2-z
-x,y,z
x,1/2-y,1/2+z
1/2+x,1/2+y,z
1/2-x,-y,1/2+z
1/2+x,1/2-y,-z
1/2-x,y,1/2-z
1/2-x,1/2-y,-z
1/2+x,y,1/2-z
1/2-x,1/2+y,z
1/2+x,-y,1/2+z
loop_
_atom_site_type_symbol
_atom_site_label
_atom_site_fract_x
_atom_site_fract_y
_atom_site_fract_z
Si Si1 0.850002 0.940632 0.965966
Si Si2 0.500000 0.351419 0.316395
Si Si3 0.261531 0.985434 0.635292
Si Si4 0.000000 0.352384 0.295607
Si Si5 0.652002 0.197398 0.525334
Si Si6 0.000000 0.013198 0.202256
Si Si7 0.500000 0.512316 0.312372
Si Si8 0.767986 0.646904 0.632852
O O1 0.000000 0.957759 0.953402
O O2 0.771512 0.941223 0.914570
O O3 0.832730 0.870119 0.993374
O O4 0.790218 0.000000 0.000000
O O5 0.500000 0.320129 0.260215
O O6 0.500000 0.431576 0.309532
O O7 0.626716 0.328337 0.347687
O O8 0.372479 0.961631 0.673471
O O9 0.125895 0.962166 0.658538
O O10 0.272785 0.065842 0.623899
O O11 0.000000 0.432873 0.291976
O O12 0.128900 0.329248 0.325342
O O13 0.500000 0.222073 0.524603
O O14 0.750000 0.250000 0.500000
O O15 0.697566 0.184481 0.581690
O O16 0.000000 0.045158 0.257410
#
# Coordination Sequence:
#
# PCOD8261526 Si02
#       8
#    16   8  16   8  16   8   8  16
#     4  10  19  34  59  82 103 138 187 223 259 317
#     4   9  18  28  46  77 115 142 171 219 274 333
#     4  10  17  30  50  80 107 142 180 220 271 319
#     4   9  16  28  48  77 107 142 181 217 270 323
#     4  11  24  40  57  80 109 147 188 227 274 328
#     4   9  16  26  48  72 109 147 177 215 264 329
#     4   9  18  28  40  76 121 143 165 215 282 327
#     4  10  18  31  52  77 111 144 175 223 275 319
#
# _framework density 17.789843000000001
#
# number of rings (size 3 to 8) (size 9 to 14) (size 15 to 20)
#    0.000    2.167    3.333    1.000    1.167    4.000 
#    1.500    0.417    0.000    0.000    0.000    7.000 
#    0.000    0.000    0.000    0.000    0.000    0.000 
#
# Total GULP energy -595115.944144 kJ/mol
# GULP energy per Si atom -12398.248836 kJ/mol
# Density = 1.774935 g / cm^3
# Si number density = 17.789843 Si / 1000 Ang^3
#
#
#
# Elastic Constant Matrix: (Units=GPa)
#
#
# Indices 1 2 3 4 5 6 
#
# 1 168.5703 30.4429 91.1127 0.0000 0.0000 0.0000
# 2 30.4429 33.6392 32.7060 0.0000 0.0000 0.0000
# 3 91.1127 32.7060 175.9019 0.0000 0.0000 0.0000
# 4 0.0000 0.0000 0.0000 18.0829 0.0000 0.0000
# 5 0.0000 0.0000 0.0000 0.0000 25.9594 0.0000
# 6 0.0000 0.0000 0.0000 0.0000 0.0000 20.6695
#
#
#
# Elastic Compliance Matrix: (Units=1/GPa)
#
#
# Indices 1 2 3 4 5 6 
#
# 1 0.008714 -0.004269 -0.003720 0.000000 0.000000 0.000000
# 2 -0.004269 0.038379 -0.004925 0.000000 0.000000 0.000000
# 3 -0.003720 -0.004925 0.008527 0.000000 0.000000 0.000000
# 4 0.000000 0.000000 0.000000 0.055301 0.000000 0.000000
# 5 0.000000 0.000000 0.000000 0.000000 0.038522 0.000000
# 6 0.000000 0.000000 0.000000 0.000000 0.000000 0.048380
#
#
# Mechanical properties :
#
#
# Convention : Reuss Voigt Hill
#
# Bulk Modulus (GPa) = 33.56512 76.29273 54.92893
# Shear Modulus (GPa) = 21.40588 27.86569 24.63579
#
# Velocity S-wave (km/s) = 3.47257 3.96205 3.72536
# Velocity P-wave (km/s) = 5.91497 7.99432 7.03193
#
# Compressibility (1/GPa) = 0.02979283
#
# Stress axis : x y z
#
# Youngs Moduli (GPa) = 114.76101 26.05611 117.26999
#
# Poissons Ratio (x) = 0.11124 0.43621
# Poissons Ratio (y) = 0.48995 0.57750
# Poissons Ratio (z) = 0.42688 0.12831
#
# Static dielectric constant tensor:
#      x y z
#    x 3.487650 0.000000 0.000000 
#    y 0.000000 2.705690 0.000000 
#    z 0.000000 0.000000 3.515400 
# 
# 
# High freq. dielectric constant tensor:
#      x y z
#    x 1.697580 0.000000 0.000000 
#    y 0.000000 1.621500 0.000000 
#    z 0.000000 0.000000 1.710860 
# 
# From -- ./inp_files/44372.got.cif
#   From: 2010.03.12/outbox.cif.g09.slc.cpg/sg64_23_cif.got.tgz:44372.got - 2010.04.10 20:19:32.
