data_PCOD8261350
_publ_section_title
;
Structure prediction by ZEFSAII (Michael W. Deem and Ramdas Pophale) SiO2 
 PCOD8261350
Probable space group: C M C M
;
_chemical_formula_sum "Si O2"
_cell_formula_units_Z 80
_cell_length_a 22.627826
_cell_length_b 28.934909
_cell_length_c 9.246323
_cell_angle_alpha 90.000000
_cell_angle_beta 90.000000
_cell_angle_gamma 90.000000
_cell_volume 6053.882840
_symmetry_space_group_name_H-M "C M C M"
_symmetry_group_IT_number 63
_symmetry_cell_setting 'orthorhombic'
loop_
_space_group_symop_operation_xyz
x,y,z
-x,-y,1/2+z
x,-y,-z
-x,y,1/2-z
-x,-y,-z
x,y,1/2-z
-x,y,z
x,-y,1/2+z
1/2+x,1/2+y,z
1/2-x,1/2-y,1/2+z
1/2+x,1/2-y,-z
1/2-x,1/2+y,1/2-z
1/2-x,1/2-y,-z
1/2+x,1/2+y,1/2-z
1/2-x,1/2+y,z
1/2+x,1/2-y,1/2+z
loop_
_atom_site_type_symbol
_atom_site_label
_atom_site_fract_x
_atom_site_fract_y
_atom_site_fract_z
Si Si1 0.665838 0.724790 0.913411
Si Si2 0.432036 0.228375 0.917918
Si Si3 0.136795 0.636030 0.581457
Si Si4 0.262992 0.819759 0.913476
Si Si5 0.432340 0.954664 0.419402
O O1 0.655052 0.707622 0.750000
O O2 0.703119 0.771499 0.914881
O O3 0.603119 0.733410 0.990257
O O4 0.701404 0.685359 0.000455
O O5 0.422964 0.240119 0.750000
O O6 0.500000 0.230810 0.964380
O O7 0.408918 0.177088 0.952593
O O8 0.153325 0.635402 0.750000
O O9 0.197066 0.641750 0.491711
O O10 0.106520 0.588726 0.530492
O O11 0.249533 0.835698 0.750000
O O12 0.426444 0.963254 0.250000
O O13 0.500000 0.944583 0.463368
O O14 0.408201 0.000000 0.500000
#
# Coordination Sequence:
#
# PCOD8261350 Si02
#       5
#    16  16  16  16  16
#     4   9  16  25  36  50  69  91 114 142 176 212
#     4   9  16  25  37  52  70  93 120 149 180 213
#     4   9  16  26  39  53  69  90 118 151 185 219
#     4   9  16  25  37  52  68  87 113 145 179 213
#     4   9  17  28  40  53  70  93 120 150 185 223
#
# _framework density 13.21466
#
# number of rings (size 3 to 8) (size 9 to 14) (size 15 to 20)
#    0.000    3.000    0.000    1.800    0.000    8.400 
#    0.000    0.000    0.000    3.600    0.000    0.000 
#    0.000    0.000    0.000    0.000    0.000    1.000 
#
# Total GULP energy -495971.067362 kJ/mol
# GULP energy per Si atom -12399.276684 kJ/mol
# Density = 1.318458 g / cm^3
# Si number density = 13.214660 Si / 1000 Ang^3
#
#
#
# Elastic Constant Matrix: (Units=GPa)
#
#
# Indices 1 2 3 4 5 6 
#
# 1 91.4622 50.2057 55.3765 0.0000 0.0000 0.0000
# 2 50.2057 59.3174 39.6253 0.0000 0.0000 0.0000
# 3 55.3765 39.6253 80.8127 0.0000 0.0000 0.0000
# 4 0.0000 0.0000 0.0000 18.4208 0.0000 0.0000
# 5 0.0000 0.0000 0.0000 0.0000 23.6312 0.0000
# 6 0.0000 0.0000 0.0000 0.0000 0.0000 22.5214
#
#
#
# Elastic Compliance Matrix: (Units=1/GPa)
#
#
# Indices 1 2 3 4 5 6 
#
# 1 0.024880 -0.014379 -0.009998 0.000000 0.000000 0.000000
# 2 -0.014379 0.033381 -0.006514 0.000000 0.000000 0.000000
# 3 -0.009998 -0.006514 0.022420 0.000000 0.000000 0.000000
# 4 0.000000 0.000000 0.000000 0.054286 0.000000 0.000000
# 5 0.000000 0.000000 0.000000 0.000000 0.042317 0.000000
# 6 0.000000 0.000000 0.000000 0.000000 0.000000 0.044402
#
#
# Mechanical properties :
#
#
# Convention : Reuss Voigt Hill
#
# Bulk Modulus (GPa) = 52.91935 58.00080 55.46007
# Shear Modulus (GPa) = 17.25513 18.67368 17.96440
#
# Velocity S-wave (km/s) = 3.61745 3.76320 3.69104
# Velocity P-wave (km/s) = 7.58820 7.92899 7.76046
#
# Compressibility (1/GPa) = 0.01889668
#
# Stress axis : x y z
#
# Youngs Moduli (GPa) = 40.19280 29.95753 44.60327
#
# Poissons Ratio (x) = 0.43076 0.44596
# Poissons Ratio (y) = 0.57794 0.29057
# Poissons Ratio (z) = 0.40186 0.19516
#
# Static dielectric constant tensor:
#      x y z
#    x 2.614360 0.000000 0.000000 
#    y 0.000000 2.384070 0.000000 
#    z 0.000000 0.000000 2.755220 
# 
# 
# High freq. dielectric constant tensor:
#      x y z
#    x 1.489020 0.000000 0.000000 
#    y 0.000000 1.455640 0.000000 
#    z 0.000000 0.000000 1.513420 
# 
# From -- ./inp_files/6647.got.cif
#   From: 2010.03.12/outbox.cif.g09.slc.cpg/sg63_4_cif.got.tgz:6647.got - 2010.04.10 19:34:48.
