data_PCOD8261240
_publ_section_title
;
Structure prediction by ZEFSAII (Michael W. Deem and Ramdas Pophale) SiO2 
 PCOD8261240
Probable space group: C M C M
;
_chemical_formula_sum "Si O2"
_cell_formula_units_Z 72
_cell_length_a 22.894058
_cell_length_b 8.997123
_cell_length_c 18.125400
_cell_angle_alpha 90.000000
_cell_angle_beta 90.000000
_cell_angle_gamma 90.000000
_cell_volume 3733.481779
_symmetry_space_group_name_H-M "C M C M"
_symmetry_group_IT_number 63
_symmetry_cell_setting 'orthorhombic'
loop_
_space_group_symop_operation_xyz
x,y,z
-x,-y,1/2+z
x,-y,-z
-x,y,1/2-z
-x,-y,-z
x,y,1/2-z
-x,y,z
x,-y,1/2+z
1/2+x,1/2+y,z
1/2-x,1/2-y,1/2+z
1/2+x,1/2-y,-z
1/2-x,1/2+y,1/2-z
1/2-x,1/2-y,-z
1/2+x,1/2+y,1/2-z
1/2-x,1/2+y,z
1/2+x,1/2-y,1/2+z
loop_
_atom_site_type_symbol
_atom_site_label
_atom_site_fract_x
_atom_site_fract_y
_atom_site_fract_z
Si Si1 0.435798 0.759003 0.521217
Si Si2 0.565059 0.961258 0.381976
Si Si3 0.189336 0.541251 0.832600
Si Si4 0.236747 0.182157 0.080217
Si Si5 0.648229 0.500000 0.500000
O O1 0.500000 0.687385 0.514266
O O2 0.420311 0.846669 0.446986
O O3 0.390002 0.629502 0.536082
O O4 0.434681 0.870823 0.589284
O O5 0.500000 0.928140 0.347904
O O6 0.618757 0.946185 0.325675
O O7 0.213754 0.517134 0.750000
O O8 0.215889 0.693058 0.863660
O O9 0.207439 0.402943 0.885108
O O10 0.250000 0.250000 0.000000
O O11 0.186428 0.059290 0.068523
#
# Coordination Sequence:
#
# PCOD8261240 Si02
#       5
#    16  16  16  16   8
#     4   9  18  32  56  90 119 147 200 253 294 344
#     4   9  19  36  59  84 116 157 198 247 294 353
#     4  12  25  41  60  89 125 159 199 249 306 363
#     4  12  24  40  61  89 119 161 204 246 294 365
#     4  12  19  32  60  86 117 150 198 246 302 344
#
# _framework density 19.284946999999999
#
# number of rings (size 3 to 8) (size 9 to 14) (size 15 to 20)
#    0.000    1.333    4.444    3.667    3.111    0.444 
#    0.000    0.000    0.000    0.000    0.000    0.000 
#    0.000    0.000    0.000    0.000    0.000    0.000 
#
# Total GULP energy -446259.002009 kJ/mol
# GULP energy per Si atom -12396.083389 kJ/mol
# Density = 1.924105 g / cm^3
# Si number density = 19.284947 Si / 1000 Ang^3
#
#
#
# Elastic Constant Matrix: (Units=GPa)
#
#
# Indices 1 2 3 4 5 6 
#
# 1 117.2214 50.3334 30.3358 0.0000 0.0000 0.0000
# 2 50.3334 101.1792 34.0072 0.0000 0.0000 0.0000
# 3 30.3358 34.0072 91.0772 0.0000 0.0000 0.0000
# 4 0.0000 0.0000 0.0000 21.5419 0.0000 0.0000
# 5 0.0000 0.0000 0.0000 0.0000 14.3291 0.0000
# 6 0.0000 0.0000 0.0000 0.0000 0.0000 46.1086
#
#
#
# Elastic Compliance Matrix: (Units=1/GPa)
#
#
# Indices 1 2 3 4 5 6 
#
# 1 0.011121 -0.004903 -0.001874 0.000000 0.000000 0.000000
# 2 -0.004903 0.013463 -0.003394 0.000000 0.000000 0.000000
# 3 -0.001874 -0.003394 0.012871 0.000000 0.000000 0.000000
# 4 0.000000 0.000000 0.000000 0.046421 0.000000 0.000000
# 5 0.000000 0.000000 0.000000 0.000000 0.069788 0.000000
# 6 0.000000 0.000000 0.000000 0.000000 0.000000 0.021688
#
#
# Mechanical properties :
#
#
# Convention : Reuss Voigt Hill
#
# Bulk Modulus (GPa) = 58.42937 59.87008 59.14972
# Shear Modulus (GPa) = 24.82658 29.38268 27.10463
#
# Velocity S-wave (km/s) = 3.59187 3.90758 3.75304
# Velocity P-wave (km/s) = 6.89679 7.17435 7.03694
#
# Compressibility (1/GPa) = 0.01711468
#
# Stress axis : x y z
#
# Youngs Moduli (GPa) = 89.92154 74.27723 77.69388
#
# Poissons Ratio (x) = 0.36415 0.14556
# Poissons Ratio (y) = 0.44084 0.26370
# Poissons Ratio (z) = 0.16847 0.25210
#
# Static dielectric constant tensor:
#      x y z
#    x 3.870430 0.000000 0.000000 
#    y 0.000000 3.602270 0.000000 
#    z 0.000000 0.000000 3.112670 
# 
# 
# High freq. dielectric constant tensor:
#      x y z
#    x 1.771150 0.000000 0.000000 
#    y 0.000000 1.754780 0.000000 
#    z 0.000000 0.000000 1.709480 
# 
# From -- ./inp_files/47789.got.cif
#   From: 2010.03.12/outbox.cif.g09.slc.cpg/sg63_24_cif.got.tgz:47789.got - 2010.04.10 19:34:48.
