data_PCOD8261527
_publ_section_title
;
Structure prediction by ZEFSAII (Michael W. Deem and Ramdas Pophale) SiO2 
 PCOD8261527
Probable space group: C M C A
;
_chemical_formula_sum "Si O2"
_cell_formula_units_Z 96
_cell_length_a 10.237653
_cell_length_b 27.558049
_cell_length_c 19.155162
_cell_angle_alpha 90.000000
_cell_angle_beta 90.000000
_cell_angle_gamma 90.000000
_cell_volume 5404.240933
_symmetry_space_group_name_H-M "C M C A"
_symmetry_group_IT_number 64
_symmetry_cell_setting 'orthorhombic'
loop_
_space_group_symop_operation_xyz
x,y,z
-x,1/2-y,1/2+z
x,-y,-z
-x,1/2+y,1/2-z
-x,-y,-z
x,1/2+y,1/2-z
-x,y,z
x,1/2-y,1/2+z
1/2+x,1/2+y,z
1/2-x,-y,1/2+z
1/2+x,1/2-y,-z
1/2-x,y,1/2-z
1/2-x,1/2-y,-z
1/2+x,y,1/2-z
1/2-x,1/2+y,z
1/2+x,-y,1/2+z
loop_
_atom_site_type_symbol
_atom_site_label
_atom_site_fract_x
_atom_site_fract_y
_atom_site_fract_z
Si Si1 0.349908 0.525530 0.068682
Si Si2 0.000000 0.820693 0.567199
Si Si3 0.500000 0.696543 0.073924
Si Si4 0.500000 0.195415 0.903121
Si Si5 0.000000 0.714087 0.589651
Si Si6 0.263791 0.130499 0.441648
Si Si7 0.348586 0.947262 0.312161
Si Si8 0.767257 0.352470 0.394430
O O1 0.500000 0.538569 0.053083
O O2 0.276582 0.575578 0.084608
O O3 0.332620 0.491008 0.134251
O O4 0.289235 0.500000 0.000000
O O5 0.000000 0.808818 0.485882
O O6 0.000000 0.770580 0.610429
O O7 0.873783 0.851411 0.587621
O O8 0.500000 0.747313 0.116827
O O9 0.627284 0.665109 0.092801
O O10 0.500000 0.708825 0.992956
O O11 0.373473 0.168424 0.872095
O O12 0.871036 0.689712 0.621237
O O13 0.272839 0.131283 0.525320
O O14 0.500000 0.943242 0.287368
O O15 0.250000 0.959253 0.250000
O O16 0.303196 0.897683 0.347123
#
# Coordination Sequence:
#
# PCOD8261527 Si02
#       8
#    16   8   8   8   8  16  16  16
#     4  10  19  34  59  82 104 140 187 231 273 331
#     4   9  18  28  42  76 122 141 168 214 272 321
#     4   9  16  26  48  76 110 141 180 214 256 317
#     4   9  18  28  44  77 115 146 166 214 266 316
#     4   9  16  28  48  73 107 150 174 208 258 320
#     4  10  17  30  50  81 111 143 177 221 276 324
#     4  11  24  40  57  80 108 144 186 229 274 334
#     4  10  18  31  52  76 108 146 180 214 271 326
#
# _framework density 17.763826999999999
#
# number of rings (size 3 to 8) (size 9 to 14) (size 15 to 20)
#    0.000    2.167    3.333    1.000    1.167    4.000 
#    1.500    0.417    0.000    0.000    0.000    7.000 
#    0.000    0.000    0.000    0.000    0.000    0.000 
#
# Total GULP energy -595189.841114 kJ/mol
# GULP energy per Si atom -12399.788357 kJ/mol
# Density = 1.772340 g / cm^3
# Si number density = 17.763827 Si / 1000 Ang^3
#
#
#
# Elastic Constant Matrix: (Units=GPa)
#
#
# Indices 1 2 3 4 5 6 
#
# 1 166.0517 82.2112 32.7722 0.0000 0.0000 0.0000
# 2 82.2112 163.9689 27.6670 0.0000 0.0000 0.0000
# 3 32.7722 27.6670 37.3034 0.0000 0.0000 0.0000
# 4 0.0000 0.0000 0.0000 12.4725 0.0000 0.0000
# 5 0.0000 0.0000 0.0000 0.0000 15.9943 0.0000
# 6 0.0000 0.0000 0.0000 0.0000 0.0000 26.4769
#
#
#
# Elastic Compliance Matrix: (Units=1/GPa)
#
#
# Indices 1 2 3 4 5 6 
#
# 1 0.008781 -0.003544 -0.005085 0.000000 0.000000 0.000000
# 2 -0.003544 0.008402 -0.003118 0.000000 0.000000 0.000000
# 3 -0.005085 -0.003118 0.033587 0.000000 0.000000 0.000000
# 4 0.000000 0.000000 0.000000 0.080176 0.000000 0.000000
# 5 0.000000 0.000000 0.000000 0.000000 0.062522 0.000000
# 6 0.000000 0.000000 0.000000 0.000000 0.000000 0.037769
#
#
# Mechanical properties :
#
#
# Convention : Reuss Voigt Hill
#
# Bulk Modulus (GPa) = 36.66363 72.51388 54.58875
# Shear Modulus (GPa) = 18.95210 25.96699 22.45955
#
# Velocity S-wave (km/s) = 3.26988 3.82748 3.55962
# Velocity P-wave (km/s) = 5.91104 7.77448 6.90590
#
# Compressibility (1/GPa) = 0.02727499
#
# Stress axis : x y z
#
# Youngs Moduli (GPa) = 113.88625 119.02114 29.77343
#
# Poissons Ratio (x) = 0.42186 0.15141
# Poissons Ratio (y) = 0.40366 0.09282
# Poissons Ratio (z) = 0.57915 0.37105
#
# Static dielectric constant tensor:
#      x y z
#    x 3.489140 0.000000 0.000000 
#    y 0.000000 3.455450 0.000000 
#    z 0.000000 0.000000 2.792080 
# 
# 
# High freq. dielectric constant tensor:
#      x y z
#    x 1.695930 0.000000 0.000000 
#    y 0.000000 1.705110 0.000000 
#    z 0.000000 0.000000 1.624720 
# 
# From -- ./inp_files/31219.got.cif
#   From: 2010.03.12/outbox.cif.g09.slc.cpg/sg64_16_cif.got.tgz:31219.got - 2010.04.10 20:19:32.
