data_PCOD8261431
_publ_section_title
;
Structure prediction by ZEFSAII (Michael W. Deem and Ramdas Pophale) SiO2 
 PCOD8261431
Probable space group: C M C A
;
_chemical_formula_sum "Si O2"
_cell_formula_units_Z 104
_cell_length_a 23.722035
_cell_length_b 13.068883
_cell_length_c 19.182293
_cell_angle_alpha 90.000000
_cell_angle_beta 90.000000
_cell_angle_gamma 90.000000
_cell_volume 5946.904066
_symmetry_space_group_name_H-M "C M C A"
_symmetry_group_IT_number 64
_symmetry_cell_setting 'orthorhombic'
loop_
_space_group_symop_operation_xyz
x,y,z
-x,1/2-y,1/2+z
x,-y,-z
-x,1/2+y,1/2-z
-x,-y,-z
x,1/2+y,1/2-z
-x,y,z
x,1/2-y,1/2+z
1/2+x,1/2+y,z
1/2-x,-y,1/2+z
1/2+x,1/2-y,-z
1/2-x,y,1/2-z
1/2-x,1/2-y,-z
1/2+x,y,1/2-z
1/2-x,1/2+y,z
1/2+x,-y,1/2+z
loop_
_atom_site_type_symbol
_atom_site_label
_atom_site_fract_x
_atom_site_fract_y
_atom_site_fract_z
Si Si1 0.301771 0.634782 0.373684
Si Si2 0.000000 0.333101 0.485256
Si Si3 0.618551 0.981772 0.343718
Si Si4 0.750000 0.758618 0.250000
Si Si5 0.000000 0.469346 0.611388
Si Si6 0.806020 0.546207 0.784006
Si Si7 0.619202 0.712791 0.941332
Si Si8 0.691898 0.096219 0.451422
O O1 0.287910 0.692907 0.301832
O O2 0.315974 0.515662 0.356065
O O3 0.356991 0.682855 0.409004
O O4 0.250590 0.645207 0.427658
O O5 0.055331 0.267210 0.466749
O O6 0.000000 0.364297 0.566832
O O7 0.000000 0.437091 0.441857
O O8 0.555096 0.025267 0.340055
O O9 0.639873 0.967874 0.265264
O O10 0.657305 0.063492 0.383265
O O11 0.621526 0.873971 0.382677
O O12 0.792153 0.832921 0.295537
O O13 0.750000 0.494873 0.750000
O O14 0.656304 0.680617 0.007585
O O15 0.704658 0.000000 0.500000
#
# Coordination Sequence:
#
# PCOD8261431 Si02
#       8
#    16   8  16   8   8  16  16  16
#     4  12  20  33  50  75 104 140 170 201 261 307
#     4   9  16  30  47  74  97 132 161 206 257 300
#     4  10  16  32  49  74  99 129 164 213 249 302
#     4  10  18  34  52  66 100 144 168 206 248 302
#     4   9  16  26  53  72  96 128 166 202 263 294
#     4  10  19  31  49  70 100 135 167 206 246 303
#     4  10  19  30  49  74 104 129 165 209 257 302
#     4  10  19  30  49  76 110 128 162 210 255 305
#
# _framework density 17.488091000000001
#
# number of rings (size 3 to 8) (size 9 to 14) (size 15 to 20)
#    0.462    1.385    5.385    0.462    2.154    0.000 
#    0.000    0.769    0.000    0.000    0.000    1.615 
#    0.000    0.000    0.000    0.000    0.000    0.000 
#
# Total GULP energy -644587.715281 kJ/mol
# GULP energy per Si atom -12395.917602 kJ/mol
# Density = 1.744829 g / cm^3
# Si number density = 17.488091 Si / 1000 Ang^3
#
#
#
# Elastic Constant Matrix: (Units=GPa)
#
#
# Indices 1 2 3 4 5 6 
#
# 1 119.6417 9.9494 24.4860 0.0000 0.0000 0.0000
# 2 9.9494 34.2962 0.8101 0.0000 0.0000 0.0000
# 3 24.4860 0.8101 33.5230 0.0000 0.0000 0.0000
# 4 0.0000 0.0000 0.0000 21.1507 0.0000 0.0000
# 5 0.0000 0.0000 0.0000 0.0000 28.0414 0.0000
# 6 0.0000 0.0000 0.0000 0.0000 0.0000 19.6397
#
#
#
# Elastic Compliance Matrix: (Units=1/GPa)
#
#
# Indices 1 2 3 4 5 6 
#
# 1 0.010080 -0.002752 -0.007297 0.000000 0.000000 0.000000
# 2 -0.002752 0.029926 0.001287 0.000000 0.000000 0.000000
# 3 -0.007297 0.001287 0.035129 0.000000 0.000000 0.000000
# 4 0.000000 0.000000 0.000000 0.047280 0.000000 0.000000
# 5 0.000000 0.000000 0.000000 0.000000 0.035662 0.000000
# 6 0.000000 0.000000 0.000000 0.000000 0.000000 0.050917
#
#
# Mechanical properties :
#
#
# Convention : Reuss Voigt Hill
#
# Bulk Modulus (GPa) = 17.35756 28.66132 23.00944
# Shear Modulus (GPa) = 20.34831 23.91405 22.13118
#
# Velocity S-wave (km/s) = 3.41479 3.70191 3.56125
# Velocity P-wave (km/s) = 5.04922 5.89040 5.48596
#
# Compressibility (1/GPa) = 0.05761178
#
# Stress axis : x y z
#
# Youngs Moduli (GPa) = 99.20181 33.41605 28.46675
#
# Poissons Ratio (x) = 0.09196 0.20771
# Poissons Ratio (y) = 0.27300 -0.03664
# Poissons Ratio (z) = 0.72383 -0.04300
#
# Static dielectric constant tensor:
#      x y z
#    x 3.281390 0.000000 0.000000 
#    y 0.000000 3.045860 0.000000 
#    z 0.000000 0.000000 3.064240 
# 
# 
# High freq. dielectric constant tensor:
#      x y z
#    x 1.667070 0.000000 0.000000 
#    y 0.000000 1.652340 0.000000 
#    z 0.000000 0.000000 1.655310 
# 
# From -- ./inp_files/41024.got.cif
#   From: 2010.03.12/outbox.cif.g09.slc.cpg/sg64_21_cif.got.tgz:41024.got - 2010.04.10 20:19:32.
