data_PCOD8261489
_publ_section_title
;
Structure prediction by ZEFSAII (Michael W. Deem and Ramdas Pophale) SiO2 
 PCOD8261489
Probable space group: C M C A
;
_chemical_formula_sum "Si O2"
_cell_formula_units_Z 80
_cell_length_a 8.902805
_cell_length_b 14.902043
_cell_length_c 29.770505
_cell_angle_alpha 90.000000
_cell_angle_beta 90.000000
_cell_angle_gamma 90.000000
_cell_volume 3949.652390
_symmetry_space_group_name_H-M "C M C A"
_symmetry_group_IT_number 64
_symmetry_cell_setting 'orthorhombic'
loop_
_space_group_symop_operation_xyz
x,y,z
-x,1/2-y,1/2+z
x,-y,-z
-x,1/2+y,1/2-z
-x,-y,-z
x,1/2+y,1/2-z
-x,y,z
x,1/2-y,1/2+z
1/2+x,1/2+y,z
1/2-x,-y,1/2+z
1/2+x,1/2-y,-z
1/2-x,y,1/2-z
1/2-x,1/2-y,-z
1/2+x,y,1/2-z
1/2-x,1/2+y,z
1/2+x,-y,1/2+z
loop_
_atom_site_type_symbol
_atom_site_label
_atom_site_fract_x
_atom_site_fract_y
_atom_site_fract_z
Si Si1 0.175528 0.398654 0.616549
Si Si2 0.322501 0.401575 0.705998
Si Si3 0.825227 0.905378 0.208122
Si Si4 0.675255 0.752656 0.047992
Si Si5 0.828095 0.395071 0.391261
O O1 0.263690 0.358435 0.659569
O O2 0.220310 0.337882 0.574198
O O3 0.221806 0.500947 0.605775
O O4 0.000000 0.393654 0.628045
O O5 0.500000 0.391484 0.708596
O O6 0.250000 0.353564 0.750000
O O7 0.269847 0.504009 0.705468
O O8 0.750000 0.849746 0.250000
O O9 0.808302 0.857120 0.159850
O O10 0.000000 0.926137 0.217796
O O11 0.500000 0.758890 0.040532
O O12 0.724432 0.839956 0.075444
O O13 0.750000 0.750000 0.000000
O O14 0.000000 0.384531 0.406814
#
# Coordination Sequence:
#
# PCOD8261489 Si02
#       5
#    16  16  16  16  16
#     4   9  20  39  59  81 112 151 186 222 274 333
#     4  10  17  27  49  80 113 148 185 226 268 319
#     4   9  16  28  49  78 113 151 186 223 268 323
#     4  11  24  41  61  83 110 142 182 232 284 335
#     4   9  19  37  59  82 112 148 187 227 273 326
#
# _framework density 20.254947000000001
#
# number of rings (size 3 to 8) (size 9 to 14) (size 15 to 20)
#    0.000    2.400    0.000    5.400    0.000    6.400 
#    0.000    5.000    0.000    2.400    0.000    0.000 
#    0.000    0.000    0.000    0.000    0.000    0.000 
#
# Total GULP energy -495770.024853 kJ/mol
# GULP energy per Si atom -12394.250621 kJ/mol
# Density = 2.020885 g / cm^3
# Si number density = 20.254947 Si / 1000 Ang^3
#
#
#
# Elastic Constant Matrix: (Units=GPa)
#
#
# Indices 1 2 3 4 5 6 
#
# 1 115.0831 38.9793 92.0600 0.0000 0.0000 0.0000
# 2 38.9793 75.2054 63.6988 0.0000 0.0000 0.0000
# 3 92.0600 63.6988 201.5758 0.0000 0.0000 0.0000
# 4 0.0000 0.0000 0.0000 146.7763 0.0000 0.0000
# 5 0.0000 0.0000 0.0000 0.0000 43.9919 0.0000
# 6 0.0000 0.0000 0.0000 0.0000 0.0000 22.3391
#
#
#
# Elastic Compliance Matrix: (Units=1/GPa)
#
#
# Indices 1 2 3 4 5 6 
#
# 1 0.014032 -0.002519 -0.005612 0.000000 0.000000 0.000000
# 2 -0.002519 0.018609 -0.004730 0.000000 0.000000 0.000000
# 3 -0.005612 -0.004730 0.009019 0.000000 0.000000 0.000000
# 4 0.000000 0.000000 0.000000 0.006813 0.000000 0.000000
# 5 0.000000 0.000000 0.000000 0.000000 0.022731 0.000000
# 6 0.000000 0.000000 0.000000 0.000000 0.000000 0.044765
#
#
# Mechanical properties :
#
#
# Convention : Reuss Voigt Hill
#
# Bulk Modulus (GPa) = 62.74832 86.81562 74.78197
# Shear Modulus (GPa) = 34.01247 55.76320 44.88784
#
# Velocity S-wave (km/s) = 4.10227 5.25266 4.71270
# Velocity P-wave (km/s) = 7.31332 8.92982 8.16169
#
# Compressibility (1/GPa) = 0.01593668
#
# Stress axis : x y z
#
# Youngs Moduli (GPa) = 71.26391 53.73769 110.87908
#
# Poissons Ratio (x) = 0.13538 0.62231
# Poissons Ratio (y) = 0.17953 0.52445
# Poissons Ratio (z) = 0.39997 0.25418
#
# Static dielectric constant tensor:
#      x y z
#    x 3.976980 0.000000 0.000000 
#    y 0.000000 3.383490 0.000000 
#    z 0.000000 0.000000 4.320360 
# 
# 
# High freq. dielectric constant tensor:
#      x y z
#    x 1.793630 0.000000 0.000000 
#    y 0.000000 1.760310 0.000000 
#    z 0.000000 0.000000 1.805680 
# 
# From -- ./inp_files/47779.got.cif
#   From: 2010.03.12/outbox.cif.g09.slc.cpg/sg64_24_cif.got.tgz:47779.got - 2010.04.10 20:19:32.
