data_PCOD8261639
_publ_section_title
;
Structure prediction by ZEFSAII (Michael W. Deem and Ramdas Pophale) SiO2 
 PCOD8261639
Probable space group: C M C A
;
_chemical_formula_sum "Si O2"
_cell_formula_units_Z 96
_cell_length_a 8.815775
_cell_length_b 23.695997
_cell_length_c 26.396225
_cell_angle_alpha 90.000000
_cell_angle_beta 90.000000
_cell_angle_gamma 90.000000
_cell_volume 5514.133866
_symmetry_space_group_name_H-M "C M C A"
_symmetry_group_IT_number 64
_symmetry_cell_setting 'orthorhombic'
loop_
_space_group_symop_operation_xyz
x,y,z
-x,1/2-y,1/2+z
x,-y,-z
-x,1/2+y,1/2-z
-x,-y,-z
x,1/2+y,1/2-z
-x,y,z
x,1/2-y,1/2+z
1/2+x,1/2+y,z
1/2-x,-y,1/2+z
1/2+x,1/2-y,-z
1/2-x,y,1/2-z
1/2-x,1/2-y,-z
1/2+x,y,1/2-z
1/2-x,1/2+y,z
1/2+x,-y,1/2+z
loop_
_atom_site_type_symbol
_atom_site_label
_atom_site_fract_x
_atom_site_fract_y
_atom_site_fract_z
Si Si1 0.173598 0.500471 0.623066
Si Si2 0.828410 0.429965 0.960209
Si Si3 0.829168 0.831684 0.614073
Si Si4 0.180483 0.269523 0.447224
Si Si5 0.824556 0.102734 0.939670
Si Si6 0.819813 0.418042 0.804785
O O1 0.217165 0.470030 0.570921
O O2 0.197981 0.567658 0.612824
O O3 0.273699 0.477903 0.669962
O O4 0.000000 0.487200 0.636364
O O5 0.821038 0.367382 0.937496
O O6 0.000000 0.453677 0.957294
O O7 0.775661 0.427865 0.017916
O O8 0.756972 0.771140 0.598527
O O9 0.752248 0.866685 0.660367
O O10 0.000000 0.821633 0.632031
O O11 0.250000 0.250000 0.500000
O O12 0.229560 0.332835 0.432199
O O13 0.000000 0.263124 0.451615
O O14 0.000000 0.101250 0.956819
O O15 0.750000 0.411427 0.750000
O O16 0.000000 0.416538 0.801860
#
# Coordination Sequence:
#
# PCOD8261639 Si02
#       6
#    16  16  16  16  16  16
#     4  10  20  33  47  70 101 132 166 207 250 299
#     4  10  18  29  46  69  98 135 172 207 246 292
#     4   8  16  30  48  71  99 127 163 204 246 290
#     4  10  18  31  48  70 100 138 174 207 240 287
#     4  10  20  30  45  69 101 138 173 203 243 292
#     4  10  20  36  57  79  97 122 159 208 262 310
#
# _framework density 17.409806
#
# number of rings (size 3 to 8) (size 9 to 14) (size 15 to 20)
#    0.000    2.333    1.667    3.000    0.000    3.333 
#    0.000    0.833    0.000    1.000    0.000    2.333 
#    0.000    0.000    0.000    0.000    0.000    0.000 
#
# Total GULP energy -594812.608891 kJ/mol
# GULP energy per Si atom -12391.929352 kJ/mol
# Density = 1.737018 g / cm^3
# Si number density = 17.409806 Si / 1000 Ang^3
#
#
#
# Elastic Constant Matrix: (Units=GPa)
#
#
# Indices 1 2 3 4 5 6 
#
# 1 49.9827 21.0278 26.7006 0.0000 0.0000 0.0000
# 2 21.0278 100.0481 50.0865 0.0000 0.0000 0.0000
# 3 26.7006 50.0865 107.6011 0.0000 0.0000 0.0000
# 4 0.0000 0.0000 0.0000 15.6930 0.0000 0.0000
# 5 0.0000 0.0000 0.0000 0.0000 25.1370 0.0000
# 6 0.0000 0.0000 0.0000 0.0000 0.0000 17.8103
#
#
#
# Elastic Compliance Matrix: (Units=1/GPa)
#
#
# Indices 1 2 3 4 5 6 
#
# 1 0.023589 -0.002643 -0.004623 0.000000 0.000000 0.000000
# 2 -0.002643 0.013328 -0.005548 0.000000 0.000000 0.000000
# 3 -0.004623 -0.005548 0.013023 0.000000 0.000000 0.000000
# 4 0.000000 0.000000 0.000000 0.063723 0.000000 0.000000
# 5 0.000000 0.000000 0.000000 0.000000 0.039782 0.000000
# 6 0.000000 0.000000 0.000000 0.000000 0.000000 0.056147
#
#
# Mechanical properties :
#
#
# Convention : Reuss Voigt Hill
#
# Bulk Modulus (GPa) = 41.13326 50.36241 45.74784
# Shear Modulus (GPa) = 20.54865 22.38252 21.46559
#
# Velocity S-wave (km/s) = 3.43926 3.58945 3.51516
# Velocity P-wave (km/s) = 6.28086 6.79480 6.54288
#
# Compressibility (1/GPa) = 0.02431122
#
# Stress axis : x y z
#
# Youngs Moduli (GPa) = 42.39341 75.02819 76.78541
#
# Poissons Ratio (x) = 0.19833 0.35497
# Poissons Ratio (y) = 0.11206 0.42602
# Poissons Ratio (z) = 0.19598 0.41627
#
# Static dielectric constant tensor:
#      x y z
#    x 3.164690 0.000000 0.000000 
#    y 0.000000 3.596110 0.000000 
#    z 0.000000 0.000000 3.069260 
# 
# 
# High freq. dielectric constant tensor:
#      x y z
#    x 1.664050 0.000000 0.000000 
#    y 0.000000 1.677540 0.000000 
#    z 0.000000 0.000000 1.639610 
# 
# From -- ./inp_files/42991.got.cif
#   From: 2010.03.12/outbox.cif.g09.slc.cpg/sg64_22_cif.got.tgz:42991.got - 2010.04.10 20:19:32.
