data_PCOD8261952
_publ_section_title
;
Structure prediction by ZEFSAII (Michael W. Deem and Ramdas Pophale) SiO2 
 PCOD8261952
Probable space group: C M C A
;
_chemical_formula_sum "Si O2"
_cell_formula_units_Z 96
_cell_length_a 22.625204
_cell_length_b 13.042345
_cell_length_c 15.372453
_cell_angle_alpha 90.000000
_cell_angle_beta 90.000000
_cell_angle_gamma 90.000000
_cell_volume 4536.191304
_symmetry_space_group_name_H-M "C M C A"
_symmetry_group_IT_number 64
_symmetry_cell_setting 'orthorhombic'
loop_
_space_group_symop_operation_xyz
x,y,z
-x,1/2-y,1/2+z
x,-y,-z
-x,1/2+y,1/2-z
-x,-y,-z
x,1/2+y,1/2-z
-x,y,z
x,1/2-y,1/2+z
1/2+x,1/2+y,z
1/2-x,-y,1/2+z
1/2+x,1/2-y,-z
1/2-x,y,1/2-z
1/2-x,1/2-y,-z
1/2+x,y,1/2-z
1/2-x,1/2+y,z
1/2+x,-y,1/2+z
loop_
_atom_site_type_symbol
_atom_site_label
_atom_site_fract_x
_atom_site_fract_y
_atom_site_fract_z
Si Si1 0.874241 0.192704 0.003700
Si Si2 0.213452 0.007332 0.666515
Si Si3 0.207180 0.000000 0.000000
Si Si4 0.500000 0.277107 0.982891
Si Si5 0.000000 0.897772 0.616111
Si Si6 0.000000 0.126607 0.659349
Si Si7 0.374105 0.826712 0.838128
Si Si8 0.125801 0.812995 0.319007
O O1 0.832901 0.097303 0.024466
O O2 0.872872 0.276306 0.080875
O O3 0.942582 0.155175 0.994471
O O4 0.857849 0.244886 0.912706
O O5 0.250000 0.969922 0.750000
O O6 0.166777 0.922002 0.639559
O O7 0.254483 0.028848 0.583539
O O8 0.179155 0.109057 0.693507
O O9 0.500000 0.239300 0.884392
O O10 0.500000 0.163220 0.026116
O O11 0.941894 0.862521 0.667827
O O12 0.000000 0.021082 0.603205
O O13 0.936777 0.132120 0.710015
O O14 0.359264 0.780758 0.744228
#
# Coordination Sequence:
#
# PCOD8261952 Si02
#       8
#    16  16   8   8   8   8  16  16
#     4  10  23  42  65  91 124 159 204 257 309 366
#     4  12  26  41  62  91 122 168 214 250 302 362
#     4  12  26  43  62  89 126 168 214 248 302 364
#     4   8  19  35  64  96 120 154 200 246 320 370
#     4  10  18  37  64  94 123 155 197 255 312 370
#     4  10  18  37  64  94 123 155 197 255 312 370
#     4  11  23  41  65  93 125 160 204 257 310 364
#     4  11  23  41  65  93 125 160 204 257 310 364
#
# _framework density 21.163129000000001
#
# number of rings (size 3 to 8) (size 9 to 14) (size 15 to 20)
#    0.000    1.333    1.667    3.750    0.000    6.333 
#    0.000    0.000    0.000    0.000    0.000    0.000 
#    0.000    0.000    0.000    0.000    0.000    0.000 
#
# Total GULP energy -594991.825172 kJ/mol
# GULP energy per Si atom -12395.663024 kJ/mol
# Density = 2.111496 g / cm^3
# Si number density = 21.163129 Si / 1000 Ang^3
#
#
#
# Elastic Constant Matrix: (Units=GPa)
#
#
# Indices 1 2 3 4 5 6 
#
# 1 122.4255 54.7329 24.8990 0.0000 0.0000 0.0000
# 2 54.7329 73.1962 4.2163 0.0000 0.0000 0.0000
# 3 24.8990 4.2163 86.8852 0.0000 0.0000 0.0000
# 4 0.0000 0.0000 0.0000 30.3609 0.0000 0.0000
# 5 0.0000 0.0000 0.0000 0.0000 21.3722 0.0000
# 6 0.0000 0.0000 0.0000 0.0000 0.0000 49.3346
#
#
#
# Elastic Compliance Matrix: (Units=1/GPa)
#
#
# Indices 1 2 3 4 5 6 
#
# 1 0.013151 -0.009644 -0.003301 0.000000 0.000000 0.000000
# 2 -0.009644 0.020772 0.001756 0.000000 0.000000 0.000000
# 3 -0.003301 0.001756 0.012370 0.000000 0.000000 0.000000
# 4 0.000000 0.000000 0.000000 0.032937 0.000000 0.000000
# 5 0.000000 0.000000 0.000000 0.000000 0.046790 0.000000
# 6 0.000000 0.000000 0.000000 0.000000 0.000000 0.020270
#
#
# Mechanical properties :
#
#
# Convention : Reuss Voigt Hill
#
# Bulk Modulus (GPa) = 41.81390 50.02260 45.91825
# Shear Modulus (GPa) = 28.30636 33.45743 30.88190
#
# Velocity S-wave (km/s) = 3.66120 3.98040 3.82413
# Velocity P-wave (km/s) = 6.13786 6.69424 6.42207
#
# Compressibility (1/GPa) = 0.02391549
#
# Stress axis : x y z
#
# Youngs Moduli (GPa) = 76.04054 48.14218 80.83981
#
# Poissons Ratio (x) = 0.46426 0.26683
# Poissons Ratio (y) = 0.73330 -0.14192
# Poissons Ratio (z) = 0.25099 -0.08452
#
# Static dielectric constant tensor:
#      x y z
#    x 4.217670 0.000000 0.000000 
#    y 0.000000 3.558100 0.000000 
#    z 0.000000 0.000000 3.605060 
# 
# 
# High freq. dielectric constant tensor:
#      x y z
#    x 1.851980 0.000000 0.000000 
#    y 0.000000 1.818480 0.000000 
#    z 0.000000 0.000000 1.819100 
# 
# From -- ./inp_files/35002.got.cif
#   From: 2010.03.12/outbox.cif.g09.slc.cpg/sg64_18_cif.got.tgz:35002.got - 2010.04.10 20:19:32.
