data_PCOD8261403
_publ_section_title
;
Structure prediction by ZEFSAII (Michael W. Deem and Ramdas Pophale) SiO2 
 PCOD8261403
Probable space group: C M C A
;
_chemical_formula_sum "Si O2"
_cell_formula_units_Z 80
_cell_length_a 18.379935
_cell_length_b 18.664204
_cell_length_c 13.675212
_cell_angle_alpha 90.000000
_cell_angle_beta 90.000000
_cell_angle_gamma 90.000000
_cell_volume 4691.238486
_symmetry_space_group_name_H-M "C M C A"
_symmetry_group_IT_number 64
_symmetry_cell_setting 'orthorhombic'
loop_
_space_group_symop_operation_xyz
x,y,z
-x,1/2-y,1/2+z
x,-y,-z
-x,1/2+y,1/2-z
-x,-y,-z
x,1/2+y,1/2-z
-x,y,z
x,1/2-y,1/2+z
1/2+x,1/2+y,z
1/2-x,-y,1/2+z
1/2+x,1/2-y,-z
1/2-x,y,1/2-z
1/2-x,1/2-y,-z
1/2+x,y,1/2-z
1/2-x,1/2+y,z
1/2+x,-y,1/2+z
loop_
_atom_site_type_symbol
_atom_site_label
_atom_site_fract_x
_atom_site_fract_y
_atom_site_fract_z
Si Si1 0.415420 0.203930 0.885887
Si Si2 0.176623 0.206706 0.797994
Si Si3 0.917946 0.920089 0.537861
Si Si4 0.711541 0.870481 0.843762
Si Si5 0.188285 0.808656 0.989223
O O1 0.500000 0.219616 0.882955
O O2 0.389315 0.189588 0.775140
O O3 0.378218 0.275288 0.928509
O O4 0.396152 0.135237 0.952197
O O5 0.250000 0.175650 0.750000
O O6 0.184771 0.291155 0.816075
O O7 0.162110 0.167259 0.902315
O O8 0.860469 0.913769 0.625892
O O9 0.000000 0.903343 0.575489
O O10 0.913444 0.000000 0.500000
O O11 0.750000 0.907058 0.750000
O O12 0.773416 0.872646 0.928988
O O13 0.250000 0.750000 0.000000
#
# Coordination Sequence:
#
# PCOD8261403 Si02
#       5
#    16  16  16  16  16
#     4  11  20  30  48  76 100 129 169 202 248 304
#     4  10  16  28  49  73 100 127 157 206 256 299
#     4  10  21  36  51  70 104 140 169 203 241 292
#     4  10  17  32  54  73  98 127 164 206 254 298
#     4  10  16  30  49  73 100 130 155 206 261 299
#
# _framework density 17.053066000000001
#
# number of rings (size 3 to 8) (size 9 to 14) (size 15 to 20)
#    0.000    1.800   10.000    0.000    0.000    1.600 
#    0.000    3.000    0.000    0.000    0.000    0.000 
#    0.000    6.400    0.000    0.000    0.000    0.000 
#
# Total GULP energy -495769.168021 kJ/mol
# GULP energy per Si atom -12394.229201 kJ/mol
# Density = 1.701425 g / cm^3
# Si number density = 17.053066 Si / 1000 Ang^3
#
#
#
# Elastic Constant Matrix: (Units=GPa)
#
#
# Indices 1 2 3 4 5 6 
#
# 1 121.0514 25.5261 66.3663 0.0000 0.0000 0.0000
# 2 25.5261 27.8810 13.5705 0.0000 0.0000 0.0000
# 3 66.3663 13.5705 143.3203 0.0000 0.0000 0.0000
# 4 0.0000 0.0000 0.0000 9.1992 0.0000 0.0000
# 5 0.0000 0.0000 0.0000 0.0000 39.0682 0.0000
# 6 0.0000 0.0000 0.0000 0.0000 0.0000 16.1035
#
#
#
# Elastic Compliance Matrix: (Units=1/GPa)
#
#
# Indices 1 2 3 4 5 6 
#
# 1 0.013089 -0.009470 -0.005164 0.000000 0.000000 0.000000
# 2 -0.009470 0.044451 0.000176 0.000000 0.000000 0.000000
# 3 -0.005164 0.000176 0.009352 0.000000 0.000000 0.000000
# 4 0.000000 0.000000 0.000000 0.108706 0.000000 0.000000
# 5 0.000000 0.000000 0.000000 0.000000 0.025596 0.000000
# 6 0.000000 0.000000 0.000000 0.000000 0.000000 0.062098
#
#
# Mechanical properties :
#
#
# Convention : Reuss Voigt Hill
#
# Bulk Modulus (GPa) = 26.33234 55.90872 41.12053
# Shear Modulus (GPa) = 16.40055 25.32683 20.86369
#
# Velocity S-wave (km/s) = 3.10455 3.85798 3.50159
# Velocity P-wave (km/s) = 5.32221 7.25959 6.36504
#
# Compressibility (1/GPa) = 0.03797612
#
# Stress axis : x y z
#
# Youngs Moduli (GPa) = 76.39806 22.49662 106.92712
#
# Poissons Ratio (x) = 0.21304 0.55222
# Poissons Ratio (y) = 0.72350 -0.01885
# Poissons Ratio (z) = 0.39456 -0.00397
#
# Static dielectric constant tensor:
#      x y z
#    x 3.358970 0.000000 0.000000 
#    y 0.000000 2.693600 0.000000 
#    z 0.000000 0.000000 3.583360 
# 
# 
# High freq. dielectric constant tensor:
#      x y z
#    x 1.661810 0.000000 0.000000 
#    y 0.000000 1.592710 0.000000 
#    z 0.000000 0.000000 1.672640 
# 
# From -- ./inp_files/25309.got.cif
#   From: 2010.03.12/outbox.cif.g09.slc.cpg/sg64_13_cif.got.tgz:25309.got - 2010.04.10 20:19:32.
