data_PCOD8261079
_publ_section_title
;
Structure prediction by ZEFSAII (Michael W. Deem and Ramdas Pophale) SiO2 
 PCOD8261079
Probable space group: C M C M
;
_chemical_formula_sum "Si O2"
_cell_formula_units_Z 96
_cell_length_a 18.804543
_cell_length_b 32.242270
_cell_length_c 8.989503
_cell_angle_alpha 90.000000
_cell_angle_beta 90.000000
_cell_angle_gamma 90.000000
_cell_volume 5450.346030
_symmetry_space_group_name_H-M "C M C M"
_symmetry_group_IT_number 63
_symmetry_cell_setting 'orthorhombic'
loop_
_space_group_symop_operation_xyz
x,y,z
-x,-y,1/2+z
x,-y,-z
-x,y,1/2-z
-x,-y,-z
x,y,1/2-z
-x,y,z
x,-y,1/2+z
1/2+x,1/2+y,z
1/2-x,1/2-y,1/2+z
1/2+x,1/2-y,-z
1/2-x,1/2+y,1/2-z
1/2-x,1/2-y,-z
1/2+x,1/2+y,1/2-z
1/2-x,1/2+y,z
1/2+x,1/2-y,1/2+z
loop_
_atom_site_type_symbol
_atom_site_label
_atom_site_fract_x
_atom_site_fract_y
_atom_site_fract_z
Si Si1 0.710432 0.542647 0.073419
Si Si2 0.421141 0.166373 0.926862
Si Si3 0.649850 0.332341 0.419004
Si Si4 0.420193 0.258856 0.574829
Si Si5 0.081423 0.916844 0.423967
Si Si6 0.287387 0.116696 0.577394
O O1 0.711014 0.538927 0.250000
O O2 0.736180 0.500000 0.000000
O O3 0.630463 0.552398 0.018579
O O4 0.765729 0.577676 0.021940
O O5 0.418623 0.167794 0.750000
O O6 0.500000 0.152526 0.980785
O O7 0.403802 0.212633 0.986938
O O8 0.362816 0.133510 0.984130
O O9 0.633463 0.320761 0.250000
O O10 0.636609 0.291243 0.513076
O O11 0.597806 0.369544 0.470956
O O12 0.731064 0.346165 0.441867
O O13 0.412947 0.258951 0.750000
O O14 0.500000 0.271869 0.526634
O O15 0.099934 0.922828 0.250000
O O16 0.000000 0.927553 0.459706
O O17 0.290799 0.102885 0.750000
#
# Coordination Sequence:
#
# PCOD8261079 Si02
#       6
#    16  16  16  16  16  16
#     4  11  22  36  54  75  99 126 158 196 240 291
#     4   8  15  30  52  74  95 124 161 199 244 296
#     4   9  17  28  43  66  97 133 167 199 238 279
#     4   9  17  28  43  66  96 130 169 208 240 275
#     4   9  18  33  51  71  99 135 172 207 242 280
#     4   9  18  34  53  72  96 125 159 200 245 293
#
# _framework density 17.613561000000001
#
# number of rings (size 3 to 8) (size 9 to 14) (size 15 to 20)
#    0.000    2.833    0.000    4.000    0.000    5.000 
#    0.000    0.833    0.000    2.000    0.000    0.000 
#    0.000    0.000    0.000    0.000    0.000    0.000 
#
# Total GULP energy -595085.660047 kJ/mol
# GULP energy per Si atom -12397.617918 kJ/mol
# Density = 1.757347 g / cm^3
# Si number density = 17.613561 Si / 1000 Ang^3
#
#
#
# Elastic Constant Matrix: (Units=GPa)
#
#
# Indices 1 2 3 4 5 6 
#
# 1 98.1065 63.4748 34.9396 0.0000 0.0000 0.0000
# 2 63.4748 102.0429 43.0589 0.0000 0.0000 0.0000
# 3 34.9396 43.0589 64.0860 0.0000 0.0000 0.0000
# 4 0.0000 0.0000 0.0000 27.3630 0.0000 0.0000
# 5 0.0000 0.0000 0.0000 0.0000 17.8312 0.0000
# 6 0.0000 0.0000 0.0000 0.0000 0.0000 15.8576
#
#
#
# Elastic Compliance Matrix: (Units=1/GPa)
#
#
# Indices 1 2 3 4 5 6 
#
# 1 0.017490 -0.009569 -0.003106 0.000000 0.000000 0.000000
# 2 -0.009569 0.018913 -0.007490 0.000000 0.000000 0.000000
# 3 -0.003106 -0.007490 0.022330 0.000000 0.000000 0.000000
# 4 0.000000 0.000000 0.000000 0.036546 0.000000 0.000000
# 5 0.000000 0.000000 0.000000 0.000000 0.056082 0.000000
# 6 0.000000 0.000000 0.000000 0.000000 0.000000 0.063061
#
#
# Mechanical properties :
#
#
# Convention : Reuss Voigt Hill
#
# Bulk Modulus (GPa) = 54.34178 60.79800 57.56989
# Shear Modulus (GPa) = 19.16534 20.39449 19.77991
#
# Velocity S-wave (km/s) = 3.30222 3.40646 3.35474
# Velocity P-wave (km/s) = 6.74231 7.07564 6.91098
#
# Compressibility (1/GPa) = 0.01840205
#
# Stress axis : x y z
#
# Youngs Moduli (GPa) = 57.17415 52.87436 44.78197
#
# Poissons Ratio (x) = 0.50595 0.13911
# Poissons Ratio (y) = 0.54709 0.33543
# Poissons Ratio (z) = 0.17761 0.39605
#
# Static dielectric constant tensor:
#      x y z
#    x 3.382410 0.000000 0.000000 
#    y 0.000000 3.241580 0.000000 
#    z 0.000000 0.000000 3.002980 
# 
# 
# High freq. dielectric constant tensor:
#      x y z
#    x 1.673260 0.000000 0.000000 
#    y 0.000000 1.673930 0.000000 
#    z 0.000000 0.000000 1.657430 
# 
# From -- ./inp_files/8539.got.cif
#   From: 2010.03.12/outbox.cif.g09.slc.cpg/sg63_5_cif.got.tgz:8539.got - 2010.04.10 19:34:48.
