data_PCOD8261267
_publ_section_title
;
Structure prediction by ZEFSAII (Michael W. Deem and Ramdas Pophale) SiO2 
 PCOD8261267
Probable space group: C M C M
;
_chemical_formula_sum "Si O2"
_cell_formula_units_Z 96
_cell_length_a 9.604361
_cell_length_b 32.888556
_cell_length_c 18.491785
_cell_angle_alpha 90.000000
_cell_angle_beta 90.000000
_cell_angle_gamma 90.000000
_cell_volume 5841.066044
_symmetry_space_group_name_H-M "C M C M"
_symmetry_group_IT_number 63
_symmetry_cell_setting 'orthorhombic'
loop_
_space_group_symop_operation_xyz
x,y,z
-x,-y,1/2+z
x,-y,-z
-x,y,1/2-z
-x,-y,-z
x,y,1/2-z
-x,y,z
x,-y,1/2+z
1/2+x,1/2+y,z
1/2-x,1/2-y,1/2+z
1/2+x,1/2-y,-z
1/2-x,1/2+y,1/2-z
1/2-x,1/2-y,-z
1/2+x,1/2+y,1/2-z
1/2-x,1/2+y,z
1/2+x,1/2-y,1/2+z
loop_
_atom_site_type_symbol
_atom_site_label
_atom_site_fract_x
_atom_site_fract_y
_atom_site_fract_z
Si Si1 0.166083 0.914822 0.830275
Si Si2 0.159990 0.665836 0.665157
Si Si3 0.335004 0.665122 0.092466
Si Si4 0.835025 0.042138 0.029058
Si Si5 0.165755 0.243789 0.169474
Si Si6 0.836586 0.123055 0.948462
O O1 0.223863 0.925391 0.750000
O O2 0.220464 0.870179 0.853904
O O3 0.219695 0.947753 0.889566
O O4 0.000000 0.914677 0.829885
O O5 0.178794 0.658407 0.750000
O O6 0.212912 0.711295 0.644180
O O7 0.253319 0.632980 0.624036
O O8 0.000000 0.659862 0.642281
O O9 0.500000 0.665826 0.098294
O O10 0.273345 0.708968 0.116239
O O11 0.291541 0.655322 0.010312
O O12 0.000000 0.038461 0.032348
O O13 0.793325 0.078034 0.974202
O O14 0.768570 0.000000 0.000000
O O15 0.222651 0.234881 0.250000
O O16 0.000000 0.242895 0.171204
O O17 0.000000 0.125520 0.932041
#
# Coordination Sequence:
#
# PCOD8261267 Si02
#       6
#    16  16  16  16  16  16
#     4   8  12  18  31  52  77 104 132 163 201 241
#     4   9  18  31  44  58  79 109 143 175 203 234
#     4   8  13  21  35  57  82 103 127 165 208 246
#     4   8  14  25  39  56  83 113 135 162 202 245
#     4   8  13  22  37  56  79 109 141 169 200 239
#     4   9  17  28  43  63  84 107 134 166 210 254
#
# _framework density 16.435355999999999
#
# number of rings (size 3 to 8) (size 9 to 14) (size 15 to 20)
#    0.000    3.667    0.000    3.500    0.000    3.000 
#    0.000    0.833    0.000    3.500    0.000    0.000 
#    0.000   16.000    0.000    0.000    0.000    0.000 
#
# Total GULP energy -594720.620733 kJ/mol
# GULP energy per Si atom -12390.012932 kJ/mol
# Density = 1.639795 g / cm^3
# Si number density = 16.435356 Si / 1000 Ang^3
#
#
#
# Elastic Constant Matrix: (Units=GPa)
#
#
# Indices 1 2 3 4 5 6 
#
# 1 20.0579 25.0182 27.9456 0.0000 0.0000 0.0000
# 2 25.0182 114.0575 71.0461 0.0000 0.0000 0.0000
# 3 27.9456 71.0461 102.6609 0.0000 0.0000 0.0000
# 4 0.0000 0.0000 0.0000 26.7049 0.0000 0.0000
# 5 0.0000 0.0000 0.0000 0.0000 15.7358 0.0000
# 6 0.0000 0.0000 0.0000 0.0000 0.0000 10.7618
#
#
#
# Elastic Compliance Matrix: (Units=1/GPa)
#
#
# Indices 1 2 3 4 5 6 
#
# 1 0.083655 -0.007321 -0.017706 0.000000 0.000000 0.000000
# 2 -0.007321 0.016051 -0.009115 0.000000 0.000000 0.000000
# 3 -0.017706 -0.009115 0.020869 0.000000 0.000000 0.000000
# 4 0.000000 0.000000 0.000000 0.037446 0.000000 0.000000
# 5 0.000000 0.000000 0.000000 0.000000 0.063549 0.000000
# 6 0.000000 0.000000 0.000000 0.000000 0.000000 0.092921
#
#
# Mechanical properties :
#
#
# Convention : Reuss Voigt Hill
#
# Bulk Modulus (GPa) = 19.12351 53.86623 36.49487
# Shear Modulus (GPa) = 12.49354 18.15828 15.32591
#
# Velocity S-wave (km/s) = 2.76010 3.32750 3.05699
# Velocity P-wave (km/s) = 4.67101 6.89991 5.89182
#
# Compressibility (1/GPa) = 0.05229166
#
# Stress axis : x y z
#
# Youngs Moduli (GPa) = 11.95379 62.30046 47.91826
#
# Poissons Ratio (x) = 0.45608 0.84844
# Poissons Ratio (y) = 0.08751 0.43680
# Poissons Ratio (z) = 0.21165 0.56790
#
# Static dielectric constant tensor:
#      x y z
#    x 2.407550 0.000000 0.000000 
#    y 0.000000 3.407740 0.000000 
#    z 0.000000 0.000000 3.254020 
# 
# 
# High freq. dielectric constant tensor:
#      x y z
#    x 1.556780 0.000000 0.000000 
#    y 0.000000 1.631320 0.000000 
#    z 0.000000 0.000000 1.635780 
# 
# From -- ./inp_files/51382.got.cif
#   From: 2010.03.12/outbox.cif.g09.slc.cpg/sg63_26_cif.got.tgz:51382.got - 2010.04.10 19:34:48.
