data_PCOD8261081
_publ_section_title
;
Structure prediction by ZEFSAII (Michael W. Deem and Ramdas Pophale) SiO2 
 PCOD8261081
Probable space group: C M C M
;
_chemical_formula_sum "Si O2"
_cell_formula_units_Z 88
_cell_length_a 17.366700
_cell_length_b 30.551489
_cell_length_c 9.071408
_cell_angle_alpha 90.000000
_cell_angle_beta 90.000000
_cell_angle_gamma 90.000000
_cell_volume 4813.094449
_symmetry_space_group_name_H-M "C M C M"
_symmetry_group_IT_number 63
_symmetry_cell_setting 'orthorhombic'
loop_
_space_group_symop_operation_xyz
x,y,z
-x,-y,1/2+z
x,-y,-z
-x,y,1/2-z
-x,-y,-z
x,y,1/2-z
-x,y,z
x,-y,1/2+z
1/2+x,1/2+y,z
1/2-x,1/2-y,1/2+z
1/2+x,1/2-y,-z
1/2-x,1/2+y,1/2-z
1/2-x,1/2-y,-z
1/2+x,1/2+y,1/2-z
1/2-x,1/2+y,z
1/2+x,1/2-y,1/2+z
loop_
_atom_site_type_symbol
_atom_site_label
_atom_site_fract_x
_atom_site_fract_y
_atom_site_fract_z
Si Si1 0.500000 0.544299 0.080922
Si Si2 0.914825 0.811271 0.088378
Si Si3 0.765530 0.204347 0.076281
Si Si4 0.588839 0.954724 0.076932
Si Si5 0.791894 0.380413 0.422666
Si Si6 0.623694 0.408722 0.409613
O O1 0.500000 0.535805 0.250000
O O2 0.500000 0.500000 0.000000
O O3 0.420753 0.567675 0.039467
O O4 0.891368 0.790889 0.250000
O O5 0.917259 0.862693 0.110012
O O6 0.000000 0.794260 0.043017
O O7 0.855610 0.802048 0.957527
O O8 0.751422 0.206323 0.250000
O O9 0.750000 0.250000 0.000000
O O10 0.710647 0.165846 0.010252
O O11 0.600589 0.961752 0.250000
O O12 0.500000 0.944467 0.036928
O O13 0.639236 0.912702 0.023770
O O14 0.615707 0.000000 0.000000
O O15 0.800097 0.368867 0.250000
O O16 0.712864 0.405741 0.455455
O O17 0.617007 0.433070 0.250000
#
# Coordination Sequence:
#
# PCOD8261081 Si02
#       6
#     8  16  16  16  16  16
#     4  12  24  34  46  66  98 136 174 216 260 304
#     4   9  17  33  57  79 102 134 169 211 265 323
#     4  11  22  36  55  80 111 146 186 232 279 332
#     4   9  18  34  57  84 113 145 183 230 284 341
#     4   9  19  36  57  80 108 145 182 223 280 337
#     4   9  17  33  52  71  98 132 169 209 259 315
#
# _framework density 18.283456999999999
#
# number of rings (size 3 to 8) (size 9 to 14) (size 15 to 20)
#    0.000    2.364    0.909    3.545    0.000    4.727 
#    0.000    2.727    0.000    3.273    0.000    0.000 
#    0.000    0.000    0.000    0.000    0.000    0.000 
#
# Total GULP energy -545138.524034 kJ/mol
# GULP energy per Si atom -12389.511910 kJ/mol
# Density = 1.824184 g / cm^3
# Si number density = 18.283457 Si / 1000 Ang^3
#
#
#
# Elastic Constant Matrix: (Units=GPa)
#
#
# Indices 1 2 3 4 5 6 
#
# 1 96.9223 60.4415 40.7425 0.0000 0.0000 0.0000
# 2 60.4415 118.2555 64.8748 0.0000 0.0000 0.0000
# 3 40.7425 64.8748 115.5271 0.0000 0.0000 0.0000
# 4 0.0000 0.0000 0.0000 31.1912 0.0000 0.0000
# 5 0.0000 0.0000 0.0000 0.0000 23.8440 0.0000
# 6 0.0000 0.0000 0.0000 0.0000 0.0000 177.4215
#
#
#
# Elastic Compliance Matrix: (Units=1/GPa)
#
#
# Indices 1 2 3 4 5 6 
#
# 1 0.015311 -0.007029 -0.001453 0.000000 0.000000 0.000000
# 2 -0.007029 0.015448 -0.006196 0.000000 0.000000 0.000000
# 3 -0.001453 -0.006196 0.012648 0.000000 0.000000 0.000000
# 4 0.000000 0.000000 0.000000 0.032060 0.000000 0.000000
# 5 0.000000 0.000000 0.000000 0.000000 0.041939 0.000000
# 6 0.000000 0.000000 0.000000 0.000000 0.000000 0.005636
#
#
# Mechanical properties :
#
#
# Convention : Reuss Voigt Hill
#
# Bulk Modulus (GPa) = 71.16495 73.64693 72.40594
# Shear Modulus (GPa) = 31.83047 57.46773 44.64910
#
# Velocity S-wave (km/s) = 4.17699 5.61247 4.94707
# Velocity P-wave (km/s) = 7.89117 9.07567 8.50407
#
# Compressibility (1/GPa) = 0.01405186
#
# Stress axis : x y z
#
# Youngs Moduli (GPa) = 65.31048 64.73370 79.06570
#
# Poissons Ratio (x) = 0.45500 0.11486
# Poissons Ratio (y) = 0.45906 0.48989
# Poissons Ratio (z) = 0.09488 0.40109
#
# Static dielectric constant tensor:
#      x y z
#    x 3.574950 0.000000 0.000000 
#    y 0.000000 3.305460 0.000000 
#    z 0.000000 0.000000 4.322060 
# 
# 
# High freq. dielectric constant tensor:
#      x y z
#    x 1.708930 0.000000 0.000000 
#    y 0.000000 1.692130 0.000000 
#    z 0.000000 0.000000 1.703950 
# 
# From -- ./inp_files/6891.got.cif
#   From: 2010.03.12/outbox.cif.g09.slc.cpg/sg63_4_cif.got.tgz:6891.got - 2010.04.10 19:34:48.
