data_PCOD8261931
_publ_section_title
;
Structure prediction by ZEFSAII (Michael W. Deem and Ramdas Pophale) SiO2 
 PCOD8261931
Probable space group: C M C A
;
_chemical_formula_sum "Si O2"
_cell_formula_units_Z 104
_cell_length_a 23.522184
_cell_length_b 14.594864
_cell_length_c 16.057814
_cell_angle_alpha 90.000000
_cell_angle_beta 90.000000
_cell_angle_gamma 90.000000
_cell_volume 5512.696947
_symmetry_space_group_name_H-M "C M C A"
_symmetry_group_IT_number 64
_symmetry_cell_setting 'orthorhombic'
loop_
_space_group_symop_operation_xyz
x,y,z
-x,1/2-y,1/2+z
x,-y,-z
-x,1/2+y,1/2-z
-x,-y,-z
x,1/2+y,1/2-z
-x,y,z
x,1/2-y,1/2+z
1/2+x,1/2+y,z
1/2-x,-y,1/2+z
1/2+x,1/2-y,-z
1/2-x,y,1/2-z
1/2-x,1/2-y,-z
1/2+x,y,1/2-z
1/2-x,1/2+y,z
1/2+x,-y,1/2+z
loop_
_atom_site_type_symbol
_atom_site_label
_atom_site_fract_x
_atom_site_fract_y
_atom_site_fract_z
Si Si1 0.155395 0.070794 0.792171
Si Si2 0.225875 0.082059 0.127556
Si Si3 0.188404 0.000000 0.500000
Si Si4 0.276747 0.774251 0.374317
Si Si5 0.564010 0.924476 0.428891
Si Si6 0.342861 0.861056 0.116291
Si Si7 0.355254 0.805988 0.523026
O O1 0.180181 0.171702 0.814026
O O2 0.101109 0.046504 0.849054
O O3 0.134798 0.084424 0.697313
O O4 0.200504 0.986153 0.800950
O O5 0.254996 0.176196 0.162539
O O6 0.173832 0.105411 0.065196
O O7 0.273585 0.027936 0.078380
O O8 0.146270 0.077472 0.534571
O O9 0.224325 0.842957 0.379916
O O10 0.306742 0.759656 0.464178
O O11 0.500000 0.904539 0.398678
O O12 0.589956 0.832810 0.469667
O O13 0.564886 0.000000 0.500000
O O14 0.374385 0.764766 0.095963
#
# Coordination Sequence:
#
# PCOD8261931 Si02
#       7
#    16  16   8  16  16  16  16
#     4  11  22  36  52  85 122 147 192 244 283 333
#     4  11  18  32  51  76 115 158 181 224 276 325
#     4  12  18  32  52  72 108 162 192 210 254 344
#     4  10  19  33  50  75 114 157 188 223 269 342
#     4  10  20  38  65  87 103 140 195 248 303 345
#     4  11  21  34  49  82 118 154 194 222 278 348
#     4  10  18  36  55  78 111 149 191 238 281 344
#
# _framework density 18.865538999999998
#
# number of rings (size 3 to 8) (size 9 to 14) (size 15 to 20)
#    0.000    1.385    6.154    2.308    0.000    0.000 
#   11.077    0.769    0.000    0.000    0.000    1.077 
#    0.000    0.000    0.000    0.000    0.000    0.000 
#
# Total GULP energy -644327.465254 kJ/mol
# GULP energy per Si atom -12390.912793 kJ/mol
# Density = 1.882260 g / cm^3
# Si number density = 18.865539 Si / 1000 Ang^3
#
#
#
# Elastic Constant Matrix: (Units=GPa)
#
#
# Indices 1 2 3 4 5 6 
#
# 1 76.7230 28.9355 18.5521 0.0000 0.0000 0.0000
# 2 28.9355 90.8454 33.9903 0.0000 0.0000 0.0000
# 3 18.5521 33.9903 84.9286 0.0000 0.0000 0.0000
# 4 0.0000 0.0000 0.0000 27.7412 0.0000 0.0000
# 5 0.0000 0.0000 0.0000 0.0000 10.6282 0.0000
# 6 0.0000 0.0000 0.0000 0.0000 0.0000 15.4096
#
#
#
# Elastic Compliance Matrix: (Units=1/GPa)
#
#
# Indices 1 2 3 4 5 6 
#
# 1 0.014997 -0.004176 -0.001604 0.000000 0.000000 0.000000
# 2 -0.004176 0.014109 -0.004735 0.000000 0.000000 0.000000
# 3 -0.001604 -0.004735 0.014020 0.000000 0.000000 0.000000
# 4 0.000000 0.000000 0.000000 0.036047 0.000000 0.000000
# 5 0.000000 0.000000 0.000000 0.000000 0.094089 0.000000
# 6 0.000000 0.000000 0.000000 0.000000 0.000000 0.064895
#
#
# Mechanical properties :
#
#
# Convention : Reuss Voigt Hill
#
# Bulk Modulus (GPa) = 45.25833 46.16142 45.70988
# Shear Modulus (GPa) = 18.75793 22.15708 20.45751
#
# Velocity S-wave (km/s) = 3.15667 3.43078 3.29657
# Velocity P-wave (km/s) = 6.10967 6.34156 6.22670
#
# Compressibility (1/GPa) = 0.02209538
#
# Stress axis : x y z
#
# Youngs Moduli (GPa) = 66.68007 70.87460 71.32678
#
# Poissons Ratio (x) = 0.29600 0.11444
# Poissons Ratio (y) = 0.27848 0.33770
# Poissons Ratio (z) = 0.10699 0.33556
#
# Static dielectric constant tensor:
#      x y z
#    x 3.093320 0.000000 0.000000 
#    y 0.000000 3.685710 0.000000 
#    z 0.000000 0.000000 3.464840 
# 
# 
# High freq. dielectric constant tensor:
#      x y z
#    x 1.668250 0.000000 0.000000 
#    y 0.000000 1.745830 0.000000 
#    z 0.000000 0.000000 1.731150 
# 
# From -- ./inp_files/34354.got.cif
#   From: 2010.03.12/outbox.cif.g09.slc.cpg/sg64_18_cif.got.tgz:34354.got - 2010.04.10 20:19:32.
