data_PCOD8261550
_publ_section_title
;
Structure prediction by ZEFSAII (Michael W. Deem and Ramdas Pophale) SiO2 
 PCOD8261550
Probable space group: C M C A
;
_chemical_formula_sum "Si O2"
_cell_formula_units_Z 112
_cell_length_a 17.315806
_cell_length_b 22.390416
_cell_length_c 17.279889
_cell_angle_alpha 90.000000
_cell_angle_beta 90.000000
_cell_angle_gamma 90.000000
_cell_volume 6699.552927
_symmetry_space_group_name_H-M "C M C A"
_symmetry_group_IT_number 64
_symmetry_cell_setting 'orthorhombic'
loop_
_space_group_symop_operation_xyz
x,y,z
-x,1/2-y,1/2+z
x,-y,-z
-x,1/2+y,1/2-z
-x,-y,-z
x,1/2+y,1/2-z
-x,y,z
x,1/2-y,1/2+z
1/2+x,1/2+y,z
1/2-x,-y,1/2+z
1/2+x,1/2-y,-z
1/2-x,y,1/2-z
1/2-x,1/2-y,-z
1/2+x,y,1/2-z
1/2-x,1/2+y,z
1/2+x,-y,1/2+z
loop_
_atom_site_type_symbol
_atom_site_label
_atom_site_fract_x
_atom_site_fract_y
_atom_site_fract_z
Si Si1 0.177701 0.851309 0.803167
Si Si2 0.301564 0.211965 0.676510
Si Si3 0.410447 0.414438 0.683399
Si Si4 0.410004 0.229960 0.799829
Si Si5 0.317572 0.646531 0.591505
Si Si6 0.411275 0.528221 0.582555
Si Si7 0.199020 0.666831 0.087615
O O1 0.250000 0.832320 0.750000
O O2 0.133498 0.908798 0.766518
O O3 0.115335 0.798680 0.805538
O O4 0.218463 0.863501 0.886318
O O5 0.250000 0.231975 0.750000
O O6 0.385254 0.201215 0.716026
O O7 0.265330 0.152754 0.635867
O O8 0.302632 0.264085 0.612778
O O9 0.500000 0.398523 0.693020
O O10 0.399362 0.480713 0.650795
O O11 0.374368 0.366732 0.624145
O O12 0.500000 0.225074 0.806693
O O13 0.375062 0.194688 0.872092
O O14 0.352247 0.580908 0.601847
O O15 0.306524 0.663209 0.503234
O O16 0.389334 0.500000 0.500000
O O17 0.500000 0.551274 0.580427
#
# Coordination Sequence:
#
# PCOD8261550 Si02
#       7
#    16  16  16  16  16  16  16
#     4  10  17  32  50  75 104 139 183 219 266 319
#     4  10  18  34  50  74 106 144 180 221 266 325
#     4  10  19  32  55  78 106 145 181 223 266 318
#     4  11  20  33  52  75 107 143 178 221 273 329
#     4  11  21  33  55  77 108 146 178 221 279 322
#     4  10  20  35  51  78 114 143 179 224 272 321
#     4  11  18  32  54  75 107 138 180 222 273 320
#
# _framework density 16.717533
#
# number of rings (size 3 to 8) (size 9 to 14) (size 15 to 20)
#    0.000    1.571    7.143    1.286    0.000    0.571 
#    0.000    6.429    0.000    0.000    0.000    0.000 
#    0.000    0.571    0.000    5.286    0.000    0.000 
#
# Total GULP energy -693874.739186 kJ/mol
# GULP energy per Si atom -12390.620343 kJ/mol
# Density = 1.667948 g / cm^3
# Si number density = 16.717533 Si / 1000 Ang^3
#
#
#
# Elastic Constant Matrix: (Units=GPa)
#
#
# Indices 1 2 3 4 5 6 
#
# 1 83.3025 29.4089 63.4229 0.0000 0.0000 0.0000
# 2 29.4089 78.9673 48.7895 0.0000 0.0000 0.0000
# 3 63.4229 48.7895 105.3037 0.0000 0.0000 0.0000
# 4 0.0000 0.0000 0.0000 22.4451 0.0000 0.0000
# 5 0.0000 0.0000 0.0000 0.0000 23.0518 0.0000
# 6 0.0000 0.0000 0.0000 0.0000 0.0000 27.1513
#
#
#
# Elastic Compliance Matrix: (Units=1/GPa)
#
#
# Indices 1 2 3 4 5 6 
#
# 1 0.022171 -0.000009 -0.013349 0.000000 0.000000 0.000000
# 2 -0.000009 0.017742 -0.008215 0.000000 0.000000 0.000000
# 3 -0.013349 -0.008215 0.021342 0.000000 0.000000 0.000000
# 4 0.000000 0.000000 0.000000 0.044553 0.000000 0.000000
# 5 0.000000 0.000000 0.000000 0.000000 0.043381 0.000000
# 6 0.000000 0.000000 0.000000 0.000000 0.000000 0.036831
#
#
# Mechanical properties :
#
#
# Convention : Reuss Voigt Hill
#
# Bulk Modulus (GPa) = 55.21948 61.20179 58.21063
# Shear Modulus (GPa) = 21.25822 22.92645 22.09233
#
# Velocity S-wave (km/s) = 3.56984 3.70726 3.63920
# Velocity P-wave (km/s) = 7.07773 7.41713 7.24942
#
# Compressibility (1/GPa) = 0.01810955
#
# Stress axis : x y z
#
# Youngs Moduli (GPa) = 45.10374 56.36204 46.85512
#
# Poissons Ratio (x) = 0.00053 0.62547
# Poissons Ratio (y) = 0.00042 0.38491
# Poissons Ratio (z) = 0.60209 0.46300
#
# Static dielectric constant tensor:
#      x y z
#    x 3.473590 0.000000 0.000000 
#    y 0.000000 2.997760 0.000000 
#    z 0.000000 0.000000 3.465260 
# 
# 
# High freq. dielectric constant tensor:
#      x y z
#    x 1.642090 0.000000 0.000000 
#    y 0.000000 1.622880 0.000000 
#    z 0.000000 0.000000 1.640090 
# 
# From -- ./inp_files/33594.got.cif
#   From: 2010.03.12/outbox.cif.g09.slc.cpg/sg64_17_cif.got.tgz:33594.got - 2010.04.10 20:19:32.
