data_PCOD8261571
_publ_section_title
;
Structure prediction by ZEFSAII (Michael W. Deem and Ramdas Pophale) SiO2 
 PCOD8261571
Probable space group: C M C A
;
_chemical_formula_sum "Si O2"
_cell_formula_units_Z 112
_cell_length_a 19.182375
_cell_length_b 15.681275
_cell_length_c 19.181311
_cell_angle_alpha 90.000000
_cell_angle_beta 90.000000
_cell_angle_gamma 90.000000
_cell_volume 5769.816945
_symmetry_space_group_name_H-M "C M C A"
_symmetry_group_IT_number 64
_symmetry_cell_setting 'orthorhombic'
loop_
_space_group_symop_operation_xyz
x,y,z
-x,1/2-y,1/2+z
x,-y,-z
-x,1/2+y,1/2-z
-x,-y,-z
x,1/2+y,1/2-z
-x,y,z
x,1/2-y,1/2+z
1/2+x,1/2+y,z
1/2-x,-y,1/2+z
1/2+x,1/2-y,-z
1/2-x,y,1/2-z
1/2-x,1/2-y,-z
1/2+x,y,1/2-z
1/2-x,1/2+y,z
1/2+x,-y,1/2+z
loop_
_atom_site_type_symbol
_atom_site_label
_atom_site_fract_x
_atom_site_fract_y
_atom_site_fract_z
Si Si1 0.184711 0.191075 0.520567
Si Si2 0.076367 0.457880 0.179175
Si Si3 0.322787 0.588527 0.790031
Si Si4 0.652360 0.598532 0.386564
Si Si5 0.667866 0.277832 0.737930
Si Si6 0.735306 0.970212 0.426082
Si Si7 0.919097 0.264308 0.132998
O O1 0.250000 0.250000 0.500000
O O2 0.142314 0.159438 0.452887
O O3 0.212158 0.109662 0.564488
O O4 0.128457 0.246798 0.563841
O O5 0.125821 0.471134 0.245937
O O6 0.094186 0.524493 0.117378
O O7 0.082985 0.363792 0.149265
O O8 0.000000 0.476837 0.207079
O O9 0.250000 0.583827 0.750000
O O10 0.349138 0.685372 0.793878
O O11 0.322494 0.555357 0.869556
O O12 0.644518 0.651777 0.316429
O O13 0.726558 0.551963 0.393358
O O14 0.750000 0.288061 0.750000
O O15 0.620604 0.289711 0.807138
O O16 0.701890 0.000000 0.500000
O O17 0.000000 0.233577 0.123412
#
# Coordination Sequence:
#
# PCOD8261571 Si02
#       7
#    16  16  16  16  16  16  16
#     4  11  21  38  59  89 122 159 201 243 303 369
#     4  10  21  35  56  85 117 152 198 249 304 357
#     4  10  17  35  57  77 112 154 193 237 299 360
#     4  11  21  33  57  86 120 151 197 252 303 349
#     4  10  21  34  58  85 112 153 200 247 295 359
#     4  10  20  33  54  87 118 147 191 251 297 349
#     4  10  21  40  60  84 122 165 197 240 308 369
#
# _framework density 19.411362
#
# number of rings (size 3 to 8) (size 9 to 14) (size 15 to 20)
#    0.000    1.714    2.857    3.429    2.000    1.143 
#    0.000    1.429    0.000    3.000    0.000    0.000 
#    0.000    0.000    0.000    0.000    0.000    0.000 
#
# Total GULP energy -694145.376543 kJ/mol
# GULP energy per Si atom -12395.453153 kJ/mol
# Density = 1.936718 g / cm^3
# Si number density = 19.411362 Si / 1000 Ang^3
#
#
#
# Elastic Constant Matrix: (Units=GPa)
#
#
# Indices 1 2 3 4 5 6 
#
# 1 111.0851 18.2142 48.1833 0.0000 0.0000 0.0000
# 2 18.2142 50.2765 35.5387 0.0000 0.0000 0.0000
# 3 48.1833 35.5387 109.6651 0.0000 0.0000 0.0000
# 4 0.0000 0.0000 0.0000 32.0435 0.0000 0.0000
# 5 0.0000 0.0000 0.0000 0.0000 28.0987 0.0000
# 6 0.0000 0.0000 0.0000 0.0000 0.0000 17.4330
#
#
#
# Elastic Compliance Matrix: (Units=1/GPa)
#
#
# Indices 1 2 3 4 5 6 
#
# 1 0.011143 -0.000747 -0.004654 0.000000 0.000000 0.000000
# 2 -0.000747 0.025850 -0.008049 0.000000 0.000000 0.000000
# 3 -0.004654 -0.008049 0.013772 0.000000 0.000000 0.000000
# 4 0.000000 0.000000 0.000000 0.031208 0.000000 0.000000
# 5 0.000000 0.000000 0.000000 0.000000 0.035589 0.000000
# 6 0.000000 0.000000 0.000000 0.000000 0.000000 0.057363
#
#
# Mechanical properties :
#
#
# Convention : Reuss Voigt Hill
#
# Bulk Modulus (GPa) = 41.90194 52.76659 47.33427
# Shear Modulus (GPa) = 23.83459 26.78773 25.31116
#
# Velocity S-wave (km/s) = 3.50790 3.71887 3.61492
# Velocity P-wave (km/s) = 6.16768 6.75887 6.47003
#
# Compressibility (1/GPa) = 0.02386524
#
# Stress axis : x y z
#
# Youngs Moduli (GPa) = 89.74054 38.68445 72.61252
#
# Poissons Ratio (x) = 0.02891 0.33792
# Poissons Ratio (y) = 0.06707 0.58444
# Poissons Ratio (z) = 0.41763 0.31136
#
# Static dielectric constant tensor:
#      x y z
#    x 3.461010 0.000000 0.000000 
#    y 0.000000 3.583890 0.000000 
#    z 0.000000 0.000000 3.675570 
# 
# 
# High freq. dielectric constant tensor:
#      x y z
#    x 1.723050 0.000000 0.000000 
#    y 0.000000 1.752650 0.000000 
#    z 0.000000 0.000000 1.758930 
# 
# From -- ./inp_files/34493.got.cif
#   From: 2010.03.12/outbox.cif.g09.slc.cpg/sg64_18_cif.got.tgz:34493.got - 2010.04.10 20:19:32.
