data_PCOD8261825
_publ_section_title
;
Structure prediction by ZEFSAII (Michael W. Deem and Ramdas Pophale) SiO2 
 PCOD8261825
Probable space group: C M C A
;
_chemical_formula_sum "Si O2"
_cell_formula_units_Z 88
_cell_length_a 9.589401
_cell_length_b 23.017606
_cell_length_c 20.681566
_cell_angle_alpha 90.000000
_cell_angle_beta 90.000000
_cell_angle_gamma 90.000000
_cell_volume 4564.939772
_symmetry_space_group_name_H-M "C M C A"
_symmetry_group_IT_number 64
_symmetry_cell_setting 'orthorhombic'
loop_
_space_group_symop_operation_xyz
x,y,z
-x,1/2-y,1/2+z
x,-y,-z
-x,1/2+y,1/2-z
-x,-y,-z
x,1/2+y,1/2-z
-x,y,z
x,1/2-y,1/2+z
1/2+x,1/2+y,z
1/2-x,-y,1/2+z
1/2+x,1/2-y,-z
1/2-x,y,1/2-z
1/2-x,1/2-y,-z
1/2+x,y,1/2-z
1/2-x,1/2+y,z
1/2+x,-y,1/2+z
loop_
_atom_site_type_symbol
_atom_site_label
_atom_site_fract_x
_atom_site_fract_y
_atom_site_fract_z
Si Si1 0.667572 0.363422 0.048258
Si Si2 0.750000 0.824836 0.250000
Si Si3 0.658501 0.546953 0.307939
Si Si4 0.841326 0.256803 0.371014
Si Si5 0.154727 0.082500 0.653512
Si Si6 0.335538 0.365306 0.581747
O O1 0.500000 0.369385 0.043307
O O2 0.720251 0.301064 0.075566
O O3 0.725696 0.409884 0.099810
O O4 0.741090 0.374655 0.980749
O O5 0.829850 0.781603 0.201514
O O6 0.848897 0.866868 0.292046
O O7 0.500000 0.560281 0.289399
O O8 0.750000 0.572749 0.250000
O O9 0.687973 0.478788 0.313980
O O10 0.697440 0.579471 0.373957
O O11 0.778387 0.192455 0.380995
O O12 0.000000 0.250325 0.388664
O O13 0.000000 0.081653 0.621769
O O14 0.500000 0.362169 0.563782
#
# Coordination Sequence:
#
# PCOD8261825 Si02
#       6
#    16   8  16  16  16  16
#     4  10  21  37  58  84 111 144 189 233 277 324
#     4  10  18  32  56  86 110 144 184 234 272 328
#     4  10  22  38  58  83 112 149 185 225 275 331
#     4   9  19  34  54  81 112 146 184 230 276 327
#     4  10  20  36  58  83 112 146 185 228 279 328
#     4  10  21  38  57  79 114 150 184 225 277 334
#
# _framework density 19.277363000000001
#
# number of rings (size 3 to 8) (size 9 to 14) (size 15 to 20)
#    0.000    2.182    0.909    1.636    1.273    2.909 
#    0.000    8.182    0.000    0.000    0.000    0.000 
#    0.000    0.000    0.000    0.000    0.000    0.000 
#
# Total GULP energy -545332.241961 kJ/mol
# GULP energy per Si atom -12393.914590 kJ/mol
# Density = 1.923349 g / cm^3
# Si number density = 19.277363 Si / 1000 Ang^3
#
#
#
# Elastic Constant Matrix: (Units=GPa)
#
#
# Indices 1 2 3 4 5 6 
#
# 1 87.0000 35.6150 63.6300 0.0000 0.0000 0.0000
# 2 35.6150 48.9937 37.6832 0.0000 0.0000 0.0000
# 3 63.6300 37.6832 137.2926 0.0000 0.0000 0.0000
# 4 0.0000 0.0000 0.0000 16.3968 0.0000 0.0000
# 5 0.0000 0.0000 0.0000 0.0000 38.5954 0.0000
# 6 0.0000 0.0000 0.0000 0.0000 0.0000 21.8662
#
#
#
# Elastic Compliance Matrix: (Units=1/GPa)
#
#
# Indices 1 2 3 4 5 6 
#
# 1 0.020414 -0.009586 -0.006830 0.000000 0.000000 0.000000
# 2 -0.009586 0.030374 -0.003894 0.000000 0.000000 0.000000
# 3 -0.006830 -0.003894 0.011518 0.000000 0.000000 0.000000
# 4 0.000000 0.000000 0.000000 0.060987 0.000000 0.000000
# 5 0.000000 0.000000 0.000000 0.000000 0.025910 0.000000
# 6 0.000000 0.000000 0.000000 0.000000 0.000000 0.045733
#
#
# Mechanical properties :
#
#
# Convention : Reuss Voigt Hill
#
# Bulk Modulus (GPa) = 46.11328 60.79362 53.45345
# Shear Modulus (GPa) = 20.59437 24.46224 22.52830
#
# Velocity S-wave (km/s) = 3.27206 3.56611 3.42225
# Velocity P-wave (km/s) = 6.18450 6.96857 6.58821
#
# Compressibility (1/GPa) = 0.02168573
#
# Stress axis : x y z
#
# Youngs Moduli (GPa) = 48.98663 32.92242 86.82120
#
# Poissons Ratio (x) = 0.31560 0.59297
# Poissons Ratio (y) = 0.46960 0.33809
# Poissons Ratio (z) = 0.33457 0.12820
#
# Static dielectric constant tensor:
#      x y z
#    x 3.393590 0.000000 0.000000 
#    y 0.000000 3.815760 0.000000 
#    z 0.000000 0.000000 3.392940 
# 
# 
# High freq. dielectric constant tensor:
#      x y z
#    x 1.736720 0.000000 0.000000 
#    y 0.000000 1.755190 0.000000 
#    z 0.000000 0.000000 1.749190 
# 
# From -- ./inp_files/36803.got.cif
#   From: 2010.03.12/outbox.cif.g09.slc.cpg/sg64_19_cif.got.tgz:36803.got - 2010.04.10 20:19:32.
