data_PCOD8261410
_publ_section_title
;
Structure prediction by ZEFSAII (Michael W. Deem and Ramdas Pophale) SiO2 
 PCOD8261410
Probable space group: C M C A
;
_chemical_formula_sum "Si O2"
_cell_formula_units_Z 80
_cell_length_a 17.423484
_cell_length_b 19.897835
_cell_length_c 15.043118
_cell_angle_alpha 90.000000
_cell_angle_beta 90.000000
_cell_angle_gamma 90.000000
_cell_volume 5215.292709
_symmetry_space_group_name_H-M "C M C A"
_symmetry_group_IT_number 64
_symmetry_cell_setting 'orthorhombic'
loop_
_space_group_symop_operation_xyz
x,y,z
-x,1/2-y,1/2+z
x,-y,-z
-x,1/2+y,1/2-z
-x,-y,-z
x,1/2+y,1/2-z
-x,y,z
x,1/2-y,1/2+z
1/2+x,1/2+y,z
1/2-x,-y,1/2+z
1/2+x,1/2-y,-z
1/2-x,y,1/2-z
1/2-x,1/2-y,-z
1/2+x,y,1/2-z
1/2-x,1/2+y,z
1/2+x,-y,1/2+z
loop_
_atom_site_type_symbol
_atom_site_label
_atom_site_fract_x
_atom_site_fract_y
_atom_site_fract_z
Si Si1 0.089600 0.928499 0.458368
Si Si2 0.318660 0.631994 0.693383
Si Si3 0.189753 0.264904 0.604875
Si Si4 0.851813 0.697037 0.063983
Si Si5 0.912207 0.246646 0.758683
O O1 0.137613 0.922634 0.366785
O O2 0.114197 0.872490 0.529114
O O3 0.000000 0.920601 0.435937
O O4 0.109000 0.000000 0.500000
O O5 0.250000 0.597259 0.750000
O O6 0.279877 0.689699 0.631134
O O7 0.379919 0.670079 0.757664
O O8 0.144866 0.255429 0.511467
O O9 0.263255 0.313300 0.595532
O O10 0.132896 0.290757 0.682933
O O11 0.903968 0.719952 0.145605
O O12 0.000000 0.245381 0.730162
#
# Coordination Sequence:
#
# PCOD8261410 Si02
#       5
#    16  16  16  16  16
#     4  10  21  34  49  72 101 133 168 206 242 289
#     4   9  16  31  49  68  99 128 158 201 248 293
#     4   8  17  28  44  70  97 125 150 205 248 293
#     4  10  16  29  49  67  94 130 158 196 251 298
#     4  10  17  26  45  74 101 126 156 204 254 298
#
# _framework density 15.339504
#
# number of rings (size 3 to 8) (size 9 to 14) (size 15 to 20)
#    1.200    1.400    2.000    1.800    0.000    0.800 
#    0.000    2.000    0.000    0.000    0.000    0.000 
#    0.000    2.400    0.000    0.000    0.000    0.000 
#
# Total GULP energy -495539.935020 kJ/mol
# GULP energy per Si atom -12388.498375 kJ/mol
# Density = 1.530459 g / cm^3
# Si number density = 15.339504 Si / 1000 Ang^3
#
#
#
# Elastic Constant Matrix: (Units=GPa)
#
#
# Indices 1 2 3 4 5 6 
#
# 1 102.0974 32.2330 52.8843 0.0000 0.0000 0.0000
# 2 32.2330 53.9408 27.5154 0.0000 0.0000 0.0000
# 3 52.8843 27.5154 102.3694 0.0000 0.0000 0.0000
# 4 0.0000 0.0000 0.0000 15.6940 0.0000 0.0000
# 5 0.0000 0.0000 0.0000 0.0000 25.4400 0.0000
# 6 0.0000 0.0000 0.0000 0.0000 0.0000 17.4670
#
#
#
# Elastic Compliance Matrix: (Units=1/GPa)
#
#
# Indices 1 2 3 4 5 6 
#
# 1 0.014749 -0.005710 -0.006085 0.000000 0.000000 0.000000
# 2 -0.005710 0.023695 -0.003419 0.000000 0.000000 0.000000
# 3 -0.006085 -0.003419 0.013831 0.000000 0.000000 0.000000
# 4 0.000000 0.000000 0.000000 0.063719 0.000000 0.000000
# 5 0.000000 0.000000 0.000000 0.000000 0.039308 0.000000
# 6 0.000000 0.000000 0.000000 0.000000 0.000000 0.057251
#
#
# Mechanical properties :
#
#
# Convention : Reuss Voigt Hill
#
# Bulk Modulus (GPa) = 45.77142 53.74145 49.75644
# Shear Modulus (GPa) = 19.97909 21.43853 20.70881
#
# Velocity S-wave (km/s) = 3.61288 3.74251 3.67826
# Velocity P-wave (km/s) = 6.87805 7.33389 7.10962
#
# Compressibility (1/GPa) = 0.02184769
#
# Stress axis : x y z
#
# Youngs Moduli (GPa) = 67.80189 42.20327 72.30167
#
# Poissons Ratio (x) = 0.24096 0.43993
# Poissons Ratio (y) = 0.38712 0.24722
# Poissons Ratio (z) = 0.41255 0.14430
#
# Static dielectric constant tensor:
#      x y z
#    x 2.898740 0.000000 0.000000 
#    y 0.000000 2.468560 0.000000 
#    z 0.000000 0.000000 3.072540 
# 
# 
# High freq. dielectric constant tensor:
#      x y z
#    x 1.593300 0.000000 0.000000 
#    y 0.000000 1.526970 0.000000 
#    z 0.000000 0.000000 1.600270 
# 
# From -- ./inp_files/32256.got.cif
#   From: 2010.03.12/outbox.cif.g09.slc.cpg/sg64_17_cif.got.tgz:32256.got - 2010.04.10 20:19:32.
