data_PCOD8261494
_publ_section_title
;
Structure prediction by ZEFSAII (Michael W. Deem and Ramdas Pophale) SiO2 
 PCOD8261494
Probable space group: C M C A
;
_chemical_formula_sum "Si O2"
_cell_formula_units_Z 96
_cell_length_a 8.896005
_cell_length_b 30.042233
_cell_length_c 21.380719
_cell_angle_alpha 90.000000
_cell_angle_beta 90.000000
_cell_angle_gamma 90.000000
_cell_volume 5714.122336
_symmetry_space_group_name_H-M "C M C A"
_symmetry_group_IT_number 64
_symmetry_cell_setting 'orthorhombic'
loop_
_space_group_symop_operation_xyz
x,y,z
-x,1/2-y,1/2+z
x,-y,-z
-x,1/2+y,1/2-z
-x,-y,-z
x,1/2+y,1/2-z
-x,y,z
x,1/2-y,1/2+z
1/2+x,1/2+y,z
1/2-x,-y,1/2+z
1/2+x,1/2-y,-z
1/2-x,y,1/2-z
1/2-x,1/2-y,-z
1/2+x,y,1/2-z
1/2-x,1/2+y,z
1/2+x,-y,1/2+z
loop_
_atom_site_type_symbol
_atom_site_label
_atom_site_fract_x
_atom_site_fract_y
_atom_site_fract_z
Si Si1 0.325161 0.073850 0.403132
Si Si2 0.676194 0.809361 0.047220
Si Si3 0.176087 0.599344 0.543606
Si Si4 0.676245 0.777092 0.909600
Si Si5 0.822164 0.155450 0.182545
Si Si6 0.330215 0.987300 0.072215
O O1 0.500000 0.062510 0.399794
O O2 0.282586 0.092705 0.471070
O O3 0.275401 0.110215 0.352624
O O4 0.236819 0.028274 0.388031
O O5 0.500000 0.805947 0.060332
O O6 0.737292 0.857275 0.068062
O O7 0.760925 0.772932 0.089028
O O8 0.714500 0.801725 0.974428
O O9 0.233182 0.557184 0.583836
O O10 0.000000 0.605738 0.554229
O O11 0.500000 0.775919 0.896169
O O12 0.758733 0.802236 0.853854
O O13 0.750000 0.153615 0.250000
O O14 0.000000 0.160280 0.187343
O O15 0.500000 0.978434 0.094073
O O16 0.321165 0.000000 0.000000
#
# Coordination Sequence:
#
# PCOD8261494 Si02
#       6
#    16  16  16  16  16  16
#     4   9  18  31  46  65  94 129 163 200 241 289
#     4  10  19  30  48  72 100 130 163 203 250 301
#     4  10  17  28  46  69  98 130 162 195 241 295
#     4  10  20  33  49  70  97 130 166 205 251 299
#     4  11  22  36  52  72  98 131 171 210 250 294
#     4   9  17  27  42  66  95 125 158 194 236 284
#
# _framework density 16.80048
#
# number of rings (size 3 to 8) (size 9 to 14) (size 15 to 20)
#    0.000    2.167    1.667    2.500    0.000    5.333 
#    0.000    0.000    0.000    0.000    0.000    1.167 
#    0.000    2.667    0.000    0.000    0.000    0.000 
#
# Total GULP energy -595321.963358 kJ/mol
# GULP energy per Si atom -12402.540903 kJ/mol
# Density = 1.676224 g / cm^3
# Si number density = 16.800480 Si / 1000 Ang^3
#
#
#
# Elastic Constant Matrix: (Units=GPa)
#
#
# Indices 1 2 3 4 5 6 
#
# 1 81.5898 56.7576 33.2259 0.0000 0.0000 0.0000
# 2 56.7576 142.4567 45.1295 0.0000 0.0000 0.0000
# 3 33.2259 45.1295 62.6212 0.0000 0.0000 0.0000
# 4 0.0000 0.0000 0.0000 18.8795 0.0000 0.0000
# 5 0.0000 0.0000 0.0000 0.0000 20.5899 0.0000
# 6 0.0000 0.0000 0.0000 0.0000 0.0000 37.9130
#
#
#
# Elastic Compliance Matrix: (Units=1/GPa)
#
#
# Indices 1 2 3 4 5 6 
#
# 1 0.018461 -0.005510 -0.005824 0.000000 0.000000 0.000000
# 2 -0.005510 0.010741 -0.004817 0.000000 0.000000 0.000000
# 3 -0.005824 -0.004817 0.022531 0.000000 0.000000 0.000000
# 4 0.000000 0.000000 0.000000 0.052967 0.000000 0.000000
# 5 0.000000 0.000000 0.000000 0.000000 0.048567 0.000000
# 6 0.000000 0.000000 0.000000 0.000000 0.000000 0.026376
#
#
# Mechanical properties :
#
#
# Convention : Reuss Voigt Hill
#
# Bulk Modulus (GPa) = 51.46669 61.87709 56.67189
# Shear Modulus (GPa) = 22.89118 25.58014 24.23566
#
# Velocity S-wave (km/s) = 3.69525 3.90626 3.80222
# Velocity P-wave (km/s) = 6.99336 7.56675 7.28570
#
# Compressibility (1/GPa) = 0.01943004
#
# Stress axis : x y z
#
# Youngs Moduli (GPa) = 54.16684 93.09987 44.38345
#
# Poissons Ratio (x) = 0.51301 0.25850
# Poissons Ratio (y) = 0.29848 0.21380
# Poissons Ratio (z) = 0.31548 0.44848
#
# Static dielectric constant tensor:
#      x y z
#    x 3.230540 0.000000 0.000000 
#    y 0.000000 3.307230 0.000000 
#    z 0.000000 0.000000 2.646870 
# 
# 
# High freq. dielectric constant tensor:
#      x y z
#    x 1.664330 0.000000 0.000000 
#    y 0.000000 1.662650 0.000000 
#    z 0.000000 0.000000 1.585060 
# 
# From -- ./inp_files/36970.got.cif
#   From: 2010.03.12/outbox.cif.g09.slc.cpg/sg64_19_cif.got.tgz:36970.got - 2010.04.10 20:19:32.
