data_PCOD8261059
_publ_section_title
;
Structure prediction by ZEFSAII (Michael W. Deem and Ramdas Pophale) SiO2 
 PCOD8261059
Probable space group: C M C M
;
_chemical_formula_sum "Si O2"
_cell_formula_units_Z 80
_cell_length_a 9.004639
_cell_length_b 19.298814
_cell_length_c 25.695075
_cell_angle_alpha 90.000000
_cell_angle_beta 90.000000
_cell_angle_gamma 90.000000
_cell_volume 4465.260666
_symmetry_space_group_name_H-M "C M C M"
_symmetry_group_IT_number 63
_symmetry_cell_setting 'orthorhombic'
loop_
_space_group_symop_operation_xyz
x,y,z
-x,-y,1/2+z
x,-y,-z
-x,y,1/2-z
-x,-y,-z
x,y,1/2-z
-x,y,z
x,-y,1/2+z
1/2+x,1/2+y,z
1/2-x,1/2-y,1/2+z
1/2+x,1/2-y,-z
1/2-x,1/2+y,1/2-z
1/2-x,1/2-y,-z
1/2+x,1/2+y,1/2-z
1/2-x,1/2+y,z
1/2+x,1/2-y,1/2+z
loop_
_atom_site_type_symbol
_atom_site_label
_atom_site_fract_x
_atom_site_fract_y
_atom_site_fract_z
Si Si1 0.822994 0.799652 0.750000
Si Si2 0.324277 0.951231 0.455666
Si Si3 0.824445 0.703724 0.542901
Si Si4 0.824506 0.546168 0.661435
Si Si5 0.676511 0.541969 0.250000
Si Si6 0.823946 0.703498 0.658523
O O1 0.759618 0.758982 0.699525
O O2 0.000000 0.797771 0.750000
O O3 0.766029 0.878524 0.750000
O O4 0.500000 0.951764 0.460357
O O5 0.266688 0.874046 0.466289
O O6 0.281053 0.975585 0.397514
O O7 0.251775 0.000000 0.500000
O O8 0.750000 0.750000 0.500000
O O9 0.772667 0.726607 0.600805
O O10 0.000000 0.709244 0.537287
O O11 0.736982 0.494832 0.698707
O O12 0.771223 0.625257 0.671915
O O13 0.000000 0.538800 0.671499
O O14 0.500000 0.538667 0.250000
O O15 0.000000 0.702235 0.660334
#
# Coordination Sequence:
#
# PCOD8261059 Si02
#       6
#     8  16  16  16   8  16
#     4   9  17  29  45  65  90 119 150 188 230 267
#     4   8  15  29  49  72  95 120 154 194 232 270
#     4   9  17  29  47  71  95 120 152 188 225 268
#     4   9  17  32  54  71  86 120 165 196 220 268
#     4  11  22  31  43  69 100 121 142 188 248 285
#     4   8  15  30  51  69  85 117 165 196 211 257
#
# _framework density 17.916087999999998
#
# number of rings (size 3 to 8) (size 9 to 14) (size 15 to 20)
#    0.000    3.200    0.000    3.300    0.000    3.200 
#    0.000    4.000    0.000    7.200    0.000    0.000 
#    0.000    0.000    0.000    0.000    0.000    0.000 
#
# Total GULP energy -495738.530842 kJ/mol
# GULP energy per Si atom -12393.463271 kJ/mol
# Density = 1.787531 g / cm^3
# Si number density = 17.916088 Si / 1000 Ang^3
#
#
#
# Elastic Constant Matrix: (Units=GPa)
#
#
# Indices 1 2 3 4 5 6 
#
# 1 27.1940 28.9329 31.5496 0.0000 0.0000 0.0000
# 2 28.9329 139.6268 114.2008 0.0000 0.0000 0.0000
# 3 31.5496 114.2008 181.5462 0.0000 0.0000 0.0000
# 4 0.0000 0.0000 0.0000 42.2245 0.0000 0.0000
# 5 0.0000 0.0000 0.0000 0.0000 24.6626 0.0000
# 6 0.0000 0.0000 0.0000 0.0000 0.0000 19.0388
#
#
#
# Elastic Compliance Matrix: (Units=1/GPa)
#
#
# Indices 1 2 3 4 5 6 
#
# 1 0.048797 -0.006541 -0.004365 0.000000 0.000000 0.000000
# 2 -0.006541 0.015628 -0.008694 0.000000 0.000000 0.000000
# 3 -0.004365 -0.008694 0.011736 0.000000 0.000000 0.000000
# 4 0.000000 0.000000 0.000000 0.023683 0.000000 0.000000
# 5 0.000000 0.000000 0.000000 0.000000 0.040547 0.000000
# 6 0.000000 0.000000 0.000000 0.000000 0.000000 0.052524
#
#
# Mechanical properties :
#
#
# Convention : Reuss Voigt Hill
#
# Bulk Modulus (GPa) = 27.05653 77.52598 52.29126
# Shear Modulus (GPa) = 20.45520 28.76409 24.60964
#
# Velocity S-wave (km/s) = 3.38260 4.01120 3.71024
# Velocity P-wave (km/s) = 5.51277 8.05100 6.89961
#
# Compressibility (1/GPa) = 0.03695965
#
# Stress axis : x y z
#
# Youngs Moduli (GPa) = 20.49322 63.98619 85.20810
#
# Poissons Ratio (x) = 0.41853 0.37198
# Poissons Ratio (y) = 0.13404 0.74082
# Poissons Ratio (z) = 0.08946 0.55631
#
# Static dielectric constant tensor:
#      x y z
#    x 2.763140 0.000000 0.000000 
#    y 0.000000 3.583610 0.000000 
#    z 0.000000 0.000000 3.821200 
# 
# 
# High freq. dielectric constant tensor:
#      x y z
#    x 1.637430 0.000000 0.000000 
#    y 0.000000 1.693750 0.000000 
#    z 0.000000 0.000000 1.711700 
# 
# From -- ./inp_files/52443.got.cif
#   From: 2010.03.12/outbox.cif.g09.slc.cpg/sg63_27_cif.got.tgz:52443.got - 2010.04.10 19:34:48.
