data_PCOD8261344
_publ_section_title
;
Structure prediction by ZEFSAII (Michael W. Deem and Ramdas Pophale) SiO2 
 PCOD8261344
Probable space group: C M C M
;
_chemical_formula_sum "Si O2"
_cell_formula_units_Z 128
_cell_length_a 20.879444
_cell_length_b 22.010783
_cell_length_c 17.842815
_cell_angle_alpha 90.000000
_cell_angle_beta 90.000000
_cell_angle_gamma 90.000000
_cell_volume 8200.074431
_symmetry_space_group_name_H-M "C M C M"
_symmetry_group_IT_number 63
_symmetry_cell_setting 'orthorhombic'
loop_
_space_group_symop_operation_xyz
x,y,z
-x,-y,1/2+z
x,-y,-z
-x,y,1/2-z
-x,-y,-z
x,y,1/2-z
-x,y,z
x,-y,1/2+z
1/2+x,1/2+y,z
1/2-x,1/2-y,1/2+z
1/2+x,1/2-y,-z
1/2-x,1/2+y,1/2-z
1/2-x,1/2-y,-z
1/2+x,1/2+y,1/2-z
1/2-x,1/2+y,z
1/2+x,1/2-y,1/2+z
loop_
_atom_site_type_symbol
_atom_site_label
_atom_site_fract_x
_atom_site_fract_y
_atom_site_fract_z
Si Si1 0.688482 0.251484 0.401331
Si Si2 0.929232 0.818890 0.057129
Si Si3 0.124438 0.132341 0.333013
Si Si4 0.772917 0.632657 0.333205
Si Si5 0.810890 0.314955 0.440990
Si Si6 0.429459 0.251929 0.899647
Si Si7 0.123296 0.932848 0.981338
Si Si8 0.274563 0.932641 0.518652
O O1 0.623256 0.289570 0.387061
O O2 0.689390 0.195989 0.342879
O O3 0.749587 0.295988 0.390636
O O4 0.690313 0.225310 0.484729
O O5 0.911121 0.888294 0.039496
O O6 0.000000 0.816767 0.094269
O O7 0.928732 0.781047 0.981249
O O8 0.111501 0.105097 0.250000
O O9 0.198646 0.148606 0.344659
O O10 0.085956 0.195047 0.340505
O O11 0.103648 0.083158 0.395556
O O12 0.787089 0.606516 0.250000
O O13 0.793742 0.583061 0.395295
O O14 0.876551 0.301683 0.395370
O O15 0.808524 0.386176 0.461447
O O16 0.500000 0.224912 0.881573
O O17 0.198955 0.926872 0.993367
O O18 0.098634 0.000000 0.000000
O O19 0.299537 0.000000 0.500000
#
# Coordination Sequence:
#
# PCOD8261344 Si02
#       8
#    16  16  16  16  16  16  16  16
#     4   9  14  24  42  61  81 107 138 172 216 259
#     4   9  16  25  39  61  85 107 137 179 217 248
#     4   9  16  26  40  60  86 112 141 179 223 268
#     4   9  16  26  43  64  86 111 142 184 226 264
#     4   9  14  24  42  62  82 107 138 175 213 255
#     4   9  16  25  39  61  86 108 132 168 217 266
#     4   9  16  26  40  60  84 117 155 186 215 251
#     4   9  16  26  43  65  86 115 153 184 217 261
#
# _framework density 15.609614000000001
#
# number of rings (size 3 to 8) (size 9 to 14) (size 15 to 20)
#    0.000    3.000    2.500    0.000    0.000    0.500 
#    0.000    0.000    0.000    3.000    0.000    0.000 
#    0.000    0.000    0.000    0.000    0.000    0.000 
#
# Total GULP energy -793192.263700 kJ/mol
# GULP energy per Si atom -12393.629120 kJ/mol
# Density = 1.557409 g / cm^3
# Si number density = 15.609614 Si / 1000 Ang^3
#
#
#
# Elastic Constant Matrix: (Units=GPa)
#
#
# Indices 1 2 3 4 5 6 
#
# 1 80.9200 54.0552 20.1036 0.0000 0.0000 0.0000
# 2 54.0552 109.5873 35.7495 0.0000 0.0000 0.0000
# 3 20.1036 35.7495 54.8847 0.0000 0.0000 0.0000
# 4 0.0000 0.0000 0.0000 13.3932 0.0000 0.0000
# 5 0.0000 0.0000 0.0000 0.0000 9.1930 0.0000
# 6 0.0000 0.0000 0.0000 0.0000 0.0000 16.0754
#
#
#
# Elastic Compliance Matrix: (Units=1/GPa)
#
#
# Indices 1 2 3 4 5 6 
#
# 1 0.018479 -0.008771 -0.001056 0.000000 0.000000 0.000000
# 2 -0.008771 0.015750 -0.007046 0.000000 0.000000 0.000000
# 3 -0.001056 -0.007046 0.023196 0.000000 0.000000 0.000000
# 4 0.000000 0.000000 0.000000 0.074665 0.000000 0.000000
# 5 0.000000 0.000000 0.000000 0.000000 0.108778 0.000000
# 6 0.000000 0.000000 0.000000 0.000000 0.000000 0.062207
#
#
# Mechanical properties :
#
#
# Convention : Reuss Voigt Hill
#
# Bulk Modulus (GPa) = 42.22986 51.68986 46.95986
# Shear Modulus (GPa) = 14.50477 16.76455 15.63466
#
# Velocity S-wave (km/s) = 3.05162 3.28073 3.16825
# Velocity P-wave (km/s) = 6.28721 6.89470 6.59795
#
# Compressibility (1/GPa) = 0.02367992
#
# Stress axis : x y z
#
# Youngs Moduli (GPa) = 54.11547 63.49224 43.11012
#
# Poissons Ratio (x) = 0.55686 0.04552
# Poissons Ratio (y) = 0.47462 0.30377
# Poissons Ratio (z) = 0.05714 0.44738
#
# Static dielectric constant tensor:
#      x y z
#    x 3.141240 0.000000 0.000000 
#    y 0.000000 2.891890 0.000000 
#    z 0.000000 0.000000 2.731050 
# 
# 
# High freq. dielectric constant tensor:
#      x y z
#    x 1.586320 0.000000 0.000000 
#    y 0.000000 1.577380 0.000000 
#    z 0.000000 0.000000 1.564100 
# 
# From -- ./inp_files/47537.got.cif
#   From: 2010.03.12/outbox.cif.g09.slc.cpg/sg63_24_cif.got.tgz:47537.got - 2010.04.10 19:34:48.
