data_PCOD8261459
_publ_section_title
;
Structure prediction by ZEFSAII (Michael W. Deem and Ramdas Pophale) SiO2 
 PCOD8261459
Probable space group: C M C A
;
_chemical_formula_sum "Si O2"
_cell_formula_units_Z 96
_cell_length_a 8.850793
_cell_length_b 20.562256
_cell_length_c 29.839963
_cell_angle_alpha 90.000000
_cell_angle_beta 90.000000
_cell_angle_gamma 90.000000
_cell_volume 5430.642647
_symmetry_space_group_name_H-M "C M C A"
_symmetry_group_IT_number 64
_symmetry_cell_setting 'orthorhombic'
loop_
_space_group_symop_operation_xyz
x,y,z
-x,1/2-y,1/2+z
x,-y,-z
-x,1/2+y,1/2-z
-x,-y,-z
x,1/2+y,1/2-z
-x,y,z
x,1/2-y,1/2+z
1/2+x,1/2+y,z
1/2-x,-y,1/2+z
1/2+x,1/2-y,-z
1/2-x,y,1/2-z
1/2-x,1/2-y,-z
1/2+x,y,1/2-z
1/2-x,1/2+y,z
1/2+x,-y,1/2+z
loop_
_atom_site_type_symbol
_atom_site_label
_atom_site_fract_x
_atom_site_fract_y
_atom_site_fract_z
Si Si1 0.678655 0.992310 0.705927
Si Si2 0.323475 0.060819 0.469683
Si Si3 0.177602 0.488350 0.883868
Si Si4 0.174012 0.637904 0.891364
Si Si5 0.176419 0.866875 0.292370
Si Si6 0.677159 0.311440 0.023267
O O1 0.500000 0.986317 0.707568
O O2 0.750000 0.957471 0.750000
O O3 0.741269 0.959882 0.660450
O O4 0.731694 0.066556 0.705594
O O5 0.500000 0.060354 0.457783
O O6 0.273302 0.125238 0.495626
O O7 0.278266 0.000000 0.500000
O O8 0.227959 0.057748 0.424292
O O9 0.228336 0.562820 0.893341
O O10 0.000000 0.484765 0.876124
O O11 0.197587 0.667201 0.840930
O O12 0.269662 0.681520 0.925410
O O13 0.000000 0.642578 0.905670
O O14 0.250000 0.826885 0.250000
O O15 0.000000 0.880837 0.283614
O O16 0.500000 0.301949 0.023332
O O17 0.750000 0.250000 0.000000
#
# Coordination Sequence:
#
# PCOD8261459 Si02
#       6
#    16  16  16  16  16  16
#     4  10  17  26  41  63  97 134 167 206 252 305
#     4  10  20  35  53  76 102 131 172 213 255 303
#     4  10  19  30  48  74 101 132 169 211 257 306
#     4   9  18  31  47  70 101 133 169 208 253 302
#     4   9  16  26  41  66  97 130 165 206 251 303
#     4  11  23  37  54  74 102 137 173 215 259 309
#
# _framework density 17.677465999999999
#
# number of rings (size 3 to 8) (size 9 to 14) (size 15 to 20)
#    0.000    2.167    1.667    5.000    0.000    5.000 
#    0.000    0.000    0.000    0.000    0.000    1.167 
#    0.000    5.333    0.000    0.000    0.000    0.000 
#
# Total GULP energy -595005.241716 kJ/mol
# GULP energy per Si atom -12395.942536 kJ/mol
# Density = 1.763723 g / cm^3
# Si number density = 17.677466 Si / 1000 Ang^3
#
#
#
# Elastic Constant Matrix: (Units=GPa)
#
#
# Indices 1 2 3 4 5 6 
#
# 1 101.7853 30.3889 71.0269 0.0000 0.0000 0.0000
# 2 30.3889 62.7301 43.7390 0.0000 0.0000 0.0000
# 3 71.0269 43.7390 168.9795 0.0000 0.0000 0.0000
# 4 0.0000 0.0000 0.0000 14.1770 0.0000 0.0000
# 5 0.0000 0.0000 0.0000 0.0000 39.2416 0.0000
# 6 0.0000 0.0000 0.0000 0.0000 0.0000 18.4080
#
#
#
# Elastic Compliance Matrix: (Units=1/GPa)
#
#
# Indices 1 2 3 4 5 6 
#
# 1 0.014466 -0.003378 -0.005206 0.000000 0.000000 0.000000
# 2 -0.003378 0.020241 -0.003819 0.000000 0.000000 0.000000
# 3 -0.005206 -0.003819 0.009095 0.000000 0.000000 0.000000
# 4 0.000000 0.000000 0.000000 0.070537 0.000000 0.000000
# 5 0.000000 0.000000 0.000000 0.000000 0.025483 0.000000
# 6 0.000000 0.000000 0.000000 0.000000 0.000000 0.054324
#
#
# Mechanical properties :
#
#
# Convention : Reuss Voigt Hill
#
# Bulk Modulus (GPa) = 52.64595 69.31161 60.97878
# Shear Modulus (GPa) = 22.19419 26.92132 24.55776
#
# Velocity S-wave (km/s) = 3.54716 3.90669 3.73126
# Velocity P-wave (km/s) = 6.82807 7.72294 7.28925
#
# Compressibility (1/GPa) = 0.01899481
#
# Stress axis : x y z
#
# Youngs Moduli (GPa) = 69.12761 49.40535 109.95327
#
# Poissons Ratio (x) = 0.16688 0.57243
# Poissons Ratio (y) = 0.23350 0.41995
# Poissons Ratio (z) = 0.35989 0.18870
#
# Static dielectric constant tensor:
#      x y z
#    x 3.312580 0.000000 0.000000 
#    y 0.000000 2.743750 0.000000 
#    z 0.000000 0.000000 4.207340 
# 
# 
# High freq. dielectric constant tensor:
#      x y z
#    x 1.695170 0.000000 0.000000 
#    y 0.000000 1.606680 0.000000 
#    z 0.000000 0.000000 1.712620 
# 
# From -- ./inp_files/48055.got.cif
#   From: 2010.03.12/outbox.cif.g09.slc.cpg/sg64_25_cif.got.tgz:48055.got - 2010.04.10 20:19:32.
