data_PCOD8261611
_publ_section_title
;
Structure prediction by ZEFSAII (Michael W. Deem and Ramdas Pophale) SiO2 
 PCOD8261611
Probable space group: C M C A
;
_chemical_formula_sum "Si O2"
_cell_formula_units_Z 96
_cell_length_a 9.643340
_cell_length_b 27.840577
_cell_length_c 21.276214
_cell_angle_alpha 90.000000
_cell_angle_beta 90.000000
_cell_angle_gamma 90.000000
_cell_volume 5712.156017
_symmetry_space_group_name_H-M "C M C A"
_symmetry_group_IT_number 64
_symmetry_cell_setting 'orthorhombic'
loop_
_space_group_symop_operation_xyz
x,y,z
-x,1/2-y,1/2+z
x,-y,-z
-x,1/2+y,1/2-z
-x,-y,-z
x,1/2+y,1/2-z
-x,y,z
x,1/2-y,1/2+z
1/2+x,1/2+y,z
1/2-x,-y,1/2+z
1/2+x,1/2-y,-z
1/2-x,y,1/2-z
1/2-x,1/2-y,-z
1/2+x,y,1/2-z
1/2-x,1/2+y,z
1/2+x,-y,1/2+z
loop_
_atom_site_type_symbol
_atom_site_label
_atom_site_fract_x
_atom_site_fract_y
_atom_site_fract_z
Si Si1 0.848589 0.485877 0.072882
Si Si2 0.649924 0.135484 0.300382
Si Si3 0.162883 0.743918 0.310222
Si Si4 0.154047 0.932450 0.917046
Si Si5 0.159344 0.888538 0.477487
Si Si6 0.162926 0.279396 0.052203
O O1 0.729950 0.518219 0.104849
O O2 0.817732 0.428544 0.077750
O O3 0.000000 0.497271 0.102624
O O4 0.848522 0.500000 0.000000
O O5 0.500000 0.140832 0.268289
O O6 0.750000 0.111252 0.250000
O O7 0.702191 0.188194 0.320084
O O8 0.640344 0.101113 0.358312
O O9 0.250000 0.764326 0.250000
O O10 0.208648 0.767455 0.376434
O O11 0.000000 0.752977 0.297423
O O12 0.000000 0.944954 0.943055
O O13 0.239448 0.901423 0.966229
O O14 0.195863 0.835781 0.453492
O O15 0.000000 0.891373 0.501166
O O16 0.000000 0.267851 0.041808
O O17 0.250000 0.250000 0.000000
#
# Coordination Sequence:
#
# PCOD8261611 Si02
#       6
#    16  16  16  16  16  16
#     4   8  15  28  44  63  88 119 152 179 213 272
#     4   9  18  30  44  64  89 116 147 184 227 274
#     4   9  18  33  50  68  93 125 159 194 233 281
#     4  10  18  28  45  69  94 117 146 189 235 272
#     4   9  18  31  46  66  93 125 155 182 222 278
#     4  10  20  33  50  73 100 127 158 199 243 283
#
# _framework density 16.806263999999999
#
# number of rings (size 3 to 8) (size 9 to 14) (size 15 to 20)
#    0.000    2.833    0.000    2.500    0.000    7.000 
#    0.000    3.333    0.000    1.000    0.000    4.667 
#    0.000    0.000    0.000    0.000    0.000    0.000 
#
# Total GULP energy -594715.272396 kJ/mol
# GULP energy per Si atom -12389.901508 kJ/mol
# Density = 1.676801 g / cm^3
# Si number density = 16.806264 Si / 1000 Ang^3
#
#
#
# Elastic Constant Matrix: (Units=GPa)
#
#
# Indices 1 2 3 4 5 6 
#
# 1 102.7291 54.0881 52.7473 0.0000 0.0000 0.0000
# 2 54.0881 111.8882 39.8412 0.0000 0.0000 0.0000
# 3 52.7473 39.8412 82.2122 0.0000 0.0000 0.0000
# 4 0.0000 0.0000 0.0000 14.7178 0.0000 0.0000
# 5 0.0000 0.0000 0.0000 0.0000 25.8004 0.0000
# 6 0.0000 0.0000 0.0000 0.0000 0.0000 23.5414
#
#
#
# Elastic Compliance Matrix: (Units=1/GPa)
#
#
# Indices 1 2 3 4 5 6 
#
# 1 0.016640 -0.005127 -0.008191 0.000000 0.000000 0.000000
# 2 -0.005127 0.012381 -0.002711 0.000000 0.000000 0.000000
# 3 -0.008191 -0.002711 0.018733 0.000000 0.000000 0.000000
# 4 0.000000 0.000000 0.000000 0.067945 0.000000 0.000000
# 5 0.000000 0.000000 0.000000 0.000000 0.038759 0.000000
# 6 0.000000 0.000000 0.000000 0.000000 0.000000 0.042478
#
#
# Mechanical properties :
#
#
# Convention : Reuss Voigt Hill
#
# Bulk Modulus (GPa) = 63.71187 65.57588 64.64387
# Shear Modulus (GPa) = 21.34691 22.82213 22.08452
#
# Velocity S-wave (km/s) = 3.56782 3.68904 3.62894
# Velocity P-wave (km/s) = 7.41379 7.56629 7.49043
#
# Compressibility (1/GPa) = 0.01569566
#
# Stress axis : x y z
#
# Youngs Moduli (GPa) = 60.09703 80.76793 53.38221
#
# Poissons Ratio (x) = 0.41410 0.43728
# Poissons Ratio (y) = 0.30812 0.14470
# Poissons Ratio (z) = 0.49228 0.21893
#
# Static dielectric constant tensor:
#      x y z
#    x 3.253340 0.000000 0.000000 
#    y 0.000000 3.469230 0.000000 
#    z 0.000000 0.000000 2.886520 
# 
# 
# High freq. dielectric constant tensor:
#      x y z
#    x 1.657520 0.000000 0.000000 
#    y 0.000000 1.651440 0.000000 
#    z 0.000000 0.000000 1.608900 
# 
# From -- ./inp_files/36978.got.cif
#   From: 2010.03.12/outbox.cif.g09.slc.cpg/sg64_19_cif.got.tgz:36978.got - 2010.04.10 20:19:32.
