data_PCOD8261922
_publ_section_title
;
Structure prediction by ZEFSAII (Michael W. Deem and Ramdas Pophale) SiO2 
 PCOD8261922
Probable space group: C M C A
;
_chemical_formula_sum "Si O2"
_cell_formula_units_Z 96
_cell_length_a 22.992147
_cell_length_b 11.326739
_cell_length_c 18.810230
_cell_angle_alpha 90.000000
_cell_angle_beta 90.000000
_cell_angle_gamma 90.000000
_cell_volume 4898.673863
_symmetry_space_group_name_H-M "C M C A"
_symmetry_group_IT_number 64
_symmetry_cell_setting 'orthorhombic'
loop_
_space_group_symop_operation_xyz
x,y,z
-x,1/2-y,1/2+z
x,-y,-z
-x,1/2+y,1/2-z
-x,-y,-z
x,1/2+y,1/2-z
-x,y,z
x,1/2-y,1/2+z
1/2+x,1/2+y,z
1/2-x,-y,1/2+z
1/2+x,1/2-y,-z
1/2-x,y,1/2-z
1/2-x,1/2-y,-z
1/2+x,y,1/2-z
1/2-x,1/2+y,z
1/2+x,-y,1/2+z
loop_
_atom_site_type_symbol
_atom_site_label
_atom_site_fract_x
_atom_site_fract_y
_atom_site_fract_z
Si Si1 0.065689 0.205020 0.373701
Si Si2 0.142071 0.400660 0.317348
Si Si3 0.436309 0.613406 0.215192
Si Si4 0.736617 0.416158 0.833070
Si Si5 0.152884 0.787773 0.329578
Si Si6 0.346641 0.481004 0.580511
O O1 0.107298 0.321459 0.375422
O O2 0.060138 0.164207 0.293450
O O3 0.095791 0.100734 0.418972
O O4 0.000000 0.230416 0.403368
O O5 0.097168 0.490746 0.281421
O O6 0.195184 0.472300 0.354148
O O7 0.166528 0.324230 0.251772
O O8 0.500000 0.591384 0.183149
O O9 0.404722 0.707931 0.165051
O O10 0.750000 0.426133 0.750000
O O11 0.707386 0.291847 0.853404
O O12 0.795606 0.415929 0.877127
O O13 0.141749 0.893856 0.383038
O O14 0.326901 0.500000 0.500000
#
# Coordination Sequence:
#
# PCOD8261922 Si02
#       6
#    16  16  16  16  16  16
#     4  10  21  37  58  86 119 157 197 242 301 359
#     4  10  18  35  61  92 119 148 195 250 305 351
#     4   9  17  32  60  91 117 146 192 254 302 343
#     4  11  22  37  62  88 119 155 198 253 307 357
#     4  10  21  36  55  87 118 154 195 245 305 359
#     4  12  26  41  58  87 121 164 204 247 306 371
#
# _framework density 19.597141000000001
#
# number of rings (size 3 to 8) (size 9 to 14) (size 15 to 20)
#    0.000    1.667    3.333    2.500    4.667    2.333 
#    0.000    0.000    0.000    0.000    0.000    3.500 
#    0.000    0.000    0.000    0.000    0.000    0.000 
#
# Total GULP energy -595155.516704 kJ/mol
# GULP energy per Si atom -12399.073265 kJ/mol
# Density = 1.955254 g / cm^3
# Si number density = 19.597141 Si / 1000 Ang^3
#
#
#
# Elastic Constant Matrix: (Units=GPa)
#
#
# Indices 1 2 3 4 5 6 
#
# 1 100.8298 28.0952 12.4351 0.0000 0.0000 0.0000
# 2 28.0952 97.0245 4.2732 0.0000 0.0000 0.0000
# 3 12.4351 4.2732 49.2924 0.0000 0.0000 0.0000
# 4 0.0000 0.0000 0.0000 -0.5163 0.0000 0.0000
# 5 0.0000 0.0000 0.0000 0.0000 14.1009 0.0000
# 6 0.0000 0.0000 0.0000 0.0000 0.0000 25.8889
#
#
#
# Elastic Compliance Matrix: (Units=1/GPa)
#
#
# Indices 1 2 3 4 5 6 
#
# 1 0.011094 -0.003101 -0.002530 0.000000 0.000000 0.000000
# 2 -0.003101 0.011213 -0.000190 0.000000 0.000000 0.000000
# 3 -0.002530 -0.000190 0.020942 0.000000 0.000000 0.000000
# 4 0.000000 0.000000 0.000000 -1.936952 0.000000 0.000000
# 5 0.000000 0.000000 0.000000 0.000000 0.070918 0.000000
# 6 0.000000 0.000000 0.000000 0.000000 0.000000 0.038627
#
#
# Mechanical properties :
#
#
# Convention : Reuss Voigt Hill
#
# Bulk Modulus (GPa) = 31.63820 37.41707 34.52764
# Shear Modulus (GPa) = -2.83771 21.38425 9.27327
#
# Velocity S-wave (km/s) = -1.20464 3.30690 2.17766
# Velocity P-wave (km/s) = 3.77418 5.80650 4.89693
#
# Compressibility (1/GPa) = 0.03160736
#
# Stress axis : x y z
#
# Youngs Moduli (GPa) = 90.14084 89.18236 47.75147
#
# Poissons Ratio (x) = 0.27655 0.12080
# Poissons Ratio (y) = 0.27952 0.00906
# Poissons Ratio (z) = 0.22804 0.01692
#
# Static dielectric constant tensor:
#      x y z
#    x 4.038980 0.000000 0.000000 
#    y 0.000000 3.879320 0.000000 
#    z 0.000000 0.000000 2.987530 
# 
# 
# High freq. dielectric constant tensor:
#      x y z
#    x 1.780000 0.000000 0.000000 
#    y 0.000000 1.782990 0.000000 
#    z 0.000000 0.000000 1.697370 
# 
# From -- ./inp_files/34913.got.cif
#   From: 2010.03.12/outbox.cif.g09.slc.cpg/sg64_18_cif.got.tgz:34913.got - 2010.04.10 20:19:32.
