data_PCOD8261594
_publ_section_title
;
Structure prediction by ZEFSAII (Michael W. Deem and Ramdas Pophale) SiO2 
 PCOD8261594
Probable space group: C M C A
;
_chemical_formula_sum "Si O2"
_cell_formula_units_Z 96
_cell_length_a 27.313848
_cell_length_b 8.986261
_cell_length_c 21.636107
_cell_angle_alpha 90.000000
_cell_angle_beta 90.000000
_cell_angle_gamma 90.000000
_cell_volume 5310.568768
_symmetry_space_group_name_H-M "C M C A"
_symmetry_group_IT_number 64
_symmetry_cell_setting 'orthorhombic'
loop_
_space_group_symop_operation_xyz
x,y,z
-x,1/2-y,1/2+z
x,-y,-z
-x,1/2+y,1/2-z
-x,-y,-z
x,1/2+y,1/2-z
-x,y,z
x,1/2-y,1/2+z
1/2+x,1/2+y,z
1/2-x,-y,1/2+z
1/2+x,1/2-y,-z
1/2-x,y,1/2-z
1/2-x,1/2-y,-z
1/2+x,y,1/2-z
1/2-x,1/2+y,z
1/2+x,-y,1/2+z
loop_
_atom_site_type_symbol
_atom_site_label
_atom_site_fract_x
_atom_site_fract_y
_atom_site_fract_z
Si Si1 0.000000 0.776365 0.026059
Si Si2 0.102599 0.849339 0.876608
Si Si3 0.000000 0.446942 0.603182
Si Si4 0.280815 0.639717 0.822649
Si Si5 0.601554 0.834363 0.005212
Si Si6 0.834104 0.408163 0.443520
Si Si7 0.811604 0.187617 0.213283
O O1 0.048328 0.675096 0.026816
O O2 0.000000 0.877154 0.088168
O O3 0.000000 0.872476 0.963939
O O4 0.047609 0.897576 0.857173
O O5 0.134476 0.804689 0.816786
O O6 0.125104 0.990207 0.911610
O O7 0.099937 0.710280 0.922825
O O8 0.293021 0.640143 0.894958
O O9 0.224377 0.690605 0.818367
O O10 0.288637 0.476201 0.793522
O O11 0.314498 0.760221 0.785087
O O12 0.640285 0.737730 0.968202
O O13 0.621288 0.000000 0.000000
O O14 0.809352 0.500000 0.500000
#
# Coordination Sequence:
#
# PCOD8261594 Si02
#       7
#     8  16   8  16  16  16  16
#     4   9  15  26  46  73 101 134 178 209 250 305
#     4   9  18  32  51  74 101 138 177 209 258 317
#     4   9  14  28  54  71  95 142 175 207 247 312
#     4  10  20  35  56  76 101 138 178 228 270 317
#     4  10  18  27  45  76 109 137 168 219 266 304
#     4   9  18  34  51  75 106 141 181 217 263 334
#     4  10  20  35  55  78 100 132 180 223 263 323
#
# _framework density 18.077161
#
# number of rings (size 3 to 8) (size 9 to 14) (size 15 to 20)
#    0.000    2.500    1.667    2.250    0.000    2.667 
#    0.000    8.333    0.000    5.000    0.000    0.000 
#    0.000    0.000    0.000    0.000    0.000    0.000 
#
# Total GULP energy -594927.153497 kJ/mol
# GULP energy per Si atom -12394.315698 kJ/mol
# Density = 1.803602 g / cm^3
# Si number density = 18.077161 Si / 1000 Ang^3
#
#
#
# Elastic Constant Matrix: (Units=GPa)
#
#
# Indices 1 2 3 4 5 6 
#
# 1 97.3144 24.5978 49.4759 0.0000 0.0000 0.0000
# 2 24.5978 99.1860 30.0547 0.0000 0.0000 0.0000
# 3 49.4759 30.0547 95.1849 0.0000 0.0000 0.0000
# 4 0.0000 0.0000 0.0000 19.7126 0.0000 0.0000
# 5 0.0000 0.0000 0.0000 0.0000 26.8530 0.0000
# 6 0.0000 0.0000 0.0000 0.0000 0.0000 14.9149
#
#
#
# Elastic Compliance Matrix: (Units=1/GPa)
#
#
# Indices 1 2 3 4 5 6 
#
# 1 0.014144 -0.001415 -0.006905 0.000000 0.000000 0.000000
# 2 -0.001415 0.011290 -0.002829 0.000000 0.000000 0.000000
# 3 -0.006905 -0.002829 0.014988 0.000000 0.000000 0.000000
# 4 0.000000 0.000000 0.000000 0.050729 0.000000 0.000000
# 5 0.000000 0.000000 0.000000 0.000000 0.037240 0.000000
# 6 0.000000 0.000000 0.000000 0.000000 0.000000 0.067047
#
#
# Mechanical properties :
#
#
# Convention : Reuss Voigt Hill
#
# Bulk Modulus (GPa) = 55.17672 55.54913 55.36292
# Shear Modulus (GPa) = 22.34338 24.79990 23.57164
#
# Velocity S-wave (km/s) = 3.51949 3.70792 3.61494
# Velocity P-wave (km/s) = 6.86330 7.00908 6.93657
#
# Compressibility (1/GPa) = 0.01812359
#
# Stress axis : x y z
#
# Youngs Moduli (GPa) = 70.69925 88.57099 66.71822
#
# Poissons Ratio (x) = 0.12536 0.46070
# Poissons Ratio (y) = 0.10007 0.18876
# Poissons Ratio (z) = 0.48819 0.25059
#
# Static dielectric constant tensor:
#      x y z
#    x 3.321130 0.000000 0.000000 
#    y 0.000000 3.357120 0.000000 
#    z 0.000000 0.000000 3.276010 
# 
# 
# High freq. dielectric constant tensor:
#      x y z
#    x 1.690040 0.000000 0.000000 
#    y 0.000000 1.703880 0.000000 
#    z 0.000000 0.000000 1.671610 
# 
# From -- ./inp_files/46863.got.cif
#   From: 2010.03.12/outbox.cif.g09.slc.cpg/sg64_24_cif.got.tgz:46863.got - 2010.04.10 20:19:32.
