data_PCOD8261398
_publ_section_title
;
Structure prediction by ZEFSAII (Michael W. Deem and Ramdas Pophale) SiO2 
 PCOD8261398
Probable space group: C M C A
;
_chemical_formula_sum "Si O2"
_cell_formula_units_Z 112
_cell_length_a 17.869460
_cell_length_b 18.970691
_cell_length_c 18.495834
_cell_angle_alpha 90.000000
_cell_angle_beta 90.000000
_cell_angle_gamma 90.000000
_cell_volume 6270.013817
_symmetry_space_group_name_H-M "C M C A"
_symmetry_group_IT_number 64
_symmetry_cell_setting 'orthorhombic'
loop_
_space_group_symop_operation_xyz
x,y,z
-x,1/2-y,1/2+z
x,-y,-z
-x,1/2+y,1/2-z
-x,-y,-z
x,1/2+y,1/2-z
-x,y,z
x,1/2-y,1/2+z
1/2+x,1/2+y,z
1/2-x,-y,1/2+z
1/2+x,1/2-y,-z
1/2-x,y,1/2-z
1/2-x,1/2-y,-z
1/2+x,y,1/2-z
1/2-x,1/2+y,z
1/2+x,-y,1/2+z
loop_
_atom_site_type_symbol
_atom_site_label
_atom_site_fract_x
_atom_site_fract_y
_atom_site_fract_z
Si Si1 0.195452 0.025624 0.683152
Si Si2 0.913390 0.888376 0.241628
Si Si3 0.085714 0.608444 0.374283
Si Si4 0.413503 0.249391 0.654136
Si Si5 0.841109 0.535558 0.608722
Si Si6 0.085491 0.652911 0.525150
Si Si7 0.334403 0.127140 0.226779
O O1 0.250000 0.034060 0.750000
O O2 0.133237 0.088320 0.686480
O O3 0.249976 0.035613 0.614299
O O4 0.156329 0.948758 0.688158
O O5 0.897380 0.808656 0.216410
O O6 0.885990 0.941356 0.179994
O O7 0.000000 0.900061 0.258506
O O8 0.133725 0.543890 0.404759
O O9 0.092579 0.667532 0.438758
O O10 0.115525 0.636890 0.298353
O O11 0.000000 0.585953 0.363829
O O12 0.500000 0.272618 0.656074
O O13 0.391280 0.219712 0.574532
O O14 0.360924 0.315945 0.668236
O O15 0.862604 0.585935 0.542919
O O16 0.000000 0.633150 0.546252
O O17 0.250000 0.141914 0.250000
#
# Coordination Sequence:
#
# PCOD8261398 Si02
#       7
#    16  16  16  16  16  16  16
#     4   9  17  29  45  68 100 131 163 206 247 301
#     4   9  16  28  47  71  97 127 168 212 253 299
#     4  11  19  30  51  77 103 131 165 209 263 310
#     4   9  19  33  48  69 100 136 173 210 254 303
#     4  10  16  28  47  72 105 132 155 195 260 314
#     4   9  19  32  49  77 105 130 163 209 259 316
#     4  11  20  33  48  72 103 137 171 210 246 303
#
# _framework density 17.8628
#
# number of rings (size 3 to 8) (size 9 to 14) (size 15 to 20)
#    0.000    2.286    4.286    3.000    0.000    4.571 
#    0.000    0.714    0.000    0.000    0.000    0.000 
#    0.000    3.429    0.000    0.571    0.000    0.000 
#
# Total GULP energy -693947.175259 kJ/mol
# GULP energy per Si atom -12391.913844 kJ/mol
# Density = 1.782214 g / cm^3
# Si number density = 17.862800 Si / 1000 Ang^3
#
#
#
# Elastic Constant Matrix: (Units=GPa)
#
#
# Indices 1 2 3 4 5 6 
#
# 1 59.0608 10.9546 10.8353 0.0000 0.0000 0.0000
# 2 10.9546 41.6690 4.3385 0.0000 0.0000 0.0000
# 3 10.8353 4.3385 52.4388 0.0000 0.0000 0.0000
# 4 0.0000 0.0000 0.0000 12.4084 0.0000 0.0000
# 5 0.0000 0.0000 0.0000 0.0000 20.3723 0.0000
# 6 0.0000 0.0000 0.0000 0.0000 0.0000 19.8846
#
#
#
# Elastic Compliance Matrix: (Units=1/GPa)
#
#
# Indices 1 2 3 4 5 6 
#
# 1 0.018391 -0.004478 -0.003430 0.000000 0.000000 0.000000
# 2 -0.004478 0.025297 -0.001168 0.000000 0.000000 0.000000
# 3 -0.003430 -0.001168 0.019875 0.000000 0.000000 0.000000
# 4 0.000000 0.000000 0.000000 0.080591 0.000000 0.000000
# 5 0.000000 0.000000 0.000000 0.000000 0.049086 0.000000
# 6 0.000000 0.000000 0.000000 0.000000 0.000000 0.050290
#
#
# Mechanical properties :
#
#
# Convention : Reuss Voigt Hill
#
# Bulk Modulus (GPa) = 22.01995 22.82505 22.42250
# Shear Modulus (GPa) = 18.06230 19.00242 18.53236
#
# Velocity S-wave (km/s) = 3.18334 3.26513 3.22449
# Velocity P-wave (km/s) = 5.08582 5.19812 5.14228
#
# Compressibility (1/GPa) = 0.04541337
#
# Stress axis : x y z
#
# Youngs Moduli (GPa) = 54.37300 39.52967 50.31412
#
# Poissons Ratio (x) = 0.17701 0.17256
# Poissons Ratio (y) = 0.24348 0.05875
# Poissons Ratio (z) = 0.18648 0.04616
#
# Static dielectric constant tensor:
#      x y z
#    x 3.880030 0.000000 0.000000 
#    y 0.000000 3.156980 0.000000 
#    z 0.000000 0.000000 3.285200 
# 
# 
# High freq. dielectric constant tensor:
#      x y z
#    x 1.690630 0.000000 0.000000 
#    y 0.000000 1.670650 0.000000 
#    z 0.000000 0.000000 1.661780 
# 
# From -- ./inp_files/33583.got.cif
#   From: 2010.03.12/outbox.cif.g09.slc.cpg/sg64_17_cif.got.tgz:33583.got - 2010.04.10 20:19:32.
