data_PCOD8261541
_publ_section_title
;
Structure prediction by ZEFSAII (Michael W. Deem and Ramdas Pophale) SiO2 
 PCOD8261541
Probable space group: C M C A
;
_chemical_formula_sum "Si O2"
_cell_formula_units_Z 88
_cell_length_a 20.640044
_cell_length_b 18.325200
_cell_length_c 13.328858
_cell_angle_alpha 90.000000
_cell_angle_beta 90.000000
_cell_angle_gamma 90.000000
_cell_volume 5041.413072
_symmetry_space_group_name_H-M "C M C A"
_symmetry_group_IT_number 64
_symmetry_cell_setting 'orthorhombic'
loop_
_space_group_symop_operation_xyz
x,y,z
-x,1/2-y,1/2+z
x,-y,-z
-x,1/2+y,1/2-z
-x,-y,-z
x,1/2+y,1/2-z
-x,y,z
x,1/2-y,1/2+z
1/2+x,1/2+y,z
1/2-x,-y,1/2+z
1/2+x,1/2-y,-z
1/2-x,y,1/2-z
1/2-x,1/2-y,-z
1/2+x,y,1/2-z
1/2-x,1/2+y,z
1/2+x,-y,1/2+z
loop_
_atom_site_type_symbol
_atom_site_label
_atom_site_fract_x
_atom_site_fract_y
_atom_site_fract_z
Si Si1 0.575753 0.662113 0.127339
Si Si2 0.927185 0.615688 0.588281
Si Si3 0.245086 0.000000 0.000000
Si Si4 0.925068 0.681691 0.795028
Si Si5 0.693150 0.921952 0.177134
Si Si6 0.850911 0.524375 0.337182
O O1 0.500000 0.656151 0.141783
O O2 0.599350 0.738756 0.172000
O O3 0.606116 0.594644 0.188038
O O4 0.598012 0.655481 0.011716
O O5 0.922346 0.676357 0.674857
O O6 0.888011 0.543114 0.611714
O O7 0.000000 0.588321 0.572399
O O8 0.204105 0.045619 0.082245
O O9 0.285000 0.939544 0.063515
O O10 0.871753 0.625748 0.837663
O O11 0.000000 0.665231 0.831684
O O12 0.750000 0.885982 0.250000
O O13 0.676282 0.998684 0.230457
#
# Coordination Sequence:
#
# PCOD8261541 Si02
#       6
#    16  16   8  16  16  16
#     4  10  18  30  52  82 104 126 166 216 260 305
#     4   9  16  29  52  76  99 132 164 205 259 304
#     4  10  18  34  52  72  98 134 174 210 250 300
#     4   9  19  35  52  73 107 139 167 203 256 310
#     4   9  20  36  55  74 102 138 172 209 253 305
#     4  10  17  31  55  76 100 125 169 217 259 293
#
# _framework density 17.455423
#
# number of rings (size 3 to 8) (size 9 to 14) (size 15 to 20)
#    0.000    2.545    1.818    0.545    0.000    2.182 
#    3.273    4.091    0.000    0.000    0.000    0.000 
#    0.000    0.000    0.000    0.000    0.000    0.000 
#
# Total GULP energy -545133.890602 kJ/mol
# GULP energy per Si atom -12389.406605 kJ/mol
# Density = 1.741569 g / cm^3
# Si number density = 17.455423 Si / 1000 Ang^3
#
#
#
# Elastic Constant Matrix: (Units=GPa)
#
#
# Indices 1 2 3 4 5 6 
#
# 1 70.0093 53.1206 33.9068 0.0000 0.0000 0.0000
# 2 53.1206 105.6681 52.6214 0.0000 0.0000 0.0000
# 3 33.9068 52.6214 71.8421 0.0000 0.0000 0.0000
# 4 0.0000 0.0000 0.0000 25.8397 0.0000 0.0000
# 5 0.0000 0.0000 0.0000 0.0000 20.3158 0.0000
# 6 0.0000 0.0000 0.0000 0.0000 0.0000 24.5993
#
#
#
# Elastic Compliance Matrix: (Units=1/GPa)
#
#
# Indices 1 2 3 4 5 6 
#
# 1 0.023760 -0.010012 -0.003880 0.000000 0.000000 0.000000
# 2 -0.010012 0.019116 -0.009277 0.000000 0.000000 0.000000
# 3 -0.003880 -0.009277 0.022546 0.000000 0.000000 0.000000
# 4 0.000000 0.000000 0.000000 0.038700 0.000000 0.000000
# 5 0.000000 0.000000 0.000000 0.000000 0.049223 0.000000
# 6 0.000000 0.000000 0.000000 0.000000 0.000000 0.040652
#
#
# Mechanical properties :
#
#
# Convention : Reuss Voigt Hill
#
# Bulk Modulus (GPa) = 52.40067 58.53524 55.46795
# Shear Modulus (GPa) = 20.26787 21.34234 20.80511
#
# Velocity S-wave (km/s) = 3.41122 3.50047 3.45613
# Velocity P-wave (km/s) = 6.75279 7.06715 6.91176
#
# Compressibility (1/GPa) = 0.01908373
#
# Stress axis : x y z
#
# Youngs Moduli (GPa) = 42.08774 52.31105 44.35443
#
# Poissons Ratio (x) = 0.52374 0.17211
# Poissons Ratio (y) = 0.42138 0.41146
# Poissons Ratio (z) = 0.16332 0.48528
#
# Static dielectric constant tensor:
#      x y z
#    x 3.482500 0.000000 0.000000 
#    y 0.000000 3.114040 0.000000 
#    z 0.000000 0.000000 3.341460 
# 
# 
# High freq. dielectric constant tensor:
#      x y z
#    x 1.683420 0.000000 0.000000 
#    y 0.000000 1.647390 0.000000 
#    z 0.000000 0.000000 1.668310 
# 
# From -- ./inp_files/27502.got.cif
#   From: 2010.03.12/outbox.cif.g09.slc.cpg/sg64_14_cif.got.tgz:27502.got - 2010.04.10 20:19:32.
