data_PCOD8261649
_publ_section_title
;
Structure prediction by ZEFSAII (Michael W. Deem and Ramdas Pophale) SiO2 
 PCOD8261649
Probable space group: C M C A
;
_chemical_formula_sum "Si O2"
_cell_formula_units_Z 80
_cell_length_a 9.139382
_cell_length_b 22.893798
_cell_length_c 21.013292
_cell_angle_alpha 90.000000
_cell_angle_beta 90.000000
_cell_angle_gamma 90.000000
_cell_volume 4396.719626
_symmetry_space_group_name_H-M "C M C A"
_symmetry_group_IT_number 64
_symmetry_cell_setting 'orthorhombic'
loop_
_space_group_symop_operation_xyz
x,y,z
-x,1/2-y,1/2+z
x,-y,-z
-x,1/2+y,1/2-z
-x,-y,-z
x,1/2+y,1/2-z
-x,y,z
x,1/2-y,1/2+z
1/2+x,1/2+y,z
1/2-x,-y,1/2+z
1/2+x,1/2-y,-z
1/2-x,y,1/2-z
1/2-x,1/2-y,-z
1/2+x,y,1/2-z
1/2-x,1/2+y,z
1/2+x,-y,1/2+z
loop_
_atom_site_type_symbol
_atom_site_label
_atom_site_fract_x
_atom_site_fract_y
_atom_site_fract_z
Si Si1 0.828307 0.956943 0.942545
Si Si2 0.339836 0.262493 0.413109
Si Si3 0.160020 0.159799 0.990491
Si Si4 0.669770 0.692451 0.311923
Si Si5 0.172967 0.057195 0.315297
O O1 0.740632 0.974148 0.877999
O O2 0.000000 0.960214 0.926427
O O3 0.780635 0.892076 0.964747
O O4 0.785079 0.000000 0.000000
O O5 0.500000 0.272591 0.381277
O O6 0.276082 0.325791 0.434647
O O7 0.361457 0.219692 0.472074
O O8 0.221925 0.233318 0.368033
O O9 0.000000 0.141018 0.962738
O O10 0.500000 0.701009 0.301721
O O11 0.750000 0.715875 0.250000
O O12 0.709995 0.625277 0.324703
O O13 0.250000 0.034615 0.250000
O O14 0.000000 0.044688 0.310898
#
# Coordination Sequence:
#
# PCOD8261649 Si02
#       5
#    16  16  16  16  16
#     4  10  20  35  55  78 106 139 176 219 265 310
#     4  10  18  29  48  71  99 132 164 202 246 299
#     4   9  18  31  47  70 100 132 165 202 247 299
#     4  10  19  30  47  72 102 134 167 206 254 306
#     4  10  20  33  52  76 105 137 172 215 263 314
#
# _framework density 18.195383
#
# number of rings (size 3 to 8) (size 9 to 14) (size 15 to 20)
#    0.000    2.200    2.000    1.800    0.000    3.600 
#    0.000    0.000    0.000    1.200    0.000    5.600 
#    0.000    0.000    0.000    0.000    0.000    0.000 
#
# Total GULP energy -495783.651386 kJ/mol
# GULP energy per Si atom -12394.591285 kJ/mol
# Density = 1.815397 g / cm^3
# Si number density = 18.195383 Si / 1000 Ang^3
#
#
#
# Elastic Constant Matrix: (Units=GPa)
#
#
# Indices 1 2 3 4 5 6 
#
# 1 91.5996 24.2106 57.3798 0.0000 0.0000 0.0000
# 2 24.2106 36.3079 27.5253 0.0000 0.0000 0.0000
# 3 57.3798 27.5253 111.1832 0.0000 0.0000 0.0000
# 4 0.0000 0.0000 0.0000 21.3775 0.0000 0.0000
# 5 0.0000 0.0000 0.0000 0.0000 36.4564 0.0000
# 6 0.0000 0.0000 0.0000 0.0000 0.0000 10.1706
#
#
#
# Elastic Compliance Matrix: (Units=1/GPa)
#
#
# Indices 1 2 3 4 5 6 
#
# 1 0.017067 -0.005790 -0.007375 0.000000 0.000000 0.000000
# 2 -0.005790 0.035870 -0.005892 0.000000 0.000000 0.000000
# 3 -0.007375 -0.005892 0.014259 0.000000 0.000000 0.000000
# 4 0.000000 0.000000 0.000000 0.046778 0.000000 0.000000
# 5 0.000000 0.000000 0.000000 0.000000 0.027430 0.000000
# 6 0.000000 0.000000 0.000000 0.000000 0.000000 0.098323
#
#
# Mechanical properties :
#
#
# Convention : Reuss Voigt Hill
#
# Bulk Modulus (GPa) = 34.38498 50.81359 42.59928
# Shear Modulus (GPa) = 17.38927 22.26590 19.82759
#
# Velocity S-wave (km/s) = 3.09479 3.50195 3.30465
# Velocity P-wave (km/s) = 5.63107 6.65874 6.16635
#
# Compressibility (1/GPa) = 0.02908247
#
# Stress axis : x y z
#
# Youngs Moduli (GPa) = 58.59275 27.87859 70.13207
#
# Poissons Ratio (x) = 0.16141 0.51720
# Poissons Ratio (y) = 0.33923 0.41323
# Poissons Ratio (z) = 0.43210 0.16427
#
# Static dielectric constant tensor:
#      x y z
#    x 3.694640 0.000000 0.000000 
#    y 0.000000 3.034820 0.000000 
#    z 0.000000 0.000000 3.427200 
# 
# 
# High freq. dielectric constant tensor:
#      x y z
#    x 1.717840 0.000000 0.000000 
#    y 0.000000 1.660980 0.000000 
#    z 0.000000 0.000000 1.694490 
# 
# From -- ./inp_files/37309.got.cif
#   From: 2010.03.12/outbox.cif.g09.slc.cpg/sg64_19_cif.got.tgz:37309.got - 2010.04.10 20:19:32.
