data_PCOD8261415
_publ_section_title
;
Structure prediction by ZEFSAII (Michael W. Deem and Ramdas Pophale) SiO2 
 PCOD8261415
Probable space group: C M C A
;
_chemical_formula_sum "Si O2"
_cell_formula_units_Z 80
_cell_length_a 17.933382
_cell_length_b 26.596580
_cell_length_c 8.183277
_cell_angle_alpha 90.000000
_cell_angle_beta 90.000000
_cell_angle_gamma 90.000000
_cell_volume 3903.150045
_symmetry_space_group_name_H-M "C M C A"
_symmetry_group_IT_number 64
_symmetry_cell_setting 'orthorhombic'
loop_
_space_group_symop_operation_xyz
x,y,z
-x,1/2-y,1/2+z
x,-y,-z
-x,1/2+y,1/2-z
-x,-y,-z
x,1/2+y,1/2-z
-x,y,z
x,1/2-y,1/2+z
1/2+x,1/2+y,z
1/2-x,-y,1/2+z
1/2+x,1/2-y,-z
1/2-x,y,1/2-z
1/2-x,1/2-y,-z
1/2+x,y,1/2-z
1/2-x,1/2+y,z
1/2+x,-y,1/2+z
loop_
_atom_site_type_symbol
_atom_site_label
_atom_site_fract_x
_atom_site_fract_y
_atom_site_fract_z
Si Si1 0.416057 0.698718 0.003110
Si Si2 0.170078 0.214612 0.323708
Si Si3 0.250000 0.449660 0.750000
Si Si4 0.365303 0.601240 0.854957
Si Si5 0.852946 0.000000 0.000000
Si Si6 0.801097 0.118128 0.519267
O O1 0.500000 0.720005 0.016099
O O2 0.382713 0.691774 0.183774
O O3 0.365269 0.735435 0.896841
O O4 0.420263 0.645139 0.911819
O O5 0.250000 0.229225 0.250000
O O6 0.178550 0.174992 0.470987
O O7 0.199097 0.486736 0.649888
O O8 0.306614 0.416042 0.642176
O O9 0.397881 0.548913 0.933048
O O10 0.283983 0.614497 0.923769
O O11 0.359093 0.599060 0.657524
#
# Coordination Sequence:
#
# PCOD8261415 Si02
#       6
#    16  16   8  16   8  16
#     4  12  26  41  59  89 128 164 202 254 316 373
#     4  12  22  40  63  91 121 164 211 252 306 376
#     4  10  16  30  48  88 124 146 194 252 320 346
#     4  10  21  36  58  87 121 159 203 253 309 358
#     4  10  18  32  55  84 120 162 201 252 304 368
#     4  10  19  34  60  91 120 155 200 259 302 366
#
# _framework density 20.496265000000001
#
# number of rings (size 3 to 8) (size 9 to 14) (size 15 to 20)
#    0.000    1.200    3.000    6.000    2.800    0.000 
#    0.000    1.500    0.000    0.000    0.000    2.800 
#    0.000    0.000    0.000    0.000    0.000    0.000 
#
# Total GULP energy -495964.429178 kJ/mol
# GULP energy per Si atom -12399.110729 kJ/mol
# Density = 2.044961 g / cm^3
# Si number density = 20.496265 Si / 1000 Ang^3
#
#
#
# Elastic Constant Matrix: (Units=GPa)
#
#
# Indices 1 2 3 4 5 6 
#
# 1 72.5467 24.0484 22.9137 0.0000 0.0000 0.0000
# 2 24.0484 144.8974 51.3891 0.0000 0.0000 0.0000
# 3 22.9137 51.3891 126.2912 0.0000 0.0000 0.0000
# 4 0.0000 0.0000 0.0000 43.6196 0.0000 0.0000
# 5 0.0000 0.0000 0.0000 0.0000 8.4718 0.0000
# 6 0.0000 0.0000 0.0000 0.0000 0.0000 42.7766
#
#
#
# Elastic Compliance Matrix: (Units=1/GPa)
#
#
# Indices 1 2 3 4 5 6 
#
# 1 0.015006 -0.001782 -0.001997 0.000000 0.000000 0.000000
# 2 -0.001782 0.008277 -0.003045 0.000000 0.000000 0.000000
# 3 -0.001997 -0.003045 0.009520 0.000000 0.000000 0.000000
# 4 0.000000 0.000000 0.000000 0.022925 0.000000 0.000000
# 5 0.000000 0.000000 0.000000 0.000000 0.118038 0.000000
# 6 0.000000 0.000000 0.000000 0.000000 0.000000 0.023377
#
#
# Mechanical properties :
#
#
# Convention : Reuss Voigt Hill
#
# Bulk Modulus (GPa) = 52.20843 60.04865 56.12854
# Shear Modulus (GPa) = 23.02278 35.33256 29.17767
#
# Velocity S-wave (km/s) = 3.35515 4.15644 3.77710
# Velocity P-wave (km/s) = 6.36686 7.23848 6.81661
#
# Compressibility (1/GPa) = 0.01915399
#
# Stress axis : x y z
#
# Youngs Moduli (GPa) = 66.64066 120.81644 105.04737
#
# Poissons Ratio (x) = 0.21531 0.20983
# Poissons Ratio (y) = 0.11876 0.31983
# Poissons Ratio (z) = 0.13311 0.36785
#
# Static dielectric constant tensor:
#      x y z
#    x 3.258290 0.000000 0.000000 
#    y 0.000000 3.940050 0.000000 
#    z 0.000000 0.000000 4.097890 
# 
# 
# High freq. dielectric constant tensor:
#      x y z
#    x 1.748970 0.000000 0.000000 
#    y 0.000000 1.814970 0.000000 
#    z 0.000000 0.000000 1.822790 
# 
# From -- ./inp_files/7150.got.cif
#   From: 2010.03.12/outbox.cif.g09.slc.cpg/sg64_4_cif.got.tgz:7150.got - 2010.04.10 20:19:32.
