data_PCOD8261822
_publ_section_title
;
Structure prediction by ZEFSAII (Michael W. Deem and Ramdas Pophale) SiO2 
 PCOD8261822
Probable space group: C M C A
;
_chemical_formula_sum "Si O2"
_cell_formula_units_Z 88
_cell_length_a 9.543035
_cell_length_b 23.411506
_cell_length_c 20.495216
_cell_angle_alpha 90.000000
_cell_angle_beta 90.000000
_cell_angle_gamma 90.000000
_cell_volume 4578.976008
_symmetry_space_group_name_H-M "C M C A"
_symmetry_group_IT_number 64
_symmetry_cell_setting 'orthorhombic'
loop_
_space_group_symop_operation_xyz
x,y,z
-x,1/2-y,1/2+z
x,-y,-z
-x,1/2+y,1/2-z
-x,-y,-z
x,1/2+y,1/2-z
-x,y,z
x,1/2-y,1/2+z
1/2+x,1/2+y,z
1/2-x,-y,1/2+z
1/2+x,1/2-y,-z
1/2-x,y,1/2-z
1/2-x,1/2-y,-z
1/2+x,y,1/2-z
1/2-x,1/2+y,z
1/2+x,-y,1/2+z
loop_
_atom_site_type_symbol
_atom_site_label
_atom_site_fract_x
_atom_site_fract_y
_atom_site_fract_z
Si Si1 0.655674 0.824345 0.346621
Si Si2 0.831900 0.404216 0.457627
Si Si3 0.836166 0.797702 0.689364
Si Si4 0.843891 0.982860 0.372152
Si Si5 0.841215 0.393619 0.913665
Si Si6 0.750000 0.414908 0.250000
O O1 0.500000 0.805557 0.364394
O O2 0.721414 0.851591 0.412176
O O3 0.730363 0.765268 0.326144
O O4 0.648947 0.872371 0.290014
O O5 0.769077 0.461217 0.424863
O O6 0.770948 0.394826 0.528760
O O7 0.000000 0.409847 0.459816
O O8 0.750000 0.822946 0.750000
O O9 0.807847 0.837664 0.627816
O O10 0.000000 0.795607 0.708047
O O11 0.831158 0.955591 0.300276
O O12 0.000000 0.968456 0.398103
O O13 0.822560 0.051001 0.367426
O O14 0.000000 0.391288 0.941565
#
# Coordination Sequence:
#
# PCOD8261822 Si02
#       6
#    16  16  16  16  16   8
#     4   9  18  34  55  80 110 139 177 231 279 321
#     4  10  21  37  58  84 111 144 188 234 275 322
#     4  10  21  38  58  81 111 146 182 226 277 329
#     4  10  21  36  56  82 114 150 185 226 277 330
#     4  10  22  38  55  79 115 151 183 223 276 333
#     4  10  18  32  56  84 108 142 184 230 270 330
#
# _framework density 19.218271000000001
#
# number of rings (size 3 to 8) (size 9 to 14) (size 15 to 20)
#    0.000    2.182    0.909    1.636    1.273    5.091 
#    0.000    0.909    0.000    0.000    0.000    0.000 
#    0.000    0.000    0.000    0.000    0.000    0.000 
#
# Total GULP energy -545381.458648 kJ/mol
# GULP energy per Si atom -12395.033151 kJ/mol
# Density = 1.917453 g / cm^3
# Si number density = 19.218271 Si / 1000 Ang^3
#
#
#
# Elastic Constant Matrix: (Units=GPa)
#
#
# Indices 1 2 3 4 5 6 
#
# 1 87.6548 39.6923 50.3088 0.0000 0.0000 0.0000
# 2 39.6923 112.0996 62.8948 0.0000 0.0000 0.0000
# 3 50.3088 62.8948 116.8106 0.0000 0.0000 0.0000
# 4 0.0000 0.0000 0.0000 21.1557 0.0000 0.0000
# 5 0.0000 0.0000 0.0000 0.0000 33.6857 0.0000
# 6 0.0000 0.0000 0.0000 0.0000 0.0000 21.4312
#
#
#
# Elastic Compliance Matrix: (Units=1/GPa)
#
#
# Indices 1 2 3 4 5 6 
#
# 1 0.015636 -0.002519 -0.005378 0.000000 0.000000 0.000000
# 2 -0.002519 0.013188 -0.006016 0.000000 0.000000 0.000000
# 3 -0.005378 -0.006016 0.014116 0.000000 0.000000 0.000000
# 4 0.000000 0.000000 0.000000 0.047269 0.000000 0.000000
# 5 0.000000 0.000000 0.000000 0.000000 0.029686 0.000000
# 6 0.000000 0.000000 0.000000 0.000000 0.000000 0.046661
#
#
# Mechanical properties :
#
#
# Convention : Reuss Voigt Hill
#
# Bulk Modulus (GPa) = 66.16238 69.15076 67.65657
# Shear Modulus (GPa) = 25.07287 26.16578 25.61933
#
# Velocity S-wave (km/s) = 3.61589 3.69386 3.65509
# Velocity P-wave (km/s) = 7.20656 7.36564 7.28654
#
# Compressibility (1/GPa) = 0.01511433
#
# Stress axis : x y z
#
# Youngs Moduli (GPa) = 63.95675 75.82739 70.84096
#
# Poissons Ratio (x) = 0.19101 0.38096
# Poissons Ratio (y) = 0.16111 0.42617
# Poissons Ratio (z) = 0.34394 0.45617
#
# Static dielectric constant tensor:
#      x y z
#    x 3.367050 0.000000 0.000000 
#    y 0.000000 3.726290 0.000000 
#    z 0.000000 0.000000 3.427080 
# 
# 
# High freq. dielectric constant tensor:
#      x y z
#    x 1.734330 0.000000 0.000000 
#    y 0.000000 1.756240 0.000000 
#    z 0.000000 0.000000 1.743480 
# 
# From -- ./inp_files/36756.got.cif
#   From: 2010.03.12/outbox.cif.g09.slc.cpg/sg64_19_cif.got.tgz:36756.got - 2010.04.10 20:19:32.
