data_PCOD8261409
_publ_section_title
;
Structure prediction by ZEFSAII (Michael W. Deem and Ramdas Pophale) SiO2 
 PCOD8261409
Probable space group: C M C A
;
_chemical_formula_sum "Si O2"
_cell_formula_units_Z 112
_cell_length_a 17.229989
_cell_length_b 20.404367
_cell_length_c 16.872052
_cell_angle_alpha 90.000000
_cell_angle_beta 90.000000
_cell_angle_gamma 90.000000
_cell_volume 5931.657025
_symmetry_space_group_name_H-M "C M C A"
_symmetry_group_IT_number 64
_symmetry_cell_setting 'orthorhombic'
loop_
_space_group_symop_operation_xyz
x,y,z
-x,1/2-y,1/2+z
x,-y,-z
-x,1/2+y,1/2-z
-x,-y,-z
x,1/2+y,1/2-z
-x,y,z
x,1/2-y,1/2+z
1/2+x,1/2+y,z
1/2-x,-y,1/2+z
1/2+x,1/2-y,-z
1/2-x,y,1/2-z
1/2-x,1/2-y,-z
1/2+x,y,1/2-z
1/2-x,1/2+y,z
1/2+x,-y,1/2+z
loop_
_atom_site_type_symbol
_atom_site_label
_atom_site_fract_x
_atom_site_fract_y
_atom_site_fract_z
Si Si1 0.908634 0.647034 0.744896
Si Si2 0.412259 0.631648 0.575308
Si Si3 0.162307 0.482118 0.274675
Si Si4 0.808786 0.382122 0.676904
Si Si5 0.829733 0.861841 0.576736
Si Si6 0.408973 0.206970 0.221082
Si Si7 0.413800 0.487043 0.611891
O O1 0.881516 0.646223 0.836835
O O2 0.867993 0.588839 0.693249
O O3 0.882045 0.717639 0.712911
O O4 0.000000 0.636441 0.738914
O O5 0.500000 0.659304 0.563251
O O6 0.352682 0.664249 0.511174
O O7 0.412813 0.553405 0.560443
O O8 0.250000 0.469911 0.250000
O O9 0.155859 0.544123 0.336072
O O10 0.105204 0.498013 0.202742
O O11 0.750000 0.390422 0.750000
O O12 0.761850 0.356010 0.599226
O O13 0.872387 0.328252 0.701292
O O14 0.883800 0.826147 0.640057
O O15 0.849372 0.938528 0.578640
O O16 0.500000 0.201925 0.233651
O O17 0.500000 0.455494 0.608757
#
# Coordination Sequence:
#
# PCOD8261409 Si02
#       7
#    16  16  16  16  16  16  16
#     4   9  20  34  49  73 103 134 172 211 255 309
#     4   9  18  30  47  74 106 133 157 204 266 316
#     4  10  16  29  46  68  98 134 161 196 247 296
#     4   9  18  30  45  70 101 127 163 209 245 296
#     4  11  18  29  48  75 104 129 163 205 255 312
#     4  10  19  32  50  71  98 135 175 214 250 295
#     4  10  17  27  46  75 105 130 158 198 255 314
#
# _framework density 18.881739
#
# number of rings (size 3 to 8) (size 9 to 14) (size 15 to 20)
#    0.000    2.286    4.286    3.000    0.000    3.429 
#    0.000    0.714    0.000    0.000    0.000    0.000 
#    0.000    6.857    0.000    0.571    0.000    0.000 
#
# Total GULP energy -693852.211740 kJ/mol
# GULP energy per Si atom -12390.218067 kJ/mol
# Density = 1.883876 g / cm^3
# Si number density = 18.881739 Si / 1000 Ang^3
#
#
#
# Elastic Constant Matrix: (Units=GPa)
#
#
# Indices 1 2 3 4 5 6 
#
# 1 50.9315 32.9495 2.1459 0.0000 0.0000 0.0000
# 2 32.9495 84.5434 -0.0382 0.0000 0.0000 0.0000
# 3 2.1459 -0.0382 30.4007 0.0000 0.0000 0.0000
# 4 0.0000 0.0000 0.0000 7.8648 0.0000 0.0000
# 5 0.0000 0.0000 0.0000 0.0000 20.8469 0.0000
# 6 0.0000 0.0000 0.0000 0.0000 0.0000 25.0916
#
#
#
# Elastic Compliance Matrix: (Units=1/GPa)
#
#
# Indices 1 2 3 4 5 6 
#
# 1 0.026360 -0.010274 -0.001874 0.000000 0.000000 0.000000
# 2 -0.010274 0.015833 0.000745 0.000000 0.000000 0.000000
# 3 -0.001874 0.000745 0.033027 0.000000 0.000000 0.000000
# 4 0.000000 0.000000 0.000000 0.127150 0.000000 0.000000
# 5 0.000000 0.000000 0.000000 0.000000 0.047969 0.000000
# 6 0.000000 0.000000 0.000000 0.000000 0.000000 0.039854
#
#
# Mechanical properties :
#
#
# Convention : Reuss Voigt Hill
#
# Bulk Modulus (GPa) = 19.07867 26.22110 22.64988
# Shear Modulus (GPa) = 15.13001 19.48188 17.30595
#
# Velocity S-wave (km/s) = 2.83380 3.21562 3.03073
# Velocity P-wave (km/s) = 4.56437 5.26347 4.92634
#
# Compressibility (1/GPa) = 0.05241455
#
# Stress axis : x y z
#
# Youngs Moduli (GPa) = 37.93636 63.15999 30.27814
#
# Poissons Ratio (x) = 0.64892 0.05673
# Poissons Ratio (y) = 0.38977 -0.02256
# Poissons Ratio (z) = 0.07108 -0.04706
#
# Static dielectric constant tensor:
#      x y z
#    x 3.474240 0.000000 0.000000 
#    y 0.000000 3.773130 0.000000 
#    z 0.000000 0.000000 3.208030 
# 
# 
# High freq. dielectric constant tensor:
#      x y z
#    x 1.723340 0.000000 0.000000 
#    y 0.000000 1.734260 0.000000 
#    z 0.000000 0.000000 1.687330 
# 
# From -- ./inp_files/33584.got.cif
#   From: 2010.03.12/outbox.cif.g09.slc.cpg/sg64_17_cif.got.tgz:33584.got - 2010.04.10 20:19:32.
