data_PCOD8261200
_publ_section_title
;
Structure prediction by ZEFSAII (Michael W. Deem and Ramdas Pophale) SiO2 
 PCOD8261200
Probable space group: C M C M
;
_chemical_formula_sum "Si O2"
_cell_formula_units_Z 56
_cell_length_a 10.504649
_cell_length_b 25.325124
_cell_length_c 9.747133
_cell_angle_alpha 90.000000
_cell_angle_beta 90.000000
_cell_angle_gamma 90.000000
_cell_volume 2593.044788
_symmetry_space_group_name_H-M "C M C M"
_symmetry_group_IT_number 63
_symmetry_cell_setting 'orthorhombic'
loop_
_space_group_symop_operation_xyz
x,y,z
-x,-y,1/2+z
x,-y,-z
-x,y,1/2-z
-x,-y,-z
x,y,1/2-z
-x,y,z
x,-y,1/2+z
1/2+x,1/2+y,z
1/2-x,1/2-y,1/2+z
1/2+x,1/2-y,-z
1/2-x,1/2+y,1/2-z
1/2-x,1/2-y,-z
1/2+x,1/2+y,1/2-z
1/2-x,1/2+y,z
1/2+x,1/2-y,1/2+z
loop_
_atom_site_type_symbol
_atom_site_label
_atom_site_fract_x
_atom_site_fract_y
_atom_site_fract_z
Si Si1 0.648458 0.219440 0.093737
Si Si2 0.848017 0.964023 0.750000
Si Si3 0.236076 0.392904 0.513050
Si Si4 0.356847 0.417174 0.250000
Si Si5 0.000000 0.548838 0.596667
O O1 0.659004 0.239981 0.250000
O O2 0.500000 0.225394 0.043444
O O3 0.693126 0.158897 0.093617
O O4 0.750000 0.250000 0.000000
O O5 0.794754 0.935410 0.615575
O O6 0.000000 0.959337 0.750000
O O7 0.791731 0.023885 0.750000
O O8 0.332844 0.382198 0.386853
O O9 0.119064 0.414825 0.429143
O O10 0.500000 0.434365 0.250000
O O11 0.000000 0.500000 0.500000
O O12 0.000000 0.527012 0.750000
#
# Coordination Sequence:
#
# PCOD8261200 Si02
#       5
#    16   8  16   8   8
#     4  11  27  51  75 103 138 180 233 300 361 424
#     4  11  24  43  68 101 144 190 236 281 341 418
#     4  12  24  44  69  99 141 183 233 284 348 416
#     4  11  24  41  64 101 146 190 232 283 337 412
#     4  12  26  40  68 106 144 188 234 280 343 414
#
# _framework density 21.596233000000002
#
# number of rings (size 3 to 8) (size 9 to 14) (size 15 to 20)
#    0.000    0.571    4.286    3.429    4.000    5.143 
#    0.000    0.000    0.000    0.000    0.000    0.000 
#    0.000    0.000    0.000    0.000    0.000    0.000 
#
# Total GULP energy -347059.922095 kJ/mol
# GULP energy per Si atom -12394.997218 kJ/mol
# Density = 2.154708 g / cm^3
# Si number density = 21.596233 Si / 1000 Ang^3
#
#
#
# Elastic Constant Matrix: (Units=GPa)
#
#
# Indices 1 2 3 4 5 6 
#
# 1 121.2281 37.6052 51.5606 0.0000 0.0000 0.0000
# 2 37.6052 62.8691 19.7575 0.0000 0.0000 0.0000
# 3 51.5606 19.7575 150.5182 0.0000 0.0000 0.0000
# 4 0.0000 0.0000 0.0000 36.9606 0.0000 0.0000
# 5 0.0000 0.0000 0.0000 0.0000 37.8701 0.0000
# 6 0.0000 0.0000 0.0000 0.0000 0.0000 142.3420
#
#
#
# Elastic Compliance Matrix: (Units=1/GPa)
#
#
# Indices 1 2 3 4 5 6 
#
# 1 0.011391 -0.005828 -0.003137 0.000000 0.000000 0.000000
# 2 -0.005828 0.019572 -0.000573 0.000000 0.000000 0.000000
# 3 -0.003137 -0.000573 0.007794 0.000000 0.000000 0.000000
# 4 0.000000 0.000000 0.000000 0.027056 0.000000 0.000000
# 5 0.000000 0.000000 0.000000 0.000000 0.026406 0.000000
# 6 0.000000 0.000000 0.000000 0.000000 0.000000 0.007025
#
#
# Mechanical properties :
#
#
# Convention : Reuss Voigt Hill
#
# Bulk Modulus (GPa) = 50.80947 61.38465 56.09706
# Shear Modulus (GPa) = 40.03882 58.48068 49.25975
#
# Velocity S-wave (km/s) = 4.31045 5.20940 4.78110
# Velocity P-wave (km/s) = 6.95352 8.04173 7.51734
#
# Compressibility (1/GPa) = 0.01968137
#
# Stress axis : x y z
#
# Youngs Moduli (GPa) = 87.78950 51.09380 128.31200
#
# Poissons Ratio (x) = 0.29775 0.40252
# Poissons Ratio (y) = 0.51160 0.07350
# Poissons Ratio (z) = 0.27540 0.02927
#
# Static dielectric constant tensor:
#      x y z
#    x 3.951990 0.000000 0.000000 
#    y 0.000000 3.798070 0.000000 
#    z 0.000000 0.000000 3.938580 
# 
# 
# High freq. dielectric constant tensor:
#      x y z
#    x 1.868430 0.000000 0.000000 
#    y 0.000000 1.834990 0.000000 
#    z 0.000000 0.000000 1.863630 
# 
# From -- ./inp_files/2883.got.cif
#   From: 2010.03.12/outbox.cif.g09.slc.cpg/sg63_2_cif.got.tgz:2883.got - 2010.04.10 19:34:48.
