data_PCOD8261392
_publ_section_title
;
Structure prediction by ZEFSAII (Michael W. Deem and Ramdas Pophale) SiO2 
 PCOD8261392
Probable space group: C M C A
;
_chemical_formula_sum "Si O2"
_cell_formula_units_Z 128
_cell_length_a 17.067869
_cell_length_b 19.232270
_cell_length_c 23.709252
_cell_angle_alpha 90.000000
_cell_angle_beta 90.000000
_cell_angle_gamma 90.000000
_cell_volume 7782.653604
_symmetry_space_group_name_H-M "C M C A"
_symmetry_group_IT_number 64
_symmetry_cell_setting 'orthorhombic'
loop_
_space_group_symop_operation_xyz
x,y,z
-x,1/2-y,1/2+z
x,-y,-z
-x,1/2+y,1/2-z
-x,-y,-z
x,1/2+y,1/2-z
-x,y,z
x,1/2-y,1/2+z
1/2+x,1/2+y,z
1/2-x,-y,1/2+z
1/2+x,1/2-y,-z
1/2-x,y,1/2-z
1/2-x,1/2-y,-z
1/2+x,y,1/2-z
1/2-x,1/2+y,z
1/2+x,-y,1/2+z
loop_
_atom_site_type_symbol
_atom_site_label
_atom_site_fract_x
_atom_site_fract_y
_atom_site_fract_z
Si Si1 0.593279 0.492001 0.253838
Si Si2 0.091826 0.766677 0.666830
Si Si3 0.340377 0.150614 0.736173
Si Si4 0.093191 0.641192 0.065542
Si Si5 0.907626 0.230969 0.661287
Si Si6 0.406450 0.358117 0.439637
Si Si7 0.092183 0.141817 0.227287
Si Si8 0.093067 0.498639 0.117146
O O1 0.500000 0.484440 0.249167
O O2 0.635518 0.428456 0.222192
O O3 0.624142 0.563047 0.223807
O O4 0.621509 0.493379 0.318570
O O5 0.139982 0.696984 0.681186
O O6 0.118821 0.795031 0.605772
O O7 0.112690 0.826680 0.711708
O O8 0.000000 0.748771 0.668359
O O9 0.250000 0.157438 0.750000
O O10 0.390654 0.175662 0.789611
O O11 0.127673 0.568273 0.088465
O O12 0.000000 0.635704 0.065111
O O13 0.125602 0.655507 0.002604
O O14 0.873953 0.202952 0.601724
O O15 0.872391 0.307058 0.678485
O O16 0.000000 0.237100 0.656684
O O17 0.500000 0.358596 0.438728
O O18 0.375112 0.432388 0.417569
O O19 0.000000 0.138849 0.220067
O O20 0.000000 0.501187 0.115574
#
# Coordination Sequence:
#
# PCOD8261392 Si02
#       8
#    16  16  16  16  16  16  16  16
#     4  10  16  27  45  64  86 116 144 173 219 268
#     4   9  16  29  46  64  88 118 146 173 211 261
#     4  11  21  30  42  62  88 115 149 186 220 253
#     4   9  15  23  39  66  95 117 142 175 214 260
#     4   9  16  29  46  65  88 117 146 174 214 263
#     4   9  15  22  38  65  95 120 140 171 214 261
#     4   8  14  24  43  64  83 110 144 175 206 254
#     4   9  14  21  36  63  94 118 137 166 212 266
#
# _framework density 16.446833000000002
#
# number of rings (size 3 to 8) (size 9 to 14) (size 15 to 20)
#    0.000    2.750    2.500    2.250    0.000    1.500 
#    0.000    2.500    0.000    0.750    0.000    0.875 
#    0.000    6.000    0.000    0.000    0.000    0.000 
#
# Total GULP energy -793131.651466 kJ/mol
# GULP energy per Si atom -12392.682054 kJ/mol
# Density = 1.640940 g / cm^3
# Si number density = 16.446833 Si / 1000 Ang^3
#
#
#
# Elastic Constant Matrix: (Units=GPa)
#
#
# Indices 1 2 3 4 5 6 
#
# 1 10.8979 17.4649 12.4780 0.0000 0.0000 0.0000
# 2 17.4649 152.4623 77.0820 0.0000 0.0000 0.0000
# 3 12.4780 77.0820 107.2937 0.0000 0.0000 0.0000
# 4 0.0000 0.0000 0.0000 28.2034 0.0000 0.0000
# 5 0.0000 0.0000 0.0000 0.0000 4.9325 0.0000
# 6 0.0000 0.0000 0.0000 0.0000 0.0000 3.9383
#
#
#
# Elastic Compliance Matrix: (Units=1/GPa)
#
#
# Indices 1 2 3 4 5 6 
#
# 1 0.114910 -0.010061 -0.006135 0.000000 0.000000 0.000000
# 2 -0.010061 0.011181 -0.006863 0.000000 0.000000 0.000000
# 3 -0.006135 -0.006863 0.014964 0.000000 0.000000 0.000000
# 4 0.000000 0.000000 0.000000 0.035457 0.000000 0.000000
# 5 0.000000 0.000000 0.000000 0.000000 0.202737 0.000000
# 6 0.000000 0.000000 0.000000 0.000000 0.000000 0.253915
#
#
# Mechanical properties :
#
#
# Convention : Reuss Voigt Hill
#
# Bulk Modulus (GPa) = 10.53342 53.85597 32.19469
# Shear Modulus (GPa) = 7.03307 18.32345 12.67826
#
# Velocity S-wave (km/s) = 2.07015 3.34144 2.77945
# Velocity P-wave (km/s) = 3.48317 6.90677 5.46973
#
# Compressibility (1/GPa) = 0.09493597
#
# Stress axis : x y z
#
# Youngs Moduli (GPa) = 8.70250 89.43599 66.82681
#
# Poissons Ratio (x) = 0.89983 0.41002
# Poissons Ratio (y) = 0.08756 0.45861
# Poissons Ratio (z) = 0.05339 0.61377
#
# Static dielectric constant tensor:
#      x y z
#    x 2.507230 0.000000 0.000000 
#    y 0.000000 3.478000 0.000000 
#    z 0.000000 0.000000 3.270140 
# 
# 
# High freq. dielectric constant tensor:
#      x y z
#    x 1.568080 0.000000 0.000000 
#    y 0.000000 1.642250 0.000000 
#    z 0.000000 0.000000 1.614370 
# 
# From -- ./inp_files/46497.got.cif
#   From: 2010.03.12/outbox.cif.g09.slc.cpg/sg64_24_cif.got.tgz:46497.got - 2010.04.10 20:19:32.
