data_PCOD8261143
_publ_section_title
;
Structure prediction by ZEFSAII (Michael W. Deem and Ramdas Pophale) SiO2 
 PCOD8261143
Probable space group: C M C M
;
_chemical_formula_sum "Si O2"
_cell_formula_units_Z 104
_cell_length_a 19.171060
_cell_length_b 29.670573
_cell_length_c 9.204774
_cell_angle_alpha 90.000000
_cell_angle_beta 90.000000
_cell_angle_gamma 90.000000
_cell_volume 5235.825813
_symmetry_space_group_name_H-M "C M C M"
_symmetry_group_IT_number 63
_symmetry_cell_setting 'orthorhombic'
loop_
_space_group_symop_operation_xyz
x,y,z
-x,-y,1/2+z
x,-y,-z
-x,y,1/2-z
-x,-y,-z
x,y,1/2-z
-x,y,z
x,-y,1/2+z
1/2+x,1/2+y,z
1/2-x,1/2-y,1/2+z
1/2+x,1/2-y,-z
1/2-x,1/2+y,1/2-z
1/2-x,1/2-y,-z
1/2+x,1/2+y,1/2-z
1/2-x,1/2+y,z
1/2+x,1/2-y,1/2+z
loop_
_atom_site_type_symbol
_atom_site_label
_atom_site_fract_x
_atom_site_fract_y
_atom_site_fract_z
Si Si1 0.297292 0.138043 0.580721
Si Si2 0.919515 0.954489 0.920548
Si Si3 0.419432 0.811554 0.580046
Si Si4 0.350841 0.955075 0.084466
Si Si5 0.500000 0.045837 0.917948
Si Si6 0.081841 0.790302 0.409267
Si Si7 0.157253 0.863345 0.578769
O O1 0.294602 0.151391 0.750000
O O2 0.367406 0.158099 0.513105
O O3 0.295189 0.083932 0.558563
O O4 0.227965 0.153192 0.498551
O O5 0.911540 0.962641 0.750000
O O6 0.872023 0.912225 0.971458
O O7 0.000000 0.944002 0.961704
O O8 0.893604 0.000000 0.000000
O O9 0.411451 0.822946 0.750000
O O10 0.500000 0.820240 0.531339
O O11 0.395658 0.760298 0.548343
O O12 0.353335 0.970720 0.250000
O O13 0.425956 0.931628 0.039125
O O14 0.329856 0.000000 0.000000
O O15 0.500000 0.035189 0.750000
O O16 0.500000 0.000000 0.000000
O O17 0.113540 0.803306 0.250000
O O18 0.102444 0.825211 0.534065
O O19 0.000000 0.790739 0.395075
O O20 0.168646 0.862689 0.750000
#
# Coordination Sequence:
#
# PCOD8261143 Si02
#       7
#    16  16  16  16   8  16  16
#     4  11  24  38  55  82 115 153 194 236 286 340
#     4   9  19  36  58  85 115 149 190 235 282 334
#     4   9  20  40  63  87 114 145 184 232 287 345
#     4   9  19  34  53  75 103 139 182 230 277 329
#     4   8  14  28  48  70  94 122 164 218 270 316
#     4   9  19  38  64  90 115 144 182 230 283 341
#     4  11  23  38  57  83 118 155 193 236 280 335
#
# _framework density 19.863150000000001
#
# number of rings (size 3 to 8) (size 9 to 14) (size 15 to 20)
#    0.000    2.462    0.000    2.308    1.077    5.538 
#    0.000    6.154    0.000    0.000    0.000    0.000 
#    0.000    0.000    0.000    0.000    0.000    0.000 
#
# Total GULP energy -644338.222135 kJ/mol
# GULP energy per Si atom -12391.119656 kJ/mol
# Density = 1.981794 g / cm^3
# Si number density = 19.863150 Si / 1000 Ang^3
#
#
#
# Elastic Constant Matrix: (Units=GPa)
#
#
# Indices 1 2 3 4 5 6 
#
# 1 52.3138 38.2569 36.3596 0.0000 0.0000 0.0000
# 2 38.2569 94.0863 48.6076 0.0000 0.0000 0.0000
# 3 36.3596 48.6076 75.6294 0.0000 0.0000 0.0000
# 4 0.0000 0.0000 0.0000 31.4362 0.0000 0.0000
# 5 0.0000 0.0000 0.0000 0.0000 27.3202 0.0000
# 6 0.0000 0.0000 0.0000 0.0000 0.0000 19.6709
#
#
#
# Elastic Compliance Matrix: (Units=1/GPa)
#
#
# Indices 1 2 3 4 5 6 
#
# 1 0.031942 -0.007567 -0.010493 0.000000 0.000000 0.000000
# 2 -0.007567 0.017705 -0.007741 0.000000 0.000000 0.000000
# 3 -0.010493 -0.007741 0.023242 0.000000 0.000000 0.000000
# 4 0.000000 0.000000 0.000000 0.031811 0.000000 0.000000
# 5 0.000000 0.000000 0.000000 0.000000 0.036603 0.000000
# 6 0.000000 0.000000 0.000000 0.000000 0.000000 0.050837
#
#
# Mechanical properties :
#
#
# Convention : Reuss Voigt Hill
#
# Bulk Modulus (GPa) = 46.97767 52.05308 49.51538
# Shear Modulus (GPa) = 19.93327 22.27248 21.10288
#
# Velocity S-wave (km/s) = 3.17129 3.35221 3.26300
# Velocity P-wave (km/s) = 6.09192 6.42229 6.25928
#
# Compressibility (1/GPa) = 0.02128671
#
# Stress axis : x y z
#
# Youngs Moduli (GPa) = 31.30650 56.48245 43.02525
#
# Poissons Ratio (x) = 0.42741 0.45147
# Poissons Ratio (y) = 0.23690 0.33305
# Poissons Ratio (z) = 0.32850 0.43722
#
# Static dielectric constant tensor:
#      x y z
#    x 3.570480 0.000000 0.000000 
#    y 0.000000 3.625360 0.000000 
#    z 0.000000 0.000000 3.562340 
# 
# 
# High freq. dielectric constant tensor:
#      x y z
#    x 1.774790 0.000000 0.000000 
#    y 0.000000 1.770490 0.000000 
#    z 0.000000 0.000000 1.770820 
# 
# From -- ./inp_files/8815.got.cif
#   From: 2010.03.12/outbox.cif.g09.slc.cpg/sg63_5_cif.got.tgz:8815.got - 2010.04.10 19:34:48.
