data_PCOD8261320
_publ_section_title
;
Structure prediction by ZEFSAII (Michael W. Deem and Ramdas Pophale) SiO2 
 PCOD8261320
Probable space group: C M C M
;
_chemical_formula_sum "Si O2"
_cell_formula_units_Z 96
_cell_length_a 9.400364
_cell_length_b 31.076736
_cell_length_c 19.160070
_cell_angle_alpha 90.000000
_cell_angle_beta 90.000000
_cell_angle_gamma 90.000000
_cell_volume 5597.281646
_symmetry_space_group_name_H-M "C M C M"
_symmetry_group_IT_number 63
_symmetry_cell_setting 'orthorhombic'
loop_
_space_group_symop_operation_xyz
x,y,z
-x,-y,1/2+z
x,-y,-z
-x,y,1/2-z
-x,-y,-z
x,y,1/2-z
-x,y,z
x,-y,1/2+z
1/2+x,1/2+y,z
1/2-x,1/2-y,1/2+z
1/2+x,1/2-y,-z
1/2-x,1/2+y,1/2-z
1/2-x,1/2-y,-z
1/2+x,1/2+y,1/2-z
1/2-x,1/2+y,z
1/2+x,1/2-y,1/2+z
loop_
_atom_site_type_symbol
_atom_site_label
_atom_site_fract_x
_atom_site_fract_y
_atom_site_fract_z
Si Si1 0.334277 0.916968 0.579371
Si Si2 0.660964 0.499292 0.917073
Si Si3 0.334484 0.163997 0.669296
Si Si4 0.330692 0.161610 0.172185
Si Si5 0.658088 0.744388 0.666967
Si Si6 0.334862 0.918558 0.416646
O O1 0.500000 0.925883 0.594779
O O2 0.245112 0.957207 0.608819
O O3 0.276494 0.874934 0.619444
O O4 0.307416 0.909327 0.497821
O O5 0.500000 0.498696 0.887758
O O6 0.742602 0.541343 0.889061
O O7 0.661441 0.500000 0.000000
O O8 0.296205 0.155954 0.750000
O O9 0.500000 0.172061 0.658183
O O10 0.257191 0.206182 0.638572
O O11 0.282421 0.122791 0.626107
O O12 0.270867 0.152062 0.250000
O O13 0.500000 0.162570 0.174845
O O14 0.279716 0.208711 0.144785
O O15 0.652686 0.743423 0.750000
O O16 0.500000 0.737339 0.636192
O O17 0.500000 0.929010 0.402334
#
# Coordination Sequence:
#
# PCOD8261320 Si02
#       6
#    16  16  16  16  16  16
#     4   9  16  28  47  66  84 109 141 175 208 245
#     4   9  17  29  45  64  86 112 141 172 208 252
#     4   9  17  29  44  62  85 112 142 176 211 246
#     4   8  14  26  45  67  87 109 140 174 206 245
#     4   8  14  26  44  63  83 110 143 173 203 247
#     4   9  17  29  45  64  84 109 143 177 208 246
#
# _framework density 17.151183
#
# number of rings (size 3 to 8) (size 9 to 14) (size 15 to 20)
#    0.000    3.333    0.000    1.500    0.000    2.667 
#    0.000    2.500    0.000    6.500    0.000    0.000 
#    0.000    0.000    0.000    0.000    0.000    0.000 
#
# Total GULP energy -595002.093846 kJ/mol
# GULP energy per Si atom -12395.876955 kJ/mol
# Density = 1.711215 g / cm^3
# Si number density = 17.151183 Si / 1000 Ang^3
#
#
#
# Elastic Constant Matrix: (Units=GPa)
#
#
# Indices 1 2 3 4 5 6 
#
# 1 68.9316 75.6075 26.5722 0.0000 0.0000 0.0000
# 2 75.6075 200.9994 55.6734 0.0000 0.0000 0.0000
# 3 26.5722 55.6734 39.7927 0.0000 0.0000 0.0000
# 4 0.0000 0.0000 0.0000 31.3827 0.0000 0.0000
# 5 0.0000 0.0000 0.0000 0.0000 11.5489 0.0000
# 6 0.0000 0.0000 0.0000 0.0000 0.0000 31.0615
#
#
#
# Elastic Compliance Matrix: (Units=1/GPa)
#
#
# Indices 1 2 3 4 5 6 
#
# 1 0.025516 -0.007965 -0.005895 0.000000 0.000000 0.000000
# 2 -0.007965 0.010610 -0.009525 0.000000 0.000000 0.000000
# 3 -0.005895 -0.009525 0.042392 0.000000 0.000000 0.000000
# 4 0.000000 0.000000 0.000000 0.031865 0.000000 0.000000
# 5 0.000000 0.000000 0.000000 0.000000 0.086588 0.000000
# 6 0.000000 0.000000 0.000000 0.000000 0.000000 0.032194
#
#
# Mechanical properties :
#
#
# Convention : Reuss Voigt Hill
#
# Bulk Modulus (GPa) = 31.49726 69.49221 50.49474
# Shear Modulus (GPa) = 17.45095 24.92331 21.18713
#
# Velocity S-wave (km/s) = 3.19325 3.81616 3.51852
# Velocity P-wave (km/s) = 5.65687 7.74744 6.78318
#
# Compressibility (1/GPa) = 0.03174879
#
# Stress axis : x y z
#
# Youngs Moduli (GPa) = 39.19064 94.25443 23.58923
#
# Poissons Ratio (x) = 0.75078 0.13905
# Poissons Ratio (y) = 0.31217 0.22468
# Poissons Ratio (z) = 0.23101 0.89774
#
# Static dielectric constant tensor:
#      x y z
#    x 3.135350 0.000000 0.000000 
#    y 0.000000 3.578020 0.000000 
#    z 0.000000 0.000000 2.916690 
# 
# 
# High freq. dielectric constant tensor:
#      x y z
#    x 1.641890 0.000000 0.000000 
#    y 0.000000 1.677790 0.000000 
#    z 0.000000 0.000000 1.621000 
# 
# From -- ./inp_files/60261.got.cif
#   From: 2010.03.12/outbox.cif.g09.slc.cpg/sg63_31_cif.got.tgz:60261.got - 2010.04.10 19:34:48.
