data_PCOD8261362
_publ_section_title
;
Structure prediction by ZEFSAII (Michael W. Deem and Ramdas Pophale) SiO2 
 PCOD8261362
Probable space group: C M C M
;
_chemical_formula_sum "Si O2"
_cell_formula_units_Z 80
_cell_length_a 14.546926
_cell_length_b 33.543674
_cell_length_c 9.301795
_cell_angle_alpha 90.000000
_cell_angle_beta 90.000000
_cell_angle_gamma 90.000000
_cell_volume 4538.879177
_symmetry_space_group_name_H-M "C M C M"
_symmetry_group_IT_number 63
_symmetry_cell_setting 'orthorhombic'
loop_
_space_group_symop_operation_xyz
x,y,z
-x,-y,1/2+z
x,-y,-z
-x,y,1/2-z
-x,-y,-z
x,y,1/2-z
-x,y,z
x,-y,1/2+z
1/2+x,1/2+y,z
1/2-x,1/2-y,1/2+z
1/2+x,1/2-y,-z
1/2-x,1/2+y,1/2-z
1/2-x,1/2-y,-z
1/2+x,1/2+y,1/2-z
1/2-x,1/2+y,z
1/2+x,1/2-y,1/2+z
loop_
_atom_site_type_symbol
_atom_site_label
_atom_site_fract_x
_atom_site_fract_y
_atom_site_fract_z
Si Si1 0.749561 0.602022 0.919646
Si Si2 0.605174 0.539109 0.581995
Si Si3 0.239137 0.309048 0.419011
Si Si4 0.893755 0.253161 0.582255
Si Si5 0.604890 0.038808 0.917876
O O1 0.745128 0.606369 0.750000
O O2 0.660846 0.577531 0.973927
O O3 0.750621 0.646471 0.984394
O O4 0.839972 0.577849 0.968118
O O5 0.640629 0.500000 0.500000
O O6 0.622109 0.531527 0.750000
O O7 0.500000 0.548043 0.545246
O O8 0.218206 0.308989 0.250000
O O9 0.151074 0.289497 0.495288
O O10 0.334824 0.286486 0.453231
O O11 0.887928 0.263539 0.750000
O O12 0.000000 0.246655 0.534919
O O13 0.618981 0.030558 0.750000
O O14 0.500000 0.047243 0.959038
O O15 0.642526 0.000000 0.000000
#
# Coordination Sequence:
#
# PCOD8261362 Si02
#       5
#    16  16  16  16  16
#     4   9  17  29  46  68  91 115 147 187 225 260
#     4   9  17  29  45  65  90 120 153 187 223 265
#     4   9  18  32  50  72  94 119 156 193 226 275
#     4   9  18  33  51  70  95 124 150 184 233 281
#     4   9  17  29  44  62  86 116 149 183 218 257
#
# _framework density 17.625496999999999
#
# number of rings (size 3 to 8) (size 9 to 14) (size 15 to 20)
#    0.000    3.000    0.000    0.600    0.000    2.000 
#    0.000    8.000    0.000    2.400    0.000    2.800 
#    0.000    0.000    0.000    0.000    0.000    0.000 
#
# Total GULP energy -495892.595873 kJ/mol
# GULP energy per Si atom -12397.314897 kJ/mol
# Density = 1.758538 g / cm^3
# Si number density = 17.625497 Si / 1000 Ang^3
#
#
#
# Elastic Constant Matrix: (Units=GPa)
#
#
# Indices 1 2 3 4 5 6 
#
# 1 130.0435 81.7478 31.5078 0.0000 0.0000 0.0000
# 2 81.7478 181.9233 39.7345 0.0000 0.0000 0.0000
# 3 31.5078 39.7345 29.8325 0.0000 0.0000 0.0000
# 4 0.0000 0.0000 0.0000 25.0364 0.0000 0.0000
# 5 0.0000 0.0000 0.0000 0.0000 20.4839 0.0000
# 6 0.0000 0.0000 0.0000 0.0000 0.0000 436.1173
#
#
#
# Elastic Compliance Matrix: (Units=1/GPa)
#
#
# Indices 1 2 3 4 5 6 
#
# 1 0.011835 -0.003650 -0.007638 0.000000 0.000000 0.000000
# 2 -0.003650 0.008877 -0.007969 0.000000 0.000000 0.000000
# 3 -0.007638 -0.007969 0.052202 0.000000 0.000000 0.000000
# 4 0.000000 0.000000 0.000000 0.039942 0.000000 0.000000
# 5 0.000000 0.000000 0.000000 0.000000 0.048819 0.000000
# 6 0.000000 0.000000 0.000000 0.000000 0.000000 0.002293
#
#
# Mechanical properties :
#
#
# Convention : Reuss Voigt Hill
#
# Bulk Modulus (GPa) = 29.06993 71.97550 50.52272
# Shear Modulus (GPa) = 23.37008 108.91482 66.14245
#
# Velocity S-wave (km/s) = 3.64527 7.86944 6.13254
# Velocity P-wave (km/s) = 5.85203 11.11285 8.88093
#
# Compressibility (1/GPa) = 0.03439981
#
# Stress axis : x y z
#
# Youngs Moduli (GPa) = 84.49818 112.64526 19.15626
#
# Poissons Ratio (x) = 0.41111 0.14632
# Poissons Ratio (y) = 0.30839 0.15266
# Poissons Ratio (z) = 0.64541 0.89772
#
# Static dielectric constant tensor:
#      x y z
#    x 3.400190 0.000000 0.000000 
#    y 0.000000 3.534200 0.000000 
#    z 0.000000 0.000000 3.036040 
# 
# 
# High freq. dielectric constant tensor:
#      x y z
#    x 1.691170 0.000000 0.000000 
#    y 0.000000 1.681530 0.000000 
#    z 0.000000 0.000000 1.652670 
# 
# From -- ./inp_files/19389.got.cif
#   From: 2010.03.12/outbox.cif.g09.slc.cpg/sg63_10_cif.got.tgz:19389.got - 2010.04.10 19:34:48.
