data_PCOD8261711
_publ_section_title
;
Structure prediction by ZEFSAII (Michael W. Deem and Ramdas Pophale) SiO2 
 PCOD8261711
Probable space group: C M C A
;
_chemical_formula_sum "Si O2"
_cell_formula_units_Z 96
_cell_length_a 14.069051
_cell_length_b 22.936014
_cell_length_c 12.549848
_cell_angle_alpha 90.000000
_cell_angle_beta 90.000000
_cell_angle_gamma 90.000000
_cell_volume 4049.684733
_symmetry_space_group_name_H-M "C M C A"
_symmetry_group_IT_number 64
_symmetry_cell_setting 'orthorhombic'
loop_
_space_group_symop_operation_xyz
x,y,z
-x,1/2-y,1/2+z
x,-y,-z
-x,1/2+y,1/2-z
-x,-y,-z
x,1/2+y,1/2-z
-x,y,z
x,1/2-y,1/2+z
1/2+x,1/2+y,z
1/2-x,-y,1/2+z
1/2+x,1/2-y,-z
1/2-x,y,1/2-z
1/2-x,1/2-y,-z
1/2+x,y,1/2-z
1/2-x,1/2+y,z
1/2+x,-y,1/2+z
loop_
_atom_site_type_symbol
_atom_site_label
_atom_site_fract_x
_atom_site_fract_y
_atom_site_fract_z
Si Si1 0.388402 0.070954 0.237733
Si Si2 0.888903 0.530965 0.612216
Si Si3 0.890914 0.141586 0.458314
Si Si4 0.713905 0.650825 0.911631
Si Si5 0.108604 0.827087 0.879709
Si Si6 0.606951 0.253298 0.190537
O O1 0.500000 0.080233 0.246750
O O2 0.360788 0.084843 0.114679
O O3 0.343318 0.119306 0.315931
O O4 0.357782 0.008302 0.284967
O O5 0.866366 0.500000 0.500000
O O6 0.827955 0.588875 0.621131
O O7 0.000000 0.546238 0.618904
O O8 0.826176 0.143371 0.564498
O O9 0.875050 0.199184 0.388252
O O10 0.000000 0.136144 0.496521
O O11 0.686584 0.696410 0.819233
O O12 0.666379 0.681115 0.013491
O O13 0.116829 0.768093 0.812002
O O14 0.000000 0.840837 0.910162
O O15 0.500000 0.277571 0.170895
#
# Coordination Sequence:
#
# PCOD8261711 Si02
#       6
#    16  16  16  16  16  16
#     4   8  15  31  51  77 119 160 198 250 311 370
#     4  10  18  30  52  91 128 147 191 263 326 378
#     4   9  20  37  55  83 122 169 215 254 304 373
#     4  12  20  31  60  95 121 161 218 261 309 378
#     4   9  17  31  52  84 125 163 196 246 315 381
#     4   9  19  34  52  86 132 166 203 259 321 381
#
# _framework density 23.705551
#
# number of rings (size 3 to 8) (size 9 to 14) (size 15 to 20)
#    0.000    2.500    1.667    4.000    0.000    2.667 
#    0.000    0.000    0.000    1.500   17.333    3.500 
#    0.000    0.000    0.000    2.500    0.000    0.000 
#
# Total GULP energy -594946.006866 kJ/mol
# GULP energy per Si atom -12394.708476 kJ/mol
# Density = 2.365160 g / cm^3
# Si number density = 23.705551 Si / 1000 Ang^3
#
#
#
# Elastic Constant Matrix: (Units=GPa)
#
#
# Indices 1 2 3 4 5 6 
#
# 1 110.3842 53.3239 35.6881 0.0000 0.0000 0.0000
# 2 53.3239 120.0827 34.2459 0.0000 0.0000 0.0000
# 3 35.6881 34.2459 48.4782 0.0000 0.0000 0.0000
# 4 0.0000 0.0000 0.0000 34.5223 0.0000 0.0000
# 5 0.0000 0.0000 0.0000 0.0000 29.1302 0.0000
# 6 0.0000 0.0000 0.0000 0.0000 0.0000 8.4877
#
#
#
# Elastic Compliance Matrix: (Units=1/GPa)
#
#
# Indices 1 2 3 4 5 6 
#
# 1 0.013181 -0.003864 -0.006973 0.000000 0.000000 0.000000
# 2 -0.003864 0.011561 -0.005322 0.000000 0.000000 0.000000
# 3 -0.006973 -0.005322 0.029521 0.000000 0.000000 0.000000
# 4 0.000000 0.000000 0.000000 0.028967 0.000000 0.000000
# 5 0.000000 0.000000 0.000000 0.000000 0.034329 0.000000
# 6 0.000000 0.000000 0.000000 0.000000 0.000000 0.117818
#
#
# Mechanical properties :
#
#
# Convention : Reuss Voigt Hill
#
# Bulk Modulus (GPa) = 45.57232 58.38454 51.97843
# Shear Modulus (GPa) = 18.18109 24.80718 21.49414
#
# Velocity S-wave (km/s) = 2.77240 3.23843 3.01443
# Velocity P-wave (km/s) = 5.43271 6.21818 5.83867
#
# Compressibility (1/GPa) = 0.02194315
#
# Stress axis : x y z
#
# Youngs Moduli (GPa) = 75.86951 86.49444 33.87392
#
# Poissons Ratio (x) = 0.33424 0.23621
# Poissons Ratio (y) = 0.29318 0.18029
# Poissons Ratio (z) = 0.52906 0.46036
#
# Static dielectric constant tensor:
#      x y z
#    x 4.272200 0.000000 0.000000 
#    y 0.000000 4.191760 0.000000 
#    z 0.000000 0.000000 4.187160 
# 
# 
# High freq. dielectric constant tensor:
#      x y z
#    x 1.939880 0.000000 0.000000 
#    y 0.000000 1.922530 0.000000 
#    z 0.000000 0.000000 1.919320 
# 
# From -- ./inp_files/23955.got.cif
#   From: 2010.03.12/outbox.cif.g09.slc.cpg/sg64_12_cif.got.tgz:23955.got - 2010.04.10 20:19:32.
