data_PCOD8261027
_publ_section_title
;
Structure prediction by ZEFSAII (Michael W. Deem and Ramdas Pophale) SiO2 
 PCOD8261027
Probable space group: C M C M
;
_chemical_formula_sum "Si O2"
_cell_formula_units_Z 112
_cell_length_a 15.241262
_cell_length_b 20.907436
_cell_length_c 15.200550
_cell_angle_alpha 90.000000
_cell_angle_beta 90.000000
_cell_angle_gamma 90.000000
_cell_volume 4843.742050
_symmetry_space_group_name_H-M "C M C M"
_symmetry_group_IT_number 63
_symmetry_cell_setting 'orthorhombic'
loop_
_space_group_symop_operation_xyz
x,y,z
-x,-y,1/2+z
x,-y,-z
-x,y,1/2-z
-x,-y,-z
x,y,1/2-z
-x,y,z
x,-y,1/2+z
1/2+x,1/2+y,z
1/2-x,1/2-y,1/2+z
1/2+x,1/2-y,-z
1/2-x,1/2+y,1/2-z
1/2-x,1/2-y,-z
1/2+x,1/2+y,1/2-z
1/2-x,1/2+y,z
1/2+x,1/2-y,1/2+z
loop_
_atom_site_type_symbol
_atom_site_label
_atom_site_fract_x
_atom_site_fract_y
_atom_site_fract_z
Si Si1 0.899719 0.630826 0.883914
Si Si2 0.716360 0.988105 0.153201
Si Si3 0.597644 0.092077 0.080337
Si Si4 0.169687 0.286824 0.844538
Si Si5 0.404817 0.313921 0.035706
Si Si6 0.900157 0.064757 0.648766
Si Si7 0.632069 0.722110 0.345986
O O1 0.829948 0.581349 0.843839
O O2 0.871814 0.701428 0.855097
O O3 0.000000 0.616454 0.852521
O O4 0.893405 0.627265 0.988143
O O5 0.705090 0.018267 0.250000
O O6 0.821157 0.985637 0.131654
O O7 0.667007 0.034078 0.084549
O O8 0.500000 0.063359 0.094770
O O9 0.615445 0.147577 0.150271
O O10 0.144621 0.254890 0.750000
O O11 0.159071 0.239712 0.926831
O O12 0.270720 0.305252 0.845644
O O13 0.500000 0.296212 0.073667
O O14 0.378249 0.381823 0.076029
O O15 0.411709 0.313480 0.929216
O O16 0.892772 0.089936 0.750000
O O17 0.000000 0.037131 0.633603
O O18 0.589106 0.704633 0.250000
#
# Coordination Sequence:
#
# PCOD8261027 Si02
#       7
#    16  16  16  16  16  16  16
#     4  11  23  40  61  90 127 171 218 262 315 378
#     4  11  23  39  63  93 125 169 218 267 323 376
#     4  11  24  41  62  93 131 171 212 260 319 383
#     4  11  23  38  60  93 130 168 212 261 321 385
#     4  11  21  36  61  92 126 163 204 261 328 381
#     4   9  20  39  65  98 129 162 215 274 326 383
#     4  11  24  40  61  91 128 171 218 263 317 385
#
# _framework density 23.122619
#
# number of rings (size 3 to 8) (size 9 to 14) (size 15 to 20)
#    0.000    1.286    1.429    4.286    2.000    8.571 
#    0.000    0.000    0.000    3.429    0.000    4.000 
#    0.000    0.000    0.000    0.000    0.000    0.000 
#
# Total GULP energy -693934.191220 kJ/mol
# GULP energy per Si atom -12391.681986 kJ/mol
# Density = 2.306999 g / cm^3
# Si number density = 23.122619 Si / 1000 Ang^3
#
#
#
# Elastic Constant Matrix: (Units=GPa)
#
#
# Indices 1 2 3 4 5 6 
#
# 1 137.5023 42.1861 36.1403 0.0000 0.0000 0.0000
# 2 42.1861 46.9147 33.9983 0.0000 0.0000 0.0000
# 3 36.1403 33.9983 123.4322 0.0000 0.0000 0.0000
# 4 0.0000 0.0000 0.0000 23.5522 0.0000 0.0000
# 5 0.0000 0.0000 0.0000 0.0000 6.7236 0.0000
# 6 0.0000 0.0000 0.0000 0.0000 0.0000 34.3573
#
#
#
# Elastic Compliance Matrix: (Units=1/GPa)
#
#
# Indices 1 2 3 4 5 6 
#
# 1 0.010075 -0.008648 -0.000568 0.000000 0.000000 0.000000
# 2 -0.008648 0.034054 -0.006848 0.000000 0.000000 0.000000
# 3 -0.000568 -0.006848 0.010154 0.000000 0.000000 0.000000
# 4 0.000000 0.000000 0.000000 0.042459 0.000000 0.000000
# 5 0.000000 0.000000 0.000000 0.000000 0.148730 0.000000
# 6 0.000000 0.000000 0.000000 0.000000 0.000000 0.029106
#
#
# Mechanical properties :
#
#
# Convention : Reuss Voigt Hill
#
# Bulk Modulus (GPa) = 45.13490 59.16650 52.15070
# Shear Modulus (GPa) = 15.91896 25.96159 20.94028
#
# Velocity S-wave (km/s) = 2.62670 3.35442 3.01261
# Velocity P-wave (km/s) = 5.36298 6.37547 5.89102
#
# Compressibility (1/GPa) = 0.02215580
#
# Stress axis : x y z
#
# Youngs Moduli (GPa) = 99.25426 29.36490 98.48276
#
# Poissons Ratio (x) = 0.25395 0.05593
# Poissons Ratio (y) = 0.85836 0.67439
# Poissons Ratio (z) = 0.05637 0.20109
#
# Static dielectric constant tensor:
#      x y z
#    x 4.377460 0.000000 0.000000 
#    y 0.000000 3.673060 0.000000 
#    z 0.000000 0.000000 4.458860 
# 
# 
# High freq. dielectric constant tensor:
#      x y z
#    x 1.925970 0.000000 0.000000 
#    y 0.000000 1.874480 0.000000 
#    z 0.000000 0.000000 1.929710 
# 
# From -- ./inp_files/32328.got.cif
#   From: 2010.03.12/outbox.cif.g09.slc.cpg/sg63_17_cif.got.tgz:32328.got - 2010.04.10 19:34:48.
