data_PCOD8261249
_publ_section_title
;
Structure prediction by ZEFSAII (Michael W. Deem and Ramdas Pophale) SiO2 
 PCOD8261249
Probable space group: C M C M
;
_chemical_formula_sum "Si O2"
_cell_formula_units_Z 104
_cell_length_a 28.208463
_cell_length_b 9.235263
_cell_length_c 20.617959
_cell_angle_alpha 90.000000
_cell_angle_beta 90.000000
_cell_angle_gamma 90.000000
_cell_volume 5371.237583
_symmetry_space_group_name_H-M "C M C M"
_symmetry_group_IT_number 63
_symmetry_cell_setting 'orthorhombic'
loop_
_space_group_symop_operation_xyz
x,y,z
-x,-y,1/2+z
x,-y,-z
-x,y,1/2-z
-x,-y,-z
x,y,1/2-z
-x,y,z
x,-y,1/2+z
1/2+x,1/2+y,z
1/2-x,1/2-y,1/2+z
1/2+x,1/2-y,-z
1/2-x,1/2+y,1/2-z
1/2-x,1/2-y,-z
1/2+x,1/2+y,1/2-z
1/2-x,1/2+y,z
1/2+x,1/2-y,1/2+z
loop_
_atom_site_type_symbol
_atom_site_label
_atom_site_fract_x
_atom_site_fract_y
_atom_site_fract_z
Si Si1 0.708809 0.495133 0.322938
Si Si2 0.947052 0.113674 0.250000
Si Si3 0.799769 0.329147 0.492887
Si Si4 0.053782 0.878751 0.141608
Si Si5 0.301595 0.180937 0.849368
Si Si6 0.445137 0.848149 0.750000
Si Si7 0.642976 0.396587 0.438170
Si Si8 0.878456 0.619868 0.750000
O O1 0.696487 0.438988 0.250000
O O2 0.714784 0.667812 0.318652
O O3 0.757907 0.429656 0.347929
O O4 0.667621 0.454520 0.372924
O O5 0.940177 0.020971 0.314835
O O6 0.906591 0.231415 0.250000
O O7 0.000000 0.181474 0.250000
O O8 0.793296 0.500000 0.500000
O O9 0.750000 0.250000 0.500000
O O10 0.819840 0.294773 0.422003
O O11 0.836374 0.262592 0.545007
O O12 0.000000 0.866531 0.115861
O O13 0.067221 0.741248 0.185513
O O14 0.087401 0.883772 0.078490
O O15 0.345495 0.109729 0.812691
O O16 0.500000 0.891238 0.750000
O O17 0.414826 0.990969 0.750000
O O18 0.651589 0.500000 0.500000
#
# Coordination Sequence:
#
# PCOD8261249 Si02
#       8
#    16   8  16  16  16   8  16   8
#     4  12  24  42  59  92 129 169 211 266 310 366
#     4   9  19  39  65  93 126 163 204 264 325 373
#     4  12  25  44  63  86 126 173 218 255 305 379
#     4   9  21  42  67  94 122 158 209 263 316 379
#     4  12  25  40  60  89 128 167 213 260 309 367
#     4   9  21  41  65  93 124 161 206 256 321 385
#     4  12  25  41  67  92 125 171 212 256 322 380
#     4  12  23  36  62  96 128 160 205 260 314 380
#
# _framework density 19.362390000000001
#
# number of rings (size 3 to 8) (size 9 to 14) (size 15 to 20)
#    0.000    0.923    4.615    3.462    4.308    0.308 
#    0.000    0.000    0.000    0.462    0.000    0.000 
#    0.000    0.000    0.000    0.000    0.000    0.000 
#
# Total GULP energy -644921.844779 kJ/mol
# GULP energy per Si atom -12402.343169 kJ/mol
# Density = 1.931832 g / cm^3
# Si number density = 19.362390 Si / 1000 Ang^3
#
#
#
# Elastic Constant Matrix: (Units=GPa)
#
#
# Indices 1 2 3 4 5 6 
#
# 1 92.3456 29.7362 38.7028 0.0000 0.0000 0.0000
# 2 29.7362 95.0740 15.8071 0.0000 0.0000 0.0000
# 3 38.7028 15.8071 111.0780 0.0000 0.0000 0.0000
# 4 0.0000 0.0000 0.0000 12.7304 0.0000 0.0000
# 5 0.0000 0.0000 0.0000 0.0000 33.4467 0.0000
# 6 0.0000 0.0000 0.0000 0.0000 0.0000 28.1045
#
#
#
# Elastic Compliance Matrix: (Units=1/GPa)
#
#
# Indices 1 2 3 4 5 6 
#
# 1 0.013786 -0.003598 -0.004291 0.000000 0.000000 0.000000
# 2 -0.003598 0.011712 -0.000413 0.000000 0.000000 0.000000
# 3 -0.004291 -0.000413 0.010557 0.000000 0.000000 0.000000
# 4 0.000000 0.000000 0.000000 0.078552 0.000000 0.000000
# 5 0.000000 0.000000 0.000000 0.000000 0.029898 0.000000
# 6 0.000000 0.000000 0.000000 0.000000 0.000000 0.035582
#
#
# Mechanical properties :
#
#
# Convention : Reuss Voigt Hill
#
# Bulk Modulus (GPa) = 51.41496 51.88778 51.65137
# Shear Modulus (GPa) = 24.60923 29.13974 26.87449
#
# Velocity S-wave (km/s) = 3.56895 3.88360 3.72959
# Velocity P-wave (km/s) = 6.60264 6.85319 6.72908
#
# Compressibility (1/GPa) = 0.01944959
#
# Stress axis : x y z
#
# Youngs Moduli (GPa) = 72.53640 85.38074 94.72645
#
# Poissons Ratio (x) = 0.30723 0.40651
# Poissons Ratio (y) = 0.26101 0.03912
# Poissons Ratio (z) = 0.31129 0.03526
#
# Static dielectric constant tensor:
#      x y z
#    x 3.535450 0.000000 0.000000 
#    y 0.000000 3.593510 0.000000 
#    z 0.000000 0.000000 3.806900 
# 
# 
# High freq. dielectric constant tensor:
#      x y z
#    x 1.752200 0.000000 0.000000 
#    y 0.000000 1.755350 0.000000 
#    z 0.000000 0.000000 1.758600 
# 
# From -- ./inp_files/58223.got.cif
#   From: 2010.03.12/outbox.cif.g09.slc.cpg/sg63_30_cif.got.tgz:58223.got - 2010.04.10 19:34:48.
