data_PCOD8261722
_publ_section_title
;
Structure prediction by ZEFSAII (Michael W. Deem and Ramdas Pophale) SiO2 
 PCOD8261722
Probable space group: C M C A
;
_chemical_formula_sum "Si O2"
_cell_formula_units_Z 96
_cell_length_a 8.344716
_cell_length_b 23.897003
_cell_length_c 25.975509
_cell_angle_alpha 90.000000
_cell_angle_beta 90.000000
_cell_angle_gamma 90.000000
_cell_volume 5179.872444
_symmetry_space_group_name_H-M "C M C A"
_symmetry_group_IT_number 64
_symmetry_cell_setting 'orthorhombic'
loop_
_space_group_symop_operation_xyz
x,y,z
-x,1/2-y,1/2+z
x,-y,-z
-x,1/2+y,1/2-z
-x,-y,-z
x,1/2+y,1/2-z
-x,y,z
x,1/2-y,1/2+z
1/2+x,1/2+y,z
1/2-x,-y,1/2+z
1/2+x,1/2-y,-z
1/2-x,y,1/2-z
1/2-x,1/2-y,-z
1/2+x,y,1/2-z
1/2-x,1/2+y,z
1/2+x,-y,1/2+z
loop_
_atom_site_type_symbol
_atom_site_label
_atom_site_fract_x
_atom_site_fract_y
_atom_site_fract_z
Si Si1 0.810527 0.743558 0.613617
Si Si2 0.316408 0.868834 0.427770
Si Si3 0.314732 0.409737 0.891164
Si Si4 0.815002 0.326629 0.970348
Si Si5 0.314775 0.512035 0.558052
Si Si6 0.810013 0.334708 0.807485
O O1 0.760477 0.677774 0.614916
O O2 0.751033 0.771718 0.559979
O O3 0.746249 0.778901 0.662446
O O4 0.000000 0.748684 0.613183
O O5 0.500000 0.886763 0.419321
O O6 0.300951 0.837092 0.481931
O O7 0.206522 0.923361 0.425854
O O8 0.500000 0.395868 0.900851
O O9 0.200441 0.378703 0.931576
O O10 0.282917 0.475654 0.900142
O O11 0.265143 0.390168 0.833753
O O12 0.000000 0.322773 0.988122
O O13 0.250089 0.500000 0.500000
O O14 0.500000 0.496415 0.561359
O O15 0.750000 0.329985 0.750000
O O16 0.000000 0.339438 0.809030
#
# Coordination Sequence:
#
# PCOD8261722 Si02
#       6
#    16  16  16  16  16  16
#     4   8  18  33  50  74 106 138 171 216 265 312
#     4  11  20  31  49  74 104 142 184 219 256 312
#     4  11  21  34  54  80 106 138 182 226 266 313
#     4  10  18  31  48  71 106 144 175 213 262 311
#     4  11  22  35  51  72 107 149 184 222 270 318
#     4  10  20  38  61  84 109 136 171 218 273 322
#
# _framework density 18.533275
#
# number of rings (size 3 to 8) (size 9 to 14) (size 15 to 20)
#    0.000    1.833    1.667    5.000    0.000    0.667 
#    0.000    9.167    0.000    1.000    0.000    4.667 
#    0.000    0.000    0.000    0.000    0.000    0.000 
#
# Total GULP energy -595028.934416 kJ/mol
# GULP energy per Si atom -12396.436134 kJ/mol
# Density = 1.849109 g / cm^3
# Si number density = 18.533275 Si / 1000 Ang^3
#
#
#
# Elastic Constant Matrix: (Units=GPa)
#
#
# Indices 1 2 3 4 5 6 
#
# 1 56.6184 21.3083 7.3053 0.0000 0.0000 0.0000
# 2 21.3083 129.2715 46.9426 0.0000 0.0000 0.0000
# 3 7.3053 46.9426 79.1403 0.0000 0.0000 0.0000
# 4 0.0000 0.0000 0.0000 13.7777 0.0000 0.0000
# 5 0.0000 0.0000 0.0000 0.0000 23.7170 0.0000
# 6 0.0000 0.0000 0.0000 0.0000 0.0000 21.3883
#
#
#
# Elastic Compliance Matrix: (Units=1/GPa)
#
#
# Indices 1 2 3 4 5 6 
#
# 1 0.018831 -0.003152 0.000131 0.000000 0.000000 0.000000
# 2 -0.003152 0.010387 -0.005870 0.000000 0.000000 0.000000
# 3 0.000131 -0.005870 0.016106 0.000000 0.000000 0.000000
# 4 0.000000 0.000000 0.000000 0.072581 0.000000 0.000000
# 5 0.000000 0.000000 0.000000 0.000000 0.042164 0.000000
# 6 0.000000 0.000000 0.000000 0.000000 0.000000 0.046755
#
#
# Mechanical properties :
#
#
# Convention : Reuss Voigt Hill
#
# Bulk Modulus (GPa) = 36.30757 46.23807 41.27282
# Shear Modulus (GPa) = 21.38717 24.40820 22.89768
#
# Velocity S-wave (km/s) = 3.40072 3.63298 3.51877
# Velocity P-wave (km/s) = 5.92055 6.52693 6.23112
#
# Compressibility (1/GPa) = 0.02754247
#
# Stress axis : x y z
#
# Youngs Moduli (GPa) = 53.10305 96.27650 62.09043
#
# Poissons Ratio (x) = 0.30343 -0.00814
# Poissons Ratio (y) = 0.16736 0.36447
# Poissons Ratio (z) = -0.00696 0.56515
#
# Static dielectric constant tensor:
#      x y z
#    x 3.225890 0.000000 0.000000 
#    y 0.000000 3.611580 0.000000 
#    z 0.000000 0.000000 3.544240 
# 
# 
# High freq. dielectric constant tensor:
#      x y z
#    x 1.717230 0.000000 0.000000 
#    y 0.000000 1.725190 0.000000 
#    z 0.000000 0.000000 1.676970 
# 
# From -- ./inp_files/43021.got.cif
#   From: 2010.03.12/outbox.cif.g09.slc.cpg/sg64_22_cif.got.tgz:43021.got - 2010.04.10 20:19:32.
