data_PCOD8261731
_publ_section_title
;
Structure prediction by ZEFSAII (Michael W. Deem and Ramdas Pophale) SiO2 
 PCOD8261731
Probable space group: C M C A
;
_chemical_formula_sum "Si O2"
_cell_formula_units_Z 128
_cell_length_a 18.412230
_cell_length_b 23.318002
_cell_length_c 17.737334
_cell_angle_alpha 90.000000
_cell_angle_beta 90.000000
_cell_angle_gamma 90.000000
_cell_volume 7615.283408
_symmetry_space_group_name_H-M "C M C A"
_symmetry_group_IT_number 64
_symmetry_cell_setting 'orthorhombic'
loop_
_space_group_symop_operation_xyz
x,y,z
-x,1/2-y,1/2+z
x,-y,-z
-x,1/2+y,1/2-z
-x,-y,-z
x,1/2+y,1/2-z
-x,y,z
x,1/2-y,1/2+z
1/2+x,1/2+y,z
1/2-x,-y,1/2+z
1/2+x,1/2-y,-z
1/2-x,y,1/2-z
1/2-x,1/2-y,-z
1/2+x,y,1/2-z
1/2-x,1/2+y,z
1/2+x,-y,1/2+z
loop_
_atom_site_type_symbol
_atom_site_label
_atom_site_fract_x
_atom_site_fract_y
_atom_site_fract_z
Si Si1 0.304847 0.778806 0.897544
Si Si2 0.915418 0.945251 0.819251
Si Si3 0.146499 0.723715 0.457772
Si Si4 0.325337 0.172513 0.712686
Si Si5 0.417098 0.248239 0.309508
Si Si6 0.416843 0.072676 0.641013
Si Si7 0.165333 0.354018 0.767227
Si Si8 0.583936 0.604240 0.022696
O O1 0.220579 0.788701 0.913169
O O2 0.311165 0.722546 0.846634
O O3 0.340991 0.833529 0.854677
O O4 0.346449 0.770472 0.976114
O O5 0.870065 0.916016 0.750762
O O6 0.885398 0.924077 0.900669
O O7 0.000000 0.930146 0.808649
O O8 0.902613 0.013203 0.815935
O O9 0.087474 0.749609 0.400231
O O10 0.122178 0.664297 0.494675
O O11 0.250000 0.152777 0.750000
O O12 0.379788 0.195077 0.776775
O O13 0.360795 0.118145 0.673239
O O14 0.500000 0.246555 0.282492
O O15 0.377028 0.190395 0.285068
O O16 0.500000 0.093205 0.653993
O O17 0.403602 0.064329 0.550907
O O18 0.250000 0.353967 0.750000
O O19 0.500000 0.616378 0.035959
#
# Coordination Sequence:
#
# PCOD8261731 Si02
#       8
#    16  16  16  16  16  16  16  16
#     4  10  20  32  51  73 105 137 168 211 259 305
#     4  10  20  34  53  74 102 137 173 213 262 313
#     4  11  18  32  51  77 103 139 169 205 257 317
#     4  11  20  36  50  73 103 137 173 212 256 306
#     4  11  20  32  51  76 106 139 170 206 257 315
#     4  10  21  35  51  75 102 135 175 216 261 308
#     4  11  19  34  51  76 103 134 173 214 256 310
#     4  10  18  31  50  75 105 134 166 207 255 314
#
# _framework density 16.808304
#
# number of rings (size 3 to 8) (size 9 to 14) (size 15 to 20)
#    0.000    1.500    5.000    2.250    0.000    2.000 
#    0.000    1.875    0.000    0.000    0.000    0.875 
#    0.000    3.000    0.000    0.000    0.000    0.250 
#
# Total GULP energy -793479.504366 kJ/mol
# GULP energy per Si atom -12398.117256 kJ/mol
# Density = 1.677005 g / cm^3
# Si number density = 16.808304 Si / 1000 Ang^3
#
#
#
# Elastic Constant Matrix: (Units=GPa)
#
#
# Indices 1 2 3 4 5 6 
#
# 1 80.2615 28.0038 30.9255 0.0000 0.0000 0.0000
# 2 28.0038 63.7277 31.9440 0.0000 0.0000 0.0000
# 3 30.9255 31.9440 84.8814 0.0000 0.0000 0.0000
# 4 0.0000 0.0000 0.0000 27.4511 0.0000 0.0000
# 5 0.0000 0.0000 0.0000 0.0000 16.6162 0.0000
# 6 0.0000 0.0000 0.0000 0.0000 0.0000 10.0799
#
#
#
# Elastic Compliance Matrix: (Units=1/GPa)
#
#
# Indices 1 2 3 4 5 6 
#
# 1 0.015670 -0.004960 -0.003843 0.000000 0.000000 0.000000
# 2 -0.004960 0.020910 -0.006062 0.000000 0.000000 0.000000
# 3 -0.003843 -0.006062 0.015463 0.000000 0.000000 0.000000
# 4 0.000000 0.000000 0.000000 0.036428 0.000000 0.000000
# 5 0.000000 0.000000 0.000000 0.000000 0.060182 0.000000
# 6 0.000000 0.000000 0.000000 0.000000 0.000000 0.099207
#
#
# Mechanical properties :
#
#
# Convention : Reuss Voigt Hill
#
# Bulk Modulus (GPa) = 44.81584 45.62415 45.21999
# Shear Modulus (GPa) = 17.54213 20.02927 18.78570
#
# Velocity S-wave (km/s) = 3.23408 3.45574 3.34675
# Velocity P-wave (km/s) = 6.37703 6.56701 6.47272
#
# Compressibility (1/GPa) = 0.02231354
#
# Stress axis : x y z
#
# Youngs Moduli (GPa) = 63.81440 47.82413 64.67209
#
# Poissons Ratio (x) = 0.23720 0.24852
# Poissons Ratio (y) = 0.31651 0.39205
# Poissons Ratio (z) = 0.24522 0.28992
#
# Static dielectric constant tensor:
#      x y z
#    x 3.159340 0.000000 0.000000 
#    y 0.000000 3.021520 0.000000 
#    z 0.000000 0.000000 3.285460 
# 
# 
# High freq. dielectric constant tensor:
#      x y z
#    x 1.644840 0.000000 0.000000 
#    y 0.000000 1.628020 0.000000 
#    z 0.000000 0.000000 1.647580 
# 
# From -- ./inp_files/33795.got.cif
#   From: 2010.03.12/outbox.cif.g09.slc.cpg/sg64_17_cif.got.tgz:33795.got - 2010.04.10 20:19:32.
