data_PCOD8261962
_publ_section_title
;
Structure prediction by ZEFSAII (Michael W. Deem and Ramdas Pophale) SiO2 
 PCOD8261962
Probable space group: C M C A
;
_chemical_formula_sum "Si O2"
_cell_formula_units_Z 96
_cell_length_a 13.914421
_cell_length_b 14.896822
_cell_length_c 22.319593
_cell_angle_alpha 90.000000
_cell_angle_beta 90.000000
_cell_angle_gamma 90.000000
_cell_volume 4626.419809
_symmetry_space_group_name_H-M "C M C A"
_symmetry_group_IT_number 64
_symmetry_cell_setting 'orthorhombic'
loop_
_space_group_symop_operation_xyz
x,y,z
-x,1/2-y,1/2+z
x,-y,-z
-x,1/2+y,1/2-z
-x,-y,-z
x,1/2+y,1/2-z
-x,y,z
x,1/2-y,1/2+z
1/2+x,1/2+y,z
1/2-x,-y,1/2+z
1/2+x,1/2-y,-z
1/2-x,y,1/2-z
1/2-x,1/2-y,-z
1/2+x,y,1/2-z
1/2-x,1/2+y,z
1/2+x,-y,1/2+z
loop_
_atom_site_type_symbol
_atom_site_label
_atom_site_fract_x
_atom_site_fract_y
_atom_site_fract_z
Si Si1 0.500000 0.553721 0.821473
Si Si2 0.708841 0.902073 0.598327
Si Si3 0.304294 0.747787 0.694165
Si Si4 0.500000 0.338333 0.295439
Si Si5 0.500000 0.612273 0.102602
Si Si6 0.702869 0.410469 0.134096
Si Si7 0.295067 0.156022 0.983643
Si Si8 0.000000 0.681571 0.924156
O O1 0.500000 0.577337 0.750535
O O2 0.500000 0.444801 0.833616
O O3 0.590304 0.601609 0.853070
O O4 0.707126 0.809873 0.635908
O O5 0.600257 0.915398 0.570229
O O6 0.786840 0.901787 0.544843
O O7 0.733435 0.984929 0.642289
O O8 0.250000 0.793117 0.750000
O O9 0.411951 0.729602 0.714730
O O10 0.261509 0.649758 0.680105
O O11 0.500000 0.379730 0.363722
O O12 0.500000 0.720131 0.106749
O O13 0.726845 0.386341 0.065964
O O14 0.250000 0.250000 0.000000
O O15 0.406201 0.162970 0.964034
#
# Coordination Sequence:
#
# PCOD8261962 Si02
#       8
#     8  16  16   8   8  16  16   8
#     4  10  24  36  64  96 131 164 221 281 325 387
#     4  11  23  42  65  98 132 171 221 269 334 397
#     4  12  23  41  67  92 128 173 219 270 335 393
#     4  12  20  42  66  87 129 174 212 262 340 390
#     4  10  18  39  63  95 123 165 216 274 324 388
#     4  11  23  41  64  95 132 168 218 275 324 389
#     4  12  22  41  67  94 129 176 215 269 337 399
#     4  12  22  39  72  94 130 177 222 269 333 409
#
# _framework density 20.750387
#
# number of rings (size 3 to 8) (size 9 to 14) (size 15 to 20)
#    0.000    0.667    8.333    0.500    0.000    2.000 
#    0.000    5.833    0.000    0.000    0.000    0.000 
#    0.000    0.000    0.000    0.000    0.000    0.000 
#
# Total GULP energy -594732.389961 kJ/mol
# GULP energy per Si atom -12390.258124 kJ/mol
# Density = 2.070316 g / cm^3
# Si number density = 20.750387 Si / 1000 Ang^3
#
#
#
# Elastic Constant Matrix: (Units=GPa)
#
#
# Indices 1 2 3 4 5 6 
#
# 1 160.9939 46.0198 75.5990 0.0000 0.0000 0.0000
# 2 46.0198 88.9209 32.1091 0.0000 0.0000 0.0000
# 3 75.5990 32.1091 120.9390 0.0000 0.0000 0.0000
# 4 0.0000 0.0000 0.0000 34.8735 0.0000 0.0000
# 5 0.0000 0.0000 0.0000 0.0000 36.0105 0.0000
# 6 0.0000 0.0000 0.0000 0.0000 0.0000 19.6546
#
#
#
# Elastic Compliance Matrix: (Units=1/GPa)
#
#
# Indices 1 2 3 4 5 6 
#
# 1 0.009491 -0.003063 -0.005120 0.000000 0.000000 0.000000
# 2 -0.003063 0.013427 -0.001650 0.000000 0.000000 0.000000
# 3 -0.005120 -0.001650 0.011907 0.000000 0.000000 0.000000
# 4 0.000000 0.000000 0.000000 0.028675 0.000000 0.000000
# 5 0.000000 0.000000 0.000000 0.000000 0.027770 0.000000
# 6 0.000000 0.000000 0.000000 0.000000 0.000000 0.050879
#
#
# Mechanical properties :
#
#
# Convention : Reuss Voigt Hill
#
# Bulk Modulus (GPa) = 65.96572 75.36773 70.66672
# Shear Modulus (GPa) = 29.96388 32.58277 31.27333
#
# Velocity S-wave (km/s) = 3.80414 3.96691 3.88638
# Velocity P-wave (km/s) = 7.15224 7.57507 7.36669
#
# Compressibility (1/GPa) = 0.01515939
#
# Stress axis : x y z
#
# Youngs Moduli (GPa) = 105.36187 74.47603 83.98453
#
# Poissons Ratio (x) = 0.22814 0.42997
# Poissons Ratio (y) = 0.32276 0.13857
# Poissons Ratio (z) = 0.53941 0.12289
#
# Static dielectric constant tensor:
#      x y z
#    x 4.113110 0.000000 0.000000 
#    y 0.000000 4.044720 0.000000 
#    z 0.000000 0.000000 3.894660 
# 
# 
# High freq. dielectric constant tensor:
#      x y z
#    x 1.822570 0.000000 0.000000 
#    y 0.000000 1.806210 0.000000 
#    z 0.000000 0.000000 1.800400 
# 
# From -- ./inp_files/39308.got.cif
#   From: 2010.03.12/outbox.cif.g09.slc.cpg/sg64_20_cif.got.tgz:39308.got - 2010.04.10 20:19:32.
