data_PCOD8261236
_publ_section_title
;
Structure prediction by ZEFSAII (Michael W. Deem and Ramdas Pophale) SiO2 
 PCOD8261236
Probable space group: C M C M
;
_chemical_formula_sum "Si O2"
_cell_formula_units_Z 112
_cell_length_a 26.102787
_cell_length_b 14.026354
_cell_length_c 14.419004
_cell_angle_alpha 90.000000
_cell_angle_beta 90.000000
_cell_angle_gamma 90.000000
_cell_volume 5279.185680
_symmetry_space_group_name_H-M "C M C M"
_symmetry_group_IT_number 63
_symmetry_cell_setting 'orthorhombic'
loop_
_space_group_symop_operation_xyz
x,y,z
-x,-y,1/2+z
x,-y,-z
-x,y,1/2-z
-x,-y,-z
x,y,1/2-z
-x,y,z
x,-y,1/2+z
1/2+x,1/2+y,z
1/2-x,1/2-y,1/2+z
1/2+x,1/2-y,-z
1/2-x,1/2+y,1/2-z
1/2-x,1/2-y,-z
1/2+x,1/2+y,1/2-z
1/2-x,1/2+y,z
1/2+x,1/2-y,1/2+z
loop_
_atom_site_type_symbol
_atom_site_label
_atom_site_fract_x
_atom_site_fract_y
_atom_site_fract_z
Si Si1 0.390672 0.100035 0.479328
Si Si2 0.204062 0.394671 0.855251
Si Si3 0.440212 0.263301 0.355899
Si Si4 0.280208 0.328852 0.354847
Si Si5 0.371588 0.561791 0.911601
Si Si6 0.335799 0.806539 0.358169
Si Si7 0.685990 0.603581 0.148890
O O1 0.340513 0.068056 0.421684
O O2 0.423455 0.176789 0.421774
O O3 0.377594 0.140755 0.580337
O O4 0.420736 0.000000 0.500000
O O5 0.191828 0.428412 0.750000
O O6 0.206061 0.281106 0.863563
O O7 0.259461 0.434538 0.891643
O O8 0.425931 0.236289 0.250000
O O9 0.500000 0.279659 0.368810
O O10 0.415046 0.365707 0.379214
O O11 0.293179 0.364025 0.250000
O O12 0.317927 0.381797 0.427910
O O13 0.220830 0.350096 0.376667
O O14 0.356900 0.478062 0.839472
O O15 0.388564 0.500000 0.000000
O O16 0.351571 0.815527 0.250000
O O17 0.336853 0.698121 0.398857
O O18 0.702333 0.643462 0.250000
#
# Coordination Sequence:
#
# PCOD8261236 Si02
#       7
#    16  16  16  16  16  16  16
#     4  12  25  38  63  95 127 162 212 281 330 400
#     4   9  19  35  55  83 126 175 218 261 309 372
#     4  11  26  51  76  94 121 168 228 291 348 398
#     4   9  18  34  55  81 129 185 229 257 293 371
#     4  12  23  34  62  99 132 169 213 268 325 388
#     4   9  21  38  54  86 137 188 218 255 318 394
#     4   9  19  33  52  82 127 176 215 251 301 374
#
# _framework density 21.215394
#
# number of rings (size 3 to 8) (size 9 to 14) (size 15 to 20)
#    0.000    1.857    1.429    4.286    4.000    2.857 
#    0.000    0.000    0.000    0.429    0.000    0.000 
#    0.000    0.000    0.000    0.000    0.000    0.000 
#
# Total GULP energy -693751.987601 kJ/mol
# GULP energy per Si atom -12388.428350 kJ/mol
# Density = 2.116711 g / cm^3
# Si number density = 21.215394 Si / 1000 Ang^3
#
#
#
# Elastic Constant Matrix: (Units=GPa)
#
#
# Indices 1 2 3 4 5 6 
#
# 1 86.9274 58.9100 42.6073 0.0000 0.0000 0.0000
# 2 58.9100 117.0418 41.9606 0.0000 0.0000 0.0000
# 3 42.6073 41.9606 93.4955 0.0000 0.0000 0.0000
# 4 0.0000 0.0000 0.0000 20.3511 0.0000 0.0000
# 5 0.0000 0.0000 0.0000 0.0000 21.1542 0.0000
# 6 0.0000 0.0000 0.0000 0.0000 0.0000 20.8898
#
#
#
# Elastic Compliance Matrix: (Units=1/GPa)
#
#
# Indices 1 2 3 4 5 6 
#
# 1 0.019459 -0.007883 -0.005330 0.000000 0.000000 0.000000
# 2 -0.007883 0.013376 -0.002411 0.000000 0.000000 0.000000
# 3 -0.005330 -0.002411 0.014206 0.000000 0.000000 0.000000
# 4 0.000000 0.000000 0.000000 0.049137 0.000000 0.000000
# 5 0.000000 0.000000 0.000000 0.000000 0.047272 0.000000
# 6 0.000000 0.000000 0.000000 0.000000 0.000000 0.047870
#
#
# Mechanical properties :
#
#
# Convention : Reuss Voigt Hill
#
# Bulk Modulus (GPa) = 63.31500 64.93560 64.12530
# Shear Modulus (GPa) = 21.94597 22.74479 22.34538
#
# Velocity S-wave (km/s) = 3.21975 3.27783 3.24892
# Velocity P-wave (km/s) = 6.61295 6.70819 6.66074
#
# Compressibility (1/GPa) = 0.01579405
#
# Stress axis : x y z
#
# Youngs Moduli (GPa) = 51.39124 74.76056 70.39120
#
# Poissons Ratio (x) = 0.58936 0.37515
# Poissons Ratio (y) = 0.40513 0.16969
# Poissons Ratio (z) = 0.27389 0.18022
#
# Static dielectric constant tensor:
#      x y z
#    x 3.458480 0.000000 0.000000 
#    y 0.000000 3.962130 0.000000 
#    z 0.000000 0.000000 3.956550 
# 
# 
# High freq. dielectric constant tensor:
#      x y z
#    x 1.773910 0.000000 0.000000 
#    y 0.000000 1.851400 0.000000 
#    z 0.000000 0.000000 1.838890 
# 
# From -- ./inp_files/37985.got.cif
#   From: 2010.03.12/outbox.cif.g09.slc.cpg/sg63_19_cif.got.tgz:37985.got - 2010.04.10 19:34:48.
