data_PCOD8261484
_publ_section_title
;
Structure prediction by ZEFSAII (Michael W. Deem and Ramdas Pophale) SiO2 
 PCOD8261484
Probable space group: C M C A
;
_chemical_formula_sum "Si O2"
_cell_formula_units_Z 80
_cell_length_a 8.702514
_cell_length_b 18.611659
_cell_length_c 26.392706
_cell_angle_alpha 90.000000
_cell_angle_beta 90.000000
_cell_angle_gamma 90.000000
_cell_volume 4274.779691
_symmetry_space_group_name_H-M "C M C A"
_symmetry_group_IT_number 64
_symmetry_cell_setting 'orthorhombic'
loop_
_space_group_symop_operation_xyz
x,y,z
-x,1/2-y,1/2+z
x,-y,-z
-x,1/2+y,1/2-z
-x,-y,-z
x,1/2+y,1/2-z
-x,y,z
x,1/2-y,1/2+z
1/2+x,1/2+y,z
1/2-x,-y,1/2+z
1/2+x,1/2-y,-z
1/2-x,y,1/2-z
1/2-x,1/2-y,-z
1/2+x,y,1/2-z
1/2-x,1/2+y,z
1/2+x,-y,1/2+z
loop_
_atom_site_type_symbol
_atom_site_label
_atom_site_fract_x
_atom_site_fract_y
_atom_site_fract_z
Si Si1 0.318940 0.332469 0.800470
Si Si2 0.820135 0.672773 0.590645
Si Si3 0.680476 0.824999 0.298761
Si Si4 0.681099 0.583171 0.003480
Si Si5 0.181558 0.834867 0.596445
O O1 0.500000 0.340508 0.799640
O O2 0.250000 0.370907 0.750000
O O3 0.267547 0.250183 0.799980
O O4 0.253645 0.367705 0.851992
O O5 0.785727 0.638224 0.646548
O O6 0.751417 0.621942 0.546955
O O7 0.754074 0.753925 0.586497
O O8 0.000000 0.677077 0.581875
O O9 0.500000 0.812234 0.291255
O O10 0.750000 0.868757 0.250000
O O11 0.500000 0.595701 0.010386
O O12 0.769961 0.614509 0.050993
O O13 0.722283 0.500000 0.000000
O O14 0.000000 0.833624 0.602929
#
# Coordination Sequence:
#
# PCOD8261484 Si02
#       5
#    16  16  16  16  16
#     4  10  17  27  45  71 101 128 157 193 237 286
#     4   8  16  30  48  71  97 125 158 199 243 286
#     4   9  15  25  42  67  98 126 154 191 236 284
#     4  10  20  34  51  70  94 127 166 206 250 297
#     4  10  19  32  50  72  99 128 161 201 242 287
#
# _framework density 18.714414000000001
#
# number of rings (size 3 to 8) (size 9 to 14) (size 15 to 20)
#    0.000    2.600    0.000    6.000    0.000    0.400 
#    0.000    5.000    0.000    1.200    0.000    2.800 
#    0.000    0.000    0.000    0.000    0.000    0.000 
#
# Total GULP energy -495626.287548 kJ/mol
# GULP energy per Si atom -12390.657189 kJ/mol
# Density = 1.867182 g / cm^3
# Si number density = 18.714414 Si / 1000 Ang^3
#
#
#
# Elastic Constant Matrix: (Units=GPa)
#
#
# Indices 1 2 3 4 5 6 
#
# 1 91.0972 29.7014 64.2081 0.0000 0.0000 0.0000
# 2 29.7014 50.5979 51.3735 0.0000 0.0000 0.0000
# 3 64.2081 51.3735 209.1657 0.0000 0.0000 0.0000
# 4 0.0000 0.0000 0.0000 -3.3830 0.0000 0.0000
# 5 0.0000 0.0000 0.0000 0.0000 32.1141 0.0000
# 6 0.0000 0.0000 0.0000 0.0000 0.0000 11.4279
#
#
#
# Elastic Compliance Matrix: (Units=1/GPa)
#
#
# Indices 1 2 3 4 5 6 
#
# 1 0.015088 -0.005534 -0.003272 0.000000 0.000000 0.000000
# 2 -0.005534 0.028360 -0.005267 0.000000 0.000000 0.000000
# 3 -0.003272 -0.005267 0.007079 0.000000 0.000000 0.000000
# 4 0.000000 0.000000 0.000000 -0.295593 0.000000 0.000000
# 5 0.000000 0.000000 0.000000 0.000000 0.031139 0.000000
# 6 0.000000 0.000000 0.000000 0.000000 0.000000 0.087505
#
#
# Mechanical properties :
#
#
# Convention : Reuss Voigt Hill
#
# Bulk Modulus (GPa) = 44.68228 71.26964 57.97596
# Shear Modulus (GPa) = -55.05710 21.73697 -16.66006
#
# Velocity S-wave (km/s) = -5.42987 3.41179 -2.98690
# Velocity P-wave (km/s) = 3.92220 7.32706 4.37620
#
# Compressibility (1/GPa) = 0.02238024
#
# Stress axis : x y z
#
# Youngs Moduli (GPa) = 66.27703 35.26124 141.26391
#
# Poissons Ratio (x) = 0.19515 0.46226
# Poissons Ratio (y) = 0.36680 0.74398
# Poissons Ratio (z) = 0.21688 0.18571
#
# Static dielectric constant tensor:
#      x y z
#    x 3.330110 0.000000 0.000000 
#    y 0.000000 2.992170 0.000000 
#    z 0.000000 0.000000 4.565160 
# 
# 
# High freq. dielectric constant tensor:
#      x y z
#    x 1.716680 0.000000 0.000000 
#    y 0.000000 1.658370 0.000000 
#    z 0.000000 0.000000 1.762570 
# 
# From -- ./inp_files/47861.got.cif
#   From: 2010.03.12/outbox.cif.g09.slc.cpg/sg64_24_cif.got.tgz:47861.got - 2010.04.10 20:19:32.
