data_PCOD8261488
_publ_section_title
;
Structure prediction by ZEFSAII (Michael W. Deem and Ramdas Pophale) SiO2 
 PCOD8261488
Probable space group: C M C A
;
_chemical_formula_sum "Si O2"
_cell_formula_units_Z 120
_cell_length_a 21.286336
_cell_length_b 16.358659
_cell_length_c 20.906620
_cell_angle_alpha 90.000000
_cell_angle_beta 90.000000
_cell_angle_gamma 90.000000
_cell_volume 7280.017750
_symmetry_space_group_name_H-M "C M C A"
_symmetry_group_IT_number 64
_symmetry_cell_setting 'orthorhombic'
loop_
_space_group_symop_operation_xyz
x,y,z
-x,1/2-y,1/2+z
x,-y,-z
-x,1/2+y,1/2-z
-x,-y,-z
x,1/2+y,1/2-z
-x,y,z
x,1/2-y,1/2+z
1/2+x,1/2+y,z
1/2-x,-y,1/2+z
1/2+x,1/2-y,-z
1/2-x,y,1/2-z
1/2-x,1/2-y,-z
1/2+x,y,1/2-z
1/2-x,1/2+y,z
1/2+x,-y,1/2+z
loop_
_atom_site_type_symbol
_atom_site_label
_atom_site_fract_x
_atom_site_fract_y
_atom_site_fract_z
Si Si1 0.682179 0.581166 0.099984
Si Si2 0.812510 0.584895 0.831705
Si Si3 0.597172 0.000000 0.500000
Si Si4 0.660920 0.274171 0.551852
Si Si5 0.322667 0.955414 0.934019
Si Si6 0.332549 0.061186 0.687742
Si Si7 0.703932 0.761500 0.092098
Si Si8 0.930243 0.362397 0.406047
O O1 0.636474 0.562795 0.041974
O O2 0.748635 0.558201 0.069714
O O3 0.662809 0.532798 0.164319
O O4 0.678644 0.675650 0.118427
O O5 0.842163 0.513852 0.875488
O O6 0.737283 0.587752 0.830409
O O7 0.843955 0.570594 0.763013
O O8 0.828342 0.673225 0.860759
O O9 0.559014 0.939234 0.453854
O O10 0.643641 0.367052 0.573314
O O11 0.679959 0.280242 0.478374
O O12 0.719743 0.237779 0.592266
O O13 0.600476 0.216497 0.560032
O O14 0.340760 0.000000 0.000000
O O15 0.385399 0.114658 0.652965
O O16 0.000000 0.338613 0.381367
#
# Coordination Sequence:
#
# PCOD8261488 Si02
#       8
#    16  16   8  16  16  16  16  16
#     4   9  17  27  47  75 112 135 159 209 263 316
#     4  10  18  33  50  75 110 135 171 215 263 322
#     4  10  17  30  52  80 106 130 169 210 260 316
#     4  10  19  29  48  82 105 132 173 206 270 318
#     4  10  17  27  49  78 106 138 161 205 271 320
#     4   9  20  34  47  73 104 144 176 208 260 313
#     4  10  17  28  51  79 109 132 160 216 271 317
#     4  11  21  35  53  75 107 141 176 216 256 307
#
# _framework density 16.483476
#
# number of rings (size 3 to 8) (size 9 to 14) (size 15 to 20)
#    0.000    2.133    4.667    0.200    0.000    0.000 
#    2.400    1.333    0.000    2.000    0.000    0.000 
#    0.000    0.000    0.000    0.000    0.000    0.000 
#
# Total GULP energy -743570.783297 kJ/mol
# GULP energy per Si atom -12392.846388 kJ/mol
# Density = 1.644596 g / cm^3
# Si number density = 16.483476 Si / 1000 Ang^3
#
#
#
# Elastic Constant Matrix: (Units=GPa)
#
#
# Indices 1 2 3 4 5 6 
#
# 1 60.2293 24.8531 21.6036 0.0000 0.0000 0.0000
# 2 24.8531 112.8354 49.7743 0.0000 0.0000 0.0000
# 3 21.6036 49.7743 103.5639 0.0000 0.0000 0.0000
# 4 0.0000 0.0000 0.0000 20.2164 0.0000 0.0000
# 5 0.0000 0.0000 0.0000 0.0000 6.8726 0.0000
# 6 0.0000 0.0000 0.0000 0.0000 0.0000 47.3168
#
#
#
# Elastic Compliance Matrix: (Units=1/GPa)
#
#
# Indices 1 2 3 4 5 6 
#
# 1 0.018738 -0.003049 -0.002443 0.000000 0.000000 0.000000
# 2 -0.003049 0.011743 -0.005008 0.000000 0.000000 0.000000
# 3 -0.002443 -0.005008 0.012572 0.000000 0.000000 0.000000
# 4 0.000000 0.000000 0.000000 0.049465 0.000000 0.000000
# 5 0.000000 0.000000 0.000000 0.000000 0.145506 0.000000
# 6 0.000000 0.000000 0.000000 0.000000 0.000000 0.021134
#
#
# Mechanical properties :
#
#
# Convention : Reuss Voigt Hill
#
# Bulk Modulus (GPa) = 45.34621 52.12118 48.73369
# Shear Modulus (GPa) = 17.39070 26.90768 22.14919
#
# Velocity S-wave (km/s) = 3.25166 4.04468 3.66966
# Velocity P-wave (km/s) = 6.45504 7.31447 6.89815
#
# Compressibility (1/GPa) = 0.02205256
#
# Stress axis : x y z
#
# Youngs Moduli (GPa) = 53.36789 85.15560 79.53967
#
# Poissons Ratio (x) = 0.25968 0.19433
# Poissons Ratio (y) = 0.16274 0.39832
# Poissons Ratio (z) = 0.13038 0.42644
#
# Static dielectric constant tensor:
#      x y z
#    x 2.674280 0.000000 0.000000 
#    y 0.000000 3.672510 0.000000 
#    z 0.000000 0.000000 3.678390 
# 
# 
# High freq. dielectric constant tensor:
#      x y z
#    x 1.582830 0.000000 0.000000 
#    y 0.000000 1.649720 0.000000 
#    z 0.000000 0.000000 1.624970 
# 
# From -- ./inp_files/41622.got.cif
#   From: 2010.03.12/outbox.cif.g09.slc.cpg/sg64_21_cif.got.tgz:41622.got - 2010.04.10 20:19:32.
