data_PCOD8261635
_publ_section_title
;
Structure prediction by ZEFSAII (Michael W. Deem and Ramdas Pophale) SiO2 
 PCOD8261635
Probable space group: C M C A
;
_chemical_formula_sum "Si O2"
_cell_formula_units_Z 96
_cell_length_a 9.256300
_cell_length_b 23.791345
_cell_length_c 25.988636
_cell_angle_alpha 90.000000
_cell_angle_beta 90.000000
_cell_angle_gamma 90.000000
_cell_volume 5723.212917
_symmetry_space_group_name_H-M "C M C A"
_symmetry_group_IT_number 64
_symmetry_cell_setting 'orthorhombic'
loop_
_space_group_symop_operation_xyz
x,y,z
-x,1/2-y,1/2+z
x,-y,-z
-x,1/2+y,1/2-z
-x,-y,-z
x,1/2+y,1/2-z
-x,y,z
x,1/2-y,1/2+z
1/2+x,1/2+y,z
1/2-x,-y,1/2+z
1/2+x,1/2-y,-z
1/2-x,y,1/2-z
1/2-x,1/2-y,-z
1/2+x,y,1/2-z
1/2-x,1/2+y,z
1/2+x,-y,1/2+z
loop_
_atom_site_type_symbol
_atom_site_label
_atom_site_fract_x
_atom_site_fract_y
_atom_site_fract_z
Si Si1 0.331076 0.501197 0.369266
Si Si2 0.331472 0.272731 0.550114
Si Si3 0.169985 0.896216 0.570985
Si Si4 0.671274 0.086038 0.697109
Si Si5 0.664746 0.336205 0.105257
Si Si6 0.165447 0.081818 0.540500
O O1 0.500000 0.497509 0.353096
O O2 0.278035 0.565612 0.380223
O O3 0.233189 0.472618 0.325568
O O4 0.302937 0.471285 0.423879
O O5 0.500000 0.278235 0.535270
O O6 0.250000 0.250000 0.500000
O O7 0.266723 0.332771 0.569338
O O8 0.311587 0.230740 0.599107
O O9 0.210968 0.929485 0.518460
O O10 0.000000 0.892059 0.576802
O O11 0.500000 0.079959 0.705276
O O12 0.750000 0.099571 0.750000
O O13 0.714224 0.138632 0.660347
O O14 0.500000 0.353570 0.097320
O O15 0.750279 0.363542 0.058724
O O16 0.000000 0.099564 0.543197
#
# Coordination Sequence:
#
# PCOD8261635 Si02
#       6
#    16  16  16  16  16  16
#     4   9  17  29  46  69  95 123 156 194 234 277
#     4  10  18  29  45  67  97 133 166 193 224 269
#     4   9  16  26  43  67  96 130 163 189 221 269
#     4  10  20  35  53  72  91 115 151 198 248 291
#     4   9  18  30  45  68  97 124 155 196 238 275
#     4   9  15  25  43  66  93 126 162 193 220 265
#
# _framework density 16.773796000000001
#
# number of rings (size 3 to 8) (size 9 to 14) (size 15 to 20)
#    0.000    2.667    1.667    1.000    0.000    2.667 
#    0.000    1.667    0.000    5.000    0.000    2.333 
#    0.000    0.000    0.000    0.000    0.000    0.000 
#
# Total GULP energy -594674.130824 kJ/mol
# GULP energy per Si atom -12389.044392 kJ/mol
# Density = 1.673562 g / cm^3
# Si number density = 16.773796 Si / 1000 Ang^3
#
#
#
# Elastic Constant Matrix: (Units=GPa)
#
#
# Indices 1 2 3 4 5 6 
#
# 1 41.1692 25.9205 24.6873 0.0000 0.0000 0.0000
# 2 25.9205 98.2889 39.9063 0.0000 0.0000 0.0000
# 3 24.6873 39.9063 70.8195 0.0000 0.0000 0.0000
# 4 0.0000 0.0000 0.0000 15.6446 0.0000 0.0000
# 5 0.0000 0.0000 0.0000 0.0000 19.7591 0.0000
# 6 0.0000 0.0000 0.0000 0.0000 0.0000 18.1230
#
#
#
# Elastic Compliance Matrix: (Units=1/GPa)
#
#
# Indices 1 2 3 4 5 6 
#
# 1 0.032615 -0.005167 -0.008458 0.000000 0.000000 0.000000
# 2 -0.005167 0.014011 -0.006094 0.000000 0.000000 0.000000
# 3 -0.008458 -0.006094 0.020503 0.000000 0.000000 0.000000
# 4 0.000000 0.000000 0.000000 0.063920 0.000000 0.000000
# 5 0.000000 0.000000 0.000000 0.000000 0.050610 0.000000
# 6 0.000000 0.000000 0.000000 0.000000 0.000000 0.055179
#
#
# Mechanical properties :
#
#
# Convention : Reuss Voigt Hill
#
# Bulk Modulus (GPa) = 36.11281 43.47841 39.79561
# Shear Modulus (GPa) = 17.51286 18.68956 18.10121
#
# Velocity S-wave (km/s) = 3.23470 3.34160 3.28858
# Velocity P-wave (km/s) = 5.96046 6.39258 6.18030
#
# Compressibility (1/GPa) = 0.02769101
#
# Stress axis : x y z
#
# Youngs Moduli (GPa) = 30.66068 71.37297 48.77449
#
# Poissons Ratio (x) = 0.36880 0.41252
# Poissons Ratio (y) = 0.15843 0.29722
# Poissons Ratio (z) = 0.25932 0.43493
#
# Static dielectric constant tensor:
#      x y z
#    x 3.039340 0.000000 0.000000 
#    y 0.000000 3.716980 0.000000 
#    z 0.000000 0.000000 3.039550 
# 
# 
# High freq. dielectric constant tensor:
#      x y z
#    x 1.628980 0.000000 0.000000 
#    y 0.000000 1.650030 0.000000 
#    z 0.000000 0.000000 1.619110 
# 
# From -- ./inp_files/44494.got.cif
#   From: 2010.03.12/outbox.cif.g09.slc.cpg/sg64_23_cif.got.tgz:44494.got - 2010.04.10 20:19:32.
