data_PCOD8261391
_publ_section_title
;
Structure prediction by ZEFSAII (Michael W. Deem and Ramdas Pophale) SiO2 
 PCOD8261391
Probable space group: C M C A
;
_chemical_formula_sum "Si O2"
_cell_formula_units_Z 112
_cell_length_a 21.495522
_cell_length_b 9.980794
_cell_length_c 25.831462
_cell_angle_alpha 90.000000
_cell_angle_beta 90.000000
_cell_angle_gamma 90.000000
_cell_volume 5541.943259
_symmetry_space_group_name_H-M "C M C A"
_symmetry_group_IT_number 64
_symmetry_cell_setting 'orthorhombic'
loop_
_space_group_symop_operation_xyz
x,y,z
-x,1/2-y,1/2+z
x,-y,-z
-x,1/2+y,1/2-z
-x,-y,-z
x,1/2+y,1/2-z
-x,y,z
x,1/2-y,1/2+z
1/2+x,1/2+y,z
1/2-x,-y,1/2+z
1/2+x,1/2-y,-z
1/2-x,y,1/2-z
1/2-x,1/2-y,-z
1/2+x,y,1/2-z
1/2-x,1/2+y,z
1/2+x,-y,1/2+z
loop_
_atom_site_type_symbol
_atom_site_label
_atom_site_fract_x
_atom_site_fract_y
_atom_site_fract_z
Si Si1 0.426202 0.670994 0.224416
Si Si2 0.845416 0.835917 0.506462
Si Si3 0.883800 0.091608 0.116537
Si Si4 0.430057 0.608690 0.957077
Si Si5 0.573217 0.960446 0.194022
Si Si6 0.072804 0.621651 0.916737
Si Si7 0.721491 0.398683 0.956915
O O1 0.500000 0.652722 0.214658
O O2 0.388233 0.601711 0.178009
O O3 0.404065 0.594711 0.276647
O O4 0.407480 0.827593 0.226833
O O5 0.889485 0.742936 0.540674
O O6 0.887245 0.928827 0.466728
O O7 0.797245 0.916683 0.544361
O O8 0.798503 0.752473 0.470066
O O9 0.916654 0.218899 0.088819
O O10 0.811649 0.071206 0.098392
O O11 0.921728 0.959948 0.098852
O O12 0.500000 0.657770 0.965250
O O13 0.410098 0.500000 0.000000
O O14 0.500000 0.961237 0.189366
O O15 0.598465 0.953043 0.135055
O O16 0.000000 0.592878 0.926198
O O17 0.693767 0.500000 0.000000
#
# Coordination Sequence:
#
# PCOD8261391 Si02
#       7
#    16  16  16  16  16  16  16
#     4   9  16  27  46  73 106 138 169 211 268 326
#     4  10  18  27  46  68  95 130 165 209 254 307
#     4  10  16  27  44  73  99 131 162 212 266 310
#     4  11  17  25  44  74 105 126 159 217 272 311
#     4   8  15  26  44  69 101 136 167 208 259 323
#     4   9  15  26  44  70  98 128 165 203 265 327
#     4  10  18  31  44  64  98 126 173 211 246 299
#
# _framework density 20.209517000000002
#
# number of rings (size 3 to 8) (size 9 to 14) (size 15 to 20)
#    0.000    2.429    4.286    2.571    0.000    0.000 
#    0.000    0.000    3.143    1.714    0.000    1.000 
#    4.286    0.000    0.000    0.000    0.000    0.000 
#
# Total GULP energy -693852.641251 kJ/mol
# GULP energy per Si atom -12390.225737 kJ/mol
# Density = 2.016352 g / cm^3
# Si number density = 20.209517 Si / 1000 Ang^3
#
#
#
# Elastic Constant Matrix: (Units=GPa)
#
#
# Indices 1 2 3 4 5 6 
#
# 1 107.6095 15.7525 34.2801 0.0000 0.0000 0.0000
# 2 15.7525 46.4888 17.5570 0.0000 0.0000 0.0000
# 3 34.2801 17.5570 65.0296 0.0000 0.0000 0.0000
# 4 0.0000 0.0000 0.0000 31.7211 0.0000 0.0000
# 5 0.0000 0.0000 0.0000 0.0000 22.1291 0.0000
# 6 0.0000 0.0000 0.0000 0.0000 0.0000 27.8574
#
#
#
# Elastic Compliance Matrix: (Units=1/GPa)
#
#
# Indices 1 2 3 4 5 6 
#
# 1 0.011296 -0.001758 -0.005480 0.000000 0.000000 0.000000
# 2 -0.001758 0.024226 -0.005614 0.000000 0.000000 0.000000
# 3 -0.005480 -0.005614 0.019782 0.000000 0.000000 0.000000
# 4 0.000000 0.000000 0.000000 0.031525 0.000000 0.000000
# 5 0.000000 0.000000 0.000000 0.000000 0.045189 0.000000
# 6 0.000000 0.000000 0.000000 0.000000 0.000000 0.035897
#
#
# Mechanical properties :
#
#
# Convention : Reuss Voigt Hill
#
# Bulk Modulus (GPa) = 33.78331 39.36744 36.57537
# Shear Modulus (GPa) = 24.57166 26.44408 25.50787
#
# Velocity S-wave (km/s) = 3.49068 3.62124 3.55656
# Velocity P-wave (km/s) = 5.74450 6.08329 5.91632
#
# Compressibility (1/GPa) = 0.02960042
#
# Stress axis : x y z
#
# Youngs Moduli (GPa) = 88.52771 41.27715 50.55085
#
# Poissons Ratio (x) = 0.07257 0.27702
# Poissons Ratio (y) = 0.15563 0.28380
# Poissons Ratio (z) = 0.48513 0.23173
#
# Static dielectric constant tensor:
#      x y z
#    x 3.726260 0.000000 0.000000 
#    y 0.000000 3.744780 0.000000 
#    z 0.000000 0.000000 3.710930 
# 
# 
# High freq. dielectric constant tensor:
#      x y z
#    x 1.772440 0.000000 0.000000 
#    y 0.000000 1.787900 0.000000 
#    z 0.000000 0.000000 1.755510 
# 
# From -- ./inp_files/50842.got.cif
#   From: 2010.03.12/outbox.cif.g09.slc.cpg/sg64_26_cif.got.tgz:50842.got - 2010.04.10 20:19:32.
