data_PCOD8261794
_publ_section_title
;
Structure prediction by ZEFSAII (Michael W. Deem and Ramdas Pophale) SiO2 
 PCOD8261794
Probable space group: C M C A
;
_chemical_formula_sum "Si O2"
_cell_formula_units_Z 112
_cell_length_a 13.699255
_cell_length_b 28.680868
_cell_length_c 14.769678
_cell_angle_alpha 90.000000
_cell_angle_beta 90.000000
_cell_angle_gamma 90.000000
_cell_volume 5803.102849
_symmetry_space_group_name_H-M "C M C A"
_symmetry_group_IT_number 64
_symmetry_cell_setting 'orthorhombic'
loop_
_space_group_symop_operation_xyz
x,y,z
-x,1/2-y,1/2+z
x,-y,-z
-x,1/2+y,1/2-z
-x,-y,-z
x,1/2+y,1/2-z
-x,y,z
x,1/2-y,1/2+z
1/2+x,1/2+y,z
1/2-x,-y,1/2+z
1/2+x,1/2-y,-z
1/2-x,y,1/2-z
1/2-x,1/2-y,-z
1/2+x,y,1/2-z
1/2-x,1/2+y,z
1/2+x,-y,1/2+z
loop_
_atom_site_type_symbol
_atom_site_label
_atom_site_fract_x
_atom_site_fract_y
_atom_site_fract_z
Si Si1 0.115076 0.936647 0.076694
Si Si2 0.886527 0.834526 0.571560
Si Si3 0.114667 0.963981 0.873204
Si Si4 0.775953 0.249905 0.853313
Si Si5 0.386509 0.382485 0.753236
Si Si6 0.889450 0.309624 0.604023
Si Si7 0.209977 0.154123 0.941163
O O1 0.182587 0.893621 0.111158
O O2 0.000000 0.927618 0.093171
O O3 0.152476 0.982515 0.131454
O O4 0.139292 0.942596 0.970665
O O5 0.864060 0.783747 0.614922
O O6 0.865506 0.874700 0.647321
O O7 0.817990 0.846522 0.486192
O O8 0.000000 0.835474 0.541774
O O9 0.159144 0.930930 0.792813
O O10 0.000000 0.967057 0.861415
O O11 0.750000 0.256536 0.750000
O O12 0.678573 0.264145 0.909841
O O13 0.800676 0.196316 0.870883
O O14 0.500000 0.383140 0.775658
O O15 0.345929 0.338620 0.810759
O O16 0.876178 0.341198 0.515481
O O17 0.000000 0.293143 0.617159
#
# Coordination Sequence:
#
# PCOD8261794 Si02
#       7
#    16  16  16  16  16  16  16
#     4   9  16  29  49  77 110 134 163 210 264 323
#     4  10  21  36  52  75 110 144 182 226 265 315
#     4   8  14  26  49  78 104 130 157 202 272 327
#     4  11  23  36  49  71 104 146 185 226 266 314
#     4   9  15  27  51  78 106 135 164 214 276 320
#     4  10  18  32  52  75 105 137 171 217 274 321
#     4  11  22  32  51  77 106 145 182 215 263 324
#
# _framework density 19.300021000000001
#
# number of rings (size 3 to 8) (size 9 to 14) (size 15 to 20)
#    0.000    2.286    2.857    3.000    0.000    2.857 
#    0.000    0.000    0.000    3.429    0.000    2.000 
#    0.000    0.000    0.000    0.000    0.000    0.000 
#
# Total GULP energy -693871.275175 kJ/mol
# GULP energy per Si atom -12390.558485 kJ/mol
# Density = 1.925609 g / cm^3
# Si number density = 19.300021 Si / 1000 Ang^3
#
#
#
# Elastic Constant Matrix: (Units=GPa)
#
#
# Indices 1 2 3 4 5 6 
#
# 1 83.5602 38.7966 11.7131 0.0000 0.0000 0.0000
# 2 38.7966 153.6501 19.1099 0.0000 0.0000 0.0000
# 3 11.7131 19.1099 24.7810 0.0000 0.0000 0.0000
# 4 0.0000 0.0000 0.0000 29.8558 0.0000 0.0000
# 5 0.0000 0.0000 0.0000 0.0000 15.0423 0.0000
# 6 0.0000 0.0000 0.0000 0.0000 0.0000 21.5986
#
#
#
# Elastic Compliance Matrix: (Units=1/GPa)
#
#
# Indices 1 2 3 4 5 6 
#
# 1 0.013957 -0.002991 -0.004291 0.000000 0.000000 0.000000
# 2 -0.002991 0.007839 -0.004632 0.000000 0.000000 0.000000
# 3 -0.004291 -0.004632 0.045954 0.000000 0.000000 0.000000
# 4 0.000000 0.000000 0.000000 0.033494 0.000000 0.000000
# 5 0.000000 0.000000 0.000000 0.000000 0.066479 0.000000
# 6 0.000000 0.000000 0.000000 0.000000 0.000000 0.046299
#
#
# Mechanical properties :
#
#
# Convention : Reuss Voigt Hill
#
# Bulk Modulus (GPa) = 22.76682 44.58119 33.67400
# Shear Modulus (GPa) = 19.80264 26.12412 22.96338
#
# Velocity S-wave (km/s) = 3.20666 3.68309 3.45311
# Velocity P-wave (km/s) = 5.05293 6.42153 5.77790
#
# Compressibility (1/GPa) = 0.04392358
#
# Stress axis : x y z
#
# Youngs Moduli (GPa) = 71.64651 127.55925 21.76106
#
# Poissons Ratio (x) = 0.38147 0.09338
# Poissons Ratio (y) = 0.21426 0.10080
# Poissons Ratio (z) = 0.30744 0.59084
#
# Static dielectric constant tensor:
#      x y z
#    x 3.314760 0.000000 0.000000 
#    y 0.000000 3.877220 0.000000 
#    z 0.000000 0.000000 3.272570 
# 
# 
# High freq. dielectric constant tensor:
#      x y z
#    x 1.735290 0.000000 0.000000 
#    y 0.000000 1.750460 0.000000 
#    z 0.000000 0.000000 1.715380 
# 
# From -- ./inp_files/24383.got.cif
#   From: 2010.03.12/outbox.cif.g09.slc.cpg/sg64_13_cif.got.tgz:24383.got - 2010.04.10 20:19:32.
