data_PCOD8261662
_publ_section_title
;
Structure prediction by ZEFSAII (Michael W. Deem and Ramdas Pophale) SiO2 
 PCOD8261662
Probable space group: C M C A
;
_chemical_formula_sum "Si O2"
_cell_formula_units_Z 104
_cell_length_a 14.050686
_cell_length_b 23.440529
_cell_length_c 16.735801
_cell_angle_alpha 90.000000
_cell_angle_beta 90.000000
_cell_angle_gamma 90.000000
_cell_volume 5512.028318
_symmetry_space_group_name_H-M "C M C A"
_symmetry_group_IT_number 64
_symmetry_cell_setting 'orthorhombic'
loop_
_space_group_symop_operation_xyz
x,y,z
-x,1/2-y,1/2+z
x,-y,-z
-x,1/2+y,1/2-z
-x,-y,-z
x,1/2+y,1/2-z
-x,y,z
x,1/2-y,1/2+z
1/2+x,1/2+y,z
1/2-x,-y,1/2+z
1/2+x,1/2-y,-z
1/2-x,y,1/2-z
1/2-x,1/2-y,-z
1/2+x,y,1/2-z
1/2-x,1/2+y,z
1/2+x,-y,1/2+z
loop_
_atom_site_type_symbol
_atom_site_label
_atom_site_fract_x
_atom_site_fract_y
_atom_site_fract_z
Si Si1 0.000000 0.825768 0.528687
Si Si2 0.326323 0.300007 0.310455
Si Si3 0.609109 0.513048 0.622321
Si Si4 0.890660 0.914330 0.229726
Si Si5 0.691237 0.635116 0.917884
Si Si6 0.337945 0.588263 0.475864
Si Si7 0.500000 0.752972 0.116672
Si Si8 0.000000 0.698996 0.540864
O O1 0.904781 0.859902 0.553052
O O2 0.000000 0.764259 0.574271
O O3 0.000000 0.812910 0.433184
O O4 0.250000 0.272301 0.250000
O O5 0.380022 0.352324 0.268675
O O6 0.271899 0.320229 0.390247
O O7 0.404095 0.251631 0.330645
O O8 0.500000 0.493395 0.628952
O O9 0.644968 0.537501 0.707666
O O10 0.670740 0.457993 0.595516
O O11 0.614735 0.561818 0.555207
O O12 0.825321 0.914426 0.149579
O O13 0.000000 0.925074 0.206924
O O14 0.730770 0.608109 0.000444
O O15 0.592187 0.666634 0.928906
O O16 0.500000 0.699393 0.056184
#
# Coordination Sequence:
#
# PCOD8261662 Si02
#       8
#     8  16  16  16  16  16   8   8
#     4  10  18  31  49  75 116 154 183 239 281 336
#     4  10  19  28  51  78 112 148 182 240 302 328
#     4  10  18  29  52  86 115 146 177 240 305 350
#     4  10  18  31  52  79 121 141 182 234 299 335
#     4  11  20  34  48  80 121 153 189 247 279 345
#     4  11  18  30  53  80 123 143 188 237 297 344
#     4  10  18  33  48  72 118 148 195 241 290 330
#     4  10  24  33  49  74 118 163 205 229 292 336
#
# _framework density 18.867826999999998
#
# number of rings (size 3 to 8) (size 9 to 14) (size 15 to 20)
#    0.462    1.231    6.154    0.462    0.000    2.462 
#    0.000    0.000    0.000    1.846    0.000    0.000 
#  110.769    0.000    0.000    0.000    0.000    0.000 
#
# Total GULP energy -644483.720297 kJ/mol
# GULP energy per Si atom -12393.917698 kJ/mol
# Density = 1.882488 g / cm^3
# Si number density = 18.867827 Si / 1000 Ang^3
#
#
#
# Elastic Constant Matrix: (Units=GPa)
#
#
# Indices 1 2 3 4 5 6 
#
# 1 111.1216 37.8275 36.3493 0.0000 0.0000 0.0000
# 2 37.8275 74.2735 35.8388 0.0000 0.0000 0.0000
# 3 36.3493 35.8388 67.5834 0.0000 0.0000 0.0000
# 4 0.0000 0.0000 0.0000 29.1181 0.0000 0.0000
# 5 0.0000 0.0000 0.0000 0.0000 13.5573 0.0000
# 6 0.0000 0.0000 0.0000 0.0000 0.0000 11.4458
#
#
#
# Elastic Compliance Matrix: (Units=1/GPa)
#
#
# Indices 1 2 3 4 5 6 
#
# 1 0.011717 -0.003933 -0.004216 0.000000 0.000000 0.000000
# 2 -0.003933 0.019414 -0.008180 0.000000 0.000000 0.000000
# 3 -0.004216 -0.008180 0.021402 0.000000 0.000000 0.000000
# 4 0.000000 0.000000 0.000000 0.034343 0.000000 0.000000
# 5 0.000000 0.000000 0.000000 0.000000 0.073761 0.000000
# 6 0.000000 0.000000 0.000000 0.000000 0.000000 0.087368
#
#
# Mechanical properties :
#
#
# Convention : Reuss Voigt Hill
#
# Bulk Modulus (GPa) = 50.31496 52.55663 51.43580
# Shear Modulus (GPa) = 17.40415 20.35509 18.87962
#
# Velocity S-wave (km/s) = 3.04044 3.28811 3.16670
# Velocity P-wave (km/s) = 6.24905 6.50624 6.37894
#
# Compressibility (1/GPa) = 0.01987481
#
# Stress axis : x y z
#
# Youngs Moduli (GPa) = 85.34414 51.50997 46.72509
#
# Poissons Ratio (x) = 0.20259 0.19701
# Poissons Ratio (y) = 0.33567 0.38219
# Poissons Ratio (z) = 0.35984 0.42133
#
# Static dielectric constant tensor:
#      x y z
#    x 3.494510 0.000000 0.000000 
#    y 0.000000 3.106230 0.000000 
#    z 0.000000 0.000000 3.399790 
# 
# 
# High freq. dielectric constant tensor:
#      x y z
#    x 1.742330 0.000000 0.000000 
#    y 0.000000 1.684970 0.000000 
#    z 0.000000 0.000000 1.705940 
# 
# From -- ./inp_files/32567.got.cif
#   From: 2010.03.12/outbox.cif.g09.slc.cpg/sg64_17_cif.got.tgz:32567.got - 2010.04.10 20:19:32.
