data_PCOD8261401
_publ_section_title
;
Structure prediction by ZEFSAII (Michael W. Deem and Ramdas Pophale) SiO2 
 PCOD8261401
Probable space group: C M C A
;
_chemical_formula_sum "Si O2"
_cell_formula_units_Z 104
_cell_length_a 14.196291
_cell_length_b 18.427925
_cell_length_c 22.740638
_cell_angle_alpha 90.000000
_cell_angle_beta 90.000000
_cell_angle_gamma 90.000000
_cell_volume 5949.137052
_symmetry_space_group_name_H-M "C M C A"
_symmetry_group_IT_number 64
_symmetry_cell_setting 'orthorhombic'
loop_
_space_group_symop_operation_xyz
x,y,z
-x,1/2-y,1/2+z
x,-y,-z
-x,1/2+y,1/2-z
-x,-y,-z
x,1/2+y,1/2-z
-x,y,z
x,1/2-y,1/2+z
1/2+x,1/2+y,z
1/2-x,-y,1/2+z
1/2+x,1/2-y,-z
1/2-x,y,1/2-z
1/2-x,1/2-y,-z
1/2+x,y,1/2-z
1/2-x,1/2+y,z
1/2+x,-y,1/2+z
loop_
_atom_site_type_symbol
_atom_site_label
_atom_site_fract_x
_atom_site_fract_y
_atom_site_fract_z
Si Si1 0.895029 0.710790 0.894360
Si Si2 0.250000 0.477744 0.250000
Si Si3 0.108147 0.370564 0.559891
Si Si4 0.108802 0.859911 0.274312
Si Si5 0.392106 0.987966 0.655659
Si Si6 0.228552 0.180789 0.961308
Si Si7 0.605707 0.656611 0.855926
O O1 0.874381 0.795203 0.906192
O O2 0.877650 0.699281 0.825028
O O3 0.829437 0.657424 0.933908
O O4 0.000000 0.688829 0.912391
O O5 0.177014 0.427979 0.212492
O O6 0.315181 0.526750 0.207121
O O7 0.135629 0.436235 0.602062
O O8 0.175103 0.377614 0.502242
O O9 0.000000 0.376344 0.538563
O O10 0.137670 0.825141 0.211078
O O11 0.000000 0.887326 0.270283
O O12 0.500000 0.971919 0.676840
O O13 0.383051 0.070416 0.633875
O O14 0.166150 0.200318 0.903849
O O15 0.250000 0.250000 0.000000
O O16 0.500000 0.682897 0.866185
#
# Coordination Sequence:
#
# PCOD8261401 Si02
#       7
#    16   8  16  16  16  16  16
#     4   9  17  30  48  68  92 121 150 185 231 282
#     4  10  16  28  48  70  96 122 150 194 234 268
#     4   9  18  32  47  66  94 123 153 190 231 276
#     4   9  17  29  48  72  92 115 151 191 232 274
#     4   9  18  31  48  71  96 123 156 193 235 280
#     4  10  19  30  45  66  91 121 153 185 228 276
#     4   9  17  30  49  72  93 115 151 197 235 270
#
# _framework density 17.481527
#
# number of rings (size 3 to 8) (size 9 to 14) (size 15 to 20)
#    0.000    2.769    0.000    3.692    0.000    1.231 
#    0.000    6.154    0.000    1.846    0.000    3.231 
#    0.000    0.000    0.000    0.000    0.000    0.000 
#
# Total GULP energy -644248.257796 kJ/mol
# GULP energy per Si atom -12389.389573 kJ/mol
# Density = 1.744174 g / cm^3
# Si number density = 17.481527 Si / 1000 Ang^3
#
#
#
# Elastic Constant Matrix: (Units=GPa)
#
#
# Indices 1 2 3 4 5 6 
#
# 1 107.2198 25.6289 78.5250 0.0000 0.0000 0.0000
# 2 25.6289 29.0056 37.3284 0.0000 0.0000 0.0000
# 3 78.5250 37.3284 139.4451 0.0000 0.0000 0.0000
# 4 0.0000 0.0000 0.0000 30.4249 0.0000 0.0000
# 5 0.0000 0.0000 0.0000 0.0000 38.6660 0.0000
# 6 0.0000 0.0000 0.0000 0.0000 0.0000 18.0454
#
#
#
# Elastic Compliance Matrix: (Units=1/GPa)
#
#
# Indices 1 2 3 4 5 6 
#
# 1 0.016159 -0.003917 -0.008051 0.000000 0.000000 0.000000
# 2 -0.003917 0.053545 -0.012128 0.000000 0.000000 0.000000
# 3 -0.008051 -0.012128 0.014952 0.000000 0.000000 0.000000
# 4 0.000000 0.000000 0.000000 0.032868 0.000000 0.000000
# 5 0.000000 0.000000 0.000000 0.000000 0.025863 0.000000
# 6 0.000000 0.000000 0.000000 0.000000 0.000000 0.055416
#
#
# Mechanical properties :
#
#
# Convention : Reuss Voigt Hill
#
# Bulk Modulus (GPa) = 27.42433 62.07056 44.74745
# Shear Modulus (GPa) = 19.29398 26.37315 22.83356
#
# Velocity S-wave (km/s) = 3.32577 3.88832 3.61800
# Velocity P-wave (km/s) = 5.51990 7.46607 6.56550
#
# Compressibility (1/GPa) = 0.03646397
#
# Stress axis : x y z
#
# Youngs Moduli (GPa) = 61.88351 18.67601 66.88201
#
# Poissons Ratio (x) = 0.07315 0.53849
# Poissons Ratio (y) = 0.24238 0.81114
# Poissons Ratio (z) = 0.49824 0.22650
#
# Static dielectric constant tensor:
#      x y z
#    x 3.757980 0.000000 0.000000 
#    y 0.000000 2.853070 0.000000 
#    z 0.000000 0.000000 3.491380 
# 
# 
# High freq. dielectric constant tensor:
#      x y z
#    x 1.695760 0.000000 0.000000 
#    y 0.000000 1.619530 0.000000 
#    z 0.000000 0.000000 1.683140 
# 
# From -- ./inp_files/45375.got.cif
#   From: 2010.03.12/outbox.cif.g09.slc.cpg/sg64_23_cif.got.tgz:45375.got - 2010.04.10 20:19:32.
