data_PCOD8261890
_publ_section_title
;
Structure prediction by ZEFSAII (Michael W. Deem and Ramdas Pophale) SiO2 
 PCOD8261890
Probable space group: C M C A
;
_chemical_formula_sum "Si O2"
_cell_formula_units_Z 80
_cell_length_a 13.112697
_cell_length_b 17.831274
_cell_length_c 17.971303
_cell_angle_alpha 90.000000
_cell_angle_beta 90.000000
_cell_angle_gamma 90.000000
_cell_volume 4201.979855
_symmetry_space_group_name_H-M "C M C A"
_symmetry_group_IT_number 64
_symmetry_cell_setting 'orthorhombic'
loop_
_space_group_symop_operation_xyz
x,y,z
-x,1/2-y,1/2+z
x,-y,-z
-x,1/2+y,1/2-z
-x,-y,-z
x,1/2+y,1/2-z
-x,y,z
x,1/2-y,1/2+z
1/2+x,1/2+y,z
1/2-x,-y,1/2+z
1/2+x,1/2-y,-z
1/2-x,y,1/2-z
1/2-x,1/2-y,-z
1/2+x,y,1/2-z
1/2-x,1/2+y,z
1/2+x,-y,1/2+z
loop_
_atom_site_type_symbol
_atom_site_label
_atom_site_fract_x
_atom_site_fract_y
_atom_site_fract_z
Si Si1 0.616638 0.175879 0.804317
Si Si2 0.880307 0.470195 0.579278
Si Si3 0.114255 0.259193 0.450154
Si Si4 0.681140 0.384173 0.147984
Si Si5 0.311825 0.695334 0.104277
O O1 0.500000 0.159170 0.827729
O O2 0.630673 0.158663 0.717471
O O3 0.695459 0.122944 0.850133
O O4 0.647222 0.263053 0.821108
O O5 0.836894 0.500000 0.500000
O O6 0.849956 0.528930 0.644009
O O7 0.832696 0.392320 0.605597
O O8 0.000000 0.458691 0.574005
O O9 0.134460 0.345082 0.425167
O O10 0.189967 0.204246 0.405570
O O11 0.132000 0.259079 0.538323
O O12 0.000000 0.232745 0.432201
#
# Coordination Sequence:
#
# PCOD8261890 Si02
#       5
#    16  16  16  16  16
#     4  10  20  37  56  79 113 152 186 224 276 335
#     4  11  20  34  57  84 112 141 183 241 285 320
#     4  10  18  34  56  81 111 146 185 229 273 324
#     4  10  21  35  57  84 112 147 189 230 277 335
#     4  10  21  33  55  86 112 141 188 232 274 333
#
# _framework density 19.038644000000001
#
# number of rings (size 3 to 8) (size 9 to 14) (size 15 to 20)
#    0.000    1.800    2.000    3.600    0.000    0.000 
#    0.000    9.000    0.000    1.200    0.000    0.000 
#    0.000    0.000    0.000    0.000    0.000    0.000 
#
# Total GULP energy -495911.337825 kJ/mol
# GULP energy per Si atom -12397.783446 kJ/mol
# Density = 1.899531 g / cm^3
# Si number density = 19.038644 Si / 1000 Ang^3
#
#
#
# Elastic Constant Matrix: (Units=GPa)
#
#
# Indices 1 2 3 4 5 6 
#
# 1 160.1662 43.2537 22.4958 0.0000 0.0000 0.0000
# 2 43.2537 144.5082 41.4158 0.0000 0.0000 0.0000
# 3 22.4958 41.4158 71.7512 0.0000 0.0000 0.0000
# 4 0.0000 0.0000 0.0000 26.3688 0.0000 0.0000
# 5 0.0000 0.0000 0.0000 0.0000 19.5947 0.0000
# 6 0.0000 0.0000 0.0000 0.0000 0.0000 19.5249
#
#
#
# Elastic Compliance Matrix: (Units=1/GPa)
#
#
# Indices 1 2 3 4 5 6 
#
# 1 0.006872 -0.001725 -0.001159 0.000000 0.000000 0.000000
# 2 -0.001725 0.008725 -0.004495 0.000000 0.000000 0.000000
# 3 -0.001159 -0.004495 0.016895 0.000000 0.000000 0.000000
# 4 0.000000 0.000000 0.000000 0.037924 0.000000 0.000000
# 5 0.000000 0.000000 0.000000 0.000000 0.051034 0.000000
# 6 0.000000 0.000000 0.000000 0.000000 0.000000 0.051217
#
#
# Mechanical properties :
#
#
# Convention : Reuss Voigt Hill
#
# Bulk Modulus (GPa) = 56.38933 65.63958 61.01446
# Shear Modulus (GPa) = 25.86177 31.04835 28.45506
#
# Velocity S-wave (km/s) = 3.68962 4.04271 3.87019
# Velocity P-wave (km/s) = 6.91619 7.50621 7.21723
#
# Compressibility (1/GPa) = 0.01773385
#
# Stress axis : x y z
#
# Youngs Moduli (GPa) = 145.51633 114.61853 59.18864
#
# Poissons Ratio (x) = 0.19769 0.06860
# Poissons Ratio (y) = 0.25098 0.26607
# Poissons Ratio (z) = 0.16866 0.51523
#
# Static dielectric constant tensor:
#      x y z
#    x 3.643110 0.000000 0.000000 
#    y 0.000000 3.303910 0.000000 
#    z 0.000000 0.000000 3.442140 
# 
# 
# High freq. dielectric constant tensor:
#      x y z
#    x 1.747960 0.000000 0.000000 
#    y 0.000000 1.718020 0.000000 
#    z 0.000000 0.000000 1.731980 
# 
# From -- ./inp_files/32073.got.cif
#   From: 2010.03.12/outbox.cif.g09.slc.cpg/sg64_17_cif.got.tgz:32073.got - 2010.04.10 20:19:32.
