data_PCOD8261233
_publ_section_title
;
Structure prediction by ZEFSAII (Michael W. Deem and Ramdas Pophale) SiO2 
 PCOD8261233
Probable space group: C M C M
;
_chemical_formula_sum "Si O2"
_cell_formula_units_Z 84
_cell_length_a 11.398521
_cell_length_b 30.834729
_cell_length_c 11.682457
_cell_angle_alpha 90.000000
_cell_angle_beta 90.000000
_cell_angle_gamma 90.000000
_cell_volume 4106.036737
_symmetry_space_group_name_H-M "C M C M"
_symmetry_group_IT_number 63
_symmetry_cell_setting 'orthorhombic'
loop_
_space_group_symop_operation_xyz
x,y,z
-x,-y,1/2+z
x,-y,-z
-x,y,1/2-z
-x,-y,-z
x,y,1/2-z
-x,y,z
x,-y,1/2+z
1/2+x,1/2+y,z
1/2-x,1/2-y,1/2+z
1/2+x,1/2-y,-z
1/2-x,1/2+y,1/2-z
1/2-x,1/2-y,-z
1/2+x,1/2+y,1/2-z
1/2-x,1/2+y,z
1/2+x,1/2-y,1/2+z
loop_
_atom_site_type_symbol
_atom_site_label
_atom_site_fract_x
_atom_site_fract_y
_atom_site_fract_z
Si Si1 0.274741 0.662715 0.250000
Si Si2 0.500000 0.395607 0.750000
Si Si3 0.862220 0.372449 0.120881
Si Si4 0.500000 0.336580 0.386988
Si Si5 0.639353 0.918514 0.750000
Si Si6 0.226177 0.800330 0.505089
Si Si7 0.258873 0.951866 0.514189
Si Si8 0.000000 0.070447 0.006097
O O1 0.384820 0.632162 0.250000
O O2 0.156063 0.633625 0.250000
O O3 0.284586 0.692193 0.139398
O O4 0.500000 0.425384 0.640994
O O5 0.814316 0.366410 0.250000
O O6 0.000000 0.376075 0.118644
O O7 0.828145 0.330679 0.045818
O O8 0.813413 0.417495 0.072976
O O9 0.500000 0.337968 0.250000
O O10 0.610793 0.310758 0.433493
O O11 0.500000 0.384715 0.437087
O O12 0.500000 0.929347 0.750000
O O13 0.708224 0.937469 0.858375
O O14 0.250000 0.750000 0.500000
O O15 0.120598 0.954818 0.480874
O O16 0.312257 0.000000 0.500000
#
# Coordination Sequence:
#
# PCOD8261233 Si02
#       8
#     8   4  16   8   8  16  16   8
#     4  12  22  44  72  97 133 182 228 289 346 407
#     4  12  16  42  76  90 130 178 224 282 342 408
#     4  11  25  47  69  95 141 187 225 278 344 420
#     4  12  24  45  71  99 141 184 227 287 344 408
#     4  12  24  44  70  97 133 182 231 284 340 412
#     4  12  27  44  70 104 138 179 233 287 347 410
#     4  12  26  44  70 102 136 176 231 287 346 413
#     4  12  21  44  71 100 136 180 226 282 354 403
#
# _framework density 20.457685000000001
#
# number of rings (size 3 to 8) (size 9 to 14) (size 15 to 20)
#    0.000    0.190    7.619    1.429    5.333    1.524 
#    0.000    0.000    0.000    0.000    0.000    0.000 
#    0.000    0.000    0.000    0.000    0.000    0.000 
#
# Total GULP energy -520676.261066 kJ/mol
# GULP energy per Si atom -12397.053835 kJ/mol
# Density = 2.041112 g / cm^3
# Si number density = 20.457685 Si / 1000 Ang^3
#
#
#
# Elastic Constant Matrix: (Units=GPa)
#
#
# Indices 1 2 3 4 5 6 
#
# 1 93.2477 18.4666 13.8492 0.0000 0.0000 0.0000
# 2 18.4666 131.5978 13.7803 0.0000 0.0000 0.0000
# 3 13.8492 13.7803 108.3020 0.0000 0.0000 0.0000
# 4 0.0000 0.0000 0.0000 25.6987 0.0000 0.0000
# 5 0.0000 0.0000 0.0000 0.0000 27.7729 0.0000
# 6 0.0000 0.0000 0.0000 0.0000 0.0000 35.9839
#
#
#
# Elastic Compliance Matrix: (Units=1/GPa)
#
#
# Indices 1 2 3 4 5 6 
#
# 1 0.011195 -0.001440 -0.001248 0.000000 0.000000 0.000000
# 2 -0.001440 0.007887 -0.000819 0.000000 0.000000 0.000000
# 3 -0.001248 -0.000819 0.009497 0.000000 0.000000 0.000000
# 4 0.000000 0.000000 0.000000 0.038913 0.000000 0.000000
# 5 0.000000 0.000000 0.000000 0.000000 0.036006 0.000000
# 6 0.000000 0.000000 0.000000 0.000000 0.000000 0.027790
#
#
# Mechanical properties :
#
#
# Convention : Reuss Voigt Hill
#
# Bulk Modulus (GPa) = 46.37532 47.25998 46.81765
# Shear Modulus (GPa) = 34.36631 37.02785 35.69708
#
# Velocity S-wave (km/s) = 4.10307 4.25899 4.18176
# Velocity P-wave (km/s) = 6.72049 6.88018 6.80080
#
# Compressibility (1/GPa) = 0.02156320
#
# Stress axis : x y z
#
# Youngs Moduli (GPa) = 89.32771 126.79401 105.29289
#
# Poissons Ratio (x) = 0.18261 0.13144
# Poissons Ratio (y) = 0.12865 0.08627
# Poissons Ratio (z) = 0.11151 0.10389
#
# Static dielectric constant tensor:
#      x y z
#    x 4.007450 0.000000 0.000000 
#    y 0.000000 3.821780 0.000000 
#    z 0.000000 0.000000 4.335280 
# 
# 
# High freq. dielectric constant tensor:
#      x y z
#    x 1.813350 0.000000 0.000000 
#    y 0.000000 1.797250 0.000000 
#    z 0.000000 0.000000 1.819360 
# 
# From -- ./inp_files/18067.got.cif
#   From: 2010.03.12/outbox.cif.g09.slc.cpg/sg63_10_cif.got.tgz:18067.got - 2010.04.10 19:34:48.
