data_PCOD8261646
_publ_section_title
;
Structure prediction by ZEFSAII (Michael W. Deem and Ramdas Pophale) SiO2 
 PCOD8261646
Probable space group: C M C A
;
_chemical_formula_sum "Si O2"
_cell_formula_units_Z 96
_cell_length_a 8.681961
_cell_length_b 19.403083
_cell_length_c 30.808604
_cell_angle_alpha 90.000000
_cell_angle_beta 90.000000
_cell_angle_gamma 90.000000
_cell_volume 5189.919147
_symmetry_space_group_name_H-M "C M C A"
_symmetry_group_IT_number 64
_symmetry_cell_setting 'orthorhombic'
loop_
_space_group_symop_operation_xyz
x,y,z
-x,1/2-y,1/2+z
x,-y,-z
-x,1/2+y,1/2-z
-x,-y,-z
x,1/2+y,1/2-z
-x,y,z
x,1/2-y,1/2+z
1/2+x,1/2+y,z
1/2-x,-y,1/2+z
1/2+x,1/2-y,-z
1/2-x,y,1/2-z
1/2-x,1/2-y,-z
1/2+x,y,1/2-z
1/2-x,1/2+y,z
1/2+x,-y,1/2+z
loop_
_atom_site_type_symbol
_atom_site_label
_atom_site_fract_x
_atom_site_fract_y
_atom_site_fract_z
Si Si1 0.818186 0.900420 0.296878
Si Si2 0.818846 0.889523 0.069190
Si Si3 0.318203 0.999049 0.634512
Si Si4 0.317079 0.178368 0.484673
Si Si5 0.317745 0.846467 0.612061
Si Si6 0.182530 0.710418 0.643588
O O1 0.750000 0.914986 0.250000
O O2 0.771505 0.965376 0.326383
O O3 0.751188 0.828434 0.314754
O O4 0.000000 0.894695 0.294395
O O5 0.771592 0.963619 0.088951
O O6 0.755747 0.828650 0.100470
O O7 0.000000 0.882181 0.068698
O O8 0.758982 0.878973 0.019878
O O9 0.500000 0.007516 0.642796
O O10 0.267681 0.919889 0.631509
O O11 0.500000 0.183260 0.483788
O O12 0.250000 0.250000 0.500000
O O13 0.254175 0.158402 0.437242
O O14 0.500000 0.837475 0.612933
O O15 0.241442 0.788704 0.642301
O O16 0.000000 0.709187 0.647514
#
# Coordination Sequence:
#
# PCOD8261646 Si02
#       6
#    16  16  16  16  16  16
#     4  11  22  39  63  87 108 135 174 218 269 332
#     4   8  15  29  49  72 101 144 188 225 266 313
#     4   9  19  36  54  78 113 149 184 225 275 327
#     4  10  18  29  47  75 107 147 194 236 275 315
#     4  10  20  32  51  80 114 149 188 232 274 321
#     4  10  19  34  56  80 109 143 180 223 271 323
#
# _framework density 18.497396999999999
#
# number of rings (size 3 to 8) (size 9 to 14) (size 15 to 20)
#    0.000    2.333    1.667    3.000    0.000    1.333 
#    0.000    4.167    0.000    4.000    0.000    4.667 
#    0.000    0.000    0.000    0.000    0.000    0.000 
#
# Total GULP energy -595046.352085 kJ/mol
# GULP energy per Si atom -12396.799002 kJ/mol
# Density = 1.845530 g / cm^3
# Si number density = 18.497397 Si / 1000 Ang^3
#
#
#
# Elastic Constant Matrix: (Units=GPa)
#
#
# Indices 1 2 3 4 5 6 
#
# 1 59.3864 41.7657 31.8804 0.0000 0.0000 0.0000
# 2 41.7657 139.2726 49.3838 0.0000 0.0000 0.0000
# 3 31.8804 49.3838 105.2357 0.0000 0.0000 0.0000
# 4 0.0000 0.0000 0.0000 32.8914 0.0000 0.0000
# 5 0.0000 0.0000 0.0000 0.0000 20.7260 0.0000
# 6 0.0000 0.0000 0.0000 0.0000 0.0000 28.7208
#
#
#
# Elastic Compliance Matrix: (Units=1/GPa)
#
#
# Indices 1 2 3 4 5 6 
#
# 1 0.022968 -0.005303 -0.004469 0.000000 0.000000 0.000000
# 2 -0.005303 0.009838 -0.003010 0.000000 0.000000 0.000000
# 3 -0.004469 -0.003010 0.012269 0.000000 0.000000 0.000000
# 4 0.000000 0.000000 0.000000 0.030403 0.000000 0.000000
# 5 0.000000 0.000000 0.000000 0.000000 0.048248 0.000000
# 6 0.000000 0.000000 0.000000 0.000000 0.000000 0.034818
#
#
# Mechanical properties :
#
#
# Convention : Reuss Voigt Hill
#
# Bulk Modulus (GPa) = 51.25670 61.10608 56.18139
# Shear Modulus (GPa) = 26.23133 28.52530 27.37832
#
# Velocity S-wave (km/s) = 3.76986 3.93125 3.85140
# Velocity P-wave (km/s) = 6.83517 7.32891 7.08634
#
# Compressibility (1/GPa) = 0.01950964
#
# Stress axis : x y z
#
# Youngs Moduli (GPa) = 43.53958 101.64943 81.50632
#
# Poissons Ratio (x) = 0.53903 0.36429
# Poissons Ratio (y) = 0.23088 0.24534
# Poissons Ratio (z) = 0.19460 0.30597
#
# Static dielectric constant tensor:
#      x y z
#    x 3.190080 0.000000 0.000000 
#    y 0.000000 3.429240 0.000000 
#    z 0.000000 0.000000 3.684120 
# 
# 
# High freq. dielectric constant tensor:
#      x y z
#    x 1.699740 0.000000 0.000000 
#    y 0.000000 1.715700 0.000000 
#    z 0.000000 0.000000 1.711930 
# 
# From -- ./inp_files/48125.got.cif
#   From: 2010.03.12/outbox.cif.g09.slc.cpg/sg64_25_cif.got.tgz:48125.got - 2010.04.10 20:19:32.
