data_PCOD8261289
_publ_section_title
;
Structure prediction by ZEFSAII (Michael W. Deem and Ramdas Pophale) SiO2 
 PCOD8261289
Probable space group: C M C M
;
_chemical_formula_sum "Si O2"
_cell_formula_units_Z 80
_cell_length_a 9.518742
_cell_length_b 19.753746
_cell_length_c 25.798650
_cell_angle_alpha 90.000000
_cell_angle_beta 90.000000
_cell_angle_gamma 90.000000
_cell_volume 4850.941100
_symmetry_space_group_name_H-M "C M C M"
_symmetry_group_IT_number 63
_symmetry_cell_setting 'orthorhombic'
loop_
_space_group_symop_operation_xyz
x,y,z
-x,-y,1/2+z
x,-y,-z
-x,y,1/2-z
-x,-y,-z
x,y,1/2-z
-x,y,z
x,-y,1/2+z
1/2+x,1/2+y,z
1/2-x,1/2-y,1/2+z
1/2+x,1/2-y,-z
1/2-x,1/2+y,1/2-z
1/2-x,1/2-y,-z
1/2+x,1/2+y,1/2-z
1/2-x,1/2+y,z
1/2+x,1/2-y,1/2+z
loop_
_atom_site_type_symbol
_atom_site_label
_atom_site_fract_x
_atom_site_fract_y
_atom_site_fract_z
Si Si1 0.841996 0.454051 0.250000
Si Si2 0.344433 0.707121 0.656019
Si Si3 0.334153 0.295853 0.460560
Si Si4 0.832814 0.051329 0.957608
Si Si5 0.156690 0.046260 0.843702
Si Si6 0.658106 0.207690 0.750000
O O1 0.762523 0.482721 0.199363
O O2 0.841748 0.373182 0.250000
O O3 0.000000 0.482519 0.250000
O O4 0.500000 0.735954 0.668381
O O5 0.298230 0.728377 0.598007
O O6 0.350926 0.626694 0.659261
O O7 0.235790 0.735804 0.698555
O O8 0.500000 0.289900 0.471133
O O9 0.250000 0.250000 0.500000
O O10 0.280110 0.372709 0.468939
O O11 0.785324 0.025821 0.900574
O O12 0.000000 0.051619 0.958930
O O13 0.768703 0.000000 0.000000
O O14 0.000000 0.016782 0.833832
O O15 0.500000 0.236157 0.750000
#
# Coordination Sequence:
#
# PCOD8261289 Si02
#       6
#     8  16  16  16  16   8
#     4   9  15  21  31  51  80 107 128 157 201 247
#     4   8  14  24  36  52  77 107 134 160 198 248
#     4   9  17  28  43  63  86 113 142 172 208 248
#     4   8  14  26  44  64  84 108 141 177 208 240
#     4   8  13  22  37  55  75 101 133 166 199 239
#     4   9  15  21  33  55  78 101 130 165 205 241
#
# _framework density 16.491645999999999
#
# number of rings (size 3 to 8) (size 9 to 14) (size 15 to 20)
#    0.000    3.600    0.000    3.000    0.000    3.200 
#    0.000    3.000    0.000    2.400    0.000    1.400 
#    0.000    3.200    0.000    0.000    0.000    0.000 
#
# Total GULP energy -495677.785799 kJ/mol
# GULP energy per Si atom -12391.944645 kJ/mol
# Density = 1.645411 g / cm^3
# Si number density = 16.491646 Si / 1000 Ang^3
#
#
#
# Elastic Constant Matrix: (Units=GPa)
#
#
# Indices 1 2 3 4 5 6 
#
# 1 94.4635 23.4723 83.2546 0.0000 0.0000 0.0000
# 2 23.4723 31.4457 43.0329 0.0000 0.0000 0.0000
# 3 83.2546 43.0329 175.5279 0.0000 0.0000 0.0000
# 4 0.0000 0.0000 0.0000 20.0845 0.0000 0.0000
# 5 0.0000 0.0000 0.0000 0.0000 26.3212 0.0000
# 6 0.0000 0.0000 0.0000 0.0000 0.0000 9.7336
#
#
#
# Elastic Compliance Matrix: (Units=1/GPa)
#
#
# Indices 1 2 3 4 5 6 
#
# 1 0.018340 -0.002687 -0.008040 0.000000 0.000000 0.000000
# 2 -0.002687 0.048251 -0.010555 0.000000 0.000000 0.000000
# 3 -0.008040 -0.010555 0.012098 0.000000 0.000000 0.000000
# 4 0.000000 0.000000 0.000000 0.049790 0.000000 0.000000
# 5 0.000000 0.000000 0.000000 0.000000 0.037992 0.000000
# 6 0.000000 0.000000 0.000000 0.000000 0.000000 0.102736
#
#
# Mechanical properties :
#
#
# Convention : Reuss Voigt Hill
#
# Bulk Modulus (GPa) = 27.68162 66.77297 47.22729
# Shear Modulus (GPa) = 15.44107 21.33970 18.39039
#
# Velocity S-wave (km/s) = 3.06322 3.60108 3.34298
# Velocity P-wave (km/s) = 5.41597 7.60705 6.60303
#
# Compressibility (1/GPa) = 0.03612505
#
# Stress axis : x y z
#
# Youngs Moduli (GPa) = 54.52652 20.72517 82.65711
#
# Poissons Ratio (x) = 0.05569 0.66456
# Poissons Ratio (y) = 0.14651 0.87243
# Poissons Ratio (z) = 0.43839 0.21875
#
# Static dielectric constant tensor:
#      x y z
#    x 3.090700 0.000000 0.000000 
#    y 0.000000 2.590450 0.000000 
#    z 0.000000 0.000000 3.196460 
# 
# 
# High freq. dielectric constant tensor:
#      x y z
#    x 1.617560 0.000000 0.000000 
#    y 0.000000 1.560460 0.000000 
#    z 0.000000 0.000000 1.653690 
# 
# From -- ./inp_files/59566.got.cif
#   From: 2010.03.12/outbox.cif.g09.slc.cpg/sg63_30_cif.got.tgz:59566.got - 2010.04.10 19:34:48.
