data_PCOD8261114
_publ_section_title
;
Structure prediction by ZEFSAII (Michael W. Deem and Ramdas Pophale) SiO2 
 PCOD8261114
Probable space group: C M C M
;
_chemical_formula_sum "Si O2"
_cell_formula_units_Z 64
_cell_length_a 23.156135
_cell_length_b 9.626001
_cell_length_c 13.636898
_cell_angle_alpha 90.000000
_cell_angle_beta 90.000000
_cell_angle_gamma 90.000000
_cell_volume 3039.677910
_symmetry_space_group_name_H-M "C M C M"
_symmetry_group_IT_number 63
_symmetry_cell_setting 'orthorhombic'
loop_
_space_group_symop_operation_xyz
x,y,z
-x,-y,1/2+z
x,-y,-z
-x,y,1/2-z
-x,-y,-z
x,y,1/2-z
-x,y,z
x,-y,1/2+z
1/2+x,1/2+y,z
1/2-x,1/2-y,1/2+z
1/2+x,1/2-y,-z
1/2-x,1/2+y,1/2-z
1/2-x,1/2-y,-z
1/2+x,1/2+y,1/2-z
1/2-x,1/2+y,z
1/2+x,1/2-y,1/2+z
loop_
_atom_site_type_symbol
_atom_site_label
_atom_site_fract_x
_atom_site_fract_y
_atom_site_fract_z
Si Si1 0.803505 0.191789 0.750000
Si Si2 0.312406 0.980468 0.250000
Si Si3 0.500000 0.415150 0.132086
Si Si4 0.110677 0.618340 0.572131
Si Si5 0.376254 0.360717 0.060061
Si Si6 0.500000 0.276745 0.860233
O O1 0.741868 0.119900 0.750000
O O2 0.795245 0.357762 0.750000
O O3 0.837459 0.136379 0.843920
O O4 0.348486 0.948618 0.152987
O O5 0.500000 0.406659 0.250000
O O6 0.443267 0.337555 0.090976
O O7 0.500000 0.572886 0.086325
O O8 0.087943 0.500000 0.500000
O O9 0.144406 0.734627 0.509281
O O10 0.056046 0.687393 0.621782
O O11 0.365592 0.500000 0.000000
O O12 0.500000 0.325782 0.750000
#
# Coordination Sequence:
#
# PCOD8261114 Si02
#       6
#     8   8   8  16  16   8
#     4  12  30  51  72 103 139 186 238 304 349 414
#     4  12  30  51  72 103 139 182 246 296 355 416
#     4  11  22  40  71 108 147 185 230 278 348 424
#     4  12  25  46  71 105 146 184 230 290 353 423
#     4  12  25  45  74 107 145 188 232 284 355 421
#     4  11  22  39  71 107 145 187 226 283 349 417
#
# _framework density 21.054863000000001
#
# number of rings (size 3 to 8) (size 9 to 14) (size 15 to 20)
#    0.000    0.250    7.500    1.500    3.500    2.000 
#    0.000    2.500    0.000    0.000    0.000    0.000 
#    0.000    0.000    0.000    0.000    0.000    0.000 
#
# Total GULP energy -396895.608219 kJ/mol
# GULP energy per Si atom -12402.987757 kJ/mol
# Density = 2.100694 g / cm^3
# Si number density = 21.054863 Si / 1000 Ang^3
#
#
#
# Elastic Constant Matrix: (Units=GPa)
#
#
# Indices 1 2 3 4 5 6 
#
# 1 102.2125 27.8617 36.0619 0.0000 0.0000 0.0000
# 2 27.8617 134.1110 49.8069 0.0000 0.0000 0.0000
# 3 36.0619 49.8069 115.3995 0.0000 0.0000 0.0000
# 4 0.0000 0.0000 0.0000 40.4624 0.0000 0.0000
# 5 0.0000 0.0000 0.0000 0.0000 5.6788 0.0000
# 6 0.0000 0.0000 0.0000 0.0000 0.0000 66.5492
#
#
#
# Elastic Compliance Matrix: (Units=1/GPa)
#
#
# Indices 1 2 3 4 5 6 
#
# 1 0.011161 -0.001219 -0.002962 0.000000 0.000000 0.000000
# 2 -0.001219 0.009013 -0.003509 0.000000 0.000000 0.000000
# 3 -0.002962 -0.003509 0.011106 0.000000 0.000000 0.000000
# 4 0.000000 0.000000 0.000000 0.024714 0.000000 0.000000
# 5 0.000000 0.000000 0.000000 0.000000 0.176094 0.000000
# 6 0.000000 0.000000 0.000000 0.000000 0.000000 0.015026
#
#
# Mechanical properties :
#
#
# Convention : Reuss Voigt Hill
#
# Bulk Modulus (GPa) = 62.89259 64.35377 63.62318
# Shear Modulus (GPa) = 18.67111 38.40425 28.53768
#
# Velocity S-wave (km/s) = 2.98112 4.27547 3.68556
# Velocity P-wave (km/s) = 6.46414 7.41647 6.95662
#
# Compressibility (1/GPa) = 0.01590013
#
# Stress axis : x y z
#
# Youngs Moduli (GPa) = 89.60041 110.95134 90.04443
#
# Poissons Ratio (x) = 0.13522 0.26668
# Poissons Ratio (y) = 0.10920 0.31598
# Poissons Ratio (z) = 0.26537 0.38935
#
# Static dielectric constant tensor:
#      x y z
#    x 3.658840 0.000000 0.000000 
#    y 0.000000 3.999400 0.000000 
#    z 0.000000 0.000000 4.186660 
# 
# 
# High freq. dielectric constant tensor:
#      x y z
#    x 1.811260 0.000000 0.000000 
#    y 0.000000 1.839000 0.000000 
#    z 0.000000 0.000000 1.858120 
# 
# From -- ./inp_files/36272.got.cif
#   From: 2010.03.12/outbox.cif.g09.slc.cpg/sg63_19_cif.got.tgz:36272.got - 2010.04.10 19:34:48.
