data_PCOD8261903
_publ_section_title
;
Structure prediction by ZEFSAII (Michael W. Deem and Ramdas Pophale) SiO2 
 PCOD8261903
Probable space group: C M C A
;
_chemical_formula_sum "Si O2"
_cell_formula_units_Z 48
_cell_length_a 8.981391
_cell_length_b 17.840966
_cell_length_c 14.772600
_cell_angle_alpha 90.000000
_cell_angle_beta 90.000000
_cell_angle_gamma 90.000000
_cell_volume 2367.112548
_symmetry_space_group_name_H-M "C M C A"
_symmetry_group_IT_number 64
_symmetry_cell_setting 'orthorhombic'
loop_
_space_group_symop_operation_xyz
x,y,z
-x,1/2-y,1/2+z
x,-y,-z
-x,1/2+y,1/2-z
-x,-y,-z
x,1/2+y,1/2-z
-x,y,z
x,1/2-y,1/2+z
1/2+x,1/2+y,z
1/2-x,-y,1/2+z
1/2+x,1/2-y,-z
1/2-x,y,1/2-z
1/2-x,1/2-y,-z
1/2+x,y,1/2-z
1/2-x,1/2+y,z
1/2+x,-y,1/2+z
loop_
_atom_site_type_symbol
_atom_site_label
_atom_site_fract_x
_atom_site_fract_y
_atom_site_fract_z
Si Si1 0.000000 0.742479 0.123562
Si Si2 0.500000 0.599930 0.485266
Si Si3 0.250000 0.272599 0.250000
Si Si4 0.756724 0.500000 0.500000
Si Si5 0.000000 0.080818 0.883927
Si Si6 0.000000 0.124515 0.687082
O O1 0.853580 0.723235 0.183568
O O2 0.000000 0.829761 0.093974
O O3 0.000000 0.688220 0.037048
O O4 0.650733 0.560639 0.448523
O O5 0.500000 0.581329 0.592842
O O6 0.353161 0.324386 0.312491
O O7 0.854630 0.458164 0.424763
O O8 0.000000 0.069869 0.775127
#
# Coordination Sequence:
#
# PCOD8261903 Si02
#       6
#     8   8   8   8   8   8
#     4  10  20  38  62  84 111 152 194 234 278 336
#     4  11  22  36  58  89 119 145 184 239 291 338
#     4   8  18  34  56  86 112 144 194 236 274 328
#     4  10  22  38  54  84 120 146 190 240 284 334
#     4   9  20  40  62  81 110 156 199 232 275 337
#     4  10  18  34  60  84 110 151 193 226 278 350
#
# _framework density 20.27787
#
# number of rings (size 3 to 8) (size 9 to 14) (size 15 to 20)
#    0.000    2.667    0.000    4.000    0.000    5.333 
#    0.000   11.667    0.000    0.000    0.000    0.000 
#    0.000    0.000    0.000    0.000    0.000    0.000 
#
# Total GULP energy -297376.326716 kJ/mol
# GULP energy per Si atom -12390.680280 kJ/mol
# Density = 2.023172 g / cm^3
# Si number density = 20.277870 Si / 1000 Ang^3
#
#
#
# Elastic Constant Matrix: (Units=GPa)
#
#
# Indices 1 2 3 4 5 6 
#
# 1 160.0853 48.6368 50.4863 0.0000 0.0000 0.0000
# 2 48.6368 113.5777 65.8790 0.0000 0.0000 0.0000
# 3 50.4863 65.8790 108.8413 0.0000 0.0000 0.0000
# 4 0.0000 0.0000 0.0000 29.1164 0.0000 0.0000
# 5 0.0000 0.0000 0.0000 0.0000 16.3143 0.0000
# 6 0.0000 0.0000 0.0000 0.0000 0.0000 48.3859
#
#
#
# Elastic Compliance Matrix: (Units=1/GPa)
#
#
# Indices 1 2 3 4 5 6 
#
# 1 0.007562 -0.001855 -0.002385 0.000000 0.000000 0.000000
# 2 -0.001855 0.014023 -0.007627 0.000000 0.000000 0.000000
# 3 -0.002385 -0.007627 0.014911 0.000000 0.000000 0.000000
# 4 0.000000 0.000000 0.000000 0.034345 0.000000 0.000000
# 5 0.000000 0.000000 0.000000 0.000000 0.061296 0.000000
# 6 0.000000 0.000000 0.000000 0.000000 0.000000 0.020667
#
#
# Mechanical properties :
#
#
# Convention : Reuss Voigt Hill
#
# Bulk Modulus (GPa) = 78.36203 79.16761 78.76482
# Shear Modulus (GPa) = 27.65596 33.26347 30.45971
#
# Velocity S-wave (km/s) = 3.69704 4.05456 3.87992
# Velocity P-wave (km/s) = 7.54666 7.81316 7.68107
#
# Compressibility (1/GPa) = 0.01276128
#
# Stress axis : x y z
#
# Youngs Moduli (GPa) = 132.23261 71.31117 67.06610
#
# Poissons Ratio (x) = 0.13228 0.15996
# Poissons Ratio (y) = 0.24529 0.51154
# Poissons Ratio (z) = 0.31538 0.54392
#
# Static dielectric constant tensor:
#      x y z
#    x 10.100780 0.000000 0.000000 
#    y 0.000000 3.381670 0.000000 
#    z 0.000000 0.000000 3.416380 
# 
# 
# High freq. dielectric constant tensor:
#      x y z
#    x 1.827370 0.000000 0.000000 
#    y 0.000000 1.764210 0.000000 
#    z 0.000000 0.000000 1.768910 
# 
# From -- ./inp_files/20550.got.cif
#   From: 2010.03.12/outbox.cif.g09.slc.cpg/sg64_11_cif.got.tgz:20550.got - 2010.04.10 20:19:32.
