data_PCOD8261892
_publ_section_title
;
Structure prediction by ZEFSAII (Michael W. Deem and Ramdas Pophale) SiO2 
 PCOD8261892
Probable space group: C M C A
;
_chemical_formula_sum "Si O2"
_cell_formula_units_Z 72
_cell_length_a 11.068215
_cell_length_b 14.835314
_cell_length_c 20.782631
_cell_angle_alpha 90.000000
_cell_angle_beta 90.000000
_cell_angle_gamma 90.000000
_cell_volume 3412.517257
_symmetry_space_group_name_H-M "C M C A"
_symmetry_group_IT_number 64
_symmetry_cell_setting 'orthorhombic'
loop_
_space_group_symop_operation_xyz
x,y,z
-x,1/2-y,1/2+z
x,-y,-z
-x,1/2+y,1/2-z
-x,-y,-z
x,1/2+y,1/2-z
-x,y,z
x,1/2-y,1/2+z
1/2+x,1/2+y,z
1/2-x,-y,1/2+z
1/2+x,1/2-y,-z
1/2-x,y,1/2-z
1/2-x,1/2-y,-z
1/2+x,y,1/2-z
1/2-x,1/2+y,z
1/2+x,-y,1/2+z
loop_
_atom_site_type_symbol
_atom_site_label
_atom_site_fract_x
_atom_site_fract_y
_atom_site_fract_z
Si Si1 0.368140 0.941769 0.866110
Si Si2 0.132250 0.845214 0.023842
Si Si3 0.195258 0.000000 0.500000
Si Si4 0.639550 0.370790 0.298832
Si Si5 0.781767 0.720834 0.393406
O O1 0.500000 0.910974 0.840893
O O2 0.268483 0.864509 0.851980
O O3 0.329769 0.033860 0.831374
O O4 0.382813 0.956315 0.943248
O O5 0.129916 0.812352 0.949885
O O6 0.000000 0.880010 0.042083
O O7 0.165395 0.765430 0.072739
O O8 0.223437 0.926237 0.035665
O O9 0.500000 0.371234 0.270748
O O10 0.750000 0.352334 0.250000
O O11 0.643551 0.289327 0.349607
#
# Coordination Sequence:
#
# PCOD8261892 Si02
#       5
#    16  16   8  16  16
#     4  10  21  38  62  91 125 163 211 259 313 377
#     4  10  19  32  55  91 129 161 199 255 315 379
#     4  10  18  34  56  90 126 164 204 248 320 376
#     4  11  25  46  66  90 124 169 216 262 312 372
#     4  10  21  38  60  90 123 163 209 254 316 377
#
# _framework density 21.098794000000002
#
# number of rings (size 3 to 8) (size 9 to 14) (size 15 to 20)
#    0.000    1.778    2.222    2.000    0.000    2.667 
#    0.000    4.444    0.000    0.000    0.000    0.000 
#    0.000    0.000    0.000    0.000    0.000    0.000 
#
# Total GULP energy -446186.862563 kJ/mol
# GULP energy per Si atom -12394.079516 kJ/mol
# Density = 2.105077 g / cm^3
# Si number density = 21.098794 Si / 1000 Ang^3
#
#
#
# Elastic Constant Matrix: (Units=GPa)
#
#
# Indices 1 2 3 4 5 6 
#
# 1 115.1087 29.3718 22.8316 0.0000 0.0000 0.0000
# 2 29.3718 114.1440 12.2769 0.0000 0.0000 0.0000
# 3 22.8316 12.2769 40.4390 0.0000 0.0000 0.0000
# 4 0.0000 0.0000 0.0000 28.6098 0.0000 0.0000
# 5 0.0000 0.0000 0.0000 0.0000 3.2815 0.0000
# 6 0.0000 0.0000 0.0000 0.0000 0.0000 7.1737
#
#
#
# Elastic Compliance Matrix: (Units=1/GPa)
#
#
# Indices 1 2 3 4 5 6 
#
# 1 0.010240 -0.002081 -0.005150 0.000000 0.000000 0.000000
# 2 -0.002081 0.009480 -0.001703 0.000000 0.000000 0.000000
# 3 -0.005150 -0.001703 0.028153 0.000000 0.000000 0.000000
# 4 0.000000 0.000000 0.000000 0.034953 0.000000 0.000000
# 5 0.000000 0.000000 0.000000 0.000000 0.304738 0.000000
# 6 0.000000 0.000000 0.000000 0.000000 0.000000 0.139399
#
#
# Mechanical properties :
#
#
# Convention : Reuss Voigt Hill
#
# Bulk Modulus (GPa) = 33.32747 44.29469 38.81108
# Shear Modulus (GPa) = 9.01174 21.49376 15.25275
#
# Velocity S-wave (km/s) = 2.06893 3.19520 2.69164
# Velocity P-wave (km/s) = 4.64085 5.88659 5.30045
#
# Compressibility (1/GPa) = 0.03000528
#
# Stress axis : x y z
#
# Youngs Moduli (GPa) = 97.65753 105.49041 35.52014
#
# Poissons Ratio (x) = 0.21953 0.18291
# Poissons Ratio (y) = 0.20323 0.06049
# Poissons Ratio (z) = 0.50289 0.17964
#
# Static dielectric constant tensor:
#      x y z
#    x 3.580680 0.000000 0.000000 
#    y 0.000000 3.939170 0.000000 
#    z 0.000000 0.000000 3.483410 
# 
# 
# High freq. dielectric constant tensor:
#      x y z
#    x 1.825090 0.000000 0.000000 
#    y 0.000000 1.839240 0.000000 
#    z 0.000000 0.000000 1.791290 
# 
# From -- ./inp_files/43845.got.cif
#   From: 2010.03.12/outbox.cif.g09.slc.cpg/sg64_22_cif.got.tgz:43845.got - 2010.04.10 20:19:32.
