data_PCOD8261345
_publ_section_title
;
Structure prediction by ZEFSAII (Michael W. Deem and Ramdas Pophale) SiO2 
 PCOD8261345
Probable space group: C M C M
;
_chemical_formula_sum "Si O2"
_cell_formula_units_Z 112
_cell_length_a 10.061415
_cell_length_b 27.826328
_cell_length_c 23.307292
_cell_angle_alpha 90.000000
_cell_angle_beta 90.000000
_cell_angle_gamma 90.000000
_cell_volume 6525.394608
_symmetry_space_group_name_H-M "C M C M"
_symmetry_group_IT_number 63
_symmetry_cell_setting 'orthorhombic'
loop_
_space_group_symop_operation_xyz
x,y,z
-x,-y,1/2+z
x,-y,-z
-x,y,1/2-z
-x,-y,-z
x,y,1/2-z
-x,y,z
x,-y,1/2+z
1/2+x,1/2+y,z
1/2-x,1/2-y,1/2+z
1/2+x,1/2-y,-z
1/2-x,1/2+y,1/2-z
1/2-x,1/2-y,-z
1/2+x,1/2+y,1/2-z
1/2-x,1/2+y,z
1/2+x,1/2-y,1/2+z
loop_
_atom_site_type_symbol
_atom_site_label
_atom_site_fract_x
_atom_site_fract_y
_atom_site_fract_z
Si Si1 0.158117 0.193129 0.815271
Si Si2 0.652911 0.480306 0.057974
Si Si3 0.354729 0.126589 0.186238
Si Si4 0.848911 0.718290 0.392533
Si Si5 0.343217 0.622290 0.590039
Si Si6 0.654145 0.663615 0.030790
Si Si7 0.851607 0.921687 0.883778
O O1 0.217176 0.193436 0.750000
O O2 0.206078 0.238395 0.853286
O O3 0.209028 0.146117 0.850541
O O4 0.000000 0.194396 0.811120
O O5 0.500000 0.468104 0.042799
O O6 0.720174 0.431062 0.081492
O O7 0.665255 0.522106 0.104271
O O8 0.723243 0.500000 0.000000
O O9 0.324068 0.144301 0.250000
O O10 0.500000 0.102328 0.181603
O O11 0.347722 0.172625 0.147349
O O12 0.246967 0.087536 0.168395
O O13 0.748142 0.706408 0.444896
O O14 0.000000 0.728683 0.415291
O O15 0.500000 0.617114 0.594953
O O16 0.308309 0.656580 0.535996
O O17 0.500000 0.678979 0.038271
O O18 0.680951 0.612147 0.061477
O O19 0.000000 0.910395 0.862599
#
# Coordination Sequence:
#
# PCOD8261345 Si02
#       7
#    16  16  16  16  16  16  16
#     4   9  17  29  44  62  86 118 155 192 225 260
#     4   9  14  24  43  65  89 121 152 176 217 279
#     4   9  17  29  44  61  85 119 153 183 221 271
#     4   9  17  29  46  66  89 118 151 186 226 271
#     4   9  16  26  43  67  92 119 152 187 225 270
#     4   9  16  27  44  69  96 118 144 181 227 274
#     4   9  16  26  43  67  92 116 146 184 223 266
#
# _framework density 17.163712
#
# number of rings (size 3 to 8) (size 9 to 14) (size 15 to 20)
#    0.000    3.000    1.429    0.429    0.000    2.571 
#    0.000    0.714    0.000    5.143    0.000    0.000 
#    0.000    0.000    0.000    0.000    0.000    0.000 
#
# Total GULP energy -693871.561144 kJ/mol
# GULP energy per Si atom -12390.563592 kJ/mol
# Density = 1.712465 g / cm^3
# Si number density = 17.163712 Si / 1000 Ang^3
#
#
#
# Elastic Constant Matrix: (Units=GPa)
#
#
# Indices 1 2 3 4 5 6 
#
# 1 40.6836 23.7805 27.9479 0.0000 0.0000 0.0000
# 2 23.7805 94.1053 45.0905 0.0000 0.0000 0.0000
# 3 27.9479 45.0905 86.2714 0.0000 0.0000 0.0000
# 4 0.0000 0.0000 0.0000 10.8141 0.0000 0.0000
# 5 0.0000 0.0000 0.0000 0.0000 16.2655 0.0000
# 6 0.0000 0.0000 0.0000 0.0000 0.0000 10.8853
#
#
#
# Elastic Compliance Matrix: (Units=1/GPa)
#
#
# Indices 1 2 3 4 5 6 
#
# 1 0.032855 -0.004273 -0.008410 0.000000 0.000000 0.000000
# 2 -0.004273 0.014732 -0.006316 0.000000 0.000000 0.000000
# 3 -0.008410 -0.006316 0.017617 0.000000 0.000000 0.000000
# 4 0.000000 0.000000 0.000000 0.092472 0.000000 0.000000
# 5 0.000000 0.000000 0.000000 0.000000 0.061480 0.000000
# 6 0.000000 0.000000 0.000000 0.000000 0.000000 0.091867
#
#
# Mechanical properties :
#
#
# Convention : Reuss Voigt Hill
#
# Bulk Modulus (GPa) = 36.75586 46.07754 41.41670
# Shear Modulus (GPa) = 13.96299 15.87574 14.91936
#
# Velocity S-wave (km/s) = 2.85532 3.04461 2.95148
# Velocity P-wave (km/s) = 5.68611 6.26608 5.98312
#
# Compressibility (1/GPa) = 0.02720654
#
# Stress axis : x y z
#
# Youngs Moduli (GPa) = 30.43681 67.87791 56.76369
#
# Poissons Ratio (x) = 0.29002 0.47740
# Poissons Ratio (y) = 0.13005 0.35851
# Poissons Ratio (z) = 0.25598 0.42871
#
# Static dielectric constant tensor:
#      x y z
#    x 3.046270 0.000000 0.000000 
#    y 0.000000 3.333280 0.000000 
#    z 0.000000 0.000000 3.306760 
# 
# 
# High freq. dielectric constant tensor:
#      x y z
#    x 1.608350 0.000000 0.000000 
#    y 0.000000 1.662260 0.000000 
#    z 0.000000 0.000000 1.658850 
# 
# From -- ./inp_files/53142.got.cif
#   From: 2010.03.12/outbox.cif.g09.slc.cpg/sg63_27_cif.got.tgz:53142.got - 2010.04.10 19:34:48.
