data_PCOD8261040
_publ_section_title
;
Structure prediction by ZEFSAII (Michael W. Deem and Ramdas Pophale) SiO2 
 PCOD8261040
Probable space group: C M C M
;
_chemical_formula_sum "Si O2"
_cell_formula_units_Z 112
_cell_length_a 17.573251
_cell_length_b 11.530531
_cell_length_c 29.703403
_cell_angle_alpha 90.000000
_cell_angle_beta 90.000000
_cell_angle_gamma 90.000000
_cell_volume 6018.768334
_symmetry_space_group_name_H-M "C M C M"
_symmetry_group_IT_number 63
_symmetry_cell_setting 'orthorhombic'
loop_
_space_group_symop_operation_xyz
x,y,z
-x,-y,1/2+z
x,-y,-z
-x,y,1/2-z
-x,-y,-z
x,y,1/2-z
-x,y,z
x,-y,1/2+z
1/2+x,1/2+y,z
1/2-x,1/2-y,1/2+z
1/2+x,1/2-y,-z
1/2-x,1/2+y,1/2-z
1/2-x,1/2-y,-z
1/2+x,1/2+y,1/2-z
1/2-x,1/2+y,z
1/2+x,1/2-y,1/2+z
loop_
_atom_site_type_symbol
_atom_site_label
_atom_site_fract_x
_atom_site_fract_y
_atom_site_fract_z
Si Si1 0.083353 0.579901 0.438532
Si Si2 0.415911 0.235051 0.149843
Si Si3 0.831218 0.083042 0.599445
Si Si4 0.908306 0.840681 0.580833
Si Si5 0.589700 0.984596 0.801003
Si Si6 0.162752 0.232387 0.511286
Si Si7 0.155510 0.389989 0.383981
O O1 0.083215 0.658736 0.394747
O O2 0.134610 0.637954 0.477065
O O3 0.110612 0.452937 0.424210
O O4 0.000000 0.567906 0.459493
O O5 0.500000 0.282148 0.161126
O O6 0.362036 0.345177 0.142519
O O7 0.386406 0.149560 0.189473
O O8 0.849813 0.146184 0.552729
O O9 0.742007 0.074484 0.607206
O O10 0.873470 0.960423 0.598760
O O11 0.885732 0.822264 0.529024
O O12 0.865628 0.744774 0.611344
O O13 0.000000 0.838483 0.586537
O O14 0.611514 0.016413 0.750000
O O15 0.500000 0.997966 0.810330
O O16 0.633508 0.072095 0.833702
O O17 0.250000 0.250000 0.500000
#
# Coordination Sequence:
#
# PCOD8261040 Si02
#       7
#    16  16  16  16  16  16  16
#     4   9  18  33  54  75 103 142 189 241 284 324
#     4   8  16  33  57  83 106 138 185 232 281 339
#     4  11  23  37  58  79 119 159 194 237 297 345
#     4  12  25  38  57  87 121 163 207 245 291 360
#     4   9  18  36  65  92 113 143 189 243 295 356
#     4  11  21  38  55  80 112 155 203 252 291 336
#     4  11  22  37  59  83 119 154 195 242 301 359
#
# _framework density 18.608459
#
# number of rings (size 3 to 8) (size 9 to 14) (size 15 to 20)
#    0.000    1.857    1.429    4.286    4.000    2.857 
#    0.000    2.143    0.000    0.857    0.000    2.000 
#    0.000    0.000    0.000    0.000    0.000    0.000 
#
# Total GULP energy -694245.654394 kJ/mol
# GULP energy per Si atom -12397.243828 kJ/mol
# Density = 1.856610 g / cm^3
# Si number density = 18.608459 Si / 1000 Ang^3
#
#
#
# Elastic Constant Matrix: (Units=GPa)
#
#
# Indices 1 2 3 4 5 6 
#
# 1 110.6516 36.1702 28.7217 0.0000 0.0000 0.0000
# 2 36.1702 109.4844 37.9282 0.0000 0.0000 0.0000
# 3 28.7217 37.9282 94.4685 0.0000 0.0000 0.0000
# 4 0.0000 0.0000 0.0000 24.2778 0.0000 0.0000
# 5 0.0000 0.0000 0.0000 0.0000 22.4153 0.0000
# 6 0.0000 0.0000 0.0000 0.0000 0.0000 31.9139
#
#
#
# Elastic Compliance Matrix: (Units=1/GPa)
#
#
# Indices 1 2 3 4 5 6 
#
# 1 0.010474 -0.002738 -0.002085 0.000000 0.000000 0.000000
# 2 -0.002738 0.011325 -0.003714 0.000000 0.000000 0.000000
# 3 -0.002085 -0.003714 0.012711 0.000000 0.000000 0.000000
# 4 0.000000 0.000000 0.000000 0.041190 0.000000 0.000000
# 5 0.000000 0.000000 0.000000 0.000000 0.044612 0.000000
# 6 0.000000 0.000000 0.000000 0.000000 0.000000 0.031334
#
#
# Mechanical properties :
#
#
# Convention : Reuss Voigt Hill
#
# Bulk Modulus (GPa) = 57.35737 57.80495 57.58116
# Shear Modulus (GPa) = 28.64801 29.84038 29.24419
#
# Velocity S-wave (km/s) = 3.92792 4.00883 3.96858
# Velocity P-wave (km/s) = 7.17368 7.24975 7.21181
#
# Compressibility (1/GPa) = 0.01743455
#
# Stress axis : x y z
#
# Youngs Moduli (GPa) = 95.47865 88.30023 78.67316
#
# Poissons Ratio (x) = 0.24175 0.16404
# Poissons Ratio (y) = 0.26140 0.29223
# Poissons Ratio (z) = 0.19908 0.32799
#
# Static dielectric constant tensor:
#      x y z
#    x 5.223300 0.000000 0.000000 
#    y 0.000000 3.561070 0.000000 
#    z 0.000000 0.000000 3.378050 
# 
# 
# High freq. dielectric constant tensor:
#      x y z
#    x 1.728980 0.000000 0.000000 
#    y 0.000000 1.724840 0.000000 
#    z 0.000000 0.000000 1.698450 
# 
# From -- ./inp_files/73451.got.cif
#   From: 2010.03.12/outbox.cif.g09.slc.cpg/sg63_37_cif.got.tgz:73451.got - 2010.04.10 19:34:48.
