data_PCOD8261157
_publ_section_title
;
Structure prediction by ZEFSAII (Michael W. Deem and Ramdas Pophale) SiO2 
 PCOD8261157
Probable space group: C M C M
;
_chemical_formula_sum "Si O2"
_cell_formula_units_Z 64
_cell_length_a 24.139416
_cell_length_b 8.561088
_cell_length_c 16.545638
_cell_angle_alpha 90.000000
_cell_angle_beta 90.000000
_cell_angle_gamma 90.000000
_cell_volume 3419.316000
_symmetry_space_group_name_H-M "C M C M"
_symmetry_group_IT_number 63
_symmetry_cell_setting 'orthorhombic'
loop_
_space_group_symop_operation_xyz
x,y,z
-x,-y,1/2+z
x,-y,-z
-x,y,1/2-z
-x,-y,-z
x,y,1/2-z
-x,y,z
x,-y,1/2+z
1/2+x,1/2+y,z
1/2-x,1/2-y,1/2+z
1/2+x,1/2-y,-z
1/2-x,1/2+y,1/2-z
1/2-x,1/2-y,-z
1/2+x,1/2+y,1/2-z
1/2-x,1/2+y,z
1/2+x,1/2-y,1/2+z
loop_
_atom_site_type_symbol
_atom_site_label
_atom_site_fract_x
_atom_site_fract_y
_atom_site_fract_z
Si Si1 0.894825 0.893444 0.424413
Si Si2 0.500000 0.289269 0.838576
Si Si3 0.878905 0.200861 0.344470
Si Si4 0.000000 0.840418 0.339335
Si Si5 0.810370 0.682627 0.986603
O O1 0.848449 0.769616 0.448280
O O2 0.945644 0.790698 0.389615
O O3 0.914099 0.000000 0.500000
O O4 0.872048 0.013596 0.356428
O O5 0.500000 0.213489 0.750000
O O6 0.559494 0.242759 0.878183
O O7 0.500000 0.474601 0.830904
O O8 0.871419 0.239969 0.250000
O O9 0.831834 0.288322 0.395443
O O10 0.000000 0.762353 0.250000
O O11 0.810342 0.500000 0.000000
O O12 0.750000 0.750000 0.000000
#
# Coordination Sequence:
#
# PCOD8261157 Si02
#       5
#    16   8  16   8  16
#     4   9  17  31  55  81 109 140 177 219 266 316
#     4   7  12  25  51  82 110 135 168 211 258 309
#     4   9  17  34  59  86 110 140 179 221 263 314
#     4   9  15  27  49  82 114 141 174 213 253 311
#     4  11  23  40  56  75 106 144 184 226 273 323
#
# _framework density 18.717193000000002
#
# number of rings (size 3 to 8) (size 9 to 14) (size 15 to 20)
#    0.000    2.750    0.000    4.875    0.000    3.000 
#    0.000   11.250    0.000    1.500    0.000    0.000 
#    0.000    0.000    0.000    0.000    0.000    0.000 
#
# Total GULP energy -396422.473026 kJ/mol
# GULP energy per Si atom -12388.202282 kJ/mol
# Density = 1.867459 g / cm^3
# Si number density = 18.717193 Si / 1000 Ang^3
#
#
#
# Elastic Constant Matrix: (Units=GPa)
#
#
# Indices 1 2 3 4 5 6 
#
# 1 176.2559 62.2470 83.9717 0.0000 0.0000 0.0000
# 2 62.2470 86.2017 36.1615 0.0000 0.0000 0.0000
# 3 83.9717 36.1615 101.9942 0.0000 0.0000 0.0000
# 4 0.0000 0.0000 0.0000 20.1071 0.0000 0.0000
# 5 0.0000 0.0000 0.0000 0.0000 27.5752 0.0000
# 6 0.0000 0.0000 0.0000 0.0000 0.0000 24.7888
#
#
#
# Elastic Compliance Matrix: (Units=1/GPa)
#
#
# Indices 1 2 3 4 5 6 
#
# 1 0.010782 -0.004772 -0.007185 0.000000 0.000000 0.000000
# 2 -0.004772 0.015739 -0.001652 0.000000 0.000000 0.000000
# 3 -0.007185 -0.001652 0.016305 0.000000 0.000000 0.000000
# 4 0.000000 0.000000 0.000000 0.049734 0.000000 0.000000
# 5 0.000000 0.000000 0.000000 0.000000 0.036264 0.000000
# 6 0.000000 0.000000 0.000000 0.000000 0.000000 0.040341
#
#
# Mechanical properties :
#
#
# Convention : Reuss Voigt Hill
#
# Bulk Modulus (GPa) = 64.06205 81.02359 72.54282
# Shear Modulus (GPa) = 24.80343 26.63233 25.71788
#
# Velocity S-wave (km/s) = 3.64424 3.77620 3.71080
# Velocity P-wave (km/s) = 7.21165 7.89906 7.56317
#
# Compressibility (1/GPa) = 0.01560987
#
# Stress axis : x y z
#
# Youngs Moduli (GPa) = 92.74986 63.53562 61.32939
#
# Poissons Ratio (x) = 0.30316 0.44064
# Poissons Ratio (y) = 0.44256 0.10131
# Poissons Ratio (z) = 0.66639 0.10495
#
# Static dielectric constant tensor:
#      x y z
#    x 3.690300 0.000000 0.000000 
#    y 0.000000 3.045980 0.000000 
#    z 0.000000 0.000000 3.603280 
# 
# 
# High freq. dielectric constant tensor:
#      x y z
#    x 1.732550 0.000000 0.000000 
#    y 0.000000 1.680310 0.000000 
#    z 0.000000 0.000000 1.724750 
# 
# From -- ./inp_files/46562.got.cif
#   From: 2010.03.12/outbox.cif.g09.slc.cpg/sg63_24_cif.got.tgz:46562.got - 2010.04.10 19:34:48.
