data_PCOD8261877
_publ_section_title
;
Structure prediction by ZEFSAII (Michael W. Deem and Ramdas Pophale) SiO2 
 PCOD8261877
Probable space group: C M C A
;
_chemical_formula_sum "Si O2"
_cell_formula_units_Z 112
_cell_length_a 17.364323
_cell_length_b 13.993857
_cell_length_c 23.350131
_cell_angle_alpha 90.000000
_cell_angle_beta 90.000000
_cell_angle_gamma 90.000000
_cell_volume 5673.938299
_symmetry_space_group_name_H-M "C M C A"
_symmetry_group_IT_number 64
_symmetry_cell_setting 'orthorhombic'
loop_
_space_group_symop_operation_xyz
x,y,z
-x,1/2-y,1/2+z
x,-y,-z
-x,1/2+y,1/2-z
-x,-y,-z
x,1/2+y,1/2-z
-x,y,z
x,1/2-y,1/2+z
1/2+x,1/2+y,z
1/2-x,-y,1/2+z
1/2+x,1/2-y,-z
1/2-x,y,1/2-z
1/2-x,1/2-y,-z
1/2+x,y,1/2-z
1/2-x,1/2+y,z
1/2+x,-y,1/2+z
loop_
_atom_site_type_symbol
_atom_site_label
_atom_site_fract_x
_atom_site_fract_y
_atom_site_fract_z
Si Si1 0.909421 0.889113 0.987980
Si Si2 0.587495 0.734958 0.904430
Si Si3 0.839469 0.116362 0.128800
Si Si4 0.089400 0.223957 0.227605
Si Si5 0.415322 0.557825 0.837433
Si Si6 0.412920 0.561839 0.706922
Si Si7 0.666545 0.378941 0.665737
O O1 0.856460 0.849087 0.935792
O O2 0.000000 0.874381 0.974894
O O3 0.881535 0.824279 0.041279
O O4 0.891806 0.000000 0.000000
O O5 0.500000 0.762330 0.914807
O O6 0.600666 0.670304 0.846988
O O7 0.629793 0.834754 0.892078
O O8 0.903250 0.161690 0.170492
O O9 0.853198 0.002359 0.127423
O O10 0.756601 0.136024 0.155702
O O11 0.118598 0.329776 0.208645
O O12 0.140586 0.178573 0.277962
O O13 0.000000 0.227928 0.247692
O O14 0.500000 0.536946 0.864186
O O15 0.413089 0.525582 0.771903
O O16 0.500000 0.556765 0.681839
O O17 0.357575 0.490895 0.670822
#
# Coordination Sequence:
#
# PCOD8261877 Si02
#       7
#    16  16  16  16  16  16  16
#     4  10  20  38  66  92 113 152 210 257 294 342
#     4  10  20  37  64  91 115 153 206 256 292 345
#     4  12  24  36  55  93 126 155 185 248 315 356
#     4  11  22  39  60  83 116 160 205 241 281 350
#     4  10  18  33  60  89 116 151 198 250 291 341
#     4  10  21  37  60  84 115 160 202 239 282 351
#     4  12  24  37  56  89 127 158 189 234 314 372
#
# _framework density 19.739376
#
# number of rings (size 3 to 8) (size 9 to 14) (size 15 to 20)
#    0.000    1.286    4.286    3.000    0.000    1.714 
#    2.571    0.000    0.000    0.000    0.000    4.000 
#    0.000    0.000    0.000    0.000    0.000    0.000 
#
# Total GULP energy -694070.457250 kJ/mol
# GULP energy per Si atom -12394.115308 kJ/mol
# Density = 1.969445 g / cm^3
# Si number density = 19.739376 Si / 1000 Ang^3
#
#
#
# Elastic Constant Matrix: (Units=GPa)
#
#
# Indices 1 2 3 4 5 6 
#
# 1 77.2946 35.7478 39.9386 0.0000 0.0000 0.0000
# 2 35.7478 83.0161 26.8748 0.0000 0.0000 0.0000
# 3 39.9386 26.8748 85.6061 0.0000 0.0000 0.0000
# 4 0.0000 0.0000 0.0000 32.3961 0.0000 0.0000
# 5 0.0000 0.0000 0.0000 0.0000 28.2597 0.0000
# 6 0.0000 0.0000 0.0000 0.0000 0.0000 9.0971
#
#
#
# Elastic Compliance Matrix: (Units=1/GPa)
#
#
# Indices 1 2 3 4 5 6 
#
# 1 0.019441 -0.006050 -0.007171 0.000000 0.000000 0.000000
# 2 -0.006050 0.015291 -0.001978 0.000000 0.000000 0.000000
# 3 -0.007171 -0.001978 0.015648 0.000000 0.000000 0.000000
# 4 0.000000 0.000000 0.000000 0.030868 0.000000 0.000000
# 5 0.000000 0.000000 0.000000 0.000000 0.035386 0.000000
# 6 0.000000 0.000000 0.000000 0.000000 0.000000 0.109925
#
#
# Mechanical properties :
#
#
# Convention : Reuss Voigt Hill
#
# Bulk Modulus (GPa) = 50.04319 50.11547 50.07933
# Shear Modulus (GPa) = 18.96691 23.50761 21.23726
#
# Velocity S-wave (km/s) = 3.10315 3.45468 3.28362
# Velocity P-wave (km/s) = 6.18436 6.43093 6.30885
#
# Compressibility (1/GPa) = 0.01998274
#
# Stress axis : x y z
#
# Youngs Moduli (GPa) = 51.43856 65.39614 63.90730
#
# Poissons Ratio (x) = 0.39565 0.45825
# Poissons Ratio (y) = 0.31121 0.12640
# Poissons Ratio (z) = 0.36884 0.12935
#
# Static dielectric constant tensor:
#      x y z
#    x 3.332170 0.000000 0.000000 
#    y 0.000000 3.652950 0.000000 
#    z 0.000000 0.000000 3.542300 
# 
# 
# High freq. dielectric constant tensor:
#      x y z
#    x 1.746060 0.000000 0.000000 
#    y 0.000000 1.771240 0.000000 
#    z 0.000000 0.000000 1.755540 
# 
# From -- ./inp_files/50088.got.cif
#   From: 2010.03.12/outbox.cif.g09.slc.cpg/sg64_26_cif.got.tgz:50088.got - 2010.04.10 20:19:32.
