data_PCOD8261887
_publ_section_title
;
Structure prediction by ZEFSAII (Michael W. Deem and Ramdas Pophale) SiO2 
 PCOD8261887
Probable space group: C M C A
;
_chemical_formula_sum "Si O2"
_cell_formula_units_Z 104
_cell_length_a 23.674673
_cell_length_b 24.905611
_cell_length_c 9.149597
_cell_angle_alpha 90.000000
_cell_angle_beta 90.000000
_cell_angle_gamma 90.000000
_cell_volume 5394.896974
_symmetry_space_group_name_H-M "C M C A"
_symmetry_group_IT_number 64
_symmetry_cell_setting 'orthorhombic'
loop_
_space_group_symop_operation_xyz
x,y,z
-x,1/2-y,1/2+z
x,-y,-z
-x,1/2+y,1/2-z
-x,-y,-z
x,1/2+y,1/2-z
-x,y,z
x,1/2-y,1/2+z
1/2+x,1/2+y,z
1/2-x,-y,1/2+z
1/2+x,1/2-y,-z
1/2-x,y,1/2-z
1/2-x,1/2-y,-z
1/2+x,y,1/2-z
1/2-x,1/2+y,z
1/2+x,-y,1/2+z
loop_
_atom_site_type_symbol
_atom_site_label
_atom_site_fract_x
_atom_site_fract_y
_atom_site_fract_z
Si Si1 0.196851 0.483403 0.837887
Si Si2 0.500000 0.167780 0.664171
Si Si3 0.125187 0.888050 0.565338
Si Si4 0.621572 0.816198 0.415460
Si Si5 0.500000 0.211654 0.214299
Si Si6 0.000000 0.131630 0.520506
Si Si7 0.184451 0.100183 0.736222
Si Si8 0.378882 0.708073 0.233002
O O1 0.250000 0.458494 0.750000
O O2 0.146187 0.440806 0.848536
O O3 0.174404 0.536023 0.751540
O O4 0.217658 0.500000 0.000000
O O5 0.556985 0.162514 0.569847
O O6 0.500000 0.225710 0.733879
O O7 0.500000 0.128023 0.804099
O O8 0.157542 0.878936 0.413862
O O9 0.145543 0.836317 0.657383
O O10 0.057703 0.895758 0.539953
O O11 0.656078 0.868521 0.369445
O O12 0.646886 0.795509 0.570211
O O13 0.628210 0.767774 0.298647
O O14 0.500000 0.192857 0.042668
O O15 0.555971 0.190524 0.292053
O O16 0.250000 0.113934 0.750000
#
# Coordination Sequence:
#
# PCOD8261887 Si02
#       8
#    16   8  16  16   8   8  16  16
#     4   9  20  38  62  85 109 146 198 247 288 343
#     4  10  19  28  57  78 114 150 190 229 286 334
#     4  10  20  38  58  87 120 152 193 239 295 349
#     4  11  21  35  54  83 113 151 190 233 290 346
#     4   8  19  28  50  80 112 145 193 219 271 329
#     4  10  18  34  54  87 120 155 183 246 285 358
#     4  10  21  39  58  80 111 145 194 245 283 341
#     4  10  21  33  55  82 116 150 187 232 284 346
#
# _framework density 19.277477000000001
#
# number of rings (size 3 to 8) (size 9 to 14) (size 15 to 20)
#    0.000    2.154    1.538    1.385   10.769    3.692 
#    0.000    8.077    0.000    0.000    0.000    4.846 
#    0.000    0.000    0.000    0.000    0.000    0.000 
#
# Total GULP energy -644282.451208 kJ/mol
# GULP energy per Si atom -12390.047139 kJ/mol
# Density = 1.923360 g / cm^3
# Si number density = 19.277477 Si / 1000 Ang^3
#
#
#
# Elastic Constant Matrix: (Units=GPa)
#
#
# Indices 1 2 3 4 5 6 
#
# 1 101.6643 44.5786 30.9163 0.0000 0.0000 0.0000
# 2 44.5786 65.3283 19.1697 0.0000 0.0000 0.0000
# 3 30.9163 19.1697 70.1360 0.0000 0.0000 0.0000
# 4 0.0000 0.0000 0.0000 32.1311 0.0000 0.0000
# 5 0.0000 0.0000 0.0000 0.0000 26.5486 0.0000
# 6 0.0000 0.0000 0.0000 0.0000 0.0000 33.7666
#
#
#
# Elastic Compliance Matrix: (Units=1/GPa)
#
#
# Indices 1 2 3 4 5 6 
#
# 1 0.015080 -0.009067 -0.004169 0.000000 0.000000 0.000000
# 2 -0.009067 0.022093 -0.002042 0.000000 0.000000 0.000000
# 3 -0.004169 -0.002042 0.016654 0.000000 0.000000 0.000000
# 4 0.000000 0.000000 0.000000 0.031123 0.000000 0.000000
# 5 0.000000 0.000000 0.000000 0.000000 0.037667 0.000000
# 6 0.000000 0.000000 0.000000 0.000000 0.000000 0.029615
#
#
# Mechanical properties :
#
#
# Convention : Reuss Voigt Hill
#
# Bulk Modulus (GPa) = 42.97102 47.38420 45.17761
# Shear Modulus (GPa) = 26.24064 27.98686 27.11375
#
# Velocity S-wave (km/s) = 3.69346 3.81437 3.75440
# Velocity P-wave (km/s) = 6.36616 6.63571 6.50233
#
# Compressibility (1/GPa) = 0.02327150
#
# Stress axis : x y z
#
# Youngs Moduli (GPa) = 66.31398 45.26235 60.04608
#
# Poissons Ratio (x) = 0.41038 0.25034
# Poissons Ratio (y) = 0.60125 0.12261
# Poissons Ratio (z) = 0.27647 0.09242
#
# Static dielectric constant tensor:
#      x y z
#    x 3.761300 0.000000 0.000000 
#    y 0.000000 3.439570 0.000000 
#    z 0.000000 0.000000 3.525970 
# 
# 
# High freq. dielectric constant tensor:
#      x y z
#    x 1.738470 0.000000 0.000000 
#    y 0.000000 1.731950 0.000000 
#    z 0.000000 0.000000 1.752310 
# 
# From -- ./inp_files/9711.got.cif
#   From: 2010.03.12/outbox.cif.g09.slc.cpg/sg64_5_cif.got.tgz:9711.got - 2010.04.10 20:19:32.
