data_PCOD8261616
_publ_section_title
;
Structure prediction by ZEFSAII (Michael W. Deem and Ramdas Pophale) SiO2 
 PCOD8261616
Probable space group: C M C A
;
_chemical_formula_sum "Si O2"
_cell_formula_units_Z 128
_cell_length_a 25.049204
_cell_length_b 23.705936
_cell_length_c 12.298651
_cell_angle_alpha 90.000000
_cell_angle_beta 90.000000
_cell_angle_gamma 90.000000
_cell_volume 7303.121314
_symmetry_space_group_name_H-M "C M C A"
_symmetry_group_IT_number 64
_symmetry_cell_setting 'orthorhombic'
loop_
_space_group_symop_operation_xyz
x,y,z
-x,1/2-y,1/2+z
x,-y,-z
-x,1/2+y,1/2-z
-x,-y,-z
x,1/2+y,1/2-z
-x,y,z
x,1/2-y,1/2+z
1/2+x,1/2+y,z
1/2-x,-y,1/2+z
1/2+x,1/2-y,-z
1/2-x,y,1/2-z
1/2-x,1/2-y,-z
1/2+x,y,1/2-z
1/2-x,1/2+y,z
1/2+x,-y,1/2+z
loop_
_atom_site_type_symbol
_atom_site_label
_atom_site_fract_x
_atom_site_fract_y
_atom_site_fract_z
Si Si1 0.121180 0.803690 0.253377
Si Si2 0.697331 0.113715 0.189644
Si Si3 0.243932 0.814270 0.975157
Si Si4 0.862243 0.562380 0.003007
Si Si5 0.362231 0.183709 0.352497
Si Si6 0.937834 0.287357 0.467661
Si Si7 0.208584 0.615128 0.832577
Si Si8 0.939127 0.337436 0.039854
O O1 0.139651 0.740815 0.282861
O O2 0.095413 0.808976 0.134863
O O3 0.173164 0.842529 0.260499
O O4 0.076660 0.826678 0.336101
O O5 0.750000 0.089063 0.250000
O O6 0.716288 0.168984 0.122773
O O7 0.675742 0.065892 0.108610
O O8 0.648635 0.131802 0.269923
O O9 0.182811 0.821772 0.943688
O O10 0.250000 0.750000 0.000000
O O11 0.257444 0.850494 0.080025
O O12 0.888388 0.500000 0.000000
O O13 0.827728 0.569050 0.892903
O O14 0.905870 0.611636 0.013090
O O15 0.417503 0.181776 0.421274
O O16 0.928850 0.219851 0.472730
O O17 0.000000 0.302305 0.454864
O O18 0.250000 0.584939 0.750000
O O19 0.000000 0.356364 0.034847
#
# Coordination Sequence:
#
# PCOD8261616 Si02
#       8
#    16  16  16  16  16  16  16  16
#     4  10  18  28  47  70 102 135 160 193 236 291
#     4   9  20  33  48  73 100 133 163 195 240 287
#     4  10  18  28  46  72 104 134 164 192 232 290
#     4  10  21  37  53  70  94 126 168 215 251 281
#     4  10  19  29  47  68 102 136 167 194 234 288
#     4  10  20  32  48  72 103 138 163 189 240 302
#     4  10  20  30  47  75 102 129 167 201 239 291
#     4   9  19  34  49  70  96 123 164 207 245 294
#
# _framework density 17.526752999999999
#
# number of rings (size 3 to 8) (size 9 to 14) (size 15 to 20)
#    0.000    2.250    1.250    1.875    5.250    1.250 
#    0.000    0.625    0.000    0.000    0.000    0.000 
#    0.000    5.000    0.000    0.000    0.000    0.000 
#
# Total GULP energy -793271.492136 kJ/mol
# GULP energy per Si atom -12394.867065 kJ/mol
# Density = 1.748686 g / cm^3
# Si number density = 17.526753 Si / 1000 Ang^3
#
#
#
# Elastic Constant Matrix: (Units=GPa)
#
#
# Indices 1 2 3 4 5 6 
#
# 1 81.8788 5.1443 38.2906 0.0000 0.0000 0.0000
# 2 5.1443 25.2396 8.9460 0.0000 0.0000 0.0000
# 3 38.2906 8.9460 82.4349 0.0000 0.0000 0.0000
# 4 0.0000 0.0000 0.0000 8.6447 0.0000 0.0000
# 5 0.0000 0.0000 0.0000 0.0000 29.9189 0.0000
# 6 0.0000 0.0000 0.0000 0.0000 0.0000 14.1467
#
#
#
# Elastic Compliance Matrix: (Units=1/GPa)
#
#
# Indices 1 2 3 4 5 6 
#
# 1 0.015612 -0.000636 -0.007183 0.000000 0.000000 0.000000
# 2 -0.000636 0.041231 -0.004179 0.000000 0.000000 0.000000
# 3 -0.007183 -0.004179 0.015921 0.000000 0.000000 0.000000
# 4 0.000000 0.000000 0.000000 0.115678 0.000000 0.000000
# 5 0.000000 0.000000 0.000000 0.000000 0.033424 0.000000
# 6 0.000000 0.000000 0.000000 0.000000 0.000000 0.070688
#
#
# Mechanical properties :
#
#
# Convention : Reuss Voigt Hill
#
# Bulk Modulus (GPa) = 20.50518 32.70168 26.60343
# Shear Modulus (GPa) = 15.02377 19.68687 17.35532
#
# Velocity S-wave (km/s) = 2.93096 3.35512 3.15019
# Velocity P-wave (km/s) = 4.81443 5.80584 5.33322
#
# Compressibility (1/GPa) = 0.04876817
#
# Stress axis : x y z
#
# Youngs Moduli (GPa) = 64.05270 24.25349 62.81160
#
# Poissons Ratio (x) = 0.01543 0.45116
# Poissons Ratio (y) = 0.04075 0.26249
# Poissons Ratio (z) = 0.46007 0.10136
#
# Static dielectric constant tensor:
#      x y z
#    x 3.337730 0.000000 0.000000 
#    y 0.000000 2.715340 0.000000 
#    z 0.000000 0.000000 3.397210 
# 
# 
# High freq. dielectric constant tensor:
#      x y z
#    x 1.678250 0.000000 0.000000 
#    y 0.000000 1.630420 0.000000 
#    z 0.000000 0.000000 1.690380 
# 
# From -- ./inp_files/19409.got.cif
#   From: 2010.03.12/outbox.cif.g09.slc.cpg/sg64_10_cif.got.tgz:19409.got - 2010.04.10 20:19:32.
