data_PCOD8261511
_publ_section_title
;
Structure prediction by ZEFSAII (Michael W. Deem and Ramdas Pophale) SiO2 
 PCOD8261511
Probable space group: C M C A
;
_chemical_formula_sum "Si O2"
_cell_formula_units_Z 128
_cell_length_a 21.543409
_cell_length_b 20.625708
_cell_length_c 16.367975
_cell_angle_alpha 90.000000
_cell_angle_beta 90.000000
_cell_angle_gamma 90.000000
_cell_volume 7273.077992
_symmetry_space_group_name_H-M "C M C A"
_symmetry_group_IT_number 64
_symmetry_cell_setting 'orthorhombic'
loop_
_space_group_symop_operation_xyz
x,y,z
-x,1/2-y,1/2+z
x,-y,-z
-x,1/2+y,1/2-z
-x,-y,-z
x,1/2+y,1/2-z
-x,y,z
x,1/2-y,1/2+z
1/2+x,1/2+y,z
1/2-x,-y,1/2+z
1/2+x,1/2-y,-z
1/2-x,y,1/2-z
1/2-x,1/2-y,-z
1/2+x,y,1/2-z
1/2-x,1/2+y,z
1/2+x,-y,1/2+z
loop_
_atom_site_type_symbol
_atom_site_label
_atom_site_fract_x
_atom_site_fract_y
_atom_site_fract_z
Si Si1 0.654000 0.665253 0.854598
Si Si2 0.146250 0.629893 0.093041
Si Si3 0.569922 0.243930 0.039391
Si Si4 0.428896 0.890954 0.221227
Si Si5 0.569811 0.007017 0.097276
Si Si6 0.682196 0.788368 0.761198
Si Si7 0.265418 0.822169 0.033682
Si Si8 0.618830 0.774356 0.125605
O O1 0.602009 0.703679 0.903901
O O2 0.619470 0.609102 0.799724
O O3 0.688751 0.715059 0.795017
O O4 0.706990 0.642751 0.920388
O O5 0.095611 0.670456 0.042145
O O6 0.123282 0.558680 0.115047
O O7 0.147096 0.664145 0.179540
O O8 0.211767 0.633030 0.042947
O O9 0.500000 0.243992 0.067664
O O10 0.579480 0.261612 0.944585
O O11 0.500000 0.901340 0.251819
O O12 0.425317 0.820854 0.178700
O O13 0.411684 0.944297 0.151701
O O14 0.500000 0.029186 0.122101
O O15 0.571899 0.000000 0.000000
O O16 0.750000 0.817841 0.750000
O O17 0.643310 0.786466 0.678031
O O18 0.321954 0.816140 0.096407
O O19 0.250000 0.750000 0.000000
#
# Coordination Sequence:
#
# PCOD8261511 Si02
#       8
#    16  16  16  16  16  16  16  16
#     4  10  19  30  50  76 105 141 177 212 265 330
#     4  10  20  30  53  75 101 134 177 217 259 322
#     4  10  18  29  46  74 108 135 170 217 263 318
#     4  10  21  34  50  75 108 142 181 229 271 316
#     4  10  20  37  56  73  98 137 181 221 268 316
#     4  10  17  29  48  73 105 134 162 203 262 318
#     4  11  16  31  49  81 102 139 177 207 266 332
#     4  10  18  28  50  76 104 135 171 210 267 322
#
# _framework density 17.599150999999999
#
# number of rings (size 3 to 8) (size 9 to 14) (size 15 to 20)
#    0.000    1.875    5.000    2.625    0.000    1.000 
#    0.000    1.875    5.500    0.000    0.000    0.875 
#    0.000    3.000    0.000    0.000    0.000    0.000 
#
# Total GULP energy -792878.992716 kJ/mol
# GULP energy per Si atom -12388.734261 kJ/mol
# Density = 1.755909 g / cm^3
# Si number density = 17.599151 Si / 1000 Ang^3
#
#
#
# Elastic Constant Matrix: (Units=GPa)
#
#
# Indices 1 2 3 4 5 6 
#
# 1 92.1920 27.8668 29.7022 0.0000 0.0000 0.0000
# 2 27.8668 57.1050 29.0471 0.0000 0.0000 0.0000
# 3 29.7022 29.0471 84.3805 0.0000 0.0000 0.0000
# 4 0.0000 0.0000 0.0000 19.1690 0.0000 0.0000
# 5 0.0000 0.0000 0.0000 0.0000 29.3481 0.0000
# 6 0.0000 0.0000 0.0000 0.0000 0.0000 19.5086
#
#
#
# Elastic Compliance Matrix: (Units=1/GPa)
#
#
# Indices 1 2 3 4 5 6 
#
# 1 0.013310 -0.004985 -0.002969 0.000000 0.000000 0.000000
# 2 -0.004985 0.023096 -0.006196 0.000000 0.000000 0.000000
# 3 -0.002969 -0.006196 0.015029 0.000000 0.000000 0.000000
# 4 0.000000 0.000000 0.000000 0.052167 0.000000 0.000000
# 5 0.000000 0.000000 0.000000 0.000000 0.034074 0.000000
# 6 0.000000 0.000000 0.000000 0.000000 0.000000 0.051260
#
#
# Mechanical properties :
#
#
# Convention : Reuss Voigt Hill
#
# Bulk Modulus (GPa) = 43.22413 45.21218 44.21816
# Shear Modulus (GPa) = 22.22739 23.40924 22.81831
#
# Velocity S-wave (km/s) = 3.55770 3.65106 3.60468
# Velocity P-wave (km/s) = 6.44127 6.59692 6.51956
#
# Compressibility (1/GPa) = 0.02313522
#
# Stress axis : x y z
#
# Youngs Moduli (GPa) = 75.12940 43.29798 66.53763
#
# Poissons Ratio (x) = 0.21584 0.19757
# Poissons Ratio (y) = 0.37452 0.41225
# Poissons Ratio (z) = 0.22308 0.26826
#
# Static dielectric constant tensor:
#      x y z
#    x 3.386740 0.000000 0.000000 
#    y 0.000000 2.865070 0.000000 
#    z 0.000000 0.000000 3.588860 
# 
# 
# High freq. dielectric constant tensor:
#      x y z
#    x 1.686710 0.000000 0.000000 
#    y 0.000000 1.617330 0.000000 
#    z 0.000000 0.000000 1.693400 
# 
# From -- ./inp_files/34692.got.cif
#   From: 2010.03.12/outbox.cif.g09.slc.cpg/sg64_18_cif.got.tgz:34692.got - 2010.04.10 20:19:32.
