data_PCOD8261501
_publ_section_title
;
Structure prediction by ZEFSAII (Michael W. Deem and Ramdas Pophale) SiO2 
 PCOD8261501
Probable space group: C M C A
;
_chemical_formula_sum "Si O2"
_cell_formula_units_Z 120
_cell_length_a 18.889199
_cell_length_b 20.296697
_cell_length_c 17.817832
_cell_angle_alpha 90.000000
_cell_angle_beta 90.000000
_cell_angle_gamma 90.000000
_cell_volume 6831.149187
_symmetry_space_group_name_H-M "C M C A"
_symmetry_group_IT_number 64
_symmetry_cell_setting 'orthorhombic'
loop_
_space_group_symop_operation_xyz
x,y,z
-x,1/2-y,1/2+z
x,-y,-z
-x,1/2+y,1/2-z
-x,-y,-z
x,1/2+y,1/2-z
-x,y,z
x,1/2-y,1/2+z
1/2+x,1/2+y,z
1/2-x,-y,1/2+z
1/2+x,1/2-y,-z
1/2-x,y,1/2-z
1/2-x,1/2-y,-z
1/2+x,y,1/2-z
1/2-x,1/2+y,z
1/2+x,-y,1/2+z
loop_
_atom_site_type_symbol
_atom_site_label
_atom_site_fract_x
_atom_site_fract_y
_atom_site_fract_z
Si Si1 0.661351 0.000000 0.500000
Si Si2 0.583297 0.533431 0.574100
Si Si3 0.827506 0.118093 0.762978
Si Si4 0.082710 0.495300 0.769345
Si Si5 0.918380 0.575173 0.371733
Si Si6 0.844022 0.329537 0.106727
Si Si7 0.917144 0.202781 0.044215
Si Si8 0.692066 0.861694 0.432478
O O1 0.615571 0.973561 0.568425
O O2 0.703369 0.936786 0.464816
O O3 0.614455 0.500000 0.500000
O O4 0.500000 0.546477 0.567152
O O5 0.601705 0.483294 0.643112
O O6 0.621151 0.601886 0.585525
O O7 0.750000 0.085508 0.750000
O O8 0.887886 0.064982 0.755358
O O9 0.836913 0.174373 0.697985
O O10 0.834631 0.144365 0.847069
O O11 0.111560 0.438893 0.712658
O O12 0.000000 0.501700 0.760263
O O13 0.904551 0.651499 0.388163
O O14 0.000000 0.557498 0.376107
O O15 0.894588 0.272961 0.075846
O O16 0.768187 0.325680 0.064737
O O17 0.000000 0.204205 0.019160
O O18 0.867365 0.179682 0.976285
#
# Coordination Sequence:
#
# PCOD8261501 Si02
#       8
#     8  16  16  16  16  16  16  16
#     4  10  17  28  50  80 113 130 164 214 270 324
#     4   9  18  32  51  74  99 133 181 230 269 306
#     4   9  18  33  52  76 103 136 170 220 265 315
#     4   9  16  29  49  73 100 129 166 214 267 318
#     4   9  17  29  49  75 106 135 163 207 265 322
#     4  10  20  35  55  73 106 144 182 220 262 321
#     4  10  21  36  52  75 108 147 181 216 266 321
#     4  10  20  33  54  82 108 137 176 221 271 323
#
# _framework density 17.566590999999999
#
# number of rings (size 3 to 8) (size 9 to 14) (size 15 to 20)
#    0.000    2.533    1.333    1.000    0.933    1.600 
#    0.000    1.333    0.000    4.000    0.000    0.000 
#    0.000    0.000    0.000    0.000    0.000    0.000 
#
# Total GULP energy -743284.418991 kJ/mol
# GULP energy per Si atom -12388.073650 kJ/mol
# Density = 1.752661 g / cm^3
# Si number density = 17.566591 Si / 1000 Ang^3
#
#
#
# Elastic Constant Matrix: (Units=GPa)
#
#
# Indices 1 2 3 4 5 6 
#
# 1 44.6548 38.8474 55.5968 0.0000 0.0000 0.0000
# 2 38.8474 65.8151 56.2447 0.0000 0.0000 0.0000
# 3 55.5968 56.2447 151.0388 0.0000 0.0000 0.0000
# 4 0.0000 0.0000 0.0000 21.7251 0.0000 0.0000
# 5 0.0000 0.0000 0.0000 0.0000 35.5265 0.0000
# 6 0.0000 0.0000 0.0000 0.0000 0.0000 24.4339
#
#
#
# Elastic Compliance Matrix: (Units=1/GPa)
#
#
# Indices 1 2 3 4 5 6 
#
# 1 0.059336 -0.023993 -0.012907 0.000000 0.000000 0.000000
# 2 -0.023993 0.031988 -0.003080 0.000000 0.000000 0.000000
# 3 -0.012907 -0.003080 0.012519 0.000000 0.000000 0.000000
# 4 0.000000 0.000000 0.000000 0.046030 0.000000 0.000000
# 5 0.000000 0.000000 0.000000 0.000000 0.028148 0.000000
# 6 0.000000 0.000000 0.000000 0.000000 0.000000 0.040927
#
#
# Mechanical properties :
#
#
# Convention : Reuss Voigt Hill
#
# Bulk Modulus (GPa) = 41.87074 62.54294 52.20684
# Shear Modulus (GPa) = 16.29356 23.72508 20.00932
#
# Velocity S-wave (km/s) = 3.04884 3.67901 3.37865
# Velocity P-wave (km/s) = 6.02338 7.32990 6.70852
#
# Compressibility (1/GPa) = 0.02388303
#
# Stress axis : x y z
#
# Youngs Moduli (GPa) = 16.85305 31.26126 79.88031
#
# Poissons Ratio (x) = 0.75007 1.03099
# Poissons Ratio (y) = 0.40436 0.24604
# Poissons Ratio (z) = 0.21752 0.09629
#
# Static dielectric constant tensor:
#      x y z
#    x 3.307690 0.000000 0.000000 
#    y 0.000000 3.105940 0.000000 
#    z 0.000000 0.000000 3.823780 
# 
# 
# High freq. dielectric constant tensor:
#      x y z
#    x 1.681710 0.000000 0.000000 
#    y 0.000000 1.650700 0.000000 
#    z 0.000000 0.000000 1.694050 
# 
# From -- ./inp_files/26792.got.cif
#   From: 2010.03.12/outbox.cif.g09.slc.cpg/sg64_14_cif.got.tgz:26792.got - 2010.04.10 20:19:32.
