data_PCOD8261996
_publ_section_title
;
Structure prediction by ZEFSAII (Michael W. Deem and Ramdas Pophale) SiO2 
 PCOD8261996
Probable space group: C M C A
;
_chemical_formula_sum "Si O2"
_cell_formula_units_Z 96
_cell_length_a 13.936369
_cell_length_b 18.191759
_cell_length_c 22.071153
_cell_angle_alpha 90.000000
_cell_angle_beta 90.000000
_cell_angle_gamma 90.000000
_cell_volume 5595.634667
_symmetry_space_group_name_H-M "C M C A"
_symmetry_group_IT_number 64
_symmetry_cell_setting 'orthorhombic'
loop_
_space_group_symop_operation_xyz
x,y,z
-x,1/2-y,1/2+z
x,-y,-z
-x,1/2+y,1/2-z
-x,-y,-z
x,1/2+y,1/2-z
-x,y,z
x,1/2-y,1/2+z
1/2+x,1/2+y,z
1/2-x,-y,1/2+z
1/2+x,1/2-y,-z
1/2-x,y,1/2-z
1/2-x,1/2-y,-z
1/2+x,y,1/2-z
1/2-x,1/2+y,z
1/2+x,-y,1/2+z
loop_
_atom_site_type_symbol
_atom_site_label
_atom_site_fract_x
_atom_site_fract_y
_atom_site_fract_z
Si Si1 0.699237 0.890509 0.660612
Si Si2 0.110169 0.064200 0.284742
Si Si3 0.111589 0.501078 0.429819
Si Si4 0.269820 0.232936 0.819859
Si Si5 0.608565 0.896706 0.217637
Si Si6 0.888969 0.138895 0.852724
O O1 0.813910 0.891907 0.674329
O O2 0.635221 0.925282 0.714075
O O3 0.674397 0.934406 0.599949
O O4 0.677104 0.803705 0.651069
O O5 0.000000 0.090168 0.295907
O O6 0.122962 0.979625 0.304482
O O7 0.137939 0.500000 0.500000
O O8 0.138139 0.421514 0.402775
O O9 0.000000 0.518709 0.418258
O O10 0.250000 0.254293 0.750000
O O11 0.334605 0.159939 0.824573
O O12 0.173697 0.213512 0.858648
O O13 0.500000 0.870959 0.213082
O O14 0.641732 0.894121 0.287523
O O15 0.000000 0.161006 0.856786
#
# Coordination Sequence:
#
# PCOD8261996 Si02
#       6
#    16  16  16  16  16  16
#     4  11  20  32  48  77 106 132 166 208 257 299
#     4  10  19  31  49  73 103 134 166 205 252 304
#     4  10  20  35  56  77  97 131 178 221 256 291
#     4  10  19  30  44  74 106 133 158 194 253 314
#     4   9  17  28  45  67  95 133 161 189 242 299
#     4   9  17  30  48  68  95 131 167 202 241 295
#
# _framework density 17.156230999999998
#
# number of rings (size 3 to 8) (size 9 to 14) (size 15 to 20)
#    0.000    2.167    3.333    1.500    4.667    2.000 
#    0.000    0.833    0.000    0.500    0.000    0.000 
#    0.000    0.000    0.000    0.000    0.000    0.000 
#
# Total GULP energy -595054.224066 kJ/mol
# GULP energy per Si atom -12396.963001 kJ/mol
# Density = 1.711718 g / cm^3
# Si number density = 17.156231 Si / 1000 Ang^3
#
#
#
# Elastic Constant Matrix: (Units=GPa)
#
#
# Indices 1 2 3 4 5 6 
#
# 1 74.9051 41.5087 33.7278 0.0000 0.0000 0.0000
# 2 41.5087 109.9834 37.9498 0.0000 0.0000 0.0000
# 3 33.7278 37.9498 72.3387 0.0000 0.0000 0.0000
# 4 0.0000 0.0000 0.0000 12.9435 0.0000 0.0000
# 5 0.0000 0.0000 0.0000 0.0000 15.4753 0.0000
# 6 0.0000 0.0000 0.0000 0.0000 0.0000 19.5841
#
#
#
# Elastic Compliance Matrix: (Units=1/GPa)
#
#
# Indices 1 2 3 4 5 6 
#
# 1 0.018910 -0.004999 -0.006194 0.000000 0.000000 0.000000
# 2 -0.004999 0.012424 -0.004187 0.000000 0.000000 0.000000
# 3 -0.006194 -0.004187 0.018908 0.000000 0.000000 0.000000
# 4 0.000000 0.000000 0.000000 0.077259 0.000000 0.000000
# 5 0.000000 0.000000 0.000000 0.000000 0.064619 0.000000
# 6 0.000000 0.000000 0.000000 0.000000 0.000000 0.051062
#
#
# Mechanical properties :
#
#
# Convention : Reuss Voigt Hill
#
# Bulk Modulus (GPa) = 51.33053 53.73329 52.53191
# Shear Modulus (GPa) = 17.82946 19.20331 18.51638
#
# Velocity S-wave (km/s) = 3.22722 3.34925 3.28880
# Velocity P-wave (km/s) = 6.62352 6.80769 6.71624
#
# Compressibility (1/GPa) = 0.01948158
#
# Stress axis : x y z
#
# Youngs Moduli (GPa) = 52.88324 80.49115 52.88745
#
# Poissons Ratio (x) = 0.40241 0.32757
# Poissons Ratio (y) = 0.26439 0.22142
# Poissons Ratio (z) = 0.32755 0.33699
#
# Static dielectric constant tensor:
#      x y z
#    x 3.344370 0.000000 0.000000 
#    y 0.000000 3.249820 0.000000 
#    z 0.000000 0.000000 2.745360 
# 
# 
# High freq. dielectric constant tensor:
#      x y z
#    x 1.669130 0.000000 0.000000 
#    y 0.000000 1.668910 0.000000 
#    z 0.000000 0.000000 1.599330 
# 
# From -- ./inp_files/39536.got.cif
#   From: 2010.03.12/outbox.cif.g09.slc.cpg/sg64_20_cif.got.tgz:39536.got - 2010.04.10 20:19:32.
