data_PCOD8261755
_publ_section_title
;
Structure prediction by ZEFSAII (Michael W. Deem and Ramdas Pophale) SiO2 
 PCOD8261755
Probable space group: C M C A
;
_chemical_formula_sum "Si O2"
_cell_formula_units_Z 64
_cell_length_a 13.646111
_cell_length_b 19.519812
_cell_length_c 11.212731
_cell_angle_alpha 90.000000
_cell_angle_beta 90.000000
_cell_angle_gamma 90.000000
_cell_volume 2986.729788
_symmetry_space_group_name_H-M "C M C A"
_symmetry_group_IT_number 64
_symmetry_cell_setting 'orthorhombic'
loop_
_space_group_symop_operation_xyz
x,y,z
-x,1/2-y,1/2+z
x,-y,-z
-x,1/2+y,1/2-z
-x,-y,-z
x,1/2+y,1/2-z
-x,y,z
x,1/2-y,1/2+z
1/2+x,1/2+y,z
1/2-x,-y,1/2+z
1/2+x,1/2-y,-z
1/2-x,y,1/2-z
1/2-x,1/2-y,-z
1/2+x,y,1/2-z
1/2-x,1/2+y,z
1/2+x,-y,1/2+z
loop_
_atom_site_type_symbol
_atom_site_label
_atom_site_fract_x
_atom_site_fract_y
_atom_site_fract_z
Si Si1 0.204180 0.158761 0.549675
Si Si2 0.891510 0.470136 0.131819
Si Si3 0.614017 0.200045 0.428402
Si Si4 0.386472 0.114273 0.194567
O O1 0.184007 0.093592 0.635158
O O2 0.321137 0.173612 0.541301
O O3 0.145676 0.222829 0.605092
O O4 0.170262 0.148538 0.413942
O O5 0.857073 0.533878 0.214601
O O6 0.000000 0.444001 0.169574
O O7 0.896139 0.500000 0.000000
O O8 0.500000 0.196226 0.464388
O O9 0.638608 0.152977 0.315393
O O10 0.500000 0.119026 0.160560
#
# Coordination Sequence:
#
# PCOD8261755 Si02
#       4
#    16  16  16  16
#     4  10  18  31  53  78 107 144 180 215 261 319
#     4   8  14  27  51  78  99 129 175 220 258 302
#     4  10  20  31  49  81 114 143 176 218 268 316
#     4   9  17  31  53  80 108 136 173 221 265 310
#
# _framework density 21.428118000000001
#
# number of rings (size 3 to 8) (size 9 to 14) (size 15 to 20)
#    0.000    2.750    0.000    4.500    0.000    0.000 
#    0.000    0.000    0.000   42.750    0.000   21.000 
#    0.000    0.000    0.000    0.000    0.000    0.500 
#
# Total GULP energy -396593.453446 kJ/mol
# GULP energy per Si atom -12393.545420 kJ/mol
# Density = 2.137935 g / cm^3
# Si number density = 21.428118 Si / 1000 Ang^3
#
#
#
# Elastic Constant Matrix: (Units=GPa)
#
#
# Indices 1 2 3 4 5 6 
#
# 1 100.6466 65.1237 43.1819 0.0000 0.0000 0.0000
# 2 65.1237 192.6914 44.5858 0.0000 0.0000 0.0000
# 3 43.1819 44.5858 30.9910 0.0000 0.0000 0.0000
# 4 0.0000 0.0000 0.0000 29.8800 0.0000 0.0000
# 5 0.0000 0.0000 0.0000 0.0000 21.3986 0.0000
# 6 0.0000 0.0000 0.0000 0.0000 0.0000 14.8620
#
#
#
# Elastic Compliance Matrix: (Units=1/GPa)
#
#
# Indices 1 2 3 4 5 6 
#
# 1 0.024747 -0.000577 -0.033652 0.000000 0.000000 0.000000
# 2 -0.000577 0.007793 -0.010407 0.000000 0.000000 0.000000
# 3 -0.033652 -0.010407 0.094128 0.000000 0.000000 0.000000
# 4 0.000000 0.000000 0.000000 0.033467 0.000000 0.000000
# 5 0.000000 0.000000 0.000000 0.000000 0.046732 0.000000
# 6 0.000000 0.000000 0.000000 0.000000 0.000000 0.067286
#
#
# Mechanical properties :
#
#
# Convention : Reuss Voigt Hill
#
# Bulk Modulus (GPa) = 26.74004 70.01243 48.37623
# Shear Modulus (GPa) = 13.30176 24.65730 18.97953
#
# Velocity S-wave (km/s) = 2.49421 3.39587 2.97935
# Velocity P-wave (km/s) = 4.56079 6.93686 5.87030
#
# Compressibility (1/GPa) = 0.03739711
#
# Stress axis : x y z
#
# Youngs Moduli (GPa) = 40.40827 128.32491 10.62381
#
# Poissons Ratio (x) = 0.07410 0.35751
# Poissons Ratio (y) = 0.02333 0.11056
# Poissons Ratio (z) = 1.35980 1.33543
#
# Static dielectric constant tensor:
#      x y z
#    x 3.989620 0.000000 0.000000 
#    y 0.000000 4.428880 0.000000 
#    z 0.000000 0.000000 3.413590 
# 
# 
# High freq. dielectric constant tensor:
#      x y z
#    x 1.849820 0.000000 0.000000 
#    y 0.000000 1.855010 0.000000 
#    z 0.000000 0.000000 1.790100 
# 
# From -- ./inp_files/14032.got.cif
#   From: 2010.03.12/outbox.cif.g09.slc.cpg/sg64_8_cif.got.tgz:14032.got - 2010.04.10 20:19:32.
