data_PCOD8261035
_publ_section_title
;
Structure prediction by ZEFSAII (Michael W. Deem and Ramdas Pophale) SiO2 
 PCOD8261035
Probable space group: C M C M
;
_chemical_formula_sum "Si O2"
_cell_formula_units_Z 112
_cell_length_a 23.225851
_cell_length_b 14.244397
_cell_length_c 17.867699
_cell_angle_alpha 90.000000
_cell_angle_beta 90.000000
_cell_angle_gamma 90.000000
_cell_volume 5911.318131
_symmetry_space_group_name_H-M "C M C M"
_symmetry_group_IT_number 63
_symmetry_cell_setting 'orthorhombic'
loop_
_space_group_symop_operation_xyz
x,y,z
-x,-y,1/2+z
x,-y,-z
-x,y,1/2-z
-x,-y,-z
x,y,1/2-z
-x,y,z
x,-y,1/2+z
1/2+x,1/2+y,z
1/2-x,1/2-y,1/2+z
1/2+x,1/2-y,-z
1/2-x,1/2+y,1/2-z
1/2-x,1/2-y,-z
1/2+x,1/2+y,1/2-z
1/2-x,1/2+y,z
1/2+x,1/2-y,1/2+z
loop_
_atom_site_type_symbol
_atom_site_label
_atom_site_fract_x
_atom_site_fract_y
_atom_site_fract_z
Si Si1 0.831071 0.819660 0.837895
Si Si2 0.434853 0.276703 0.939259
Si Si3 0.435603 0.384742 0.411825
Si Si4 0.677839 0.488476 0.412730
Si Si5 0.728799 0.314350 0.336038
Si Si6 0.612679 0.208821 0.335983
Si Si7 0.567302 0.096372 0.034874
O O1 0.836673 0.831923 0.750000
O O2 0.893562 0.795889 0.870021
O O3 0.787956 0.735636 0.859516
O O4 0.805950 0.915764 0.871412
O O5 0.500000 0.278078 0.909088
O O6 0.419692 0.176597 0.974672
O O7 0.425423 0.356709 0.001755
O O8 0.500000 0.426008 0.400652
O O9 0.388393 0.462795 0.391204
O O10 0.429815 0.293563 0.359190
O O11 0.687410 0.500000 0.500000
O O12 0.720690 0.406575 0.386046
O O13 0.729388 0.346484 0.250000
O O14 0.678032 0.239996 0.350125
O O15 0.601433 0.181371 0.250000
O O16 0.600009 0.118053 0.387264
O O17 0.500000 0.089147 0.053511
O O18 0.591172 0.000000 0.000000
#
# Coordination Sequence:
#
# PCOD8261035 Si02
#       7
#    16  16  16  16  16  16  16
#     4  11  23  40  59  80 111 153 192 230 283 336
#     4   9  18  36  58  80 113 151 185 226 279 339
#     4   9  18  33  55  84 118 148 174 219 284 339
#     4  11  21  37  59  88 112 146 190 232 274 333
#     4   9  21  41  58  78 116 151 179 232 289 327
#     4   9  17  33  56  81 108 143 188 234 280 334
#     4   9  18  34  54  79 113 149 185 233 288 331
#
# _framework density 18.946705000000001
#
# number of rings (size 3 to 8) (size 9 to 14) (size 15 to 20)
#    0.000    2.429    1.429    1.714    0.000    3.429 
#    2.571    0.714    0.000    2.571    0.000    0.000 
#    0.000    0.000    0.000    0.000    0.000    0.000 
#
# Total GULP energy -694521.977897 kJ/mol
# GULP energy per Si atom -12402.178177 kJ/mol
# Density = 1.890358 g / cm^3
# Si number density = 18.946705 Si / 1000 Ang^3
#
#
#
# Elastic Constant Matrix: (Units=GPa)
#
#
# Indices 1 2 3 4 5 6 
#
# 1 84.0689 37.2958 52.7930 0.0000 0.0000 0.0000
# 2 37.2958 99.0126 62.9719 0.0000 0.0000 0.0000
# 3 52.7930 62.9719 119.9357 0.0000 0.0000 0.0000
# 4 0.0000 0.0000 0.0000 31.8668 0.0000 0.0000
# 5 0.0000 0.0000 0.0000 0.0000 28.9480 0.0000
# 6 0.0000 0.0000 0.0000 0.0000 0.0000 21.0042
#
#
#
# Elastic Compliance Matrix: (Units=1/GPa)
#
#
# Indices 1 2 3 4 5 6 
#
# 1 0.016824 -0.002443 -0.006123 0.000000 0.000000 0.000000
# 2 -0.002443 0.015518 -0.007072 0.000000 0.000000 0.000000
# 3 -0.006123 -0.007072 0.014746 0.000000 0.000000 0.000000
# 4 0.000000 0.000000 0.000000 0.031381 0.000000 0.000000
# 5 0.000000 0.000000 0.000000 0.000000 0.034545 0.000000
# 6 0.000000 0.000000 0.000000 0.000000 0.000000 0.047609
#
#
# Mechanical properties :
#
#
# Convention : Reuss Voigt Hill
#
# Bulk Modulus (GPa) = 63.24420 67.68205 65.46312
# Shear Modulus (GPa) = 25.35894 26.36092 25.85993
#
# Velocity S-wave (km/s) = 3.66243 3.73409 3.69843
# Velocity P-wave (km/s) = 7.16499 7.37503 7.27077
#
# Compressibility (1/GPa) = 0.01581173
#
# Stress axis : x y z
#
# Youngs Moduli (GPa) = 59.43991 64.44158 67.81442
#
# Poissons Ratio (x) = 0.15744 0.41521
# Poissons Ratio (y) = 0.14522 0.47960
# Poissons Ratio (z) = 0.36393 0.45575
#
# Static dielectric constant tensor:
#      x y z
#    x 3.426880 0.000000 0.000000 
#    y 0.000000 3.461610 0.000000 
#    z 0.000000 0.000000 3.418800 
# 
# 
# High freq. dielectric constant tensor:
#      x y z
#    x 1.730960 0.000000 0.000000 
#    y 0.000000 1.729540 0.000000 
#    z 0.000000 0.000000 1.730760 
# 
# From -- ./inp_files/36905.got.cif
#   From: 2010.03.12/outbox.cif.g09.slc.cpg/sg63_19_cif.got.tgz:36905.got - 2010.04.10 19:34:48.
