data_PCOD8261835
_publ_section_title
;
Structure prediction by ZEFSAII (Michael W. Deem and Ramdas Pophale) SiO2 
 PCOD8261835
Probable space group: C M C A
;
_chemical_formula_sum "Si O2"
_cell_formula_units_Z 80
_cell_length_a 14.484568
_cell_length_b 18.552172
_cell_length_c 14.842321
_cell_angle_alpha 90.000000
_cell_angle_beta 90.000000
_cell_angle_gamma 90.000000
_cell_volume 3988.431421
_symmetry_space_group_name_H-M "C M C A"
_symmetry_group_IT_number 64
_symmetry_cell_setting 'orthorhombic'
loop_
_space_group_symop_operation_xyz
x,y,z
-x,1/2-y,1/2+z
x,-y,-z
-x,1/2+y,1/2-z
-x,-y,-z
x,1/2+y,1/2-z
-x,y,z
x,1/2-y,1/2+z
1/2+x,1/2+y,z
1/2-x,-y,1/2+z
1/2+x,1/2-y,-z
1/2-x,y,1/2-z
1/2-x,1/2-y,-z
1/2+x,y,1/2-z
1/2-x,1/2+y,z
1/2+x,-y,1/2+z
loop_
_atom_site_type_symbol
_atom_site_label
_atom_site_fract_x
_atom_site_fract_y
_atom_site_fract_z
Si Si1 0.750000 0.254680 0.250000
Si Si2 0.897400 0.136419 0.693014
Si Si3 0.604330 0.095703 0.611581
Si Si4 0.669210 0.743612 0.428844
Si Si5 0.243275 0.500000 0.500000
Si Si6 0.899135 0.100708 0.494180
O O1 0.822360 0.301201 0.192600
O O2 0.700743 0.211211 0.169344
O O3 0.883740 0.086229 0.780953
O O4 0.884451 0.090962 0.601935
O O5 0.000000 0.171188 0.695757
O O6 0.500000 0.075665 0.581368
O O7 0.622201 0.178689 0.583837
O O8 0.677498 0.041151 0.569341
O O9 0.750000 0.750000 0.500000
O O10 0.598694 0.684608 0.466799
O O11 0.313355 0.556744 0.450191
O O12 0.000000 0.069116 0.466744
#
# Coordination Sequence:
#
# PCOD8261835 Si02
#       6
#     8  16  16  16   8  16
#     4  10  18  32  58  88 120 148 188 242 290 338
#     4   9  18  34  57  85 111 148 199 237 278 341
#     4  10  21  37  61  87 115 150 193 247 293 340
#     4  11  19  37  60  89 116 153 192 237 290 341
#     4  12  22  36  56  82 118 150 198 234 294 352
#     4  11  22  38  61  86 117 155 194 239 287 347
#
# _framework density 20.058011
#
# number of rings (size 3 to 8) (size 9 to 14) (size 15 to 20)
#    0.000    1.600    4.000    2.400    0.000    0.800 
#    0.000    2.000    0.000    0.000    0.000    0.000 
#    0.000    0.000    0.000    0.000    0.000    0.000 
#
# Total GULP energy -495549.811162 kJ/mol
# GULP energy per Si atom -12388.745279 kJ/mol
# Density = 2.001236 g / cm^3
# Si number density = 20.058011 Si / 1000 Ang^3
#
#
#
# Elastic Constant Matrix: (Units=GPa)
#
#
# Indices 1 2 3 4 5 6 
#
# 1 145.9664 49.0649 40.0566 0.0000 0.0000 0.0000
# 2 49.0649 93.3561 38.4676 0.0000 0.0000 0.0000
# 3 40.0566 38.4676 90.2224 0.0000 0.0000 0.0000
# 4 0.0000 0.0000 0.0000 15.4943 0.0000 0.0000
# 5 0.0000 0.0000 0.0000 0.0000 22.4252 0.0000
# 6 0.0000 0.0000 0.0000 0.0000 0.0000 253.7811
#
#
#
# Elastic Compliance Matrix: (Units=1/GPa)
#
#
# Indices 1 2 3 4 5 6 
#
# 1 0.008704 -0.003618 -0.002322 0.000000 0.000000 0.000000
# 2 -0.003618 0.014498 -0.004575 0.000000 0.000000 0.000000
# 3 -0.002322 -0.004575 0.014065 0.000000 0.000000 0.000000
# 4 0.000000 0.000000 0.000000 0.064540 0.000000 0.000000
# 5 0.000000 0.000000 0.000000 0.000000 0.044593 0.000000
# 6 0.000000 0.000000 0.000000 0.000000 0.000000 0.003940
#
#
# Mechanical properties :
#
#
# Convention : Reuss Voigt Hill
#
# Bulk Modulus (GPa) = 61.58524 64.96923 63.27724
# Shear Modulus (GPa) = 28.28312 71.80384 50.04348
#
# Velocity S-wave (km/s) = 3.75916 5.98964 5.00035
# Velocity P-wave (km/s) = 7.04357 8.96077 8.05938
#
# Compressibility (1/GPa) = 0.01623766
#
# Stress axis : x y z
#
# Youngs Moduli (GPa) = 114.88723 68.97309 71.09668
#
# Poissons Ratio (x) = 0.24954 0.16508
# Poissons Ratio (y) = 0.41565 0.32529
# Poissons Ratio (z) = 0.26676 0.31558
#
# Static dielectric constant tensor:
#      x y z
#    x 4.089820 0.000000 0.000000 
#    y 0.000000 3.493500 0.000000 
#    z 0.000000 0.000000 3.857520 
# 
# 
# High freq. dielectric constant tensor:
#      x y z
#    x 1.812260 0.000000 0.000000 
#    y 0.000000 1.744310 0.000000 
#    z 0.000000 0.000000 1.778610 
# 
# From -- ./inp_files/25331.got.cif
#   From: 2010.03.12/outbox.cif.g09.slc.cpg/sg64_13_cif.got.tgz:25331.got - 2010.04.10 20:19:32.
