data_PCOD8261064
_publ_section_title
;
Structure prediction by ZEFSAII (Michael W. Deem and Ramdas Pophale) SiO2 
 PCOD8261064
Probable space group: C M C M
;
_chemical_formula_sum "Si O2"
_cell_formula_units_Z 96
_cell_length_a 15.153744
_cell_length_b 23.145796
_cell_length_c 14.355565
_cell_angle_alpha 90.000000
_cell_angle_beta 90.000000
_cell_angle_gamma 90.000000
_cell_volume 5035.149354
_symmetry_space_group_name_H-M "C M C M"
_symmetry_group_IT_number 63
_symmetry_cell_setting 'orthorhombic'
loop_
_space_group_symop_operation_xyz
x,y,z
-x,-y,1/2+z
x,-y,-z
-x,y,1/2-z
-x,-y,-z
x,y,1/2-z
-x,y,z
x,-y,1/2+z
1/2+x,1/2+y,z
1/2-x,1/2-y,1/2+z
1/2+x,1/2-y,-z
1/2-x,1/2+y,1/2-z
1/2-x,1/2-y,-z
1/2+x,1/2+y,1/2-z
1/2-x,1/2+y,z
1/2+x,1/2-y,1/2+z
loop_
_atom_site_type_symbol
_atom_site_label
_atom_site_fract_x
_atom_site_fract_y
_atom_site_fract_z
Si Si1 0.775454 0.471643 0.355367
Si Si2 0.103812 0.733559 0.854644
Si Si3 0.850416 0.598773 0.351427
Si Si4 0.598296 0.117784 0.951355
Si Si5 0.401857 0.525234 0.139324
Si Si6 0.339331 0.354308 0.644567
O O1 0.773977 0.446911 0.250000
O O2 0.825060 0.532042 0.358106
O O3 0.828777 0.428614 0.421293
O O4 0.674680 0.480707 0.394675
O O5 0.142935 0.725573 0.750000
O O6 0.134199 0.679740 0.917845
O O7 0.136861 0.793116 0.903620
O O8 0.000000 0.735654 0.850377
O O9 0.895973 0.609630 0.250000
O O10 0.913084 0.616298 0.436696
O O11 0.764883 0.638595 0.359345
O O12 0.500000 0.104715 0.909670
O O13 0.390347 0.530045 0.250000
O O14 0.500000 0.503008 0.110704
O O15 0.386675 0.589800 0.097560
O O16 0.374716 0.349241 0.750000
#
# Coordination Sequence:
#
# PCOD8261064 Si02
#       6
#    16  16  16  16  16  16
#     4   9  18  32  49  71 100 130 162 202 243 288
#     4   9  17  29  47  73 101 126 155 192 238 295
#     4   9  19  34  50  68  90 122 167 212 251 291
#     4  11  22  33  47  69  99 135 170 204 243 285
#     4   8  13  24  47  76 101 127 157 191 238 292
#     4   8  14  27  48  72  96 121 152 196 247 292
#
# _framework density 19.065968999999999
#
# number of rings (size 3 to 8) (size 9 to 14) (size 15 to 20)
#    0.000    3.000    0.000    3.500    0.000    5.333 
#    0.000    1.667    0.000    9.000    0.000    1.167 
#    0.000    4.000    0.000    2.167    0.000    0.000 
#
# Total GULP energy -594701.790614 kJ/mol
# GULP energy per Si atom -12389.620638 kJ/mol
# Density = 1.902257 g / cm^3
# Si number density = 19.065969 Si / 1000 Ang^3
#
#
#
# Elastic Constant Matrix: (Units=GPa)
#
#
# Indices 1 2 3 4 5 6 
#
# 1 90.1489 54.7341 21.9220 0.0000 0.0000 0.0000
# 2 54.7341 110.6520 41.8550 0.0000 0.0000 0.0000
# 3 21.9220 41.8550 74.8854 0.0000 0.0000 0.0000
# 4 0.0000 0.0000 0.0000 6.0655 0.0000 0.0000
# 5 0.0000 0.0000 0.0000 0.0000 15.0855 0.0000
# 6 0.0000 0.0000 0.0000 0.0000 0.0000 28.4218
#
#
#
# Elastic Compliance Matrix: (Units=1/GPa)
#
#
# Indices 1 2 3 4 5 6 
#
# 1 0.015861 -0.007722 -0.000327 0.000000 0.000000 0.000000
# 2 -0.007722 0.015219 -0.006246 0.000000 0.000000 0.000000
# 3 -0.000327 -0.006246 0.016941 0.000000 0.000000 0.000000
# 4 0.000000 0.000000 0.000000 0.164868 0.000000 0.000000
# 5 0.000000 0.000000 0.000000 0.000000 0.066289 0.000000
# 6 0.000000 0.000000 0.000000 0.000000 0.000000 0.035184
#
#
# Mechanical properties :
#
#
# Convention : Reuss Voigt Hill
#
# Bulk Modulus (GPa) = 51.46481 56.96760 54.21621
# Shear Modulus (GPa) = 14.30909 20.39291 17.35100
#
# Velocity S-wave (km/s) = 2.74251 3.27402 3.01998
# Velocity P-wave (km/s) = 6.08934 6.65104 6.37638
#
# Compressibility (1/GPa) = 0.01943075
#
# Stress axis : x y z
#
# Youngs Moduli (GPa) = 63.04947 65.70528 59.02984
#
# Poissons Ratio (x) = 0.50735 0.01932
# Poissons Ratio (y) = 0.48685 0.36870
# Poissons Ratio (z) = 0.02063 0.41040
#
# Static dielectric constant tensor:
#      x y z
#    x 3.374510 0.000000 0.000000 
#    y 0.000000 3.513230 0.000000 
#    z 0.000000 0.000000 3.450330 
# 
# 
# High freq. dielectric constant tensor:
#      x y z
#    x 1.730280 0.000000 0.000000 
#    y 0.000000 1.727740 0.000000 
#    z 0.000000 0.000000 1.716970 
# 
# From -- ./inp_files/31914.got.cif
#   From: 2010.03.12/outbox.cif.g09.slc.cpg/sg63_16_cif.got.tgz:31914.got - 2010.04.10 19:34:48.
