data_PCOD8261038
_publ_section_title
;
Structure prediction by ZEFSAII (Michael W. Deem and Ramdas Pophale) SiO2 
 PCOD8261038
Probable space group: C M C M
;
_chemical_formula_sum "Si O2"
_cell_formula_units_Z 116
_cell_length_a 16.213449
_cell_length_b 17.782422
_cell_length_c 19.449911
_cell_angle_alpha 90.000000
_cell_angle_beta 90.000000
_cell_angle_gamma 90.000000
_cell_volume 5607.689268
_symmetry_space_group_name_H-M "C M C M"
_symmetry_group_IT_number 63
_symmetry_cell_setting 'orthorhombic'
loop_
_space_group_symop_operation_xyz
x,y,z
-x,-y,1/2+z
x,-y,-z
-x,y,1/2-z
-x,-y,-z
x,y,1/2-z
-x,y,z
x,-y,1/2+z
1/2+x,1/2+y,z
1/2-x,1/2-y,1/2+z
1/2+x,1/2-y,-z
1/2-x,1/2+y,1/2-z
1/2-x,1/2-y,-z
1/2+x,1/2+y,1/2-z
1/2-x,1/2+y,z
1/2+x,1/2-y,1/2+z
loop_
_atom_site_type_symbol
_atom_site_label
_atom_site_fract_x
_atom_site_fract_y
_atom_site_fract_z
Si Si1 0.000000 0.112634 0.750000
Si Si2 0.595638 0.077817 0.961462
Si Si3 0.095490 0.116898 0.369180
Si Si4 0.188259 0.605855 0.826064
Si Si5 0.824798 0.714338 0.041646
Si Si6 0.094322 0.135880 0.977034
Si Si7 0.769477 0.224684 0.326445
Si Si8 0.364227 0.551819 0.848291
O O1 0.930049 0.101992 0.808487
O O2 0.500000 0.099687 0.958617
O O3 0.628210 0.070603 0.883306
O O4 0.643639 0.140493 0.004271
O O5 0.610538 0.000000 0.000000
O O6 0.129927 0.123056 0.446787
O O7 0.147870 0.175035 0.324253
O O8 0.000000 0.141014 0.364146
O O9 0.107236 0.033823 0.340285
O O10 0.146010 0.603768 0.750000
O O11 0.207302 0.691128 0.848624
O O12 0.272366 0.558877 0.819094
O O13 0.896160 0.777226 0.045669
O O14 0.797662 0.693175 0.119503
O O15 0.750000 0.750000 0.000000
O O16 0.142302 0.079203 0.927196
O O17 0.000000 0.111923 0.975472
O O18 0.729541 0.223779 0.250000
#
# Coordination Sequence:
#
# PCOD8261038 Si02
#       8
#     4  16  16  16  16  16  16  16
#     4  12  24  40  58  92 154 192 204 258 330 416
#     4  11  26  47  71  99 133 178 232 289 347 399
#     4  11  24  39  62  94 134 169 212 265 330 396
#     4  11  24  43  68  98 131 176 229 277 335 403
#     4  12  21  43  66  94 127 168 220 280 331 396
#     4  11  21  37  62  93 121 166 215 270 317 381
#     4  11  25  41  62  94 134 173 218 274 332 401
#     4  12  23  39  61  95 139 178 215 258 328 404
#
# _framework density 20.685880999999998
#
# number of rings (size 3 to 8) (size 9 to 14) (size 15 to 20)
#    0.000    0.690    6.207    0.828    2.897    3.310 
#    0.000    1.379    0.000    2.069    0.000    0.000 
#    0.000    0.000    0.000    0.000    0.000    0.000 
#
# Total GULP energy -718546.785867 kJ/mol
# GULP energy per Si atom -12388.737687 kJ/mol
# Density = 2.063880 g / cm^3
# Si number density = 20.685881 Si / 1000 Ang^3
#
#
#
# Elastic Constant Matrix: (Units=GPa)
#
#
# Indices 1 2 3 4 5 6 
#
# 1 82.2631 37.2521 44.8077 0.0000 0.0000 0.0000
# 2 37.2521 71.3981 27.7670 0.0000 0.0000 0.0000
# 3 44.8077 27.7670 140.4453 0.0000 0.0000 0.0000
# 4 0.0000 0.0000 0.0000 -1.0431 0.0000 0.0000
# 5 0.0000 0.0000 0.0000 0.0000 27.6507 0.0000
# 6 0.0000 0.0000 0.0000 0.0000 0.0000 31.9417
#
#
#
# Elastic Compliance Matrix: (Units=1/GPa)
#
#
# Indices 1 2 3 4 5 6 
#
# 1 0.017942 -0.007729 -0.004196 0.000000 0.000000 0.000000
# 2 -0.007729 0.018502 -0.001192 0.000000 0.000000 0.000000
# 3 -0.004196 -0.001192 0.008695 0.000000 0.000000 0.000000
# 4 0.000000 0.000000 0.000000 -0.958694 0.000000 0.000000
# 5 0.000000 0.000000 0.000000 0.000000 0.036165 0.000000
# 6 0.000000 0.000000 0.000000 0.000000 0.000000 0.031307
#
#
# Mechanical properties :
#
#
# Convention : Reuss Voigt Hill
#
# Bulk Modulus (GPa) = 52.89910 57.08446 54.99178
# Shear Modulus (GPa) = -6.14593 23.99517 8.92462
#
# Velocity S-wave (km/s) = -1.72555 3.40954 2.07936
# Velocity P-wave (km/s) = 4.65382 6.56930 5.69270
#
# Compressibility (1/GPa) = 0.01890391
#
# Stress axis : x y z
#
# Youngs Moduli (GPa) = 55.73581 54.04715 115.01413
#
# Poissons Ratio (x) = 0.41775 0.48260
# Poissons Ratio (y) = 0.43080 0.13711
# Poissons Ratio (z) = 0.23387 0.06443
#
# Static dielectric constant tensor:
#      x y z
#    x 3.981890 0.000000 0.000000 
#    y 0.000000 3.637800 0.000000 
#    z 0.000000 0.000000 4.632960 
# 
# 
# High freq. dielectric constant tensor:
#      x y z
#    x 1.803650 0.000000 0.000000 
#    y 0.000000 1.789020 0.000000 
#    z 0.000000 0.000000 1.836570 
# 
# From -- ./inp_files/45902.got.cif
#   From: 2010.03.12/outbox.cif.g09.slc.cpg/sg63_23_cif.got.tgz:45902.got - 2010.04.10 19:34:48.
