data_PCOD8261735
_publ_section_title
;
Structure prediction by ZEFSAII (Michael W. Deem and Ramdas Pophale) SiO2 
 PCOD8261735
Probable space group: C M C A
;
_chemical_formula_sum "Si O2"
_cell_formula_units_Z 80
_cell_length_a 8.869483
_cell_length_b 19.824465
_cell_length_c 28.670203
_cell_angle_alpha 90.000000
_cell_angle_beta 90.000000
_cell_angle_gamma 90.000000
_cell_volume 5041.160789
_symmetry_space_group_name_H-M "C M C A"
_symmetry_group_IT_number 64
_symmetry_cell_setting 'orthorhombic'
loop_
_space_group_symop_operation_xyz
x,y,z
-x,1/2-y,1/2+z
x,-y,-z
-x,1/2+y,1/2-z
-x,-y,-z
x,1/2+y,1/2-z
-x,y,z
x,1/2-y,1/2+z
1/2+x,1/2+y,z
1/2-x,-y,1/2+z
1/2+x,1/2-y,-z
1/2-x,y,1/2-z
1/2-x,1/2-y,-z
1/2+x,y,1/2-z
1/2-x,1/2+y,z
1/2+x,-y,1/2+z
loop_
_atom_site_type_symbol
_atom_site_label
_atom_site_fract_x
_atom_site_fract_y
_atom_site_fract_z
Si Si1 0.678313 0.752364 0.949562
Si Si2 0.177166 0.920282 0.701760
Si Si3 0.829395 0.174817 0.128068
Si Si4 0.829432 0.822848 0.374377
Si Si5 0.822804 0.925189 0.297919
O O1 0.500000 0.757644 0.953231
O O2 0.745572 0.817832 0.922185
O O3 0.727171 0.684284 0.921124
O O4 0.750000 0.750000 0.000000
O O5 0.250000 0.895332 0.750000
O O6 0.238777 0.877023 0.659379
O O7 0.000000 0.910242 0.705883
O O8 0.221722 0.997693 0.691757
O O9 0.830218 0.249608 0.151671
O O10 0.000000 0.148502 0.120666
O O11 0.759902 0.879140 0.340077
O O12 0.000000 0.842547 0.389207
O O13 0.750000 0.899874 0.250000
O O14 0.000000 0.915252 0.293070
#
# Coordination Sequence:
#
# PCOD8261735 Si02
#       5
#    16  16  16  16  16
#     4  10  18  31  51  74  96 122 155 193 242 289
#     4  10  19  31  48  69  97 132 164 194 233 279
#     4   9  18  32  49  71  97 124 158 199 237 279
#     4   8  17  32  48  70  96 125 159 197 237 278
#     4   9  18  32  48  68  97 131 163 194 231 278
#
# _framework density 15.86936
#
# number of rings (size 3 to 8) (size 9 to 14) (size 15 to 20)
#    1.200    1.600    0.000    2.400    0.000    2.400 
#    0.000    2.000    0.000    1.200    0.000    8.400 
#    0.000    0.000    0.000    0.000    0.000    0.000 
#
# Total GULP energy -495631.930439 kJ/mol
# GULP energy per Si atom -12390.798261 kJ/mol
# Density = 1.583324 g / cm^3
# Si number density = 15.869360 Si / 1000 Ang^3
#
#
#
# Elastic Constant Matrix: (Units=GPa)
#
#
# Indices 1 2 3 4 5 6 
#
# 1 96.9726 31.8624 59.4038 0.0000 0.0000 0.0000
# 2 31.8624 57.5276 59.3062 0.0000 0.0000 0.0000
# 3 59.4038 59.3062 143.9767 0.0000 0.0000 0.0000
# 4 0.0000 0.0000 0.0000 6.5632 0.0000 0.0000
# 5 0.0000 0.0000 0.0000 0.0000 32.6120 0.0000
# 6 0.0000 0.0000 0.0000 0.0000 0.0000 21.4701
#
#
#
# Elastic Compliance Matrix: (Units=1/GPa)
#
#
# Indices 1 2 3 4 5 6 
#
# 1 0.014122 -0.003154 -0.004527 0.000000 0.000000 0.000000
# 2 -0.003154 0.030917 -0.011434 0.000000 0.000000 0.000000
# 3 -0.004527 -0.011434 0.013523 0.000000 0.000000 0.000000
# 4 0.000000 0.000000 0.000000 0.152365 0.000000 0.000000
# 5 0.000000 0.000000 0.000000 0.000000 0.030664 0.000000
# 6 0.000000 0.000000 0.000000 0.000000 0.000000 0.046576
#
#
# Mechanical properties :
#
#
# Convention : Reuss Voigt Hill
#
# Bulk Modulus (GPa) = 49.18452 66.62463 57.90457
# Shear Modulus (GPa) = 15.00709 21.98935 18.49822
#
# Velocity S-wave (km/s) = 3.07850 3.72647 3.41787
# Velocity P-wave (km/s) = 6.61036 7.78394 7.22103
#
# Compressibility (1/GPa) = 0.02033160
#
# Stress axis : x y z
#
# Youngs Moduli (GPa) = 70.81161 32.34418 73.94635
#
# Poissons Ratio (x) = 0.10202 0.33478
# Poissons Ratio (y) = 0.22336 0.84550
# Poissons Ratio (z) = 0.32059 0.36982
#
# Static dielectric constant tensor:
#      x y z
#    x 3.073660 0.000000 0.000000 
#    y 0.000000 2.900080 0.000000 
#    z 0.000000 0.000000 2.979250 
# 
# 
# High freq. dielectric constant tensor:
#      x y z
#    x 1.620650 0.000000 0.000000 
#    y 0.000000 1.586670 0.000000 
#    z 0.000000 0.000000 1.596990 
# 
# From -- ./inp_files/51929.got.cif
#   From: 2010.03.12/outbox.cif.g09.slc.cpg/sg64_26_cif.got.tgz:51929.got - 2010.04.10 20:19:32.
