data_PCOD8261906
_publ_section_title
;
Structure prediction by ZEFSAII (Michael W. Deem and Ramdas Pophale) SiO2 
 PCOD8261906
Probable space group: C M C A
;
_chemical_formula_sum "Si O2"
_cell_formula_units_Z 104
_cell_length_a 13.965836
_cell_length_b 20.943614
_cell_length_c 17.604838
_cell_angle_alpha 90.000000
_cell_angle_beta 90.000000
_cell_angle_gamma 90.000000
_cell_volume 5149.328471
_symmetry_space_group_name_H-M "C M C A"
_symmetry_group_IT_number 64
_symmetry_cell_setting 'orthorhombic'
loop_
_space_group_symop_operation_xyz
x,y,z
-x,1/2-y,1/2+z
x,-y,-z
-x,1/2+y,1/2-z
-x,-y,-z
x,1/2+y,1/2-z
-x,y,z
x,1/2-y,1/2+z
1/2+x,1/2+y,z
1/2-x,-y,1/2+z
1/2+x,1/2-y,-z
1/2-x,y,1/2-z
1/2-x,1/2-y,-z
1/2+x,y,1/2-z
1/2-x,1/2+y,z
1/2+x,-y,1/2+z
loop_
_atom_site_type_symbol
_atom_site_label
_atom_site_fract_x
_atom_site_fract_y
_atom_site_fract_z
Si Si1 0.773408 0.087238 0.869061
Si Si2 0.808317 0.204551 0.554587
Si Si3 0.301803 0.619598 0.427049
Si Si4 0.111935 0.462596 0.234222
Si Si5 0.608319 0.325638 0.885028
Si Si6 0.743050 0.500000 0.500000
Si Si7 0.892135 0.891468 0.728150
O O1 0.759177 0.161984 0.889922
O O2 0.857096 0.079020 0.807527
O O3 0.671248 0.061664 0.838050
O O4 0.803312 0.046870 0.944446
O O5 0.750000 0.250000 0.500000
O O6 0.860144 0.157582 0.493193
O O7 0.879062 0.248761 0.604609
O O8 0.187291 0.635690 0.433675
O O9 0.320174 0.544995 0.444602
O O10 0.332787 0.636757 0.342201
O O11 0.138571 0.536653 0.251442
O O12 0.000000 0.451911 0.218680
O O13 0.500000 0.344805 0.910211
O O14 0.623683 0.343094 0.796930
O O15 0.000000 0.893294 0.699525
#
# Coordination Sequence:
#
# PCOD8261906 Si02
#       7
#    16  16  16  16  16   8  16
#     4  10  20  37  62  85 123 159 193 248 301 347
#     4   9  21  40  57  82 114 157 201 238 289 347
#     4  10  19  36  60  86 117 152 194 241 297 353
#     4  10  21  38  60  91 124 153 196 244 304 362
#     4  10  21  37  59  84 116 156 202 242 285 343
#     4  10  18  34  62  88 118 152 192 240 306 358
#     4  10  20  35  59  90 117 153 196 244 295 352
#
# _framework density 20.196808000000001
#
# number of rings (size 3 to 8) (size 9 to 14) (size 15 to 20)
#    0.000    2.154    1.538    1.385    2.154    1.231 
#   11.077   10.769    0.000    0.000    0.000    0.000 
#    0.000    0.000    0.000    0.000    0.000    0.000 
#
# Total GULP energy -644183.398333 kJ/mol
# GULP energy per Si atom -12388.142276 kJ/mol
# Density = 2.015084 g / cm^3
# Si number density = 20.196808 Si / 1000 Ang^3
#
#
#
# Elastic Constant Matrix: (Units=GPa)
#
#
# Indices 1 2 3 4 5 6 
#
# 1 88.9986 32.3864 30.6350 0.0000 0.0000 0.0000
# 2 32.3864 125.7611 54.2862 0.0000 0.0000 0.0000
# 3 30.6350 54.2862 106.9260 0.0000 0.0000 0.0000
# 4 0.0000 0.0000 0.0000 48.0198 0.0000 0.0000
# 5 0.0000 0.0000 0.0000 0.0000 13.9451 0.0000
# 6 0.0000 0.0000 0.0000 0.0000 0.0000 21.9029
#
#
#
# Elastic Compliance Matrix: (Units=1/GPa)
#
#
# Indices 1 2 3 4 5 6 
#
# 1 0.012931 -0.002217 -0.002579 0.000000 0.000000 0.000000
# 2 -0.002217 0.010563 -0.004728 0.000000 0.000000 0.000000
# 3 -0.002579 -0.004728 0.012492 0.000000 0.000000 0.000000
# 4 0.000000 0.000000 0.000000 0.020825 0.000000 0.000000
# 5 0.000000 0.000000 0.000000 0.000000 0.071710 0.000000
# 6 0.000000 0.000000 0.000000 0.000000 0.000000 0.045656
#
#
# Mechanical properties :
#
#
# Convention : Reuss Voigt Hill
#
# Bulk Modulus (GPa) = 59.03929 61.81121 60.42525
# Shear Modulus (GPa) = 25.14209 30.39876 27.77042
#
# Velocity S-wave (km/s) = 3.53208 3.88381 3.71211
# Velocity P-wave (km/s) = 6.77713 7.12621 6.95386
#
# Compressibility (1/GPa) = 0.01693787
#
# Stress axis : x y z
#
# Youngs Moduli (GPa) = 77.33600 94.66793 80.05365
#
# Poissons Ratio (x) = 0.20983 0.20649
# Poissons Ratio (y) = 0.17142 0.37849
# Poissons Ratio (z) = 0.19948 0.44758
#
# Static dielectric constant tensor:
#      x y z
#    x 3.448380 0.000000 0.000000 
#    y 0.000000 4.281220 0.000000 
#    z 0.000000 0.000000 3.866720 
# 
# 
# High freq. dielectric constant tensor:
#      x y z
#    x 1.750630 0.000000 0.000000 
#    y 0.000000 1.793520 0.000000 
#    z 0.000000 0.000000 1.802210 
# 
# From -- ./inp_files/32381.got.cif
#   From: 2010.03.12/outbox.cif.g09.slc.cpg/sg64_17_cif.got.tgz:32381.got - 2010.04.10 20:19:32.
