data_PCOD8261210
_publ_section_title
;
Structure prediction by ZEFSAII (Michael W. Deem and Ramdas Pophale) SiO2 
 PCOD8261210
Probable space group: C M C M
;
_chemical_formula_sum "Si O2"
_cell_formula_units_Z 64
_cell_length_a 32.578823
_cell_length_b 9.216964
_cell_length_c 10.005683
_cell_angle_alpha 90.000000
_cell_angle_beta 90.000000
_cell_angle_gamma 90.000000
_cell_volume 3004.484866
_symmetry_space_group_name_H-M "C M C M"
_symmetry_group_IT_number 63
_symmetry_cell_setting 'orthorhombic'
loop_
_space_group_symop_operation_xyz
x,y,z
-x,-y,1/2+z
x,-y,-z
-x,y,1/2-z
-x,-y,-z
x,y,1/2-z
-x,y,z
x,-y,1/2+z
1/2+x,1/2+y,z
1/2-x,1/2-y,1/2+z
1/2+x,1/2-y,-z
1/2-x,1/2+y,1/2-z
1/2-x,1/2-y,-z
1/2+x,1/2+y,1/2-z
1/2-x,1/2+y,z
1/2+x,1/2-y,1/2+z
loop_
_atom_site_type_symbol
_atom_site_label
_atom_site_fract_x
_atom_site_fract_y
_atom_site_fract_z
Si Si1 0.401845 0.000000 0.500000
Si Si2 0.655182 0.742338 0.497606
Si Si3 0.708053 0.276592 0.250000
Si Si4 0.794867 0.877327 0.750000
Si Si5 0.594771 0.500000 0.000000
Si Si6 0.048031 0.378160 0.750000
Si Si7 0.453204 0.467438 0.250000
O O1 0.370786 0.878080 0.444096
O O2 0.430542 0.943287 0.618894
O O3 0.685097 0.784124 0.619207
O O4 0.680214 0.667713 0.379882
O O5 0.622446 0.629457 0.555438
O O6 0.752513 0.207051 0.250000
O O7 0.712146 0.450388 0.250000
O O8 0.566324 0.452828 0.877314
O O9 0.053165 0.205249 0.750000
O O10 0.000000 0.421447 0.750000
O O11 0.500000 0.511948 0.250000
#
# Coordination Sequence:
#
# PCOD8261210 Si02
#       7
#     8  16   8   8   8   8   8
#     4  12  25  44  69 100 128 182 224 268 329 398
#     4  12  25  43  69  94 132 170 223 270 322 392
#     4  12  26  45  67  96 135 170 214 273 334 387
#     4  12  26  44  66  99 130 174 214 271 332 393
#     4  12  21  46  69  96 132 176 220 280 327 390
#     4  11  24  45  65  98 141 175 216 278 334 394
#     4  11  24  42  68 101 136 173 220 278 336 392
#
# _framework density 21.301487999999999
#
# number of rings (size 3 to 8) (size 9 to 14) (size 15 to 20)
#    0.000    0.250    5.000    4.500    3.500    0.000 
#    0.000    1.250    0.000    0.000    0.000    0.000 
#    0.000    0.000    0.000    0.000    0.000    0.000 
#
# Total GULP energy -396890.300691 kJ/mol
# GULP energy per Si atom -12402.821897 kJ/mol
# Density = 2.125301 g / cm^3
# Si number density = 21.301488 Si / 1000 Ang^3
#
#
#
# Elastic Constant Matrix: (Units=GPa)
#
#
# Indices 1 2 3 4 5 6 
#
# 1 150.5542 37.2985 48.4744 0.0000 0.0000 0.0000
# 2 37.2985 67.5334 -10.9149 0.0000 0.0000 0.0000
# 3 48.4744 -10.9149 124.7001 0.0000 0.0000 0.0000
# 4 0.0000 0.0000 0.0000 14.7053 0.0000 0.0000
# 5 0.0000 0.0000 0.0000 0.0000 14.3683 0.0000
# 6 0.0000 0.0000 0.0000 0.0000 0.0000 26.1190
#
#
#
# Elastic Compliance Matrix: (Units=1/GPa)
#
#
# Indices 1 2 3 4 5 6 
#
# 1 0.009453 -0.005898 -0.004191 0.000000 0.000000 0.000000
# 2 -0.005898 0.018700 0.003929 0.000000 0.000000 0.000000
# 3 -0.004191 0.003929 0.009992 0.000000 0.000000 0.000000
# 4 0.000000 0.000000 0.000000 0.068003 0.000000 0.000000
# 5 0.000000 0.000000 0.000000 0.000000 0.069598 0.000000
# 6 0.000000 0.000000 0.000000 0.000000 0.000000 0.038286
#
#
# Mechanical properties :
#
#
# Convention : Reuss Voigt Hill
#
# Bulk Modulus (GPa) = 38.72002 54.72264 46.72133
# Shear Modulus (GPa) = 21.28033 28.90049 25.09041
#
# Velocity S-wave (km/s) = 3.16414 3.68739 3.43574
# Velocity P-wave (km/s) = 5.61833 6.62378 6.14166
#
# Compressibility (1/GPa) = 0.02582643
#
# Stress axis : x y z
#
# Youngs Moduli (GPa) = 105.79107 53.47598 100.07777
#
# Poissons Ratio (x) = 0.31540 0.41940
# Poissons Ratio (y) = 0.62395 -0.39325
# Poissons Ratio (z) = 0.44334 -0.21013
#
# Static dielectric constant tensor:
#      x y z
#    x 4.154860 0.000000 0.000000 
#    y 0.000000 4.018660 0.000000 
#    z 0.000000 0.000000 3.676040 
# 
# 
# High freq. dielectric constant tensor:
#      x y z
#    x 1.860190 0.000000 0.000000 
#    y 0.000000 1.833030 0.000000 
#    z 0.000000 0.000000 1.846130 
# 
# From -- ./inp_files/25549.got.cif
#   From: 2010.03.12/outbox.cif.g09.slc.cpg/sg63_13_cif.got.tgz:25549.got - 2010.04.10 19:34:48.
