data_PCOD8261725
_publ_section_title
;
Structure prediction by ZEFSAII (Michael W. Deem and Ramdas Pophale) SiO2 
 PCOD8261725
Probable space group: C M C A
;
_chemical_formula_sum "Si O2"
_cell_formula_units_Z 104
_cell_length_a 24.627366
_cell_length_b 18.667773
_cell_length_c 12.703056
_cell_angle_alpha 90.000000
_cell_angle_beta 90.000000
_cell_angle_gamma 90.000000
_cell_volume 5840.078551
_symmetry_space_group_name_H-M "C M C A"
_symmetry_group_IT_number 64
_symmetry_cell_setting 'orthorhombic'
loop_
_space_group_symop_operation_xyz
x,y,z
-x,1/2-y,1/2+z
x,-y,-z
-x,1/2+y,1/2-z
-x,-y,-z
x,1/2+y,1/2-z
-x,y,z
x,1/2-y,1/2+z
1/2+x,1/2+y,z
1/2-x,-y,1/2+z
1/2+x,1/2-y,-z
1/2-x,y,1/2-z
1/2-x,1/2-y,-z
1/2+x,y,1/2-z
1/2-x,1/2+y,z
1/2+x,-y,1/2+z
loop_
_atom_site_type_symbol
_atom_site_label
_atom_site_fract_x
_atom_site_fract_y
_atom_site_fract_z
Si Si1 0.854220 0.500000 0.500000
Si Si2 0.310830 0.032977 0.278132
Si Si3 0.939016 0.119839 0.993989
Si Si4 0.622824 0.334474 0.812405
Si Si5 0.310004 0.265016 0.459136
Si Si6 0.311277 0.622813 0.714411
Si Si7 0.882774 0.723135 0.644487
O O1 0.814948 0.520303 0.404025
O O2 0.893836 0.562699 0.539813
O O3 0.250000 0.057111 0.250000
O O4 0.352204 0.097199 0.250509
O O5 0.326954 0.961546 0.212329
O O6 0.933760 0.186791 0.914113
O O7 0.000000 0.089062 0.986918
O O8 0.927092 0.143219 0.113595
O O9 0.671590 0.298187 0.879592
O O10 0.596288 0.280008 0.729580
O O11 0.250000 0.250000 0.500000
O O12 0.316447 0.341772 0.401093
O O13 0.347752 0.267235 0.560638
O O14 0.250000 0.631723 0.750000
O O15 0.347866 0.661784 0.800105
#
# Coordination Sequence:
#
# PCOD8261725 Si02
#       7
#     8  16  16  16  16  16  16
#     4  10  19  38  56  80 114 136 185 226 270 334
#     4  10  21  33  51  76 114 150 176 218 264 317
#     4  10  20  36  59  80 101 139 183 237 283 309
#     4   9  22  34  49  78 111 137 179 223 266 330
#     4  10  19  30  53  72 105 146 183 212 259 328
#     4  10  18  31  49  75 106 143 182 218 259 316
#     4  10  19  35  51  78 106 137 179 224 268 325
#
# _framework density 17.807981000000002
#
# number of rings (size 3 to 8) (size 9 to 14) (size 15 to 20)
#    0.000    2.154    3.077    0.231    2.154    0.615 
#    0.000    0.000    0.000    0.000    0.000    0.000 
#    0.000    7.077    0.000    0.000    0.000    0.000 
#
# Total GULP energy -644632.756528 kJ/mol
# GULP energy per Si atom -12396.783779 kJ/mol
# Density = 1.776745 g / cm^3
# Si number density = 17.807981 Si / 1000 Ang^3
#
#
#
# Elastic Constant Matrix: (Units=GPa)
#
#
# Indices 1 2 3 4 5 6 
#
# 1 73.8175 13.8353 29.0902 0.0000 0.0000 0.0000
# 2 13.8353 79.9293 26.2018 0.0000 0.0000 0.0000
# 3 29.0902 26.2018 68.2102 0.0000 0.0000 0.0000
# 4 0.0000 0.0000 0.0000 59.1662 0.0000 0.0000
# 5 0.0000 0.0000 0.0000 0.0000 11.0611 0.0000
# 6 0.0000 0.0000 0.0000 0.0000 0.0000 16.3355
#
#
#
# Elastic Compliance Matrix: (Units=1/GPa)
#
#
# Indices 1 2 3 4 5 6 
#
# 1 0.016311 -0.000621 -0.006718 0.000000 0.000000 0.000000
# 2 -0.000621 0.014337 -0.005242 0.000000 0.000000 0.000000
# 3 -0.006718 -0.005242 0.019539 0.000000 0.000000 0.000000
# 4 0.000000 0.000000 0.000000 0.016902 0.000000 0.000000
# 5 0.000000 0.000000 0.000000 0.000000 0.090407 0.000000
# 6 0.000000 0.000000 0.000000 0.000000 0.000000 0.061216
#
#
# Mechanical properties :
#
#
# Convention : Reuss Voigt Hill
#
# Bulk Modulus (GPa) = 39.96055 40.02351 39.99203
# Shear Modulus (GPa) = 19.82428 27.50119 23.66274
#
# Velocity S-wave (km/s) = 3.34012 3.93404 3.64919
# Velocity P-wave (km/s) = 6.11258 6.56958 6.34520
#
# Compressibility (1/GPa) = 0.02502468
#
# Stress axis : x y z
#
# Youngs Moduli (GPa) = 61.30978 69.74903 51.17907
#
# Poissons Ratio (x) = 0.04333 0.34380
# Poissons Ratio (y) = 0.03809 0.26830
# Poissons Ratio (z) = 0.41185 0.36566
#
# Static dielectric constant tensor:
#      x y z
#    x 2.978360 0.000000 0.000000 
#    y 0.000000 3.578500 0.000000 
#    z 0.000000 0.000000 3.344650 
# 
# 
# High freq. dielectric constant tensor:
#      x y z
#    x 1.657820 0.000000 0.000000 
#    y 0.000000 1.697520 0.000000 
#    z 0.000000 0.000000 1.686230 
# 
# From -- ./inp_files/19200.got.cif
#   From: 2010.03.12/outbox.cif.g09.slc.cpg/sg64_10_cif.got.tgz:19200.got - 2010.04.10 20:19:32.
