data_PCOD8261193
_publ_section_title
;
Structure prediction by ZEFSAII (Michael W. Deem and Ramdas Pophale) SiO2 
 PCOD8261193
Probable space group: C M C M
;
_chemical_formula_sum "Si O2"
_cell_formula_units_Z 64
_cell_length_a 7.638190
_cell_length_b 22.276197
_cell_length_c 19.292715
_cell_angle_alpha 90.000000
_cell_angle_beta 90.000000
_cell_angle_gamma 90.000000
_cell_volume 3282.652084
_symmetry_space_group_name_H-M "C M C M"
_symmetry_group_IT_number 63
_symmetry_cell_setting 'orthorhombic'
loop_
_space_group_symop_operation_xyz
x,y,z
-x,-y,1/2+z
x,-y,-z
-x,y,1/2-z
-x,-y,-z
x,y,1/2-z
-x,y,z
x,-y,1/2+z
1/2+x,1/2+y,z
1/2-x,1/2-y,1/2+z
1/2+x,1/2-y,-z
1/2-x,1/2+y,1/2-z
1/2-x,1/2-y,-z
1/2+x,1/2+y,1/2-z
1/2-x,1/2+y,z
1/2+x,1/2-y,1/2+z
loop_
_atom_site_type_symbol
_atom_site_label
_atom_site_fract_x
_atom_site_fract_y
_atom_site_fract_z
Si Si1 0.500000 0.101408 0.171741
Si Si2 0.200782 0.034893 0.102016
Si Si3 0.195416 0.719882 0.927790
Si Si4 0.700814 0.409303 0.044627
Si Si5 0.000000 0.734549 0.333709
O O1 0.500000 0.120222 0.250000
O O2 0.326460 0.062883 0.158863
O O3 0.500000 0.166621 0.135661
O O4 0.000000 0.049080 0.121135
O O5 0.231182 0.963210 0.099234
O O6 0.254596 0.065562 0.030045
O O7 0.184427 0.647956 0.936235
O O8 0.325795 0.735123 0.864961
O O9 0.000000 0.742240 0.908159
O O10 0.250000 0.750000 0.000000
O O11 0.500000 0.388733 0.044422
O O12 0.000000 0.742058 0.250000
#
# Coordination Sequence:
#
# PCOD8261193 Si02
#       5
#     8  16  16  16   8
#     4  11  24  39  59  83 114 158 205 239 292 371
#     4   9  20  36  60  89 120 148 188 249 311 351
#     4  12  23  38  65  95 124 162 214 259 302 364
#     4   9  18  36  61  92 121 149 190 252 307 354
#     4  11  26  46  61  88 131 167 203 258 317 370
#
# _framework density 19.496431000000001
#
# number of rings (size 3 to 8) (size 9 to 14) (size 15 to 20)
#    0.000    1.750    2.500    3.000    3.500    5.000 
#    0.000    3.750    0.000    0.000    0.000    0.000 
#    0.000    0.000    0.000    0.000    0.000    0.000 
#
# Total GULP energy -396728.292667 kJ/mol
# GULP energy per Si atom -12397.759146 kJ/mol
# Density = 1.945206 g / cm^3
# Si number density = 19.496431 Si / 1000 Ang^3
#
#
#
# Elastic Constant Matrix: (Units=GPa)
#
#
# Indices 1 2 3 4 5 6 
#
# 1 138.9203 47.2824 45.2424 0.0000 0.0000 0.0000
# 2 47.2824 125.2981 31.6827 0.0000 0.0000 0.0000
# 3 45.2424 31.6827 72.6459 0.0000 0.0000 0.0000
# 4 0.0000 0.0000 0.0000 22.9959 0.0000 0.0000
# 5 0.0000 0.0000 0.0000 0.0000 25.0679 0.0000
# 6 0.0000 0.0000 0.0000 0.0000 0.0000 29.8187
#
#
#
# Elastic Compliance Matrix: (Units=1/GPa)
#
#
# Indices 1 2 3 4 5 6 
#
# 1 0.009621 -0.002378 -0.004955 0.000000 0.000000 0.000000
# 2 -0.002378 0.009558 -0.002688 0.000000 0.000000 0.000000
# 3 -0.004955 -0.002688 0.018023 0.000000 0.000000 0.000000
# 4 0.000000 0.000000 0.000000 0.043486 0.000000 0.000000
# 5 0.000000 0.000000 0.000000 0.000000 0.039892 0.000000
# 6 0.000000 0.000000 0.000000 0.000000 0.000000 0.033536
#
#
# Mechanical properties :
#
#
# Convention : Reuss Voigt Hill
#
# Bulk Modulus (GPa) = 58.26865 65.03103 61.64984
# Shear Modulus (GPa) = 27.79667 29.75361 28.77514
#
# Velocity S-wave (km/s) = 3.77998 3.91078 3.84594
# Velocity P-wave (km/s) = 7.00020 7.33621 7.17017
#
# Compressibility (1/GPa) = 0.01716189
#
# Stress axis : x y z
#
# Youngs Moduli (GPa) = 103.93534 104.62625 55.48355
#
# Poissons Ratio (x) = 0.24878 0.27492
# Poissons Ratio (y) = 0.24714 0.14912
# Poissons Ratio (z) = 0.51500 0.28119
#
# Static dielectric constant tensor:
#      x y z
#    x 3.598880 0.000000 0.000000 
#    y 0.000000 3.744140 0.000000 
#    z 0.000000 0.000000 3.187710 
# 
# 
# High freq. dielectric constant tensor:
#      x y z
#    x 1.768870 0.000000 0.000000 
#    y 0.000000 1.776460 0.000000 
#    z 0.000000 0.000000 1.720680 
# 
# From -- ./inp_files/39853.got.cif
#   From: 2010.03.12/outbox.cif.g09.slc.cpg/sg63_20_cif.got.tgz:39853.got - 2010.04.10 19:34:48.
