data_PCOD8261547
_publ_section_title
;
Structure prediction by ZEFSAII (Michael W. Deem and Ramdas Pophale) SiO2 
 PCOD8261547
Probable space group: C M C A
;
_chemical_formula_sum "Si O2"
_cell_formula_units_Z 112
_cell_length_a 20.350014
_cell_length_b 13.467864
_cell_length_c 20.837335
_cell_angle_alpha 90.000000
_cell_angle_beta 90.000000
_cell_angle_gamma 90.000000
_cell_volume 5710.913845
_symmetry_space_group_name_H-M "C M C A"
_symmetry_group_IT_number 64
_symmetry_cell_setting 'orthorhombic'
loop_
_space_group_symop_operation_xyz
x,y,z
-x,1/2-y,1/2+z
x,-y,-z
-x,1/2+y,1/2-z
-x,-y,-z
x,1/2+y,1/2-z
-x,y,z
x,1/2-y,1/2+z
1/2+x,1/2+y,z
1/2-x,-y,1/2+z
1/2+x,1/2-y,-z
1/2-x,y,1/2-z
1/2-x,1/2-y,-z
1/2+x,y,1/2-z
1/2-x,1/2+y,z
1/2+x,-y,1/2+z
loop_
_atom_site_type_symbol
_atom_site_label
_atom_site_fract_x
_atom_site_fract_y
_atom_site_fract_z
Si Si1 0.927205 0.958220 0.321236
Si Si2 0.823858 0.307174 0.224567
Si Si3 0.311038 0.884896 0.489861
Si Si4 0.215860 0.723286 0.915341
Si Si5 0.400088 0.398393 0.462894
Si Si6 0.077044 0.690958 0.185776
Si Si7 0.570167 0.773927 0.450467
O O1 0.868205 0.906460 0.281438
O O2 0.931355 0.917236 0.393471
O O3 0.000000 0.937593 0.290826
O O4 0.911593 0.074058 0.320066
O O5 0.750000 0.330751 0.250000
O O6 0.810796 0.258408 0.155468
O O7 0.868710 0.229972 0.263705
O O8 0.283559 0.839063 0.422309
O O9 0.277855 0.830465 0.550963
O O10 0.387737 0.858591 0.485861
O O11 0.298840 0.000000 0.500000
O O12 0.170364 0.651842 0.957590
O O13 0.392533 0.500000 0.500000
O O14 0.442573 0.677763 0.495209
O O15 0.097544 0.739889 0.118575
O O16 0.000000 0.713266 0.204472
O O17 0.500000 0.825220 0.439696
#
# Coordination Sequence:
#
# PCOD8261547 Si02
#       7
#    16  16  16  16  16  16  16
#     4  10  21  37  61  90 116 155 201 248 304 351
#     4  11  23  41  57  83 117 158 201 247 290 349
#     4  10  20  39  61  83 118 150 183 237 302 363
#     4   9  21  38  57  86 110 147 193 237 293 348
#     4  10  17  31  60  93 117 139 185 250 303 344
#     4  10  21  39  61  85 121 161 200 246 293 351
#     4  10  20  33  56  89 119 153 192 238 292 352
#
# _framework density 19.611571000000001
#
# number of rings (size 3 to 8) (size 9 to 14) (size 15 to 20)
#    0.000    2.000    1.429    2.143    0.000    1.429 
#   10.286    0.714    0.000    0.000    0.000    0.000 
#    0.000    0.000    0.000    0.000    0.000    0.000 
#
# Total GULP energy -693767.336091 kJ/mol
# GULP energy per Si atom -12388.702430 kJ/mol
# Density = 1.956693 g / cm^3
# Si number density = 19.611571 Si / 1000 Ang^3
#
#
#
# Elastic Constant Matrix: (Units=GPa)
#
#
# Indices 1 2 3 4 5 6 
#
# 1 112.8494 53.2654 47.8325 0.0000 0.0000 0.0000
# 2 53.2654 118.5489 38.8541 0.0000 0.0000 0.0000
# 3 47.8325 38.8541 90.2413 0.0000 0.0000 0.0000
# 4 0.0000 0.0000 0.0000 24.1696 0.0000 0.0000
# 5 0.0000 0.0000 0.0000 0.0000 23.8543 0.0000
# 6 0.0000 0.0000 0.0000 0.0000 0.0000 17.5311
#
#
#
# Elastic Compliance Matrix: (Units=1/GPa)
#
#
# Indices 1 2 3 4 5 6 
#
# 1 0.012985 -0.004166 -0.005089 0.000000 0.000000 0.000000
# 2 -0.004166 0.011158 -0.002596 0.000000 0.000000 0.000000
# 3 -0.005089 -0.002596 0.014896 0.000000 0.000000 0.000000
# 4 0.000000 0.000000 0.000000 0.041374 0.000000 0.000000
# 5 0.000000 0.000000 0.000000 0.000000 0.041921 0.000000
# 6 0.000000 0.000000 0.000000 0.000000 0.000000 0.057042
#
#
# Mechanical properties :
#
#
# Convention : Reuss Voigt Hill
#
# Bulk Modulus (GPa) = 65.20020 66.83817 66.01919
# Shear Modulus (GPa) = 24.01643 25.22350 24.61996
#
# Velocity S-wave (km/s) = 3.50323 3.59019 3.54698
# Velocity P-wave (km/s) = 7.04851 7.16526 7.10712
#
# Compressibility (1/GPa) = 0.01533738
#
# Stress axis : x y z
#
# Youngs Moduli (GPa) = 77.01279 89.62074 67.13064
#
# Poissons Ratio (x) = 0.37340 0.34161
# Poissons Ratio (y) = 0.32087 0.17426
# Poissons Ratio (z) = 0.39190 0.23264
#
# Static dielectric constant tensor:
#      x y z
#    x 3.831900 0.000000 0.000000 
#    y 0.000000 3.359440 0.000000 
#    z 0.000000 0.000000 3.545770 
# 
# 
# High freq. dielectric constant tensor:
#      x y z
#    x 1.785600 0.000000 0.000000 
#    y 0.000000 1.749000 0.000000 
#    z 0.000000 0.000000 1.753470 
# 
# From -- ./inp_files/46372.got.cif
#   From: 2010.03.12/outbox.cif.g09.slc.cpg/sg64_24_cif.got.tgz:46372.got - 2010.04.10 20:19:32.
