data_PCOD8261818
_publ_section_title
;
Structure prediction by ZEFSAII (Michael W. Deem and Ramdas Pophale) SiO2 
 PCOD8261818
Probable space group: C M C A
;
_chemical_formula_sum "Si O2"
_cell_formula_units_Z 128
_cell_length_a 18.384320
_cell_length_b 21.163212
_cell_length_c 17.757694
_cell_angle_alpha 90.000000
_cell_angle_beta 90.000000
_cell_angle_gamma 90.000000
_cell_volume 6909.008408
_symmetry_space_group_name_H-M "C M C A"
_symmetry_group_IT_number 64
_symmetry_cell_setting 'orthorhombic'
loop_
_space_group_symop_operation_xyz
x,y,z
-x,1/2-y,1/2+z
x,-y,-z
-x,1/2+y,1/2-z
-x,-y,-z
x,1/2+y,1/2-z
-x,y,z
x,1/2-y,1/2+z
1/2+x,1/2+y,z
1/2-x,-y,1/2+z
1/2+x,1/2-y,-z
1/2-x,y,1/2-z
1/2-x,1/2-y,-z
1/2+x,y,1/2-z
1/2-x,1/2+y,z
1/2+x,-y,1/2+z
loop_
_atom_site_type_symbol
_atom_site_label
_atom_site_fract_x
_atom_site_fract_y
_atom_site_fract_z
Si Si1 0.415763 0.222826 0.642004
Si Si2 0.307646 0.498360 0.190423
Si Si3 0.274267 0.212521 0.163391
Si Si4 0.744907 0.440846 0.459807
Si Si5 0.174956 0.111250 0.094409
Si Si6 0.837925 0.373143 0.250320
Si Si7 0.418921 0.716439 0.031182
Si Si8 0.824205 0.680078 0.902647
O O1 0.500000 0.238407 0.664704
O O2 0.362634 0.283309 0.656948
O O3 0.381955 0.165348 0.688059
O O4 0.412436 0.199650 0.556190
O O5 0.250000 0.525860 0.250000
O O6 0.268817 0.458462 0.124144
O O7 0.349773 0.558680 0.156190
O O8 0.357686 0.447067 0.234341
O O9 0.250000 0.214225 0.250000
O O10 0.246867 0.148323 0.123795
O O11 0.242598 0.274387 0.120835
O O12 0.702693 0.500000 0.500000
O O13 0.811690 0.425309 0.516138
O O14 0.698988 0.377144 0.456309
O O15 0.110616 0.160573 0.083890
O O16 0.750000 0.363956 0.250000
O O17 0.865777 0.348990 0.169576
O O18 0.500000 0.726598 0.058086
O O19 0.379129 0.781840 0.045829
#
# Coordination Sequence:
#
# PCOD8261818 Si02
#       8
#    16  16  16  16  16  16  16  16
#     4  11  21  35  54  83 115 145 183 225 276 330
#     4  10  18  32  55  80 109 139 183 231 281 319
#     4  11  19  34  54  84 114 146 185 227 276 326
#     4  10  19  31  52  85 109 139 180 229 274 326
#     4  10  21  33  54  81 115 147 184 224 279 341
#     4  11  18  34  58  80 108 142 188 229 273 318
#     4  10  23  37  53  79 114 150 185 231 282 332
#     4  11  18  34  58  77 107 148 184 234 268 324
#
# _framework density 18.526537000000001
#
# number of rings (size 3 to 8) (size 9 to 14) (size 15 to 20)
#    0.000    1.500    5.000    2.625    0.000    2.500 
#    0.000    0.625    0.000    5.250    0.000    6.125 
#    0.000    0.000    0.000    0.000    0.000    0.000 
#
# Total GULP energy -793065.260802 kJ/mol
# GULP energy per Si atom -12391.644700 kJ/mol
# Density = 1.848437 g / cm^3
# Si number density = 18.526537 Si / 1000 Ang^3
#
#
#
# Elastic Constant Matrix: (Units=GPa)
#
#
# Indices 1 2 3 4 5 6 
#
# 1 88.4853 22.3231 22.3118 0.0000 0.0000 0.0000
# 2 22.3231 93.7194 29.5974 0.0000 0.0000 0.0000
# 3 22.3118 29.5974 74.8477 0.0000 0.0000 0.0000
# 4 0.0000 0.0000 0.0000 37.6128 0.0000 0.0000
# 5 0.0000 0.0000 0.0000 0.0000 21.5948 0.0000
# 6 0.0000 0.0000 0.0000 0.0000 0.0000 8.8795
#
#
#
# Elastic Compliance Matrix: (Units=1/GPa)
#
#
# Indices 1 2 3 4 5 6 
#
# 1 0.012561 -0.002068 -0.002927 0.000000 0.000000 0.000000
# 2 -0.002068 0.012533 -0.004340 0.000000 0.000000 0.000000
# 3 -0.002927 -0.004340 0.015949 0.000000 0.000000 0.000000
# 4 0.000000 0.000000 0.000000 0.026587 0.000000 0.000000
# 5 0.000000 0.000000 0.000000 0.000000 0.046308 0.000000
# 6 0.000000 0.000000 0.000000 0.000000 0.000000 0.112620
#
#
# Mechanical properties :
#
#
# Convention : Reuss Voigt Hill
#
# Bulk Modulus (GPa) = 44.69289 45.05746 44.87517
# Shear Modulus (GPa) = 19.78762 25.80540 22.79651
#
# Velocity S-wave (km/s) = 3.27168 3.73619 3.51162
# Velocity P-wave (km/s) = 6.20064 6.55633 6.38096
#
# Compressibility (1/GPa) = 0.02237493
#
# Stress axis : x y z
#
# Youngs Moduli (GPa) = 79.61204 79.78834 62.69990
#
# Poissons Ratio (x) = 0.16497 0.18351
# Poissons Ratio (y) = 0.16461 0.27210
# Poissons Ratio (z) = 0.23301 0.34626
#
# Static dielectric constant tensor:
#      x y z
#    x 3.106500 0.000000 0.000000 
#    y 0.000000 3.659050 0.000000 
#    z 0.000000 0.000000 3.673160 
# 
# 
# High freq. dielectric constant tensor:
#      x y z
#    x 1.660550 0.000000 0.000000 
#    y 0.000000 1.728100 0.000000 
#    z 0.000000 0.000000 1.741460 
# 
# From -- ./inp_files/33794.got.cif
#   From: 2010.03.12/outbox.cif.g09.slc.cpg/sg64_17_cif.got.tgz:33794.got - 2010.04.10 20:19:32.
