data_PCOD8261487
_publ_section_title
;
Structure prediction by ZEFSAII (Michael W. Deem and Ramdas Pophale) SiO2 
 PCOD8261487
Probable space group: C M C A
;
_chemical_formula_sum "Si O2"
_cell_formula_units_Z 80
_cell_length_a 8.868371
_cell_length_b 14.981882
_cell_length_c 29.945959
_cell_angle_alpha 90.000000
_cell_angle_beta 90.000000
_cell_angle_gamma 90.000000
_cell_volume 3978.766484
_symmetry_space_group_name_H-M "C M C A"
_symmetry_group_IT_number 64
_symmetry_cell_setting 'orthorhombic'
loop_
_space_group_symop_operation_xyz
x,y,z
-x,1/2-y,1/2+z
x,-y,-z
-x,1/2+y,1/2-z
-x,-y,-z
x,1/2+y,1/2-z
-x,y,z
x,1/2-y,1/2+z
1/2+x,1/2+y,z
1/2-x,-y,1/2+z
1/2+x,1/2-y,-z
1/2-x,y,1/2-z
1/2-x,1/2-y,-z
1/2+x,y,1/2-z
1/2-x,1/2+y,z
1/2+x,-y,1/2+z
loop_
_atom_site_type_symbol
_atom_site_label
_atom_site_fract_x
_atom_site_fract_y
_atom_site_fract_z
Si Si1 0.321879 0.151391 0.793880
Si Si2 0.324152 0.343873 0.708121
Si Si3 0.327001 0.352838 0.609379
Si Si4 0.322471 0.648364 0.883417
Si Si5 0.177750 0.502599 0.450220
O O1 0.500000 0.140395 0.791942
O O2 0.250000 0.103757 0.750000
O O3 0.270921 0.253590 0.794115
O O4 0.260234 0.108395 0.839675
O O5 0.500000 0.323442 0.717123
O O6 0.250000 0.399185 0.750000
O O7 0.304922 0.391329 0.660022
O O8 0.500000 0.360600 0.594889
O O9 0.273135 0.249941 0.606403
O O10 0.229825 0.409072 0.575116
O O11 0.500000 0.644055 0.874175
O O12 0.270926 0.587048 0.924738
O O13 0.247726 0.500000 0.500000
O O14 0.000000 0.507520 0.452934
#
# Coordination Sequence:
#
# PCOD8261487 Si02
#       5
#    16  16  16  16  16
#     4  10  17  27  48  78 109 142 180 217 258 310
#     4   9  16  28  48  76 110 145 179 215 260 312
#     4   9  19  35  55  79 109 144 179 218 264 316
#     4   9  19  37  56  77 110 146 177 216 268 320
#     4  10  22  39  58  80 106 137 177 226 276 324
#
# _framework density 20.106733999999999
#
# number of rings (size 3 to 8) (size 9 to 14) (size 15 to 20)
#    0.000    2.600    0.000    4.800    0.000    6.000 
#    0.000    1.000    0.000    2.400    0.000    0.000 
#    0.000    0.000    0.000    0.000    0.000    0.000 
#
# Total GULP energy -495713.802608 kJ/mol
# GULP energy per Si atom -12392.845065 kJ/mol
# Density = 2.006097 g / cm^3
# Si number density = 20.106734 Si / 1000 Ang^3
#
#
#
# Elastic Constant Matrix: (Units=GPa)
#
#
# Indices 1 2 3 4 5 6 
#
# 1 65.8713 23.5099 56.3955 0.0000 0.0000 0.0000
# 2 23.5099 75.6449 64.6606 0.0000 0.0000 0.0000
# 3 56.3955 64.6606 203.0881 0.0000 0.0000 0.0000
# 4 0.0000 0.0000 0.0000 -183.1695 0.0000 0.0000
# 5 0.0000 0.0000 0.0000 0.0000 32.0689 0.0000
# 6 0.0000 0.0000 0.0000 0.0000 0.0000 17.6027
#
#
#
# Elastic Compliance Matrix: (Units=1/GPa)
#
#
# Indices 1 2 3 4 5 6 
#
# 1 0.020141 -0.002032 -0.004946 0.000000 0.000000 0.000000
# 2 -0.002032 0.018368 -0.005284 0.000000 0.000000 0.000000
# 3 -0.004946 -0.005284 0.007980 0.000000 0.000000 0.000000
# 4 0.000000 0.000000 0.000000 -0.005459 0.000000 0.000000
# 5 0.000000 0.000000 0.000000 0.000000 0.031183 0.000000
# 6 0.000000 0.000000 0.000000 0.000000 0.000000 0.056809
#
#
# Mechanical properties :
#
#
# Convention : Reuss Voigt Hill
#
# Bulk Modulus (GPa) = 45.52709 70.41513 57.97111
# Shear Modulus (GPa) = 31.08179 -13.36370 8.85905
#
# Velocity S-wave (km/s) = 3.93598 -2.58085 2.10133
# Velocity P-wave (km/s) = 6.58391 5.12012 5.89760
#
# Compressibility (1/GPa) = 0.02196494
#
# Stress axis : x y z
#
# Youngs Moduli (GPa) = 49.65051 54.44340 125.31771
#
# Poissons Ratio (x) = 0.11062 0.61982
# Poissons Ratio (y) = 0.10088 0.66216
# Poissons Ratio (z) = 0.24557 0.28767
#
# Static dielectric constant tensor:
#      x y z
#    x 3.549920 0.000000 0.000000 
#    y 0.000000 3.306800 0.000000 
#    z 0.000000 0.000000 4.487910 
# 
# 
# High freq. dielectric constant tensor:
#      x y z
#    x 1.777520 0.000000 0.000000 
#    y 0.000000 1.752840 0.000000 
#    z 0.000000 0.000000 1.799950 
# 
# From -- ./inp_files/51749.got.cif
#   From: 2010.03.12/outbox.cif.g09.slc.cpg/sg64_26_cif.got.tgz:51749.got - 2010.04.10 20:19:32.
