data_PCOD8261055
_publ_section_title
;
Structure prediction by ZEFSAII (Michael W. Deem and Ramdas Pophale) SiO2 
 PCOD8261055
Probable space group: C M C M
;
_chemical_formula_sum "Si O2"
_cell_formula_units_Z 64
_cell_length_a 10.174698
_cell_length_b 19.247239
_cell_length_c 16.142080
_cell_angle_alpha 90.000000
_cell_angle_beta 90.000000
_cell_angle_gamma 90.000000
_cell_volume 3161.181721
_symmetry_space_group_name_H-M "C M C M"
_symmetry_group_IT_number 63
_symmetry_cell_setting 'orthorhombic'
loop_
_space_group_symop_operation_xyz
x,y,z
-x,-y,1/2+z
x,-y,-z
-x,y,1/2-z
-x,-y,-z
x,y,1/2-z
-x,y,z
x,-y,1/2+z
1/2+x,1/2+y,z
1/2-x,1/2-y,1/2+z
1/2+x,1/2-y,-z
1/2-x,1/2+y,1/2-z
1/2-x,1/2-y,-z
1/2+x,1/2+y,1/2-z
1/2-x,1/2+y,z
1/2+x,1/2-y,1/2+z
loop_
_atom_site_type_symbol
_atom_site_label
_atom_site_fract_x
_atom_site_fract_y
_atom_site_fract_z
Si Si1 0.000000 0.817166 0.069479
Si Si2 0.500000 0.248694 0.250000
Si Si3 0.500000 0.790438 0.418366
Si Si4 0.775120 0.637082 0.250000
Si Si5 0.500000 0.705162 0.250000
Si Si6 0.652024 0.034523 0.108986
Si Si7 0.730181 0.895702 0.439061
O O1 0.874670 0.864963 0.051684
O O2 0.000000 0.793753 0.165576
O O3 0.000000 0.753787 0.003902
O O4 0.368123 0.204028 0.250000
O O5 0.500000 0.747213 0.334813
O O6 0.632144 0.834956 0.412889
O O7 0.625137 0.656915 0.250000
O O8 0.799381 0.592231 0.329695
O O9 0.500000 0.017910 0.122279
O O10 0.728981 0.961316 0.124505
O O11 0.675827 0.069119 0.021133
#
# Coordination Sequence:
#
# PCOD8261055 Si02
#       7
#     8   4   8   8   4  16  16
#     4  12  26  40  64  98 132 170 204 262 326 366
#     4  12  24  44  64  92 132 170 216 248 308 408
#     4  12  22  44  64  90 134 174 208 252 312 386
#     4  12  24  42  67  91 127 167 212 263 317 369
#     4  12  28  40  62 102 130 164 212 262 314 382
#     4  11  21  42  68  91 121 167 218 263 308 381
#     4  11  23  41  67  93 125 165 214 261 315 375
#
# _framework density 20.245594000000001
#
# number of rings (size 3 to 8) (size 9 to 14) (size 15 to 20)
#    0.000    0.500    3.750    6.000    0.000    5.000 
#    0.000    0.000    0.000    0.000    0.000    0.000 
#    0.000    0.000    0.000    0.000    0.000    0.000 
#
# Total GULP energy -396736.477738 kJ/mol
# GULP energy per Si atom -12398.014929 kJ/mol
# Density = 2.019951 g / cm^3
# Si number density = 20.245594 Si / 1000 Ang^3
#
#
#
# Elastic Constant Matrix: (Units=GPa)
#
#
# Indices 1 2 3 4 5 6 
#
# 1 134.6215 36.0869 2.1998 0.0000 0.0000 0.0000
# 2 36.0869 97.9848 29.4426 0.0000 0.0000 0.0000
# 3 2.1998 29.4426 82.8642 0.0000 0.0000 0.0000
# 4 0.0000 0.0000 0.0000 99.5979 0.0000 0.0000
# 5 0.0000 0.0000 0.0000 0.0000 21.1274 0.0000
# 6 0.0000 0.0000 0.0000 0.0000 0.0000 8.1820
#
#
#
# Elastic Compliance Matrix: (Units=1/GPa)
#
#
# Indices 1 2 3 4 5 6 
#
# 1 0.008311 -0.003353 0.000971 0.000000 0.000000 0.000000
# 2 -0.003353 0.012778 -0.004451 0.000000 0.000000 0.000000
# 3 0.000971 -0.004451 0.013624 0.000000 0.000000 0.000000
# 4 0.000000 0.000000 0.000000 0.010040 0.000000 0.000000
# 5 0.000000 0.000000 0.000000 0.000000 0.047332 0.000000
# 6 0.000000 0.000000 0.000000 0.000000 0.000000 0.122220
#
#
# Mechanical properties :
#
#
# Convention : Reuss Voigt Hill
#
# Bulk Modulus (GPa) = 47.51395 50.10322 48.80859
# Shear Modulus (GPa) = 21.27780 42.29753 31.78767
#
# Velocity S-wave (km/s) = 3.24541 4.57576 3.96675
# Velocity P-wave (km/s) = 6.12889 7.26073 6.71869
#
# Compressibility (1/GPa) = 0.02104645
#
# Stress axis : x y z
#
# Youngs Moduli (GPa) = 120.32161 78.26040 73.40143
#
# Poissons Ratio (x) = 0.26237 -0.07124
# Poissons Ratio (y) = 0.40338 0.32672
# Poissons Ratio (z) = -0.11678 0.34835
#
# Static dielectric constant tensor:
#      x y z
#    x 3.677910 0.000000 0.000000 
#    y 0.000000 4.168410 0.000000 
#    z 0.000000 0.000000 3.603210 
# 
# 
# High freq. dielectric constant tensor:
#      x y z
#    x 1.800190 0.000000 0.000000 
#    y 0.000000 1.814180 0.000000 
#    z 0.000000 0.000000 1.795940 
# 
# From -- ./inp_files/41825.got.cif
#   From: 2010.03.12/outbox.cif.g09.slc.cpg/sg63_21_cif.got.tgz:41825.got - 2010.04.10 19:34:48.
