data_PCOD8261444
_publ_section_title
;
Structure prediction by ZEFSAII (Michael W. Deem and Ramdas Pophale) SiO2 
 PCOD8261444
Probable space group: C M C A
;
_chemical_formula_sum "Si O2"
_cell_formula_units_Z 64
_cell_length_a 17.820037
_cell_length_b 16.174967
_cell_length_c 11.228072
_cell_angle_alpha 90.000000
_cell_angle_beta 90.000000
_cell_angle_gamma 90.000000
_cell_volume 3236.362748
_symmetry_space_group_name_H-M "C M C A"
_symmetry_group_IT_number 64
_symmetry_cell_setting 'orthorhombic'
loop_
_space_group_symop_operation_xyz
x,y,z
-x,1/2-y,1/2+z
x,-y,-z
-x,1/2+y,1/2-z
-x,-y,-z
x,1/2+y,1/2-z
-x,y,z
x,1/2-y,1/2+z
1/2+x,1/2+y,z
1/2-x,-y,1/2+z
1/2+x,1/2-y,-z
1/2-x,y,1/2-z
1/2-x,1/2-y,-z
1/2+x,y,1/2-z
1/2-x,1/2+y,z
1/2+x,-y,1/2+z
loop_
_atom_site_type_symbol
_atom_site_label
_atom_site_fract_x
_atom_site_fract_y
_atom_site_fract_z
Si Si1 0.500000 0.833422 0.430192
Si Si2 0.375808 0.713605 0.355341
Si Si3 0.750000 0.171677 0.750000
Si Si4 0.344068 0.911635 0.053724
Si Si5 0.000000 0.875171 0.326529
Si Si6 0.000000 0.321423 0.686071
O O1 0.427193 0.776059 0.428723
O O2 0.500000 0.896079 0.316795
O O3 0.500000 0.874608 0.562707
O O4 0.316576 0.768256 0.286078
O O5 0.336111 0.653030 0.446773
O O6 0.425361 0.658923 0.262450
O O7 0.720776 0.111589 0.853413
O O8 0.426681 0.913780 0.112652
O O9 0.324683 0.000000 0.000000
O O10 0.000000 0.776747 0.341490
#
# Coordination Sequence:
#
# PCOD8261444 Si02
#       6
#     8  16   8  16   8   8
#     4  10  16  34  61  91 114 148 209 257 288 340
#     4  10  20  36  62  87 118 156 209 245 299 364
#     4  12  22  40  60  88 120 168 208 244 302 368
#     4  12  24  39  62  91 126 158 199 257 311 360
#     4  10  18  36  59  87 114 160 196 250 301 359
#     4  10  17  34  64  95 114 147 212 256 290 342
#
# _framework density 19.775285
#
# number of rings (size 3 to 8) (size 9 to 14) (size 15 to 20)
#    0.000    1.500    7.500    1.875    0.000    1.000 
#    0.000    0.000    0.000    1.500    0.000    0.875 
#    0.000    0.000    0.000    0.000    0.000    0.000 
#
# Total GULP energy -396698.942954 kJ/mol
# GULP energy per Si atom -12396.841967 kJ/mol
# Density = 1.973028 g / cm^3
# Si number density = 19.775285 Si / 1000 Ang^3
#
#
#
# Elastic Constant Matrix: (Units=GPa)
#
#
# Indices 1 2 3 4 5 6 
#
# 1 77.2239 24.3863 30.7021 0.0000 0.0000 0.0000
# 2 24.3863 71.7346 39.4450 0.0000 0.0000 0.0000
# 3 30.7021 39.4450 151.7723 0.0000 0.0000 0.0000
# 4 0.0000 0.0000 0.0000 29.9962 0.0000 0.0000
# 5 0.0000 0.0000 0.0000 0.0000 20.5835 0.0000
# 6 0.0000 0.0000 0.0000 0.0000 0.0000 11.2837
#
#
#
# Elastic Compliance Matrix: (Units=1/GPa)
#
#
# Indices 1 2 3 4 5 6 
#
# 1 0.015007 -0.004005 -0.001995 0.000000 0.000000 0.000000
# 2 -0.004005 0.017333 -0.003695 0.000000 0.000000 0.000000
# 3 -0.001995 -0.003695 0.007953 0.000000 0.000000 0.000000
# 4 0.000000 0.000000 0.000000 0.033338 0.000000 0.000000
# 5 0.000000 0.000000 0.000000 0.000000 0.048583 0.000000
# 6 0.000000 0.000000 0.000000 0.000000 0.000000 0.088623
#
#
# Mechanical properties :
#
#
# Convention : Reuss Voigt Hill
#
# Bulk Modulus (GPa) = 47.83724 54.42196 51.12960
# Shear Modulus (GPa) = 21.07983 26.11917 23.59950
#
# Velocity S-wave (km/s) = 3.26846 3.63822 3.45829
# Velocity P-wave (km/s) = 6.20377 6.72524 6.46976
#
# Compressibility (1/GPa) = 0.02090421
#
# Stress axis : x y z
#
# Youngs Moduli (GPa) = 66.63487 57.69234 125.74440
#
# Poissons Ratio (x) = 0.23104 0.25086
# Poissons Ratio (y) = 0.26685 0.46459
# Poissons Ratio (z) = 0.13294 0.21316
#
# Static dielectric constant tensor:
#      x y z
#    x 3.422380 0.000000 0.000000 
#    y 0.000000 3.128130 0.000000 
#    z 0.000000 0.000000 4.034920 
# 
# 
# High freq. dielectric constant tensor:
#      x y z
#    x 1.773550 0.000000 0.000000 
#    y 0.000000 1.722000 0.000000 
#    z 0.000000 0.000000 1.795150 
# 
# From -- ./inp_files/15593.got.cif
#   From: 2010.03.12/outbox.cif.g09.slc.cpg/sg64_8_cif.got.tgz:15593.got - 2010.04.10 20:19:32.
