data_PCOD8261587
_publ_section_title
;
Structure prediction by ZEFSAII (Michael W. Deem and Ramdas Pophale) SiO2 
 PCOD8261587
Probable space group: C M C A
;
_chemical_formula_sum "Si O2"
_cell_formula_units_Z 96
_cell_length_a 9.369959
_cell_length_b 23.517491
_cell_length_c 25.630410
_cell_angle_alpha 90.000000
_cell_angle_beta 90.000000
_cell_angle_gamma 90.000000
_cell_volume 5647.864002
_symmetry_space_group_name_H-M "C M C A"
_symmetry_group_IT_number 64
_symmetry_cell_setting 'orthorhombic'
loop_
_space_group_symop_operation_xyz
x,y,z
-x,1/2-y,1/2+z
x,-y,-z
-x,1/2+y,1/2-z
-x,-y,-z
x,1/2+y,1/2-z
-x,y,z
x,1/2-y,1/2+z
1/2+x,1/2+y,z
1/2-x,-y,1/2+z
1/2+x,1/2-y,-z
1/2-x,y,1/2-z
1/2-x,1/2-y,-z
1/2+x,y,1/2-z
1/2-x,1/2+y,z
1/2+x,-y,1/2+z
loop_
_atom_site_type_symbol
_atom_site_label
_atom_site_fract_x
_atom_site_fract_y
_atom_site_fract_z
Si Si1 0.168574 0.237900 0.052884
Si Si2 0.162789 0.178830 0.645004
Si Si3 0.654620 0.259097 0.706696
Si Si4 0.657418 0.347324 0.616523
Si Si5 0.663530 0.431737 0.300647
Si Si6 0.668298 0.439838 0.697198
O O1 0.202695 0.292728 0.089494
O O2 0.228993 0.177748 0.075204
O O3 0.000000 0.230630 0.043362
O O4 0.250000 0.250000 0.000000
O O5 0.261414 0.202592 0.690753
O O6 0.186808 0.110438 0.649350
O O7 0.000000 0.195079 0.657435
O O8 0.500000 0.242090 0.729517
O O9 0.750000 0.291188 0.750000
O O10 0.633422 0.299162 0.658458
O O11 0.500000 0.359634 0.590873
O O12 0.717607 0.402874 0.646805
O O13 0.500000 0.431322 0.283012
O O14 0.750000 0.411495 0.250000
O O15 0.707917 0.495353 0.317664
O O16 0.500000 0.430100 0.706932
O O17 0.750000 0.421318 0.750000
#
# Coordination Sequence:
#
# PCOD8261587 Si02
#       6
#    16  16  16  16  16  16
#     4  10  20  34  52  71  90 114 147 191 240 285
#     4   9  18  31  46  65  89 117 150 187 227 272
#     4  10  18  26  39  61  90 120 148 180 219 264
#     4   9  18  31  46  66  91 119 151 186 224 267
#     4   9  17  29  45  67  95 126 157 185 216 258
#     4   9  17  29  46  68  96 128 158 187 218 258
#
# _framework density 16.997577
#
# number of rings (size 3 to 8) (size 9 to 14) (size 15 to 20)
#    0.000    2.667    0.000    2.000    0.000    4.000 
#    0.000    0.000    0.000    1.000    0.000    7.000 
#    0.000    0.000    0.000    0.000    0.000    0.000 
#
# Total GULP energy -594677.433062 kJ/mol
# GULP energy per Si atom -12389.113189 kJ/mol
# Density = 1.695889 g / cm^3
# Si number density = 16.997577 Si / 1000 Ang^3
#
#
#
# Elastic Constant Matrix: (Units=GPa)
#
#
# Indices 1 2 3 4 5 6 
#
# 1 91.2476 31.0853 45.2447 0.0000 0.0000 0.0000
# 2 31.0853 99.3379 42.2996 0.0000 0.0000 0.0000
# 3 45.2447 42.2996 76.6191 0.0000 0.0000 0.0000
# 4 0.0000 0.0000 0.0000 22.4169 0.0000 0.0000
# 5 0.0000 0.0000 0.0000 0.0000 27.8764 0.0000
# 6 0.0000 0.0000 0.0000 0.0000 0.0000 18.5104
#
#
#
# Elastic Compliance Matrix: (Units=1/GPa)
#
#
# Indices 1 2 3 4 5 6 
#
# 1 0.015615 -0.001255 -0.008528 0.000000 0.000000 0.000000
# 2 -0.001255 0.013261 -0.006580 0.000000 0.000000 0.000000
# 3 -0.008528 -0.006580 0.021720 0.000000 0.000000 0.000000
# 4 0.000000 0.000000 0.000000 0.044609 0.000000 0.000000
# 5 0.000000 0.000000 0.000000 0.000000 0.035873 0.000000
# 6 0.000000 0.000000 0.000000 0.000000 0.000000 0.054024
#
#
# Mechanical properties :
#
#
# Convention : Reuss Voigt Hill
#
# Bulk Modulus (GPa) = 55.95890 56.05155 56.00522
# Shear Modulus (GPa) = 22.34274 23.66573 23.00424
#
# Velocity S-wave (km/s) = 3.62949 3.73540 3.68283
# Velocity P-wave (km/s) = 7.11037 7.18694 7.14876
#
# Compressibility (1/GPa) = 0.01787026
#
# Stress axis : x y z
#
# Youngs Moduli (GPa) = 64.03918 75.40731 46.03966
#
# Poissons Ratio (x) = 0.09464 0.39264
# Poissons Ratio (y) = 0.08037 0.30295
# Poissons Ratio (z) = 0.54614 0.49619
#
# Static dielectric constant tensor:
#      x y z
#    x 3.877760 0.000000 0.000000 
#    y 0.000000 3.374020 0.000000 
#    z 0.000000 0.000000 3.054140 
# 
# 
# High freq. dielectric constant tensor:
#      x y z
#    x 1.665260 0.000000 0.000000 
#    y 0.000000 1.651160 0.000000 
#    z 0.000000 0.000000 1.621290 
# 
# From -- ./inp_files/43191.got.cif
#   From: 2010.03.12/outbox.cif.g09.slc.cpg/sg64_22_cif.got.tgz:43191.got - 2010.04.10 20:19:32.
