data_PCOD8261183
_publ_section_title
;
Structure prediction by ZEFSAII (Michael W. Deem and Ramdas Pophale) SiO2 
 PCOD8261183
Probable space group: C M C M
;
_chemical_formula_sum "Si O2"
_cell_formula_units_Z 40
_cell_length_a 13.514201
_cell_length_b 14.083313
_cell_length_c 9.119078
_cell_angle_alpha 90.000000
_cell_angle_beta 90.000000
_cell_angle_gamma 90.000000
_cell_volume 1735.585991
_symmetry_space_group_name_H-M "C M C M"
_symmetry_group_IT_number 63
_symmetry_cell_setting 'orthorhombic'
loop_
_space_group_symop_operation_xyz
x,y,z
-x,-y,1/2+z
x,-y,-z
-x,y,1/2-z
-x,-y,-z
x,y,1/2-z
-x,y,z
x,-y,1/2+z
1/2+x,1/2+y,z
1/2-x,1/2-y,1/2+z
1/2+x,1/2-y,-z
1/2-x,1/2+y,1/2-z
1/2-x,1/2-y,-z
1/2+x,1/2+y,1/2-z
1/2-x,1/2+y,z
1/2+x,1/2-y,1/2+z
loop_
_atom_site_type_symbol
_atom_site_label
_atom_site_fract_x
_atom_site_fract_y
_atom_site_fract_z
Si Si1 0.196474 0.335293 0.416178
Si Si2 0.500000 0.811669 0.924338
Si Si3 0.500000 0.373030 0.596159
Si Si4 0.168623 0.000000 0.000000
O O1 0.173410 0.302683 0.250000
O O2 0.250000 0.250000 0.500000
O O3 0.096151 0.359992 0.503955
O O4 0.262924 0.429328 0.406762
O O5 0.500000 0.826293 0.750000
O O6 0.500000 0.698630 0.959223
O O7 0.500000 0.315213 0.750000
O O8 0.402353 0.437747 0.602507
#
# Coordination Sequence:
#
# PCOD8261183 Si02
#       4
#    16   8   8   8
#     4  12  26  46  73 106 146 188 236 294 358 422
#     4  12  27  46  71 104 144 190 239 291 354 425
#     4  11  23  43  73 106 140 180 237 298 354 417
#     4  11  26  43  74 108 146 183 240 291 358 422
#
# _framework density 23.046970999999999
#
# number of rings (size 3 to 8) (size 9 to 14) (size 15 to 20)
#    0.000    0.400    4.000    4.200    0.000    8.800 
#    0.000    0.000    0.000    0.000    0.000    0.000 
#    0.000    0.000    0.000    0.000    0.000    0.000 
#
# Total GULP energy -247941.205896 kJ/mol
# GULP energy per Si atom -12397.060295 kJ/mol
# Density = 2.299451 g / cm^3
# Si number density = 23.046971 Si / 1000 Ang^3
#
#
#
# Elastic Constant Matrix: (Units=GPa)
#
#
# Indices 1 2 3 4 5 6 
#
# 1 183.3285 46.6998 59.6279 0.0000 0.0000 0.0000
# 2 46.6998 92.8002 19.6035 0.0000 0.0000 0.0000
# 3 59.6279 19.6035 198.2612 0.0000 0.0000 0.0000
# 4 0.0000 0.0000 0.0000 21.1652 0.0000 0.0000
# 5 0.0000 0.0000 0.0000 0.0000 4.4602 0.0000
# 6 0.0000 0.0000 0.0000 0.0000 0.0000 56.7862
#
#
#
# Elastic Compliance Matrix: (Units=1/GPa)
#
#
# Indices 1 2 3 4 5 6 
#
# 1 0.006799 -0.003053 -0.001743 0.000000 0.000000 0.000000
# 2 -0.003053 0.012377 -0.000305 0.000000 0.000000 0.000000
# 3 -0.001743 -0.000305 0.005598 0.000000 0.000000 0.000000
# 4 0.000000 0.000000 0.000000 0.047247 0.000000 0.000000
# 5 0.000000 0.000000 0.000000 0.000000 0.224205 0.000000
# 6 0.000000 0.000000 0.000000 0.000000 0.000000 0.017610
#
#
# Mechanical properties :
#
#
# Convention : Reuss Voigt Hill
#
# Bulk Modulus (GPa) = 68.63065 80.69471 74.66268
# Shear Modulus (GPa) = 15.20228 39.71290 27.45759
#
# Velocity S-wave (km/s) = 2.57110 4.15556 3.45537
# Velocity P-wave (km/s) = 6.21750 7.62326 6.95598
#
# Compressibility (1/GPa) = 0.01457075
#
# Stress axis : x y z
#
# Youngs Moduli (GPa) = 147.07104 80.79524 178.62629
#
# Poissons Ratio (x) = 0.24671 0.31135
# Poissons Ratio (y) = 0.44908 0.05456
# Poissons Ratio (z) = 0.25635 0.02468
#
# Static dielectric constant tensor:
#      x y z
#    x 4.696970 0.000000 0.000000 
#    y 0.000000 4.025520 0.000000 
#    z 0.000000 0.000000 3.839220 
# 
# 
# High freq. dielectric constant tensor:
#      x y z
#    x 1.935520 0.000000 0.000000 
#    y 0.000000 1.899100 0.000000 
#    z 0.000000 0.000000 1.909800 
# 
# From -- ./inp_files/3527.got.cif
#   From: 2010.03.12/outbox.cif.g09.slc.cpg/sg63_2_cif.got.tgz:3527.got - 2010.04.10 19:34:48.
