data_PCOD8261546
_publ_section_title
;
Structure prediction by ZEFSAII (Michael W. Deem and Ramdas Pophale) SiO2 
 PCOD8261546
Probable space group: C M C A
;
_chemical_formula_sum "Si O2"
_cell_formula_units_Z 128
_cell_length_a 26.899661
_cell_length_b 22.832714
_cell_length_c 10.813533
_cell_angle_alpha 90.000000
_cell_angle_beta 90.000000
_cell_angle_gamma 90.000000
_cell_volume 6641.588340
_symmetry_space_group_name_H-M "C M C A"
_symmetry_group_IT_number 64
_symmetry_cell_setting 'orthorhombic'
loop_
_space_group_symop_operation_xyz
x,y,z
-x,1/2-y,1/2+z
x,-y,-z
-x,1/2+y,1/2-z
-x,-y,-z
x,1/2+y,1/2-z
-x,y,z
x,1/2-y,1/2+z
1/2+x,1/2+y,z
1/2-x,-y,1/2+z
1/2+x,1/2-y,-z
1/2-x,y,1/2-z
1/2-x,1/2-y,-z
1/2+x,y,1/2-z
1/2-x,1/2+y,z
1/2+x,-y,1/2+z
loop_
_atom_site_type_symbol
_atom_site_label
_atom_site_fract_x
_atom_site_fract_y
_atom_site_fract_z
Si Si1 0.800159 0.876827 0.073664
Si Si2 0.309885 0.409063 0.432720
Si Si3 0.445269 0.436300 0.537118
Si Si4 0.635403 0.038341 0.699360
Si Si5 0.056283 0.620371 0.778010
Si Si6 0.696806 0.685489 0.187627
Si Si7 0.355137 0.079531 0.186170
Si Si8 0.152021 0.690360 0.793762
O O1 0.748360 0.909646 0.092030
O O2 0.839996 0.930729 0.078930
O O3 0.812041 0.831601 0.183443
O O4 0.797823 0.839652 0.949191
O O5 0.336578 0.443678 0.324138
O O6 0.322635 0.438409 0.565050
O O7 0.331626 0.342514 0.420857
O O8 0.423404 0.500000 0.500000
O O9 0.500000 0.444806 0.593709
O O10 0.446255 0.392350 0.422977
O O11 0.411398 0.408457 0.643387
O O12 0.578526 0.062448 0.708514
O O13 0.641838 0.968140 0.702031
O O14 0.094103 0.675491 0.758894
O O15 0.000000 0.633815 0.728636
O O16 0.750000 0.699539 0.250000
O O17 0.668464 0.638370 0.267196
O O18 0.660845 0.741416 0.185041
#
# Coordination Sequence:
#
# PCOD8261546 Si02
#       8
#    16  16  16  16  16  16  16  16
#     4  10  22  40  54  81 115 157 203 237 293 360
#     4  10  18  36  57  80 113 151 198 242 291 340
#     4  10  17  31  59  91 117 142 184 248 299 346
#     4  10  20  35  58  85 120 157 184 247 300 351
#     4   9  17  33  61  92 113 145 193 244 310 354
#     4  12  26  38  56  83 113 167 207 243 288 346
#     4  12  21  35  54  89 122 150 194 246 295 352
#     4  10  22  37  61  83 113 154 196 261 297 344
#
# _framework density 19.272497999999999
#
# number of rings (size 3 to 8) (size 9 to 14) (size 15 to 20)
#    0.000    1.875    5.000    2.625    1.750    2.500 
#    2.250    0.625    0.000    7.500    0.000    4.375 
#    0.000    0.000    0.000    0.000    0.000    0.000 
#
# Total GULP energy -792943.360705 kJ/mol
# GULP energy per Si atom -12389.740011 kJ/mol
# Density = 1.922863 g / cm^3
# Si number density = 19.272498 Si / 1000 Ang^3
#
#
#
# Elastic Constant Matrix: (Units=GPa)
#
#
# Indices 1 2 3 4 5 6 
#
# 1 142.8270 35.1666 17.3268 0.0000 0.0000 0.0000
# 2 35.1666 60.0570 9.5283 0.0000 0.0000 0.0000
# 3 17.3268 9.5283 52.9054 0.0000 0.0000 0.0000
# 4 0.0000 0.0000 0.0000 19.9904 0.0000 0.0000
# 5 0.0000 0.0000 0.0000 0.0000 18.8470 0.0000
# 6 0.0000 0.0000 0.0000 0.0000 0.0000 22.7216
#
#
#
# Elastic Compliance Matrix: (Units=1/GPa)
#
#
# Indices 1 2 3 4 5 6 
#
# 1 0.008365 -0.004595 -0.001912 0.000000 0.000000 0.000000
# 2 -0.004595 0.019664 -0.002037 0.000000 0.000000 0.000000
# 3 -0.001912 -0.002037 0.019895 0.000000 0.000000 0.000000
# 4 0.000000 0.000000 0.000000 0.050024 0.000000 0.000000
# 5 0.000000 0.000000 0.000000 0.000000 0.053059 0.000000
# 6 0.000000 0.000000 0.000000 0.000000 0.000000 0.044011
#
#
# Mechanical properties :
#
#
# Convention : Reuss Voigt Hill
#
# Bulk Modulus (GPa) = 32.42864 42.20364 37.31614
# Shear Modulus (GPa) = 22.48370 25.22965 23.85667
#
# Velocity S-wave (km/s) = 3.41929 3.62208 3.52214
# Velocity P-wave (km/s) = 5.69663 6.28001 5.99542
#
# Compressibility (1/GPa) = 0.03083694
#
# Stress axis : x y z
#
# Youngs Moduli (GPa) = 119.54977 50.85332 50.26467
#
# Poissons Ratio (x) = 0.23365 0.09611
# Poissons Ratio (y) = 0.54929 0.10238
# Poissons Ratio (z) = 0.22858 0.10358
#
# Static dielectric constant tensor:
#      x y z
#    x 3.825120 0.000000 0.000000 
#    y 0.000000 3.635800 0.000000 
#    z 0.000000 0.000000 3.472490 
# 
# 
# High freq. dielectric constant tensor:
#      x y z
#    x 1.753390 0.000000 0.000000 
#    y 0.000000 1.734960 0.000000 
#    z 0.000000 0.000000 1.727100 
# 
# From -- ./inp_files/19419.got.cif
#   From: 2010.03.12/outbox.cif.g09.slc.cpg/sg64_10_cif.got.tgz:19419.got - 2010.04.10 20:19:32.
