data_PCOD8261681
_publ_section_title
;
Structure prediction by ZEFSAII (Michael W. Deem and Ramdas Pophale) SiO2 
 PCOD8261681
Probable space group: C M C A
;
_chemical_formula_sum "Si O2"
_cell_formula_units_Z 96
_cell_length_a 8.952901
_cell_length_b 30.181267
_cell_length_c 20.086520
_cell_angle_alpha 90.000000
_cell_angle_beta 90.000000
_cell_angle_gamma 90.000000
_cell_volume 5427.576470
_symmetry_space_group_name_H-M "C M C A"
_symmetry_group_IT_number 64
_symmetry_cell_setting 'orthorhombic'
loop_
_space_group_symop_operation_xyz
x,y,z
-x,1/2-y,1/2+z
x,-y,-z
-x,1/2+y,1/2-z
-x,-y,-z
x,1/2+y,1/2-z
-x,y,z
x,1/2-y,1/2+z
1/2+x,1/2+y,z
1/2-x,-y,1/2+z
1/2+x,1/2-y,-z
1/2-x,y,1/2-z
1/2-x,1/2-y,-z
1/2+x,y,1/2-z
1/2-x,1/2+y,z
1/2+x,-y,1/2+z
loop_
_atom_site_type_symbol
_atom_site_label
_atom_site_fract_x
_atom_site_fract_y
_atom_site_fract_z
Si Si1 0.327520 0.629844 0.105573
Si Si2 0.175574 0.541653 0.320195
Si Si3 0.331396 0.698147 0.567043
Si Si4 0.176185 0.979948 0.428832
Si Si5 0.324208 0.110360 0.544903
Si Si6 0.667663 0.216531 0.089113
O O1 0.500000 0.643345 0.104989
O O2 0.290097 0.592178 0.159088
O O3 0.236090 0.673656 0.125737
O O4 0.281398 0.611865 0.032964
O O5 0.250000 0.531879 0.250000
O O6 0.245749 0.508848 0.373096
O O7 0.000000 0.532767 0.316356
O O8 0.500000 0.690299 0.592063
O O9 0.232536 0.654750 0.581571
O O10 0.328504 0.708676 0.489313
O O11 0.261675 0.739572 0.607155
O O12 0.238129 0.930432 0.422283
O O13 0.000000 0.979954 0.417276
O O14 0.220513 0.000000 0.500000
O O15 0.500000 0.105027 0.556227
O O16 0.500000 0.223361 0.115106
#
# Coordination Sequence:
#
# PCOD8261681 Si02
#       6
#    16  16  16  16  16  16
#     4   9  18  31  48  70  99 135 171 210 260 314
#     4  11  23  39  56  77 106 141 180 223 272 323
#     4   9  16  26  40  64  99 133 166 206 254 304
#     4  11  22  35  54  79 106 138 179 224 271 324
#     4  10  18  30  49  73 102 135 174 216 264 316
#     4   9  16  25  41  65  95 131 168 205 249 301
#
# _framework density 17.687453000000001
#
# number of rings (size 3 to 8) (size 9 to 14) (size 15 to 20)
#    0.000    2.167    1.667    2.500    0.000    6.667 
#    0.000    0.000    0.000    0.000    0.000    1.167 
#    0.000    2.667    0.000    0.000    0.000    0.000 
#
# Total GULP energy -595285.157678 kJ/mol
# GULP energy per Si atom -12401.774118 kJ/mol
# Density = 1.764720 g / cm^3
# Si number density = 17.687453 Si / 1000 Ang^3
#
#
#
# Elastic Constant Matrix: (Units=GPa)
#
#
# Indices 1 2 3 4 5 6 
#
# 1 109.8659 70.0697 45.0211 0.0000 0.0000 0.0000
# 2 70.0697 133.2023 46.6123 0.0000 0.0000 0.0000
# 3 45.0211 46.6123 68.6096 0.0000 0.0000 0.0000
# 4 0.0000 0.0000 0.0000 15.4883 0.0000 0.0000
# 5 0.0000 0.0000 0.0000 0.0000 18.6899 0.0000
# 6 0.0000 0.0000 0.0000 0.0000 0.0000 39.6501
#
#
#
# Elastic Compliance Matrix: (Units=1/GPa)
#
#
# Indices 1 2 3 4 5 6 
#
# 1 0.015392 -0.005985 -0.006034 0.000000 0.000000 0.000000
# 2 -0.005985 0.012176 -0.004345 0.000000 0.000000 0.000000
# 3 -0.006034 -0.004345 0.021486 0.000000 0.000000 0.000000
# 4 0.000000 0.000000 0.000000 0.064565 0.000000 0.000000
# 5 0.000000 0.000000 0.000000 0.000000 0.053505 0.000000
# 6 0.000000 0.000000 0.000000 0.000000 0.000000 0.025221
#
#
# Mechanical properties :
#
#
# Convention : Reuss Voigt Hill
#
# Bulk Modulus (GPa) = 61.24930 70.56489 65.90709
# Shear Modulus (GPa) = 21.69061 24.76398 23.22730
#
# Velocity S-wave (km/s) = 3.50570 3.74583 3.62775
# Velocity P-wave (km/s) = 7.14775 7.66097 7.40881
#
# Compressibility (1/GPa) = 0.01632672
#
# Stress axis : x y z
#
# Youngs Moduli (GPa) = 64.96990 82.12663 46.54134
#
# Poissons Ratio (x) = 0.49155 0.28081
# Poissons Ratio (y) = 0.38886 0.20222
# Poissons Ratio (z) = 0.39200 0.35683
#
# Static dielectric constant tensor:
#      x y z
#    x 3.423840 0.000000 0.000000 
#    y 0.000000 4.854110 0.000000 
#    z 0.000000 0.000000 2.688430 
# 
# 
# High freq. dielectric constant tensor:
#      x y z
#    x 1.701210 0.000000 0.000000 
#    y 0.000000 1.700020 0.000000 
#    z 0.000000 0.000000 1.618590 
# 
# From -- ./inp_files/37016.got.cif
#   From: 2010.03.12/outbox.cif.g09.slc.cpg/sg64_19_cif.got.tgz:37016.got - 2010.04.10 20:19:32.
