data_PCOD8261614
_publ_section_title
;
Structure prediction by ZEFSAII (Michael W. Deem and Ramdas Pophale) SiO2 
 PCOD8261614
Probable space group: C M C A
;
_chemical_formula_sum "Si O2"
_cell_formula_units_Z 96
_cell_length_a 9.181007
_cell_length_b 19.413052
_cell_length_c 30.830749
_cell_angle_alpha 90.000000
_cell_angle_beta 90.000000
_cell_angle_gamma 90.000000
_cell_volume 5495.006518
_symmetry_space_group_name_H-M "C M C A"
_symmetry_group_IT_number 64
_symmetry_cell_setting 'orthorhombic'
loop_
_space_group_symop_operation_xyz
x,y,z
-x,1/2-y,1/2+z
x,-y,-z
-x,1/2+y,1/2-z
-x,-y,-z
x,1/2+y,1/2-z
-x,y,z
x,1/2-y,1/2+z
1/2+x,1/2+y,z
1/2-x,-y,1/2+z
1/2+x,1/2-y,-z
1/2-x,y,1/2-z
1/2-x,1/2-y,-z
1/2+x,y,1/2-z
1/2-x,1/2+y,z
1/2+x,-y,1/2+z
loop_
_atom_site_type_symbol
_atom_site_label
_atom_site_fract_x
_atom_site_fract_y
_atom_site_fract_z
Si Si1 0.671462 0.640712 0.891290
Si Si2 0.330848 0.317993 0.015109
Si Si3 0.169469 0.785989 0.637147
Si Si4 0.828714 0.494184 0.637796
Si Si5 0.172963 0.899058 0.704178
Si Si6 0.665303 0.122652 0.426708
O O1 0.500000 0.630385 0.895470
O O2 0.712222 0.705133 0.859895
O O3 0.734078 0.570897 0.870255
O O4 0.734719 0.653587 0.939649
O O5 0.500000 0.299152 0.020961
O O6 0.308412 0.377365 0.978511
O O7 0.250000 0.250000 0.000000
O O8 0.215816 0.827354 0.680283
O O9 0.240635 0.817053 0.594340
O O10 0.000000 0.794293 0.629224
O O11 0.736782 0.463058 0.677345
O O12 0.796617 0.451600 0.593679
O O13 0.000000 0.493213 0.649891
O O14 0.250000 0.896762 0.750000
O O15 0.000000 0.907835 0.709442
O O16 0.500000 0.141751 0.415551
#
# Coordination Sequence:
#
# PCOD8261614 Si02
#       6
#    16  16  16  16  16  16
#     4   9  17  30  49  72 100 135 167 201 246 290
#     4  10  18  28  45  70  99 134 175 211 244 280
#     4   9  17  31  51  72  96 127 162 197 240 292
#     4   9  18  33  51  72 102 134 164 202 248 295
#     4  10  20  35  56  77  96 122 158 198 242 299
#     4   9  17  28  45  71  98 130 171 210 241 277
#
# _framework density 17.470407000000002
#
# number of rings (size 3 to 8) (size 9 to 14) (size 15 to 20)
#    0.000    2.667    1.667    0.500    0.000    1.333 
#    0.000    5.833    0.000    2.000    0.000    5.833 
#    0.000    0.000    0.000    0.000    0.000    0.000 
#
# Total GULP energy -594966.508202 kJ/mol
# GULP energy per Si atom -12395.135588 kJ/mol
# Density = 1.743064 g / cm^3
# Si number density = 17.470407 Si / 1000 Ang^3
#
#
#
# Elastic Constant Matrix: (Units=GPa)
#
#
# Indices 1 2 3 4 5 6 
#
# 1 41.0603 36.7515 40.0046 0.0000 0.0000 0.0000
# 2 36.7515 149.1606 74.1520 0.0000 0.0000 0.0000
# 3 40.0046 74.1520 134.8156 0.0000 0.0000 0.0000
# 4 0.0000 0.0000 0.0000 19.2511 0.0000 0.0000
# 5 0.0000 0.0000 0.0000 0.0000 21.1162 0.0000
# 6 0.0000 0.0000 0.0000 0.0000 0.0000 21.0154
#
#
#
# Elastic Compliance Matrix: (Units=1/GPa)
#
#
# Indices 1 2 3 4 5 6 
#
# 1 0.036788 -0.005006 -0.008163 0.000000 0.000000 0.000000
# 2 -0.005006 0.009908 -0.003964 0.000000 0.000000 0.000000
# 3 -0.008163 -0.003964 0.012020 0.000000 0.000000 0.000000
# 4 0.000000 0.000000 0.000000 0.051945 0.000000 0.000000
# 5 0.000000 0.000000 0.000000 0.000000 0.047357 0.000000
# 6 0.000000 0.000000 0.000000 0.000000 0.000000 0.047584
#
#
# Mechanical properties :
#
#
# Convention : Reuss Voigt Hill
#
# Bulk Modulus (GPa) = 40.89968 69.65031 55.27499
# Shear Modulus (GPa) = 20.15966 23.88511 22.02238
#
# Velocity S-wave (km/s) = 3.40064 3.70154 3.55428
# Velocity P-wave (km/s) = 6.23545 7.63038 6.96791
#
# Compressibility (1/GPa) = 0.02445007
#
# Stress axis : x y z
#
# Youngs Moduli (GPa) = 27.18261 100.92365 83.19299
#
# Poissons Ratio (x) = 0.50525 0.67909
# Poissons Ratio (y) = 0.13608 0.32981
# Poissons Ratio (z) = 0.22189 0.40010
#
# Static dielectric constant tensor:
#      x y z
#    x 3.118520 0.000000 0.000000 
#    y 0.000000 3.488570 0.000000 
#    z 0.000000 0.000000 3.311810 
# 
# 
# High freq. dielectric constant tensor:
#      x y z
#    x 1.657110 0.000000 0.000000 
#    y 0.000000 1.672600 0.000000 
#    z 0.000000 0.000000 1.668380 
# 
# From -- ./inp_files/48072.got.cif
#   From: 2010.03.12/outbox.cif.g09.slc.cpg/sg64_25_cif.got.tgz:48072.got - 2010.04.10 20:19:32.
