data_PCOD8261943
_publ_section_title
;
Structure prediction by ZEFSAII (Michael W. Deem and Ramdas Pophale) SiO2 
 PCOD8261943
Probable space group: C M C A
;
_chemical_formula_sum "Si O2"
_cell_formula_units_Z 72
_cell_length_a 16.872860
_cell_length_b 16.568960
_cell_length_c 12.575127
_cell_angle_alpha 90.000000
_cell_angle_beta 90.000000
_cell_angle_gamma 90.000000
_cell_volume 3515.574716
_symmetry_space_group_name_H-M "C M C A"
_symmetry_group_IT_number 64
_symmetry_cell_setting 'orthorhombic'
loop_
_space_group_symop_operation_xyz
x,y,z
-x,1/2-y,1/2+z
x,-y,-z
-x,1/2+y,1/2-z
-x,-y,-z
x,1/2+y,1/2-z
-x,y,z
x,1/2-y,1/2+z
1/2+x,1/2+y,z
1/2-x,-y,1/2+z
1/2+x,1/2-y,-z
1/2-x,y,1/2-z
1/2-x,1/2-y,-z
1/2+x,y,1/2-z
1/2-x,1/2+y,z
1/2+x,-y,1/2+z
loop_
_atom_site_type_symbol
_atom_site_label
_atom_site_fract_x
_atom_site_fract_y
_atom_site_fract_z
Si Si1 0.692087 0.447498 0.664696
Si Si2 0.808295 0.500000 0.500000
Si Si3 0.409144 0.094637 0.779280
Si Si4 0.163974 0.837357 0.073681
Si Si5 0.844781 0.172164 0.518522
O O1 0.750000 0.403122 0.750000
O O2 0.750352 0.507678 0.601257
O O3 0.626440 0.503910 0.720324
O O4 0.652792 0.382038 0.587996
O O5 0.859761 0.582207 0.504746
O O6 0.500000 0.086317 0.745449
O O7 0.365302 0.152065 0.694229
O O8 0.404426 0.135452 0.895254
O O9 0.123702 0.760377 0.016972
O O10 0.258264 0.823314 0.071210
#
# Coordination Sequence:
#
# PCOD8261943 Si02
#       5
#    16   8  16  16  16
#     4  11  19  37  62  88 115 149 201 250 290 342
#     4  10  18  36  66  86 112 150 196 256 282 340
#     4  12  23  38  59  86 126 162 189 238 303 366
#     4  10  21  39  63  90 114 153 204 251 295 342
#     4  10  22  38  66  90 114 152 205 255 293 346
#
# _framework density 20.480291999999999
#
# number of rings (size 3 to 8) (size 9 to 14) (size 15 to 20)
#    0.000    1.333    6.667    0.667    0.000    8.000 
#    0.000    0.556    0.000    0.000    0.000    0.000 
#    0.000    0.000    0.000    0.000    0.000    0.000 
#
# Total GULP energy -446260.083133 kJ/mol
# GULP energy per Si atom -12396.113420 kJ/mol
# Density = 2.043368 g / cm^3
# Si number density = 20.480292 Si / 1000 Ang^3
#
#
#
# Elastic Constant Matrix: (Units=GPa)
#
#
# Indices 1 2 3 4 5 6 
#
# 1 62.0888 31.1583 39.3706 0.0000 0.0000 0.0000
# 2 31.1583 158.2257 46.6737 0.0000 0.0000 0.0000
# 3 39.3706 46.6737 99.7703 0.0000 0.0000 0.0000
# 4 0.0000 0.0000 0.0000 40.9380 0.0000 0.0000
# 5 0.0000 0.0000 0.0000 0.0000 17.0821 0.0000
# 6 0.0000 0.0000 0.0000 0.0000 0.0000 12.3906
#
#
#
# Elastic Compliance Matrix: (Units=1/GPa)
#
#
# Indices 1 2 3 4 5 6 
#
# 1 0.022045 -0.002059 -0.007736 0.000000 0.000000 0.000000
# 2 -0.002059 0.007524 -0.002707 0.000000 0.000000 0.000000
# 3 -0.007736 -0.002707 0.014342 0.000000 0.000000 0.000000
# 4 0.000000 0.000000 0.000000 0.024427 0.000000 0.000000
# 5 0.000000 0.000000 0.000000 0.000000 0.058541 0.000000
# 6 0.000000 0.000000 0.000000 0.000000 0.000000 0.080707
#
#
# Mechanical properties :
#
#
# Convention : Reuss Voigt Hill
#
# Bulk Modulus (GPa) = 52.89210 61.61000 57.25105
# Shear Modulus (GPa) = 20.92995 27.60762 24.26878
#
# Velocity S-wave (km/s) = 3.20027 3.67551 3.44609
# Velocity P-wave (km/s) = 6.28789 6.93977 6.62186
#
# Compressibility (1/GPa) = 0.01890642
#
# Stress axis : x y z
#
# Youngs Moduli (GPa) = 45.36270 132.90454 69.72453
#
# Poissons Ratio (x) = 0.27367 0.53937
# Poissons Ratio (y) = 0.09341 0.18877
# Poissons Ratio (z) = 0.35091 0.35982
#
# Static dielectric constant tensor:
#      x y z
#    x 3.204680 0.000000 0.000000 
#    y 0.000000 3.814960 0.000000 
#    z 0.000000 0.000000 3.965860 
# 
# 
# High freq. dielectric constant tensor:
#      x y z
#    x 1.749980 0.000000 0.000000 
#    y 0.000000 1.806020 0.000000 
#    z 0.000000 0.000000 1.809280 
# 
# From -- ./inp_files/15767.got.cif
#   From: 2010.03.12/outbox.cif.g09.slc.cpg/sg64_8_cif.got.tgz:15767.got - 2010.04.10 20:19:32.
