data_PCOD8261820
_publ_section_title
;
Structure prediction by ZEFSAII (Michael W. Deem and Ramdas Pophale) SiO2 
 PCOD8261820
Probable space group: C M C A
;
_chemical_formula_sum "Si O2"
_cell_formula_units_Z 96
_cell_length_a 10.675347
_cell_length_b 28.958076
_cell_length_c 17.224342
_cell_angle_alpha 90.000000
_cell_angle_beta 90.000000
_cell_angle_gamma 90.000000
_cell_volume 5324.690193
_symmetry_space_group_name_H-M "C M C A"
_symmetry_group_IT_number 64
_symmetry_cell_setting 'orthorhombic'
loop_
_space_group_symop_operation_xyz
x,y,z
-x,1/2-y,1/2+z
x,-y,-z
-x,1/2+y,1/2-z
-x,-y,-z
x,1/2+y,1/2-z
-x,y,z
x,1/2-y,1/2+z
1/2+x,1/2+y,z
1/2-x,-y,1/2+z
1/2+x,1/2-y,-z
1/2-x,y,1/2-z
1/2-x,1/2-y,-z
1/2+x,y,1/2-z
1/2-x,1/2+y,z
1/2+x,-y,1/2+z
loop_
_atom_site_type_symbol
_atom_site_label
_atom_site_fract_x
_atom_site_fract_y
_atom_site_fract_z
Si Si1 0.207271 0.926592 0.505088
Si Si2 0.755858 0.287346 0.341392
Si Si3 0.357153 0.384475 0.122688
Si Si4 0.000000 0.144496 0.469875
Si Si5 0.750000 0.450781 0.250000
Si Si6 0.000000 0.276797 0.078598
Si Si7 0.862980 0.499855 0.887452
Si Si8 0.000000 0.240129 0.409184
O O1 0.331600 0.907739 0.461735
O O2 0.125854 0.884922 0.538948
O O3 0.130151 0.954082 0.439498
O O4 0.235411 0.962296 0.576387
O O5 0.750000 0.284420 0.250000
O O6 0.767841 0.340418 0.367819
O O7 0.626177 0.265969 0.373433
O O8 0.874371 0.258400 0.369882
O O9 0.500000 0.367821 0.125158
O O10 0.335124 0.419881 0.193364
O O11 0.000000 0.169064 0.554597
O O12 0.000000 0.184113 0.403162
O O13 0.834036 0.485533 0.199933
O O14 0.000000 0.245163 0.000576
O O15 0.000000 0.476347 0.888830
#
# Coordination Sequence:
#
# PCOD8261820 Si02
#       8
#    16  16  16   8   8   8  16   8
#     4  10  18  34  56  85 102 144 195 231 275 327
#     4  12  22  37  59  90 120 150 191 241 301 347
#     4  11  21  34  53  84 122 150 176 231 291 351
#     4  10  18  33  62  77 103 140 199 230 271 338
#     4  10  22  32  48  84 114 152 186 224 292 332
#     4  10  23  35  59  86 113 153 189 238 277 354
#     4  10  18  32  56  79 111 141 189 244 270 338
#     4  10  23  39  57  83 118 154 194 232 290 352
#
# _framework density 18.029218
#
# number of rings (size 3 to 8) (size 9 to 14) (size 15 to 20)
#    0.500    1.000    5.000    2.000    0.000    0.000 
#    0.000    7.500    1.833    0.000    0.000    0.000 
#    0.000    0.000    0.000    0.000    0.000    0.000 
#
# Total GULP energy -594883.047572 kJ/mol
# GULP energy per Si atom -12393.396824 kJ/mol
# Density = 1.798818 g / cm^3
# Si number density = 18.029218 Si / 1000 Ang^3
#
#
#
# Elastic Constant Matrix: (Units=GPa)
#
#
# Indices 1 2 3 4 5 6 
#
# 1 111.6143 29.4374 39.4676 0.0000 0.0000 0.0000
# 2 29.4374 81.4888 53.5012 0.0000 0.0000 0.0000
# 3 39.4676 53.5012 66.2536 0.0000 0.0000 0.0000
# 4 0.0000 0.0000 0.0000 45.1415 0.0000 0.0000
# 5 0.0000 0.0000 0.0000 0.0000 23.7323 0.0000
# 6 0.0000 0.0000 0.0000 0.0000 0.0000 9.4675
#
#
#
# Elastic Compliance Matrix: (Units=1/GPa)
#
#
# Indices 1 2 3 4 5 6 
#
# 1 0.011370 0.000723 -0.007357 0.000000 0.000000 0.000000
# 2 0.000723 0.026165 -0.021560 0.000000 0.000000 0.000000
# 3 -0.007357 -0.021560 0.036886 0.000000 0.000000 0.000000
# 4 0.000000 0.000000 0.000000 0.022153 0.000000 0.000000
# 5 0.000000 0.000000 0.000000 0.000000 0.042137 0.000000
# 6 0.000000 0.000000 0.000000 0.000000 0.000000 0.105625
#
#
# Mechanical properties :
#
#
# Convention : Reuss Voigt Hill
#
# Bulk Modulus (GPa) = 55.45111 56.01880 55.73496
# Shear Modulus (GPa) = 16.30071 24.79827 20.54949
#
# Velocity S-wave (km/s) = 3.01013 3.71273 3.37974
# Velocity P-wave (km/s) = 6.55013 7.03688 6.79786
#
# Compressibility (1/GPa) = 0.01803390
#
# Stress axis : x y z
#
# Youngs Moduli (GPa) = 87.94853 38.21828 27.11058
#
# Poissons Ratio (x) = -0.02762 0.19945
# Poissons Ratio (y) = -0.06356 0.58450
# Poissons Ratio (z) = 0.64703 0.82397
#
# Static dielectric constant tensor:
#      x y z
#    x 3.179450 0.000000 0.000000 
#    y 0.000000 3.251350 0.000000 
#    z 0.000000 0.000000 3.297500 
# 
# 
# High freq. dielectric constant tensor:
#      x y z
#    x 1.687740 0.000000 0.000000 
#    y 0.000000 1.688710 0.000000 
#    z 0.000000 0.000000 1.687300 
# 
# From -- ./inp_files/22701.got.cif
#   From: 2010.03.12/outbox.cif.g09.slc.cpg/sg64_12_cif.got.tgz:22701.got - 2010.04.10 20:19:32.
