data_PCOD8261471
_publ_section_title
;
Structure prediction by ZEFSAII (Michael W. Deem and Ramdas Pophale) SiO2 
 PCOD8261471
Probable space group: C M C A
;
_chemical_formula_sum "Si O2"
_cell_formula_units_Z 80
_cell_length_a 8.743480
_cell_length_b 26.085718
_cell_length_c 18.630175
_cell_angle_alpha 90.000000
_cell_angle_beta 90.000000
_cell_angle_gamma 90.000000
_cell_volume 4249.169450
_symmetry_space_group_name_H-M "C M C A"
_symmetry_group_IT_number 64
_symmetry_cell_setting 'orthorhombic'
loop_
_space_group_symop_operation_xyz
x,y,z
-x,1/2-y,1/2+z
x,-y,-z
-x,1/2+y,1/2-z
-x,-y,-z
x,1/2+y,1/2-z
-x,y,z
x,1/2-y,1/2+z
1/2+x,1/2+y,z
1/2-x,-y,1/2+z
1/2+x,1/2-y,-z
1/2-x,y,1/2-z
1/2-x,1/2-y,-z
1/2+x,y,1/2-z
1/2-x,1/2+y,z
1/2+x,-y,1/2+z
loop_
_atom_site_type_symbol
_atom_site_label
_atom_site_fract_x
_atom_site_fract_y
_atom_site_fract_z
Si Si1 0.680755 0.157069 0.328284
Si Si2 0.818835 0.945906 0.670298
Si Si3 0.176426 0.954881 0.172802
Si Si4 0.680073 0.754082 0.077892
Si Si5 0.177445 0.158597 0.828344
O O1 0.500000 0.151032 0.321333
O O2 0.750000 0.166621 0.250000
O O3 0.750671 0.105673 0.365306
O O4 0.730023 0.204336 0.377402
O O5 0.750000 0.948374 0.750000
O O6 0.000000 0.943062 0.670806
O O7 0.762137 0.998419 0.630393
O O8 0.250000 0.949145 0.250000
O O9 0.197144 0.898702 0.137631
O O10 0.000000 0.970081 0.180139
O O11 0.500000 0.758148 0.071438
O O12 0.741520 0.804512 0.116035
O O13 0.750000 0.750000 0.000000
O O14 0.250000 0.164572 0.750000
O O15 0.000000 0.172955 0.821055
#
# Coordination Sequence:
#
# PCOD8261471 Si02
#       5
#    16  16  16  16  16
#     4  10  20  34  53  78 105 136 172 212 257 306
#     4  10  17  26  45  73 104 136 167 207 254 301
#     4   9  16  27  45  72 105 137 167 206 253 303
#     4  11  24  39  56  76 103 139 177 219 267 316
#     4  10  20  34  55  81 109 140 176 216 260 308
#
# _framework density 18.827207999999999
#
# number of rings (size 3 to 8) (size 9 to 14) (size 15 to 20)
#    0.000    2.000    0.000    7.200    0.000    7.200 
#    0.000    0.000    0.000    1.200    0.000    8.400 
#    0.000    0.000    0.000    0.000    0.000    0.000 
#
# Total GULP energy -495760.171650 kJ/mol
# GULP energy per Si atom -12394.004291 kJ/mol
# Density = 1.878436 g / cm^3
# Si number density = 18.827208 Si / 1000 Ang^3
#
#
#
# Elastic Constant Matrix: (Units=GPa)
#
#
# Indices 1 2 3 4 5 6 
#
# 1 110.2847 72.8407 33.2518 0.0000 0.0000 0.0000
# 2 72.8407 181.5010 57.7050 0.0000 0.0000 0.0000
# 3 33.2518 57.7050 70.6954 0.0000 0.0000 0.0000
# 4 0.0000 0.0000 0.0000 -0.6418 0.0000 0.0000
# 5 0.0000 0.0000 0.0000 0.0000 23.0602 0.0000
# 6 0.0000 0.0000 0.0000 0.0000 0.0000 36.9837
#
#
#
# Elastic Compliance Matrix: (Units=1/GPa)
#
#
# Indices 1 2 3 4 5 6 
#
# 1 0.012641 -0.004298 -0.002437 0.000000 0.000000 0.000000
# 2 -0.004298 0.008902 -0.005245 0.000000 0.000000 0.000000
# 3 -0.002437 -0.005245 0.019572 0.000000 0.000000 0.000000
# 4 0.000000 0.000000 0.000000 -1.558155 0.000000 0.000000
# 5 0.000000 0.000000 0.000000 0.000000 0.043365 0.000000
# 6 0.000000 0.000000 0.000000 0.000000 0.000000 0.027039
#
#
# Mechanical properties :
#
#
# Convention : Reuss Voigt Hill
#
# Bulk Modulus (GPa) = 58.29101 76.67513 67.48307
# Shear Modulus (GPa) = -3.52869 25.12600 10.79865
#
# Velocity S-wave (km/s) = -1.37052 3.65712 2.39752
# Velocity P-wave (km/s) = 5.34077 7.65812 6.60192
#
# Compressibility (1/GPa) = 0.01715530
#
# Stress axis : x y z
#
# Youngs Moduli (GPa) = 79.10592 112.33380 51.09220
#
# Poissons Ratio (x) = 0.48285 0.12453
# Poissons Ratio (y) = 0.34002 0.26796
# Poissons Ratio (z) = 0.19281 0.58914
#
# Static dielectric constant tensor:
#      x y z
#    x 3.635560 0.000000 0.000000 
#    y 0.000000 4.710030 0.000000 
#    z 0.000000 0.000000 3.015850 
# 
# 
# High freq. dielectric constant tensor:
#      x y z
#    x 1.753390 0.000000 0.000000 
#    y 0.000000 1.767330 0.000000 
#    z 0.000000 0.000000 1.663380 
# 
# From -- ./inp_files/29796.got.cif
#   From: 2010.03.12/outbox.cif.g09.slc.cpg/sg64_15_cif.got.tgz:29796.got - 2010.04.10 20:19:32.
