data_PCOD8261626
_publ_section_title
;
Structure prediction by ZEFSAII (Michael W. Deem and Ramdas Pophale) SiO2 
 PCOD8261626
Probable space group: C M C A
;
_chemical_formula_sum "Si O2"
_cell_formula_units_Z 120
_cell_length_a 18.069705
_cell_length_b 18.526777
_cell_length_c 19.981853
_cell_angle_alpha 90.000000
_cell_angle_beta 90.000000
_cell_angle_gamma 90.000000
_cell_volume 6689.392767
_symmetry_space_group_name_H-M "C M C A"
_symmetry_group_IT_number 64
_symmetry_cell_setting 'orthorhombic'
loop_
_space_group_symop_operation_xyz
x,y,z
-x,1/2-y,1/2+z
x,-y,-z
-x,1/2+y,1/2-z
-x,-y,-z
x,1/2+y,1/2-z
-x,y,z
x,1/2-y,1/2+z
1/2+x,1/2+y,z
1/2-x,-y,1/2+z
1/2+x,1/2-y,-z
1/2-x,y,1/2-z
1/2-x,1/2-y,-z
1/2+x,y,1/2-z
1/2-x,1/2+y,z
1/2+x,-y,1/2+z
loop_
_atom_site_type_symbol
_atom_site_label
_atom_site_fract_x
_atom_site_fract_y
_atom_site_fract_z
Si Si1 0.414464 0.904641 0.257319
Si Si2 0.917043 0.080879 0.509638
Si Si3 0.702183 0.112999 0.082257
Si Si4 0.767350 0.740461 0.922679
Si Si5 0.797822 0.000000 0.000000
Si Si6 0.311452 0.095704 0.620121
Si Si7 0.916437 0.180082 0.627961
Si Si8 0.302904 0.494979 0.693134
O O1 0.500000 0.921398 0.268909
O O2 0.377992 0.888262 0.328904
O O3 0.403162 0.837226 0.206278
O O4 0.377596 0.975272 0.225729
O O5 0.867614 0.134664 0.464577
O O6 0.911613 0.104235 0.587093
O O7 0.000000 0.084763 0.481964
O O8 0.885169 0.000000 0.500000
O O9 0.741575 0.184484 0.110737
O O10 0.672441 0.069617 0.145712
O O11 0.753483 0.063083 0.036485
O O12 0.718266 0.673343 0.900828
O O13 0.853920 0.733083 0.901802
O O14 0.750000 0.750000 0.000000
O O15 0.841631 0.045124 0.941745
O O16 0.241396 0.057984 0.654872
O O17 0.000000 0.212691 0.617825
O O18 0.250000 0.462146 0.750000
#
# Coordination Sequence:
#
# PCOD8261626 Si02
#       8
#    16  16  16  16   8  16  16  16
#     4  10  20  37  62  85 114 156 197 237 288 357
#     4  10  18  28  48  82 117 143 176 233 298 346
#     4  11  20  32  55  83 114 147 192 240 297 346
#     4  12  21  35  56  86 113 153 195 244 296 357
#     4  10  18  34  58  80 116 140 188 250 288 338
#     4  10  20  36  58  87 113 148 195 240 290 351
#     4  10  20  35  54  82 115 149 192 239 294 354
#     4   9  19  36  56  82 111 144 190 245 287 343
#
# _framework density 17.938848
#
# number of rings (size 3 to 8) (size 9 to 14) (size 15 to 20)
#    0.000    1.733    4.667    0.800    0.000    1.600 
#    2.400    1.667    0.000    7.200    0.000    0.000 
#    0.000    0.000    0.000    0.000    0.000    0.000 
#
# Total GULP energy -743522.638619 kJ/mol
# GULP energy per Si atom -12392.043977 kJ/mol
# Density = 1.789802 g / cm^3
# Si number density = 17.938848 Si / 1000 Ang^3
#
#
#
# Elastic Constant Matrix: (Units=GPa)
#
#
# Indices 1 2 3 4 5 6 
#
# 1 122.9257 43.3577 56.7231 0.0000 0.0000 0.0000
# 2 43.3577 90.9293 38.9901 0.0000 0.0000 0.0000
# 3 56.7231 38.9901 116.1573 0.0000 0.0000 0.0000
# 4 0.0000 0.0000 0.0000 21.6521 0.0000 0.0000
# 5 0.0000 0.0000 0.0000 0.0000 28.1326 0.0000
# 6 0.0000 0.0000 0.0000 0.0000 0.0000 18.5193
#
#
#
# Elastic Compliance Matrix: (Units=1/GPa)
#
#
# Indices 1 2 3 4 5 6 
#
# 1 0.011412 -0.003565 -0.004376 0.000000 0.000000 0.000000
# 2 -0.003565 0.013960 -0.002945 0.000000 0.000000 0.000000
# 3 -0.004376 -0.002945 0.011735 0.000000 0.000000 0.000000
# 4 0.000000 0.000000 0.000000 0.046185 0.000000 0.000000
# 5 0.000000 0.000000 0.000000 0.000000 0.035546 0.000000
# 6 0.000000 0.000000 0.000000 0.000000 0.000000 0.053998
#
#
# Mechanical properties :
#
#
# Convention : Reuss Voigt Hill
#
# Bulk Modulus (GPa) = 65.21343 67.57268 66.39306
# Shear Modulus (GPa) = 25.03519 26.39022 25.71270
#
# Velocity S-wave (km/s) = 3.73981 3.83968 3.79007
# Velocity P-wave (km/s) = 7.42161 7.57678 7.49960
#
# Compressibility (1/GPa) = 0.01533426
#
# Stress axis : x y z
#
# Youngs Moduli (GPa) = 87.62937 71.63168 85.21859
#
# Poissons Ratio (x) = 0.25537 0.37292
# Poissons Ratio (y) = 0.31240 0.25098
# Poissons Ratio (z) = 0.38347 0.21096
#
# Static dielectric constant tensor:
#      x y z
#    x 3.302130 0.000000 0.000000 
#    y 0.000000 2.704240 0.000000 
#    z 0.000000 0.000000 3.849680 
# 
# 
# High freq. dielectric constant tensor:
#      x y z
#    x 1.681690 0.000000 0.000000 
#    y 0.000000 1.669910 0.000000 
#    z 0.000000 0.000000 1.703510 
# 
# From -- ./inp_files/40440.got.cif
#   From: 2010.03.12/outbox.cif.g09.slc.cpg/sg64_21_cif.got.tgz:40440.got - 2010.04.10 20:19:32.
