data_PCOD8261428
_publ_section_title
;
Structure prediction by ZEFSAII (Michael W. Deem and Ramdas Pophale) SiO2 
 PCOD8261428
Probable space group: C M C A
;
_chemical_formula_sum "Si O2"
_cell_formula_units_Z 88
_cell_length_a 23.322521
_cell_length_b 13.615279
_cell_length_c 14.302828
_cell_angle_alpha 90.000000
_cell_angle_beta 90.000000
_cell_angle_gamma 90.000000
_cell_volume 4541.757625
_symmetry_space_group_name_H-M "C M C A"
_symmetry_group_IT_number 64
_symmetry_cell_setting 'orthorhombic'
loop_
_space_group_symop_operation_xyz
x,y,z
-x,1/2-y,1/2+z
x,-y,-z
-x,1/2+y,1/2-z
-x,-y,-z
x,1/2+y,1/2-z
-x,y,z
x,1/2-y,1/2+z
1/2+x,1/2+y,z
1/2-x,-y,1/2+z
1/2+x,1/2-y,-z
1/2-x,y,1/2-z
1/2-x,1/2-y,-z
1/2+x,y,1/2-z
1/2-x,1/2+y,z
1/2+x,-y,1/2+z
loop_
_atom_site_type_symbol
_atom_site_label
_atom_site_fract_x
_atom_site_fract_y
_atom_site_fract_z
Si Si1 0.120959 0.095504 0.238319
Si Si2 0.317273 0.103694 0.746646
Si Si3 0.000000 0.753237 0.142232
Si Si4 0.623048 0.732164 0.601120
Si Si5 0.000000 0.172183 0.646924
Si Si6 0.000000 0.045183 0.294019
Si Si7 0.875870 0.742673 0.606127
O O1 0.133504 0.162764 0.148837
O O2 0.126906 0.158579 0.332903
O O3 0.057069 0.049917 0.229814
O O4 0.168285 0.010929 0.240416
O O5 0.250000 0.119045 0.750000
O O6 0.345990 0.147320 0.839914
O O7 0.339477 0.156970 0.653540
O O8 0.941942 0.795835 0.097177
O O9 0.000000 0.779038 0.251651
O O10 0.000000 0.634758 0.132236
O O11 0.555707 0.708494 0.591865
O O12 0.649126 0.735950 0.496834
O O13 0.000000 0.054900 0.648481
#
# Coordination Sequence:
#
# PCOD8261428 Si02
#       7
#    16  16   8  16   8   8  16
#     4  10  20  39  59  87 121 155 196 241 301 355
#     4  11  24  42  61  82 115 162 206 250 298 343
#     4  10  17  36  58  92 124 152 188 235 296 371
#     4  11  22  38  64  90 124 156 193 248 298 357
#     4  12  17  35  62  90 125 158 184 237 301 362
#     4  10  16  31  59  84 116 157 187 231 289 363
#     4  10  22  39  62  95 120 152 199 241 302 360
#
# _framework density 19.375758000000001
#
# number of rings (size 3 to 8) (size 9 to 14) (size 15 to 20)
#    0.000    1.455    7.273    0.545    0.000    5.091 
#    0.000    3.636    0.000    4.364    0.000    0.000 
#    0.000    0.000    0.000    0.000    0.000    0.000 
#
# Total GULP energy -545650.049666 kJ/mol
# GULP energy per Si atom -12401.137492 kJ/mol
# Density = 1.933166 g / cm^3
# Si number density = 19.375758 Si / 1000 Ang^3
#
#
#
# Elastic Constant Matrix: (Units=GPa)
#
#
# Indices 1 2 3 4 5 6 
#
# 1 114.9533 46.9983 27.8767 0.0000 0.0000 0.0000
# 2 46.9983 116.7109 49.6318 0.0000 0.0000 0.0000
# 3 27.8767 49.6318 139.0324 0.0000 0.0000 0.0000
# 4 0.0000 0.0000 0.0000 10.8776 0.0000 0.0000
# 5 0.0000 0.0000 0.0000 0.0000 9.0869 0.0000
# 6 0.0000 0.0000 0.0000 0.0000 0.0000 18.2730
#
#
#
# Elastic Compliance Matrix: (Units=1/GPa)
#
#
# Indices 1 2 3 4 5 6 
#
# 1 0.010471 -0.003919 -0.000701 0.000000 0.000000 0.000000
# 2 -0.003919 0.011568 -0.003344 0.000000 0.000000 0.000000
# 3 -0.000701 -0.003344 0.008527 0.000000 0.000000 0.000000
# 4 0.000000 0.000000 0.000000 0.091932 0.000000 0.000000
# 5 0.000000 0.000000 0.000000 0.000000 0.110048 0.000000
# 6 0.000000 0.000000 0.000000 0.000000 0.000000 0.054726
#
#
# Mechanical properties :
#
#
# Convention : Reuss Voigt Hill
#
# Bulk Modulus (GPa) = 68.30733 68.85668 68.58200
# Shear Modulus (GPa) = 16.22964 24.06017 20.14491
#
# Velocity S-wave (km/s) = 2.89732 3.52769 3.22793
# Velocity P-wave (km/s) = 6.82079 7.22548 7.02605
#
# Compressibility (1/GPa) = 0.01463972
#
# Stress axis : x y z
#
# Youngs Moduli (GPa) = 95.49963 86.44381 117.27799
#
# Poissons Ratio (x) = 0.33875 0.08217
# Poissons Ratio (y) = 0.37424 0.39217
# Poissons Ratio (z) = 0.06691 0.28906
#
# Static dielectric constant tensor:
#      x y z
#    x 3.566840 0.000000 0.000000 
#    y 0.000000 3.548430 0.000000 
#    z 0.000000 0.000000 3.338350 
# 
# 
# High freq. dielectric constant tensor:
#      x y z
#    x 1.748180 0.000000 0.000000 
#    y 0.000000 1.756170 0.000000 
#    z 0.000000 0.000000 1.736710 
# 
# From -- ./inp_files/26259.got.cif
#   From: 2010.03.12/outbox.cif.g09.slc.cpg/sg64_14_cif.got.tgz:26259.got - 2010.04.10 20:19:32.
