data_PCOD8261309
_publ_section_title
;
Structure prediction by ZEFSAII (Michael W. Deem and Ramdas Pophale) SiO2 
 PCOD8261309
Probable space group: C M C M
;
_chemical_formula_sum "Si O2"
_cell_formula_units_Z 112
_cell_length_a 9.894793
_cell_length_b 25.364469
_cell_length_c 26.945009
_cell_angle_alpha 90.000000
_cell_angle_beta 90.000000
_cell_angle_gamma 90.000000
_cell_volume 6762.555168
_symmetry_space_group_name_H-M "C M C M"
_symmetry_group_IT_number 63
_symmetry_cell_setting 'orthorhombic'
loop_
_space_group_symop_operation_xyz
x,y,z
-x,-y,1/2+z
x,-y,-z
-x,y,1/2-z
-x,-y,-z
x,y,1/2-z
-x,y,z
x,-y,1/2+z
1/2+x,1/2+y,z
1/2-x,1/2-y,1/2+z
1/2+x,1/2-y,-z
1/2-x,1/2+y,1/2-z
1/2-x,1/2-y,-z
1/2+x,1/2+y,1/2-z
1/2-x,1/2+y,z
1/2+x,1/2-y,1/2+z
loop_
_atom_site_type_symbol
_atom_site_label
_atom_site_fract_x
_atom_site_fract_y
_atom_site_fract_z
Si Si1 0.344584 0.674237 0.867808
Si Si2 0.151897 0.749142 0.808669
Si Si3 0.657541 0.409026 0.509377
Si Si4 0.160747 0.867036 0.694684
Si Si5 0.348426 0.706803 0.979740
Si Si6 0.839287 0.052213 0.113387
Si Si7 0.839873 0.063380 0.903041
O O1 0.500000 0.676562 0.849591
O O2 0.252431 0.705621 0.829694
O O3 0.328990 0.700339 0.921333
O O4 0.290998 0.613513 0.870620
O O5 0.151263 0.743683 0.750000
O O6 0.202150 0.808175 0.823135
O O7 0.000000 0.739589 0.829355
O O8 0.500000 0.422396 0.510618
O O9 0.684392 0.346884 0.508454
O O10 0.723266 0.431677 0.559890
O O11 0.720180 0.435314 0.459399
O O12 0.218246 0.878733 0.750000
O O13 0.221409 0.910366 0.656557
O O14 0.000000 0.870310 0.696489
O O15 0.500000 0.725052 0.991779
O O16 0.250000 0.750000 0.000000
O O17 0.000000 0.058822 0.112635
O O18 0.798567 0.991237 0.123760
O O19 0.000000 0.069555 0.908599
#
# Coordination Sequence:
#
# PCOD8261309 Si02
#       7
#    16  16  16  16  16  16  16
#     4   9  18  31  45  65  95 123 146 182 229 270
#     4   9  18  32  49  68  89 116 152 190 224 266
#     4   8  14  23  36  58  85 113 147 181 213 260
#     4   8  15  26  38  58  86 108 136 184 229 262
#     4   9  18  29  41  62  93 123 151 184 221 263
#     4   9  14  21  39  61  82 115 149 177 222 270
#     4   8  14  25  38  58  90 118 142 178 219 262
#
# _framework density 16.561788
#
# number of rings (size 3 to 8) (size 9 to 14) (size 15 to 20)
#    0.000    3.429    0.000    3.000    2.000    2.571 
#    0.000    0.714    0.000    2.571    0.000    2.000 
#    0.000    4.571    0.000    0.000    0.000    0.000 
#
# Total GULP energy -693915.978076 kJ/mol
# GULP energy per Si atom -12391.356751 kJ/mol
# Density = 1.652409 g / cm^3
# Si number density = 16.561788 Si / 1000 Ang^3
#
#
#
# Elastic Constant Matrix: (Units=GPa)
#
#
# Indices 1 2 3 4 5 6 
#
# 1 30.8583 37.1312 19.9707 0.0000 0.0000 0.0000
# 2 37.1312 125.8833 65.8598 0.0000 0.0000 0.0000
# 3 19.9707 65.8598 67.4836 0.0000 0.0000 0.0000
# 4 0.0000 0.0000 0.0000 29.1870 0.0000 0.0000
# 5 0.0000 0.0000 0.0000 0.0000 17.7238 0.0000
# 6 0.0000 0.0000 0.0000 0.0000 0.0000 18.6655
#
#
#
# Elastic Compliance Matrix: (Units=1/GPa)
#
#
# Indices 1 2 3 4 5 6 
#
# 1 0.050259 -0.014391 -0.000828 0.000000 0.000000 0.000000
# 2 -0.014391 0.020352 -0.015604 0.000000 0.000000 0.000000
# 3 -0.000828 -0.015604 0.030292 0.000000 0.000000 0.000000
# 4 0.000000 0.000000 0.000000 0.034262 0.000000 0.000000
# 5 0.000000 0.000000 0.000000 0.000000 0.056421 0.000000
# 6 0.000000 0.000000 0.000000 0.000000 0.000000 0.053575
#
#
# Mechanical properties :
#
#
# Convention : Reuss Voigt Hill
#
# Bulk Modulus (GPa) = 25.47353 52.23874 38.85613
# Shear Modulus (GPa) = 15.63018 19.86616 17.74817
#
# Velocity S-wave (km/s) = 3.07538 3.46716 3.27713
# Velocity P-wave (km/s) = 5.29386 6.90206 6.15075
#
# Compressibility (1/GPa) = 0.03925644
#
# Stress axis : x y z
#
# Youngs Moduli (GPa) = 19.89693 49.13410 33.01210
#
# Poissons Ratio (x) = 0.70711 0.02734
# Poissons Ratio (y) = 0.28634 0.51512
# Poissons Ratio (z) = 0.01648 0.76668
#
# Static dielectric constant tensor:
#      x y z
#    x 2.599090 0.000000 0.000000 
#    y 0.000000 3.315830 0.000000 
#    z 0.000000 0.000000 3.101960 
# 
# 
# High freq. dielectric constant tensor:
#      x y z
#    x 1.566950 0.000000 0.000000 
#    y 0.000000 1.649530 0.000000 
#    z 0.000000 0.000000 1.633470 
# 
# From -- ./inp_files/61935.got.cif
#   From: 2010.03.12/outbox.cif.g09.slc.cpg/sg63_31_cif.got.tgz:61935.got - 2010.04.10 19:34:48.
