data_PCOD8261788
_publ_section_title
;
Structure prediction by ZEFSAII (Michael W. Deem and Ramdas Pophale) SiO2 
 PCOD8261788
Probable space group: C M C A
;
_chemical_formula_sum "Si O2"
_cell_formula_units_Z 128
_cell_length_a 19.508111
_cell_length_b 19.604424
_cell_length_c 18.506476
_cell_angle_alpha 90.000000
_cell_angle_beta 90.000000
_cell_angle_gamma 90.000000
_cell_volume 7077.714386
_symmetry_space_group_name_H-M "C M C A"
_symmetry_group_IT_number 64
_symmetry_cell_setting 'orthorhombic'
loop_
_space_group_symop_operation_xyz
x,y,z
-x,1/2-y,1/2+z
x,-y,-z
-x,1/2+y,1/2-z
-x,-y,-z
x,1/2+y,1/2-z
-x,y,z
x,1/2-y,1/2+z
1/2+x,1/2+y,z
1/2-x,-y,1/2+z
1/2+x,1/2-y,-z
1/2-x,y,1/2-z
1/2-x,1/2-y,-z
1/2+x,y,1/2-z
1/2-x,1/2+y,z
1/2+x,-y,1/2+z
loop_
_atom_site_type_symbol
_atom_site_label
_atom_site_fract_x
_atom_site_fract_y
_atom_site_fract_z
Si Si1 0.176990 0.496166 0.783722
Si Si2 0.806836 0.147455 0.693754
Si Si3 0.355369 0.735403 0.998438
Si Si4 0.578734 0.323363 0.610849
Si Si5 0.153531 0.446163 0.944746
Si Si6 0.920257 0.381987 0.740056
Si Si7 0.243314 0.644142 0.962668
Si Si8 0.421158 0.743903 0.145246
O O1 0.250000 0.476978 0.750000
O O2 0.161214 0.576868 0.774806
O O3 0.174620 0.477194 0.868214
O O4 0.121385 0.452855 0.737781
O O5 0.750000 0.177324 0.750000
O O6 0.766172 0.125069 0.621253
O O7 0.868465 0.201261 0.680124
O O8 0.299035 0.787360 0.026669
O O9 0.414531 0.735883 0.058990
O O10 0.383635 0.757365 0.920381
O O11 0.321935 0.661180 0.984288
O O12 0.500000 0.306832 0.608909
O O13 0.595345 0.388824 0.561497
O O14 0.604732 0.337499 0.691384
O O15 0.120265 0.500000 0.000000
O O16 0.221010 0.416390 0.984114
O O17 0.904735 0.332469 0.673195
O O18 0.000000 0.401762 0.746664
O O19 0.500000 0.765001 0.164006
#
# Coordination Sequence:
#
# PCOD8261788 Si02
#       8
#    16  16  16  16  16  16  16  16
#     4  10  21  35  53  78 105 137 182 223 267 324
#     4  10  21  35  53  80 111 142 182 228 274 328
#     4   9  18  31  51  74 102 133 171 214 258 313
#     4   9  18  32  50  74 103 134 167 210 260 319
#     4  10  18  32  51  73 105 135 166 211 264 318
#     4   9  20  36  52  75 107 140 177 219 268 325
#     4   9  18  32  49  74 104 134 170 212 261 314
#     4  10  21  36  54  80 109 143 186 227 270 327
#
# _framework density 18.084934000000001
#
# number of rings (size 3 to 8) (size 9 to 14) (size 15 to 20)
#    0.000    2.500    1.250    0.375    3.500    1.250 
#    0.000    0.000    0.000    0.000    0.000    0.000 
#    0.000    6.000    0.000    0.000    0.000    0.000 
#
# Total GULP energy -793158.957559 kJ/mol
# GULP energy per Si atom -12393.108712 kJ/mol
# Density = 1.804377 g / cm^3
# Si number density = 18.084934 Si / 1000 Ang^3
#
#
#
# Elastic Constant Matrix: (Units=GPa)
#
#
# Indices 1 2 3 4 5 6 
#
# 1 66.7178 27.9894 14.5979 0.0000 0.0000 0.0000
# 2 27.9894 63.2665 6.0407 0.0000 0.0000 0.0000
# 3 14.5979 6.0407 45.8269 0.0000 0.0000 0.0000
# 4 0.0000 0.0000 0.0000 24.2559 0.0000 0.0000
# 5 0.0000 0.0000 0.0000 0.0000 26.7773 0.0000
# 6 0.0000 0.0000 0.0000 0.0000 0.0000 25.5527
#
#
#
# Elastic Compliance Matrix: (Units=1/GPa)
#
#
# Indices 1 2 3 4 5 6 
#
# 1 0.019534 -0.008150 -0.005148 0.000000 0.000000 0.000000
# 2 -0.008150 0.019408 0.000038 0.000000 0.000000 0.000000
# 3 -0.005148 0.000038 0.023456 0.000000 0.000000 0.000000
# 4 0.000000 0.000000 0.000000 0.041227 0.000000 0.000000
# 5 0.000000 0.000000 0.000000 0.000000 0.037345 0.000000
# 6 0.000000 0.000000 0.000000 0.000000 0.000000 0.039135
#
#
# Mechanical properties :
#
#
# Convention : Reuss Voigt Hill
#
# Bulk Modulus (GPa) = 27.87272 30.34081 29.10677
# Shear Modulus (GPa) = 22.87427 23.79605 23.33516
#
# Velocity S-wave (km/s) = 3.56030 3.63132 3.59598
# Velocity P-wave (km/s) = 5.68740 5.86475 5.77675
#
# Compressibility (1/GPa) = 0.03587737
#
# Stress axis : x y z
#
# Youngs Moduli (GPa) = 51.19220 51.52423 42.63268
#
# Poissons Ratio (x) = 0.41995 0.21948
# Poissons Ratio (y) = 0.41724 -0.00162
# Poissons Ratio (z) = 0.26355 -0.00196
#
# Static dielectric constant tensor:
#      x y z
#    x 3.249000 0.000000 0.000000 
#    y 0.000000 3.300920 0.000000 
#    z 0.000000 0.000000 3.489390 
# 
# 
# High freq. dielectric constant tensor:
#      x y z
#    x 1.684510 0.000000 0.000000 
#    y 0.000000 1.689810 0.000000 
#    z 0.000000 0.000000 1.705370 
# 
# From -- ./inp_files/34641.got.cif
#   From: 2010.03.12/outbox.cif.g09.slc.cpg/sg64_18_cif.got.tgz:34641.got - 2010.04.10 20:19:32.
