data_PCOD8261008
_publ_section_title
;
Structure prediction by ZEFSAII (Michael W. Deem and Ramdas Pophale) SiO2 
 PCOD8261008
Probable space group: C M C M
;
_chemical_formula_sum "Si O2"
_cell_formula_units_Z 96
_cell_length_a 11.351236
_cell_length_b 19.553560
_cell_length_c 22.640485
_cell_angle_alpha 90.000000
_cell_angle_beta 90.000000
_cell_angle_gamma 90.000000
_cell_volume 5025.215809
_symmetry_space_group_name_H-M "C M C M"
_symmetry_group_IT_number 63
_symmetry_cell_setting 'orthorhombic'
loop_
_space_group_symop_operation_xyz
x,y,z
-x,-y,1/2+z
x,-y,-z
-x,y,1/2-z
-x,-y,-z
x,y,1/2-z
-x,y,z
x,-y,1/2+z
1/2+x,1/2+y,z
1/2-x,1/2-y,1/2+z
1/2+x,1/2-y,-z
1/2-x,1/2+y,1/2-z
1/2-x,1/2-y,-z
1/2+x,1/2+y,1/2-z
1/2-x,1/2+y,z
1/2+x,1/2-y,1/2+z
loop_
_atom_site_type_symbol
_atom_site_label
_atom_site_fract_x
_atom_site_fract_y
_atom_site_fract_z
Si Si1 0.362383 0.120255 0.135772
Si Si2 0.770710 0.242976 0.180071
Si Si3 0.863089 0.631727 0.614844
Si Si4 0.756334 0.512657 0.817623
Si Si5 0.861159 0.575882 0.492185
Si Si6 0.000000 0.836545 0.680171
Si Si7 0.500000 0.487034 0.819938
O O1 0.500000 0.104790 0.142274
O O2 0.339334 0.197526 0.158281
O O3 0.318441 0.111019 0.068290
O O4 0.290169 0.067208 0.176403
O O5 0.764274 0.256089 0.250000
O O6 0.774816 0.315805 0.147091
O O7 0.885709 0.203125 0.158263
O O8 0.844722 0.557014 0.643203
O O9 0.826039 0.625865 0.546227
O O10 0.000000 0.652459 0.623265
O O11 0.771030 0.534801 0.750000
O O12 0.620421 0.525344 0.838822
O O13 0.804226 0.500000 0.500000
O O14 0.000000 0.566954 0.491997
O O15 0.000000 0.911514 0.651203
O O16 0.000000 0.840479 0.750000
O O17 0.500000 0.477607 0.750000
#
# Coordination Sequence:
#
# PCOD8261008 Si02
#       7
#    16  16  16  16  16   8   8
#     4  11  22  37  59  85 116 153 196 238 283 346
#     4  11  22  36  56  84 118 151 185 237 293 342
#     4  11  22  37  60  86 113 149 196 245 291 340
#     4  11  21  34  57  86 114 148 191 241 293 345
#     4   9  18  36  59  84 114 151 191 240 295 336
#     4   9  16  32  54  75 106 143 181 226 279 340
#     4   9  18  34  54  78 110 148 190 226 277 352
#
# _framework density 19.103656999999998
#
# number of rings (size 3 to 8) (size 9 to 14) (size 15 to 20)
#    0.000    1.667    4.167    1.500    0.000    3.667 
#    1.500    0.000    0.000    3.000    0.000    0.000 
#    0.000    0.000    0.000    0.000    0.000    0.000 
#
# Total GULP energy -595147.211693 kJ/mol
# GULP energy per Si atom -12398.900244 kJ/mol
# Density = 1.906018 g / cm^3
# Si number density = 19.103657 Si / 1000 Ang^3
#
#
#
# Elastic Constant Matrix: (Units=GPa)
#
#
# Indices 1 2 3 4 5 6 
#
# 1 60.6565 7.8093 23.2846 0.0000 0.0000 0.0000
# 2 7.8093 76.1462 24.7873 0.0000 0.0000 0.0000
# 3 23.2846 24.7873 90.0377 0.0000 0.0000 0.0000
# 4 0.0000 0.0000 0.0000 30.2527 0.0000 0.0000
# 5 0.0000 0.0000 0.0000 0.0000 20.0131 0.0000
# 6 0.0000 0.0000 0.0000 0.0000 0.0000 31.8752
#
#
#
# Elastic Compliance Matrix: (Units=1/GPa)
#
#
# Indices 1 2 3 4 5 6 
#
# 1 0.018313 -0.000370 -0.004634 0.000000 0.000000 0.000000
# 2 -0.000370 0.014433 -0.003878 0.000000 0.000000 0.000000
# 3 -0.004634 -0.003878 0.013372 0.000000 0.000000 0.000000
# 4 0.000000 0.000000 0.000000 0.033055 0.000000 0.000000
# 5 0.000000 0.000000 0.000000 0.000000 0.049967 0.000000
# 6 0.000000 0.000000 0.000000 0.000000 0.000000 0.031372
#
#
# Mechanical properties :
#
#
# Convention : Reuss Voigt Hill
#
# Bulk Modulus (GPa) = 35.26698 37.62252 36.44475
# Shear Modulus (GPa) = 26.63440 27.82549 27.22995
#
# Velocity S-wave (km/s) = 3.73796 3.82062 3.77951
# Velocity P-wave (km/s) = 6.09349 6.26095 6.17779
#
# Compressibility (1/GPa) = 0.02835513
#
# Stress axis : x y z
#
# Youngs Moduli (GPa) = 54.60661 69.28639 74.78070
#
# Poissons Ratio (x) = 0.02561 0.34654
# Poissons Ratio (y) = 0.02018 0.28998
# Poissons Ratio (z) = 0.25305 0.26868
#
# Static dielectric constant tensor:
#      x y z
#    x 3.368020 0.000000 0.000000 
#    y 0.000000 3.365480 0.000000 
#    z 0.000000 0.000000 3.483420 
# 
# 
# High freq. dielectric constant tensor:
#      x y z
#    x 1.723400 0.000000 0.000000 
#    y 0.000000 1.735790 0.000000 
#    z 0.000000 0.000000 1.733010 
# 
# From -- ./inp_files/52938.got.cif
#   From: 2010.03.12/outbox.cif.g09.slc.cpg/sg63_27_cif.got.tgz:52938.got - 2010.04.10 19:34:48.
