data_PCOD8261538
_publ_section_title
;
Structure prediction by ZEFSAII (Michael W. Deem and Ramdas Pophale) SiO2 
 PCOD8261538
Probable space group: C M C A
;
_chemical_formula_sum "Si O2"
_cell_formula_units_Z 96
_cell_length_a 20.583652
_cell_length_b 9.768948
_cell_length_c 24.679096
_cell_angle_alpha 90.000000
_cell_angle_beta 90.000000
_cell_angle_gamma 90.000000
_cell_volume 4962.488074
_symmetry_space_group_name_H-M "C M C A"
_symmetry_group_IT_number 64
_symmetry_cell_setting 'orthorhombic'
loop_
_space_group_symop_operation_xyz
x,y,z
-x,1/2-y,1/2+z
x,-y,-z
-x,1/2+y,1/2-z
-x,-y,-z
x,1/2+y,1/2-z
-x,y,z
x,1/2-y,1/2+z
1/2+x,1/2+y,z
1/2-x,-y,1/2+z
1/2+x,1/2-y,-z
1/2-x,y,1/2-z
1/2-x,1/2-y,-z
1/2+x,y,1/2-z
1/2-x,1/2+y,z
1/2+x,-y,1/2+z
loop_
_atom_site_type_symbol
_atom_site_label
_atom_site_fract_x
_atom_site_fract_y
_atom_site_fract_z
Si Si1 0.647524 0.640488 0.098748
Si Si2 0.837861 0.352624 0.011690
Si Si3 0.352048 0.318003 0.248487
Si Si4 0.800603 0.881316 0.057038
Si Si5 0.574775 0.577065 0.201434
Si Si6 0.251853 0.783735 0.165041
O O1 0.632852 0.781539 0.065899
O O2 0.659405 0.524018 0.052852
O O3 0.587570 0.602133 0.137452
O O4 0.713050 0.655732 0.135379
O O5 0.761652 0.383922 0.018602
O O6 0.872657 0.500000 0.000000
O O7 0.845108 0.249524 0.960265
O O8 0.408728 0.213968 0.265305
O O9 0.381916 0.453009 0.222678
O O10 0.308368 0.361265 0.300565
O O11 0.306014 0.238796 0.205272
O O12 0.780142 0.879335 0.119865
O O13 0.500000 0.540508 0.209905
#
# Coordination Sequence:
#
# PCOD8261538 Si02
#       6
#    16  16  16  16  16  16
#     4  10  20  34  54  82 113 150 179 232 272 341
#     4  10  19  31  51  82 119 148 174 220 286 348
#     4  10  21  36  57  80 111 148 180 235 276 336
#     4  10  17  31  52  82 116 148 174 215 277 348
#     4  11  23  40  57  78 108 152 198 233 271 321
#     4   9  19  30  54  88 116 136 179 222 291 328
#
# _framework density 19.345136
#
# number of rings (size 3 to 8) (size 9 to 14) (size 15 to 20)
#    0.000    2.000    1.667    4.000    2.333    1.333 
#    3.000    0.000    0.000    2.500    0.000    0.000 
#    0.000    0.000    0.000    0.000    0.000    0.000 
#
# Total GULP energy -594857.994254 kJ/mol
# GULP energy per Si atom -12392.874880 kJ/mol
# Density = 1.930111 g / cm^3
# Si number density = 19.345136 Si / 1000 Ang^3
#
#
#
# Elastic Constant Matrix: (Units=GPa)
#
#
# Indices 1 2 3 4 5 6 
#
# 1 60.0126 23.3137 29.3025 0.0000 0.0000 0.0000
# 2 23.3137 127.8189 59.8909 0.0000 0.0000 0.0000
# 3 29.3025 59.8909 103.6526 0.0000 0.0000 0.0000
# 4 0.0000 0.0000 0.0000 33.3231 0.0000 0.0000
# 5 0.0000 0.0000 0.0000 0.0000 15.6952 0.0000
# 6 0.0000 0.0000 0.0000 0.0000 0.0000 15.0729
#
#
#
# Elastic Compliance Matrix: (Units=1/GPa)
#
#
# Indices 1 2 3 4 5 6 
#
# 1 0.019496 -0.001335 -0.004740 0.000000 0.000000 0.000000
# 2 -0.001335 0.010819 -0.005874 0.000000 0.000000 0.000000
# 3 -0.004740 -0.005874 0.014382 0.000000 0.000000 0.000000
# 4 0.000000 0.000000 0.000000 0.030009 0.000000 0.000000
# 5 0.000000 0.000000 0.000000 0.000000 0.063714 0.000000
# 6 0.000000 0.000000 0.000000 0.000000 0.000000 0.066344
#
#
# Mechanical properties :
#
#
# Convention : Reuss Voigt Hill
#
# Bulk Modulus (GPa) = 48.07956 57.38870 52.73413
# Shear Modulus (GPa) = 21.22273 24.75003 22.98638
#
# Velocity S-wave (km/s) = 3.31578 3.58074 3.45080
# Velocity P-wave (km/s) = 6.29021 6.84293 6.57238
#
# Compressibility (1/GPa) = 0.02079886
#
# Stress axis : x y z
#
# Youngs Moduli (GPa) = 51.29173 92.42618 69.53251
#
# Poissons Ratio (x) = 0.12339 0.32960
# Poissons Ratio (y) = 0.06847 0.40844
# Poissons Ratio (z) = 0.24314 0.54292
#
# Static dielectric constant tensor:
#      x y z
#    x 2.989350 0.000000 0.000000 
#    y 0.000000 3.612110 0.000000 
#    z 0.000000 0.000000 3.748580 
# 
# 
# High freq. dielectric constant tensor:
#      x y z
#    x 1.686200 0.000000 0.000000 
#    y 0.000000 1.756560 0.000000 
#    z 0.000000 0.000000 1.772160 
# 
# From -- ./inp_files/50966.got.cif
#   From: 2010.03.12/outbox.cif.g09.slc.cpg/sg64_26_cif.got.tgz:50966.got - 2010.04.10 20:19:32.
