data_PCOD8261780
_publ_section_title
;
Structure prediction by ZEFSAII (Michael W. Deem and Ramdas Pophale) SiO2 
 PCOD8261780
Probable space group: C M C A
;
_chemical_formula_sum "Si O2"
_cell_formula_units_Z 56
_cell_length_a 30.974485
_cell_length_b 5.316259
_cell_length_c 13.327071
_cell_angle_alpha 90.000000
_cell_angle_beta 90.000000
_cell_angle_gamma 90.000000
_cell_volume 2194.547254
_symmetry_space_group_name_H-M "C M C A"
_symmetry_group_IT_number 64
_symmetry_cell_setting 'orthorhombic'
loop_
_space_group_symop_operation_xyz
x,y,z
-x,1/2-y,1/2+z
x,-y,-z
-x,1/2+y,1/2-z
-x,-y,-z
x,1/2+y,1/2-z
-x,y,z
x,1/2-y,1/2+z
1/2+x,1/2+y,z
1/2-x,-y,1/2+z
1/2+x,1/2-y,-z
1/2-x,y,1/2-z
1/2-x,1/2-y,-z
1/2+x,y,1/2-z
1/2-x,1/2+y,z
1/2+x,-y,1/2+z
loop_
_atom_site_type_symbol
_atom_site_label
_atom_site_fract_x
_atom_site_fract_y
_atom_site_fract_z
Si Si1 0.500000 0.073161 0.315238
Si Si2 0.406443 0.613333 0.132752
Si Si3 0.871134 0.111103 0.355826
Si Si4 0.274565 0.515433 0.381587
O O1 0.500000 0.303148 0.237715
O O2 0.542320 0.091825 0.385229
O O3 0.396398 0.635209 0.251142
O O4 0.382235 0.370174 0.084402
O O5 0.388319 0.869274 0.081908
O O6 0.820641 0.075907 0.332960
O O7 0.280317 0.500000 0.500000
O O8 0.256751 0.243435 0.345910
#
# Coordination Sequence:
#
# PCOD8261780 Si02
#       4
#     8  16  16  16
#     4  12  16  30  48  74 106 134 160 188 226 292
#     4  10  19  30  48  77 103 129 156 191 244 291
#     4  10  18  32  48  72 101 124 160 204 238 290
#     4  10  21  37  54  70  91 127 172 209 242 285
#
# _framework density 25.517790000000002
#
# number of rings (size 3 to 8) (size 9 to 14) (size 15 to 20)
#    0.000    1.714    5.714    1.714    0.000    0.000 
#    0.000   17.143    0.000    0.000    0.000   11.000 
#    0.000    0.000    0.000    0.000    0.000    0.000 
#
# Total GULP energy -347093.226881 kJ/mol
# GULP energy per Si atom -12396.186674 kJ/mol
# Density = 2.545971 g / cm^3
# Si number density = 25.517790 Si / 1000 Ang^3
#
#
#
# Elastic Constant Matrix: (Units=GPa)
#
#
# Indices 1 2 3 4 5 6 
#
# 1 209.3422 67.9528 -1.2524 0.0000 0.0000 0.0000
# 2 67.9528 259.8114 8.9528 0.0000 0.0000 0.0000
# 3 -1.2524 8.9528 18.9840 0.0000 0.0000 0.0000
# 4 0.0000 0.0000 0.0000 -2.9551 0.0000 0.0000
# 5 0.0000 0.0000 0.0000 0.0000 -47.6803 0.0000
# 6 0.0000 0.0000 0.0000 0.0000 0.0000 55.1017
#
#
#
# Elastic Compliance Matrix: (Units=1/GPa)
#
#
# Indices 1 2 3 4 5 6 
#
# 1 0.005239 -0.001405 0.001008 0.000000 0.000000 0.000000
# 2 -0.001405 0.004289 -0.002116 0.000000 0.000000 0.000000
# 3 0.001008 -0.002116 0.053740 0.000000 0.000000 0.000000
# 4 0.000000 0.000000 0.000000 -0.338401 0.000000 0.000000
# 5 0.000000 0.000000 0.000000 0.000000 -0.020973 0.000000
# 6 0.000000 0.000000 0.000000 0.000000 0.000000 0.018148
#
#
# Mechanical properties :
#
#
# Convention : Reuss Voigt Hill
#
# Bulk Modulus (GPa) = 17.16921 71.04932 44.10927
# Shear Modulus (GPa) = -19.72247 28.39223 4.33488
#
# Velocity S-wave (km/s) = -2.78311 3.33925 1.30478
# Velocity P-wave (km/s) = 1.89332 6.53995 4.42642
#
# Compressibility (1/GPa) = 0.05824378
#
# Stress axis : x y z
#
# Youngs Moduli (GPa) = 190.87770 233.13776 18.60809
#
# Poissons Ratio (x) = 0.32755 -0.01876
# Poissons Ratio (y) = 0.26818 0.03937
# Poissons Ratio (z) = -0.19244 0.49320
#
# Static dielectric constant tensor:
#      x y z
#    x 4.604700 0.000000 0.000000 
#    y 0.000000 6.817500 0.000000 
#    z 0.000000 0.000000 3.867780 
# 
# 
# High freq. dielectric constant tensor:
#      x y z
#    x 2.018240 0.000000 0.000000 
#    y 0.000000 2.061680 0.000000 
#    z 0.000000 0.000000 1.988600 
# 
# From -- ./inp_files/1189.got.cif
#   From: 2010.03.12/outbox.cif.g09.slc.cpg/sg64_1_cif.got.tgz:1189.got - 2010.04.10 20:19:32.
