data_PCOD8261672
_publ_section_title
;
Structure prediction by ZEFSAII (Michael W. Deem and Ramdas Pophale) SiO2 
 PCOD8261672
Probable space group: C M C A
;
_chemical_formula_sum "Si O2"
_cell_formula_units_Z 112
_cell_length_a 9.555548
_cell_length_b 24.963901
_cell_length_c 28.777771
_cell_angle_alpha 90.000000
_cell_angle_beta 90.000000
_cell_angle_gamma 90.000000
_cell_volume 6864.757534
_symmetry_space_group_name_H-M "C M C A"
_symmetry_group_IT_number 64
_symmetry_cell_setting 'orthorhombic'
loop_
_space_group_symop_operation_xyz
x,y,z
-x,1/2-y,1/2+z
x,-y,-z
-x,1/2+y,1/2-z
-x,-y,-z
x,1/2+y,1/2-z
-x,y,z
x,1/2-y,1/2+z
1/2+x,1/2+y,z
1/2-x,-y,1/2+z
1/2+x,1/2-y,-z
1/2-x,y,1/2-z
1/2-x,1/2-y,-z
1/2+x,y,1/2-z
1/2-x,1/2+y,z
1/2+x,-y,1/2+z
loop_
_atom_site_type_symbol
_atom_site_label
_atom_site_fract_x
_atom_site_fract_y
_atom_site_fract_z
Si Si1 0.660387 0.896903 0.293197
Si Si2 0.837857 0.271709 0.293746
Si Si3 0.161738 0.357108 0.957479
Si Si4 0.165114 0.664239 0.547763
Si Si5 0.662739 0.019776 0.050561
Si Si6 0.836594 0.262410 0.891968
Si Si7 0.836575 0.560663 0.607389
O O1 0.500000 0.907611 0.280755
O O2 0.750000 0.918594 0.250000
O O3 0.687373 0.834454 0.302341
O O4 0.704756 0.928841 0.339276
O O5 0.750000 0.250528 0.250000
O O6 0.778050 0.241380 0.339438
O O7 0.000000 0.258946 0.284109
O O8 0.257487 0.337123 0.998965
O O9 0.195993 0.417738 0.943822
O O10 0.196590 0.320751 0.912661
O O11 0.000000 0.350829 0.972514
O O12 0.224989 0.715900 0.574997
O O13 0.205016 0.611937 0.576979
O O14 0.000000 0.668056 0.538427
O O15 0.500000 0.006533 0.057721
O O16 0.749707 0.990192 0.090260
O O17 0.713108 0.000000 0.000000
O O18 0.000000 0.250214 0.888203
O O19 0.000000 0.547963 0.602303
#
# Coordination Sequence:
#
# PCOD8261672 Si02
#       7
#    16  16  16  16  16  16  16
#     4   9  17  30  48  72  98 122 151 190 237 288
#     4   9  16  29  48  70  95 121 150 188 233 284
#     4  10  20  33  48  67  94 131 167 195 230 278
#     4  10  18  30  48  71  97 125 155 192 236 281
#     4  10  20  33  47  67  96 127 163 204 235 270
#     4   9  17  31  50  69  95 128 157 188 235 291
#     4  10  19  31  50  72  96 126 158 192 237 286
#
# _framework density 16.315215999999999
#
# number of rings (size 3 to 8) (size 9 to 14) (size 15 to 20)
#    0.000    2.429    2.857    0.429    0.000    1.429 
#    0.000    1.429    0.000    0.857    0.000    4.000 
#    0.000    0.000    0.000    0.000    0.000    0.000 
#
# Total GULP energy -694439.422366 kJ/mol
# GULP energy per Si atom -12400.703971 kJ/mol
# Density = 1.627808 g / cm^3
# Si number density = 16.315216 Si / 1000 Ang^3
#
#
#
# Elastic Constant Matrix: (Units=GPa)
#
#
# Indices 1 2 3 4 5 6 
#
# 1 45.9510 35.7731 58.8983 0.0000 0.0000 0.0000
# 2 35.7731 99.9013 66.1223 0.0000 0.0000 0.0000
# 3 58.8983 66.1223 152.9937 0.0000 0.0000 0.0000
# 4 0.0000 0.0000 0.0000 23.8488 0.0000 0.0000
# 5 0.0000 0.0000 0.0000 0.0000 30.8305 0.0000
# 6 0.0000 0.0000 0.0000 0.0000 0.0000 16.1956
#
#
#
# Elastic Compliance Matrix: (Units=1/GPa)
#
#
# Indices 1 2 3 4 5 6 
#
# 1 0.045905 -0.006641 -0.014802 0.000000 0.000000 0.000000
# 2 -0.006641 0.014981 -0.003918 0.000000 0.000000 0.000000
# 3 -0.014802 -0.003918 0.013928 0.000000 0.000000 0.000000
# 4 0.000000 0.000000 0.000000 0.041931 0.000000 0.000000
# 5 0.000000 0.000000 0.000000 0.000000 0.032435 0.000000
# 6 0.000000 0.000000 0.000000 0.000000 0.000000 0.061745
#
#
# Mechanical properties :
#
#
# Convention : Reuss Voigt Hill
#
# Bulk Modulus (GPa) = 41.50742 68.93704 55.22223
# Shear Modulus (GPa) = 18.54064 23.37847 20.95955
#
# Velocity S-wave (km/s) = 3.37471 3.78951 3.58811
# Velocity P-wave (km/s) = 6.37817 7.84169 7.14749
#
# Compressibility (1/GPa) = 0.02409208
#
# Stress axis : x y z
#
# Youngs Moduli (GPa) = 21.78423 66.75030 71.79784
#
# Poissons Ratio (x) = 0.44327 1.06275
# Poissons Ratio (y) = 0.14466 0.28132
# Poissons Ratio (z) = 0.32245 0.26154
#
# Static dielectric constant tensor:
#      x y z
#    x 2.941590 0.000000 0.000000 
#    y 0.000000 2.975270 0.000000 
#    z 0.000000 0.000000 3.174970 
# 
# 
# High freq. dielectric constant tensor:
#      x y z
#    x 1.612590 0.000000 0.000000 
#    y 0.000000 1.612680 0.000000 
#    z 0.000000 0.000000 1.630100 
# 
# From -- ./inp_files/38488.got.cif
#   From: 2010.03.12/outbox.cif.g09.slc.cpg/sg64_20_cif.got.tgz:38488.got - 2010.04.10 20:19:32.
