data_PCOD8261295
_publ_section_title
;
Structure prediction by ZEFSAII (Michael W. Deem and Ramdas Pophale) SiO2 
 PCOD8261295
Probable space group: C M C M
;
_chemical_formula_sum "Si O2"
_cell_formula_units_Z 96
_cell_length_a 9.869814
_cell_length_b 19.924422
_cell_length_c 30.238283
_cell_angle_alpha 90.000000
_cell_angle_beta 90.000000
_cell_angle_gamma 90.000000
_cell_volume 5946.368609
_symmetry_space_group_name_H-M "C M C M"
_symmetry_group_IT_number 63
_symmetry_cell_setting 'orthorhombic'
loop_
_space_group_symop_operation_xyz
x,y,z
-x,-y,1/2+z
x,-y,-z
-x,y,1/2-z
-x,-y,-z
x,y,1/2-z
-x,y,z
x,-y,1/2+z
1/2+x,1/2+y,z
1/2-x,1/2-y,1/2+z
1/2+x,1/2-y,-z
1/2-x,1/2+y,1/2-z
1/2-x,1/2-y,-z
1/2+x,1/2+y,1/2-z
1/2-x,1/2+y,z
1/2+x,1/2-y,1/2+z
loop_
_atom_site_type_symbol
_atom_site_label
_atom_site_fract_x
_atom_site_fract_y
_atom_site_fract_z
Si Si1 0.154096 0.406666 0.198022
Si Si2 0.840483 0.184994 0.639386
Si Si3 0.839255 0.442004 0.700980
Si Si4 0.850560 0.826204 0.039975
Si Si5 0.161345 0.336384 0.869110
Si Si6 0.650895 0.833115 0.966382
O O1 0.164073 0.393754 0.250000
O O2 0.256637 0.357244 0.174281
O O3 0.199775 0.482641 0.186796
O O4 0.000000 0.393996 0.181801
O O5 0.807146 0.157712 0.590237
O O6 0.790666 0.261900 0.644121
O O7 0.000000 0.178559 0.649632
O O8 0.781357 0.425686 0.750000
O O9 0.776962 0.389480 0.665803
O O10 0.000000 0.435210 0.702317
O O11 0.746611 0.860498 0.005631
O O12 0.000000 0.855785 0.030576
O O13 0.854654 0.746865 0.033291
O O14 0.000000 0.337346 0.869619
O O15 0.210058 0.356223 0.918670
O O16 0.500000 0.862152 0.974413
#
# Coordination Sequence:
#
# PCOD8261295 Si02
#       6
#    16  16  16  16  16  16
#     4   9  18  31  45  62  85 113 143 173 208 254
#     4   9  17  28  44  67  90 111 139 177 215 248
#     4   8  14  26  44  63  83 110 142 174 211 254
#     4   8  14  24  37  57  86 113 136 165 203 249
#     4   8  14  25  42  66  90 108 137 182 218 244
#     4   8  13  22  38  60  84 108 135 170 209 245
#
# _framework density 16.144307999999999
#
# number of rings (size 3 to 8) (size 9 to 14) (size 15 to 20)
#    0.000    3.667    0.000    3.000    0.000    1.667 
#    0.000    4.167    0.000    3.000    0.000    7.000 
#    0.000    0.000    0.000    0.000    0.000    0.000 
#
# Total GULP energy -594817.655673 kJ/mol
# GULP energy per Si atom -12392.034493 kJ/mol
# Density = 1.610756 g / cm^3
# Si number density = 16.144308 Si / 1000 Ang^3
#
#
#
# Elastic Constant Matrix: (Units=GPa)
#
#
# Indices 1 2 3 4 5 6 
#
# 1 53.9736 32.8077 48.2840 0.0000 0.0000 0.0000
# 2 32.8077 64.4618 53.2166 0.0000 0.0000 0.0000
# 3 48.2840 53.2166 95.8692 0.0000 0.0000 0.0000
# 4 0.0000 0.0000 0.0000 3.8841 0.0000 0.0000
# 5 0.0000 0.0000 0.0000 0.0000 29.1803 0.0000
# 6 0.0000 0.0000 0.0000 0.0000 0.0000 14.9016
#
#
#
# Elastic Compliance Matrix: (Units=1/GPa)
#
#
# Indices 1 2 3 4 5 6 
#
# 1 0.034937 -0.006008 -0.014261 0.000000 0.000000 0.000000
# 2 -0.006008 0.029669 -0.013443 0.000000 0.000000 0.000000
# 3 -0.014261 -0.013443 0.025075 0.000000 0.000000 0.000000
# 4 0.000000 0.000000 0.000000 0.257462 0.000000 0.000000
# 5 0.000000 0.000000 0.000000 0.000000 0.034270 0.000000
# 6 0.000000 0.000000 0.000000 0.000000 0.000000 0.067107
#
#
# Mechanical properties :
#
#
# Convention : Reuss Voigt Hill
#
# Bulk Modulus (GPa) = 44.92892 53.65790 49.29341
# Shear Modulus (GPa) = 9.55359 14.92627 12.23993
#
# Velocity S-wave (km/s) = 2.43526 3.04395 2.75645
# Velocity P-wave (km/s) = 5.98308 6.75742 6.38201
#
# Compressibility (1/GPa) = 0.02225738
#
# Stress axis : x y z
#
# Youngs Moduli (GPa) = 28.62286 33.70539 39.87957
#
# Poissons Ratio (x) = 0.20251 0.56872
# Poissons Ratio (y) = 0.17197 0.53611
# Poissons Ratio (z) = 0.40819 0.45311
#
# Static dielectric constant tensor:
#      x y z
#    x 2.917040 0.000000 0.000000 
#    y 0.000000 2.855900 0.000000 
#    z 0.000000 0.000000 3.383300 
# 
# 
# High freq. dielectric constant tensor:
#      x y z
#    x 1.587990 0.000000 0.000000 
#    y 0.000000 1.584980 0.000000 
#    z 0.000000 0.000000 1.630740 
# 
# From -- ./inp_files/68335.got.cif
#   From: 2010.03.12/outbox.cif.g09.slc.cpg/sg63_35_cif.got.tgz:68335.got - 2010.04.10 19:34:48.
