data_PCOD8261817
_publ_section_title
;
Structure prediction by ZEFSAII (Michael W. Deem and Ramdas Pophale) SiO2 
 PCOD8261817
Probable space group: C M C A
;
_chemical_formula_sum "Si O2"
_cell_formula_units_Z 96
_cell_length_a 8.771010
_cell_length_b 30.169288
_cell_length_c 20.637140
_cell_angle_alpha 90.000000
_cell_angle_beta 90.000000
_cell_angle_gamma 90.000000
_cell_volume 5460.899417
_symmetry_space_group_name_H-M "C M C A"
_symmetry_group_IT_number 64
_symmetry_cell_setting 'orthorhombic'
loop_
_space_group_symop_operation_xyz
x,y,z
-x,1/2-y,1/2+z
x,-y,-z
-x,1/2+y,1/2-z
-x,-y,-z
x,1/2+y,1/2-z
-x,y,z
x,1/2-y,1/2+z
1/2+x,1/2+y,z
1/2-x,-y,1/2+z
1/2+x,1/2-y,-z
1/2-x,y,1/2-z
1/2-x,1/2-y,-z
1/2+x,y,1/2-z
1/2-x,1/2+y,z
1/2+x,-y,1/2+z
loop_
_atom_site_type_symbol
_atom_site_label
_atom_site_fract_x
_atom_site_fract_y
_atom_site_fract_z
Si Si1 0.821880 0.119978 0.983953
Si Si2 0.318641 0.006338 0.686647
Si Si3 0.680076 0.466348 0.946902
Si Si4 0.673261 0.692594 0.684867
Si Si5 0.323876 0.405691 0.354035
Si Si6 0.819382 0.789239 0.458461
O O1 0.781569 0.095987 0.917158
O O2 0.727267 0.164964 0.993157
O O3 0.000000 0.131648 0.985660
O O4 0.775438 0.084835 0.039765
O O5 0.500000 0.010197 0.689971
O O6 0.250000 0.981653 0.750000
O O7 0.242014 0.054756 0.688508
O O8 0.260787 0.979189 0.624233
O O9 0.500000 0.471687 0.950214
O O10 0.752748 0.500000 0.000000
O O11 0.500000 0.707705 0.688749
O O12 0.750000 0.712379 0.750000
O O13 0.691801 0.639676 0.685969
O O14 0.741456 0.711487 0.616479
O O15 0.500000 0.413523 0.373500
O O16 0.750000 0.750000 0.500000
O O17 0.000000 0.785871 0.458787
#
# Coordination Sequence:
#
# PCOD8261817 Si02
#       6
#    16  16  16  16  16  16
#     4  10  18  32  55  78 101 136 176 217 265 310
#     4  11  21  33  48  69 101 138 178 221 264 313
#     4   9  17  32  52  74 100 136 179 214 251 309
#     4   9  19  32  48  72 104 134 165 204 250 310
#     4  10  19  31  46  72 106 138 172 211 255 310
#     4  10  21  37  55  80 109 136 173 219 266 320
#
# _framework density 17.579522000000001
#
# number of rings (size 3 to 8) (size 9 to 14) (size 15 to 20)
#    0.000    2.167    1.667    3.500    0.000    5.333 
#    0.000    4.167    0.000    1.000    0.000    2.333 
#    0.000    0.000    0.000    0.000    0.000    0.000 
#
# Total GULP energy -594974.511952 kJ/mol
# GULP energy per Si atom -12395.302332 kJ/mol
# Density = 1.753951 g / cm^3
# Si number density = 17.579522 Si / 1000 Ang^3
#
#
#
# Elastic Constant Matrix: (Units=GPa)
#
#
# Indices 1 2 3 4 5 6 
#
# 1 55.2082 32.8294 34.3827 0.0000 0.0000 0.0000
# 2 32.8294 82.2513 73.6674 0.0000 0.0000 0.0000
# 3 34.3827 73.6674 138.4860 0.0000 0.0000 0.0000
# 4 0.0000 0.0000 0.0000 19.8688 0.0000 0.0000
# 5 0.0000 0.0000 0.0000 0.0000 29.2137 0.0000
# 6 0.0000 0.0000 0.0000 0.0000 0.0000 21.2281
#
#
#
# Elastic Compliance Matrix: (Units=1/GPa)
#
#
# Indices 1 2 3 4 5 6 
#
# 1 0.023945 -0.008084 -0.001644 0.000000 0.000000 0.000000
# 2 -0.008084 0.025951 -0.011797 0.000000 0.000000 0.000000
# 3 -0.001644 -0.011797 0.013905 0.000000 0.000000 0.000000
# 4 0.000000 0.000000 0.000000 0.050330 0.000000 0.000000
# 5 0.000000 0.000000 0.000000 0.000000 0.034230 0.000000
# 6 0.000000 0.000000 0.000000 0.000000 0.000000 0.047107
#
#
# Mechanical properties :
#
#
# Convention : Reuss Voigt Hill
#
# Bulk Modulus (GPa) = 48.19734 61.96716 55.08225
# Shear Modulus (GPa) = 20.37185 23.06651 21.71918
#
# Velocity S-wave (km/s) = 3.40787 3.62625 3.51876
# Velocity P-wave (km/s) = 6.55447 7.27043 6.92171
#
# Compressibility (1/GPa) = 0.02074803
#
# Stress axis : x y z
#
# Youngs Moduli (GPa) = 41.76280 38.53451 71.91783
#
# Poissons Ratio (x) = 0.31153 0.11826
# Poissons Ratio (y) = 0.33763 0.84844
# Poissons Ratio (z) = 0.06867 0.45460
#
# Static dielectric constant tensor:
#      x y z
#    x 3.171130 0.000000 0.000000 
#    y 0.000000 3.134160 0.000000 
#    z 0.000000 0.000000 3.488460 
# 
# 
# High freq. dielectric constant tensor:
#      x y z
#    x 1.674780 0.000000 0.000000 
#    y 0.000000 1.649430 0.000000 
#    z 0.000000 0.000000 1.680880 
# 
# From -- ./inp_files/37029.got.cif
#   From: 2010.03.12/outbox.cif.g09.slc.cpg/sg64_19_cif.got.tgz:37029.got - 2010.04.10 20:19:32.
