data_PCOD8261078
_publ_section_title
;
Structure prediction by ZEFSAII (Michael W. Deem and Ramdas Pophale) SiO2 
 PCOD8261078
Probable space group: C M C M
;
_chemical_formula_sum "Si O2"
_cell_formula_units_Z 96
_cell_length_a 18.549423
_cell_length_b 32.699547
_cell_length_c 8.914637
_cell_angle_alpha 90.000000
_cell_angle_beta 90.000000
_cell_angle_gamma 90.000000
_cell_volume 5407.241975
_symmetry_space_group_name_H-M "C M C M"
_symmetry_group_IT_number 63
_symmetry_cell_setting 'orthorhombic'
loop_
_space_group_symop_operation_xyz
x,y,z
-x,-y,1/2+z
x,-y,-z
-x,y,1/2-z
-x,-y,-z
x,y,1/2-z
-x,y,z
x,-y,1/2+z
1/2+x,1/2+y,z
1/2-x,1/2-y,1/2+z
1/2+x,1/2-y,-z
1/2-x,1/2+y,1/2-z
1/2-x,1/2-y,-z
1/2+x,1/2+y,1/2-z
1/2-x,1/2+y,z
1/2+x,1/2-y,1/2+z
loop_
_atom_site_type_symbol
_atom_site_label
_atom_site_fract_x
_atom_site_fract_y
_atom_site_fract_z
Si Si1 0.148381 0.163489 0.575881
Si Si2 0.784420 0.958139 0.927707
Si Si3 0.789064 0.383203 0.075236
Si Si4 0.083820 0.245682 0.575775
Si Si5 0.082016 0.919576 0.426916
Si Si6 0.418943 0.171085 0.573480
O O1 0.131454 0.168281 0.750000
O O2 0.231589 0.152947 0.543569
O O3 0.126757 0.207052 0.503076
O O4 0.098334 0.126467 0.515600
O O5 0.784989 0.961704 0.750000
O O6 0.729323 0.922685 0.977092
O O7 0.865553 0.950346 0.986205
O O8 0.755703 0.000000 0.000000
O O9 0.786620 0.395730 0.250000
O O10 0.867089 0.366276 0.025572
O O11 0.100854 0.251351 0.750000
O O12 0.110268 0.286863 0.495834
O O13 0.000000 0.237781 0.545254
O O14 0.098490 0.923165 0.250000
O O15 0.000000 0.931264 0.465150
O O16 0.416782 0.176856 0.750000
O O17 0.500000 0.161019 0.516720
#
# Coordination Sequence:
#
# PCOD8261078 Si02
#       6
#    16  16  16  16  16  16
#     4   8  14  26  45  68  94 129 170 205 237 274
#     4  11  22  36  54  75  99 125 156 196 242 292
#     4   9  18  34  53  71  94 125 161 200 243 293
#     4   9  16  26  42  65  94 129 168 205 237 275
#     4   9  17  31  51  73 100 136 174 207 239 277
#     4   9  18  32  49  70  97 128 159 195 245 298
#
# _framework density 17.753968
#
# number of rings (size 3 to 8) (size 9 to 14) (size 15 to 20)
#    0.000    2.833    0.000    3.000    0.000    4.000 
#    0.000    3.333    0.000    4.500    0.000    0.000 
#    0.000    0.000    0.000    0.000    0.000    0.000 
#
# Total GULP energy -595065.778812 kJ/mol
# GULP energy per Si atom -12397.203725 kJ/mol
# Density = 1.771356 g / cm^3
# Si number density = 17.753968 Si / 1000 Ang^3
#
#
#
# Elastic Constant Matrix: (Units=GPa)
#
#
# Indices 1 2 3 4 5 6 
#
# 1 78.2398 59.6020 33.2482 0.0000 0.0000 0.0000
# 2 59.6020 121.8571 47.7282 0.0000 0.0000 0.0000
# 3 33.2482 47.7282 61.9375 0.0000 0.0000 0.0000
# 4 0.0000 0.0000 0.0000 27.6981 0.0000 0.0000
# 5 0.0000 0.0000 0.0000 0.0000 18.4107 0.0000
# 6 0.0000 0.0000 0.0000 0.0000 0.0000 16.9557
#
#
#
# Elastic Compliance Matrix: (Units=1/GPa)
#
#
# Indices 1 2 3 4 5 6 
#
# 1 0.021359 -0.008531 -0.004892 0.000000 0.000000 0.000000
# 2 -0.008531 0.015161 -0.007104 0.000000 0.000000 0.000000
# 3 -0.004892 -0.007104 0.024245 0.000000 0.000000 0.000000
# 4 0.000000 0.000000 0.000000 0.036104 0.000000 0.000000
# 5 0.000000 0.000000 0.000000 0.000000 0.054316 0.000000
# 6 0.000000 0.000000 0.000000 0.000000 0.000000 0.058977
#
#
# Mechanical properties :
#
#
# Convention : Reuss Voigt Hill
#
# Bulk Modulus (GPa) = 50.72864 60.35461 55.54162
# Shear Modulus (GPa) = 19.39598 20.70995 20.05297
#
# Velocity S-wave (km/s) = 3.30887 3.41911 3.36444
# Velocity P-wave (km/s) = 6.57520 7.04669 6.81503
#
# Compressibility (1/GPa) = 0.01971273
#
# Stress axis : x y z
#
# Youngs Moduli (GPa) = 46.81946 65.95771 41.24548
#
# Poissons Ratio (x) = 0.56268 0.20176
# Poissons Ratio (y) = 0.39941 0.29299
# Poissons Ratio (z) = 0.22902 0.46854
#
# Static dielectric constant tensor:
#      x y z
#    x 3.318370 0.000000 0.000000 
#    y 0.000000 3.349410 0.000000 
#    z 0.000000 0.000000 3.042190 
# 
# 
# High freq. dielectric constant tensor:
#      x y z
#    x 1.674570 0.000000 0.000000 
#    y 0.000000 1.685150 0.000000 
#    z 0.000000 0.000000 1.662020 
# 
# From -- ./inp_files/8538.got.cif
#   From: 2010.03.12/outbox.cif.g09.slc.cpg/sg63_5_cif.got.tgz:8538.got - 2010.04.10 19:34:48.
