data_PCOD8261170
_publ_section_title
;
Structure prediction by ZEFSAII (Michael W. Deem and Ramdas Pophale) SiO2 
 PCOD8261170
Probable space group: C M C M
;
_chemical_formula_sum "Si O2"
_cell_formula_units_Z 64
_cell_length_a 20.393684
_cell_length_b 10.139096
_cell_length_c 15.790640
_cell_angle_alpha 90.000000
_cell_angle_beta 90.000000
_cell_angle_gamma 90.000000
_cell_volume 3265.086214
_symmetry_space_group_name_H-M "C M C M"
_symmetry_group_IT_number 63
_symmetry_cell_setting 'orthorhombic'
loop_
_space_group_symop_operation_xyz
x,y,z
-x,-y,1/2+z
x,-y,-z
-x,y,1/2-z
-x,-y,-z
x,y,1/2-z
-x,y,z
x,-y,1/2+z
1/2+x,1/2+y,z
1/2-x,1/2-y,1/2+z
1/2+x,1/2-y,-z
1/2-x,1/2+y,1/2-z
1/2-x,1/2-y,-z
1/2+x,1/2+y,1/2-z
1/2-x,1/2+y,z
1/2+x,1/2-y,1/2+z
loop_
_atom_site_type_symbol
_atom_site_label
_atom_site_fract_x
_atom_site_fract_y
_atom_site_fract_z
Si Si1 0.243403 0.122211 0.943156
Si Si2 0.868990 0.523938 0.848362
Si Si3 0.000000 0.390320 0.428041
Si Si4 0.500000 0.640662 0.957228
Si Si5 0.377602 0.280204 0.151051
O O1 0.189507 0.144607 0.870529
O O2 0.312922 0.096092 0.900521
O O3 0.250000 0.250000 0.000000
O O4 0.220204 0.000000 0.000000
O O5 0.852630 0.536960 0.750000
O O6 0.872260 0.372002 0.876844
O O7 0.937168 0.594742 0.868233
O O8 0.000000 0.500000 0.500000
O O9 0.000000 0.246503 0.468001
O O10 0.436411 0.653347 0.899147
O O11 0.500000 0.500000 0.000000
O O12 0.392310 0.293325 0.250000
#
# Coordination Sequence:
#
# PCOD8261170 Si02
#       5
#    16  16   8   8  16
#     4  12  23  41  63  93 129 166 212 258 313 374
#     4  11  23  41  65  97 127 164 215 263 312 374
#     4  12  21  41  69  93 122 163 216 259 310 375
#     4  12  25  43  65  97 130 162 210 263 319 379
#     4  11  23  42  66  94 128 169 210 259 319 377
#
# _framework density 19.601320999999999
#
# number of rings (size 3 to 8) (size 9 to 14) (size 15 to 20)
#    0.000    0.500    5.000    4.500    0.000    2.000 
#    0.000    5.000    0.000    0.000    0.000    0.000 
#    0.000    0.000    0.000    0.000    0.000    0.000 
#
# Total GULP energy -397053.444604 kJ/mol
# GULP energy per Si atom -12407.920144 kJ/mol
# Density = 1.955671 g / cm^3
# Si number density = 19.601321 Si / 1000 Ang^3
#
#
#
# Elastic Constant Matrix: (Units=GPa)
#
#
# Indices 1 2 3 4 5 6 
#
# 1 165.8196 61.3364 58.2595 0.0000 0.0000 0.0000
# 2 61.3364 155.8265 67.5055 0.0000 0.0000 0.0000
# 3 58.2595 67.5055 93.2845 0.0000 0.0000 0.0000
# 4 0.0000 0.0000 0.0000 36.1219 0.0000 0.0000
# 5 0.0000 0.0000 0.0000 0.0000 40.8922 0.0000
# 6 0.0000 0.0000 0.0000 0.0000 0.0000 34.5800
#
#
#
# Elastic Compliance Matrix: (Units=1/GPa)
#
#
# Indices 1 2 3 4 5 6 
#
# 1 0.007937 -0.001423 -0.003927 0.000000 0.000000 0.000000
# 2 -0.001423 0.009603 -0.006061 0.000000 0.000000 0.000000
# 3 -0.003927 -0.006061 0.017558 0.000000 0.000000 0.000000
# 4 0.000000 0.000000 0.000000 0.027684 0.000000 0.000000
# 5 0.000000 0.000000 0.000000 0.000000 0.024455 0.000000
# 6 0.000000 0.000000 0.000000 0.000000 0.000000 0.028918
#
#
# Mechanical properties :
#
#
# Convention : Reuss Voigt Hill
#
# Bulk Modulus (GPa) = 81.45395 87.68147 84.56771
# Shear Modulus (GPa) = 34.94831 37.50743 36.22787
#
# Velocity S-wave (km/s) = 4.22709 4.37912 4.30378
# Velocity P-wave (km/s) = 8.09135 8.39038 8.24222
#
# Compressibility (1/GPa) = 0.01227688
#
# Stress axis : x y z
#
# Youngs Moduli (GPa) = 125.99669 104.13487 56.95295
#
# Poissons Ratio (x) = 0.14816 0.22367
# Poissons Ratio (y) = 0.17926 0.34517
# Poissons Ratio (z) = 0.49481 0.63112
#
# Static dielectric constant tensor:
#      x y z
#    x 3.633670 0.000000 0.000000 
#    y 0.000000 3.677560 0.000000 
#    z 0.000000 0.000000 3.224410 
# 
# 
# High freq. dielectric constant tensor:
#      x y z
#    x 1.782450 0.000000 0.000000 
#    y 0.000000 1.763750 0.000000 
#    z 0.000000 0.000000 1.776030 
# 
# From -- ./inp_files/33411.got.cif
#   From: 2010.03.12/outbox.cif.g09.slc.cpg/sg63_17_cif.got.tgz:33411.got - 2010.04.10 19:34:48.
