data_PCOD8261485
_publ_section_title
;
Structure prediction by ZEFSAII (Michael W. Deem and Ramdas Pophale) SiO2 
 PCOD8261485
Probable space group: C M C A
;
_chemical_formula_sum "Si O2"
_cell_formula_units_Z 80
_cell_length_a 8.735370
_cell_length_b 18.347824
_cell_length_c 26.041634
_cell_angle_alpha 90.000000
_cell_angle_beta 90.000000
_cell_angle_gamma 90.000000
_cell_volume 4173.823705
_symmetry_space_group_name_H-M "C M C A"
_symmetry_group_IT_number 64
_symmetry_cell_setting 'orthorhombic'
loop_
_space_group_symop_operation_xyz
x,y,z
-x,1/2-y,1/2+z
x,-y,-z
-x,1/2+y,1/2-z
-x,-y,-z
x,1/2+y,1/2-z
-x,y,z
x,1/2-y,1/2+z
1/2+x,1/2+y,z
1/2-x,-y,1/2+z
1/2+x,1/2-y,-z
1/2-x,y,1/2-z
1/2-x,1/2-y,-z
1/2+x,y,1/2-z
1/2-x,1/2+y,z
1/2+x,-y,1/2+z
loop_
_atom_site_type_symbol
_atom_site_label
_atom_site_fract_x
_atom_site_fract_y
_atom_site_fract_z
Si Si1 0.678817 0.416713 0.593877
Si Si2 0.321134 0.170814 0.499149
Si Si3 0.679808 0.080707 0.301428
Si Si4 0.825862 0.587399 0.911316
Si Si5 0.322429 0.923312 0.201533
O O1 0.500000 0.401438 0.595766
O O2 0.750369 0.375642 0.546283
O O3 0.750545 0.384944 0.646525
O O4 0.714502 0.502093 0.587086
O O5 0.500000 0.177612 0.490394
O O6 0.250000 0.250000 0.500000
O O7 0.289424 0.131119 0.552983
O O8 0.500000 0.092969 0.301621
O O9 0.750000 0.118322 0.250000
O O10 0.722057 0.995979 0.301030
O O11 0.805570 0.617948 0.852934
O O12 0.000000 0.599918 0.930260
O O13 0.500000 0.943231 0.211051
O O14 0.250000 0.877838 0.250000
#
# Coordination Sequence:
#
# PCOD8261485 Si02
#       5
#    16  16  16  16  16
#     4  10  20  36  57  81 110 141 175 219 268 315
#     4  12  25  39  56  77 104 140 180 222 269 321
#     4  10  17  27  46  75 109 141 175 214 259 310
#     4   9  19  35  55  80 110 142 175 217 266 313
#     4   9  16  27  46  74 108 141 172 212 261 309
#
# _framework density 19.167076000000002
#
# number of rings (size 3 to 8) (size 9 to 14) (size 15 to 20)
#    0.000    2.000    0.000    7.800    0.000    7.200 
#    0.000    0.000    0.000    1.200    0.000    5.600 
#    0.000    0.000    0.000    0.000    0.000    0.000 
#
# Total GULP energy -495825.313069 kJ/mol
# GULP energy per Si atom -12395.632827 kJ/mol
# Density = 1.912345 g / cm^3
# Si number density = 19.167076 Si / 1000 Ang^3
#
#
#
# Elastic Constant Matrix: (Units=GPa)
#
#
# Indices 1 2 3 4 5 6 
#
# 1 150.6759 42.0292 73.9707 0.0000 0.0000 0.0000
# 2 42.0292 46.0999 44.4856 0.0000 0.0000 0.0000
# 3 73.9707 44.4856 173.3974 0.0000 0.0000 0.0000
# 4 0.0000 0.0000 0.0000 -4.4246 0.0000 0.0000
# 5 0.0000 0.0000 0.0000 0.0000 43.2025 0.0000
# 6 0.0000 0.0000 0.0000 0.0000 0.0000 22.9654
#
#
#
# Elastic Compliance Matrix: (Units=1/GPa)
#
#
# Indices 1 2 3 4 5 6 
#
# 1 0.009634 -0.006402 -0.002467 0.000000 0.000000 0.000000
# 2 -0.006402 0.033084 -0.005757 0.000000 0.000000 0.000000
# 3 -0.002467 -0.005757 0.008296 0.000000 0.000000 0.000000
# 4 0.000000 0.000000 0.000000 -0.226008 0.000000 0.000000
# 5 0.000000 0.000000 0.000000 0.000000 0.023147 0.000000
# 6 0.000000 0.000000 0.000000 0.000000 0.000000 0.043544
#
#
# Mechanical properties :
#
#
# Convention : Reuss Voigt Hill
#
# Bulk Modulus (GPa) = 45.95156 76.79379 61.37267
# Shear Modulus (GPa) = -69.64065 26.32784 -21.65641
#
# Velocity S-wave (km/s) = -6.03426 3.71023 -3.36501
# Velocity P-wave (km/s) = 4.95212 7.64898 4.12209
#
# Compressibility (1/GPa) = 0.02176205
#
# Stress axis : x y z
#
# Youngs Moduli (GPa) = 103.80089 30.22610 120.53301
#
# Poissons Ratio (x) = 0.19352 0.29738
# Poissons Ratio (y) = 0.66456 0.69386
# Poissons Ratio (z) = 0.25610 0.17400
#
# Static dielectric constant tensor:
#      x y z
#    x 3.630660 0.000000 0.000000 
#    y 0.000000 2.988240 0.000000 
#    z 0.000000 0.000000 4.391890 
# 
# 
# High freq. dielectric constant tensor:
#      x y z
#    x 1.759410 0.000000 0.000000 
#    y 0.000000 1.677870 0.000000 
#    z 0.000000 0.000000 1.779400 
# 
# From -- ./inp_files/47859.got.cif
#   From: 2010.03.12/outbox.cif.g09.slc.cpg/sg64_24_cif.got.tgz:47859.got - 2010.04.10 20:19:32.
