data_PCOD8261293
_publ_section_title
;
Structure prediction by ZEFSAII (Michael W. Deem and Ramdas Pophale) SiO2 
 PCOD8261293
Probable space group: C M C M
;
_chemical_formula_sum "Si O2"
_cell_formula_units_Z 96
_cell_length_a 18.829255
_cell_length_b 32.874027
_cell_length_c 9.332204
_cell_angle_alpha 90.000000
_cell_angle_beta 90.000000
_cell_angle_gamma 90.000000
_cell_volume 5776.573031
_symmetry_space_group_name_H-M "C M C M"
_symmetry_group_IT_number 63
_symmetry_cell_setting 'orthorhombic'
loop_
_space_group_symop_operation_xyz
x,y,z
-x,-y,1/2+z
x,-y,-z
-x,y,1/2-z
-x,-y,-z
x,y,1/2-z
-x,y,z
x,-y,1/2+z
1/2+x,1/2+y,z
1/2-x,1/2-y,1/2+z
1/2+x,1/2-y,-z
1/2-x,1/2+y,1/2-z
1/2-x,1/2-y,-z
1/2+x,1/2+y,1/2-z
1/2-x,1/2+y,z
1/2+x,1/2-y,1/2+z
loop_
_atom_site_type_symbol
_atom_site_label
_atom_site_fract_x
_atom_site_fract_y
_atom_site_fract_z
Si Si1 0.080212 0.827454 0.581347
Si Si2 0.849148 0.334987 0.920420
Si Si3 0.917484 0.746835 0.415382
Si Si4 0.210844 0.121963 0.080574
Si Si5 0.717986 0.040498 0.080289
Si Si6 0.578035 0.084485 0.420102
O O1 0.086579 0.819925 0.750000
O O2 0.104556 0.786296 0.504749
O O3 0.132684 0.863702 0.530188
O O4 0.000000 0.839836 0.537483
O O5 0.853355 0.333318 0.750000
O O6 0.873496 0.291221 0.980191
O O7 0.769635 0.345620 0.974809
O O8 0.901497 0.370558 0.976814
O O9 0.898893 0.755217 0.250000
O O10 0.000000 0.736554 0.434762
O O11 0.216384 0.121066 0.250000
O O12 0.228820 0.076394 0.027266
O O13 0.722919 0.033636 0.250000
O O14 0.637593 0.051969 0.031779
O O15 0.742348 0.000000 0.000000
O O16 0.576732 0.085700 0.250000
O O17 0.500000 0.072404 0.480959
#
# Coordination Sequence:
#
# PCOD8261293 Si02
#       6
#    16  16  16  16  16  16
#     4   9  17  29  44  60  79 106 137 166 199 240
#     4   8  13  22  38  59  82 109 140 170 195 222
#     4   9  16  25  39  61  86 109 135 168 201 229
#     4   8  15  28  44  61  80 104 136 168 196 234
#     4   9  17  29  45  63  82 104 130 163 202 241
#     4   8  13  22  38  60  83 108 139 168 191 223
#
# _framework density 16.618849000000001
#
# number of rings (size 3 to 8) (size 9 to 14) (size 15 to 20)
#    0.000    3.500    0.000    2.500    0.000    3.000 
#    0.000    0.833    0.000    4.500    0.000    0.000 
#    0.000    0.000    0.000    0.000    0.000    0.000 
#
# Total GULP energy -594782.833783 kJ/mol
# GULP energy per Si atom -12391.309037 kJ/mol
# Density = 1.658102 g / cm^3
# Si number density = 16.618849 Si / 1000 Ang^3
#
#
#
# Elastic Constant Matrix: (Units=GPa)
#
#
# Indices 1 2 3 4 5 6 
#
# 1 97.8517 79.6326 19.3267 0.0000 0.0000 0.0000
# 2 79.6326 140.0803 28.9820 0.0000 0.0000 0.0000
# 3 19.3267 28.9820 18.6426 0.0000 0.0000 0.0000
# 4 0.0000 0.0000 0.0000 23.4953 0.0000 0.0000
# 5 0.0000 0.0000 0.0000 0.0000 10.2712 0.0000
# 6 0.0000 0.0000 0.0000 0.0000 0.0000 20.1091
#
#
#
# Elastic Compliance Matrix: (Units=1/GPa)
#
#
# Indices 1 2 3 4 5 6 
#
# 1 0.019253 -0.010047 -0.004341 0.000000 0.000000 0.000000
# 2 -0.010047 0.015766 -0.014095 0.000000 0.000000 0.000000
# 3 -0.004341 -0.014095 0.080052 0.000000 0.000000 0.000000
# 4 0.000000 0.000000 0.000000 0.042562 0.000000 0.000000
# 5 0.000000 0.000000 0.000000 0.000000 0.097359 0.000000
# 6 0.000000 0.000000 0.000000 0.000000 0.000000 0.049729
#
#
# Mechanical properties :
#
#
# Convention : Reuss Voigt Hill
#
# Bulk Modulus (GPa) = 17.20961 56.93969 37.07465
# Shear Modulus (GPa) = 13.12143 19.35067 16.23605
#
# Velocity S-wave (km/s) = 2.81294 3.41600 3.12904
# Velocity P-wave (km/s) = 4.57473 7.06366 5.95077
#
# Compressibility (1/GPa) = 0.05810707
#
# Stress axis : x y z
#
# Youngs Moduli (GPa) = 51.93947 63.42584 12.49181
#
# Poissons Ratio (x) = 0.63724 0.05422
# Poissons Ratio (y) = 0.52183 0.17607
# Poissons Ratio (z) = 0.22545 0.89399
#
# Static dielectric constant tensor:
#      x y z
#    x 3.406660 0.000000 0.000000 
#    y 0.000000 3.172820 0.000000 
#    z 0.000000 0.000000 2.630490 
# 
# 
# High freq. dielectric constant tensor:
#      x y z
#    x 1.636710 0.000000 0.000000 
#    y 0.000000 1.635640 0.000000 
#    z 0.000000 0.000000 1.585570 
# 
# From -- ./inp_files/21513.got.cif
#   From: 2010.03.12/outbox.cif.g09.slc.cpg/sg63_11_cif.got.tgz:21513.got - 2010.04.10 19:34:48.
