data_PCOD8261226
_publ_section_title
;
Structure prediction by ZEFSAII (Michael W. Deem and Ramdas Pophale) SiO2 
 PCOD8261226
Probable space group: C M C M
;
_chemical_formula_sum "Si O2"
_cell_formula_units_Z 48
_cell_length_a 9.013379
_cell_length_b 21.696001
_cell_length_c 12.536508
_cell_angle_alpha 90.000000
_cell_angle_beta 90.000000
_cell_angle_gamma 90.000000
_cell_volume 2451.567793
_symmetry_space_group_name_H-M "C M C M"
_symmetry_group_IT_number 63
_symmetry_cell_setting 'orthorhombic'
loop_
_space_group_symop_operation_xyz
x,y,z
-x,-y,1/2+z
x,-y,-z
-x,y,1/2-z
-x,-y,-z
x,y,1/2-z
-x,y,z
x,-y,1/2+z
1/2+x,1/2+y,z
1/2-x,1/2-y,1/2+z
1/2+x,1/2-y,-z
1/2-x,1/2+y,1/2-z
1/2-x,1/2-y,-z
1/2+x,1/2+y,1/2-z
1/2-x,1/2+y,z
1/2+x,1/2-y,1/2+z
loop_
_atom_site_type_symbol
_atom_site_label
_atom_site_fract_x
_atom_site_fract_y
_atom_site_fract_z
Si Si1 0.666845 0.857058 0.867950
Si Si2 0.827342 0.067516 0.959567
Si Si3 0.674586 0.886984 0.250000
Si Si4 0.666631 0.260772 0.250000
O O1 0.689463 0.887585 0.750000
O O2 0.500000 0.871303 0.909122
O O3 0.688040 0.782806 0.854807
O O4 0.785715 0.882931 0.950259
O O5 0.737165 0.079138 0.852945
O O6 0.000000 0.074276 0.934301
O O7 0.785054 0.000000 0.000000
O O8 0.500000 0.893231 0.250000
O O9 0.715175 0.814958 0.250000
O O10 0.500000 0.288874 0.250000
#
# Coordination Sequence:
#
# PCOD8261226 Si02
#       4
#    16  16   8   8
#     4   8  18  38  64  92 120 156 199 244 298 353
#     4  11  25  42  62  88 123 163 202 248 301 360
#     4  12  26  41  62  91 121 158 204 250 301 356
#     4   8  18  39  64  91 125 156 196 250 299 358
#
# _framework density 19.579308000000001
#
# number of rings (size 3 to 8) (size 9 to 14) (size 15 to 20)
#    1.000    1.333    0.000    2.500    2.333    6.000 
#    0.000    0.000    0.000    0.000    0.000    0.000 
#    0.000    0.000    0.000    0.000    0.000    0.000 
#
# Total GULP energy -297477.173286 kJ/mol
# GULP energy per Si atom -12394.882220 kJ/mol
# Density = 1.953474 g / cm^3
# Si number density = 19.579308 Si / 1000 Ang^3
#
#
#
# Elastic Constant Matrix: (Units=GPa)
#
#
# Indices 1 2 3 4 5 6 
#
# 1 133.0442 71.0433 76.3940 0.0000 0.0000 0.0000
# 2 71.0433 106.6137 63.1337 0.0000 0.0000 0.0000
# 3 76.3940 63.1337 126.5682 0.0000 0.0000 0.0000
# 4 0.0000 0.0000 0.0000 27.6724 0.0000 0.0000
# 5 0.0000 0.0000 0.0000 0.0000 41.4462 0.0000
# 6 0.0000 0.0000 0.0000 0.0000 0.0000 33.8966
#
#
#
# Elastic Compliance Matrix: (Units=1/GPa)
#
#
# Indices 1 2 3 4 5 6 
#
# 1 0.013794 -0.006048 -0.005309 0.000000 0.000000 0.000000
# 2 -0.006048 0.015964 -0.004312 0.000000 0.000000 0.000000
# 3 -0.005309 -0.004312 0.013256 0.000000 0.000000 0.000000
# 4 0.000000 0.000000 0.000000 0.036137 0.000000 0.000000
# 5 0.000000 0.000000 0.000000 0.000000 0.024128 0.000000
# 6 0.000000 0.000000 0.000000 0.000000 0.000000 0.029501
#
#
# Mechanical properties :
#
#
# Convention : Reuss Voigt Hill
#
# Bulk Modulus (GPa) = 85.65150 87.48535 86.56842
# Shear Modulus (GPa) = 29.75991 30.98006 30.36999
#
# Velocity S-wave (km/s) = 3.90291 3.98211 3.94271
# Velocity P-wave (km/s) = 8.00944 8.11927 8.06454
#
# Compressibility (1/GPa) = 0.01167522
#
# Stress axis : x y z
#
# Youngs Moduli (GPa) = 72.49312 62.64288 75.43544
#
# Poissons Ratio (x) = 0.37887 0.40050
# Poissons Ratio (y) = 0.43845 0.32530
# Poissons Ratio (z) = 0.38488 0.27013
#
# Static dielectric constant tensor:
#      x y z
#    x 3.448350 0.000000 0.000000 
#    y 0.000000 3.460790 0.000000 
#    z 0.000000 0.000000 3.389300 
# 
# 
# High freq. dielectric constant tensor:
#      x y z
#    x 1.764330 0.000000 0.000000 
#    y 0.000000 1.757720 0.000000 
#    z 0.000000 0.000000 1.758910 
# 
# From -- ./inp_files/15719.got.cif
#   From: 2010.03.12/outbox.cif.g09.slc.cpg/sg63_8_cif.got.tgz:15719.got - 2010.04.10 19:34:48.
