data_PCOD8261613
_publ_section_title
;
Structure prediction by ZEFSAII (Michael W. Deem and Ramdas Pophale) SiO2 
 PCOD8261613
Probable space group: C M C A
;
_chemical_formula_sum "Si O2"
_cell_formula_units_Z 96
_cell_length_a 18.458879
_cell_length_b 14.100132
_cell_length_c 20.048709
_cell_angle_alpha 90.000000
_cell_angle_beta 90.000000
_cell_angle_gamma 90.000000
_cell_volume 5218.130229
_symmetry_space_group_name_H-M "C M C A"
_symmetry_group_IT_number 64
_symmetry_cell_setting 'orthorhombic'
loop_
_space_group_symop_operation_xyz
x,y,z
-x,1/2-y,1/2+z
x,-y,-z
-x,1/2+y,1/2-z
-x,-y,-z
x,1/2+y,1/2-z
-x,y,z
x,1/2-y,1/2+z
1/2+x,1/2+y,z
1/2-x,-y,1/2+z
1/2+x,1/2-y,-z
1/2-x,y,1/2-z
1/2-x,1/2-y,-z
1/2+x,y,1/2-z
1/2-x,1/2+y,z
1/2+x,-y,1/2+z
loop_
_atom_site_type_symbol
_atom_site_label
_atom_site_fract_x
_atom_site_fract_y
_atom_site_fract_z
Si Si1 0.583373 0.980661 0.927990
Si Si2 0.082844 0.333473 0.702133
Si Si3 0.417228 0.614229 0.689308
Si Si4 0.144021 0.826094 0.650618
Si Si5 0.310060 0.135303 0.699107
Si Si6 0.278337 0.564240 0.175632
O O1 0.500000 0.007266 0.934627
O O2 0.592034 0.869623 0.906508
O O3 0.615865 0.051854 0.871409
O O4 0.620646 0.000000 0.000000
O O5 0.090894 0.226149 0.675602
O O6 0.104093 0.344346 0.779440
O O7 0.140879 0.395565 0.661042
O O8 0.000000 0.368867 0.691578
O O9 0.500000 0.585770 0.702970
O O10 0.373806 0.588544 0.756457
O O11 0.160289 0.713508 0.647143
O O12 0.219013 0.880218 0.632816
O O13 0.250000 0.181208 0.750000
O O14 0.276759 0.047842 0.657696
O O15 0.250000 0.581845 0.250000
#
# Coordination Sequence:
#
# PCOD8261613 Si02
#       6
#    16  16  16  16  16  16
#     4  10  20  33  49  69  95 129 164 195 229 275
#     4   9  16  27  45  69  95 122 152 192 242 288
#     4   9  17  28  44  67  93 121 156 195 234 278
#     4  10  18  29  45  66  93 122 156 195 236 280
#     4  10  18  28  45  70  98 124 151 191 242 288
#     4   9  17  27  43  66  94 126 152 185 233 284
#
# _framework density 18.397393000000001
#
# number of rings (size 3 to 8) (size 9 to 14) (size 15 to 20)
#    0.000    2.500    0.000    6.000    0.000    2.667 
#    0.000    0.000    0.000    9.000    0.000    0.000 
#    0.000    6.000    0.000    0.000    0.000    0.000 
#
# Total GULP energy -594689.962675 kJ/mol
# GULP energy per Si atom -12389.374222 kJ/mol
# Density = 1.835552 g / cm^3
# Si number density = 18.397393 Si / 1000 Ang^3
#
#
#
# Elastic Constant Matrix: (Units=GPa)
#
#
# Indices 1 2 3 4 5 6 
#
# 1 73.3575 28.1736 15.4728 0.0000 0.0000 0.0000
# 2 28.1736 94.0858 34.3954 0.0000 0.0000 0.0000
# 3 15.4728 34.3954 50.0512 0.0000 0.0000 0.0000
# 4 0.0000 0.0000 0.0000 17.8119 0.0000 0.0000
# 5 0.0000 0.0000 0.0000 0.0000 10.2858 0.0000
# 6 0.0000 0.0000 0.0000 0.0000 0.0000 27.5670
#
#
#
# Elastic Compliance Matrix: (Units=1/GPa)
#
#
# Indices 1 2 3 4 5 6 
#
# 1 0.015575 -0.003878 -0.002150 0.000000 0.000000 0.000000
# 2 -0.003878 0.015160 -0.009219 0.000000 0.000000 0.000000
# 3 -0.002150 -0.009219 0.026980 0.000000 0.000000 0.000000
# 4 0.000000 0.000000 0.000000 0.056142 0.000000 0.000000
# 5 0.000000 0.000000 0.000000 0.000000 0.097221 0.000000
# 6 0.000000 0.000000 0.000000 0.000000 0.000000 0.036275
#
#
# Mechanical properties :
#
#
# Convention : Reuss Voigt Hill
#
# Bulk Modulus (GPa) = 36.73710 41.50869 39.12289
# Shear Modulus (GPa) = 17.42642 20.42979 18.92810
#
# Velocity S-wave (km/s) = 3.08104 3.33599 3.21104
# Velocity P-wave (km/s) = 5.71568 6.11961 5.92109
#
# Compressibility (1/GPa) = 0.02722044
#
# Stress axis : x y z
#
# Youngs Moduli (GPa) = 64.20693 65.96237 37.06489
#
# Poissons Ratio (x) = 0.25579 0.07968
# Poissons Ratio (y) = 0.24898 0.34171
# Poissons Ratio (z) = 0.13804 0.60813
#
# Static dielectric constant tensor:
#      x y z
#    x 3.721860 0.000000 0.000000 
#    y 0.000000 3.472080 0.000000 
#    z 0.000000 0.000000 2.923290 
# 
# 
# High freq. dielectric constant tensor:
#      x y z
#    x 1.729350 0.000000 0.000000 
#    y 0.000000 1.722120 0.000000 
#    z 0.000000 0.000000 1.626880 
# 
# From -- ./inp_files/40952.got.cif
#   From: 2010.03.12/outbox.cif.g09.slc.cpg/sg64_21_cif.got.tgz:40952.got - 2010.04.10 20:19:32.
