data_PCOD8261101
_publ_section_title
;
Structure prediction by ZEFSAII (Michael W. Deem and Ramdas Pophale) SiO2 
 PCOD8261101
Probable space group: C M C M
;
_chemical_formula_sum "Si O2"
_cell_formula_units_Z 80
_cell_length_a 8.506027
_cell_length_b 25.510472
_cell_length_c 18.016614
_cell_angle_alpha 90.000000
_cell_angle_beta 90.000000
_cell_angle_gamma 90.000000
_cell_volume 3909.474863
_symmetry_space_group_name_H-M "C M C M"
_symmetry_group_IT_number 63
_symmetry_cell_setting 'orthorhombic'
loop_
_space_group_symop_operation_xyz
x,y,z
-x,-y,1/2+z
x,-y,-z
-x,y,1/2-z
-x,-y,-z
x,y,1/2-z
-x,y,z
x,-y,1/2+z
1/2+x,1/2+y,z
1/2-x,1/2-y,1/2+z
1/2+x,1/2-y,-z
1/2-x,1/2+y,1/2-z
1/2-x,1/2-y,-z
1/2+x,1/2+y,1/2-z
1/2-x,1/2+y,z
1/2+x,1/2-y,1/2+z
loop_
_atom_site_type_symbol
_atom_site_label
_atom_site_fract_x
_atom_site_fract_y
_atom_site_fract_z
Si Si1 0.818496 0.445936 0.163065
Si Si2 0.319603 0.650047 0.582424
Si Si3 0.186551 0.437280 0.667929
Si Si4 0.316525 0.160846 0.075890
Si Si5 0.817916 0.255754 0.165691
O O1 0.795613 0.434935 0.250000
O O2 0.712265 0.407018 0.115750
O O3 0.759325 0.504649 0.143052
O O4 0.000000 0.437867 0.140561
O O5 0.500000 0.653938 0.558066
O O6 0.211028 0.660710 0.511541
O O7 0.282157 0.693422 0.644103
O O8 0.253782 0.424108 0.750000
O O9 0.247086 0.393886 0.610079
O O10 0.000000 0.437653 0.671867
O O11 0.500000 0.168966 0.092734
O O12 0.220971 0.207693 0.112480
O O13 0.774975 0.240338 0.250000
O O14 0.000000 0.270363 0.157552
#
# Coordination Sequence:
#
# PCOD8261101 Si02
#       5
#    16  16  16  16  16
#     4   9  18  36  61  86 113 147 190 237 282 332
#     4  12  25  39  56  82 118 154 191 235 284 337
#     4   8  16  33  59  88 114 145 188 234 279 333
#     4  11  22  38  61  87 117 151 190 234 281 336
#     4  11  24  42  63  86 113 146 186 233 286 342
#
# _framework density 20.463107000000001
#
# number of rings (size 3 to 8) (size 9 to 14) (size 15 to 20)
#    0.000    1.800    0.000    6.000    0.000    6.000 
#    0.000    6.000    0.000    2.400    0.000    0.000 
#    0.000    0.000    0.000    0.000    0.000    0.000 
#
# Total GULP energy -496145.856024 kJ/mol
# GULP energy per Si atom -12403.646401 kJ/mol
# Density = 2.041653 g / cm^3
# Si number density = 20.463107 Si / 1000 Ang^3
#
#
#
# Elastic Constant Matrix: (Units=GPa)
#
#
# Indices 1 2 3 4 5 6 
#
# 1 49.9737 24.2136 18.2943 0.0000 0.0000 0.0000
# 2 24.2136 116.3422 36.7627 0.0000 0.0000 0.0000
# 3 18.2943 36.7627 81.8346 0.0000 0.0000 0.0000
# 4 0.0000 0.0000 0.0000 28.2740 0.0000 0.0000
# 5 0.0000 0.0000 0.0000 0.0000 24.7480 0.0000
# 6 0.0000 0.0000 0.0000 0.0000 0.0000 31.8754
#
#
#
# Elastic Compliance Matrix: (Units=1/GPa)
#
#
# Indices 1 2 3 4 5 6 
#
# 1 0.023083 -0.003699 -0.003499 0.000000 0.000000 0.000000
# 2 -0.003699 0.010610 -0.003939 0.000000 0.000000 0.000000
# 3 -0.003499 -0.003939 0.014772 0.000000 0.000000 0.000000
# 4 0.000000 0.000000 0.000000 0.035368 0.000000 0.000000
# 5 0.000000 0.000000 0.000000 0.000000 0.040407 0.000000
# 6 0.000000 0.000000 0.000000 0.000000 0.000000 0.031372
#
#
# Mechanical properties :
#
#
# Convention : Reuss Voigt Hill
#
# Bulk Modulus (GPa) = 38.18077 45.18795 41.68436
# Shear Modulus (GPa) = 26.79283 28.23812 27.51547
#
# Velocity S-wave (km/s) = 3.62238 3.71880 3.67091
# Velocity P-wave (km/s) = 6.01618 6.36945 6.19533
#
# Compressibility (1/GPa) = 0.02619120
#
# Stress axis : x y z
#
# Youngs Moduli (GPa) = 43.32109 94.25131 67.69710
#
# Poissons Ratio (x) = 0.34860 0.23686
# Poissons Ratio (y) = 0.16023 0.26669
# Poissons Ratio (z) = 0.15157 0.37130
#
# Static dielectric constant tensor:
#      x y z
#    x 3.411740 0.000000 0.000000 
#    y 0.000000 3.968790 0.000000 
#    z 0.000000 0.000000 3.865160 
# 
# 
# High freq. dielectric constant tensor:
#      x y z
#    x 1.778210 0.000000 0.000000 
#    y 0.000000 1.815270 0.000000 
#    z 0.000000 0.000000 1.801070 
# 
# From -- ./inp_files/40483.got.cif
#   From: 2010.03.12/outbox.cif.g09.slc.cpg/sg63_21_cif.got.tgz:40483.got - 2010.04.10 19:34:48.
