data_PCOD8261980
_publ_section_title
;
Structure prediction by ZEFSAII (Michael W. Deem and Ramdas Pophale) SiO2 
 PCOD8261980
Probable space group: C M C A
;
_chemical_formula_sum "Si O2"
_cell_formula_units_Z 96
_cell_length_a 8.827654
_cell_length_b 22.949120
_cell_length_c 26.523813
_cell_angle_alpha 90.000000
_cell_angle_beta 90.000000
_cell_angle_gamma 90.000000
_cell_volume 5373.376812
_symmetry_space_group_name_H-M "C M C A"
_symmetry_group_IT_number 64
_symmetry_cell_setting 'orthorhombic'
loop_
_space_group_symop_operation_xyz
x,y,z
-x,1/2-y,1/2+z
x,-y,-z
-x,1/2+y,1/2-z
-x,-y,-z
x,1/2+y,1/2-z
-x,y,z
x,1/2-y,1/2+z
1/2+x,1/2+y,z
1/2-x,-y,1/2+z
1/2+x,1/2-y,-z
1/2-x,y,1/2-z
1/2-x,1/2-y,-z
1/2+x,y,1/2-z
1/2-x,1/2+y,z
1/2+x,-y,1/2+z
loop_
_atom_site_type_symbol
_atom_site_label
_atom_site_fract_x
_atom_site_fract_y
_atom_site_fract_z
Si Si1 0.325225 0.175371 0.134990
Si Si2 0.336385 0.241810 0.795857
Si Si3 0.665004 0.644020 0.624098
Si Si4 0.679877 0.755719 0.054477
Si Si5 0.320619 0.557963 0.803108
Si Si6 0.821775 0.433824 0.801997
O O1 0.500000 0.186825 0.122802
O O2 0.276374 0.208376 0.185407
O O3 0.230923 0.199726 0.087573
O O4 0.294455 0.107856 0.149374
O O5 0.500000 0.268632 0.780310
O O6 0.250000 0.210993 0.750000
O O7 0.367893 0.193683 0.836324
O O8 0.500000 0.615196 0.611072
O O9 0.733105 0.680708 0.576553
O O10 0.778529 0.597197 0.648143
O O11 0.500000 0.754164 0.051670
O O12 0.750000 0.750000 0.000000
O O13 0.500000 0.557663 0.797026
O O14 0.250000 0.580645 0.750000
O O15 0.258809 0.494194 0.815661
O O16 0.750000 0.408685 0.750000
O O17 0.000000 0.443906 0.792972
#
# Coordination Sequence:
#
# PCOD8261980 Si02
#       6
#    16  16  16  16  16  16
#     4  10  20  33  51  74 100 132 169 208 252 302
#     4  10  19  29  44  68  99 133 165 202 249 299
#     4   9  19  34  50  71  99 131 166 204 249 300
#     4  10  21  37  58  80 103 131 164 209 261 311
#     4  11  21  32  50  74 103 140 176 211 248 292
#     4  10  20  33  50  73 104 141 176 210 247 294
#
# _framework density 17.865860999999999
#
# number of rings (size 3 to 8) (size 9 to 14) (size 15 to 20)
#    0.000    2.000    0.000    6.500    0.000    9.333 
#    0.000    0.000    0.000    1.000    0.000    7.000 
#    0.000    0.000    0.000    0.000    0.000    0.000 
#
# Total GULP energy -594700.045147 kJ/mol
# GULP energy per Si atom -12389.584274 kJ/mol
# Density = 1.782520 g / cm^3
# Si number density = 17.865861 Si / 1000 Ang^3
#
#
#
# Elastic Constant Matrix: (Units=GPa)
#
#
# Indices 1 2 3 4 5 6 
#
# 1 116.2150 51.3565 55.9096 0.0000 0.0000 0.0000
# 2 51.3565 82.2059 42.7946 0.0000 0.0000 0.0000
# 3 55.9096 42.7946 92.2561 0.0000 0.0000 0.0000
# 4 0.0000 0.0000 0.0000 -200.9720 0.0000 0.0000
# 5 0.0000 0.0000 0.0000 0.0000 26.7462 0.0000
# 6 0.0000 0.0000 0.0000 0.0000 0.0000 28.8828
#
#
#
# Elastic Compliance Matrix: (Units=1/GPa)
#
#
# Indices 1 2 3 4 5 6 
#
# 1 0.013895 -0.005665 -0.005793 0.000000 0.000000 0.000000
# 2 -0.005665 0.018347 -0.005077 0.000000 0.000000 0.000000
# 3 -0.005793 -0.005077 0.016705 0.000000 0.000000 0.000000
# 4 0.000000 0.000000 0.000000 -0.004976 0.000000 0.000000
# 5 0.000000 0.000000 0.000000 0.000000 0.037389 0.000000
# 6 0.000000 0.000000 0.000000 0.000000 0.000000 0.034623
#
#
# Mechanical properties :
#
#
# Convention : Reuss Voigt Hill
#
# Bulk Modulus (GPa) = 62.98593 65.64427 64.31510
# Shear Modulus (GPa) = 32.39487 -19.69419 6.35034
#
# Velocity S-wave (km/s) = 4.26282 -3.32375 1.88737
# Velocity P-wave (km/s) = 7.71753 4.70031 6.38957
#
# Compressibility (1/GPa) = 0.01587656
#
# Stress axis : x y z
#
# Youngs Moduli (GPa) = 71.96789 54.50529 59.86118
#
# Poissons Ratio (x) = 0.30877 0.34677
# Poissons Ratio (y) = 0.40770 0.30394
# Poissons Ratio (z) = 0.41691 0.27674
#
# Static dielectric constant tensor:
#      x y z
#    x 3.474540 0.000000 0.000000 
#    y 0.000000 3.503960 0.000000 
#    z 0.000000 0.000000 1.166600 
# 
# 
# High freq. dielectric constant tensor:
#      x y z
#    x 1.709750 0.000000 0.000000 
#    y 0.000000 1.679120 0.000000 
#    z 0.000000 0.000000 1.665820 
# 
# From -- ./inp_files/48021.got.cif
#   From: 2010.03.12/outbox.cif.g09.slc.cpg/sg64_25_cif.got.tgz:48021.got - 2010.04.10 20:19:32.
