data_PCOD8261582
_publ_section_title
;
Structure prediction by ZEFSAII (Michael W. Deem and Ramdas Pophale) SiO2 
 PCOD8261582
Probable space group: C M C A
;
_chemical_formula_sum "Si O2"
_cell_formula_units_Z 96
_cell_length_a 18.857162
_cell_length_b 13.294097
_cell_length_c 17.568870
_cell_angle_alpha 90.000000
_cell_angle_beta 90.000000
_cell_angle_gamma 90.000000
_cell_volume 4404.321411
_symmetry_space_group_name_H-M "C M C A"
_symmetry_group_IT_number 64
_symmetry_cell_setting 'orthorhombic'
loop_
_space_group_symop_operation_xyz
x,y,z
-x,1/2-y,1/2+z
x,-y,-z
-x,1/2+y,1/2-z
-x,-y,-z
x,1/2+y,1/2-z
-x,y,z
x,1/2-y,1/2+z
1/2+x,1/2+y,z
1/2-x,-y,1/2+z
1/2+x,1/2-y,-z
1/2-x,y,1/2-z
1/2-x,1/2-y,-z
1/2+x,y,1/2-z
1/2-x,1/2+y,z
1/2+x,-y,1/2+z
loop_
_atom_site_type_symbol
_atom_site_label
_atom_site_fract_x
_atom_site_fract_y
_atom_site_fract_z
Si Si1 0.000000 0.707983 0.147720
Si Si2 0.784323 0.561880 0.610205
Si Si3 0.346125 0.873376 0.546627
Si Si4 0.862590 0.155562 0.607565
Si Si5 0.500000 0.657002 0.530425
Si Si6 0.109002 0.855093 0.223355
Si Si7 0.000000 0.626997 0.415430
Si Si8 0.000000 0.028517 0.241386
O O1 0.068637 0.773139 0.171353
O O2 0.000000 0.596366 0.182881
O O3 0.000000 0.688628 0.057361
O O4 0.802258 0.442834 0.606150
O O5 0.817425 0.615824 0.537555
O O6 0.699635 0.573378 0.609736
O O7 0.816472 0.616088 0.684459
O O8 0.336923 0.757191 0.567042
O O9 0.428140 0.912276 0.544777
O O10 0.927586 0.102551 0.559536
O O11 0.881222 0.190471 0.693013
O O12 0.500000 0.753735 0.584006
O O13 0.068688 0.959601 0.235700
O O14 0.000000 0.605378 0.327063
#
# Coordination Sequence:
#
# PCOD8261582 Si02
#       8
#     8  16  16  16   8  16   8   8
#     4  11  23  42  67 100 133 176 229 281 333 403
#     4  11  23  41  65 102 133 172 226 273 332 411
#     4  10  22  40  69 100 131 175 219 285 338 382
#     4  11  23  45  66  93 142 173 216 279 342 398
#     4  10  22  42  72  98 124 178 222 273 352 398
#     4  11  23  41  66 100 130 179 227 276 337 406
#     4  10  17  38  70  96 129 161 221 291 327 380
#     4  11  22  41  65  96 136 171 225 281 330 403
#
# _framework density 21.796775
#
# number of rings (size 3 to 8) (size 9 to 14) (size 15 to 20)
#    0.000    1.333    1.667    6.000    0.000    2.000 
#    9.000    2.500    0.000    0.000    0.000    0.000 
#    0.000    0.000    0.000    0.000    0.000    0.000 
#
# Total GULP energy -595027.260151 kJ/mol
# GULP energy per Si atom -12396.401253 kJ/mol
# Density = 2.174716 g / cm^3
# Si number density = 21.796775 Si / 1000 Ang^3
#
#
#
# Elastic Constant Matrix: (Units=GPa)
#
#
# Indices 1 2 3 4 5 6 
#
# 1 162.2472 30.9404 32.1555 0.0000 0.0000 0.0000
# 2 30.9404 63.7011 3.3772 0.0000 0.0000 0.0000
# 3 32.1555 3.3772 107.3514 0.0000 0.0000 0.0000
# 4 0.0000 0.0000 0.0000 28.9586 0.0000 0.0000
# 5 0.0000 0.0000 0.0000 0.0000 32.9494 0.0000
# 6 0.0000 0.0000 0.0000 0.0000 0.0000 38.0095
#
#
#
# Elastic Compliance Matrix: (Units=1/GPa)
#
#
# Indices 1 2 3 4 5 6 
#
# 1 0.007219 -0.003397 -0.002055 0.000000 0.000000 0.000000
# 2 -0.003397 0.017323 0.000473 0.000000 0.000000 0.000000
# 3 -0.002055 0.000473 0.009916 0.000000 0.000000 0.000000
# 4 0.000000 0.000000 0.000000 0.034532 0.000000 0.000000
# 5 0.000000 0.000000 0.000000 0.000000 0.030350 0.000000
# 6 0.000000 0.000000 0.000000 0.000000 0.000000 0.026309
#
#
# Mechanical properties :
#
#
# Convention : Reuss Voigt Hill
#
# Bulk Modulus (GPa) = 40.81965 51.80512 46.31239
# Shear Modulus (GPa) = 34.77663 37.77194 36.27428
#
# Velocity S-wave (km/s) = 3.99870 4.16734 4.08389
# Velocity P-wave (km/s) = 6.33147 6.85380 6.59781
#
# Compressibility (1/GPa) = 0.02449800
#
# Stress axis : x y z
#
# Youngs Moduli (GPa) = 138.53052 57.72563 100.84730
#
# Poissons Ratio (x) = 0.19611 0.20728
# Poissons Ratio (y) = 0.47062 -0.04766
# Poissons Ratio (z) = 0.28473 -0.02728
#
# Static dielectric constant tensor:
#      x y z
#    x 3.857490 0.000000 0.000000 
#    y 0.000000 3.763780 0.000000 
#    z 0.000000 0.000000 3.932730 
# 
# 
# High freq. dielectric constant tensor:
#      x y z
#    x 1.861270 0.000000 0.000000 
#    y 0.000000 1.843780 0.000000 
#    z 0.000000 0.000000 1.864670 
# 
# From -- ./inp_files/26399.got.cif
#   From: 2010.03.12/outbox.cif.g09.slc.cpg/sg64_14_cif.got.tgz:26399.got - 2010.04.10 20:19:32.
