data_PCOD8261759
_publ_section_title
;
Structure prediction by ZEFSAII (Michael W. Deem and Ramdas Pophale) SiO2 
 PCOD8261759
Probable space group: C M C A
;
_chemical_formula_sum "Si O2"
_cell_formula_units_Z 96
_cell_length_a 13.095014
_cell_length_b 22.408521
_cell_length_c 19.235704
_cell_angle_alpha 90.000000
_cell_angle_beta 90.000000
_cell_angle_gamma 90.000000
_cell_volume 5644.522985
_symmetry_space_group_name_H-M "C M C A"
_symmetry_group_IT_number 64
_symmetry_cell_setting 'orthorhombic'
loop_
_space_group_symop_operation_xyz
x,y,z
-x,1/2-y,1/2+z
x,-y,-z
-x,1/2+y,1/2-z
-x,-y,-z
x,1/2+y,1/2-z
-x,y,z
x,1/2-y,1/2+z
1/2+x,1/2+y,z
1/2-x,-y,1/2+z
1/2+x,1/2-y,-z
1/2-x,y,1/2-z
1/2-x,1/2-y,-z
1/2+x,y,1/2-z
1/2-x,1/2+y,z
1/2+x,-y,1/2+z
loop_
_atom_site_type_symbol
_atom_site_label
_atom_site_fract_x
_atom_site_fract_y
_atom_site_fract_z
Si Si1 0.883044 0.313863 0.578139
Si Si2 0.380179 0.165254 0.575073
Si Si3 0.715956 0.742010 0.324974
Si Si4 0.116232 0.116987 0.301547
Si Si5 0.379498 0.532449 0.931740
Si Si6 0.319316 0.925517 0.650824
O O1 0.853483 0.302048 0.497778
O O2 0.813827 0.275539 0.629405
O O3 0.866248 0.384674 0.589817
O O4 0.000000 0.296102 0.592718
O O5 0.500000 0.159551 0.583598
O O6 0.339316 0.203322 0.638723
O O7 0.332062 0.098549 0.577356
O O8 0.750000 0.765624 0.250000
O O9 0.639471 0.686630 0.314114
O O10 0.195586 0.078505 0.347395
O O11 0.132122 0.100016 0.221411
O O12 0.000000 0.103281 0.324329
O O13 0.500000 0.537084 0.939034
O O14 0.349841 0.493693 0.863600
O O15 0.332874 0.500000 0.000000
#
# Coordination Sequence:
#
# PCOD8261759 Si02
#       6
#    16  16  16  16  16  16
#     4  10  18  32  54  78 103 133 174 219 262 306
#     4  10  21  34  52  78 105 135 171 220 266 309
#     4  11  21  34  50  79 107 142 169 207 265 320
#     4  10  19  33  53  76 103 134 173 213 256 311
#     4  10  18  31  54  78 100 130 173 222 264 300
#     4  10  18  31  53  81  99 129 175 219 261 299
#
# _framework density 17.007636999999999
#
# number of rings (size 3 to 8) (size 9 to 14) (size 15 to 20)
#    0.000    1.833    5.000    2.500    0.000    0.667 
#    3.000    0.000    0.000    1.500    0.000    0.000 
#    0.000    0.000    0.000    0.000    0.000    0.000 
#
# Total GULP energy -595101.432085 kJ/mol
# GULP energy per Si atom -12397.946502 kJ/mol
# Density = 1.696893 g / cm^3
# Si number density = 17.007637 Si / 1000 Ang^3
#
#
#
# Elastic Constant Matrix: (Units=GPa)
#
#
# Indices 1 2 3 4 5 6 
#
# 1 62.4836 24.0581 33.3095 0.0000 0.0000 0.0000
# 2 24.0581 103.4862 56.5127 0.0000 0.0000 0.0000
# 3 33.3095 56.5127 94.6506 0.0000 0.0000 0.0000
# 4 0.0000 0.0000 0.0000 24.0567 0.0000 0.0000
# 5 0.0000 0.0000 0.0000 0.0000 21.6401 0.0000
# 6 0.0000 0.0000 0.0000 0.0000 0.0000 18.3875
#
#
#
# Elastic Compliance Matrix: (Units=1/GPa)
#
#
# Indices 1 2 3 4 5 6 
#
# 1 0.019797 -0.001184 -0.006260 0.000000 0.000000 0.000000
# 2 -0.001184 0.014409 -0.008186 0.000000 0.000000 0.000000
# 3 -0.006260 -0.008186 0.017656 0.000000 0.000000 0.000000
# 4 0.000000 0.000000 0.000000 0.041568 0.000000 0.000000
# 5 0.000000 0.000000 0.000000 0.000000 0.046210 0.000000
# 6 0.000000 0.000000 0.000000 0.000000 0.000000 0.054385
#
#
# Mechanical properties :
#
#
# Convention : Reuss Voigt Hill
#
# Bulk Modulus (GPa) = 48.54056 54.26454 51.40255
# Shear Modulus (GPa) = 21.53741 22.59954 22.06848
#
# Velocity S-wave (km/s) = 3.56242 3.64921 3.60608
# Velocity P-wave (km/s) = 6.74712 7.05201 6.90125
#
# Compressibility (1/GPa) = 0.02060133
#
# Stress axis : x y z
#
# Youngs Moduli (GPa) = 50.51195 69.40173 56.63741
#
# Poissons Ratio (x) = 0.08215 0.35457
# Poissons Ratio (y) = 0.05979 0.46366
# Poissons Ratio (z) = 0.31622 0.56816
#
# Static dielectric constant tensor:
#      x y z
#    x 3.111680 0.000000 0.000000 
#    y 0.000000 3.198650 0.000000 
#    z 0.000000 0.000000 3.236910 
# 
# 
# High freq. dielectric constant tensor:
#      x y z
#    x 1.643250 0.000000 0.000000 
#    y 0.000000 1.641720 0.000000 
#    z 0.000000 0.000000 1.657180 
# 
# From -- ./inp_files/31073.got.cif
#   From: 2010.03.12/outbox.cif.g09.slc.cpg/sg64_16_cif.got.tgz:31073.got - 2010.04.10 20:19:32.
