data_PCOD8261454
_publ_section_title
;
Structure prediction by ZEFSAII (Michael W. Deem and Ramdas Pophale) SiO2 
 PCOD8261454
Probable space group: C M C A
;
_chemical_formula_sum "Si O2"
_cell_formula_units_Z 56
_cell_length_a 30.816627
_cell_length_b 5.258492
_cell_length_c 14.453196
_cell_angle_alpha 90.000000
_cell_angle_beta 90.000000
_cell_angle_gamma 90.000000
_cell_volume 2342.125764
_symmetry_space_group_name_H-M "C M C A"
_symmetry_group_IT_number 64
_symmetry_cell_setting 'orthorhombic'
loop_
_space_group_symop_operation_xyz
x,y,z
-x,1/2-y,1/2+z
x,-y,-z
-x,1/2+y,1/2-z
-x,-y,-z
x,1/2+y,1/2-z
-x,y,z
x,1/2-y,1/2+z
1/2+x,1/2+y,z
1/2-x,-y,1/2+z
1/2+x,1/2-y,-z
1/2-x,y,1/2-z
1/2-x,1/2-y,-z
1/2+x,y,1/2-z
1/2-x,1/2+y,z
1/2+x,-y,1/2+z
loop_
_atom_site_type_symbol
_atom_site_label
_atom_site_fract_x
_atom_site_fract_y
_atom_site_fract_z
Si Si1 0.232595 0.693488 0.603464
Si Si2 0.000000 0.575890 0.811429
Si Si3 0.092118 0.467440 0.107628
Si Si4 0.366622 0.465558 0.104665
O O1 0.250000 0.750000 0.500000
O O2 0.261427 0.469398 0.652670
O O3 0.183936 0.595377 0.606926
O O4 0.958435 0.582913 0.877521
O O5 0.000000 0.322369 0.751875
O O6 0.107328 0.734243 0.154346
O O7 0.120555 0.235279 0.152086
O O8 0.103095 0.500000 0.000000
O O9 0.383184 0.500000 0.000000
#
# Coordination Sequence:
#
# PCOD8261454 Si02
#       4
#    16   8  16  16
#     4  10  17  24  42  71 118 160 184 212 280 337
#     4  12  25  44  65  84 112 150 204 248 291 354
#     4  10  22  37  59  85 118 152 190 236 305 347
#     4  10  18  30  49  80 118 160 180 230 281 355
#
# _framework density 23.909904000000001
#
# number of rings (size 3 to 8) (size 9 to 14) (size 15 to 20)
#    0.000    1.714    2.857    3.857    8.000    0.000 
#    0.000    5.714    0.000    0.000    0.000    0.000 
#    0.000   80.000    0.000    0.000    0.000    0.000 
#
# Total GULP energy -346914.985616 kJ/mol
# GULP energy per Si atom -12389.820915 kJ/mol
# Density = 2.385548 g / cm^3
# Si number density = 23.909904 Si / 1000 Ang^3
#
#
#
# Elastic Constant Matrix: (Units=GPa)
#
#
# Indices 1 2 3 4 5 6 
#
# 1 188.0290 93.9559 2.8787 0.0000 0.0000 0.0000
# 2 93.9559 299.6521 4.7657 0.0000 0.0000 0.0000
# 3 2.8787 4.7657 18.8291 0.0000 0.0000 0.0000
# 4 0.0000 0.0000 0.0000 1.4246 0.0000 0.0000
# 5 0.0000 0.0000 0.0000 0.0000 6.7009 0.0000
# 6 0.0000 0.0000 0.0000 0.0000 0.0000 51.5086
#
#
#
# Elastic Compliance Matrix: (Units=1/GPa)
#
#
# Indices 1 2 3 4 5 6 
#
# 1 0.006310 -0.001971 -0.000466 0.000000 0.000000 0.000000
# 2 -0.001971 0.003966 -0.000703 0.000000 0.000000 0.000000
# 3 -0.000466 -0.000703 0.053358 0.000000 0.000000 0.000000
# 4 0.000000 0.000000 0.000000 0.701974 0.000000 0.000000
# 5 0.000000 0.000000 0.000000 0.000000 0.149233 0.000000
# 6 0.000000 0.000000 0.000000 0.000000 0.000000 0.019414
#
#
# Mechanical properties :
#
#
# Convention : Reuss Voigt Hill
#
# Bulk Modulus (GPa) = 17.43499 78.85675 48.14587
# Shear Modulus (GPa) = 5.21020 38.92081 22.06551
#
# Velocity S-wave (km/s) = 1.47778 4.03899 3.04116
# Velocity P-wave (km/s) = 3.19680 7.40295 5.70189
#
# Compressibility (1/GPa) = 0.05735591
#
# Stress axis : x y z
#
# Youngs Moduli (GPa) = 158.46695 252.11413 18.74124
#
# Poissons Ratio (x) = 0.49698 0.00873
# Poissons Ratio (y) = 0.31238 0.01317
# Poissons Ratio (z) = 0.07382 0.17712
#
# Static dielectric constant tensor:
#      x y z
#    x 4.188950 0.000000 0.000000 
#    y 0.000000 10.753490 0.000000 
#    z 0.000000 0.000000 3.473130 
# 
# 
# High freq. dielectric constant tensor:
#      x y z
#    x 1.944510 0.000000 0.000000 
#    y 0.000000 1.996120 0.000000 
#    z 0.000000 0.000000 1.895420 
# 
# From -- ./inp_files/35255.got.cif
#   From: 2010.03.12/outbox.cif.g09.slc.cpg/sg64_18_cif.got.tgz:35255.got - 2010.04.10 20:19:32.
