data_PCOD8261019
_publ_section_title
;
Structure prediction by ZEFSAII (Michael W. Deem and Ramdas Pophale) SiO2 
 PCOD8261019
Probable space group: C M C M
;
_chemical_formula_sum "Si O2"
_cell_formula_units_Z 80
_cell_length_a 18.259285
_cell_length_b 8.918402
_cell_length_c 25.320735
_cell_angle_alpha 90.000000
_cell_angle_beta 90.000000
_cell_angle_gamma 90.000000
_cell_volume 4123.320753
_symmetry_space_group_name_H-M "C M C M"
_symmetry_group_IT_number 63
_symmetry_cell_setting 'orthorhombic'
loop_
_space_group_symop_operation_xyz
x,y,z
-x,-y,1/2+z
x,-y,-z
-x,y,1/2-z
-x,-y,-z
x,y,1/2-z
-x,y,z
x,-y,1/2+z
1/2+x,1/2+y,z
1/2-x,1/2-y,1/2+z
1/2+x,1/2-y,-z
1/2-x,1/2+y,1/2-z
1/2-x,1/2-y,-z
1/2+x,1/2+y,1/2-z
1/2-x,1/2+y,z
1/2+x,1/2-y,1/2+z
loop_
_atom_site_type_symbol
_atom_site_label
_atom_site_fract_x
_atom_site_fract_y
_atom_site_fract_z
Si Si1 0.699591 0.858052 0.965930
Si Si2 0.802716 0.349100 0.311986
Si Si3 0.082348 0.399892 0.809295
Si Si4 0.915440 0.820879 0.403802
Si Si5 0.803785 0.952908 0.628082
O O1 0.625462 0.773779 0.949046
O O2 0.744301 0.910351 0.915280
O O3 0.750000 0.750000 0.000000
O O4 0.674604 0.000000 0.000000
O O5 0.792807 0.326683 0.250000
O O6 0.866931 0.463488 0.327069
O O7 0.823443 0.189679 0.336647
O O8 0.727632 0.412491 0.335983
O O9 0.102856 0.346321 0.750000
O O10 0.092553 0.259573 0.847404
O O11 0.000000 0.461993 0.811809
O O12 0.000000 0.841152 0.420389
O O13 0.877818 0.984478 0.398931
#
# Coordination Sequence:
#
# PCOD8261019 Si02
#       5
#    16  16  16  16  16
#     4  12  23  42  68  89 119 164 210 264 319 372
#     4  11  21  35  62  94 126 165 215 256 301 378
#     4   9  19  37  60  89 129 169 203 251 313 371
#     4  11  24  42  65  95 128 162 209 260 316 377
#     4  12  22  40  60  92 126 164 208 258 315 368
#
# _framework density 19.401838999999999
#
# number of rings (size 3 to 8) (size 9 to 14) (size 15 to 20)
#    0.000    1.000    6.000    0.600    0.000    4.400 
#    0.000    2.000    0.000    0.000    0.000    0.000 
#    0.000    0.000    0.000    0.000    0.000    0.000 
#
# Total GULP energy -496124.932599 kJ/mol
# GULP energy per Si atom -12403.123315 kJ/mol
# Density = 1.935768 g / cm^3
# Si number density = 19.401839 Si / 1000 Ang^3
#
#
#
# Elastic Constant Matrix: (Units=GPa)
#
#
# Indices 1 2 3 4 5 6 
#
# 1 125.5393 28.6655 26.0370 0.0000 0.0000 0.0000
# 2 28.6655 72.9854 12.6523 0.0000 0.0000 0.0000
# 3 26.0370 12.6523 68.4514 0.0000 0.0000 0.0000
# 4 0.0000 0.0000 0.0000 39.1724 0.0000 0.0000
# 5 0.0000 0.0000 0.0000 0.0000 29.8935 0.0000
# 6 0.0000 0.0000 0.0000 0.0000 0.0000 31.5836
#
#
#
# Elastic Compliance Matrix: (Units=1/GPa)
#
#
# Indices 1 2 3 4 5 6 
#
# 1 0.009295 -0.003138 -0.002956 0.000000 0.000000 0.000000
# 2 -0.003138 0.015215 -0.001618 0.000000 0.000000 0.000000
# 3 -0.002956 -0.001618 0.016032 0.000000 0.000000 0.000000
# 4 0.000000 0.000000 0.000000 0.025528 0.000000 0.000000
# 5 0.000000 0.000000 0.000000 0.000000 0.033452 0.000000
# 6 0.000000 0.000000 0.000000 0.000000 0.000000 0.031662
#
#
# Mechanical properties :
#
#
# Convention : Reuss Voigt Hill
#
# Bulk Modulus (GPa) = 39.81326 44.63174 42.22250
# Shear Modulus (GPa) = 32.26190 33.43798 32.84994
#
# Velocity S-wave (km/s) = 4.08220 4.15594 4.11924
# Velocity P-wave (km/s) = 6.54095 6.78844 6.66585
#
# Compressibility (1/GPa) = 0.02511726
#
# Stress axis : x y z
#
# Youngs Moduli (GPa) = 107.58197 65.72646 62.37420
#
# Poissons Ratio (x) = 0.20628 0.18435
# Poissons Ratio (y) = 0.33764 0.10095
# Poissons Ratio (z) = 0.31797 0.10637
#
# Static dielectric constant tensor:
#      x y z
#    x 3.909160 0.000000 0.000000 
#    y 0.000000 3.597650 0.000000 
#    z 0.000000 0.000000 3.732660 
# 
# 
# High freq. dielectric constant tensor:
#      x y z
#    x 1.753250 0.000000 0.000000 
#    y 0.000000 1.757630 0.000000 
#    z 0.000000 0.000000 1.764160 
# 
# From -- ./inp_files/69722.got.cif
#   From: 2010.03.12/outbox.cif.g09.slc.cpg/sg63_35_cif.got.tgz:69722.got - 2010.04.10 19:34:48.
