data_PCOD8261378
_publ_section_title
;
Structure prediction by ZEFSAII (Michael W. Deem and Ramdas Pophale) SiO2 
 PCOD8261378
Probable space group: C M C M
;
_chemical_formula_sum "Si O2"
_cell_formula_units_Z 56
_cell_length_a 24.000000
_cell_length_b 15.000000
_cell_length_c 15.000000
_cell_angle_alpha 90.000000
_cell_angle_beta 90.000000
_cell_angle_gamma 90.000000
_cell_volume 5400.000000
_symmetry_space_group_name_H-M "C M C M"
_symmetry_group_IT_number 63
_symmetry_cell_setting 'orthorhombic'
loop_
_space_group_symop_operation_xyz
x,y,z
-x,-y,1/2+z
x,-y,-z
-x,y,1/2-z
-x,-y,-z
x,y,1/2-z
-x,y,z
x,-y,1/2+z
1/2+x,1/2+y,z
1/2-x,1/2-y,1/2+z
1/2+x,1/2-y,-z
1/2-x,1/2+y,1/2-z
1/2-x,1/2-y,-z
1/2+x,1/2+y,1/2-z
1/2-x,1/2+y,z
1/2+x,1/2-y,1/2+z
loop_
_atom_site_type_symbol
_atom_site_label
_atom_site_fract_x
_atom_site_fract_y
_atom_site_fract_z
Si Si1 0.564600 0.152026 0.145831
Si Si2 0.236202 0.119731 0.350934
Si Si3 0.561376 0.644715 0.855296
Si Si4 0.364877 0.512001 0.143634
Si Si5 0.163134 0.598297 0.475021
Si Si6 0.342963 0.210355 0.849255
Si Si7 0.439856 0.333478 0.852654
O O1 0.580066 0.134762 0.250000
O O2 0.500000 0.125360 0.130151
O O3 0.575098 0.254456 0.118700
O O4 0.604028 0.098662 0.077451
O O5 0.256693 0.102303 0.250000
O O6 0.289829 0.138087 0.410711
O O7 0.198103 0.206547 0.354796
O O8 0.198630 0.035195 0.385900
O O9 0.558783 0.635233 0.750000
O O10 0.500000 0.617029 0.892740
O O11 0.612104 0.583078 0.891972
O O12 0.365713 0.518421 0.250000
O O13 0.406586 0.585403 0.101615
O O14 0.179164 0.500000 0.500000
O O15 0.167468 0.644411 0.570543
O O16 0.336386 0.165777 0.750000
O O17 0.406519 0.241746 0.862231
O O18 0.448306 0.357936 0.750000
O O19 0.500000 0.322070 0.899873
#
# Coordination Sequence:
#
# PCOD8261378 Si02
#       7
#    16  16  16  16  16  16  16
#     4   9  20  40  63  88 120 157 197 242 296 358
#     4   9  19  39  61  84 119 156 194 239 294 359
#     4   8  13  25  50  85 121 154 188 224 272 342
#     4   8  13  24  48  84 121 152 183 224 275 339
#     4  12  25  40  61  86 113 149 200 256 306 352
#     4   9  20  39  60  83 115 155 197 245 296 354
#     4   8  13  24  48  81 114 148 183 225 283 345
#
# _framework density 10.370369999999999
#
# number of rings (size 3 to 8) (size 9 to 14) (size 15 to 20)
#    0.000    3.000    0.000    3.857    0.000    3.714 
#    5.143    0.000    0.000    1.714    0.000    5.000 
#    0.000    0.000    0.000    0.000    0.000    0.000 
#
# Total GULP energy -693746.559620 kJ/mol
# GULP energy per Si atom -12388.331422 kJ/mol
# Density = 1.034677 g / cm^3
# Si number density = 10.370370 Si / 1000 Ang^3
#
#
#
# Elastic Constant Matrix: (Units=GPa)
#
#
# Indices 1 2 3 4 5 6 
#
# 1 108.3181 13.5441 45.5570 0.0000 0.0000 0.0000
# 2 13.5441 34.5340 24.3715 0.0000 0.0000 0.0000
# 3 45.5570 24.3715 95.8460 0.0000 0.0000 0.0000
# 4 0.0000 0.0000 0.0000 20.2181 0.0000 0.0000
# 5 0.0000 0.0000 0.0000 0.0000 12.3882 0.0000
# 6 0.0000 0.0000 0.0000 0.0000 0.0000 23.3110
#
#
#
# Elastic Compliance Matrix: (Units=1/GPa)
#
#
# Indices 1 2 3 4 5 6 
#
# 1 0.011557 -0.000799 -0.005290 0.000000 0.000000 0.000000
# 2 -0.000799 0.035345 -0.008607 0.000000 0.000000 0.000000
# 3 -0.005290 -0.008607 0.015136 0.000000 0.000000 0.000000
# 4 0.000000 0.000000 0.000000 0.049461 0.000000 0.000000
# 5 0.000000 0.000000 0.000000 0.000000 0.080722 0.000000
# 6 0.000000 0.000000 0.000000 0.000000 0.000000 0.042898
#
#
# Mechanical properties :
#
#
# Convention : Reuss Voigt Hill
#
# Bulk Modulus (GPa) = 30.63275 45.07149 37.85212
# Shear Modulus (GPa) = 18.15580 21.53182 19.84381
#
# Velocity S-wave (km/s) = 2.96187 3.22552 3.09650
# Velocity P-wave (km/s) = 5.14765 5.97076 5.57442
#
# Compressibility (1/GPa) = 0.03264480
#
# Stress axis : x y z
#
# Youngs Moduli (GPa) = 86.52861 28.29259 66.06565
#
# Poissons Ratio (x) = 0.02262 0.34948
# Poissons Ratio (y) = 0.06917 0.56866
# Poissons Ratio (z) = 0.45773 0.24353
#
# Static dielectric constant tensor:
#      x y z
#    x 3.960960 0.000000 0.000000 
#    y 0.000000 3.680100 0.000000 
#    z 0.000000 0.000000 3.628100 
# 
# 
# High freq. dielectric constant tensor:
#      x y z
#    x 1.815810 0.000000 0.000000 
#    y 0.000000 1.777540 0.000000 
#    z 0.000000 0.000000 1.799750 
# 
# From -- ./inp_files/36889.got.cif
#   From: 2010.03.12/outbox.ucp.g09.slc.cvg/sg63_19_cif.got.tgz:36889.got - 2010.05.04 19:38:17.
