data_PCOD8261837
_publ_section_title
;
Structure prediction by ZEFSAII (Michael W. Deem and Ramdas Pophale) SiO2 
 PCOD8261837
Probable space group: C M C A
;
_chemical_formula_sum "Si O2"
_cell_formula_units_Z 112
_cell_length_a 17.554744
_cell_length_b 18.235691
_cell_length_c 18.278074
_cell_angle_alpha 90.000000
_cell_angle_beta 90.000000
_cell_angle_gamma 90.000000
_cell_volume 5851.229821
_symmetry_space_group_name_H-M "C M C A"
_symmetry_group_IT_number 64
_symmetry_cell_setting 'orthorhombic'
loop_
_space_group_symop_operation_xyz
x,y,z
-x,1/2-y,1/2+z
x,-y,-z
-x,1/2+y,1/2-z
-x,-y,-z
x,1/2+y,1/2-z
-x,y,z
x,1/2-y,1/2+z
1/2+x,1/2+y,z
1/2-x,-y,1/2+z
1/2+x,1/2-y,-z
1/2-x,y,1/2-z
1/2-x,1/2-y,-z
1/2+x,y,1/2-z
1/2-x,1/2+y,z
1/2+x,-y,1/2+z
loop_
_atom_site_type_symbol
_atom_site_label
_atom_site_fract_x
_atom_site_fract_y
_atom_site_fract_z
Si Si1 0.801873 0.512030 0.819878
Si Si2 0.082833 0.360292 0.378566
Si Si3 0.817277 0.733210 0.897406
Si Si4 0.584911 0.283512 0.533139
Si Si5 0.282232 0.372715 0.597880
Si Si6 0.227094 0.902594 0.052629
Si Si7 0.089509 0.133375 0.711389
O O1 0.750000 0.531527 0.750000
O O2 0.803187 0.424372 0.832843
O O3 0.772652 0.542927 0.896419
O O4 0.884228 0.550212 0.808621
O O5 0.079174 0.277730 0.405764
O O6 0.138272 0.410137 0.427240
O O7 0.110185 0.354580 0.295427
O O8 0.000000 0.398190 0.383119
O O9 0.773271 0.807498 0.873785
O O10 0.752281 0.681374 0.931682
O O11 0.860349 0.694660 0.830009
O O12 0.880306 0.750800 0.958912
O O13 0.500000 0.314828 0.516485
O O14 0.637567 0.348152 0.563639
O O15 0.239144 0.418708 0.533391
O O16 0.000000 0.142087 0.693525
#
# Coordination Sequence:
#
# PCOD8261837 Si02
#       7
#    16  16  16  16  16  16  16
#     4  11  23  36  57  82 114 155 192 230 288 342
#     4  10  18  32  59  82 103 143 193 236 276 329
#     4  10  19  34  58  83 114 144 185 238 289 337
#     4  10  19  34  57  85 114 146 184 233 291 342
#     4  11  21  35  55  89 118 150 183 240 297 344
#     4  10  18  38  57  79 108 146 198 234 266 338
#     4  10  22  38  59  84 112 153 200 240 280 342
#
# _framework density 19.141275
#
# number of rings (size 3 to 8) (size 9 to 14) (size 15 to 20)
#    0.000    1.714    4.286    1.714    0.000    1.714 
#    0.000    0.000    0.000   11.143    0.000    0.000 
#    0.000    0.000    0.000    0.000    0.000    0.000 
#
# Total GULP energy -694155.280592 kJ/mol
# GULP energy per Si atom -12395.630011 kJ/mol
# Density = 1.909771 g / cm^3
# Si number density = 19.141275 Si / 1000 Ang^3
#
#
#
# Elastic Constant Matrix: (Units=GPa)
#
#
# Indices 1 2 3 4 5 6 
#
# 1 120.2449 28.0624 38.3221 0.0000 0.0000 0.0000
# 2 28.0624 71.4992 32.6182 0.0000 0.0000 0.0000
# 3 38.3221 32.6182 75.6331 0.0000 0.0000 0.0000
# 4 0.0000 0.0000 0.0000 24.6916 0.0000 0.0000
# 5 0.0000 0.0000 0.0000 0.0000 26.3839 0.0000
# 6 0.0000 0.0000 0.0000 0.0000 0.0000 19.5684
#
#
#
# Elastic Compliance Matrix: (Units=1/GPa)
#
#
# Indices 1 2 3 4 5 6 
#
# 1 0.010151 -0.002039 -0.004264 0.000000 0.000000 0.000000
# 2 -0.002039 0.017821 -0.006653 0.000000 0.000000 0.000000
# 3 -0.004264 -0.006653 0.018251 0.000000 0.000000 0.000000
# 4 0.000000 0.000000 0.000000 0.040500 0.000000 0.000000
# 5 0.000000 0.000000 0.000000 0.000000 0.037902 0.000000
# 6 0.000000 0.000000 0.000000 0.000000 0.000000 0.051103
#
#
# Mechanical properties :
#
#
# Convention : Reuss Voigt Hill
#
# Bulk Modulus (GPa) = 49.23084 51.70918 50.47001
# Shear Modulus (GPa) = 23.99111 25.35376 24.67244
#
# Velocity S-wave (km/s) = 3.54414 3.64340 3.59411
# Velocity P-wave (km/s) = 6.52100 6.69121 6.60665
#
# Compressibility (1/GPa) = 0.02031247
#
# Stress axis : x y z
#
# Youngs Moduli (GPa) = 98.51080 56.11225 54.79028
#
# Poissons Ratio (x) = 0.11441 0.23363
# Poissons Ratio (y) = 0.20085 0.36451
# Poissons Ratio (z) = 0.42006 0.37330
#
# Static dielectric constant tensor:
#      x y z
#    x 3.794440 0.000000 0.000000 
#    y 0.000000 3.345580 0.000000 
#    z 0.000000 0.000000 3.549500 
# 
# 
# High freq. dielectric constant tensor:
#      x y z
#    x 1.748530 0.000000 0.000000 
#    y 0.000000 1.722030 0.000000 
#    z 0.000000 0.000000 1.747830 
# 
# From -- ./inp_files/34481.got.cif
#   From: 2010.03.12/outbox.cif.g09.slc.cpg/sg64_18_cif.got.tgz:34481.got - 2010.04.10 20:19:32.
