data_PCOD8261658
_publ_section_title
;
Structure prediction by ZEFSAII (Michael W. Deem and Ramdas Pophale) SiO2 
 PCOD8261658
Probable space group: C M C A
;
_chemical_formula_sum "Si O2"
_cell_formula_units_Z 88
_cell_length_a 8.858798
_cell_length_b 20.620977
_cell_length_c 23.959451
_cell_angle_alpha 90.000000
_cell_angle_beta 90.000000
_cell_angle_gamma 90.000000
_cell_volume 4376.842303
_symmetry_space_group_name_H-M "C M C A"
_symmetry_group_IT_number 64
_symmetry_cell_setting 'orthorhombic'
loop_
_space_group_symop_operation_xyz
x,y,z
-x,1/2-y,1/2+z
x,-y,-z
-x,1/2+y,1/2-z
-x,-y,-z
x,1/2+y,1/2-z
-x,y,z
x,1/2-y,1/2+z
1/2+x,1/2+y,z
1/2-x,-y,1/2+z
1/2+x,1/2-y,-z
1/2-x,y,1/2-z
1/2-x,1/2-y,-z
1/2+x,y,1/2-z
1/2-x,1/2+y,z
1/2+x,-y,1/2+z
loop_
_atom_site_type_symbol
_atom_site_label
_atom_site_fract_x
_atom_site_fract_y
_atom_site_fract_z
Si Si1 0.256414 0.000000 0.000000
Si Si2 0.162596 0.012255 0.619659
Si Si3 0.321263 0.759637 0.692004
Si Si4 0.667693 0.860171 0.510918
Si Si5 0.679449 0.348630 0.396752
Si Si6 0.818891 0.628586 0.126219
O O1 0.364540 0.004400 0.946687
O O2 0.149879 0.062764 0.003646
O O3 0.245489 0.082115 0.627891
O O4 0.000000 0.015740 0.649648
O O5 0.243617 0.945218 0.639136
O O6 0.500000 0.767204 0.697359
O O7 0.250000 0.736497 0.750000
O O8 0.274343 0.706524 0.646402
O O9 0.247318 0.827980 0.675557
O O10 0.500000 0.829845 0.516157
O O11 0.750338 0.829999 0.456725
O O12 0.760191 0.843693 0.567035
O O13 0.500000 0.355293 0.404147
O O14 0.000000 0.629300 0.125887
#
# Coordination Sequence:
#
# PCOD8261658 Si02
#       6
#     8  16  16  16  16  16
#     4   8  14  24  42  74 115 150 175 208 259 316
#     4   8  14  28  52  80 108 140 178 217 260 313
#     4  11  24  42  61  78 102 139 182 228 275 324
#     4  10  18  29  50  82 117 147 178 218 265 317
#     4   9  19  36  57  81 110 144 181 220 266 321
#     4  10  20  35  57  83 113 147 181 219 265 319
#
# _framework density 20.105820000000001
#
# number of rings (size 3 to 8) (size 9 to 14) (size 15 to 20)
#    0.000    2.545    0.000    2.182    0.000    6.545 
#    0.000    1.818    0.000    2.182    0.000    0.000 
#    0.000    0.000    0.000    0.000    0.000    0.000 
#
# Total GULP energy -545092.724940 kJ/mol
# GULP energy per Si atom -12388.471021 kJ/mol
# Density = 2.006006 g / cm^3
# Si number density = 20.105820 Si / 1000 Ang^3
#
#
#
# Elastic Constant Matrix: (Units=GPa)
#
#
# Indices 1 2 3 4 5 6 
#
# 1 80.4451 13.7904 22.0038 0.0000 0.0000 0.0000
# 2 13.7904 74.3954 15.4184 0.0000 0.0000 0.0000
# 3 22.0038 15.4184 63.9932 0.0000 0.0000 0.0000
# 4 0.0000 0.0000 0.0000 19.6254 0.0000 0.0000
# 5 0.0000 0.0000 0.0000 0.0000 29.1776 0.0000
# 6 0.0000 0.0000 0.0000 0.0000 0.0000 16.9477
#
#
#
# Elastic Compliance Matrix: (Units=1/GPa)
#
#
# Indices 1 2 3 4 5 6 
#
# 1 0.013916 -0.001671 -0.004382 0.000000 0.000000 0.000000
# 2 -0.001671 0.014349 -0.002883 0.000000 0.000000 0.000000
# 3 -0.004382 -0.002883 0.017828 0.000000 0.000000 0.000000
# 4 0.000000 0.000000 0.000000 0.050954 0.000000 0.000000
# 5 0.000000 0.000000 0.000000 0.000000 0.034273 0.000000
# 6 0.000000 0.000000 0.000000 0.000000 0.000000 0.059005
#
#
# Mechanical properties :
#
#
# Convention : Reuss Voigt Hill
#
# Bulk Modulus (GPa) = 35.43504 35.69544 35.56524
# Shear Modulus (GPa) = 22.97747 24.32487 23.65117
#
# Velocity S-wave (km/s) = 3.38424 3.48205 3.43349
# Velocity P-wave (km/s) = 5.73875 5.82740 5.78325
#
# Compressibility (1/GPa) = 0.02822066
#
# Stress axis : x y z
#
# Youngs Moduli (GPa) = 71.85962 69.69179 56.09152
#
# Poissons Ratio (x) = 0.11648 0.24581
# Poissons Ratio (y) = 0.12010 0.16168
# Poissons Ratio (z) = 0.31491 0.20089
#
# Static dielectric constant tensor:
#      x y z
#    x 3.316670 0.000000 0.000000 
#    y 0.000000 3.929790 0.000000 
#    z 0.000000 0.000000 3.374890 
# 
# 
# High freq. dielectric constant tensor:
#      x y z
#    x 1.764100 0.000000 0.000000 
#    y 0.000000 1.795440 0.000000 
#    z 0.000000 0.000000 1.751760 
# 
# From -- ./inp_files/42864.got.cif
#   From: 2010.03.12/outbox.cif.g09.slc.cpg/sg64_22_cif.got.tgz:42864.got - 2010.04.10 20:19:32.
