data_PCOD8261757
_publ_section_title
;
Structure prediction by ZEFSAII (Michael W. Deem and Ramdas Pophale) SiO2 
 PCOD8261757
Probable space group: C M C A
;
_chemical_formula_sum "Si O2"
_cell_formula_units_Z 64
_cell_length_a 8.665235
_cell_length_b 20.762132
_cell_length_c 18.428668
_cell_angle_alpha 90.000000
_cell_angle_beta 90.000000
_cell_angle_gamma 90.000000
_cell_volume 3315.478677
_symmetry_space_group_name_H-M "C M C A"
_symmetry_group_IT_number 64
_symmetry_cell_setting 'orthorhombic'
loop_
_space_group_symop_operation_xyz
x,y,z
-x,1/2-y,1/2+z
x,-y,-z
-x,1/2+y,1/2-z
-x,-y,-z
x,1/2+y,1/2-z
-x,y,z
x,1/2-y,1/2+z
1/2+x,1/2+y,z
1/2-x,-y,1/2+z
1/2+x,1/2-y,-z
1/2-x,y,1/2-z
1/2-x,1/2-y,-z
1/2+x,y,1/2-z
1/2-x,1/2+y,z
1/2+x,-y,1/2+z
loop_
_atom_site_type_symbol
_atom_site_label
_atom_site_fract_x
_atom_site_fract_y
_atom_site_fract_z
Si Si1 0.319338 0.383064 0.829154
Si Si2 0.321744 0.996662 0.915675
Si Si3 0.817235 0.746603 0.169576
Si Si4 0.819208 0.623944 0.828973
O O1 0.500000 0.372770 0.820360
O O2 0.250000 0.396844 0.750000
O O3 0.285680 0.442846 0.880720
O O4 0.246258 0.318991 0.866864
O O5 0.500000 0.978944 0.901341
O O6 0.278931 0.065029 0.881106
O O7 0.283211 0.000000 0.000000
O O8 0.750000 0.747067 0.250000
O O9 0.754921 0.812388 0.133036
O O10 0.000000 0.746009 0.168833
O O11 0.750000 0.609512 0.750000
O O12 0.000000 0.635168 0.820129
#
# Coordination Sequence:
#
# PCOD8261757 Si02
#       4
#    16  16  16  16
#     4  11  21  35  57  83 110 140 179 222 267 319
#     4  10  22  39  56  77 109 146 182 223 270 318
#     4  10  18  31  53  80 109 137 172 218 268 317
#     4  10  19  33  55  81 108 138 175 218 265 317
#
# _framework density 19.303395999999999
#
# number of rings (size 3 to 8) (size 9 to 14) (size 15 to 20)
#    0.000    1.750    0.000    9.000    0.000    4.500 
#    0.000    1.250    0.000    0.000    0.000    0.000 
#    0.000    0.000    0.000    0.000    0.000    0.000 
#
# Total GULP energy -396791.801872 kJ/mol
# GULP energy per Si atom -12399.743808 kJ/mol
# Density = 1.925946 g / cm^3
# Si number density = 19.303396 Si / 1000 Ang^3
#
#
#
# Elastic Constant Matrix: (Units=GPa)
#
#
# Indices 1 2 3 4 5 6 
#
# 1 158.2291 83.9245 37.3366 0.0000 0.0000 0.0000
# 2 83.9245 175.3942 58.6125 0.0000 0.0000 0.0000
# 3 37.3366 58.6125 71.7039 0.0000 0.0000 0.0000
# 4 0.0000 0.0000 0.0000 -5.2260 0.0000 0.0000
# 5 0.0000 0.0000 0.0000 0.0000 19.3342 0.0000
# 6 0.0000 0.0000 0.0000 0.0000 0.0000 46.8887
#
#
#
# Elastic Compliance Matrix: (Units=1/GPa)
#
#
# Indices 1 2 3 4 5 6 
#
# 1 0.008590 -0.003598 -0.001531 0.000000 0.000000 0.000000
# 2 -0.003598 0.009352 -0.005771 0.000000 0.000000 0.000000
# 3 -0.001531 -0.005771 0.019461 0.000000 0.000000 0.000000
# 4 0.000000 0.000000 0.000000 -0.191350 0.000000 0.000000
# 5 0.000000 0.000000 0.000000 0.000000 0.051722 0.000000
# 6 0.000000 0.000000 0.000000 0.000000 0.000000 0.021327
#
#
# Mechanical properties :
#
#
# Convention : Reuss Voigt Hill
#
# Bulk Modulus (GPa) = 64.09647 85.00827 74.55237
# Shear Modulus (GPa) = -92.76827 27.22962 -32.76933
#
# Velocity S-wave (km/s) = -6.93991 3.75989 -4.12466
# Velocity P-wave (km/s) = 5.56234 7.93616 4.00269
#
# Compressibility (1/GPa) = 0.01560148
#
# Stress axis : x y z
#
# Youngs Moduli (GPa) = 116.41569 106.93322 51.38596
#
# Poissons Ratio (x) = 0.38479 0.07869
# Poissons Ratio (y) = 0.41892 0.29652
# Poissons Ratio (z) = 0.17827 0.61706
#
# Static dielectric constant tensor:
#      x y z
#    x 3.589440 0.000000 0.000000 
#    y 0.000000 4.370180 0.000000 
#    z 0.000000 0.000000 3.099240 
# 
# 
# High freq. dielectric constant tensor:
#      x y z
#    x 1.765230 0.000000 0.000000 
#    y 0.000000 1.780050 0.000000 
#    z 0.000000 0.000000 1.704610 
# 
# From -- ./inp_files/29235.got.cif
#   From: 2010.03.12/outbox.cif.g09.slc.cpg/sg64_15_cif.got.tgz:29235.got - 2010.04.10 20:19:32.
