data_PCOD8261376
_publ_section_title
;
Structure prediction by ZEFSAII (Michael W. Deem and Ramdas Pophale) SiO2 
 PCOD8261376
Probable space group: C M C M
;
_chemical_formula_sum "Si O2"
_cell_formula_units_Z 36
_cell_length_a 27.000000
_cell_length_b 18.000000
_cell_length_c 9.000000
_cell_angle_alpha 90.000000
_cell_angle_beta 90.000000
_cell_angle_gamma 90.000000
_cell_volume 4374.000000
_symmetry_space_group_name_H-M "C M C M"
_symmetry_group_IT_number 63
_symmetry_cell_setting 'orthorhombic'
loop_
_space_group_symop_operation_xyz
x,y,z
-x,-y,1/2+z
x,-y,-z
-x,y,1/2-z
-x,-y,-z
x,y,1/2-z
-x,y,z
x,-y,1/2+z
1/2+x,1/2+y,z
1/2-x,1/2-y,1/2+z
1/2+x,1/2-y,-z
1/2-x,1/2+y,1/2-z
1/2-x,1/2-y,-z
1/2+x,1/2+y,1/2-z
1/2-x,1/2+y,z
1/2+x,1/2-y,1/2+z
loop_
_atom_site_type_symbol
_atom_site_label
_atom_site_fract_x
_atom_site_fract_y
_atom_site_fract_z
Si Si1 0.807577 0.860939 0.417867
Si Si2 0.598585 0.334884 0.574597
Si Si3 0.000000 0.920315 0.574960
Si Si4 0.702264 0.921219 0.072741
Si Si5 0.149460 0.710815 0.081117
O O1 0.817110 0.889062 0.250000
O O2 0.854445 0.885578 0.520324
O O3 0.756970 0.895893 0.479999
O O4 0.804797 0.770244 0.420104
O O5 0.600981 0.323801 0.750000
O O6 0.548133 0.374290 0.523627
O O7 0.602601 0.253530 0.495449
O O8 0.000000 0.932721 0.750000
O O9 0.000000 0.000000 0.500000
O O10 0.698165 0.925544 0.250000
O O11 0.662682 0.862093 0.012401
O O12 0.689725 0.000000 0.000000
O O13 0.136009 0.687906 0.250000
#
# Coordination Sequence:
#
# PCOD8261376 Si02
#       5
#    16  16   8  16  16
#     4   8  18  33  49  69  96 130 168 201 239 289
#     4   9  18  33  52  71  94 128 166 203 244 289
#     4  10  22  36  52  76 103 130 163 204 248 290
#     4  11  21  32  47  71 101 132 164 203 245 286
#     4   9  18  34  51  70  95 128 167 203 241 292
#
# _framework density 8.2304530000000007
#
# number of rings (size 3 to 8) (size 9 to 14) (size 15 to 20)
#    1.333    1.333    0.000    2.000    0.000    4.444 
#    0.000    4.444    0.000    0.000    0.000    0.778 
#    0.000    0.000    0.000    0.000    0.000    0.000 
#
# Total GULP energy -446045.591590 kJ/mol
# GULP energy per Si atom -12390.155322 kJ/mol
# Density = 0.821172 g / cm^3
# Si number density = 8.230453 Si / 1000 Ang^3
#
#
#
# Elastic Constant Matrix: (Units=GPa)
#
#
# Indices 1 2 3 4 5 6 
#
# 1 93.1160 63.0840 44.6410 0.0000 0.0000 0.0000
# 2 63.0840 114.1524 48.7937 0.0000 0.0000 0.0000
# 3 44.6410 48.7937 93.9404 0.0000 0.0000 0.0000
# 4 0.0000 0.0000 0.0000 30.3678 0.0000 0.0000
# 5 0.0000 0.0000 0.0000 0.0000 23.6550 0.0000
# 6 0.0000 0.0000 0.0000 0.0000 0.0000 18.9935
#
#
#
# Elastic Compliance Matrix: (Units=1/GPa)
#
#
# Indices 1 2 3 4 5 6 
#
# 1 0.018526 -0.008323 -0.004481 0.000000 0.000000 0.000000
# 2 -0.008323 0.014999 -0.003836 0.000000 0.000000 0.000000
# 3 -0.004481 -0.003836 0.014767 0.000000 0.000000 0.000000
# 4 0.000000 0.000000 0.000000 0.032930 0.000000 0.000000
# 5 0.000000 0.000000 0.000000 0.000000 0.042274 0.000000
# 6 0.000000 0.000000 0.000000 0.000000 0.000000 0.052650
#
#
# Mechanical properties :
#
#
# Convention : Reuss Voigt Hill
#
# Bulk Modulus (GPa) = 66.60724 68.24957 67.42840
# Shear Modulus (GPa) = 23.31789 24.24928 23.78358
#
# Velocity S-wave (km/s) = 3.76781 3.84232 3.80525
# Velocity P-wave (km/s) = 7.71234 7.82535 7.76905
#
# Compressibility (1/GPa) = 0.01501338
#
# Stress axis : x y z
#
# Youngs Moduli (GPa) = 53.97881 66.67057 67.72038
#
# Poissons Ratio (x) = 0.55488 0.30343
# Poissons Ratio (y) = 0.44925 0.25976
# Poissons Ratio (z) = 0.24186 0.25573
#
# Static dielectric constant tensor:
#      x y z
#    x 2.914310 0.000000 0.000000 
#    y 0.000000 2.956330 0.000000 
#    z 0.000000 0.000000 3.134340 
# 
# 
# High freq. dielectric constant tensor:
#      x y z
#    x 1.602540 0.000000 0.000000 
#    y 0.000000 1.620710 0.000000 
#    z 0.000000 0.000000 1.649330 
# 
# From -- ./inp_files/11917.got.cif
#   From: 2010.03.12/outbox.ucp.g09.slc.cvg/sg63_6_cif.got.tgz:11917.got - 2010.05.04 19:38:17.
