data_PCOD8261014
_publ_section_title
;
Structure prediction by ZEFSAII (Michael W. Deem and Ramdas Pophale) SiO2 
 PCOD8261014
Probable space group: C M C M
;
_chemical_formula_sum "Si O2"
_cell_formula_units_Z 80
_cell_length_a 24.558959
_cell_length_b 20.474924
_cell_length_c 9.087434
_cell_angle_alpha 90.000000
_cell_angle_beta 90.000000
_cell_angle_gamma 90.000000
_cell_volume 4569.550930
_symmetry_space_group_name_H-M "C M C M"
_symmetry_group_IT_number 63
_symmetry_cell_setting 'orthorhombic'
loop_
_space_group_symop_operation_xyz
x,y,z
-x,-y,1/2+z
x,-y,-z
-x,y,1/2-z
-x,-y,-z
x,y,1/2-z
-x,y,z
x,-y,1/2+z
1/2+x,1/2+y,z
1/2-x,1/2-y,1/2+z
1/2+x,1/2-y,-z
1/2-x,1/2+y,1/2-z
1/2-x,1/2-y,-z
1/2+x,1/2+y,1/2-z
1/2-x,1/2+y,z
1/2+x,1/2-y,1/2+z
loop_
_atom_site_type_symbol
_atom_site_label
_atom_site_fract_x
_atom_site_fract_y
_atom_site_fract_z
Si Si1 0.605631 0.617382 0.579553
Si Si2 0.104643 0.266128 0.581562
Si Si3 0.000000 0.269809 0.416116
Si Si4 0.000000 0.114330 0.416520
Si Si5 0.276925 0.811658 0.922621
Si Si6 0.722836 0.433356 0.424255
O O1 0.590927 0.613610 0.750000
O O2 0.617133 0.691977 0.530649
O O3 0.554558 0.586632 0.492425
O O4 0.659152 0.576389 0.540941
O O5 0.086358 0.266364 0.750000
O O6 0.054732 0.297496 0.490978
O O7 0.158148 0.309070 0.555570
O O8 0.000000 0.192052 0.432139
O O9 0.000000 0.294152 0.250000
O O10 0.000000 0.090039 0.250000
O O11 0.261346 0.811624 0.750000
O O12 0.250000 0.750000 0.000000
O O13 0.257606 0.876617 0.002121
O O14 0.742151 0.500000 0.500000
O O15 0.734028 0.434420 0.250000
#
# Coordination Sequence:
#
# PCOD8261014 Si02
#       6
#    16  16   8   8  16  16
#     4   9  17  32  50  69  99 137 176 215 262 315
#     4   9  17  31  50  74 104 139 173 210 261 316
#     4   9  17  27  43  74 107 134 167 213 263 305
#     4   9  17  27  44  72  99 128 173 221 263 304
#     4  11  21  35  56  82 109 141 180 223 268 318
#     4  11  23  39  55  77 106 142 182 223 272 322
#
# _framework density 17.507190999999999
#
# number of rings (size 3 to 8) (size 9 to 14) (size 15 to 20)
#    0.000    2.200    2.000    1.800    0.000    5.600 
#    0.000    0.500    0.000    0.000    0.000    0.700 
#    0.000    0.000    0.000    0.000    0.000    0.000 
#
# Total GULP energy -496033.070947 kJ/mol
# GULP energy per Si atom -12400.826774 kJ/mol
# Density = 1.746734 g / cm^3
# Si number density = 17.507191 Si / 1000 Ang^3
#
#
#
# Elastic Constant Matrix: (Units=GPa)
#
#
# Indices 1 2 3 4 5 6 
#
# 1 99.2592 43.2729 68.2158 0.0000 0.0000 0.0000
# 2 43.2729 90.0873 50.6474 0.0000 0.0000 0.0000
# 3 68.2158 50.6474 115.6002 0.0000 0.0000 0.0000
# 4 0.0000 0.0000 0.0000 23.8031 0.0000 0.0000
# 5 0.0000 0.0000 0.0000 0.0000 33.2436 0.0000
# 6 0.0000 0.0000 0.0000 0.0000 0.0000 14.3587
#
#
#
# Elastic Compliance Matrix: (Units=1/GPa)
#
#
# Indices 1 2 3 4 5 6 
#
# 1 0.017741 -0.003498 -0.008937 0.000000 0.000000 0.000000
# 2 -0.003498 0.015418 -0.004691 0.000000 0.000000 0.000000
# 3 -0.008937 -0.004691 0.015979 0.000000 0.000000 0.000000
# 4 0.000000 0.000000 0.000000 0.042011 0.000000 0.000000
# 5 0.000000 0.000000 0.000000 0.000000 0.030081 0.000000
# 6 0.000000 0.000000 0.000000 0.000000 0.000000 0.069644
#
#
# Mechanical properties :
#
#
# Convention : Reuss Voigt Hill
#
# Bulk Modulus (GPa) = 67.16982 69.91320 68.54151
# Shear Modulus (GPa) = 21.73084 23.80178 22.76631
#
# Velocity S-wave (km/s) = 3.52696 3.69120 3.61001
# Velocity P-wave (km/s) = 7.41864 7.62806 7.52408
#
# Compressibility (1/GPa) = 0.01488764
#
# Stress axis : x y z
#
# Youngs Moduli (GPa) = 56.36595 64.86067 62.58114
#
# Poissons Ratio (x) = 0.22686 0.55927
# Poissons Ratio (y) = 0.19715 0.29356
# Poissons Ratio (z) = 0.50373 0.30425
#
# Static dielectric constant tensor:
#      x y z
#    x 3.371010 0.000000 0.000000 
#    y 0.000000 2.720020 0.000000 
#    z 0.000000 0.000000 3.348030 
# 
# 
# High freq. dielectric constant tensor:
#      x y z
#    x 1.682480 0.000000 0.000000 
#    y 0.000000 1.631630 0.000000 
#    z 0.000000 0.000000 1.687890 
# 
# From -- ./inp_files/10080.got.cif
#   From: 2010.03.12/outbox.cif.g09.slc.cpg/sg63_6_cif.got.tgz:10080.got - 2010.04.10 19:34:48.
