data_PCOD8261951
_publ_section_title
;
Structure prediction by ZEFSAII (Michael W. Deem and Ramdas Pophale) SiO2 
 PCOD8261951
Probable space group: C M C A
;
_chemical_formula_sum "Si O2"
_cell_formula_units_Z 96
_cell_length_a 17.702791
_cell_length_b 23.339364
_cell_length_c 11.758273
_cell_angle_alpha 90.000000
_cell_angle_beta 90.000000
_cell_angle_gamma 90.000000
_cell_volume 4858.187796
_symmetry_space_group_name_H-M "C M C A"
_symmetry_group_IT_number 64
_symmetry_cell_setting 'orthorhombic'
loop_
_space_group_symop_operation_xyz
x,y,z
-x,1/2-y,1/2+z
x,-y,-z
-x,1/2+y,1/2-z
-x,-y,-z
x,1/2+y,1/2-z
-x,y,z
x,1/2-y,1/2+z
1/2+x,1/2+y,z
1/2-x,-y,1/2+z
1/2+x,1/2-y,-z
1/2-x,y,1/2-z
1/2-x,1/2-y,-z
1/2+x,y,1/2-z
1/2-x,1/2+y,z
1/2+x,-y,1/2+z
loop_
_atom_site_type_symbol
_atom_site_label
_atom_site_fract_x
_atom_site_fract_y
_atom_site_fract_z
Si Si1 0.838991 0.575642 0.233947
Si Si2 0.331465 0.549764 0.703890
Si Si3 0.153328 0.343586 0.567062
Si Si4 0.915137 0.645033 0.669138
Si Si5 0.174790 0.367297 0.994691
Si Si6 0.410630 0.226986 0.867138
O O1 0.750000 0.574755 0.250000
O O2 0.873091 0.512261 0.208459
O O3 0.870868 0.604150 0.349727
O O4 0.860172 0.614518 0.125759
O O5 0.250000 0.535874 0.750000
O O6 0.366284 0.591046 0.796741
O O7 0.330247 0.577887 0.578985
O O8 0.096080 0.341994 0.462365
O O9 0.238656 0.347106 0.519937
O O10 0.138563 0.284614 0.633534
O O11 0.894388 0.700945 0.742669
O O12 0.000000 0.627191 0.695037
O O13 0.122469 0.315998 0.038347
O O14 0.500000 0.237022 0.889544
#
# Coordination Sequence:
#
# PCOD8261951 Si02
#       6
#    16  16  16  16  16  16
#     4   9  21  35  58  90 119 150 196 251 297 353
#     4  10  18  37  62  86 118 156 198 244 300 353
#     4  11  21  38  58  89 120 157 203 247 299 360
#     4  10  22  39  59  86 120 160 203 245 304 361
#     4  10  20  38  61  89 114 156 205 246 296 361
#     4  10  23  39  58  82 119 159 198 251 305 357
#
# _framework density 19.760453999999999
#
# number of rings (size 3 to 8) (size 9 to 14) (size 15 to 20)
#    0.000    2.000    1.667    1.500    2.333    0.667 
#    3.000    4.167    0.000    4.000    0.000    0.000 
#    0.000    0.000    0.000    0.000    0.000    0.000 
#
# Total GULP energy -595058.400397 kJ/mol
# GULP energy per Si atom -12397.050008 kJ/mol
# Density = 1.971548 g / cm^3
# Si number density = 19.760454 Si / 1000 Ang^3
#
#
#
# Elastic Constant Matrix: (Units=GPa)
#
#
# Indices 1 2 3 4 5 6 
#
# 1 38.8936 41.0494 22.5576 0.0000 0.0000 0.0000
# 2 41.0494 147.6515 59.0267 0.0000 0.0000 0.0000
# 3 22.5576 59.0267 124.7985 0.0000 0.0000 0.0000
# 4 0.0000 0.0000 0.0000 31.6114 0.0000 0.0000
# 5 0.0000 0.0000 0.0000 0.0000 19.0415 0.0000
# 6 0.0000 0.0000 0.0000 0.0000 0.0000 32.5286
#
#
#
# Elastic Compliance Matrix: (Units=1/GPa)
#
#
# Indices 1 2 3 4 5 6 
#
# 1 0.036890 -0.009360 -0.002241 0.000000 0.000000 0.000000
# 2 -0.009360 0.010727 -0.003382 0.000000 0.000000 0.000000
# 3 -0.002241 -0.003382 0.010017 0.000000 0.000000 0.000000
# 4 0.000000 0.000000 0.000000 0.031634 0.000000 0.000000
# 5 0.000000 0.000000 0.000000 0.000000 0.052517 0.000000
# 6 0.000000 0.000000 0.000000 0.000000 0.000000 0.030742
#
#
# Mechanical properties :
#
#
# Convention : Reuss Voigt Hill
#
# Bulk Modulus (GPa) = 36.14177 61.84567 48.99372
# Shear Modulus (GPa) = 23.61662 29.21696 26.41679
#
# Velocity S-wave (km/s) = 3.46084 3.84937 3.66026
# Velocity P-wave (km/s) = 5.85658 7.15000 6.53537
#
# Compressibility (1/GPa) = 0.02766881
#
# Stress axis : x y z
#
# Youngs Moduli (GPa) = 27.10780 93.22382 99.82634
#
# Poissons Ratio (x) = 0.87259 0.22369
# Poissons Ratio (y) = 0.25373 0.33758
# Poissons Ratio (z) = 0.06074 0.31525
#
# Static dielectric constant tensor:
#      x y z
#    x 3.364240 0.000000 0.000000 
#    y 0.000000 3.788180 0.000000 
#    z 0.000000 0.000000 3.770120 
# 
# 
# High freq. dielectric constant tensor:
#      x y z
#    x 1.747090 0.000000 0.000000 
#    y 0.000000 1.780070 0.000000 
#    z 0.000000 0.000000 1.781600 
# 
# From -- ./inp_files/16173.got.cif
#   From: 2010.03.12/outbox.cif.g09.slc.cpg/sg64_9_cif.got.tgz:16173.got - 2010.04.10 20:19:32.
