data_PCOD8261871
_publ_section_title
;
Structure prediction by ZEFSAII (Michael W. Deem and Ramdas Pophale) SiO2 
 PCOD8261871
Probable space group: C M C A
;
_chemical_formula_sum "Si O2"
_cell_formula_units_Z 80
_cell_length_a 15.059487
_cell_length_b 20.827398
_cell_length_c 13.998737
_cell_angle_alpha 90.000000
_cell_angle_beta 90.000000
_cell_angle_gamma 90.000000
_cell_volume 4390.702872
_symmetry_space_group_name_H-M "C M C A"
_symmetry_group_IT_number 64
_symmetry_cell_setting 'orthorhombic'
loop_
_space_group_symop_operation_xyz
x,y,z
-x,1/2-y,1/2+z
x,-y,-z
-x,1/2+y,1/2-z
-x,-y,-z
x,1/2+y,1/2-z
-x,y,z
x,1/2-y,1/2+z
1/2+x,1/2+y,z
1/2-x,-y,1/2+z
1/2+x,1/2-y,-z
1/2-x,y,1/2-z
1/2-x,1/2-y,-z
1/2+x,y,1/2-z
1/2-x,1/2+y,z
1/2+x,-y,1/2+z
loop_
_atom_site_type_symbol
_atom_site_label
_atom_site_fract_x
_atom_site_fract_y
_atom_site_fract_z
Si Si1 0.899007 0.572991 0.989583
Si Si2 0.730508 0.150073 0.853284
Si Si3 0.597250 0.802504 0.451119
Si Si4 0.355274 0.170993 0.140044
Si Si5 0.340254 0.706609 0.154147
O O1 0.835626 0.606201 0.912748
O O2 0.000000 0.576583 0.951823
O O3 0.867482 0.500000 0.000000
O O4 0.893103 0.605923 0.094220
O O5 0.750000 0.118483 0.750000
O O6 0.824657 0.154579 0.907586
O O7 0.685254 0.218807 0.835261
O O8 0.500000 0.826059 0.415125
O O9 0.610796 0.728344 0.426275
O O10 0.595495 0.806532 0.565984
O O11 0.388320 0.182273 0.248911
O O12 0.249157 0.166516 0.136964
#
# Coordination Sequence:
#
# PCOD8261871 Si02
#       5
#    16  16  16  16  16
#     4  11  24  41  60  82 112 154 197 233 273 331
#     4  11  20  39  57  83 117 147 187 235 285 340
#     4  11  20  31  55  88 119 146 180 233 297 343
#     4  10  18  35  57  82 115 149 184 232 281 337
#     4  10  18  33  58  86 116 145 183 231 295 341
#
# _framework density 18.220317000000001
#
# number of rings (size 3 to 8) (size 9 to 14) (size 15 to 20)
#    0.000    1.400    8.000    1.800    0.000    2.400 
#    3.600    0.000    0.000    0.600    0.000    0.000 
#    0.000    0.000    0.000    0.000    0.000    0.000 
#
# Total GULP energy -495918.642832 kJ/mol
# GULP energy per Si atom -12397.966071 kJ/mol
# Density = 1.817885 g / cm^3
# Si number density = 18.220317 Si / 1000 Ang^3
#
#
#
# Elastic Constant Matrix: (Units=GPa)
#
#
# Indices 1 2 3 4 5 6 
#
# 1 94.1822 46.1630 45.8444 0.0000 0.0000 0.0000
# 2 46.1630 89.7543 50.2798 0.0000 0.0000 0.0000
# 3 45.8444 50.2798 159.7737 0.0000 0.0000 0.0000
# 4 0.0000 0.0000 0.0000 10.3185 0.0000 0.0000
# 5 0.0000 0.0000 0.0000 0.0000 6.7120 0.0000
# 6 0.0000 0.0000 0.0000 0.0000 0.0000 12.6507
#
#
#
# Elastic Compliance Matrix: (Units=1/GPa)
#
#
# Indices 1 2 3 4 5 6 
#
# 1 0.014836 -0.006368 -0.002253 0.000000 0.000000 0.000000
# 2 -0.006368 0.016260 -0.003290 0.000000 0.000000 0.000000
# 3 -0.002253 -0.003290 0.007940 0.000000 0.000000 0.000000
# 4 0.000000 0.000000 0.000000 0.096913 0.000000 0.000000
# 5 0.000000 0.000000 0.000000 0.000000 0.148987 0.000000
# 6 0.000000 0.000000 0.000000 0.000000 0.000000 0.079047
#
#
# Mechanical properties :
#
#
# Convention : Reuss Voigt Hill
#
# Bulk Modulus (GPa) = 65.72681 69.80939 67.76810
# Shear Modulus (GPa) = 12.72667 19.36445 16.04556
#
# Velocity S-wave (km/s) = 2.64576 3.26359 2.97078
# Velocity P-wave (km/s) = 6.74426 7.25249 7.00299
#
# Compressibility (1/GPa) = 0.01521449
#
# Stress axis : x y z
#
# Youngs Moduli (GPa) = 67.40482 61.50156 125.93761
#
# Poissons Ratio (x) = 0.39167 0.28371
# Poissons Ratio (y) = 0.42926 0.41428
# Poissons Ratio (z) = 0.15185 0.20231
#
# Static dielectric constant tensor:
#      x y z
#    x 3.369620 0.000000 0.000000 
#    y 0.000000 2.993470 0.000000 
#    z 0.000000 0.000000 3.668090 
# 
# 
# High freq. dielectric constant tensor:
#      x y z
#    x 1.709920 0.000000 0.000000 
#    y 0.000000 1.654020 0.000000 
#    z 0.000000 0.000000 1.722540 
# 
# From -- ./inp_files/23649.got.cif
#   From: 2010.03.12/outbox.cif.g09.slc.cpg/sg64_12_cif.got.tgz:23649.got - 2010.04.10 20:19:32.
