data_PCOD8261597
_publ_section_title
;
Structure prediction by ZEFSAII (Michael W. Deem and Ramdas Pophale) SiO2 
 PCOD8261597
Probable space group: C M C A
;
_chemical_formula_sum "Si O2"
_cell_formula_units_Z 88
_cell_length_a 25.697126
_cell_length_b 8.824509
_cell_length_c 18.076249
_cell_angle_alpha 90.000000
_cell_angle_beta 90.000000
_cell_angle_gamma 90.000000
_cell_volume 4099.051922
_symmetry_space_group_name_H-M "C M C A"
_symmetry_group_IT_number 64
_symmetry_cell_setting 'orthorhombic'
loop_
_space_group_symop_operation_xyz
x,y,z
-x,1/2-y,1/2+z
x,-y,-z
-x,1/2+y,1/2-z
-x,-y,-z
x,1/2+y,1/2-z
-x,y,z
x,1/2-y,1/2+z
1/2+x,1/2+y,z
1/2-x,-y,1/2+z
1/2+x,1/2-y,-z
1/2-x,y,1/2-z
1/2-x,1/2-y,-z
1/2+x,y,1/2-z
1/2-x,1/2+y,z
1/2+x,-y,1/2+z
loop_
_atom_site_type_symbol
_atom_site_label
_atom_site_fract_x
_atom_site_fract_y
_atom_site_fract_z
Si Si1 0.900057 0.493182 0.323367
Si Si2 0.500000 0.592118 0.348891
Si Si3 0.000000 0.850570 0.249803
Si Si4 0.393441 0.796704 0.912356
Si Si5 0.940914 0.658002 0.456489
Si Si6 0.821179 0.437925 0.806704
Si Si7 0.750000 0.313682 0.250000
O O1 0.949076 0.420153 0.285481
O O2 0.875138 0.359277 0.372871
O O3 0.917731 0.634839 0.374370
O O4 0.860307 0.557738 0.262975
O O5 0.500000 0.409229 0.335482
O O6 0.549273 0.648796 0.392115
O O7 0.500000 0.670534 0.265416
O O8 0.352353 0.924966 0.885067
O O9 0.400220 0.770588 0.000662
O O10 0.942832 0.500000 0.500000
O O11 0.000000 0.723036 0.452468
O O12 0.784176 0.584274 0.806368
O O13 0.786612 0.287708 0.800915
#
# Coordination Sequence:
#
# PCOD8261597 Si02
#       7
#    16   8   8  16  16  16   8
#     4  10  18  30  52  81 113 147 175 209 265 320
#     4  10  18  27  45  81 115 139 170 210 250 320
#     4  10  18  27  45  81 115 139 170 210 250 320
#     4  10  18  30  52  81 113 147 175 209 265 320
#     4   9  16  28  48  80 122 151 174 205 247 324
#     4  11  20  37  58  80 102 139 184 235 282 316
#     4  10  24  38  56  78 104 130 188 252 280 312
#
# _framework density 21.468378000000001
#
# number of rings (size 3 to 8) (size 9 to 14) (size 15 to 20)
#    0.000    2.000    5.455    0.000    0.000    0.000 
#    0.000    0.000    0.000    7.636    0.000    2.545 
#    0.000    0.000    0.000    0.000    0.000    0.000 
#
# Total GULP energy -545099.168123 kJ/mol
# GULP energy per Si atom -12388.617457 kJ/mol
# Density = 2.141952 g / cm^3
# Si number density = 21.468378 Si / 1000 Ang^3
#
#
#
# Elastic Constant Matrix: (Units=GPa)
#
#
# Indices 1 2 3 4 5 6 
#
# 1 104.8650 21.5864 14.9617 0.0000 0.0000 0.0000
# 2 21.5864 47.2351 -10.5171 0.0000 0.0000 0.0000
# 3 14.9617 -10.5171 35.5288 0.0000 0.0000 0.0000
# 4 0.0000 0.0000 0.0000 21.7126 0.0000 0.0000
# 5 0.0000 0.0000 0.0000 0.0000 26.1328 0.0000
# 6 0.0000 0.0000 0.0000 0.0000 0.0000 17.2778
#
#
#
# Elastic Compliance Matrix: (Units=1/GPa)
#
#
# Indices 1 2 3 4 5 6 
#
# 1 0.012016 -0.007085 -0.007157 0.000000 0.000000 0.000000
# 2 -0.007085 0.026842 0.010929 0.000000 0.000000 0.000000
# 3 -0.007157 0.010929 0.034395 0.000000 0.000000 0.000000
# 4 0.000000 0.000000 0.000000 0.046056 0.000000 0.000000
# 5 0.000000 0.000000 0.000000 0.000000 0.038266 0.000000
# 6 0.000000 0.000000 0.000000 0.000000 0.000000 0.057878
#
#
# Mechanical properties :
#
#
# Convention : Reuss Voigt Hill
#
# Bulk Modulus (GPa) = 15.00887 26.63233 20.82060
# Shear Modulus (GPa) = 20.46768 23.79782 22.13275
#
# Velocity S-wave (km/s) = 3.09105 3.33303 3.21432
# Velocity P-wave (km/s) = 4.44362 5.21962 4.84718
#
# Compressibility (1/GPa) = 0.06662726
#
# Stress axis : x y z
#
# Youngs Moduli (GPa) = 83.22508 37.25529 29.07370
#
# Poissons Ratio (x) = 0.26394 0.20808
# Poissons Ratio (y) = 0.58962 -0.31775
# Poissons Ratio (z) = 0.59565 -0.40717
#
# Static dielectric constant tensor:
#      x y z
#    x 3.738370 0.000000 0.000000 
#    y 0.000000 4.191460 0.000000 
#    z 0.000000 0.000000 3.803700 
# 
# 
# High freq. dielectric constant tensor:
#      x y z
#    x 1.830600 0.000000 0.000000 
#    y 0.000000 1.841890 0.000000 
#    z 0.000000 0.000000 1.815170 
# 
# From -- ./inp_files/42061.got.cif
#   From: 2010.03.12/outbox.cif.g09.slc.cpg/sg64_22_cif.got.tgz:42061.got - 2010.04.10 20:19:32.
