data_PCOD8261858
_publ_section_title
;
Structure prediction by ZEFSAII (Michael W. Deem and Ramdas Pophale) SiO2 
 PCOD8261858
Probable space group: C M C A
;
_chemical_formula_sum "Si O2"
_cell_formula_units_Z 88
_cell_length_a 19.297020
_cell_length_b 19.493843
_cell_length_c 10.343586
_cell_angle_alpha 90.000000
_cell_angle_beta 90.000000
_cell_angle_gamma 90.000000
_cell_volume 3890.978586
_symmetry_space_group_name_H-M "C M C A"
_symmetry_group_IT_number 64
_symmetry_cell_setting 'orthorhombic'
loop_
_space_group_symop_operation_xyz
x,y,z
-x,1/2-y,1/2+z
x,-y,-z
-x,1/2+y,1/2-z
-x,-y,-z
x,1/2+y,1/2-z
-x,y,z
x,1/2-y,1/2+z
1/2+x,1/2+y,z
1/2-x,-y,1/2+z
1/2+x,1/2-y,-z
1/2-x,y,1/2-z
1/2-x,1/2-y,-z
1/2+x,y,1/2-z
1/2-x,1/2+y,z
1/2+x,-y,1/2+z
loop_
_atom_site_type_symbol
_atom_site_label
_atom_site_fract_x
_atom_site_fract_y
_atom_site_fract_z
Si Si1 0.148604 0.888329 0.212030
Si Si2 0.211579 0.159426 0.043242
Si Si3 0.500000 0.605476 0.758532
Si Si4 0.500000 0.049618 0.223234
Si Si5 0.637137 0.532531 0.138229
Si Si6 0.000000 0.837416 0.513732
Si Si7 0.853396 0.201717 0.534369
O O1 0.069215 0.883657 0.156198
O O2 0.149947 0.853735 0.351264
O O3 0.166329 0.969887 0.227237
O O4 0.199875 0.852627 0.111025
O O5 0.195064 0.091670 0.125532
O O6 0.162359 0.222166 0.088026
O O7 0.292009 0.179641 0.065123
O O8 0.500000 0.530701 0.691718
O O9 0.500000 0.657574 0.640265
O O10 0.431457 0.068202 0.304703
O O11 0.500000 0.091277 0.089842
O O12 0.618519 0.500000 0.000000
O O13 0.072751 0.797730 0.542548
#
# Coordination Sequence:
#
# PCOD8261858 Si02
#       7
#    16  16   8   8  16   8  16
#     4   9  18  37  61  84 115 155 190 234 290 339
#     4  10  21  38  59  86 116 151 193 239 286 342
#     4   8  17  34  57  83 113 150 191 232 283 340
#     4  10  18  33  56  83 118 150 185 241 292 332
#     4   9  19  36  59  86 113 151 201 241 283 340
#     4  10  21  37  55  82 114 152 192 229 280 348
#     4  10  22  39  59  84 120 154 189 237 291 344
#
# _framework density 22.616417999999999
#
# number of rings (size 3 to 8) (size 9 to 14) (size 15 to 20)
#    0.000    2.545    0.000    1.091    0.000    5.091 
#    0.000   26.364    0.000    0.000    0.000    0.000 
#    0.000    0.000    0.000    0.000    0.000    0.000 
#
# Total GULP energy -545218.951120 kJ/mol
# GULP energy per Si atom -12391.339798 kJ/mol
# Density = 2.256494 g / cm^3
# Si number density = 22.616418 Si / 1000 Ang^3
#
#
#
# Elastic Constant Matrix: (Units=GPa)
#
#
# Indices 1 2 3 4 5 6 
#
# 1 170.1638 49.3030 8.6595 0.0000 0.0000 0.0000
# 2 49.3030 130.8416 24.8357 0.0000 0.0000 0.0000
# 3 8.6595 24.8357 32.9709 0.0000 0.0000 0.0000
# 4 0.0000 0.0000 0.0000 27.8518 0.0000 0.0000
# 5 0.0000 0.0000 0.0000 0.0000 16.7558 0.0000
# 6 0.0000 0.0000 0.0000 0.0000 0.0000 27.7120
#
#
#
# Elastic Compliance Matrix: (Units=1/GPa)
#
#
# Indices 1 2 3 4 5 6 
#
# 1 0.006598 -0.002517 0.000163 0.000000 0.000000 0.000000
# 2 -0.002517 0.009878 -0.006780 0.000000 0.000000 0.000000
# 3 0.000163 -0.006780 0.035394 0.000000 0.000000 0.000000
# 4 0.000000 0.000000 0.000000 0.035904 0.000000 0.000000
# 5 0.000000 0.000000 0.000000 0.000000 0.059681 0.000000
# 6 0.000000 0.000000 0.000000 0.000000 0.000000 0.036085
#
#
# Mechanical properties :
#
#
# Convention : Reuss Voigt Hill
#
# Bulk Modulus (GPa) = 29.75978 55.50807 42.63392
# Shear Modulus (GPa) = 23.47326 31.20914 27.34120
#
# Velocity S-wave (km/s) = 3.22512 3.71877 3.48071
# Velocity P-wave (km/s) = 5.20150 6.56015 5.91993
#
# Compressibility (1/GPa) = 0.03360240
#
# Stress axis : x y z
#
# Youngs Moduli (GPa) = 151.56838 101.23296 28.25354
#
# Poissons Ratio (x) = 0.25481 -0.00461
# Poissons Ratio (y) = 0.38151 0.19155
# Poissons Ratio (z) = -0.02474 0.68634
#
# Static dielectric constant tensor:
#      x y z
#    x 4.565880 0.000000 0.000000 
#    y 0.000000 4.184640 0.000000 
#    z 0.000000 0.000000 3.511050 
# 
# 
# High freq. dielectric constant tensor:
#      x y z
#    x 1.907160 0.000000 0.000000 
#    y 0.000000 1.891550 0.000000 
#    z 0.000000 0.000000 1.850940 
# 
# From -- ./inp_files/17217.got.cif
#   From: 2010.03.12/outbox.cif.g09.slc.cpg/sg64_9_cif.got.tgz:17217.got - 2010.04.10 20:19:32.
