data_PCOD8261861
_publ_section_title
;
Structure prediction by ZEFSAII (Michael W. Deem and Ramdas Pophale) SiO2 
 PCOD8261861
Probable space group: C M C A
;
_chemical_formula_sum "Si O2"
_cell_formula_units_Z 72
_cell_length_a 24.636174
_cell_length_b 9.815165
_cell_length_c 13.596883
_cell_angle_alpha 90.000000
_cell_angle_beta 90.000000
_cell_angle_gamma 90.000000
_cell_volume 3287.836618
_symmetry_space_group_name_H-M "C M C A"
_symmetry_group_IT_number 64
_symmetry_cell_setting 'orthorhombic'
loop_
_space_group_symop_operation_xyz
x,y,z
-x,1/2-y,1/2+z
x,-y,-z
-x,1/2+y,1/2-z
-x,-y,-z
x,1/2+y,1/2-z
-x,y,z
x,1/2-y,1/2+z
1/2+x,1/2+y,z
1/2-x,-y,1/2+z
1/2+x,1/2-y,-z
1/2-x,y,1/2-z
1/2-x,1/2-y,-z
1/2+x,y,1/2-z
1/2-x,1/2+y,z
1/2+x,-y,1/2+z
loop_
_atom_site_type_symbol
_atom_site_label
_atom_site_fract_x
_atom_site_fract_y
_atom_site_fract_z
Si Si1 0.120377 0.000000 0.000000
Si Si2 0.623634 0.789602 0.763394
Si Si3 0.281309 0.602011 0.151047
Si Si4 0.798326 0.306633 0.424726
Si Si5 0.062890 0.529662 0.706601
O O1 0.164523 0.127634 0.014383
O O2 0.082512 0.018640 0.906676
O O3 0.657597 0.847290 0.671336
O O4 0.658365 0.781352 0.862892
O O5 0.573407 0.895359 0.771830
O O6 0.597333 0.644925 0.737869
O O7 0.250000 0.641758 0.250000
O O8 0.252120 0.693769 0.062270
O O9 0.276883 0.439148 0.135186
O O10 0.000000 0.566413 0.705763
#
# Coordination Sequence:
#
# PCOD8261861 Si02
#       5
#     8  16  16  16  16
#     4  10  21  40  52  88 118 154 185 236 290 342
#     4  10  19  36  57  86 112 145 193 237 279 339
#     4  10  18  33  56  86 113 150 181 232 273 340
#     4  10  21  33  58  82 120 149 186 219 288 340
#     4  11  22  38  62  84 111 149 198 243 287 331
#
# _framework density 21.898899
#
# number of rings (size 3 to 8) (size 9 to 14) (size 15 to 20)
#    0.000    1.778    4.444    3.000    3.111    0.889 
#    0.000    0.000    0.000    5.333    0.000   14.000 
#    0.000    0.000    0.000    0.000    0.000    0.000 
#
# Total GULP energy -446022.980562 kJ/mol
# GULP energy per Si atom -12389.527238 kJ/mol
# Density = 2.184906 g / cm^3
# Si number density = 21.898899 Si / 1000 Ang^3
#
#
#
# Elastic Constant Matrix: (Units=GPa)
#
#
# Indices 1 2 3 4 5 6 
#
# 1 113.5015 30.4783 17.0822 0.0000 0.0000 0.0000
# 2 30.4783 119.9971 26.2245 0.0000 0.0000 0.0000
# 3 17.0822 26.2245 38.0403 0.0000 0.0000 0.0000
# 4 0.0000 0.0000 0.0000 35.6368 0.0000 0.0000
# 5 0.0000 0.0000 0.0000 0.0000 20.7455 0.0000
# 6 0.0000 0.0000 0.0000 0.0000 0.0000 40.7152
#
#
#
# Elastic Compliance Matrix: (Units=1/GPa)
#
#
# Indices 1 2 3 4 5 6 
#
# 1 0.009766 -0.001792 -0.003150 0.000000 0.000000 0.000000
# 2 -0.001792 0.010141 -0.006186 0.000000 0.000000 0.000000
# 3 -0.003150 -0.006186 0.031967 0.000000 0.000000 0.000000
# 4 0.000000 0.000000 0.000000 0.028061 0.000000 0.000000
# 5 0.000000 0.000000 0.000000 0.000000 0.048203 0.000000
# 6 0.000000 0.000000 0.000000 0.000000 0.000000 0.024561
#
#
# Mechanical properties :
#
#
# Convention : Reuss Voigt Hill
#
# Bulk Modulus (GPa) = 33.76409 46.56764 40.16586
# Shear Modulus (GPa) = 27.05233 32.60310 29.82771
#
# Velocity S-wave (km/s) = 3.51854 3.86268 3.69462
# Velocity P-wave (km/s) = 5.65318 6.41909 6.04827
#
# Compressibility (1/GPa) = 0.02961726
#
# Stress axis : x y z
#
# Youngs Moduli (GPa) = 102.39881 98.61320 31.28218
#
# Poissons Ratio (x) = 0.17672 0.09854
# Poissons Ratio (y) = 0.18350 0.19352
# Poissons Ratio (z) = 0.32255 0.61003
#
# Static dielectric constant tensor:
#      x y z
#    x 4.181020 0.000000 0.000000 
#    y 0.000000 4.051140 0.000000 
#    z 0.000000 0.000000 4.273350 
# 
# 
# High freq. dielectric constant tensor:
#      x y z
#    x 1.873570 0.000000 0.000000 
#    y 0.000000 1.867930 0.000000 
#    z 0.000000 0.000000 1.880240 
# 
# From -- ./inp_files/27823.got.cif
#   From: 2010.03.12/outbox.cif.g09.slc.cpg/sg64_14_cif.got.tgz:27823.got - 2010.04.10 20:19:32.
