data_PCOD8261424
_publ_section_title
;
Structure prediction by ZEFSAII (Michael W. Deem and Ramdas Pophale) SiO2 
 PCOD8261424
Probable space group: C M C A
;
_chemical_formula_sum "Si O2"
_cell_formula_units_Z 120
_cell_length_a 29.288114
_cell_length_b 13.392529
_cell_length_c 16.912763
_cell_angle_alpha 90.000000
_cell_angle_beta 90.000000
_cell_angle_gamma 90.000000
_cell_volume 6633.894566
_symmetry_space_group_name_H-M "C M C A"
_symmetry_group_IT_number 64
_symmetry_cell_setting 'orthorhombic'
loop_
_space_group_symop_operation_xyz
x,y,z
-x,1/2-y,1/2+z
x,-y,-z
-x,1/2+y,1/2-z
-x,-y,-z
x,1/2+y,1/2-z
-x,y,z
x,1/2-y,1/2+z
1/2+x,1/2+y,z
1/2-x,-y,1/2+z
1/2+x,1/2-y,-z
1/2-x,y,1/2-z
1/2-x,1/2-y,-z
1/2+x,y,1/2-z
1/2-x,1/2+y,z
1/2+x,-y,1/2+z
loop_
_atom_site_type_symbol
_atom_site_label
_atom_site_fract_x
_atom_site_fract_y
_atom_site_fract_z
Si Si1 0.553675 0.406899 0.276514
Si Si2 0.702012 0.824803 0.226266
Si Si3 0.250000 0.013517 0.250000
Si Si4 0.119423 0.611495 0.487113
Si Si5 0.619605 0.192996 0.658966
Si Si6 0.095697 0.110450 0.265248
Si Si7 0.320640 0.130451 0.345370
Si Si8 0.051272 0.716705 0.372404
O O1 0.500000 0.416056 0.258278
O O2 0.578808 0.373151 0.195856
O O3 0.575859 0.510820 0.305190
O O4 0.563452 0.330363 0.348076
O O5 0.750000 0.772232 0.250000
O O6 0.713531 0.940552 0.203576
O O7 0.667264 0.828569 0.298760
O O8 0.681333 0.752385 0.158634
O O9 0.273406 0.079447 0.318493
O O10 0.099928 0.500000 0.500000
O O11 0.128970 0.665309 0.569049
O O12 0.166113 0.603097 0.435333
O O13 0.083355 0.680146 0.442122
O O14 0.606300 0.309798 0.665834
O O15 0.141009 0.088919 0.214316
O O16 0.056747 0.150736 0.206223
O O17 0.000000 0.707979 0.403838
#
# Coordination Sequence:
#
# PCOD8261424 Si02
#       8
#    16  16   8  16  16  16  16  16
#     4  10  19  34  58  85 111 144 192 233 266 312
#     4   9  19  33  58  79 100 141 187 227 269 314
#     4  10  16  30  58  76  98 128 182 224 264 320
#     4  11  22  34  54  78 114 147 172 224 289 337
#     4  10  20  36  53  84 113 144 183 228 278 329
#     4   9  18  32  56  76 105 144 187 231 262 310
#     4  10  19  34  53  80 104 137 182 222 271 330
#     4   9  19  34  52  80 112 145 184 224 268 327
#
# _framework density 18.088922
#
# number of rings (size 3 to 8) (size 9 to 14) (size 15 to 20)
#    0.400    1.867    0.667    4.400    0.000    1.333 
#    0.000    1.333    0.000    1.600    0.000    0.000 
#    0.000    0.000    0.000    0.000    0.000    0.000 
#
# Total GULP energy -743522.548907 kJ/mol
# GULP energy per Si atom -12392.042482 kJ/mol
# Density = 1.804775 g / cm^3
# Si number density = 18.088922 Si / 1000 Ang^3
#
#
#
# Elastic Constant Matrix: (Units=GPa)
#
#
# Indices 1 2 3 4 5 6 
#
# 1 106.3503 51.0871 48.1431 0.0000 0.0000 0.0000
# 2 51.0871 124.6594 59.6529 0.0000 0.0000 0.0000
# 3 48.1431 59.6529 98.6825 0.0000 0.0000 0.0000
# 4 0.0000 0.0000 0.0000 19.7450 0.0000 0.0000
# 5 0.0000 0.0000 0.0000 0.0000 18.4393 0.0000
# 6 0.0000 0.0000 0.0000 0.0000 0.0000 29.0306
#
#
#
# Elastic Compliance Matrix: (Units=1/GPa)
#
#
# Indices 1 2 3 4 5 6 
#
# 1 0.012919 -0.003206 -0.004365 0.000000 0.000000 0.000000
# 2 -0.003206 0.012082 -0.005740 0.000000 0.000000 0.000000
# 3 -0.004365 -0.005740 0.015732 0.000000 0.000000 0.000000
# 4 0.000000 0.000000 0.000000 0.050646 0.000000 0.000000
# 5 0.000000 0.000000 0.000000 0.000000 0.054232 0.000000
# 6 0.000000 0.000000 0.000000 0.000000 0.000000 0.034446
#
#
# Mechanical properties :
#
#
# Convention : Reuss Voigt Hill
#
# Bulk Modulus (GPa) = 70.85540 71.93980 71.39760
# Shear Modulus (GPa) = 23.65391 24.83026 24.24209
#
# Velocity S-wave (km/s) = 3.62006 3.70899 3.66479
# Velocity P-wave (km/s) = 7.53185 7.62880 7.58048
#
# Compressibility (1/GPa) = 0.01411325
#
# Stress axis : x y z
#
# Youngs Moduli (GPa) = 77.40796 82.76671 63.56280
#
# Poissons Ratio (x) = 0.26532 0.27743
# Poissons Ratio (y) = 0.24814 0.36483
# Poissons Ratio (z) = 0.33786 0.47506
#
# Static dielectric constant tensor:
#      x y z
#    x 3.494720 0.000000 0.000000 
#    y 0.000000 3.565380 0.000000 
#    z 0.000000 0.000000 2.956270 
# 
# 
# High freq. dielectric constant tensor:
#      x y z
#    x 1.709200 0.000000 0.000000 
#    y 0.000000 1.717900 0.000000 
#    z 0.000000 0.000000 1.651030 
# 
# From -- ./inp_files/28505.got.cif
#   From: 2010.03.12/outbox.cif.g09.slc.cpg/sg64_15_cif.got.tgz:28505.got - 2010.04.10 20:19:32.
