data_PCOD8261971
_publ_section_title
;
Structure prediction by ZEFSAII (Michael W. Deem and Ramdas Pophale) SiO2 
 PCOD8261971
Probable space group: C M C A
;
_chemical_formula_sum "Si O2"
_cell_formula_units_Z 128
_cell_length_a 26.883097
_cell_length_b 23.211734
_cell_length_c 11.495677
_cell_angle_alpha 90.000000
_cell_angle_beta 90.000000
_cell_angle_gamma 90.000000
_cell_volume 7173.340345
_symmetry_space_group_name_H-M "C M C A"
_symmetry_group_IT_number 64
_symmetry_cell_setting 'orthorhombic'
loop_
_space_group_symop_operation_xyz
x,y,z
-x,1/2-y,1/2+z
x,-y,-z
-x,1/2+y,1/2-z
-x,-y,-z
x,1/2+y,1/2-z
-x,y,z
x,1/2-y,1/2+z
1/2+x,1/2+y,z
1/2-x,-y,1/2+z
1/2+x,1/2-y,-z
1/2-x,y,1/2-z
1/2-x,1/2-y,-z
1/2+x,y,1/2-z
1/2-x,1/2+y,z
1/2+x,-y,1/2+z
loop_
_atom_site_type_symbol
_atom_site_label
_atom_site_fract_x
_atom_site_fract_y
_atom_site_fract_z
Si Si1 0.112579 0.822425 0.216376
Si Si2 0.696063 0.127750 0.197028
Si Si3 0.297085 0.787070 0.016537
Si Si4 0.860028 0.564310 0.013916
Si Si5 0.363970 0.212813 0.336106
Si Si6 0.943668 0.284125 0.499581
Si Si7 0.199701 0.614410 0.809030
Si Si8 0.943089 0.345390 0.047693
O O1 0.136379 0.758628 0.231106
O O2 0.082334 0.823150 0.098036
O O3 0.156537 0.870698 0.214286
O O4 0.074380 0.835686 0.320593
O O5 0.750000 0.111630 0.250000
O O6 0.694665 0.176040 0.097951
O O7 0.669549 0.072352 0.137400
O O8 0.664907 0.154428 0.303862
O O9 0.250000 0.750000 0.000000
O O10 0.342265 0.743952 0.046667
O O11 0.286509 0.826214 0.128253
O O12 0.881352 0.500000 0.000000
O O13 0.821612 0.571494 0.906767
O O14 0.906048 0.608873 0.012480
O O15 0.419880 0.197578 0.376123
O O16 0.939727 0.215004 0.477967
O O17 0.000000 0.304293 0.505263
O O18 0.250000 0.588881 0.750000
O O19 0.000000 0.368442 0.046571
#
# Coordination Sequence:
#
# PCOD8261971 Si02
#       8
#    16  16  16  16  16  16  16  16
#     4   9  17  29  46  72 104 137 161 190 232 290
#     4  11  21  33  49  75 102 138 168 197 247 294
#     4  10  19  28  45  73 106 132 159 195 229 289
#     4  10  22  39  52  70  95 122 171 225 255 284
#     4  10  19  29  45  70 107 134 169 195 231 289
#     4  10  19  30  48  74 107 140 160 186 238 302
#     4   9  20  31  49  73  98 131 167 199 241 292
#     4   9  18  34  51  72  96 125 166 206 248 300
#
# _framework density 17.843848999999999
#
# number of rings (size 3 to 8) (size 9 to 14) (size 15 to 20)
#    0.000    2.250    1.250    4.125    5.250    1.250 
#    0.000    0.625    0.000    0.000    0.000    0.000 
#    0.000    5.000    0.000    0.000    0.000    0.000 
#
# Total GULP energy -793084.618259 kJ/mol
# GULP energy per Si atom -12391.947160 kJ/mol
# Density = 1.780324 g / cm^3
# Si number density = 17.843849 Si / 1000 Ang^3
#
#
#
# Elastic Constant Matrix: (Units=GPa)
#
#
# Indices 1 2 3 4 5 6 
#
# 1 113.2746 18.6858 25.1484 0.0000 0.0000 0.0000
# 2 18.6858 47.5009 11.1729 0.0000 0.0000 0.0000
# 3 25.1484 11.1729 49.0204 0.0000 0.0000 0.0000
# 4 0.0000 0.0000 0.0000 12.2629 0.0000 0.0000
# 5 0.0000 0.0000 0.0000 0.0000 27.3907 0.0000
# 6 0.0000 0.0000 0.0000 0.0000 0.0000 15.0808
#
#
#
# Elastic Compliance Matrix: (Units=1/GPa)
#
#
# Indices 1 2 3 4 5 6 
#
# 1 0.010348 -0.002982 -0.004629 0.000000 0.000000 0.000000
# 2 -0.002982 0.023104 -0.003736 0.000000 0.000000 0.000000
# 3 -0.004629 -0.003736 0.023626 0.000000 0.000000 0.000000
# 4 0.000000 0.000000 0.000000 0.081547 0.000000 0.000000
# 5 0.000000 0.000000 0.000000 0.000000 0.036509 0.000000
# 6 0.000000 0.000000 0.000000 0.000000 0.000000 0.066309
#
#
# Mechanical properties :
#
#
# Convention : Reuss Voigt Hill
#
# Bulk Modulus (GPa) = 29.08349 35.53447 32.30898
# Shear Modulus (GPa) = 18.14238 21.26614 19.70426
#
# Velocity S-wave (km/s) = 3.19208 3.45598 3.32665
# Velocity P-wave (km/s) = 5.46993 5.99019 5.73596
#
# Compressibility (1/GPa) = 0.03438377
#
# Stress axis : x y z
#
# Youngs Moduli (GPa) = 96.64032 43.28250 42.32635
#
# Poissons Ratio (x) = 0.12906 0.19592
# Poissons Ratio (y) = 0.28816 0.15814
# Poissons Ratio (z) = 0.44734 0.16171
#
# Static dielectric constant tensor:
#      x y z
#    x 3.402880 0.000000 0.000000 
#    y 0.000000 2.870130 0.000000 
#    z 0.000000 0.000000 3.219830 
# 
# 
# High freq. dielectric constant tensor:
#      x y z
#    x 1.703130 0.000000 0.000000 
#    y 0.000000 1.637810 0.000000 
#    z 0.000000 0.000000 1.683050 
# 
# From -- ./inp_files/19410.got.cif
#   From: 2010.03.12/outbox.cif.g09.slc.cpg/sg64_10_cif.got.tgz:19410.got - 2010.04.10 20:19:32.
