data_PCOD8261555
_publ_section_title
;
Structure prediction by ZEFSAII (Michael W. Deem and Ramdas Pophale) SiO2 
 PCOD8261555
Probable space group: C M C A
;
_chemical_formula_sum "Si O2"
_cell_formula_units_Z 104
_cell_length_a 16.245157
_cell_length_b 22.278763
_cell_length_c 15.019027
_cell_angle_alpha 90.000000
_cell_angle_beta 90.000000
_cell_angle_gamma 90.000000
_cell_volume 5435.716330
_symmetry_space_group_name_H-M "C M C A"
_symmetry_group_IT_number 64
_symmetry_cell_setting 'orthorhombic'
loop_
_space_group_symop_operation_xyz
x,y,z
-x,1/2-y,1/2+z
x,-y,-z
-x,1/2+y,1/2-z
-x,-y,-z
x,1/2+y,1/2-z
-x,y,z
x,1/2-y,1/2+z
1/2+x,1/2+y,z
1/2-x,-y,1/2+z
1/2+x,1/2-y,-z
1/2-x,y,1/2-z
1/2-x,1/2-y,-z
1/2+x,y,1/2-z
1/2-x,1/2+y,z
1/2+x,-y,1/2+z
loop_
_atom_site_type_symbol
_atom_site_label
_atom_site_fract_x
_atom_site_fract_y
_atom_site_fract_z
Si Si1 0.750000 0.877719 0.250000
Si Si2 0.691713 0.222106 0.628896
Si Si3 0.096837 0.083897 0.333928
Si Si4 0.647762 0.741082 0.056926
Si Si5 0.404289 0.449598 0.311044
Si Si6 0.406353 0.871984 0.019567
Si Si7 0.407985 0.300334 0.763605
O O1 0.736254 0.838354 0.338778
O O2 0.664449 0.914561 0.245665
O O3 0.633267 0.211635 0.541497
O O4 0.759155 0.269649 0.592474
O O5 0.645672 0.250134 0.713699
O O6 0.135568 0.106169 0.427515
O O7 0.122606 0.132179 0.258394
O O8 0.000000 0.078028 0.346628
O O9 0.127548 0.018088 0.306710
O O10 0.590075 0.709385 0.130014
O O11 0.635884 0.812466 0.056196
O O12 0.500000 0.441271 0.275812
O O13 0.399755 0.426782 0.411965
O O14 0.500000 0.853570 0.001489
O O15 0.500000 0.292558 0.726557
#
# Coordination Sequence:
#
# PCOD8261555 Si02
#       7
#     8  16  16  16  16  16  16
#     4  12  22  40  58  88 116 158 202 232 288 368
#     4  11  22  37  55  81 122 150 187 242 293 352
#     4   9  19  35  57  85 115 145 188 246 299 347
#     4  11  21  35  55  83 120 157 181 237 300 355
#     4  10  21  38  59  84 117 153 194 249 296 340
#     4  10  17  32  58  85 112 145 192 246 304 351
#     4  11  21  36  59  85 115 154 197 239 295 359
#
# _framework density 19.132712999999999
#
# number of rings (size 3 to 8) (size 9 to 14) (size 15 to 20)
#    0.000    1.538    4.615    0.923    0.000    4.308 
#    2.769    0.000    0.000    0.000    0.000    3.231 
#    0.000    0.000    0.000    0.000    0.000    0.000 
#
# Total GULP energy -644409.558780 kJ/mol
# GULP energy per Si atom -12392.491515 kJ/mol
# Density = 1.908917 g / cm^3
# Si number density = 19.132713 Si / 1000 Ang^3
#
#
#
# Elastic Constant Matrix: (Units=GPa)
#
#
# Indices 1 2 3 4 5 6 
#
# 1 67.0924 33.8870 21.3308 0.0000 0.0000 0.0000
# 2 33.8870 120.2490 53.0622 0.0000 0.0000 0.0000
# 3 21.3308 53.0622 111.5186 0.0000 0.0000 0.0000
# 4 0.0000 0.0000 0.0000 18.8509 0.0000 0.0000
# 5 0.0000 0.0000 0.0000 0.0000 23.8602 0.0000
# 6 0.0000 0.0000 0.0000 0.0000 0.0000 23.0033
#
#
#
# Elastic Compliance Matrix: (Units=1/GPa)
#
#
# Indices 1 2 3 4 5 6 
#
# 1 0.017519 -0.004377 -0.001268 0.000000 0.000000 0.000000
# 2 -0.004377 0.011620 -0.004692 0.000000 0.000000 0.000000
# 3 -0.001268 -0.004692 0.011442 0.000000 0.000000 0.000000
# 4 0.000000 0.000000 0.000000 0.053048 0.000000 0.000000
# 5 0.000000 0.000000 0.000000 0.000000 0.041911 0.000000
# 6 0.000000 0.000000 0.000000 0.000000 0.000000 0.043472
#
#
# Mechanical properties :
#
#
# Convention : Reuss Voigt Hill
#
# Bulk Modulus (GPa) = 50.23463 57.26891 53.75177
# Shear Modulus (GPa) = 24.23406 25.84823 25.04114
#
# Velocity S-wave (km/s) = 3.56283 3.67958 3.62168
# Velocity P-wave (km/s) = 6.57556 6.93180 6.75603
#
# Compressibility (1/GPa) = 0.01990659
#
# Stress axis : x y z
#
# Youngs Moduli (GPa) = 57.08112 86.05900 87.39703
#
# Poissons Ratio (x) = 0.37671 0.11083
# Poissons Ratio (y) = 0.24987 0.41004
# Poissons Ratio (z) = 0.07239 0.40376
#
# Static dielectric constant tensor:
#      x y z
#    x 3.479230 0.000000 0.000000 
#    y 0.000000 3.455920 0.000000 
#    z 0.000000 0.000000 3.566670 
# 
# 
# High freq. dielectric constant tensor:
#      x y z
#    x 1.732690 0.000000 0.000000 
#    y 0.000000 1.730550 0.000000 
#    z 0.000000 0.000000 1.741710 
# 
# From -- ./inp_files/25641.got.cif
#   From: 2010.03.12/outbox.cif.g09.slc.cpg/sg64_13_cif.got.tgz:25641.got - 2010.04.10 20:19:32.
