data_PCOD8261302
_publ_section_title
;
Structure prediction by ZEFSAII (Michael W. Deem and Ramdas Pophale) SiO2 
 PCOD8261302
Probable space group: C M C M
;
_chemical_formula_sum "Si O2"
_cell_formula_units_Z 96
_cell_length_a 9.424077
_cell_length_b 30.883181
_cell_length_c 19.406102
_cell_angle_alpha 90.000000
_cell_angle_beta 90.000000
_cell_angle_gamma 90.000000
_cell_volume 5648.058189
_symmetry_space_group_name_H-M "C M C M"
_symmetry_group_IT_number 63
_symmetry_cell_setting 'orthorhombic'
loop_
_space_group_symop_operation_xyz
x,y,z
-x,-y,1/2+z
x,-y,-z
-x,y,1/2-z
-x,-y,-z
x,y,1/2-z
-x,y,z
x,-y,1/2+z
1/2+x,1/2+y,z
1/2-x,1/2-y,1/2+z
1/2+x,1/2-y,-z
1/2-x,1/2+y,1/2-z
1/2-x,1/2-y,-z
1/2+x,1/2+y,1/2-z
1/2-x,1/2+y,z
1/2+x,1/2-y,1/2+z
loop_
_atom_site_type_symbol
_atom_site_label
_atom_site_fract_x
_atom_site_fract_y
_atom_site_fract_z
Si Si1 0.659799 0.954899 0.667945
Si Si2 0.335401 0.290652 0.580695
Si Si3 0.168886 0.129515 0.673223
Si Si4 0.841651 0.965767 0.331972
Si Si5 0.664356 0.372328 0.670012
Si Si6 0.834284 0.793523 0.078000
O O1 0.659774 0.956583 0.750000
O O2 0.500000 0.953296 0.638850
O O3 0.744110 0.912610 0.642677
O O4 0.737112 0.997605 0.637879
O O5 0.500000 0.279767 0.591743
O O6 0.286457 0.330474 0.627700
O O7 0.246375 0.249059 0.604072
O O8 0.302446 0.302899 0.501819
O O9 0.228350 0.139259 0.750000
O O10 0.217934 0.081823 0.647394
O O11 0.226171 0.165771 0.620887
O O12 0.000000 0.129481 0.675288
O O13 0.849212 0.968738 0.250000
O O14 0.000000 0.973392 0.362100
O O15 0.693344 0.362762 0.750000
O O16 0.500000 0.383385 0.656593
O O17 0.000000 0.786246 0.091923
#
# Coordination Sequence:
#
# PCOD8261302 Si02
#       6
#    16  16  16  16  16  16
#     4   9  16  25  39  62  89 111 135 171 211 249
#     4   9  18  31  45  62  84 111 143 175 209 251
#     4   8  14  25  43  67  89 109 138 174 208 244
#     4   8  13  23  40  60  83 111 139 165 198 245
#     4   9  17  29  44  61  83 112 144 176 209 245
#     4   9  17  30  47  64  84 111 141 173 209 250
#
# _framework density 16.996991999999999
#
# number of rings (size 3 to 8) (size 9 to 14) (size 15 to 20)
#    0.000    3.333    0.000    1.500    0.000    3.333 
#    0.000    0.833    0.000    2.000    0.000    7.000 
#    0.000    0.000    0.000    0.000    0.000    0.000 
#
# Total GULP energy -595048.329164 kJ/mol
# GULP energy per Si atom -12396.840191 kJ/mol
# Density = 1.695831 g / cm^3
# Si number density = 16.996992 Si / 1000 Ang^3
#
#
#
# Elastic Constant Matrix: (Units=GPa)
#
#
# Indices 1 2 3 4 5 6 
#
# 1 72.2799 75.2499 27.4907 0.0000 0.0000 0.0000
# 2 75.2499 189.8155 61.9352 0.0000 0.0000 0.0000
# 3 27.4907 61.9352 43.5323 0.0000 0.0000 0.0000
# 4 0.0000 0.0000 0.0000 5.8835 0.0000 0.0000
# 5 0.0000 0.0000 0.0000 0.0000 12.2103 0.0000
# 6 0.0000 0.0000 0.0000 0.0000 0.0000 30.4279
#
#
#
# Elastic Compliance Matrix: (Units=1/GPa)
#
#
# Indices 1 2 3 4 5 6 
#
# 1 0.023765 -0.008445 -0.002993 0.000000 0.000000 0.000000
# 2 -0.008445 0.012834 -0.012926 0.000000 0.000000 0.000000
# 3 -0.002993 -0.012926 0.043253 0.000000 0.000000 0.000000
# 4 0.000000 0.000000 0.000000 0.169968 0.000000 0.000000
# 5 0.000000 0.000000 0.000000 0.000000 0.081898 0.000000
# 6 0.000000 0.000000 0.000000 0.000000 0.000000 0.032865
#
#
# Mechanical properties :
#
#
# Convention : Reuss Voigt Hill
#
# Bulk Modulus (GPa) = 32.13030 70.55326 51.34178
# Shear Modulus (GPa) = 11.80122 19.10113 15.45118
#
# Velocity S-wave (km/s) = 2.63784 3.35594 3.01832
# Velocity P-wave (km/s) = 5.31245 7.52435 6.51299
#
# Compressibility (1/GPa) = 0.03112327
#
# Stress axis : x y z
#
# Youngs Moduli (GPa) = 42.07812 77.91842 23.12005
#
# Poissons Ratio (x) = 0.65801 0.06920
# Poissons Ratio (y) = 0.35535 0.29886
# Poissons Ratio (z) = 0.12594 1.00721
#
# Static dielectric constant tensor:
#      x y z
#    x 3.115310 0.000000 0.000000 
#    y 0.000000 3.473410 0.000000 
#    z 0.000000 0.000000 2.903190 
# 
# 
# High freq. dielectric constant tensor:
#      x y z
#    x 1.636950 0.000000 0.000000 
#    y 0.000000 1.668750 0.000000 
#    z 0.000000 0.000000 1.613230 
# 
# From -- ./inp_files/53262.got.cif
#   From: 2010.03.12/outbox.cif.g09.slc.cpg/sg63_27_cif.got.tgz:53262.got - 2010.04.10 19:34:48.
