data_PCOD8261275
_publ_section_title
;
Structure prediction by ZEFSAII (Michael W. Deem and Ramdas Pophale) SiO2 
 PCOD8261275
Probable space group: C M C M
;
_chemical_formula_sum "Si O2"
_cell_formula_units_Z 96
_cell_length_a 22.861325
_cell_length_b 38.442258
_cell_length_c 9.942233
_cell_angle_alpha 90.000000
_cell_angle_beta 90.000000
_cell_angle_gamma 90.000000
_cell_volume 8737.641533
_symmetry_space_group_name_H-M "C M C M"
_symmetry_group_IT_number 63
_symmetry_cell_setting 'orthorhombic'
loop_
_space_group_symop_operation_xyz
x,y,z
-x,-y,1/2+z
x,-y,-z
-x,y,1/2-z
-x,-y,-z
x,y,1/2-z
-x,y,z
x,-y,1/2+z
1/2+x,1/2+y,z
1/2-x,1/2-y,1/2+z
1/2+x,1/2-y,-z
1/2-x,1/2+y,1/2-z
1/2-x,1/2-y,-z
1/2+x,1/2+y,1/2-z
1/2-x,1/2+y,z
1/2+x,1/2-y,1/2+z
loop_
_atom_site_type_symbol
_atom_site_label
_atom_site_fract_x
_atom_site_fract_y
_atom_site_fract_z
Si Si1 0.825496 0.227164 0.900278
Si Si2 0.740677 0.800073 0.601909
Si Si3 0.564928 0.766558 0.589978
Si Si4 0.067964 0.606850 0.906474
Si Si5 0.069380 0.471816 0.398152
Si Si6 0.876023 0.662997 0.407775
O O1 0.828962 0.211262 0.750000
O O2 0.789640 0.262710 0.896952
O O3 0.890272 0.236356 0.958308
O O4 0.793990 0.198990 0.995805
O O5 0.766648 0.807664 0.750000
O O6 0.692320 0.828972 0.565323
O O7 0.566626 0.767062 0.750000
O O8 0.500000 0.758474 0.534061
O O9 0.585028 0.804572 0.540358
O O10 0.080798 0.615050 0.750000
O O11 0.085756 0.567280 0.941613
O O12 0.000000 0.613512 0.938729
O O13 0.107483 0.630111 0.002939
O O14 0.097086 0.500000 0.500000
O O15 0.094846 0.479726 0.250000
O O16 0.000000 0.475387 0.394175
O O17 0.887389 0.655362 0.250000
#
# Coordination Sequence:
#
# PCOD8261275 Si02
#       6
#    16  16  16  16  16  16
#     4   8  13  21  33  45  54  70  95 116 140 175
#     4   8  14  23  32  43  58  72  90 119 146 166
#     4   8  13  21  32  45  60  75  93 120 148 174
#     4   9  17  26  33  44  63  80  92 114 149 180
#     4   8  14  24  35  45  57  73  93 116 141 169
#     4   9  16  24  34  46  58  76 100 119 140 176
#
# _framework density 10.986947000000001
#
# number of rings (size 3 to 8) (size 9 to 14) (size 15 to 20)
#    0.000    3.667    0.000    3.500    0.000    2.333 
#    0.000    4.167    0.000    1.500    0.000    0.000 
#    0.000    0.000    0.000    0.000    0.000    0.000 
#
# Total GULP energy -594766.095429 kJ/mol
# GULP energy per Si atom -12390.960321 kJ/mol
# Density = 1.096194 g / cm^3
# Si number density = 10.986947 Si / 1000 Ang^3
#
#
#
# Elastic Constant Matrix: (Units=GPa)
#
#
# Indices 1 2 3 4 5 6 
#
# 1 58.9362 32.6801 36.5649 0.0000 0.0000 0.0000
# 2 32.6801 51.7451 42.7296 0.0000 0.0000 0.0000
# 3 36.5649 42.7296 62.6334 0.0000 0.0000 0.0000
# 4 0.0000 0.0000 0.0000 18.2777 0.0000 0.0000
# 5 0.0000 0.0000 0.0000 0.0000 14.1833 0.0000
# 6 0.0000 0.0000 0.0000 0.0000 0.0000 10.8560
#
#
#
# Elastic Compliance Matrix: (Units=1/GPa)
#
#
# Indices 1 2 3 4 5 6 
#
# 1 0.028619 -0.009797 -0.010024 0.000000 0.000000 0.000000
# 2 -0.009797 0.047613 -0.026763 0.000000 0.000000 0.000000
# 3 -0.010024 -0.026763 0.040076 0.000000 0.000000 0.000000
# 4 0.000000 0.000000 0.000000 0.054711 0.000000 0.000000
# 5 0.000000 0.000000 0.000000 0.000000 0.070506 0.000000
# 6 0.000000 0.000000 0.000000 0.000000 0.000000 0.092115
#
#
# Mechanical properties :
#
#
# Convention : Reuss Voigt Hill
#
# Bulk Modulus (GPa) = 43.21497 44.14041 43.67769
# Shear Modulus (GPa) = 11.50694 12.75275 12.12984
#
# Velocity S-wave (km/s) = 3.23976 3.41063 3.32629
# Velocity P-wave (km/s) = 7.30843 7.46809 7.38869
#
# Compressibility (1/GPa) = 0.02314013
#
# Stress axis : x y z
#
# Youngs Moduli (GPa) = 34.94199 21.00261 24.95278
#
# Poissons Ratio (x) = 0.20577 0.25012
# Poissons Ratio (y) = 0.34234 0.66781
# Poissons Ratio (z) = 0.35024 0.56209
#
# Static dielectric constant tensor:
#      x y z
#    x 2.354960 0.000000 0.000000 
#    y 0.000000 2.163840 0.000000 
#    z 0.000000 0.000000 2.479510 
# 
# 
# High freq. dielectric constant tensor:
#      x y z
#    x 1.386470 0.000000 0.000000 
#    y 0.000000 1.380770 0.000000 
#    z 0.000000 0.000000 1.414230 
# 
# From -- ./inp_files/22914.got.cif
#   From: 2010.03.12/outbox.cif.g09.slc.cpg/sg63_12_cif.got.tgz:22914.got - 2010.04.10 19:34:48.
