data_PCOD8261248
_publ_section_title
;
Structure prediction by ZEFSAII (Michael W. Deem and Ramdas Pophale) SiO2 
 PCOD8261248
Probable space group: C M C M
;
_chemical_formula_sum "Si O2"
_cell_formula_units_Z 80
_cell_length_a 25.202386
_cell_length_b 20.596451
_cell_length_c 8.674950
_cell_angle_alpha 90.000000
_cell_angle_beta 90.000000
_cell_angle_gamma 90.000000
_cell_volume 4502.990516
_symmetry_space_group_name_H-M "C M C M"
_symmetry_group_IT_number 63
_symmetry_cell_setting 'orthorhombic'
loop_
_space_group_symop_operation_xyz
x,y,z
-x,-y,1/2+z
x,-y,-z
-x,y,1/2-z
-x,-y,-z
x,y,1/2-z
-x,y,z
x,-y,1/2+z
1/2+x,1/2+y,z
1/2-x,1/2-y,1/2+z
1/2+x,1/2-y,-z
1/2-x,1/2+y,1/2-z
1/2-x,1/2-y,-z
1/2+x,1/2+y,1/2-z
1/2-x,1/2+y,z
1/2+x,1/2-y,1/2+z
loop_
_atom_site_type_symbol
_atom_site_label
_atom_site_fract_x
_atom_site_fract_y
_atom_site_fract_z
Si Si1 0.500000 0.769334 0.571230
Si Si2 0.114569 0.883056 0.068712
Si Si3 0.385443 0.770002 0.931161
Si Si4 0.780484 0.067958 0.431354
Si Si5 0.000000 0.881960 0.428731
Si Si6 0.720149 0.811351 0.431043
O O1 0.500000 0.784480 0.750000
O O2 0.556543 0.795727 0.506633
O O3 0.500000 0.693688 0.540174
O O4 0.121791 0.897464 0.250000
O O5 0.121079 0.806521 0.037729
O O6 0.056447 0.908556 0.006699
O O7 0.157915 0.921736 0.972387
O O8 0.378719 0.784259 0.750000
O O9 0.341834 0.809261 0.026554
O O10 0.773023 0.068004 0.250000
O O11 0.744254 0.123148 0.503598
O O12 0.760686 0.000000 0.500000
O O13 0.000000 0.896868 0.250000
O O14 0.728437 0.810185 0.250000
O O15 0.750000 0.750000 0.500000
#
# Coordination Sequence:
#
# PCOD8261248 Si02
#       6
#     8  16  16  16   8  16
#     4   7  12  24  45  76 109 140 172 210 260 312
#     4   9  16  30  52  76 105 139 179 221 265 313
#     4   9  16  29  52  80 110 142 177 217 262 312
#     4  12  25  40  56  76 105 141 181 225 275 325
#     4   7  12  24  46  74 101 136 176 218 262 307
#     4  12  23  36  55  81 110 142 181 224 269 318
#
# _framework density 17.765972000000001
#
# number of rings (size 3 to 8) (size 9 to 14) (size 15 to 20)
#    0.000    2.200    2.000    6.000    0.000    0.000 
#    0.000    1.500    0.000    3.600    0.000    0.700 
#    0.000    0.000    0.000    0.000    0.000    0.000 
#
# Total GULP energy -495589.646123 kJ/mol
# GULP energy per Si atom -12389.741153 kJ/mol
# Density = 1.772554 g / cm^3
# Si number density = 17.765972 Si / 1000 Ang^3
#
#
#
# Elastic Constant Matrix: (Units=GPa)
#
#
# Indices 1 2 3 4 5 6 
#
# 1 144.3792 56.4752 49.6379 0.0000 0.0000 0.0000
# 2 56.4752 91.1538 46.4165 0.0000 0.0000 0.0000
# 3 49.6379 46.4165 109.6662 0.0000 0.0000 0.0000
# 4 0.0000 0.0000 0.0000 21.1827 0.0000 0.0000
# 5 0.0000 0.0000 0.0000 0.0000 28.4124 0.0000
# 6 0.0000 0.0000 0.0000 0.0000 0.0000 14.6154
#
#
#
# Elastic Compliance Matrix: (Units=1/GPa)
#
#
# Indices 1 2 3 4 5 6 
#
# 1 0.009586 -0.004754 -0.002327 0.000000 0.000000 0.000000
# 2 -0.004754 0.016342 -0.004765 0.000000 0.000000 0.000000
# 3 -0.002327 -0.004765 0.012188 0.000000 0.000000 0.000000
# 4 0.000000 0.000000 0.000000 0.047208 0.000000 0.000000
# 5 0.000000 0.000000 0.000000 0.000000 0.035196 0.000000
# 6 0.000000 0.000000 0.000000 0.000000 0.000000 0.068421
#
#
# Mechanical properties :
#
#
# Convention : Reuss Voigt Hill
#
# Bulk Modulus (GPa) = 69.32435 72.25095 70.78765
# Shear Modulus (GPa) = 22.99464 25.68672 24.34068
#
# Velocity S-wave (km/s) = 3.60155 3.80654 3.70547
# Velocity P-wave (km/s) = 7.51002 7.75088 7.63140
#
# Compressibility (1/GPa) = 0.01442495
#
# Stress axis : x y z
#
# Youngs Moduli (GPa) = 104.32172 61.19038 82.04482
#
# Poissons Ratio (x) = 0.29091 0.19088
# Poissons Ratio (y) = 0.49597 0.39095
# Poissons Ratio (z) = 0.24271 0.29158
#
# Static dielectric constant tensor:
#      x y z
#    x 3.949770 0.000000 0.000000 
#    y 0.000000 2.977850 0.000000 
#    z 0.000000 0.000000 3.069560 
# 
# 
# High freq. dielectric constant tensor:
#      x y z
#    x 1.710510 0.000000 0.000000 
#    y 0.000000 1.641020 0.000000 
#    z 0.000000 0.000000 1.670550 
# 
# From -- ./inp_files/12128.got.cif
#   From: 2010.03.12/outbox.cif.g09.slc.cpg/sg63_7_cif.got.tgz:12128.got - 2010.04.10 19:34:48.
