data_PCOD8261831
_publ_section_title
;
Structure prediction by ZEFSAII (Michael W. Deem and Ramdas Pophale) SiO2 
 PCOD8261831
Probable space group: C M C A
;
_chemical_formula_sum "Si O2"
_cell_formula_units_Z 104
_cell_length_a 19.543010
_cell_length_b 17.803274
_cell_length_c 15.590497
_cell_angle_alpha 90.000000
_cell_angle_beta 90.000000
_cell_angle_gamma 90.000000
_cell_volume 5424.394790
_symmetry_space_group_name_H-M "C M C A"
_symmetry_group_IT_number 64
_symmetry_cell_setting 'orthorhombic'
loop_
_space_group_symop_operation_xyz
x,y,z
-x,1/2-y,1/2+z
x,-y,-z
-x,1/2+y,1/2-z
-x,-y,-z
x,1/2+y,1/2-z
-x,y,z
x,1/2-y,1/2+z
1/2+x,1/2+y,z
1/2-x,-y,1/2+z
1/2+x,1/2-y,-z
1/2-x,y,1/2-z
1/2-x,1/2-y,-z
1/2+x,y,1/2-z
1/2-x,1/2+y,z
1/2+x,-y,1/2+z
loop_
_atom_site_type_symbol
_atom_site_label
_atom_site_fract_x
_atom_site_fract_y
_atom_site_fract_z
Si Si1 0.202230 0.086466 0.495359
Si Si2 0.175294 0.924041 0.120941
Si Si3 0.250000 0.836016 0.250000
Si Si4 0.640736 0.238011 0.307465
Si Si5 0.077673 0.701915 0.631834
Si Si6 0.077423 0.807084 0.469245
Si Si7 0.211405 0.585217 0.335666
O O1 0.265169 0.103693 0.557993
O O2 0.133285 0.127849 0.523356
O O3 0.229090 0.111002 0.401433
O O4 0.181680 0.000000 0.500000
O O5 0.192993 0.891363 0.213670
O O6 0.104769 0.880535 0.101302
O O7 0.169260 0.014481 0.123746
O O8 0.287417 0.782412 0.179968
O O9 0.614804 0.257698 0.211830
O O10 0.587539 0.261371 0.380837
O O11 0.656097 0.149499 0.316422
O O12 0.087404 0.753492 0.549627
O O13 0.000000 0.690784 0.659179
O O14 0.000000 0.840246 0.468283
O O15 0.250000 0.559368 0.250000
#
# Coordination Sequence:
#
# PCOD8261831 Si02
#       7
#    16  16   8  16  16  16  16
#     4  10  22  36  57  87 118 145 191 242 287 345
#     4  10  20  37  57  83 116 147 187 236 286 343
#     4  10  18  32  58  86 110 142 184 232 282 326
#     4  11  21  36  60  87 113 150 190 238 289 340
#     4  10  23  40  58  84 116 153 198 240 282 345
#     4  11  23  39  59  82 116 158 195 235 288 346
#     4  11  21  34  56  90 117 144 184 241 296 339
#
# _framework density 19.172644999999999
#
# number of rings (size 3 to 8) (size 9 to 14) (size 15 to 20)
#    0.000    1.538    3.077    2.308    2.154    1.538 
#    0.000    1.538    0.000    8.769    0.000    0.000 
#    0.000    0.000    0.000    0.000    0.000    0.000 
#
# Total GULP energy -644466.451987 kJ/mol
# GULP energy per Si atom -12393.585615 kJ/mol
# Density = 1.912901 g / cm^3
# Si number density = 19.172645 Si / 1000 Ang^3
#
#
#
# Elastic Constant Matrix: (Units=GPa)
#
#
# Indices 1 2 3 4 5 6 
#
# 1 105.8348 63.9728 34.2741 0.0000 0.0000 0.0000
# 2 63.9728 103.6738 30.6815 0.0000 0.0000 0.0000
# 3 34.2741 30.6815 98.9977 0.0000 0.0000 0.0000
# 4 0.0000 0.0000 0.0000 24.9509 0.0000 0.0000
# 5 0.0000 0.0000 0.0000 0.0000 28.4291 0.0000
# 6 0.0000 0.0000 0.0000 0.0000 0.0000 22.2804
#
#
#
# Elastic Compliance Matrix: (Units=1/GPa)
#
#
# Indices 1 2 3 4 5 6 
#
# 1 0.015688 -0.008888 -0.002677 0.000000 0.000000 0.000000
# 2 -0.008888 0.015655 -0.001775 0.000000 0.000000 0.000000
# 3 -0.002677 -0.001775 0.011578 0.000000 0.000000 0.000000
# 4 0.000000 0.000000 0.000000 0.040079 0.000000 0.000000
# 5 0.000000 0.000000 0.000000 0.000000 0.035175 0.000000
# 6 0.000000 0.000000 0.000000 0.000000 0.000000 0.044882
#
#
# Mechanical properties :
#
#
# Convention : Reuss Voigt Hill
#
# Bulk Modulus (GPa) = 61.56866 62.92923 62.24895
# Shear Modulus (GPa) = 25.62111 27.10396 26.36253
#
# Velocity S-wave (km/s) = 3.65956 3.76397 3.71213
# Velocity P-wave (km/s) = 7.07382 7.19608 7.13522
#
# Compressibility (1/GPa) = 0.01624203
#
# Stress axis : x y z
#
# Youngs Moduli (GPa) = 63.74224 63.87532 86.37084
#
# Poissons Ratio (x) = 0.56775 0.23119
# Poissons Ratio (y) = 0.56656 0.15328
# Poissons Ratio (z) = 0.17062 0.11336
#
# Static dielectric constant tensor:
#      x y z
#    x 3.521580 0.000000 0.000000 
#    y 0.000000 3.499750 0.000000 
#    z 0.000000 0.000000 3.623250 
# 
# 
# High freq. dielectric constant tensor:
#      x y z
#    x 1.730550 0.000000 0.000000 
#    y 0.000000 1.744800 0.000000 
#    z 0.000000 0.000000 1.759710 
# 
# From -- ./inp_files/26545.got.cif
#   From: 2010.03.12/outbox.cif.g09.slc.cpg/sg64_14_cif.got.tgz:26545.got - 2010.04.10 20:19:32.
