data_PCOD8261107
_publ_section_title
;
Structure prediction by ZEFSAII (Michael W. Deem and Ramdas Pophale) SiO2 
 PCOD8261107
Probable space group: C M C M
;
_chemical_formula_sum "Si O2"
_cell_formula_units_Z 64
_cell_length_a 10.383749
_cell_length_b 35.974440
_cell_length_c 8.557387
_cell_angle_alpha 90.000000
_cell_angle_beta 90.000000
_cell_angle_gamma 90.000000
_cell_volume 3196.608109
_symmetry_space_group_name_H-M "C M C M"
_symmetry_group_IT_number 63
_symmetry_cell_setting 'orthorhombic'
loop_
_space_group_symop_operation_xyz
x,y,z
-x,-y,1/2+z
x,-y,-z
-x,y,1/2-z
-x,-y,-z
x,y,1/2-z
-x,y,z
x,-y,1/2+z
1/2+x,1/2+y,z
1/2-x,1/2-y,1/2+z
1/2+x,1/2-y,-z
1/2-x,1/2+y,1/2-z
1/2-x,1/2-y,-z
1/2+x,1/2+y,1/2-z
1/2-x,1/2+y,z
1/2+x,1/2-y,1/2+z
loop_
_atom_site_type_symbol
_atom_site_label
_atom_site_fract_x
_atom_site_fract_y
_atom_site_fract_z
Si Si1 0.752565 0.208798 0.935533
Si Si2 0.500000 0.082284 0.564486
Si Si3 0.000000 0.916551 0.564726
Si Si4 0.752513 0.541199 0.064469
Si Si5 0.000000 0.666541 0.935321
Si Si6 0.500000 0.332290 0.935547
O O1 0.757086 0.209744 0.750000
O O2 0.626133 0.187585 0.998496
O O3 0.750000 0.250000 0.000000
O O4 0.875229 0.187723 0.999958
O O5 0.500000 0.080393 0.750000
O O6 0.624693 0.062200 0.500083
O O7 0.500000 0.124479 0.501491
O O8 0.873795 0.937545 0.501513
O O9 0.000000 0.916558 0.750000
O O10 0.000000 0.874491 0.501663
O O11 0.758266 0.540245 0.250000
O O12 0.749366 0.500000 0.000000
O O13 0.000000 0.666565 0.750000
O O14 0.500000 0.330215 0.750000
#
# Coordination Sequence:
#
# PCOD8261107 Si02
#       6
#    16   8   8  16   8   8
#     4  11  22  39  61  88 118 154 195 241 292 347
#     4  11  22  39  60  85 114 151 192 237 288 342
#     4   9  21  39  61  86 116 151 194 241 289 340
#     4  11  22  39  60  86 116 151 191 237 287 343
#     4   9  21  39  60  84 115 149 192 243 289 336
#     4  11  22  39  60  87 120 155 192 239 290 346
#
# _framework density 20.021222000000002
#
# number of rings (size 3 to 8) (size 9 to 14) (size 15 to 20)
#    0.000    1.500    0.000    5.250    0.000    1.000 
#    0.000   11.250    0.000    0.000    0.000    0.000 
#    0.000    0.000    0.000    0.000    0.000    0.000 
#
# Total GULP energy -396936.079371 kJ/mol
# GULP energy per Si atom -12404.252480 kJ/mol
# Density = 1.997565 g / cm^3
# Si number density = 20.021222 Si / 1000 Ang^3
#
#
#
# Elastic Constant Matrix: (Units=GPa)
#
#
# Indices 1 2 3 4 5 6 
#
# 1 234.0937 131.3280 50.6167 0.0000 0.0000 0.0000
# 2 131.3280 234.4820 50.7600 0.0000 0.0000 0.0000
# 3 50.6167 50.7600 78.5045 0.0000 0.0000 0.0000
# 4 0.0000 0.0000 0.0000 23.2764 0.0000 0.0000
# 5 0.0000 0.0000 0.0000 0.0000 53.1552 0.0000
# 6 0.0000 0.0000 0.0000 0.0000 0.0000 52.0832
#
#
#
# Elastic Compliance Matrix: (Units=1/GPa)
#
#
# Indices 1 2 3 4 5 6 
#
# 1 0.006525 -0.003190 -0.002144 0.000000 0.000000 0.000000
# 2 -0.003190 0.006519 -0.002158 0.000000 0.000000 0.000000
# 3 -0.002144 -0.002158 0.015516 0.000000 0.000000 0.000000
# 4 0.000000 0.000000 0.000000 0.042962 0.000000 0.000000
# 5 0.000000 0.000000 0.000000 0.000000 0.018813 0.000000
# 6 0.000000 0.000000 0.000000 0.000000 0.000000 0.019200
#
#
# Mechanical properties :
#
#
# Convention : Reuss Voigt Hill
#
# Bulk Modulus (GPa) = 73.66660 112.49884 93.08272
# Shear Modulus (GPa) = 38.74614 46.66134 42.70374
#
# Velocity S-wave (km/s) = 4.40392 4.83286 4.62337
# Velocity P-wave (km/s) = 7.92045 9.35168 8.66566
#
# Compressibility (1/GPa) = 0.01357467
#
# Stress axis : x y z
#
# Youngs Moduli (GPa) = 153.24865 153.40329 64.44982
#
# Poissons Ratio (x) = 0.48943 0.13820
# Poissons Ratio (y) = 0.48894 0.13907
# Poissons Ratio (z) = 0.32862 0.33102
#
# Static dielectric constant tensor:
#      x y z
#    x 3.970630 0.000000 0.000000 
#    y 0.000000 3.971320 0.000000 
#    z 0.000000 0.000000 3.586060 
# 
# 
# High freq. dielectric constant tensor:
#      x y z
#    x 1.805100 0.000000 0.000000 
#    y 0.000000 1.805200 0.000000 
#    z 0.000000 0.000000 1.772180 
# 
# From -- ./inp_files/3225.got.cif
#   From: 2010.03.12/outbox.cif.g09.slc.cpg/sg63_2_cif.got.tgz:3225.got - 2010.04.10 19:34:48.
