data_PCOD8261670
_publ_section_title
;
Structure prediction by ZEFSAII (Michael W. Deem and Ramdas Pophale) SiO2 
 PCOD8261670
Probable space group: C M C A
;
_chemical_formula_sum "Si O2"
_cell_formula_units_Z 96
_cell_length_a 9.730649
_cell_length_b 20.492075
_cell_length_c 29.543358
_cell_angle_alpha 90.000000
_cell_angle_beta 90.000000
_cell_angle_gamma 90.000000
_cell_volume 5890.980715
_symmetry_space_group_name_H-M "C M C A"
_symmetry_group_IT_number 64
_symmetry_cell_setting 'orthorhombic'
loop_
_space_group_symop_operation_xyz
x,y,z
-x,1/2-y,1/2+z
x,-y,-z
-x,1/2+y,1/2-z
-x,-y,-z
x,1/2+y,1/2-z
-x,y,z
x,1/2-y,1/2+z
1/2+x,1/2+y,z
1/2-x,-y,1/2+z
1/2+x,1/2-y,-z
1/2-x,y,1/2-z
1/2-x,1/2-y,-z
1/2+x,y,1/2-z
1/2-x,1/2+y,z
1/2+x,-y,1/2+z
loop_
_atom_site_type_symbol
_atom_site_label
_atom_site_fract_x
_atom_site_fract_y
_atom_site_fract_z
Si Si1 0.160218 0.437342 0.029441
Si Si2 0.346810 0.738097 0.288616
Si Si3 0.340343 0.246841 0.114348
Si Si4 0.841465 0.805808 0.520902
Si Si5 0.162469 0.892632 0.108983
Si Si6 0.651832 0.606533 0.788816
O O1 0.199802 0.375591 0.998480
O O2 0.251607 0.438148 0.074817
O O3 0.000000 0.436980 0.043089
O O4 0.198534 0.500000 0.000000
O O5 0.500000 0.709294 0.281803
O O6 0.250000 0.707470 0.250000
O O7 0.281409 0.719717 0.337910
O O8 0.350124 0.815827 0.285469
O O9 0.500000 0.259036 0.124412
O O10 0.282895 0.318411 0.100846
O O11 0.313201 0.194301 0.074993
O O12 0.750000 0.750000 0.500000
O O13 0.000000 0.788771 0.510954
O O14 0.197945 0.914208 0.160469
O O15 0.000000 0.899740 0.098946
O O16 0.500000 0.578818 0.779215
O O17 0.750000 0.576466 0.750000
#
# Coordination Sequence:
#
# PCOD8261670 Si02
#       6
#    16  16  16  16  16  16
#     4  10  21  33  44  65  95 122 151 190 234 275
#     4   8  13  22  35  54  82 111 135 166 211 260
#     4   8  14  25  42  62  84 111 144 180 217 260
#     4  10  18  30  48  66  87 117 151 187 223 265
#     4   9  16  28  45  64  87 117 153 186 221 267
#     4   8  14  23  37  59  86 113 141 177 219 265
#
# _framework density 16.296098000000001
#
# number of rings (size 3 to 8) (size 9 to 14) (size 15 to 20)
#    0.000    3.167    1.667    2.000    0.000    1.000 
#    0.000    3.333    0.000    0.000    0.000    1.167 
#    0.000    5.333    0.000    0.000    0.000    0.000 
#
# Total GULP energy -594826.258224 kJ/mol
# GULP energy per Si atom -12392.213713 kJ/mol
# Density = 1.625901 g / cm^3
# Si number density = 16.296098 Si / 1000 Ang^3
#
#
#
# Elastic Constant Matrix: (Units=GPa)
#
#
# Indices 1 2 3 4 5 6 
#
# 1 66.6355 29.6825 68.9322 0.0000 0.0000 0.0000
# 2 29.6825 54.9017 42.4445 0.0000 0.0000 0.0000
# 3 68.9322 42.4445 151.1087 0.0000 0.0000 0.0000
# 4 0.0000 0.0000 0.0000 14.6892 0.0000 0.0000
# 5 0.0000 0.0000 0.0000 0.0000 32.1706 0.0000
# 6 0.0000 0.0000 0.0000 0.0000 0.0000 11.6159
#
#
#
# Elastic Compliance Matrix: (Units=1/GPa)
#
#
# Indices 1 2 3 4 5 6 
#
# 1 0.030570 -0.007340 -0.011883 0.000000 0.000000 0.000000
# 2 -0.007340 0.025029 -0.003682 0.000000 0.000000 0.000000
# 3 -0.011883 -0.003682 0.013073 0.000000 0.000000 0.000000
# 4 0.000000 0.000000 0.000000 0.068077 0.000000 0.000000
# 5 0.000000 0.000000 0.000000 0.000000 0.031084 0.000000
# 6 0.000000 0.000000 0.000000 0.000000 0.000000 0.086089
#
#
# Mechanical properties :
#
#
# Convention : Reuss Voigt Hill
#
# Bulk Modulus (GPa) = 43.74333 61.64048 52.69190
# Shear Modulus (GPa) = 16.26790 20.46759 18.36775
#
# Velocity S-wave (km/s) = 3.16297 3.54783 3.36091
# Velocity P-wave (km/s) = 6.34352 7.39528 6.88950
#
# Compressibility (1/GPa) = 0.02286063
#
# Stress axis : x y z
#
# Youngs Moduli (GPa) = 32.71214 39.95294 76.49434
#
# Poissons Ratio (x) = 0.29327 0.90901
# Poissons Ratio (y) = 0.24012 0.28165
# Poissons Ratio (z) = 0.38873 0.14710
#
# Static dielectric constant tensor:
#      x y z
#    x 3.082330 0.000000 0.000000 
#    y 0.000000 2.622270 0.000000 
#    z 0.000000 0.000000 3.504120 
# 
# 
# High freq. dielectric constant tensor:
#      x y z
#    x 1.613170 0.000000 0.000000 
#    y 0.000000 1.563530 0.000000 
#    z 0.000000 0.000000 1.645640 
# 
# From -- ./inp_files/49454.got.cif
#   From: 2010.03.12/outbox.cif.g09.slc.cpg/sg64_25_cif.got.tgz:49454.got - 2010.04.10 20:19:32.
