data_PCOD8261314
_publ_section_title
;
Structure prediction by ZEFSAII (Michael W. Deem and Ramdas Pophale) SiO2 
 PCOD8261314
Probable space group: C M C M
;
_chemical_formula_sum "Si O2"
_cell_formula_units_Z 96
_cell_length_a 9.382540
_cell_length_b 27.727912
_cell_length_c 23.845926
_cell_angle_alpha 90.000000
_cell_angle_beta 90.000000
_cell_angle_gamma 90.000000
_cell_volume 6203.714222
_symmetry_space_group_name_H-M "C M C M"
_symmetry_group_IT_number 63
_symmetry_cell_setting 'orthorhombic'
loop_
_space_group_symop_operation_xyz
x,y,z
-x,-y,1/2+z
x,-y,-z
-x,y,1/2-z
-x,-y,-z
x,y,1/2-z
-x,y,z
x,-y,1/2+z
1/2+x,1/2+y,z
1/2-x,1/2-y,1/2+z
1/2+x,1/2-y,-z
1/2-x,1/2+y,1/2-z
1/2-x,1/2-y,-z
1/2+x,1/2+y,1/2-z
1/2-x,1/2+y,z
1/2+x,1/2-y,1/2+z
loop_
_atom_site_type_symbol
_atom_site_label
_atom_site_fract_x
_atom_site_fract_y
_atom_site_fract_z
Si Si1 0.330971 0.175694 0.688922
Si Si2 0.831090 0.981032 0.411157
Si Si3 0.331785 0.428500 0.978306
Si Si4 0.166338 0.821296 0.981831
Si Si5 0.665216 0.067039 0.685282
Si Si6 0.166403 0.727314 0.579932
O O1 0.269497 0.191310 0.750000
O O2 0.500000 0.175081 0.692456
O O3 0.280063 0.121608 0.674088
O O4 0.278419 0.213727 0.642130
O O5 0.778285 0.034300 0.430750
O O6 0.000000 0.979018 0.401573
O O7 0.780076 0.943623 0.459447
O O8 0.755135 0.969144 0.352918
O O9 0.500000 0.432147 0.978860
O O10 0.280077 0.374370 0.963504
O O11 0.250453 0.805916 0.036738
O O12 0.000000 0.821855 0.997427
O O13 0.197493 0.783882 0.931216
O O14 0.690687 0.052984 0.750000
O O15 0.500000 0.061966 0.669339
O O16 0.000000 0.715537 0.572909
#
# Coordination Sequence:
#
# PCOD8261314 Si02
#       6
#    16  16  16  16  16  16
#     4   8  14  25  40  57  78 103 128 156 192 231
#     4   9  16  27  43  59  77 105 137 163 190 232
#     4   8  15  27  41  58  81 107 131 159 199 237
#     4   9  16  26  40  58  82 107 127 155 197 236
#     4   9  17  28  41  58  81 105 127 158 200 236
#     4   9  16  25  40  61  80 101 131 162 191 229
#
# _framework density 15.474601
#
# number of rings (size 3 to 8) (size 9 to 14) (size 15 to 20)
#    0.000    3.333    0.000    3.000    0.000    0.333 
#    0.000    2.500    0.000    2.500    0.000    4.667 
#    0.000    0.000    0.000    0.000    0.000    0.000 
#
# Total GULP energy -594842.288088 kJ/mol
# GULP energy per Si atom -12392.547668 kJ/mol
# Density = 1.543938 g / cm^3
# Si number density = 15.474601 Si / 1000 Ang^3
#
#
#
# Elastic Constant Matrix: (Units=GPa)
#
#
# Indices 1 2 3 4 5 6 
#
# 1 28.5892 30.1697 34.0485 0.0000 0.0000 0.0000
# 2 30.1697 132.3481 76.2609 0.0000 0.0000 0.0000
# 3 34.0485 76.2609 121.5036 0.0000 0.0000 0.0000
# 4 0.0000 0.0000 0.0000 24.4742 0.0000 0.0000
# 5 0.0000 0.0000 0.0000 0.0000 22.6480 0.0000
# 6 0.0000 0.0000 0.0000 0.0000 0.0000 15.2831
#
#
#
# Elastic Compliance Matrix: (Units=1/GPa)
#
#
# Indices 1 2 3 4 5 6 
#
# 1 0.055153 -0.005744 -0.011850 0.000000 0.000000 0.000000
# 2 -0.005744 0.012435 -0.006195 0.000000 0.000000 0.000000
# 3 -0.011850 -0.006195 0.015439 0.000000 0.000000 0.000000
# 4 0.000000 0.000000 0.000000 0.040859 0.000000 0.000000
# 5 0.000000 0.000000 0.000000 0.000000 0.044154 0.000000
# 6 0.000000 0.000000 0.000000 0.000000 0.000000 0.065432
#
#
# Mechanical properties :
#
#
# Convention : Reuss Voigt Hill
#
# Bulk Modulus (GPa) = 28.20998 62.59989 45.40493
# Shear Modulus (GPa) = 17.07262 21.94518 19.50890
#
# Velocity S-wave (km/s) = 3.32515 3.76991 3.55449
# Velocity P-wave (km/s) = 5.74557 7.71302 6.80082
#
# Compressibility (1/GPa) = 0.03544845
#
# Stress axis : x y z
#
# Youngs Moduli (GPa) = 18.13140 80.41853 64.77071
#
# Poissons Ratio (x) = 0.46196 0.76752
# Poissons Ratio (y) = 0.10415 0.40125
# Poissons Ratio (z) = 0.21485 0.49819
#
# Static dielectric constant tensor:
#      x y z
#    x 2.658730 0.000000 0.000000 
#    y 0.000000 3.237000 0.000000 
#    z 0.000000 0.000000 3.112390 
# 
# 
# High freq. dielectric constant tensor:
#      x y z
#    x 1.563710 0.000000 0.000000 
#    y 0.000000 1.589690 0.000000 
#    z 0.000000 0.000000 1.585390 
# 
# From -- ./inp_files/42513.got.cif
#   From: 2010.03.12/outbox.cif.g09.slc.cpg/sg63_22_cif.got.tgz:42513.got - 2010.04.10 19:34:48.
