data_PCOD8261420
_publ_section_title
;
Structure prediction by ZEFSAII (Michael W. Deem and Ramdas Pophale) SiO2 
 PCOD8261420
Probable space group: C M C A
;
_chemical_formula_sum "Si O2"
_cell_formula_units_Z 88
_cell_length_a 24.562725
_cell_length_b 5.269055
_cell_length_c 32.073205
_cell_angle_alpha 90.000000
_cell_angle_beta 90.000000
_cell_angle_gamma 90.000000
_cell_volume 4150.989530
_symmetry_space_group_name_H-M "C M C A"
_symmetry_group_IT_number 64
_symmetry_cell_setting 'orthorhombic'
loop_
_space_group_symop_operation_xyz
x,y,z
-x,1/2-y,1/2+z
x,-y,-z
-x,1/2+y,1/2-z
-x,-y,-z
x,1/2+y,1/2-z
-x,y,z
x,1/2-y,1/2+z
1/2+x,1/2+y,z
1/2-x,-y,1/2+z
1/2+x,1/2-y,-z
1/2-x,y,1/2-z
1/2-x,1/2-y,-z
1/2+x,y,1/2-z
1/2-x,1/2+y,z
1/2+x,-y,1/2+z
loop_
_atom_site_type_symbol
_atom_site_label
_atom_site_fract_x
_atom_site_fract_y
_atom_site_fract_z
Si Si1 0.437062 0.750065 0.020400
Si Si2 0.399613 0.264191 0.163375
Si Si3 0.730746 0.751058 0.588403
Si Si4 0.277058 0.773349 0.319747
Si Si5 0.106138 0.241530 0.610296
Si Si6 0.500000 0.737525 0.776395
O O1 0.500000 0.750049 0.007974
O O2 0.431710 0.750587 0.069993
O O3 0.409230 0.500000 0.000000
O O4 0.409147 0.000000 0.000000
O O5 0.341820 0.272225 0.187308
O O6 0.401161 0.030251 0.131530
O O7 0.446049 0.219192 0.196899
O O8 0.411503 0.529897 0.140407
O O9 0.755149 0.992544 0.563201
O O10 0.765327 0.718312 0.630994
O O11 0.667705 0.785096 0.596620
O O12 0.250306 0.024221 0.298907
O O13 0.500000 0.952202 0.740999
#
# Coordination Sequence:
#
# PCOD8261420 Si02
#       6
#    16  16  16  16  16   8
#     4  10  23  41  57  80 127 174 204 261 329 364
#     4  12  23  38  69  97 118 165 217 261 296 374
#     4  10  16  30  51  91 127 149 182 265 331 337
#     4  10  16  32  56  95 124 148 192 265 323 344
#     4  12  21  35  65 100 117 154 225 269 295 375
#     4  12  30  52  64  88 140 176 194 246 330 390
#
# _framework density 21.199766
#
# number of rings (size 3 to 8) (size 9 to 14) (size 15 to 20)
#    0.000    1.091    7.273    2.182    2.545    0.000 
#    0.000    0.000    0.000    6.545    0.000    0.000 
#    0.000    0.000    0.000    0.000    0.000    0.000 
#
# Total GULP energy -545517.439218 kJ/mol
# GULP energy per Si atom -12398.123619 kJ/mol
# Density = 2.115151 g / cm^3
# Si number density = 21.199766 Si / 1000 Ang^3
#
#
#
# Elastic Constant Matrix: (Units=GPa)
#
#
# Indices 1 2 3 4 5 6 
#
# 1 93.6347 21.4734 22.7727 0.0000 0.0000 0.0000
# 2 21.4734 170.7538 13.0477 0.0000 0.0000 0.0000
# 3 22.7727 13.0477 38.7516 0.0000 0.0000 0.0000
# 4 0.0000 0.0000 0.0000 13.7360 0.0000 0.0000
# 5 0.0000 0.0000 0.0000 0.0000 -5.0479 0.0000
# 6 0.0000 0.0000 0.0000 0.0000 0.0000 24.2200
#
#
#
# Elastic Compliance Matrix: (Units=1/GPa)
#
#
# Indices 1 2 3 4 5 6 
#
# 1 0.012641 -0.001049 -0.007076 0.000000 0.000000 0.000000
# 2 -0.001049 0.006098 -0.001437 0.000000 0.000000 0.000000
# 3 -0.007076 -0.001437 0.030447 0.000000 0.000000 0.000000
# 4 0.000000 0.000000 0.000000 0.072801 0.000000 0.000000
# 5 0.000000 0.000000 0.000000 0.000000 -0.198101 0.000000
# 6 0.000000 0.000000 0.000000 0.000000 0.000000 0.041288
#
#
# Mechanical properties :
#
#
# Convention : Reuss Voigt Hill
#
# Bulk Modulus (GPa) = 33.26257 46.41420 39.83838
# Shear Modulus (GPa) = -880.11777 22.97138 -428.57320
#
# Velocity S-wave (km/s) = -20.39744 3.29533 -14.23370
# Velocity P-wave (km/s) = 23.21674 6.03491 15.85239
#
# Compressibility (1/GPa) = 0.03006382
#
# Stress axis : x y z
#
# Youngs Moduli (GPa) = 79.10639 163.98565 32.84381
#
# Poissons Ratio (x) = 0.17203 0.23239
# Poissons Ratio (y) = 0.08299 0.04719
# Poissons Ratio (z) = 0.55972 0.23561
#
# Static dielectric constant tensor:
#      x y z
#    x 3.787400 0.000000 0.000000 
#    y 0.000000 5.634740 0.000000 
#    z 0.000000 0.000000 3.295150 
# 
# 
# High freq. dielectric constant tensor:
#      x y z
#    x 1.829890 0.000000 0.000000 
#    y 0.000000 1.872480 0.000000 
#    z 0.000000 0.000000 1.777290 
# 
# From -- ./inp_files/53887.got.cif
#   From: 2010.03.12/outbox.cif.g09.slc.cpg/sg64_27_cif.got.tgz:53887.got - 2010.04.10 20:19:32.
