data_PCOD8261067
_publ_section_title
;
Structure prediction by ZEFSAII (Michael W. Deem and Ramdas Pophale) SiO2 
 PCOD8261067
Probable space group: C M C M
;
_chemical_formula_sum "Si O2"
_cell_formula_units_Z 80
_cell_length_a 26.349085
_cell_length_b 5.175947
_cell_length_c 35.499512
_cell_angle_alpha 90.000000
_cell_angle_beta 90.000000
_cell_angle_gamma 90.000000
_cell_volume 4841.475541
_symmetry_space_group_name_H-M "C M C M"
_symmetry_group_IT_number 63
_symmetry_cell_setting 'orthorhombic'
loop_
_space_group_symop_operation_xyz
x,y,z
-x,-y,1/2+z
x,-y,-z
-x,y,1/2-z
-x,-y,-z
x,y,1/2-z
-x,y,z
x,-y,1/2+z
1/2+x,1/2+y,z
1/2-x,1/2-y,1/2+z
1/2+x,1/2-y,-z
1/2-x,1/2+y,1/2-z
1/2-x,1/2-y,-z
1/2+x,1/2+y,1/2-z
1/2-x,1/2+y,z
1/2+x,1/2-y,1/2+z
loop_
_atom_site_type_symbol
_atom_site_label
_atom_site_fract_x
_atom_site_fract_y
_atom_site_fract_z
Si Si1 0.560558 0.996005 0.457433
Si Si2 0.394081 0.026893 0.294276
Si Si3 0.278808 0.992710 0.205166
Si Si4 0.059642 0.973013 0.828775
Si Si5 0.560368 0.496592 0.085721
O O1 0.500000 0.996462 0.457645
O O2 0.581991 0.744566 0.436271
O O3 0.581483 0.000000 0.500000
O O4 0.581603 0.243926 0.435177
O O5 0.398122 0.979612 0.250000
O O6 0.336628 0.996520 0.308888
O O7 0.412623 0.315491 0.303169
O O8 0.428646 0.815461 0.314827
O O9 0.277234 0.997950 0.250000
O O10 0.248842 0.239562 0.188990
O O11 0.000000 0.021544 0.825971
O O12 0.079540 0.002084 0.871408
O O13 0.500000 0.501877 0.084826
#
# Coordination Sequence:
#
# PCOD8261067 Si02
#       5
#    16  16  16  16  16
#     4   9  15  24  40  60  79 102 141 189 223 252
#     4  11  22  34  49  68  87 115 160 201 233 271
#     4   9  17  31  50  69  87 105 133 184 244 293
#     4  11  22  34  46  62  91 129 163 193 223 259
#     4   9  17  28  40  56  81 114 149 181 217 260
#
# _framework density 16.523887999999999
#
# number of rings (size 3 to 8) (size 9 to 14) (size 15 to 20)
#    0.000    2.200    0.000    4.200    0.000   11.200 
#    0.000    0.000    0.000    0.000    0.000    0.000 
#    0.000    0.000    0.000    0.000    0.000  252.000 
#
# Total GULP energy -496056.220353 kJ/mol
# GULP energy per Si atom -12401.405509 kJ/mol
# Density = 1.648628 g / cm^3
# Si number density = 16.523888 Si / 1000 Ang^3
#
#
#
# Elastic Constant Matrix: (Units=GPa)
#
#
# Indices 1 2 3 4 5 6 
#
# 1 46.4077 19.1432 26.8148 0.0000 0.0000 0.0000
# 2 19.1432 122.2195 30.4233 0.0000 0.0000 0.0000
# 3 26.8148 30.4233 76.8662 0.0000 0.0000 0.0000
# 4 0.0000 0.0000 0.0000 30.7602 0.0000 0.0000
# 5 0.0000 0.0000 0.0000 0.0000 0.0455 0.0000
# 6 0.0000 0.0000 0.0000 0.0000 0.0000 21.0236
#
#
#
# Elastic Compliance Matrix: (Units=1/GPa)
#
#
# Indices 1 2 3 4 5 6 
#
# 1 0.027478 -0.002127 -0.008744 0.000000 0.000000 0.000000
# 2 -0.002127 0.009241 -0.002915 0.000000 0.000000 0.000000
# 3 -0.008744 -0.002915 0.017214 0.000000 0.000000 0.000000
# 4 0.000000 0.000000 0.000000 0.032510 0.000000 0.000000
# 5 0.000000 0.000000 0.000000 0.000000 21.964081 0.000000
# 6 0.000000 0.000000 0.000000 0.000000 0.000000 0.047566
#
#
# Mechanical properties :
#
#
# Convention : Reuss Voigt Hill
#
# Bulk Modulus (GPa) = 37.93665 44.25066 41.09366
# Shear Modulus (GPa) = 0.22589 21.64001 10.93295
#
# Velocity S-wave (km/s) = 0.37014 3.62279 2.57504
# Velocity P-wave (km/s) = 4.81572 6.65864 5.81071
#
# Compressibility (1/GPa) = 0.02635973
#
# Stress axis : x y z
#
# Youngs Moduli (GPa) = 36.39294 108.21443 58.09311
#
# Poissons Ratio (x) = 0.23021 0.50795
# Poissons Ratio (y) = 0.07742 0.16936
# Poissons Ratio (z) = 0.31821 0.31549
#
# Static dielectric constant tensor:
#      x y z
#    x 2.754390 0.000000 0.000000 
#    y 0.000000 3.329440 0.000000 
#    z 0.000000 0.000000 3.072500 
# 
# 
# High freq. dielectric constant tensor:
#      x y z
#    x 1.582200 0.000000 0.000000 
#    y 0.000000 1.661510 0.000000 
#    z 0.000000 0.000000 1.622310 
# 
# From -- ./inp_files/74190.got.cif
#   From: 2010.03.12/outbox.cif.g09.slc.cpg/sg63_38_cif.got.tgz:74190.got - 2010.04.10 19:34:48.
