data_PCOD8261205
_publ_section_title
;
Structure prediction by ZEFSAII (Michael W. Deem and Ramdas Pophale) SiO2 
 PCOD8261205
Probable space group: C M C M
;
_chemical_formula_sum "Si O2"
_cell_formula_units_Z 88
_cell_length_a 28.768723
_cell_length_b 5.422717
_cell_length_c 24.101507
_cell_angle_alpha 90.000000
_cell_angle_beta 90.000000
_cell_angle_gamma 90.000000
_cell_volume 3759.947002
_symmetry_space_group_name_H-M "C M C M"
_symmetry_group_IT_number 63
_symmetry_cell_setting 'orthorhombic'
loop_
_space_group_symop_operation_xyz
x,y,z
-x,-y,1/2+z
x,-y,-z
-x,y,1/2-z
-x,-y,-z
x,y,1/2-z
-x,y,z
x,-y,1/2+z
1/2+x,1/2+y,z
1/2-x,1/2-y,1/2+z
1/2+x,1/2-y,-z
1/2-x,1/2+y,1/2-z
1/2-x,1/2-y,-z
1/2+x,1/2+y,1/2-z
1/2-x,1/2+y,z
1/2+x,1/2-y,1/2+z
loop_
_atom_site_type_symbol
_atom_site_label
_atom_site_fract_x
_atom_site_fract_y
_atom_site_fract_z
Si Si1 0.859828 0.001668 0.686371
Si Si2 0.192920 0.628513 0.557018
Si Si3 0.884438 0.506662 0.137544
Si Si4 0.125676 0.000000 0.000000
Si Si5 0.736264 0.375095 0.149896
Si Si6 0.050796 0.669006 0.447608
O O1 0.843477 0.995368 0.750000
O O2 0.889398 0.250154 0.676341
O O3 0.815165 0.013894 0.645821
O O4 0.885488 0.745755 0.672769
O O5 0.208716 0.500000 0.500000
O O6 0.161989 0.460344 0.598813
O O7 0.240504 0.704340 0.589813
O O8 0.158198 0.846669 0.540709
O O9 0.931863 0.495426 0.102259
O O10 0.091744 0.135818 0.956885
O O11 0.764372 0.603920 0.180387
O O12 0.045062 0.500000 0.500000
O O13 0.000000 0.789324 0.434403
#
# Coordination Sequence:
#
# PCOD8261205 Si02
#       6
#    16  16  16   8  16  16
#     4  12  27  49  74  97 134 186 252 314 360 410
#     4  12  25  40  64  97 146 198 229 286 344 433
#     4  12  23  48  72 102 140 185 237 290 371 434
#     4  12  21  42  66  98 158 204 236 274 345 436
#     4  12  26  44  63  99 137 184 247 296 348 408
#     4  11  24  41  71 113 150 186 227 287 360 448
#
# _framework density 23.404582999999999
#
# number of rings (size 3 to 8) (size 9 to 14) (size 15 to 20)
#    0.000    0.182    7.273    1.909    2.545    1.455 
#    0.000    0.000    0.000    3.273    0.000    0.000 
#    0.000    0.000    0.000    0.000    0.000    0.000 
#
# Total GULP energy -545107.052516 kJ/mol
# GULP energy per Si atom -12388.796648 kJ/mol
# Density = 2.335131 g / cm^3
# Si number density = 23.404583 Si / 1000 Ang^3
#
#
#
# Elastic Constant Matrix: (Units=GPa)
#
#
# Indices 1 2 3 4 5 6 
#
# 1 121.4294 35.1599 59.4724 0.0000 0.0000 0.0000
# 2 35.1599 181.1466 45.5927 0.0000 0.0000 0.0000
# 3 59.4724 45.5927 105.4091 0.0000 0.0000 0.0000
# 4 0.0000 0.0000 0.0000 25.5771 0.0000 0.0000
# 5 0.0000 0.0000 0.0000 0.0000 21.8059 0.0000
# 6 0.0000 0.0000 0.0000 0.0000 0.0000 16.7448
#
#
#
# Elastic Compliance Matrix: (Units=1/GPa)
#
#
# Indices 1 2 3 4 5 6 
#
# 1 0.011452 -0.000669 -0.006172 0.000000 0.000000 0.000000
# 2 -0.000669 0.006234 -0.002319 0.000000 0.000000 0.000000
# 3 -0.006172 -0.002319 0.013972 0.000000 0.000000 0.000000
# 4 0.000000 0.000000 0.000000 0.039097 0.000000 0.000000
# 5 0.000000 0.000000 0.000000 0.000000 0.045859 0.000000
# 6 0.000000 0.000000 0.000000 0.000000 0.000000 0.059720
#
#
# Mechanical properties :
#
#
# Convention : Reuss Voigt Hill
#
# Bulk Modulus (GPa) = 74.97332 76.49279 75.73306
# Shear Modulus (GPa) = 25.11309 30.67624 27.89466
#
# Velocity S-wave (km/s) = 3.27922 3.62428 3.45606
# Velocity P-wave (km/s) = 6.81475 7.08997 6.95372
#
# Compressibility (1/GPa) = 0.01333808
#
# Stress axis : x y z
#
# Youngs Moduli (GPa) = 87.32317 160.41304 71.57281
#
# Poissons Ratio (x) = 0.10738 0.44172
# Poissons Ratio (y) = 0.05846 0.16595
# Poissons Ratio (z) = 0.53892 0.37194
#
# Static dielectric constant tensor:
#      x y z
#    x 4.328960 0.000000 0.000000 
#    y 0.000000 4.654310 0.000000 
#    z 0.000000 0.000000 5.594440 
# 
# 
# High freq. dielectric constant tensor:
#      x y z
#    x 1.898360 0.000000 0.000000 
#    y 0.000000 1.951970 0.000000 
#    z 0.000000 0.000000 1.900390 
# 
# From -- ./inp_files/71047.got.cif
#   From: 2010.03.12/outbox.cif.g09.slc.cpg/sg63_36_cif.got.tgz:71047.got - 2010.04.10 19:34:48.
