data_PCOD8261745
_publ_section_title
;
Structure prediction by ZEFSAII (Michael W. Deem and Ramdas Pophale) SiO2 
 PCOD8261745
Probable space group: C M C A
;
_chemical_formula_sum "Si O2"
_cell_formula_units_Z 96
_cell_length_a 8.813712
_cell_length_b 20.760489
_cell_length_c 28.299882
_cell_angle_alpha 90.000000
_cell_angle_beta 90.000000
_cell_angle_gamma 90.000000
_cell_volume 5178.226689
_symmetry_space_group_name_H-M "C M C A"
_symmetry_group_IT_number 64
_symmetry_cell_setting 'orthorhombic'
loop_
_space_group_symop_operation_xyz
x,y,z
-x,1/2-y,1/2+z
x,-y,-z
-x,1/2+y,1/2-z
-x,-y,-z
x,1/2+y,1/2-z
-x,y,z
x,1/2-y,1/2+z
1/2+x,1/2+y,z
1/2-x,-y,1/2+z
1/2+x,1/2-y,-z
1/2-x,y,1/2-z
1/2-x,1/2-y,-z
1/2+x,y,1/2-z
1/2-x,1/2+y,z
1/2+x,-y,1/2+z
loop_
_atom_site_type_symbol
_atom_site_label
_atom_site_fract_x
_atom_site_fract_y
_atom_site_fract_z
Si Si1 0.820037 0.750182 0.551855
Si Si2 0.820166 0.999426 0.447188
Si Si3 0.320737 0.375609 0.604768
Si Si4 0.823161 0.568503 0.702320
Si Si5 0.179225 0.069556 0.298134
Si Si6 0.824408 0.879973 0.102729
O O1 0.750000 0.750000 0.500000
O O2 0.754245 0.811095 0.581082
O O3 0.769174 0.687852 0.581629
O O4 0.000000 0.753716 0.546743
O O5 0.751375 0.061999 0.421309
O O6 0.000000 0.002224 0.446928
O O7 0.754826 0.000000 0.500000
O O8 0.772169 0.934904 0.421536
O O9 0.500000 0.375331 0.598603
O O10 0.277613 0.380579 0.660152
O O11 0.750000 0.598142 0.750000
O O12 0.746265 0.500457 0.689865
O O13 0.795810 0.618200 0.659265
O O14 0.000000 0.556159 0.711213
O O15 0.250000 0.097655 0.250000
O O16 0.000000 0.062082 0.292716
O O17 0.000000 0.892184 0.091294
#
# Coordination Sequence:
#
# PCOD8261745 Si02
#       6
#    16  16  16  16  16  16
#     4  10  21  39  57  76 105 142 180 215 260 315
#     4  10  19  32  53  78 102 133 178 222 259 310
#     4   9  18  33  53  76 103 138 175 213 259 310
#     4  10  19  32  51  78 107 138 172 213 264 315
#     4  10  18  31  52  78 105 136 171 214 264 311
#     4  10  21  35  53  78 108 139 172 217 270 313
#
# _framework density 18.539166000000002
#
# number of rings (size 3 to 8) (size 9 to 14) (size 15 to 20)
#    0.000    2.167    1.667    3.000    0.000    3.000 
#    0.000    3.333    0.000    0.000    0.000    0.000 
#    0.000    0.000    0.000    0.000    0.000    0.000 
#
# Total GULP energy -595122.575632 kJ/mol
# GULP energy per Si atom -12398.386992 kJ/mol
# Density = 1.849697 g / cm^3
# Si number density = 18.539166 Si / 1000 Ang^3
#
#
#
# Elastic Constant Matrix: (Units=GPa)
#
#
# Indices 1 2 3 4 5 6 
#
# 1 47.5168 23.8967 40.4247 0.0000 0.0000 0.0000
# 2 23.8967 137.1399 87.5289 0.0000 0.0000 0.0000
# 3 40.4247 87.5289 179.5194 0.0000 0.0000 0.0000
# 4 0.0000 0.0000 0.0000 38.1551 0.0000 0.0000
# 5 0.0000 0.0000 0.0000 0.0000 30.4383 0.0000
# 6 0.0000 0.0000 0.0000 0.0000 0.0000 14.5082
#
#
#
# Elastic Compliance Matrix: (Units=1/GPa)
#
#
# Indices 1 2 3 4 5 6 
#
# 1 0.026159 -0.001159 -0.005325 0.000000 0.000000 0.000000
# 2 -0.001159 0.010638 -0.004926 0.000000 0.000000 0.000000
# 3 -0.005325 -0.004926 0.009171 0.000000 0.000000 0.000000
# 4 0.000000 0.000000 0.000000 0.026209 0.000000 0.000000
# 5 0.000000 0.000000 0.000000 0.000000 0.032853 0.000000
# 6 0.000000 0.000000 0.000000 0.000000 0.000000 0.068927
#
#
# Mechanical properties :
#
#
# Convention : Reuss Voigt Hill
#
# Bulk Modulus (GPa) = 43.20194 74.20852 58.70523
# Shear Modulus (GPa) = 24.45085 30.77538 27.61312
#
# Velocity S-wave (km/s) = 3.63557 4.07875 3.86352
# Velocity P-wave (km/s) = 6.40131 7.89281 7.18587
#
# Compressibility (1/GPa) = 0.02314711
#
# Stress axis : x y z
#
# Youngs Moduli (GPa) = 38.22835 94.00682 109.03805
#
# Poissons Ratio (x) = 0.10899 0.58065
# Poissons Ratio (y) = 0.04432 0.53707
# Poissons Ratio (z) = 0.20357 0.46303
#
# Static dielectric constant tensor:
#      x y z
#    x 3.228370 0.000000 0.000000 
#    y 0.000000 3.439870 0.000000 
#    z 0.000000 0.000000 3.837510 
# 
# 
# High freq. dielectric constant tensor:
#      x y z
#    x 1.702450 0.000000 0.000000 
#    y 0.000000 1.701800 0.000000 
#    z 0.000000 0.000000 1.740000 
# 
# From -- ./inp_files/48114.got.cif
#   From: 2010.03.12/outbox.cif.g09.slc.cpg/sg64_25_cif.got.tgz:48114.got - 2010.04.10 20:19:32.
