data_PCOD8261716
_publ_section_title
;
Structure prediction by ZEFSAII (Michael W. Deem and Ramdas Pophale) SiO2 
 PCOD8261716
Probable space group: C M C A
;
_chemical_formula_sum "Si O2"
_cell_formula_units_Z 72
_cell_length_a 18.529992
_cell_length_b 10.419589
_cell_length_c 21.190435
_cell_angle_alpha 90.000000
_cell_angle_beta 90.000000
_cell_angle_gamma 90.000000
_cell_volume 4091.341136
_symmetry_space_group_name_H-M "C M C A"
_symmetry_group_IT_number 64
_symmetry_cell_setting 'orthorhombic'
loop_
_space_group_symop_operation_xyz
x,y,z
-x,1/2-y,1/2+z
x,-y,-z
-x,1/2+y,1/2-z
-x,-y,-z
x,1/2+y,1/2-z
-x,y,z
x,1/2-y,1/2+z
1/2+x,1/2+y,z
1/2-x,-y,1/2+z
1/2+x,1/2-y,-z
1/2-x,y,1/2-z
1/2-x,1/2-y,-z
1/2+x,y,1/2-z
1/2-x,1/2+y,z
1/2+x,-y,1/2+z
loop_
_atom_site_type_symbol
_atom_site_label
_atom_site_fract_x
_atom_site_fract_y
_atom_site_fract_z
Si Si1 0.500000 0.463100 0.809190
Si Si2 0.000000 0.242153 0.300533
Si Si3 0.243119 0.875770 0.541482
Si Si4 0.250000 0.629579 0.250000
Si Si5 0.652463 0.265002 0.644505
Si Si6 0.844895 0.975575 0.859428
O O1 0.500000 0.607312 0.778956
O O2 0.500000 0.351159 0.758479
O O3 0.429180 0.443436 0.851666
O O4 0.068750 0.210063 0.343023
O O5 0.250000 0.750000 0.500000
O O6 0.176481 0.863374 0.590108
O O7 0.315812 0.888594 0.583287
O O8 0.227356 0.000000 0.500000
O O9 0.302016 0.718460 0.291504
O O10 0.198851 0.543456 0.294321
O O11 0.666020 0.121924 0.619455
#
# Coordination Sequence:
#
# PCOD8261716 Si02
#       6
#     8   8  16   8  16  16
#     4  10  20  38  56  85 122 149 186 231 286 351
#     4  10  20  38  56  84 122 149 184 230 290 347
#     4  11  22  41  60  82 113 149 200 241 278 333
#     4  10  18  30  56  86 118 144 190 230 286 338
#     4  10  20  35  58  84 115 151 187 236 287 337
#     4  10  20  35  58  85 115 150 192 232 288 334
#
# _framework density 17.598140999999998
#
# number of rings (size 3 to 8) (size 9 to 14) (size 15 to 20)
#    0.000    1.778    4.444    0.667    0.000    0.000 
#    4.000    2.222    0.000    0.000    0.000    0.000 
#    0.000    0.000    0.000    0.000    0.000    0.000 
#
# Total GULP energy -446389.253510 kJ/mol
# GULP energy per Si atom -12399.701486 kJ/mol
# Density = 1.755809 g / cm^3
# Si number density = 17.598141 Si / 1000 Ang^3
#
#
#
# Elastic Constant Matrix: (Units=GPa)
#
#
# Indices 1 2 3 4 5 6 
#
# 1 149.7889 57.1820 62.5566 0.0000 0.0000 0.0000
# 2 57.1820 115.5032 65.8512 0.0000 0.0000 0.0000
# 3 62.5566 65.8512 114.1428 0.0000 0.0000 0.0000
# 4 0.0000 0.0000 0.0000 39.9243 0.0000 0.0000
# 5 0.0000 0.0000 0.0000 0.0000 15.1159 0.0000
# 6 0.0000 0.0000 0.0000 0.0000 0.0000 27.1007
#
#
#
# Elastic Compliance Matrix: (Units=1/GPa)
#
#
# Indices 1 2 3 4 5 6 
#
# 1 0.009110 -0.002479 -0.003563 0.000000 0.000000 0.000000
# 2 -0.002479 0.013576 -0.006473 0.000000 0.000000 0.000000
# 3 -0.003563 -0.006473 0.014448 0.000000 0.000000 0.000000
# 4 0.000000 0.000000 0.000000 0.025047 0.000000 0.000000
# 5 0.000000 0.000000 0.000000 0.000000 0.066156 0.000000
# 6 0.000000 0.000000 0.000000 0.000000 0.000000 0.036899
#
#
# Mechanical properties :
#
#
# Convention : Reuss Voigt Hill
#
# Bulk Modulus (GPa) = 82.61884 83.40161 83.01023
# Shear Modulus (GPa) = 25.73315 29.35117 27.54216
#
# Velocity S-wave (km/s) = 3.82811 4.08837 3.96038
# Velocity P-wave (km/s) = 8.16018 8.35353 8.25742
#
# Compressibility (1/GPa) = 0.01210378
#
# Stress axis : x y z
#
# Youngs Moduli (GPa) = 109.76508 73.66078 69.21256
#
# Poissons Ratio (x) = 0.18261 0.24659
# Poissons Ratio (y) = 0.27211 0.44805
# Poissons Ratio (z) = 0.39107 0.47684
#
# Static dielectric constant tensor:
#      x y z
#    x 3.254590 0.000000 0.000000 
#    y 0.000000 3.424630 0.000000 
#    z 0.000000 0.000000 3.248960 
# 
# 
# High freq. dielectric constant tensor:
#      x y z
#    x 1.686300 0.000000 0.000000 
#    y 0.000000 1.683950 0.000000 
#    z 0.000000 0.000000 1.674330 
# 
# From -- ./inp_files/32899.got.cif
#   From: 2010.03.12/outbox.cif.g09.slc.cpg/sg64_17_cif.got.tgz:32899.got - 2010.04.10 20:19:32.
