data_PCOD8261723
_publ_section_title
;
Structure prediction by ZEFSAII (Michael W. Deem and Ramdas Pophale) SiO2 
 PCOD8261723
Probable space group: C M C A
;
_chemical_formula_sum "Si O2"
_cell_formula_units_Z 72
_cell_length_a 18.764101
_cell_length_b 12.486722
_cell_length_c 17.843414
_cell_angle_alpha 90.000000
_cell_angle_beta 90.000000
_cell_angle_gamma 90.000000
_cell_volume 4180.749599
_symmetry_space_group_name_H-M "C M C A"
_symmetry_group_IT_number 64
_symmetry_cell_setting 'orthorhombic'
loop_
_space_group_symop_operation_xyz
x,y,z
-x,1/2-y,1/2+z
x,-y,-z
-x,1/2+y,1/2-z
-x,-y,-z
x,1/2+y,1/2-z
-x,y,z
x,1/2-y,1/2+z
1/2+x,1/2+y,z
1/2-x,-y,1/2+z
1/2+x,1/2-y,-z
1/2-x,y,1/2-z
1/2-x,1/2-y,-z
1/2+x,y,1/2-z
1/2-x,1/2+y,z
1/2+x,-y,1/2+z
loop_
_atom_site_type_symbol
_atom_site_label
_atom_site_fract_x
_atom_site_fract_y
_atom_site_fract_z
Si Si1 0.845726 0.039417 0.148498
Si Si2 0.228647 0.322631 0.385726
Si Si3 0.250000 0.825534 0.750000
Si Si4 0.150239 0.272664 0.535120
Si Si5 0.500000 0.320027 0.994588
Si Si6 0.000000 0.515273 0.617705
O O1 0.815755 0.103064 0.220003
O O2 0.842505 0.110760 0.073537
O O3 0.926693 0.998387 0.165763
O O4 0.791898 0.942454 0.133896
O O5 0.215883 0.247914 0.314146
O O6 0.182522 0.274397 0.452622
O O7 0.311657 0.316655 0.412741
O O8 0.067300 0.244781 0.523903
O O9 0.500000 0.366462 0.079687
O O10 0.500000 0.423859 0.943535
#
# Coordination Sequence:
#
# PCOD8261723 Si02
#       6
#    16  16   8  16   8   8
#     4  10  18  33  50  71 100 131 163 209 249 297
#     4  10  18  31  48  74  99 128 164 203 248 297
#     4  10  22  32  46  68 102 138 168 198 240 296
#     4   9  18  29  52  79  96 120 165 210 255 293
#     4   9  14  28  47  77 101 114 153 214 252 291
#     4   9  16  26  51  73  94 125 162 200 253 286
#
# _framework density 17.221793000000002
#
# number of rings (size 3 to 8) (size 9 to 14) (size 15 to 20)
#    0.000    2.444    2.222    1.333    0.000    0.000 
#    0.000    2.222    0.000    6.667    0.000   21.778 
#    0.000    0.000    0.000    0.000    0.000    0.000 
#
# Total GULP energy -446151.820187 kJ/mol
# GULP energy per Si atom -12393.106116 kJ/mol
# Density = 1.718260 g / cm^3
# Si number density = 17.221793 Si / 1000 Ang^3
#
#
#
# Elastic Constant Matrix: (Units=GPa)
#
#
# Indices 1 2 3 4 5 6 
#
# 1 157.6821 54.2273 51.7966 0.0000 0.0000 0.0000
# 2 54.2273 68.1379 35.9012 0.0000 0.0000 0.0000
# 3 51.7966 35.9012 100.5504 0.0000 0.0000 0.0000
# 4 0.0000 0.0000 0.0000 15.7706 0.0000 0.0000
# 5 0.0000 0.0000 0.0000 0.0000 21.8762 0.0000
# 6 0.0000 0.0000 0.0000 0.0000 0.0000 26.4315
#
#
#
# Elastic Compliance Matrix: (Units=1/GPa)
#
#
# Indices 1 2 3 4 5 6 
#
# 1 0.009266 -0.005986 -0.002636 0.000000 0.000000 0.000000
# 2 -0.005986 0.021943 -0.004751 0.000000 0.000000 0.000000
# 3 -0.002636 -0.004751 0.013000 0.000000 0.000000 0.000000
# 4 0.000000 0.000000 0.000000 0.063409 0.000000 0.000000
# 5 0.000000 0.000000 0.000000 0.000000 0.045712 0.000000
# 6 0.000000 0.000000 0.000000 0.000000 0.000000 0.037834
#
#
# Mechanical properties :
#
#
# Convention : Reuss Voigt Hill
#
# Bulk Modulus (GPa) = 57.26446 67.80231 62.53339
# Shear Modulus (GPa) = 22.34826 25.11202 23.73014
#
# Velocity S-wave (km/s) = 3.60623 3.82272 3.71605
# Velocity P-wave (km/s) = 7.11781 7.67723 7.40280
#
# Compressibility (1/GPa) = 0.01746284
#
# Stress axis : x y z
#
# Youngs Moduli (GPa) = 107.91810 45.57232 76.92467
#
# Poissons Ratio (x) = 0.27277 0.20279
# Poissons Ratio (y) = 0.64595 0.36550
# Poissons Ratio (z) = 0.28450 0.21653
#
# Static dielectric constant tensor:
#      x y z
#    x 3.662570 0.000000 0.000000 
#    y 0.000000 3.048580 0.000000 
#    z 0.000000 0.000000 3.191710 
# 
# 
# High freq. dielectric constant tensor:
#      x y z
#    x 1.671690 0.000000 0.000000 
#    y 0.000000 1.636220 0.000000 
#    z 0.000000 0.000000 1.654850 
# 
# From -- ./inp_files/32884.got.cif
#   From: 2010.03.12/outbox.cif.g09.slc.cpg/sg64_17_cif.got.tgz:32884.got - 2010.04.10 20:19:32.
