data_PCOD8261002
_publ_section_title
;
Structure prediction by ZEFSAII (Michael W. Deem and Ramdas Pophale) SiO2 
 PCOD8261002
Probable space group: C M C M
;
_chemical_formula_sum "Si O2"
_cell_formula_units_Z 112
_cell_length_a 14.704450
_cell_length_b 17.181885
_cell_length_c 23.830501
_cell_angle_alpha 90.000000
_cell_angle_beta 90.000000
_cell_angle_gamma 90.000000
_cell_volume 6020.780102
_symmetry_space_group_name_H-M "C M C M"
_symmetry_group_IT_number 63
_symmetry_cell_setting 'orthorhombic'
loop_
_space_group_symop_operation_xyz
x,y,z
-x,-y,1/2+z
x,-y,-z
-x,y,1/2-z
-x,-y,-z
x,y,1/2-z
-x,y,z
x,-y,1/2+z
1/2+x,1/2+y,z
1/2-x,1/2-y,1/2+z
1/2+x,1/2-y,-z
1/2-x,1/2+y,1/2-z
1/2-x,1/2-y,-z
1/2+x,1/2+y,1/2-z
1/2-x,1/2+y,z
1/2+x,1/2-y,1/2+z
loop_
_atom_site_type_symbol
_atom_site_label
_atom_site_fract_x
_atom_site_fract_y
_atom_site_fract_z
Si Si1 0.778614 0.389205 0.405942
Si Si2 0.104222 0.128231 0.185678
Si Si3 0.740837 0.931426 0.613687
Si Si4 0.895346 0.661010 0.313845
Si Si5 0.898641 0.787591 0.098400
Si Si6 0.604449 0.807372 0.185455
Si Si7 0.687951 0.179730 0.017736
O O1 0.773459 0.481155 0.405495
O O2 0.676541 0.354212 0.410236
O O3 0.829171 0.360478 0.350603
O O4 0.838701 0.365424 0.460618
O O5 0.121216 0.104175 0.250000
O O6 0.162924 0.074422 0.145059
O O7 0.132378 0.217808 0.176308
O O8 0.000000 0.115034 0.169298
O O9 0.661345 0.906482 0.656068
O O10 0.742759 0.878122 0.558500
O O11 0.861593 0.668843 0.250000
O O12 0.880064 0.745333 0.342166
O O13 0.000000 0.635392 0.317426
O O14 0.896132 0.719165 0.050805
O O15 0.000000 0.824657 0.096822
O O16 0.617383 0.831324 0.250000
O O17 0.500000 0.820387 0.167300
O O18 0.750000 0.250000 0.000000
#
# Coordination Sequence:
#
# PCOD8261002 Si02
#       7
#    16  16  16  16  16  16  16
#     4  11  22  34  53  80 112 140 166 213 277 328
#     4   9  18  34  55  77 103 140 185 223 254 302
#     4  11  21  33  52  79 111 140 169 214 272 322
#     4   9  18  34  55  76 100 136 180 217 250 299
#     4   9  19  36  57  79 103 136 179 221 259 310
#     4   9  19  36  57  80 105 138 184 228 261 305
#     4   9  19  37  56  73  97 136 182 220 252 305
#
# _framework density 18.602240999999999
#
# number of rings (size 3 to 8) (size 9 to 14) (size 15 to 20)
#    0.000    2.429    0.000    4.286    0.000    4.571 
#    0.000    5.714    0.000   10.286    0.000    0.000 
#    0.000    0.000    0.000    0.000    0.000    0.000 
#
# Total GULP energy -694272.049301 kJ/mol
# GULP energy per Si atom -12397.715166 kJ/mol
# Density = 1.855990 g / cm^3
# Si number density = 18.602241 Si / 1000 Ang^3
#
#
#
# Elastic Constant Matrix: (Units=GPa)
#
#
# Indices 1 2 3 4 5 6 
#
# 1 47.1807 1.4028 22.6220 0.0000 0.0000 0.0000
# 2 1.4028 62.6311 34.4365 0.0000 0.0000 0.0000
# 3 22.6220 34.4365 106.1990 0.0000 0.0000 0.0000
# 4 0.0000 0.0000 0.0000 19.0903 0.0000 0.0000
# 5 0.0000 0.0000 0.0000 0.0000 19.9274 0.0000
# 6 0.0000 0.0000 0.0000 0.0000 0.0000 20.6627
#
#
#
# Elastic Compliance Matrix: (Units=1/GPa)
#
#
# Indices 1 2 3 4 5 6 
#
# 1 0.023993 0.002766 -0.006008 0.000000 0.000000 0.000000
# 2 0.002766 0.019750 -0.006993 0.000000 0.000000 0.000000
# 3 -0.006008 -0.006993 0.012964 0.000000 0.000000 0.000000
# 4 0.000000 0.000000 0.000000 0.052383 0.000000 0.000000
# 5 0.000000 0.000000 0.000000 0.000000 0.050182 0.000000
# 6 0.000000 0.000000 0.000000 0.000000 0.000000 0.048396
#
#
# Mechanical properties :
#
#
# Convention : Reuss Voigt Hill
#
# Bulk Modulus (GPa) = 27.59658 36.99262 32.29460
# Shear Modulus (GPa) = 20.81450 22.43940 21.62695
#
# Velocity S-wave (km/s) = 3.34866 3.47691 3.41339
# Velocity P-wave (km/s) = 5.46065 6.00399 5.73875
#
# Compressibility (1/GPa) = 0.03623637
#
# Stress axis : x y z
#
# Youngs Moduli (GPa) = 41.67801 50.63375 77.13837
#
# Poissons Ratio (x) = -0.14005 0.46344
# Poissons Ratio (y) = -0.11528 0.53945
# Poissons Ratio (z) = 0.25040 0.35410
#
# Static dielectric constant tensor:
#      x y z
#    x 3.436790 0.000000 0.000000 
#    y 0.000000 3.182270 0.000000 
#    z 0.000000 0.000000 3.824600 
# 
# 
# High freq. dielectric constant tensor:
#      x y z
#    x 1.717150 0.000000 0.000000 
#    y 0.000000 1.701690 0.000000 
#    z 0.000000 0.000000 1.734910 
# 
# From -- ./inp_files/62962.got.cif
#   From: 2010.03.12/outbox.cif.g09.slc.cpg/sg63_32_cif.got.tgz:62962.got - 2010.04.10 19:34:48.
