data_PCOD8261171
_publ_section_title
;
Structure prediction by ZEFSAII (Michael W. Deem and Ramdas Pophale) SiO2 
 PCOD8261171
Probable space group: C M C M
;
_chemical_formula_sum "Si O2"
_cell_formula_units_Z 64
_cell_length_a 8.678685
_cell_length_b 30.445057
_cell_length_c 12.080945
_cell_angle_alpha 90.000000
_cell_angle_beta 90.000000
_cell_angle_gamma 90.000000
_cell_volume 3192.064250
_symmetry_space_group_name_H-M "C M C M"
_symmetry_group_IT_number 63
_symmetry_cell_setting 'orthorhombic'
loop_
_space_group_symop_operation_xyz
x,y,z
-x,-y,1/2+z
x,-y,-z
-x,y,1/2-z
-x,-y,-z
x,y,1/2-z
-x,y,z
x,-y,1/2+z
1/2+x,1/2+y,z
1/2-x,1/2-y,1/2+z
1/2+x,1/2-y,-z
1/2-x,1/2+y,1/2-z
1/2-x,1/2-y,-z
1/2+x,1/2+y,1/2-z
1/2-x,1/2+y,z
1/2+x,1/2-y,1/2+z
loop_
_atom_site_type_symbol
_atom_site_label
_atom_site_fract_x
_atom_site_fract_y
_atom_site_fract_z
Si Si1 0.320136 0.050207 0.978270
Si Si2 0.819289 0.126065 0.378664
Si Si3 0.329002 0.324072 0.250000
Si Si4 0.671002 0.426703 0.250000
Si Si5 0.181682 0.702773 0.977089
O O1 0.500000 0.060094 0.991420
O O2 0.268954 0.059387 0.854683
O O3 0.231205 0.080659 0.065139
O O4 0.278193 0.000000 0.000000
O O5 0.773968 0.124099 0.250000
O O6 0.737730 0.167877 0.432585
O O7 0.000000 0.132014 0.396552
O O8 0.500000 0.302012 0.250000
O O9 0.351691 0.375378 0.250000
O O10 0.232308 0.310727 0.144278
O O11 0.500000 0.448628 0.250000
O O12 0.000000 0.705194 0.982958
O O13 0.250000 0.750000 0.000000
#
# Coordination Sequence:
#
# PCOD8261171 Si02
#       5
#    16  16   8   8  16
#     4  11  25  43  66  97 132 171 217 268 324 386
#     4  11  25  45  67  95 132 172 218 269 323 386
#     4  11  23  43  69  98 130 167 218 272 324 384
#     4  11  23  41  69  96 128 169 216 270 322 382
#     4  12  26  44  69  98 132 173 217 267 325 386
#
# _framework density 20.049723
#
# number of rings (size 3 to 8) (size 9 to 14) (size 15 to 20)
#    0.000    0.750    2.500    4.500    3.500    5.000 
#    0.000    0.000    0.000    0.000    0.000    0.000 
#    0.000    0.000    0.000    0.000    0.000    0.000 
#
# Total GULP energy -396941.972265 kJ/mol
# GULP energy per Si atom -12404.436633 kJ/mol
# Density = 2.000409 g / cm^3
# Si number density = 20.049723 Si / 1000 Ang^3
#
#
#
# Elastic Constant Matrix: (Units=GPa)
#
#
# Indices 1 2 3 4 5 6 
#
# 1 137.3408 67.8595 73.0922 0.0000 0.0000 0.0000
# 2 67.8595 134.2323 74.0588 0.0000 0.0000 0.0000
# 3 73.0922 74.0588 177.4134 0.0000 0.0000 0.0000
# 4 0.0000 0.0000 0.0000 66.0944 0.0000 0.0000
# 5 0.0000 0.0000 0.0000 0.0000 42.5623 0.0000
# 6 0.0000 0.0000 0.0000 0.0000 0.0000 38.0589
#
#
#
# Elastic Compliance Matrix: (Units=1/GPa)
#
#
# Indices 1 2 3 4 5 6 
#
# 1 0.010669 -0.003857 -0.002786 0.000000 0.000000 0.000000
# 2 -0.003857 0.011073 -0.003033 0.000000 0.000000 0.000000
# 3 -0.002786 -0.003033 0.008050 0.000000 0.000000 0.000000
# 4 0.000000 0.000000 0.000000 0.015130 0.000000 0.000000
# 5 0.000000 0.000000 0.000000 0.000000 0.023495 0.000000
# 6 0.000000 0.000000 0.000000 0.000000 0.000000 0.026275
#
#
# Mechanical properties :
#
#
# Convention : Reuss Voigt Hill
#
# Bulk Modulus (GPa) = 95.77448 97.66751 96.72099
# Shear Modulus (GPa) = 42.54419 44.94151 43.74285
#
# Velocity S-wave (km/s) = 4.61144 4.73959 4.67595
# Velocity P-wave (km/s) = 8.73075 8.87525 8.80330
#
# Compressibility (1/GPa) = 0.01044119
#
# Stress axis : x y z
#
# Youngs Moduli (GPa) = 93.72669 90.30890 124.21687
#
# Poissons Ratio (x) = 0.34831 0.34602
# Poissons Ratio (y) = 0.36149 0.37679
# Poissons Ratio (z) = 0.26109 0.27394
#
# Static dielectric constant tensor:
#      x y z
#    x 3.429770 0.000000 0.000000 
#    y 0.000000 3.746560 0.000000 
#    z 0.000000 0.000000 4.329340 
# 
# 
# High freq. dielectric constant tensor:
#      x y z
#    x 1.805270 0.000000 0.000000 
#    y 0.000000 1.794030 0.000000 
#    z 0.000000 0.000000 1.800210 
# 
# From -- ./inp_files/16234.got.cif
#   From: 2010.03.12/outbox.cif.g09.slc.cpg/sg63_9_cif.got.tgz:16234.got - 2010.04.10 19:34:48.
