data_PCOD8261989
_publ_section_title
;
Structure prediction by ZEFSAII (Michael W. Deem and Ramdas Pophale) SiO2 
 PCOD8261989
Probable space group: C M C A
;
_chemical_formula_sum "Si O2"
_cell_formula_units_Z 96
_cell_length_a 9.446037
_cell_length_b 26.497072
_cell_length_c 18.156639
_cell_angle_alpha 90.000000
_cell_angle_beta 90.000000
_cell_angle_gamma 90.000000
_cell_volume 4544.467344
_symmetry_space_group_name_H-M "C M C A"
_symmetry_group_IT_number 64
_symmetry_cell_setting 'orthorhombic'
loop_
_space_group_symop_operation_xyz
x,y,z
-x,1/2-y,1/2+z
x,-y,-z
-x,1/2+y,1/2-z
-x,-y,-z
x,1/2+y,1/2-z
-x,y,z
x,1/2-y,1/2+z
1/2+x,1/2+y,z
1/2-x,-y,1/2+z
1/2+x,1/2-y,-z
1/2-x,y,1/2-z
1/2-x,1/2-y,-z
1/2+x,y,1/2-z
1/2-x,1/2+y,z
1/2+x,-y,1/2+z
loop_
_atom_site_type_symbol
_atom_site_label
_atom_site_fract_x
_atom_site_fract_y
_atom_site_fract_z
Si Si1 0.841842 0.297308 0.081304
Si Si2 0.343980 0.043481 0.685929
Si Si3 0.152493 0.341922 0.310643
Si Si4 0.833406 0.697909 0.326273
Si Si5 0.658387 0.947996 0.042308
Si Si6 0.161544 0.646135 0.058344
O O1 0.731608 0.338648 0.111647
O O2 0.806353 0.243602 0.116846
O O3 0.000000 0.313507 0.104989
O O4 0.826737 0.302887 0.992916
O O5 0.500000 0.017488 0.679586
O O6 0.250000 0.016367 0.750000
O O7 0.369530 0.100605 0.711980
O O8 0.266603 0.043284 0.608286
O O9 0.250000 0.313435 0.250000
O O10 0.000000 0.314164 0.313618
O O11 0.750000 0.706211 0.250000
O O12 0.764009 0.650838 0.370593
O O13 0.000000 0.688535 0.311386
O O14 0.500000 0.935093 0.072123
O O15 0.708675 0.903113 0.988016
O O16 0.654900 0.000000 0.000000
O O17 0.000000 0.639989 0.086297
#
# Coordination Sequence:
#
# PCOD8261989 Si02
#       6
#    16  16  16  16  16  16
#     4  10  20  35  57  85 116 152 191 237 289 345
#     4  10  20  34  55  84 118 154 191 239 294 352
#     4  10  19  29  47  77 113 151 187 226 278 337
#     4  11  24  40  59  85 118 157 203 244 287 344
#     4  10  21  39  64  91 119 154 196 245 301 361
#     4  10  21  39  62  87 119 154 192 240 295 351
#
# _framework density 21.124586999999998
#
# number of rings (size 3 to 8) (size 9 to 14) (size 15 to 20)
#    0.000    1.833    1.667    2.500    0.000    5.667 
#    0.000    0.833    0.000    0.000    0.000    0.000 
#    0.000    0.000    0.000    0.000    0.000    0.000 
#
# Total GULP energy -594769.681064 kJ/mol
# GULP energy per Si atom -12391.035022 kJ/mol
# Density = 2.107651 g / cm^3
# Si number density = 21.124587 Si / 1000 Ang^3
#
#
#
# Elastic Constant Matrix: (Units=GPa)
#
#
# Indices 1 2 3 4 5 6 
#
# 1 163.2954 20.6773 75.3431 0.0000 0.0000 0.0000
# 2 20.6773 49.2395 34.4236 0.0000 0.0000 0.0000
# 3 75.3431 34.4236 96.8912 0.0000 0.0000 0.0000
# 4 0.0000 0.0000 0.0000 16.6399 0.0000 0.0000
# 5 0.0000 0.0000 0.0000 0.0000 43.4196 0.0000
# 6 0.0000 0.0000 0.0000 0.0000 0.0000 15.7300
#
#
#
# Elastic Compliance Matrix: (Units=1/GPa)
#
#
# Indices 1 2 3 4 5 6 
#
# 1 0.009643 0.001587 -0.008062 0.000000 0.000000 0.000000
# 2 0.001587 0.027281 -0.010927 0.000000 0.000000 0.000000
# 3 -0.008062 -0.010927 0.020472 0.000000 0.000000 0.000000
# 4 0.000000 0.000000 0.000000 0.060097 0.000000 0.000000
# 5 0.000000 0.000000 0.000000 0.000000 0.023031 0.000000
# 6 0.000000 0.000000 0.000000 0.000000 0.000000 0.063573
#
#
# Mechanical properties :
#
#
# Convention : Reuss Voigt Hill
#
# Bulk Modulus (GPa) = 44.26219 63.36825 53.81522
# Shear Modulus (GPa) = 20.28972 27.09004 23.68988
#
# Velocity S-wave (km/s) = 3.10252 3.58494 3.35242
# Velocity P-wave (km/s) = 5.81658 6.87010 6.36517
#
# Compressibility (1/GPa) = 0.02259264
#
# Stress axis : x y z
#
# Youngs Moduli (GPa) = 103.70585 36.65516 48.84754
#
# Poissons Ratio (x) = -0.05817 0.39381
# Poissons Ratio (y) = -0.16457 0.53373
# Poissons Ratio (z) = 0.83607 0.40051
#
# Static dielectric constant tensor:
#      x y z
#    x 4.239950 0.000000 0.000000 
#    y 0.000000 3.450160 0.000000 
#    z 0.000000 0.000000 3.704250 
# 
# 
# High freq. dielectric constant tensor:
#      x y z
#    x 1.842390 0.000000 0.000000 
#    y 0.000000 1.784280 0.000000 
#    z 0.000000 0.000000 1.825180 
# 
# From -- ./inp_files/37082.got.cif
#   From: 2010.03.12/outbox.cif.g09.slc.cpg/sg64_19_cif.got.tgz:37082.got - 2010.04.10 20:19:32.
