data_PCOD8261343
_publ_section_title
;
Structure prediction by ZEFSAII (Michael W. Deem and Ramdas Pophale) SiO2 
 PCOD8261343
Probable space group: C M C M
;
_chemical_formula_sum "Si O2"
_cell_formula_units_Z 128
_cell_length_a 20.101266
_cell_length_b 21.808740
_cell_length_c 20.062447
_cell_angle_alpha 90.000000
_cell_angle_beta 90.000000
_cell_angle_gamma 90.000000
_cell_volume 8795.041398
_symmetry_space_group_name_H-M "C M C M"
_symmetry_group_IT_number 63
_symmetry_cell_setting 'orthorhombic'
loop_
_space_group_symop_operation_xyz
x,y,z
-x,-y,1/2+z
x,-y,-z
-x,y,1/2-z
-x,-y,-z
x,y,1/2-z
-x,y,z
x,-y,1/2+z
1/2+x,1/2+y,z
1/2-x,1/2-y,1/2+z
1/2+x,1/2-y,-z
1/2-x,1/2+y,1/2-z
1/2-x,1/2-y,-z
1/2+x,1/2+y,1/2-z
1/2-x,1/2+y,z
1/2+x,1/2-y,1/2+z
loop_
_atom_site_type_symbol
_atom_site_label
_atom_site_fract_x
_atom_site_fract_y
_atom_site_fract_z
Si Si1 0.333768 0.222996 0.066993
Si Si2 0.806466 0.081439 0.562127
Si Si3 0.789560 0.685645 0.930043
Si Si4 0.693152 0.555426 0.406976
Si Si5 0.926016 0.139122 0.396107
Si Si6 0.923898 0.168123 0.548749
Si Si7 0.350277 0.736574 0.323717
Si Si8 0.725866 0.853727 0.674465
O O1 0.269660 0.265976 0.064681
O O2 0.399969 0.264555 0.072249
O O3 0.332805 0.177389 0.130689
O O4 0.331641 0.183490 0.998755
O O5 0.742799 0.119918 0.587174
O O6 0.796310 0.073721 0.483366
O O7 0.876275 0.115311 0.579116
O O8 0.807264 0.017620 0.601595
O O9 0.839389 0.704620 0.870792
O O10 0.622374 0.581849 0.382390
O O11 0.751707 0.583153 0.361165
O O12 0.916528 0.166129 0.469557
O O13 0.912558 0.195953 0.347152
O O14 0.000000 0.114051 0.384146
O O15 0.000000 0.157118 0.572138
O O16 0.364375 0.761800 0.250000
O O17 0.286628 0.692950 0.325295
O O18 0.701014 0.866886 0.750000
#
# Coordination Sequence:
#
# PCOD8261343 Si02
#       8
#    16  16  16  16  16  16  16  16
#     4   9  14  24  42  58  77 105 134 172 217 252
#     4   9  16  25  40  58  83 114 142 169 204 246
#     4   9  14  24  40  58  77 104 139 171 210 255
#     4   9  16  26  38  58  83 111 144 173 200 239
#     4   9  16  25  37  55  83 116 145 172 201 233
#     4   9  16  25  39  61  85 110 141 174 205 241
#     4   9  16  25  38  57  80 105 135 174 214 251
#     4   9  16  26  41  60  79 100 133 177 219 251
#
# _framework density 14.553656
#
# number of rings (size 3 to 8) (size 9 to 14) (size 15 to 20)
#    0.000    3.000    2.500    0.000    0.000    0.750 
#    0.000    3.125    0.000    1.125    0.000    0.000 
#    0.000    3.000    0.000    0.500    0.000    0.000 
#
# Total GULP energy -793232.799468 kJ/mol
# GULP energy per Si atom -12394.262492 kJ/mol
# Density = 1.452053 g / cm^3
# Si number density = 14.553656 Si / 1000 Ang^3
#
#
#
# Elastic Constant Matrix: (Units=GPa)
#
#
# Indices 1 2 3 4 5 6 
#
# 1 29.3284 49.6674 23.0235 0.0000 0.0000 0.0000
# 2 49.6674 103.0622 44.2469 0.0000 0.0000 0.0000
# 3 23.0235 44.2469 70.8997 0.0000 0.0000 0.0000
# 4 0.0000 0.0000 0.0000 16.7835 0.0000 0.0000
# 5 0.0000 0.0000 0.0000 0.0000 11.5722 0.0000
# 6 0.0000 0.0000 0.0000 0.0000 0.0000 15.8532
#
#
#
# Elastic Compliance Matrix: (Units=1/GPa)
#
#
# Indices 1 2 3 4 5 6 
#
# 1 0.187365 -0.087659 -0.006138 0.000000 0.000000 0.000000
# 2 -0.087659 0.054266 -0.005400 0.000000 0.000000 0.000000
# 3 -0.006138 -0.005400 0.019468 0.000000 0.000000 0.000000
# 4 0.000000 0.000000 0.000000 0.059582 0.000000 0.000000
# 5 0.000000 0.000000 0.000000 0.000000 0.086414 0.000000
# 6 0.000000 0.000000 0.000000 0.000000 0.000000 0.063079
#
#
# Mechanical properties :
#
#
# Convention : Reuss Voigt Hill
#
# Bulk Modulus (GPa) = 15.94785 48.57400 32.26092
# Shear Modulus (GPa) = 7.25196 14.59860 10.92528
#
# Velocity S-wave (km/s) = 2.23467 3.17059 2.74284
# Velocity P-wave (km/s) = 4.20001 6.84484 5.67855
#
# Compressibility (1/GPa) = 0.06270439
#
# Stress axis : x y z
#
# Youngs Moduli (GPa) = 5.33718 18.42786 51.36751
#
# Poissons Ratio (x) = 1.61537 0.31527
# Poissons Ratio (y) = 0.46785 0.27739
# Poissons Ratio (z) = 0.03276 0.09951
#
# Static dielectric constant tensor:
#      x y z
#    x 2.631290 0.000000 0.000000 
#    y 0.000000 2.768640 0.000000 
#    z 0.000000 0.000000 2.880380 
# 
# 
# High freq. dielectric constant tensor:
#      x y z
#    x 1.522190 0.000000 0.000000 
#    y 0.000000 1.536700 0.000000 
#    z 0.000000 0.000000 1.542760 
# 
# From -- ./inp_files/47602.got.cif
#   From: 2010.03.12/outbox.cif.g09.slc.cpg/sg63_24_cif.got.tgz:47602.got - 2010.04.10 19:34:48.
