data_PCOD8261161
_publ_section_title
;
Structure prediction by ZEFSAII (Michael W. Deem and Ramdas Pophale) SiO2 
 PCOD8261161
Probable space group: C M C M
;
_chemical_formula_sum "Si O2"
_cell_formula_units_Z 88
_cell_length_a 19.952476
_cell_length_b 24.604094
_cell_length_c 8.700292
_cell_angle_alpha 90.000000
_cell_angle_beta 90.000000
_cell_angle_gamma 90.000000
_cell_volume 4271.082923
_symmetry_space_group_name_H-M "C M C M"
_symmetry_group_IT_number 63
_symmetry_cell_setting 'orthorhombic'
loop_
_space_group_symop_operation_xyz
x,y,z
-x,-y,1/2+z
x,-y,-z
-x,y,1/2-z
-x,-y,-z
x,y,1/2-z
-x,y,z
x,-y,1/2+z
1/2+x,1/2+y,z
1/2-x,1/2-y,1/2+z
1/2+x,1/2-y,-z
1/2-x,1/2+y,1/2-z
1/2-x,1/2-y,-z
1/2+x,1/2+y,1/2-z
1/2-x,1/2+y,z
1/2+x,1/2-y,1/2+z
loop_
_atom_site_type_symbol
_atom_site_label
_atom_site_fract_x
_atom_site_fract_y
_atom_site_fract_z
Si Si1 0.119765 0.133463 0.070297
Si Si2 0.733762 0.552290 0.074108
Si Si3 0.824228 0.242054 0.566920
Si Si4 0.427322 0.830518 0.567681
Si Si5 0.000000 0.938140 0.433668
Si Si6 0.883521 0.554802 0.432074
O O1 0.101122 0.139437 0.250000
O O2 0.191345 0.105766 0.045194
O O3 0.131521 0.191690 0.993623
O O4 0.064040 0.096534 0.988278
O O5 0.740334 0.538075 0.250000
O O6 0.807594 0.560775 0.004548
O O7 0.697482 0.500000 0.000000
O O8 0.818913 0.238387 0.750000
O O9 0.750000 0.250000 0.500000
O O10 0.866885 0.293516 0.506798
O O11 0.422523 0.831377 0.750000
O O12 0.500000 0.807611 0.514727
O O13 0.421442 0.892074 0.505065
O O14 0.000000 0.942528 0.250000
O O15 0.000000 0.000000 0.500000
O O16 0.916679 0.500000 0.500000
O O17 0.887290 0.551862 0.250000
#
# Coordination Sequence:
#
# PCOD8261161 Si02
#       6
#    16  16  16  16   8  16
#     4  11  23  40  62  89 122 161 208 263 322 381
#     4   9  18  32  53  80 112 148 189 239 296 356
#     4  11  23  40  64  91 121 160 209 263 319 384
#     4   9  19  36  58  82 112 153 198 241 293 361
#     4  12  26  44  64  92 130 174 221 268 325 394
#     4   9  17  32  54  81 112 147 187 234 287 349
#
# _framework density 20.603674000000002
#
# number of rings (size 3 to 8) (size 9 to 14) (size 15 to 20)
#    0.000    2.000    0.000    3.545    1.273    6.182 
#    0.000    5.455    0.000    2.182    0.000    0.000 
#    0.000    0.000    0.000    0.000    0.000    0.000 
#
# Total GULP energy -545305.188542 kJ/mol
# GULP energy per Si atom -12393.299740 kJ/mol
# Density = 2.055678 g / cm^3
# Si number density = 20.603674 Si / 1000 Ang^3
#
#
#
# Elastic Constant Matrix: (Units=GPa)
#
#
# Indices 1 2 3 4 5 6 
#
# 1 123.3717 70.9139 40.3185 0.0000 0.0000 0.0000
# 2 70.9139 163.7449 47.7288 0.0000 0.0000 0.0000
# 3 40.3185 47.7288 71.0254 0.0000 0.0000 0.0000
# 4 0.0000 0.0000 0.0000 35.8224 0.0000 0.0000
# 5 0.0000 0.0000 0.0000 0.0000 26.2020 0.0000
# 6 0.0000 0.0000 0.0000 0.0000 0.0000 62.1264
#
#
#
# Elastic Compliance Matrix: (Units=1/GPa)
#
#
# Indices 1 2 3 4 5 6 
#
# 1 0.011641 -0.003874 -0.004005 0.000000 0.000000 0.000000
# 2 -0.003874 0.008884 -0.003771 0.000000 0.000000 0.000000
# 3 -0.004005 -0.003771 0.018887 0.000000 0.000000 0.000000
# 4 0.000000 0.000000 0.000000 0.027916 0.000000 0.000000
# 5 0.000000 0.000000 0.000000 0.000000 0.038165 0.000000
# 6 0.000000 0.000000 0.000000 0.000000 0.000000 0.016096
#
#
# Mechanical properties :
#
#
# Convention : Reuss Voigt Hill
#
# Bulk Modulus (GPa) = 62.06394 75.11824 68.59109
# Shear Modulus (GPa) = 33.27579 38.10887 35.69233
#
# Velocity S-wave (km/s) = 4.02312 4.30538 4.16664
# Velocity P-wave (km/s) = 7.19505 7.82642 7.51737
#
# Compressibility (1/GPa) = 0.01611241
#
# Stress axis : x y z
#
# Youngs Moduli (GPa) = 85.90114 112.56196 52.94697
#
# Poissons Ratio (x) = 0.43609 0.21205
# Poissons Ratio (y) = 0.33280 0.19965
# Poissons Ratio (z) = 0.34402 0.42445
#
# Static dielectric constant tensor:
#      x y z
#    x 4.074680 0.000000 0.000000 
#    y 0.000000 4.022630 0.000000 
#    z 0.000000 0.000000 3.558560 
# 
# 
# High freq. dielectric constant tensor:
#      x y z
#    x 1.813960 0.000000 0.000000 
#    y 0.000000 1.820630 0.000000 
#    z 0.000000 0.000000 1.784570 
# 
# From -- ./inp_files/8227.got.cif
#   From: 2010.03.12/outbox.cif.g09.slc.cpg/sg63_5_cif.got.tgz:8227.got - 2010.04.10 19:34:48.
