data_PCOD8261254
_publ_section_title
;
Structure prediction by ZEFSAII (Michael W. Deem and Ramdas Pophale) SiO2 
 PCOD8261254
Probable space group: C M C M
;
_chemical_formula_sum "Si O2"
_cell_formula_units_Z 88
_cell_length_a 17.355559
_cell_length_b 16.093630
_cell_length_c 15.481664
_cell_angle_alpha 90.000000
_cell_angle_beta 90.000000
_cell_angle_gamma 90.000000
_cell_volume 4324.244647
_symmetry_space_group_name_H-M "C M C M"
_symmetry_group_IT_number 63
_symmetry_cell_setting 'orthorhombic'
loop_
_space_group_symop_operation_xyz
x,y,z
-x,-y,1/2+z
x,-y,-z
-x,y,1/2-z
-x,-y,-z
x,y,1/2-z
-x,y,z
x,-y,1/2+z
1/2+x,1/2+y,z
1/2-x,1/2-y,1/2+z
1/2+x,1/2-y,-z
1/2-x,1/2+y,1/2-z
1/2-x,1/2-y,-z
1/2+x,1/2+y,1/2-z
1/2-x,1/2+y,z
1/2+x,1/2-y,1/2+z
loop_
_atom_site_type_symbol
_atom_site_label
_atom_site_fract_x
_atom_site_fract_y
_atom_site_fract_z
Si Si1 0.305079 0.455460 0.847147
Si Si2 0.087073 0.172359 0.415766
Si Si3 0.412434 0.393865 0.394785
Si Si4 0.806142 0.500000 0.000000
Si Si5 0.590713 0.218443 0.343127
Si Si6 0.409918 0.853451 0.481855
O O1 0.269466 0.461362 0.750000
O O2 0.351664 0.368028 0.850654
O O3 0.364166 0.529587 0.861687
O O4 0.242189 0.458335 0.922994
O O5 0.091921 0.117615 0.502464
O O6 0.109299 0.269036 0.430408
O O7 0.000000 0.167983 0.378827
O O8 0.500000 0.409490 0.365147
O O9 0.375419 0.311255 0.351868
O O10 0.858841 0.431022 0.049085
O O11 0.613676 0.180211 0.250000
O O12 0.500000 0.230363 0.354929
O O13 0.617691 0.157521 0.418481
O O14 0.500000 0.875707 0.473264
#
# Coordination Sequence:
#
# PCOD8261254 Si02
#       6
#    16  16  16   8  16  16
#     4  12  24  37  55  86 124 166 198 229 297 364
#     4   9  18  37  63  89 115 147 195 248 294 346
#     4   9  16  31  56  85 119 154 190 238 292 345
#     4  12  25  42  59  82 128 156 198 252 291 356
#     4   8  14  27  52  87 115 137 183 246 296 343
#     4   9  20  39  66  86 106 153 204 251 306 343
#
# _framework density 20.350373999999999
#
# number of rings (size 3 to 8) (size 9 to 14) (size 15 to 20)
#    0.000    2.364    1.818    3.545    0.000    5.091 
#    0.000    0.909    0.000    2.727    0.000    0.000 
#    0.000    0.000    0.000    0.000    0.000    0.000 
#
# Total GULP energy -545284.401202 kJ/mol
# GULP energy per Si atom -12392.827300 kJ/mol
# Density = 2.030406 g / cm^3
# Si number density = 20.350374 Si / 1000 Ang^3
#
#
#
# Elastic Constant Matrix: (Units=GPa)
#
#
# Indices 1 2 3 4 5 6 
#
# 1 75.9074 51.6899 24.6915 0.0000 0.0000 0.0000
# 2 51.6899 97.3639 13.7539 0.0000 0.0000 0.0000
# 3 24.6915 13.7539 62.6810 0.0000 0.0000 0.0000
# 4 0.0000 0.0000 0.0000 9.5841 0.0000 0.0000
# 5 0.0000 0.0000 0.0000 0.0000 8.8698 0.0000
# 6 0.0000 0.0000 0.0000 0.0000 0.0000 -81.6984
#
#
#
# Elastic Compliance Matrix: (Units=1/GPa)
#
#
# Indices 1 2 3 4 5 6 
#
# 1 0.022996 -0.011278 -0.006584 0.000000 0.000000 0.000000
# 2 -0.011278 0.016131 0.000903 0.000000 0.000000 0.000000
# 3 -0.006584 0.000903 0.018349 0.000000 0.000000 0.000000
# 4 0.000000 0.000000 0.000000 0.104340 0.000000 0.000000
# 5 0.000000 0.000000 0.000000 0.000000 0.112743 0.000000
# 6 0.000000 0.000000 0.000000 0.000000 0.000000 -0.012240
#
#
# Mechanical properties :
#
#
# Convention : Reuss Voigt Hill
#
# Bulk Modulus (GPa) = 42.44854 46.24700 44.34777
# Shear Modulus (GPa) = 16.44263 -2.92778 6.75743
#
# Velocity S-wave (km/s) = 2.84558 -1.20075 1.82421
# Velocity P-wave (km/s) = 5.63032 4.56643 5.12605
#
# Compressibility (1/GPa) = 0.02355793
#
# Stress axis : x y z
#
# Youngs Moduli (GPa) = 43.48676 61.99377 54.49861
#
# Poissons Ratio (x) = 0.69917 0.35880
# Poissons Ratio (y) = 0.49045 -0.04922
# Poissons Ratio (z) = 0.28631 -0.05599
#
# Static dielectric constant tensor:
#      x y z
#    x 3.456340 0.000000 0.000000 
#    y 0.000000 3.612860 0.000000 
#    z 0.000000 0.000000 3.628480 
# 
# 
# High freq. dielectric constant tensor:
#      x y z
#    x 1.771460 0.000000 0.000000 
#    y 0.000000 1.795000 0.000000 
#    z 0.000000 0.000000 1.774890 
# 
# From -- ./inp_files/45526.got.cif
#   From: 2010.03.12/outbox.cif.g09.slc.cpg/sg63_23_cif.got.tgz:45526.got - 2010.04.10 19:34:48.
