data_PCOD8261601
_publ_section_title
;
Structure prediction by ZEFSAII (Michael W. Deem and Ramdas Pophale) SiO2 
 PCOD8261601
Probable space group: C M C A
;
_chemical_formula_sum "Si O2"
_cell_formula_units_Z 64
_cell_length_a 5.361202
_cell_length_b 34.217606
_cell_length_c 17.244729
_cell_angle_alpha 90.000000
_cell_angle_beta 90.000000
_cell_angle_gamma 90.000000
_cell_volume 3163.502384
_symmetry_space_group_name_H-M "C M C A"
_symmetry_group_IT_number 64
_symmetry_cell_setting 'orthorhombic'
loop_
_space_group_symop_operation_xyz
x,y,z
-x,1/2-y,1/2+z
x,-y,-z
-x,1/2+y,1/2-z
-x,-y,-z
x,1/2+y,1/2-z
-x,y,z
x,1/2-y,1/2+z
1/2+x,1/2+y,z
1/2-x,-y,1/2+z
1/2+x,1/2-y,-z
1/2-x,y,1/2-z
1/2-x,1/2-y,-z
1/2+x,y,1/2-z
1/2-x,1/2+y,z
1/2+x,-y,1/2+z
loop_
_atom_site_type_symbol
_atom_site_label
_atom_site_fract_x
_atom_site_fract_y
_atom_site_fract_z
Si Si1 0.000000 0.010745 0.590357
Si Si2 0.000000 0.177091 0.130679
Si Si3 0.000000 0.063320 0.300619
Si Si4 0.500000 0.852576 0.862790
Si Si5 0.000000 0.462237 0.445197
Si Si6 0.500000 0.755493 0.048526
Si Si7 0.000000 0.157644 0.545672
Si Si8 0.000000 0.624481 0.523671
O O1 0.749366 0.035839 0.608073
O O2 0.000000 0.000000 0.500000
O O3 0.000000 0.972773 0.642366
O O4 0.251172 0.165507 0.177607
O O5 0.000000 0.223330 0.115963
O O6 0.000000 0.149643 0.054295
O O7 0.250000 0.062785 0.250000
O O8 0.000000 0.100975 0.355744
O O9 0.500000 0.839029 0.952224
O O10 0.000000 0.500000 0.500000
O O11 0.000000 0.421955 0.494340
O O12 0.500000 0.799151 0.083361
O O13 0.750000 0.750000 0.000000
O O14 0.250709 0.135091 0.572819
#
# Coordination Sequence:
#
# PCOD8261601 Si02
#       8
#     8   8   8   8   8   8   8   8
#     4  10  23  38  58  83 105 148 192 251 292 356
#     4  10  19  28  50  72 108 152 186 230 265 363
#     4  12  26  43  61  82 117 158 205 254 303 368
#     4  10  20  32  51  72 100 147 199 226 277 340
#     4  10  21  31  50  76 106 138 180 245 290 349
#     4  12  16  30  40  74 108 150 195 209 280 322
#     4  10  19  28  48  70 106 152 183 229 261 365
#     4  10  18  28  42  69 102 139 180 220 292 323
#
# _framework density 20.230743
#
# number of rings (size 3 to 8) (size 9 to 14) (size 15 to 20)
#    0.000    1.500    5.000    2.250   14.000    0.000 
#    0.000    0.000    0.000    0.000    0.000    0.000 
#    0.000    0.000    0.000  130.500    0.000    0.000 
#
# Total GULP energy -396472.131161 kJ/mol
# GULP energy per Si atom -12389.754099 kJ/mol
# Density = 2.018470 g / cm^3
# Si number density = 20.230743 Si / 1000 Ang^3
#
#
#
# Elastic Constant Matrix: (Units=GPa)
#
#
# Indices 1 2 3 4 5 6 
#
# 1 244.5040 48.8949 8.2514 0.0000 0.0000 0.0000
# 2 48.8949 168.6717 22.2238 0.0000 0.0000 0.0000
# 3 8.2514 22.2238 29.2870 0.0000 0.0000 0.0000
# 4 0.0000 0.0000 0.0000 11.8898 0.0000 0.0000
# 5 0.0000 0.0000 0.0000 0.0000 55.7463 0.0000
# 6 0.0000 0.0000 0.0000 0.0000 0.0000 36.9207
#
#
#
# Elastic Compliance Matrix: (Units=1/GPa)
#
#
# Indices 1 2 3 4 5 6 
#
# 1 0.004344 -0.001220 -0.000298 0.000000 0.000000 0.000000
# 2 -0.001220 0.006930 -0.004915 0.000000 0.000000 0.000000
# 3 -0.000298 -0.004915 0.037958 0.000000 0.000000 0.000000
# 4 0.000000 0.000000 0.000000 0.084106 0.000000 0.000000
# 5 0.000000 0.000000 0.000000 0.000000 0.017938 0.000000
# 6 0.000000 0.000000 0.000000 0.000000 0.000000 0.027085
#
#
# Mechanical properties :
#
#
# Convention : Reuss Voigt Hill
#
# Bulk Modulus (GPa) = 27.49801 66.80033 47.14917
# Shear Modulus (GPa) = 24.58822 45.11753 34.85287
#
# Velocity S-wave (km/s) = 3.49002 4.72757 4.15513
# Velocity P-wave (km/s) = 5.46462 7.93037 6.81002
#
# Compressibility (1/GPa) = 0.03636627
#
# Stress axis : x y z
#
# Youngs Moduli (GPa) = 230.20610 144.30234 26.34461
#
# Poissons Ratio (x) = 0.17604 0.00785
# Poissons Ratio (y) = 0.28084 0.12948
# Poissons Ratio (z) = 0.06864 0.70923
#
# Static dielectric constant tensor:
#      x y z
#    x 6.898810 0.000000 0.000000 
#    y 0.000000 3.870450 0.000000 
#    z 0.000000 0.000000 2.899320 
# 
# 
# High freq. dielectric constant tensor:
#      x y z
#    x 1.846750 0.000000 0.000000 
#    y 0.000000 1.795800 0.000000 
#    z 0.000000 0.000000 1.693080 
# 
# From -- ./inp_files/28727.got.cif
#   From: 2010.03.12/outbox.cif.g09.slc.cpg/sg64_15_cif.got.tgz:28727.got - 2010.04.10 20:19:32.
