data_PCOD8261495
_publ_section_title
;
Structure prediction by ZEFSAII (Michael W. Deem and Ramdas Pophale) SiO2 
 PCOD8261495
Probable space group: C M C A
;
_chemical_formula_sum "Si O2"
_cell_formula_units_Z 64
_cell_length_a 8.367392
_cell_length_b 23.191023
_cell_length_c 17.698108
_cell_angle_alpha 90.000000
_cell_angle_beta 90.000000
_cell_angle_gamma 90.000000
_cell_volume 3434.289192
_symmetry_space_group_name_H-M "C M C A"
_symmetry_group_IT_number 64
_symmetry_cell_setting 'orthorhombic'
loop_
_space_group_symop_operation_xyz
x,y,z
-x,1/2-y,1/2+z
x,-y,-z
-x,1/2+y,1/2-z
-x,-y,-z
x,1/2+y,1/2-z
-x,y,z
x,1/2-y,1/2+z
1/2+x,1/2+y,z
1/2-x,-y,1/2+z
1/2+x,1/2-y,-z
1/2-x,y,1/2-z
1/2-x,1/2-y,-z
1/2+x,y,1/2-z
1/2-x,1/2+y,z
1/2+x,-y,1/2+z
loop_
_atom_site_type_symbol
_atom_site_label
_atom_site_fract_x
_atom_site_fract_y
_atom_site_fract_z
Si Si1 0.813704 0.923296 0.539197
Si Si2 0.685092 0.474511 0.111878
Si Si3 0.813202 0.863298 0.329145
Si Si4 0.186979 0.687166 0.517127
O O1 0.707714 0.947512 0.470826
O O2 0.771350 0.855612 0.544164
O O3 0.000000 0.931828 0.521743
O O4 0.762800 0.960809 0.613083
O O5 0.500000 0.478118 0.133613
O O6 0.773817 0.431837 0.169996
O O7 0.750000 0.837580 0.250000
O O8 0.725947 0.830079 0.396892
O O9 0.000000 0.852696 0.337496
O O10 0.250000 0.750000 0.500000
O O11 0.000000 0.684441 0.503548
#
# Coordination Sequence:
#
# PCOD8261495 Si02
#       4
#    16  16  16  16
#     4  10  17  28  46  71  99 129 162 204 250 298
#     4  10  17  28  46  71  99 129 161 201 249 302
#     4  11  21  35  53  77 105 137 173 217 267 320
#     4  11  21  35  53  77 105 139 180 224 265 312
#
# _framework density 18.635587999999998
#
# number of rings (size 3 to 8) (size 9 to 14) (size 15 to 20)
#    0.000    1.500    0.000   13.500    0.000    0.000 
#    0.000    0.000    0.000    1.500    0.000   10.500 
#    0.000    0.000    0.000    0.000    0.000    0.000 
#
# Total GULP energy -396639.705222 kJ/mol
# GULP energy per Si atom -12394.990788 kJ/mol
# Density = 1.859317 g / cm^3
# Si number density = 18.635588 Si / 1000 Ang^3
#
#
#
# Elastic Constant Matrix: (Units=GPa)
#
#
# Indices 1 2 3 4 5 6 
#
# 1 106.4521 22.8075 6.5785 0.0000 0.0000 0.0000
# 2 22.8075 133.7435 26.4375 0.0000 0.0000 0.0000
# 3 6.5785 26.4375 49.3996 0.0000 0.0000 0.0000
# 4 0.0000 0.0000 0.0000 17.0502 0.0000 0.0000
# 5 0.0000 0.0000 0.0000 0.0000 23.2811 0.0000
# 6 0.0000 0.0000 0.0000 0.0000 0.0000 33.7456
#
#
#
# Elastic Compliance Matrix: (Units=1/GPa)
#
#
# Indices 1 2 3 4 5 6 
#
# 1 0.009759 -0.001574 -0.000457 0.000000 0.000000 0.000000
# 2 -0.001574 0.008615 -0.004401 0.000000 0.000000 0.000000
# 3 -0.000457 -0.004401 0.022659 0.000000 0.000000 0.000000
# 4 0.000000 0.000000 0.000000 0.058650 0.000000 0.000000
# 5 0.000000 0.000000 0.000000 0.000000 0.042953 0.000000
# 6 0.000000 0.000000 0.000000 0.000000 0.000000 0.029633
#
#
# Mechanical properties :
#
#
# Convention : Reuss Voigt Hill
#
# Bulk Modulus (GPa) = 35.49955 44.58248 40.04101
# Shear Modulus (GPa) = 25.70351 30.40016 28.05184
#
# Velocity S-wave (km/s) = 3.71788 4.04331 3.88401
# Velocity P-wave (km/s) = 6.12543 6.76558 6.45345
#
# Compressibility (1/GPa) = 0.02816937
#
# Stress axis : x y z
#
# Youngs Moduli (GPa) = 102.46572 116.07138 44.13182
#
# Poissons Ratio (x) = 0.18268 0.02018
# Poissons Ratio (y) = 0.16127 0.19423
# Poissons Ratio (z) = 0.04686 0.51085
#
# Static dielectric constant tensor:
#      x y z
#    x 3.490810 0.000000 0.000000 
#    y 0.000000 3.946500 0.000000 
#    z 0.000000 0.000000 3.159180 
# 
# 
# High freq. dielectric constant tensor:
#      x y z
#    x 1.746730 0.000000 0.000000 
#    y 0.000000 1.720740 0.000000 
#    z 0.000000 0.000000 1.673740 
# 
# From -- ./inp_files/29437.got.cif
#   From: 2010.03.12/outbox.cif.g09.slc.cpg/sg64_15_cif.got.tgz:29437.got - 2010.04.10 20:19:32.
