data_PCOD8261992
_publ_section_title
;
Structure prediction by ZEFSAII (Michael W. Deem and Ramdas Pophale) SiO2 
 PCOD8261992
Probable space group: C M C A
;
_chemical_formula_sum "Si O2"
_cell_formula_units_Z 96
_cell_length_a 9.138740
_cell_length_b 27.564555
_cell_length_c 23.850823
_cell_angle_alpha 90.000000
_cell_angle_beta 90.000000
_cell_angle_gamma 90.000000
_cell_volume 6008.148756
_symmetry_space_group_name_H-M "C M C A"
_symmetry_group_IT_number 64
_symmetry_cell_setting 'orthorhombic'
loop_
_space_group_symop_operation_xyz
x,y,z
-x,1/2-y,1/2+z
x,-y,-z
-x,1/2+y,1/2-z
-x,-y,-z
x,1/2+y,1/2-z
-x,y,z
x,1/2-y,1/2+z
1/2+x,1/2+y,z
1/2-x,-y,1/2+z
1/2+x,1/2-y,-z
1/2-x,y,1/2-z
1/2-x,1/2-y,-z
1/2+x,y,1/2-z
1/2-x,1/2+y,z
1/2+x,-y,1/2+z
loop_
_atom_site_type_symbol
_atom_site_label
_atom_site_fract_x
_atom_site_fract_y
_atom_site_fract_z
Si Si1 0.672573 0.071136 0.975490
Si Si2 0.173706 0.021707 0.411538
Si Si3 0.170304 0.679385 0.305575
Si Si4 0.171640 0.178366 0.520273
Si Si5 0.172550 0.432362 0.692905
Si Si6 0.328650 0.226200 0.419220
O O1 0.500000 0.068127 0.977069
O O2 0.724163 0.032954 0.928322
O O3 0.725867 0.056706 0.037821
O O4 0.727311 0.125320 0.959954
O O5 0.262384 0.035387 0.356510
O O6 0.000000 0.025559 0.400194
O O7 0.250000 0.698114 0.250000
O O8 0.210222 0.623786 0.319293
O O9 0.224352 0.712956 0.356866
O O10 0.000000 0.685635 0.294564
O O11 0.248456 0.191121 0.462269
O O12 0.211210 0.217591 0.568277
O O13 0.000000 0.177788 0.508036
O O14 0.250000 0.449270 0.750000
O O15 0.000000 0.441217 0.697993
O O16 0.500000 0.216257 0.426005
#
# Coordination Sequence:
#
# PCOD8261992 Si02
#       6
#    16  16  16  16  16  16
#     4   8  15  27  44  65  87 114 144 172 206 251
#     4   9  16  28  45  64  87 113 143 176 208 246
#     4   9  18  30  43  61  85 111 138 171 210 250
#     4   9  16  27  44  64  86 114 144 169 203 253
#     4  10  19  30  44  63  86 111 140 173 212 254
#     4   9  17  28  42  63  89 112 137 174 214 247
#
# _framework density 15.978300000000001
#
# number of rings (size 3 to 8) (size 9 to 14) (size 15 to 20)
#    0.000    3.000    0.000    2.500    0.000    1.333 
#    0.000    2.500    0.000    1.000    0.000    2.333 
#    0.000    0.000    0.000    0.000    0.000    0.000 
#
# Total GULP energy -595022.767011 kJ/mol
# GULP energy per Si atom -12396.307646 kJ/mol
# Density = 1.594193 g / cm^3
# Si number density = 15.978300 Si / 1000 Ang^3
#
#
#
# Elastic Constant Matrix: (Units=GPa)
#
#
# Indices 1 2 3 4 5 6 
#
# 1 40.6362 32.7112 45.5746 0.0000 0.0000 0.0000
# 2 32.7112 122.4739 77.5767 0.0000 0.0000 0.0000
# 3 45.5746 77.5767 147.0262 0.0000 0.0000 0.0000
# 4 0.0000 0.0000 0.0000 24.4179 0.0000 0.0000
# 5 0.0000 0.0000 0.0000 0.0000 27.9840 0.0000
# 6 0.0000 0.0000 0.0000 0.0000 0.0000 16.0113
#
#
#
# Elastic Compliance Matrix: (Units=1/GPa)
#
#
# Indices 1 2 3 4 5 6 
#
# 1 0.039080 -0.004152 -0.009923 0.000000 0.000000 0.000000
# 2 -0.004152 0.012705 -0.005416 0.000000 0.000000 0.000000
# 3 -0.009923 -0.005416 0.012735 0.000000 0.000000 0.000000
# 4 0.000000 0.000000 0.000000 0.040954 0.000000 0.000000
# 5 0.000000 0.000000 0.000000 0.000000 0.035735 0.000000
# 6 0.000000 0.000000 0.000000 0.000000 0.000000 0.062456
#
#
# Mechanical properties :
#
#
# Convention : Reuss Voigt Hill
#
# Bulk Modulus (GPa) = 39.15936 69.09570 54.12753
# Shear Modulus (GPa) = 19.90760 23.96755 21.93757
#
# Velocity S-wave (km/s) = 3.53358 3.87719 3.70937
# Velocity P-wave (km/s) = 6.41945 7.96121 7.23153
#
# Compressibility (1/GPa) = 0.02553668
#
# Stress axis : x y z
#
# Youngs Moduli (GPa) = 25.58849 78.70956 78.52189
#
# Poissons Ratio (x) = 0.32684 0.77916
# Poissons Ratio (y) = 0.10626 0.42531
# Poissons Ratio (z) = 0.25391 0.42633
#
# Static dielectric constant tensor:
#      x y z
#    x 2.871740 0.000000 0.000000 
#    y 0.000000 3.424710 0.000000 
#    z 0.000000 0.000000 3.005770 
# 
# 
# High freq. dielectric constant tensor:
#      x y z
#    x 1.600350 0.000000 0.000000 
#    y 0.000000 1.608710 0.000000 
#    z 0.000000 0.000000 1.605120 
# 
# From -- ./inp_files/38538.got.cif
#   From: 2010.03.12/outbox.cif.g09.slc.cpg/sg64_20_cif.got.tgz:38538.got - 2010.04.10 20:19:32.
