data_PCOD8261379
_publ_section_title
;
Structure prediction by ZEFSAII (Michael W. Deem and Ramdas Pophale) SiO2 
 PCOD8261379
Probable space group: C M C A
;
_chemical_formula_sum "Si O2"
_cell_formula_units_Z 104
_cell_length_a 16.859715
_cell_length_b 16.008467
_cell_length_c 22.096092
_cell_angle_alpha 90.000000
_cell_angle_beta 90.000000
_cell_angle_gamma 90.000000
_cell_volume 5963.695264
_symmetry_space_group_name_H-M "C M C A"
_symmetry_group_IT_number 64
_symmetry_cell_setting 'orthorhombic'
loop_
_space_group_symop_operation_xyz
x,y,z
-x,1/2-y,1/2+z
x,-y,-z
-x,1/2+y,1/2-z
-x,-y,-z
x,1/2+y,1/2-z
-x,y,z
x,1/2-y,1/2+z
1/2+x,1/2+y,z
1/2-x,-y,1/2+z
1/2+x,1/2-y,-z
1/2-x,y,1/2-z
1/2-x,1/2-y,-z
1/2+x,y,1/2-z
1/2-x,1/2+y,z
1/2+x,-y,1/2+z
loop_
_atom_site_type_symbol
_atom_site_label
_atom_site_fract_x
_atom_site_fract_y
_atom_site_fract_z
Si Si1 0.250000 0.744851 0.250000
Si Si2 0.672156 0.010531 0.169213
Si Si3 0.196789 0.125658 0.838959
Si Si4 0.407742 0.989414 0.700603
Si Si5 0.285239 0.288773 0.440340
Si Si6 0.196269 0.641304 0.350902
Si Si7 0.907425 0.937550 0.445781
O O1 0.193771 0.796976 0.206034
O O2 0.189316 0.689376 0.287692
O O3 0.733450 0.936318 0.181334
O O4 0.630092 0.026043 0.233322
O O5 0.609618 0.983433 0.117898
O O6 0.719062 0.092730 0.145663
O O7 0.113228 0.078804 0.830097
O O8 0.214651 0.160348 0.906334
O O9 0.500000 0.981077 0.708066
O O10 0.376518 0.923078 0.650915
O O11 0.250000 0.250000 0.500000
O O12 0.315940 0.208303 0.403664
O O13 0.357830 0.351862 0.452922
O O14 0.000000 0.914067 0.448687
O O15 0.883503 0.000000 0.500000
#
# Coordination Sequence:
#
# PCOD8261379 Si02
#       7
#     8  16  16  16  16  16  16
#     4  10  14  30  52  72  98 134 172 202 270 286
#     4  10  17  34  54  76 102 142 183 212 252 316
#     4   9  18  32  55  73 103 137 177 219 253 305
#     4  11  20  33  51  80 111 140 176 210 263 324
#     4  10  21  36  58  81 100 136 185 222 262 319
#     4  10  19  32  55  75 108 134 170 223 262 304
#     4  10  21  36  55  78 107 140 176 223 271 313
#
# _framework density 17.438852000000001
#
# number of rings (size 3 to 8) (size 9 to 14) (size 15 to 20)
#    0.000    2.000    3.077    2.308    0.000    0.615 
#    0.000    1.538    0.000    0.923    0.000    0.000 
#    0.000    0.000    0.000    0.000    0.000    0.000 
#
# Total GULP energy -644493.638743 kJ/mol
# GULP energy per Si atom -12394.108437 kJ/mol
# Density = 1.739916 g / cm^3
# Si number density = 17.438852 Si / 1000 Ang^3
#
#
#
# Elastic Constant Matrix: (Units=GPa)
#
#
# Indices 1 2 3 4 5 6 
#
# 1 93.4814 49.5764 42.8670 0.0000 0.0000 0.0000
# 2 49.5764 113.5441 48.7346 0.0000 0.0000 0.0000
# 3 42.8670 48.7346 102.4454 0.0000 0.0000 0.0000
# 4 0.0000 0.0000 0.0000 1.2877 0.0000 0.0000
# 5 0.0000 0.0000 0.0000 0.0000 19.1860 0.0000
# 6 0.0000 0.0000 0.0000 0.0000 0.0000 17.2504
#
#
#
# Elastic Compliance Matrix: (Units=1/GPa)
#
#
# Indices 1 2 3 4 5 6 
#
# 1 0.015124 -0.004885 -0.004005 0.000000 0.000000 0.000000
# 2 -0.004885 0.012644 -0.003971 0.000000 0.000000 0.000000
# 3 -0.004005 -0.003971 0.013326 0.000000 0.000000 0.000000
# 4 0.000000 0.000000 0.000000 0.776550 0.000000 0.000000
# 5 0.000000 0.000000 0.000000 0.000000 0.052121 0.000000
# 6 0.000000 0.000000 0.000000 0.000000 0.000000 0.057970
#
#
# Mechanical properties :
#
#
# Convention : Reuss Voigt Hill
#
# Bulk Modulus (GPa) = 65.04718 65.75855 65.40286
# Shear Modulus (GPa) = 5.21604 18.76435 11.99019
#
# Velocity S-wave (km/s) = 1.73134 3.28382 2.62497
# Velocity P-wave (km/s) = 6.43256 7.22273 6.83907
#
# Compressibility (1/GPa) = 0.01537346
#
# Stress axis : x y z
#
# Youngs Moduli (GPa) = 66.11856 79.08617 75.04011
#
# Poissons Ratio (x) = 0.38632 0.30052
# Poissons Ratio (y) = 0.32297 0.29800
# Poissons Ratio (z) = 0.26480 0.31406
#
# Static dielectric constant tensor:
#      x y z
#    x 2.974330 0.000000 0.000000 
#    y 0.000000 3.644200 0.000000 
#    z 0.000000 0.000000 3.226270 
# 
# 
# High freq. dielectric constant tensor:
#      x y z
#    x 1.640130 0.000000 0.000000 
#    y 0.000000 1.692730 0.000000 
#    z 0.000000 0.000000 1.675930 
# 
# From -- ./inp_files/45877.got.cif
#   From: 2010.03.12/outbox.cif.g09.slc.cpg/sg64_23_cif.got.tgz:45877.got - 2010.04.10 20:19:32.
