data_PCOD8261028
_publ_section_title
;
Structure prediction by ZEFSAII (Michael W. Deem and Ramdas Pophale) SiO2 
 PCOD8261028
Probable space group: C M C M
;
_chemical_formula_sum "Si O2"
_cell_formula_units_Z 96
_cell_length_a 15.037317
_cell_length_b 23.161536
_cell_length_c 14.132319
_cell_angle_alpha 90.000000
_cell_angle_beta 90.000000
_cell_angle_gamma 90.000000
_cell_volume 4922.108062
_symmetry_space_group_name_H-M "C M C M"
_symmetry_group_IT_number 63
_symmetry_cell_setting 'orthorhombic'
loop_
_space_group_symop_operation_xyz
x,y,z
-x,-y,1/2+z
x,-y,-z
-x,y,1/2-z
-x,-y,-z
x,y,1/2-z
-x,y,z
x,-y,1/2+z
1/2+x,1/2+y,z
1/2-x,1/2-y,1/2+z
1/2+x,1/2-y,-z
1/2-x,1/2+y,1/2-z
1/2-x,1/2-y,-z
1/2+x,1/2+y,1/2-z
1/2-x,1/2+y,z
1/2+x,1/2-y,1/2+z
loop_
_atom_site_type_symbol
_atom_site_label
_atom_site_fract_x
_atom_site_fract_y
_atom_site_fract_z
Si Si1 0.898537 0.383155 0.995482
Si Si2 0.671665 0.344861 0.352312
Si Si3 0.708754 0.049071 0.856708
Si Si4 0.600576 0.657183 0.445475
Si Si5 0.751254 0.581567 0.360475
Si Si6 0.319285 0.772244 0.424115
O O1 0.838749 0.387415 0.901378
O O2 0.000000 0.395263 0.967706
O O3 0.868875 0.430691 0.072776
O O4 0.889096 0.318437 0.034926
O O5 0.622144 0.338943 0.250000
O O6 0.705646 0.410093 0.366472
O O7 0.608367 0.330672 0.441070
O O8 0.758882 0.303460 0.345191
O O9 0.669961 0.049644 0.750000
O O10 0.743054 0.985830 0.884104
O O11 0.500000 0.639860 0.420979
O O12 0.663948 0.605520 0.412831
O O13 0.625951 0.716167 0.388772
O O14 0.745131 0.595219 0.250000
O O15 0.250000 0.750000 0.500000
#
# Coordination Sequence:
#
# PCOD8261028 Si02
#       6
#    16  16  16  16  16  16
#     4  11  21  36  62  90 117 150 192 241 293 347
#     4   9  18  35  61  87 112 148 192 240 296 345
#     4   9  19  37  60  83 115 153 188 235 292 346
#     4  11  22  38  60  86 118 157 198 242 290 343
#     4  11  23  39  57  81 120 159 195 237 287 348
#     4   9  17  37  58  83 117 155 187 234 287 347
#
# _framework density 19.503838999999999
#
# number of rings (size 3 to 8) (size 9 to 14) (size 15 to 20)
#    0.000    2.000    5.000    1.000    0.000    3.333 
#    0.000    3.333    0.000    8.000    0.000    0.000 
#    0.000    0.000    0.000    0.000    0.000    0.000 
#
# Total GULP energy -594939.730039 kJ/mol
# GULP energy per Si atom -12394.577709 kJ/mol
# Density = 1.945945 g / cm^3
# Si number density = 19.503839 Si / 1000 Ang^3
#
#
#
# Elastic Constant Matrix: (Units=GPa)
#
#
# Indices 1 2 3 4 5 6 
#
# 1 128.4263 43.1642 36.1928 0.0000 0.0000 0.0000
# 2 43.1642 113.4028 22.6307 0.0000 0.0000 0.0000
# 3 36.1928 22.6307 84.0779 0.0000 0.0000 0.0000
# 4 0.0000 0.0000 0.0000 9.8264 0.0000 0.0000
# 5 0.0000 0.0000 0.0000 0.0000 11.2608 0.0000
# 6 0.0000 0.0000 0.0000 0.0000 0.0000 19.7845
#
#
#
# Elastic Compliance Matrix: (Units=1/GPa)
#
#
# Indices 1 2 3 4 5 6 
#
# 1 0.009762 -0.003040 -0.003384 0.000000 0.000000 0.000000
# 2 -0.003040 0.010266 -0.001454 0.000000 0.000000 0.000000
# 3 -0.003384 -0.001454 0.013742 0.000000 0.000000 0.000000
# 4 0.000000 0.000000 0.000000 0.101767 0.000000 0.000000
# 5 0.000000 0.000000 0.000000 0.000000 0.088803 0.000000
# 6 0.000000 0.000000 0.000000 0.000000 0.000000 0.050545
#
#
# Mechanical properties :
#
#
# Convention : Reuss Voigt Hill
#
# Bulk Modulus (GPa) = 55.51772 58.87580 57.19676
# Shear Modulus (GPa) = 16.85513 23.10230 19.97872
#
# Velocity S-wave (km/s) = 2.94291 3.44539 3.20402
# Velocity P-wave (km/s) = 6.33044 6.78822 6.56332
#
# Compressibility (1/GPa) = 0.01801227
#
# Stress axis : x y z
#
# Youngs Moduli (GPa) = 102.43698 97.41254 72.77045
#
# Poissons Ratio (x) = 0.29618 0.24625
# Poissons Ratio (y) = 0.31145 0.10583
# Poissons Ratio (z) = 0.34664 0.14167
#
# Static dielectric constant tensor:
#      x y z
#    x 3.086890 0.000000 0.000000 
#    y 0.000000 4.009540 0.000000 
#    z 0.000000 0.000000 3.670440 
# 
# 
# High freq. dielectric constant tensor:
#      x y z
#    x 1.729030 0.000000 0.000000 
#    y 0.000000 1.772650 0.000000 
#    z 0.000000 0.000000 1.755480 
# 
# From -- ./inp_files/31958.got.cif
#   From: 2010.03.12/outbox.cif.g09.slc.cpg/sg63_16_cif.got.tgz:31958.got - 2010.04.10 19:34:48.
