data_PCOD8261120
_publ_section_title
;
Structure prediction by ZEFSAII (Michael W. Deem and Ramdas Pophale) SiO2 
 PCOD8261120
Probable space group: C M C M
;
_chemical_formula_sum "Si O2"
_cell_formula_units_Z 64
_cell_length_a 19.155943
_cell_length_b 8.311987
_cell_length_c 17.599537
_cell_angle_alpha 90.000000
_cell_angle_beta 90.000000
_cell_angle_gamma 90.000000
_cell_volume 2802.267785
_symmetry_space_group_name_H-M "C M C M"
_symmetry_group_IT_number 63
_symmetry_cell_setting 'orthorhombic'
loop_
_space_group_symop_operation_xyz
x,y,z
-x,-y,1/2+z
x,-y,-z
-x,y,1/2-z
-x,-y,-z
x,y,1/2-z
-x,y,z
x,-y,1/2+z
1/2+x,1/2+y,z
1/2-x,1/2-y,1/2+z
1/2+x,1/2-y,-z
1/2-x,1/2+y,1/2-z
1/2-x,1/2-y,-z
1/2+x,1/2+y,1/2-z
1/2-x,1/2+y,z
1/2+x,1/2-y,1/2+z
loop_
_atom_site_type_symbol
_atom_site_label
_atom_site_fract_x
_atom_site_fract_y
_atom_site_fract_z
Si Si1 0.722790 0.650918 0.163985
Si Si2 0.651814 0.680355 0.880980
Si Si3 0.353098 0.166895 0.536847
Si Si4 0.500000 0.606954 0.612034
Si Si5 0.500000 0.265397 0.943163
O O1 0.700536 0.691226 0.250000
O O2 0.693531 0.479248 0.141368
O O3 0.807644 0.666585 0.156177
O O4 0.695345 0.789300 0.107469
O O5 0.571773 0.672611 0.849381
O O6 0.651789 0.694272 0.972684
O O7 0.432230 0.153625 0.568429
O O8 0.328193 0.000000 0.500000
O O9 0.500000 0.661619 0.526153
O O10 0.500000 0.412330 0.617112
#
# Coordination Sequence:
#
# PCOD8261120 Si02
#       5
#    16  16  16   8   8
#     4  12  25  42  63  97 139 178 223 281 343 403
#     4  11  23  43  69  96 134 179 228 280 337 405
#     4  11  22  40  69 103 134 177 229 282 340 404
#     4   9  18  38  68  97 131 172 225 280 330 398
#     4   9  17  36  66 101 135 166 224 286 335 388
#
# _framework density 22.838645
#
# number of rings (size 3 to 8) (size 9 to 14) (size 15 to 20)
#    0.000    1.250    2.500    4.125    0.000    0.000 
#    0.000    5.625    0.000    0.000    0.000   17.500 
#    0.000    0.000    0.000    0.000    0.000    0.000 
#
# Total GULP energy -396615.733122 kJ/mol
# GULP energy per Si atom -12394.241660 kJ/mol
# Density = 2.278666 g / cm^3
# Si number density = 22.838645 Si / 1000 Ang^3
#
#
#
# Elastic Constant Matrix: (Units=GPa)
#
#
# Indices 1 2 3 4 5 6 
#
# 1 182.7843 66.4452 49.6536 0.0000 0.0000 0.0000
# 2 66.4452 76.1797 28.6596 0.0000 0.0000 0.0000
# 3 49.6536 28.6596 112.3702 0.0000 0.0000 0.0000
# 4 0.0000 0.0000 0.0000 14.4279 0.0000 0.0000
# 5 0.0000 0.0000 0.0000 0.0000 4.5056 0.0000
# 6 0.0000 0.0000 0.0000 0.0000 0.0000 43.8168
#
#
#
# Elastic Compliance Matrix: (Units=1/GPa)
#
#
# Indices 1 2 3 4 5 6 
#
# 1 0.008414 -0.006571 -0.002042 0.000000 0.000000 0.000000
# 2 -0.006571 0.019651 -0.002109 0.000000 0.000000 0.000000
# 3 -0.002042 -0.002109 0.010339 0.000000 0.000000 0.000000
# 4 0.000000 0.000000 0.000000 0.069310 0.000000 0.000000
# 5 0.000000 0.000000 0.000000 0.000000 0.221946 0.000000
# 6 0.000000 0.000000 0.000000 0.000000 0.000000 0.022822
#
#
# Mechanical properties :
#
#
# Convention : Reuss Voigt Hill
#
# Bulk Modulus (GPa) = 58.95583 73.42788 66.19185
# Shear Modulus (GPa) = 13.17244 27.65513 20.41378
#
# Velocity S-wave (km/s) = 2.40419 3.48356 2.99294
# Velocity P-wave (km/s) = 5.79456 6.95707 6.40225
#
# Compressibility (1/GPa) = 0.01696185
#
# Stress axis : x y z
#
# Youngs Moduli (GPa) = 118.84553 50.88741 96.71815
#
# Poissons Ratio (x) = 0.33437 0.19752
# Poissons Ratio (y) = 0.78091 0.20393
# Poissons Ratio (z) = 0.24271 0.10730
#
# Static dielectric constant tensor:
#      x y z
#    x 4.888290 0.000000 0.000000 
#    y 0.000000 3.954930 0.000000 
#    z 0.000000 0.000000 3.878540 
# 
# 
# High freq. dielectric constant tensor:
#      x y z
#    x 1.923730 0.000000 0.000000 
#    y 0.000000 1.890150 0.000000 
#    z 0.000000 0.000000 1.862350 
# 
# From -- ./inp_files/46587.got.cif
#   From: 2010.03.12/outbox.cif.g09.slc.cpg/sg63_24_cif.got.tgz:46587.got - 2010.04.10 19:34:48.
