data_PCOD8261072
_publ_section_title
;
Structure prediction by ZEFSAII (Michael W. Deem and Ramdas Pophale) SiO2 
 PCOD8261072
Probable space group: C M C M
;
_chemical_formula_sum "Si O2"
_cell_formula_units_Z 88
_cell_length_a 18.109538
_cell_length_b 30.241310
_cell_length_c 8.920955
_cell_angle_alpha 90.000000
_cell_angle_beta 90.000000
_cell_angle_gamma 90.000000
_cell_volume 4885.615893
_symmetry_space_group_name_H-M "C M C M"
_symmetry_group_IT_number 63
_symmetry_cell_setting 'orthorhombic'
loop_
_space_group_symop_operation_xyz
x,y,z
-x,-y,1/2+z
x,-y,-z
-x,y,1/2-z
-x,-y,-z
x,y,1/2-z
-x,y,z
x,-y,1/2+z
1/2+x,1/2+y,z
1/2-x,1/2-y,1/2+z
1/2+x,1/2-y,-z
1/2-x,1/2+y,1/2-z
1/2-x,1/2-y,-z
1/2+x,1/2+y,1/2-z
1/2-x,1/2+y,z
1/2+x,1/2-y,1/2+z
loop_
_atom_site_type_symbol
_atom_site_label
_atom_site_fract_x
_atom_site_fract_y
_atom_site_fract_z
Si Si1 0.500000 0.546659 0.075413
Si Si2 0.583521 0.853387 0.073948
Si Si3 0.585062 0.248555 0.581535
Si Si4 0.160455 0.047532 0.426333
Si Si5 0.708719 0.709218 0.573977
Si Si6 0.227247 0.622246 0.427632
O O1 0.500000 0.538359 0.250000
O O2 0.420899 0.569117 0.030913
O O3 0.500000 0.500000 0.000000
O O4 0.593251 0.861520 0.250000
O O5 0.500000 0.866194 0.024771
O O6 0.599332 0.802210 0.034347
O O7 0.642508 0.883153 0.983605
O O8 0.615606 0.255899 0.750000
O O9 0.500000 0.260281 0.575426
O O10 0.623127 0.282530 0.466610
O O11 0.166052 0.040559 0.250000
O O12 0.225215 0.080065 0.481196
O O13 0.172770 0.000000 0.500000
O O14 0.722046 0.707978 0.750000
O O15 0.750000 0.750000 0.500000
O O16 0.736122 0.664063 0.504617
O O17 0.228713 0.628063 0.250000
#
# Coordination Sequence:
#
# PCOD8261072 Si02
#       6
#     8  16  16  16  16  16
#     4   8  14  30  54  78 104 136 172 210 252 302
#     4   9  18  33  54  78 103 136 179 221 267 320
#     4   9  18  34  54  74 100 137 179 221 267 315
#     4   9  19  35  57  82 108 137 176 217 261 314
#     4  12  23  35  52  75 107 143 180 222 264 312
#     4  11  22  35  53  81 110 140 179 219 266 322
#
# _framework density 18.012059000000001
#
# number of rings (size 3 to 8) (size 9 to 14) (size 15 to 20)
#    0.000    2.182    1.818    3.273    0.000    2.182 
#    1.636    1.818    0.000    0.545    0.000    0.000 
#    0.000    0.000    0.000    0.000    0.000    0.000 
#
# Total GULP energy -545257.462464 kJ/mol
# GULP energy per Si atom -12392.215056 kJ/mol
# Density = 1.797106 g / cm^3
# Si number density = 18.012059 Si / 1000 Ang^3
#
#
#
# Elastic Constant Matrix: (Units=GPa)
#
#
# Indices 1 2 3 4 5 6 
#
# 1 154.8934 68.3688 55.6875 0.0000 0.0000 0.0000
# 2 68.3688 87.3993 41.1603 0.0000 0.0000 0.0000
# 3 55.6875 41.1603 70.0853 0.0000 0.0000 0.0000
# 4 0.0000 0.0000 0.0000 24.2453 0.0000 0.0000
# 5 0.0000 0.0000 0.0000 0.0000 32.6182 0.0000
# 6 0.0000 0.0000 0.0000 0.0000 0.0000 28.9521
#
#
#
# Elastic Compliance Matrix: (Units=1/GPa)
#
#
# Indices 1 2 3 4 5 6 
#
# 1 0.011046 -0.006231 -0.005118 0.000000 0.000000 0.000000
# 2 -0.006231 0.019331 -0.006402 0.000000 0.000000 0.000000
# 3 -0.005118 -0.006402 0.022094 0.000000 0.000000 0.000000
# 4 0.000000 0.000000 0.000000 0.041245 0.000000 0.000000
# 5 0.000000 0.000000 0.000000 0.000000 0.030658 0.000000
# 6 0.000000 0.000000 0.000000 0.000000 0.000000 0.034540
#
#
# Mechanical properties :
#
#
# Convention : Reuss Voigt Hill
#
# Bulk Modulus (GPa) = 58.92546 71.42345 65.17446
# Shear Modulus (GPa) = 24.99102 26.97389 25.98245
#
# Velocity S-wave (km/s) = 3.72890 3.87401 3.80215
# Velocity P-wave (km/s) = 7.16415 7.72980 7.45235
#
# Compressibility (1/GPa) = 0.01697059
#
# Stress axis : x y z
#
# Youngs Moduli (GPa) = 90.52878 51.73090 45.26023
#
# Poissons Ratio (x) = 0.32233 0.23163
# Poissons Ratio (y) = 0.56407 0.28975
# Poissons Ratio (z) = 0.46330 0.33118
#
# Static dielectric constant tensor:
#      x y z
#    x 3.965150 0.000000 0.000000 
#    y 0.000000 3.189970 0.000000 
#    z 0.000000 0.000000 3.503310 
# 
# 
# High freq. dielectric constant tensor:
#      x y z
#    x 1.721570 0.000000 0.000000 
#    y 0.000000 1.654730 0.000000 
#    z 0.000000 0.000000 1.695860 
# 
# From -- ./inp_files/6871.got.cif
#   From: 2010.03.12/outbox.cif.g09.slc.cpg/sg63_4_cif.got.tgz:6871.got - 2010.04.10 19:34:48.
