data_PCOD8261203
_publ_section_title
;
Structure prediction by ZEFSAII (Michael W. Deem and Ramdas Pophale) SiO2 
 PCOD8261203
Probable space group: C M C M
;
_chemical_formula_sum "Si O2"
_cell_formula_units_Z 68
_cell_length_a 9.425542
_cell_length_b 20.063797
_cell_length_c 17.680241
_cell_angle_alpha 90.000000
_cell_angle_beta 90.000000
_cell_angle_gamma 90.000000
_cell_volume 3343.548588
_symmetry_space_group_name_H-M "C M C M"
_symmetry_group_IT_number 63
_symmetry_cell_setting 'orthorhombic'
loop_
_space_group_symop_operation_xyz
x,y,z
-x,-y,1/2+z
x,-y,-z
-x,y,1/2-z
-x,-y,-z
x,y,1/2-z
-x,y,z
x,-y,1/2+z
1/2+x,1/2+y,z
1/2-x,1/2-y,1/2+z
1/2+x,1/2-y,-z
1/2-x,1/2+y,1/2-z
1/2-x,1/2-y,-z
1/2+x,1/2+y,1/2-z
1/2-x,1/2+y,z
1/2+x,1/2-y,1/2+z
loop_
_atom_site_type_symbol
_atom_site_label
_atom_site_fract_x
_atom_site_fract_y
_atom_site_fract_z
Si Si1 0.000000 0.074921 0.522274
Si Si2 0.500000 0.647122 0.367527
Si Si3 0.241642 0.139607 0.887223
Si Si4 0.000000 0.761892 0.121793
Si Si5 0.789103 0.088472 0.250000
Si Si6 0.500000 0.782374 0.051979
Si Si7 0.500000 0.157349 0.250000
Si Si8 0.837893 0.551956 0.750000
O O1 0.144051 0.088173 0.567360
O O2 0.000000 0.121846 0.451261
O O3 0.000000 0.000000 0.500000
O O4 0.363104 0.619123 0.324005
O O5 0.500000 0.727473 0.379281
O O6 0.360439 0.172198 0.941002
O O7 0.317752 0.098806 0.821939
O O8 0.140526 0.197565 0.854605
O O9 0.000000 0.696635 0.171675
O O10 0.000000 0.749259 0.031681
O O11 0.629560 0.108816 0.250000
O O12 0.780516 0.007522 0.250000
O O13 0.000000 0.525031 0.750000
#
# Coordination Sequence:
#
# PCOD8261203 Si02
#       8
#     8   8  16   8   8   8   4   8
#     4  11  24  44  67  99 132 178 237 271 330 409
#     4  11  24  44  70  97 135 177 218 286 345 397
#     4  11  24  42  71  97 132 185 218 287 339 397
#     4  11  24  41  67  99 138 173 227 281 335 416
#     4  11  26  43  68  97 135 182 222 278 333 408
#     4  12  23  43  69 103 142 172 227 284 351 403
#     4  12  24  40  66 100 138 178 220 272 350 400
#     4  12  24  47  65  98 140 174 234 279 337 404
#
# _framework density 20.337674
#
# number of rings (size 3 to 8) (size 9 to 14) (size 15 to 20)
#    0.000    0.706    4.118    4.235    3.294    6.118 
#    0.000    0.588    0.000    0.000    0.000    0.000 
#    0.000    0.000    0.000    0.000    0.000    0.000 
#
# Total GULP energy -421571.896656 kJ/mol
# GULP energy per Si atom -12399.173431 kJ/mol
# Density = 2.029138 g / cm^3
# Si number density = 20.337674 Si / 1000 Ang^3
#
#
#
# Elastic Constant Matrix: (Units=GPa)
#
#
# Indices 1 2 3 4 5 6 
#
# 1 140.9618 39.1560 27.6544 0.0000 0.0000 0.0000
# 2 39.1560 107.6010 33.0003 0.0000 0.0000 0.0000
# 3 27.6544 33.0003 102.6535 0.0000 0.0000 0.0000
# 4 0.0000 0.0000 0.0000 30.7088 0.0000 0.0000
# 5 0.0000 0.0000 0.0000 0.0000 23.6985 0.0000
# 6 0.0000 0.0000 0.0000 0.0000 0.0000 -18.9372
#
#
#
# Elastic Compliance Matrix: (Units=1/GPa)
#
#
# Indices 1 2 3 4 5 6 
#
# 1 0.008060 -0.002515 -0.001363 0.000000 0.000000 0.000000
# 2 -0.002515 0.011095 -0.002889 0.000000 0.000000 0.000000
# 3 -0.001363 -0.002889 0.011037 0.000000 0.000000 0.000000
# 4 0.000000 0.000000 0.000000 0.032564 0.000000 0.000000
# 5 0.000000 0.000000 0.000000 0.000000 0.042197 0.000000
# 6 0.000000 0.000000 0.000000 0.000000 0.000000 -0.052806
#
#
# Mechanical properties :
#
#
# Convention : Reuss Voigt Hill
#
# Bulk Modulus (GPa) = 60.03014 61.20419 60.61716
# Shear Modulus (GPa) = 70.19136 23.85441 47.02289
#
# Velocity S-wave (km/s) = 5.88115 3.42850 4.81365
# Velocity P-wave (km/s) = 8.70046 6.76995 7.79520
#
# Compressibility (1/GPa) = 0.01665830
#
# Stress axis : x y z
#
# Youngs Moduli (GPa) = 124.06754 90.13134 90.60077
#
# Poissons Ratio (x) = 0.22669 0.12347
# Poissons Ratio (y) = 0.31204 0.26176
# Poissons Ratio (z) = 0.16908 0.26040
#
# Static dielectric constant tensor:
#      x y z
#    x 3.975330 0.000000 0.000000 
#    y 0.000000 3.590640 0.000000 
#    z 0.000000 0.000000 3.761750 
# 
# 
# High freq. dielectric constant tensor:
#      x y z
#    x 1.811510 0.000000 0.000000 
#    y 0.000000 1.805720 0.000000 
#    z 0.000000 0.000000 1.796020 
# 
# From -- ./inp_files/40055.got.cif
#   From: 2010.03.12/outbox.cif.g09.slc.cpg/sg63_21_cif.got.tgz:40055.got - 2010.04.10 19:34:48.
