data_PCOD8261679
_publ_section_title
;
Structure prediction by ZEFSAII (Michael W. Deem and Ramdas Pophale) SiO2 
 PCOD8261679
Probable space group: C M C A
;
_chemical_formula_sum "Si O2"
_cell_formula_units_Z 80
_cell_length_a 26.255956
_cell_length_b 18.807397
_cell_length_c 8.381055
_cell_angle_alpha 90.000000
_cell_angle_beta 90.000000
_cell_angle_gamma 90.000000
_cell_volume 4138.616822
_symmetry_space_group_name_H-M "C M C A"
_symmetry_group_IT_number 64
_symmetry_cell_setting 'orthorhombic'
loop_
_space_group_symop_operation_xyz
x,y,z
-x,1/2-y,1/2+z
x,-y,-z
-x,1/2+y,1/2-z
-x,-y,-z
x,1/2+y,1/2-z
-x,y,z
x,1/2-y,1/2+z
1/2+x,1/2+y,z
1/2-x,-y,1/2+z
1/2+x,1/2-y,-z
1/2-x,y,1/2-z
1/2-x,1/2-y,-z
1/2+x,y,1/2-z
1/2-x,1/2+y,z
1/2+x,-y,1/2+z
loop_
_atom_site_type_symbol
_atom_site_label
_atom_site_fract_x
_atom_site_fract_y
_atom_site_fract_z
Si Si1 0.557640 0.792311 0.546362
Si Si2 0.851863 0.108540 0.107397
Si Si3 0.712400 0.500000 0.500000
Si Si4 0.750000 0.397424 0.750000
Si Si5 0.357851 0.047876 0.730751
Si Si6 0.056362 0.650124 0.803581
O O1 0.500000 0.806896 0.614178
O O2 0.599926 0.840422 0.635279
O O3 0.559416 0.807652 0.361082
O O4 0.572169 0.709135 0.565589
O O5 0.803131 0.143192 0.207213
O O6 0.867994 0.033341 0.182546
O O7 0.839410 0.096246 0.919159
O O8 0.748245 0.446468 0.593977
O O9 0.681684 0.451184 0.375638
O O10 0.408788 0.080788 0.805438
O O11 0.000000 0.620758 0.836109
#
# Coordination Sequence:
#
# PCOD8261679 Si02
#       6
#    16  16   8   8  16  16
#     4   9  18  32  51  73  98 131 166 202 245 292
#     4   9  18  32  50  72 100 131 165 202 242 292
#     4  10  18  30  49  72  97 126 160 202 244 290
#     4  10  18  30  50  72  98 130 166 200 244 290
#     4   9  18  31  49  74 100 129 161 202 246 288
#     4   9  18  33  52  73  99 131 165 201 244 293
#
# _framework density 19.33013
#
# number of rings (size 3 to 8) (size 9 to 14) (size 15 to 20)
#    0.000    2.800    0.000    2.400    0.000    4.000 
#    0.000    4.500    0.000   15.600    0.000    0.000 
#    0.000    0.000    0.000    0.000    0.000    0.000 
#
# Total GULP energy -495550.176382 kJ/mol
# GULP energy per Si atom -12388.754410 kJ/mol
# Density = 1.928613 g / cm^3
# Si number density = 19.330130 Si / 1000 Ang^3
#
#
#
# Elastic Constant Matrix: (Units=GPa)
#
#
# Indices 1 2 3 4 5 6 
#
# 1 104.0652 34.4597 21.7490 0.0000 0.0000 0.0000
# 2 34.4597 42.1720 10.7422 0.0000 0.0000 0.0000
# 3 21.7490 10.7422 49.0022 0.0000 0.0000 0.0000
# 4 0.0000 0.0000 0.0000 22.2597 0.0000 0.0000
# 5 0.0000 0.0000 0.0000 0.0000 30.6274 0.0000
# 6 0.0000 0.0000 0.0000 0.0000 0.0000 4.4877
#
#
#
# Elastic Compliance Matrix: (Units=1/GPa)
#
#
# Indices 1 2 3 4 5 6 
#
# 1 0.013837 -0.010318 -0.003879 0.000000 0.000000 0.000000
# 2 -0.010318 0.032809 -0.002613 0.000000 0.000000 0.000000
# 3 -0.003879 -0.002613 0.022702 0.000000 0.000000 0.000000
# 4 0.000000 0.000000 0.000000 0.044924 0.000000 0.000000
# 5 0.000000 0.000000 0.000000 0.000000 0.032651 0.000000
# 6 0.000000 0.000000 0.000000 0.000000 0.000000 0.222833
#
#
# Mechanical properties :
#
#
# Convention : Reuss Voigt Hill
#
# Bulk Modulus (GPa) = 27.98995 36.57124 32.28060
# Shear Modulus (GPa) = 12.03990 20.02751 16.03371
#
# Velocity S-wave (km/s) = 2.49842 3.22231 2.88317
# Velocity P-wave (km/s) = 4.77851 5.72754 5.27441
#
# Compressibility (1/GPa) = 0.03572710
#
# Stress axis : x y z
#
# Youngs Moduli (GPa) = 72.27077 30.47927 44.04933
#
# Poissons Ratio (x) = 0.31449 0.17088
# Poissons Ratio (y) = 0.74571 0.11509
# Poissons Ratio (z) = 0.28036 0.07964
#
# Static dielectric constant tensor:
#      x y z
#    x 3.856850 0.000000 0.000000 
#    y 0.000000 3.198070 0.000000 
#    z 0.000000 0.000000 3.736290 
# 
# 
# High freq. dielectric constant tensor:
#      x y z
#    x 1.761180 0.000000 0.000000 
#    y 0.000000 1.711990 0.000000 
#    z 0.000000 0.000000 1.757300 
# 
# From -- ./inp_files/10240.got.cif
#   From: 2010.03.12/outbox.cif.g09.slc.cpg/sg64_6_cif.got.tgz:10240.got - 2010.04.10 20:19:32.
