data_PCOD8261348
_publ_section_title
;
Structure prediction by ZEFSAII (Michael W. Deem and Ramdas Pophale) SiO2 
 PCOD8261348
Probable space group: C M C M
;
_chemical_formula_sum "Si O2"
_cell_formula_units_Z 96
_cell_length_a 9.643349
_cell_length_b 24.047784
_cell_length_c 26.251930
_cell_angle_alpha 90.000000
_cell_angle_beta 90.000000
_cell_angle_gamma 90.000000
_cell_volume 6087.853381
_symmetry_space_group_name_H-M "C M C M"
_symmetry_group_IT_number 63
_symmetry_cell_setting 'orthorhombic'
loop_
_space_group_symop_operation_xyz
x,y,z
-x,-y,1/2+z
x,-y,-z
-x,y,1/2-z
-x,-y,-z
x,y,1/2-z
-x,y,z
x,-y,1/2+z
1/2+x,1/2+y,z
1/2-x,1/2-y,1/2+z
1/2+x,1/2-y,-z
1/2-x,1/2+y,1/2-z
1/2-x,1/2-y,-z
1/2+x,1/2+y,1/2-z
1/2-x,1/2+y,z
1/2+x,1/2-y,1/2+z
loop_
_atom_site_type_symbol
_atom_site_label
_atom_site_fract_x
_atom_site_fract_y
_atom_site_fract_z
Si Si1 0.161776 0.663440 0.492875
Si Si2 0.152716 0.195291 0.750000
Si Si3 0.159678 0.936419 0.250000
Si Si4 0.335198 0.047949 0.962305
Si Si5 0.653380 0.264424 0.564770
Si Si6 0.161998 0.431316 0.151083
Si Si7 0.652167 0.803561 0.162998
O O1 0.220772 0.605521 0.514166
O O2 0.244019 0.682964 0.442232
O O3 0.199738 0.710005 0.533945
O O4 0.000000 0.659344 0.479905
O O5 0.152450 0.129256 0.750000
O O6 0.231715 0.217453 0.701152
O O7 0.000000 0.220804 0.750000
O O8 0.244022 0.954238 0.301566
O O9 0.000000 0.960254 0.250000
O O10 0.500000 0.049078 0.962831
O O11 0.289486 0.040416 0.902769
O O12 0.277374 0.000000 0.000000
O O13 0.500000 0.283429 0.547778
O O14 0.654745 0.245132 0.622371
O O15 0.183835 0.365373 0.141897
O O16 0.000000 0.444646 0.162875
O O17 0.500000 0.805772 0.189029
#
# Coordination Sequence:
#
# PCOD8261348 Si02
#       7
#    16   8   8  16  16  16  16
#     4   9  16  27  41  61  85 110 142 175 208 247
#     4   9  17  25  35  57  86 109 136 171 212 258
#     4   9  17  27  39  59  86 113 140 175 218 260
#     4   9  16  27  45  67  90 116 147 184 221 258
#     4   9  16  26  41  60  83 112 143 172 203 245
#     4   9  15  26  43  62  84 112 145 176 211 258
#     4   9  15  25  40  57  81 113 143 170 204 252
#
# _framework density 15.769105
#
# number of rings (size 3 to 8) (size 9 to 14) (size 15 to 20)
#    0.000    3.000    1.667    0.500    0.000    2.667 
#    0.000    0.833    0.000    2.000    0.000    1.167 
#    0.000    2.667    0.000    0.000    0.000    0.000 
#
# Total GULP energy -594632.793285 kJ/mol
# GULP energy per Si atom -12388.183193 kJ/mol
# Density = 1.573321 g / cm^3
# Si number density = 15.769105 Si / 1000 Ang^3
#
#
#
# Elastic Constant Matrix: (Units=GPa)
#
#
# Indices 1 2 3 4 5 6 
#
# 1 75.8513 28.5544 51.0749 0.0000 0.0000 0.0000
# 2 28.5544 52.9426 40.0840 0.0000 0.0000 0.0000
# 3 51.0749 40.0840 107.3351 0.0000 0.0000 0.0000
# 4 0.0000 0.0000 0.0000 15.9964 0.0000 0.0000
# 5 0.0000 0.0000 0.0000 0.0000 22.5921 0.0000
# 6 0.0000 0.0000 0.0000 0.0000 0.0000 12.5096
#
#
#
# Elastic Compliance Matrix: (Units=1/GPa)
#
#
# Indices 1 2 3 4 5 6 
#
# 1 0.020333 -0.005076 -0.007780 0.000000 0.000000 0.000000
# 2 -0.005076 0.027602 -0.007892 0.000000 0.000000 0.000000
# 3 -0.007780 -0.007892 0.015966 0.000000 0.000000 0.000000
# 4 0.000000 0.000000 0.000000 0.062514 0.000000 0.000000
# 5 0.000000 0.000000 0.000000 0.000000 0.044263 0.000000
# 6 0.000000 0.000000 0.000000 0.000000 0.000000 0.079939
#
#
# Mechanical properties :
#
#
# Convention : Reuss Voigt Hill
#
# Bulk Modulus (GPa) = 44.63464 52.83952 48.73708
# Shear Modulus (GPa) = 16.68996 17.98067 17.33532
#
# Velocity S-wave (km/s) = 3.25683 3.38042 3.31920
# Velocity P-wave (km/s) = 6.51990 6.98694 6.75746
#
# Compressibility (1/GPa) = 0.02240413
#
# Stress axis : x y z
#
# Youngs Moduli (GPa) = 49.18063 36.22970 62.63378
#
# Poissons Ratio (x) = 0.18392 0.48727
# Poissons Ratio (y) = 0.24966 0.49431
# Poissons Ratio (z) = 0.38261 0.28593
#
# Static dielectric constant tensor:
#      x y z
#    x 3.105340 0.000000 0.000000 
#    y 0.000000 2.741240 0.000000 
#    z 0.000000 0.000000 3.139590 
# 
# 
# High freq. dielectric constant tensor:
#      x y z
#    x 1.593960 0.000000 0.000000 
#    y 0.000000 1.554530 0.000000 
#    z 0.000000 0.000000 1.604800 
# 
# From -- ./inp_files/67311.got.cif
#   From: 2010.03.12/outbox.cif.g09.slc.cpg/sg63_34_cif.got.tgz:67311.got - 2010.04.10 19:34:48.
