data_PCOD8261167
_publ_section_title
;
Structure prediction by ZEFSAII (Michael W. Deem and Ramdas Pophale) SiO2 
 PCOD8261167
Probable space group: C M C M
;
_chemical_formula_sum "Si O2"
_cell_formula_units_Z 80
_cell_length_a 7.684200
_cell_length_b 20.359824
_cell_length_c 25.881122
_cell_angle_alpha 90.000000
_cell_angle_beta 90.000000
_cell_angle_gamma 90.000000
_cell_volume 4049.074610
_symmetry_space_group_name_H-M "C M C M"
_symmetry_group_IT_number 63
_symmetry_cell_setting 'orthorhombic'
loop_
_space_group_symop_operation_xyz
x,y,z
-x,-y,1/2+z
x,-y,-z
-x,y,1/2-z
-x,-y,-z
x,y,1/2-z
-x,y,z
x,-y,1/2+z
1/2+x,1/2+y,z
1/2-x,1/2-y,1/2+z
1/2+x,1/2-y,-z
1/2-x,1/2+y,1/2-z
1/2-x,1/2-y,-z
1/2+x,1/2+y,1/2-z
1/2-x,1/2+y,z
1/2+x,1/2-y,1/2+z
loop_
_atom_site_type_symbol
_atom_site_label
_atom_site_fract_x
_atom_site_fract_y
_atom_site_fract_z
Si Si1 0.803911 0.012205 0.617285
Si Si2 0.302603 0.133425 0.553616
Si Si3 0.000000 0.549235 0.809340
Si Si4 0.196129 0.250815 0.619798
Si Si5 0.000000 0.295349 0.190913
Si Si6 0.796482 0.878358 0.561688
O O1 0.802871 0.073776 0.578623
O O2 0.673993 0.020387 0.665045
O O3 0.000000 0.004332 0.639183
O O4 0.747670 0.948810 0.584765
O O5 0.500000 0.129177 0.574058
O O6 0.221516 0.202407 0.571214
O O7 0.301932 0.129711 0.492148
O O8 0.000000 0.626972 0.815298
O O9 0.000000 0.526999 0.750000
O O10 0.325985 0.233560 0.665904
O O11 0.229302 0.324607 0.601689
O O12 0.000000 0.244363 0.641090
O O13 0.000000 0.273059 0.250000
O O14 0.000000 0.870061 0.551583
#
# Coordination Sequence:
#
# PCOD8261167 Si02
#       6
#    16  16   8  16   8  16
#     4  11  23  41  64  92 129 166 207 260 309 374
#     4  12  22  38  62  95 130 171 209 253 305 377
#     4  11  24  44  70  94 120 160 212 270 317 369
#     4  12  23  41  65  92 129 166 209 260 312 373
#     4  11  24  46  69  93 122 159 212 270 317 365
#     4  11  24  39  61  93 135 168 208 252 311 376
#
# _framework density 19.757601999999999
#
# number of rings (size 3 to 8) (size 9 to 14) (size 15 to 20)
#    0.000    0.600    5.000    3.600    2.800    3.200 
#    0.000    3.000    0.000    0.000    0.000    0.000 
#    0.000    0.000    0.000    0.000    0.000    0.000 
#
# Total GULP energy -496290.914318 kJ/mol
# GULP energy per Si atom -12407.272858 kJ/mol
# Density = 1.971263 g / cm^3
# Si number density = 19.757602 Si / 1000 Ang^3
#
#
#
# Elastic Constant Matrix: (Units=GPa)
#
#
# Indices 1 2 3 4 5 6 
#
# 1 111.3381 22.9242 37.3698 0.0000 0.0000 0.0000
# 2 22.9242 81.7000 19.2233 0.0000 0.0000 0.0000
# 3 37.3698 19.2233 110.8625 0.0000 0.0000 0.0000
# 4 0.0000 0.0000 0.0000 10.7942 0.0000 0.0000
# 5 0.0000 0.0000 0.0000 0.0000 -93.6483 0.0000
# 6 0.0000 0.0000 0.0000 0.0000 0.0000 -30.0498
#
#
#
# Elastic Compliance Matrix: (Units=1/GPa)
#
#
# Indices 1 2 3 4 5 6 
#
# 1 0.010494 -0.002202 -0.003156 0.000000 0.000000 0.000000
# 2 -0.002202 0.013223 -0.001550 0.000000 0.000000 0.000000
# 3 -0.003156 -0.001550 0.010353 0.000000 0.000000 0.000000
# 4 0.000000 0.000000 0.000000 0.092642 0.000000 0.000000
# 5 0.000000 0.000000 0.000000 0.000000 -0.010678 0.000000
# 6 0.000000 0.000000 0.000000 0.000000 0.000000 -0.033278
#
#
# Mechanical properties :
#
#
# Convention : Reuss Voigt Hill
#
# Bulk Modulus (GPa) = 49.37483 51.43725 50.40604
# Shear Modulus (GPa) = 48.39197 -7.62190 20.38504
#
# Velocity S-wave (km/s) = 4.95439 -1.96623 3.21558
# Velocity P-wave (km/s) = 7.60083 4.57558 6.27330
#
# Compressibility (1/GPa) = 0.02025323
#
# Stress axis : x y z
#
# Youngs Moduli (GPa) = 95.29070 75.62806 96.59300
#
# Poissons Ratio (x) = 0.16654 0.30481
# Poissons Ratio (y) = 0.20984 0.14977
# Poissons Ratio (z) = 0.30070 0.11726
#
# Static dielectric constant tensor:
#      x y z
#    x 3.814060 0.000000 0.000000 
#    y 0.000000 3.712240 0.000000 
#    z 0.000000 0.000000 3.435480 
# 
# 
# High freq. dielectric constant tensor:
#      x y z
#    x 1.789200 0.000000 0.000000 
#    y 0.000000 1.780190 0.000000 
#    z 0.000000 0.000000 1.753500 
# 
# From -- ./inp_files/66681.got.cif
#   From: 2010.03.12/outbox.cif.g09.slc.cpg/sg63_34_cif.got.tgz:66681.got - 2010.04.10 19:34:48.
