data_PCOD8261589
_publ_section_title
;
Structure prediction by ZEFSAII (Michael W. Deem and Ramdas Pophale) SiO2 
 PCOD8261589
Probable space group: C M C A
;
_chemical_formula_sum "Si O2"
_cell_formula_units_Z 96
_cell_length_a 9.247122
_cell_length_b 23.683653
_cell_length_c 25.786921
_cell_angle_alpha 90.000000
_cell_angle_beta 90.000000
_cell_angle_gamma 90.000000
_cell_volume 5647.480846
_symmetry_space_group_name_H-M "C M C A"
_symmetry_group_IT_number 64
_symmetry_cell_setting 'orthorhombic'
loop_
_space_group_symop_operation_xyz
x,y,z
-x,1/2-y,1/2+z
x,-y,-z
-x,1/2+y,1/2-z
-x,-y,-z
x,1/2+y,1/2-z
-x,y,z
x,1/2-y,1/2+z
1/2+x,1/2+y,z
1/2-x,-y,1/2+z
1/2+x,1/2-y,-z
1/2-x,y,1/2-z
1/2-x,1/2-y,-z
1/2+x,y,1/2-z
1/2-x,1/2+y,z
1/2+x,-y,1/2+z
loop_
_atom_site_type_symbol
_atom_site_label
_atom_site_fract_x
_atom_site_fract_y
_atom_site_fract_z
Si Si1 0.169513 0.164978 0.802975
Si Si2 0.165536 0.832005 0.465055
Si Si3 0.668100 0.525090 0.053356
Si Si4 0.833753 0.413813 0.396166
Si Si5 0.169885 0.849471 0.935772
Si Si6 0.336274 0.750792 0.129914
O O1 0.250000 0.151609 0.750000
O O2 0.206122 0.111746 0.840078
O O3 0.227712 0.223379 0.827755
O O4 0.000000 0.171892 0.792878
O O5 0.235931 0.887918 0.440965
O O6 0.248306 0.817283 0.517875
O O7 0.182763 0.780984 0.425225
O O8 0.000000 0.845078 0.477900
O O9 0.500000 0.534524 0.043087
O O10 0.693867 0.481368 0.101138
O O11 0.731729 0.586428 0.069171
O O12 0.736738 0.500000 0.000000
O O13 0.000000 0.399321 0.409330
O O14 0.199985 0.815072 0.882045
O O15 0.000000 0.847331 0.948062
O O16 0.500000 0.758310 0.150922
#
# Coordination Sequence:
#
# PCOD8261589 Si02
#       6
#    16  16  16  16  16  16
#     4  10  20  34  55  75  93 117 151 198 248 293
#     4  10  18  27  41  65  98 130 159 197 235 274
#     4   9  15  26  47  70  94 127 167 199 221 267
#     4   9  17  31  49  70  93 124 163 197 233 280
#     4  10  18  29  46  66  94 133 167 194 226 274
#     4   9  19  32  46  68  96 125 160 197 238 282
#
# _framework density 16.998729000000001
#
# number of rings (size 3 to 8) (size 9 to 14) (size 15 to 20)
#    0.000    2.500    1.667    1.500    0.000    2.000 
#    0.000    1.667    0.000    1.000    0.000    2.333 
#    0.000    0.000    0.000    0.000    0.000    0.000 
#
# Total GULP energy -594931.261447 kJ/mol
# GULP energy per Si atom -12394.401280 kJ/mol
# Density = 1.696004 g / cm^3
# Si number density = 16.998729 Si / 1000 Ang^3
#
#
#
# Elastic Constant Matrix: (Units=GPa)
#
#
# Indices 1 2 3 4 5 6 
#
# 1 63.3651 21.4333 36.3730 0.0000 0.0000 0.0000
# 2 21.4333 95.3805 35.3287 0.0000 0.0000 0.0000
# 3 36.3730 35.3287 81.6393 0.0000 0.0000 0.0000
# 4 0.0000 0.0000 0.0000 16.5804 0.0000 0.0000
# 5 0.0000 0.0000 0.0000 0.0000 26.3205 0.0000
# 6 0.0000 0.0000 0.0000 0.0000 0.0000 15.7139
#
#
#
# Elastic Compliance Matrix: (Units=1/GPa)
#
#
# Indices 1 2 3 4 5 6 
#
# 1 0.021388 -0.001520 -0.008871 0.000000 0.000000 0.000000
# 2 -0.001520 0.012594 -0.004772 0.000000 0.000000 0.000000
# 3 -0.008871 -0.004772 0.018267 0.000000 0.000000 0.000000
# 4 0.000000 0.000000 0.000000 0.060312 0.000000 0.000000
# 5 0.000000 0.000000 0.000000 0.000000 0.037993 0.000000
# 6 0.000000 0.000000 0.000000 0.000000 0.000000 0.063638
#
#
# Mechanical properties :
#
#
# Convention : Reuss Voigt Hill
#
# Bulk Modulus (GPa) = 45.61948 47.40610 46.51279
# Shear Modulus (GPa) = 19.85494 21.53962 20.69728
#
# Velocity S-wave (km/s) = 3.42135 3.56354 3.49317
# Velocity P-wave (km/s) = 6.51941 6.69928 6.60996
#
# Compressibility (1/GPa) = 0.02192046
#
# Stress axis : x y z
#
# Youngs Moduli (GPa) = 46.75508 79.40503 54.74465
#
# Poissons Ratio (x) = 0.12072 0.48565
# Poissons Ratio (y) = 0.07108 0.26127
# Poissons Ratio (z) = 0.41477 0.37896
#
# Static dielectric constant tensor:
#      x y z
#    x 3.113720 0.000000 0.000000 
#    y 0.000000 3.443690 0.000000 
#    z 0.000000 0.000000 2.926480 
# 
# 
# High freq. dielectric constant tensor:
#      x y z
#    x 1.643290 0.000000 0.000000 
#    y 0.000000 1.657590 0.000000 
#    z 0.000000 0.000000 1.622190 
# 
# From -- ./inp_files/43005.got.cif
#   From: 2010.03.12/outbox.cif.g09.slc.cpg/sg64_22_cif.got.tgz:43005.got - 2010.04.10 20:19:32.
