data_PCOD8261632
_publ_section_title
;
Structure prediction by ZEFSAII (Michael W. Deem and Ramdas Pophale) SiO2 
 PCOD8261632
Probable space group: C M C A
;
_chemical_formula_sum "Si O2"
_cell_formula_units_Z 88
_cell_length_a 13.861775
_cell_length_b 22.867581
_cell_length_c 18.025791
_cell_angle_alpha 90.000000
_cell_angle_beta 90.000000
_cell_angle_gamma 90.000000
_cell_volume 5713.910094
_symmetry_space_group_name_H-M "C M C A"
_symmetry_group_IT_number 64
_symmetry_cell_setting 'orthorhombic'
loop_
_space_group_symop_operation_xyz
x,y,z
-x,1/2-y,1/2+z
x,-y,-z
-x,1/2+y,1/2-z
-x,-y,-z
x,1/2+y,1/2-z
-x,y,z
x,1/2-y,1/2+z
1/2+x,1/2+y,z
1/2-x,-y,1/2+z
1/2+x,1/2-y,-z
1/2-x,y,1/2-z
1/2-x,1/2-y,-z
1/2+x,y,1/2-z
1/2-x,1/2+y,z
1/2+x,-y,1/2+z
loop_
_atom_site_type_symbol
_atom_site_label
_atom_site_fract_x
_atom_site_fract_y
_atom_site_fract_z
Si Si1 0.109424 0.753121 0.531492
Si Si2 0.109150 0.335339 0.337383
Si Si3 0.212182 0.805387 0.899599
Si Si4 0.386278 0.949190 0.407116
Si Si5 0.885975 0.423499 0.572028
Si Si6 0.750000 0.741080 0.750000
O O1 0.117687 0.696035 0.582946
O O2 0.140064 0.734087 0.448890
O O3 0.180643 0.803148 0.563766
O O4 0.000000 0.777690 0.530209
O O5 0.152701 0.401119 0.348214
O O6 0.163822 0.300928 0.273880
O O7 0.000000 0.338009 0.309568
O O8 0.175530 0.871564 0.892183
O O9 0.212524 0.781029 0.816573
O O10 0.500000 0.942068 0.412626
O O11 0.347912 0.933181 0.488721
O O12 0.361154 0.015915 0.383975
O O13 0.000000 0.409014 0.576460
#
# Coordination Sequence:
#
# PCOD8261632 Si02
#       6
#    16  16  16  16  16   8
#     4   9  17  29  47  66  88 118 152 188 222 258
#     4   9  16  30  46  64  92 119 145 186 226 263
#     4  10  18  29  44  66  95 120 150 181 224 270
#     4   8  14  25  45  70  89 109 143 189 237 260
#     4   9  15  25  46  73  92 108 142 192 232 263
#     4  10  22  30  40  66  96 124 152 170 216 280
#
# _framework density 15.401013000000001
#
# number of rings (size 3 to 8) (size 9 to 14) (size 15 to 20)
#    0.000    2.909    1.818    1.636    0.000    1.455 
#    0.000    0.909    0.000    0.000    0.000    3.818 
#    0.000    0.000    0.000    0.000    0.000    0.000 
#
# Total GULP energy -545263.815723 kJ/mol
# GULP energy per Si atom -12392.359448 kJ/mol
# Density = 1.536596 g / cm^3
# Si number density = 15.401013 Si / 1000 Ang^3
#
#
#
# Elastic Constant Matrix: (Units=GPa)
#
#
# Indices 1 2 3 4 5 6 
#
# 1 83.6049 54.4323 33.7616 0.0000 0.0000 0.0000
# 2 54.4323 135.6832 47.4885 0.0000 0.0000 0.0000
# 3 33.7616 47.4885 84.0675 0.0000 0.0000 0.0000
# 4 0.0000 0.0000 0.0000 16.4226 0.0000 0.0000
# 5 0.0000 0.0000 0.0000 0.0000 15.2234 0.0000
# 6 0.0000 0.0000 0.0000 0.0000 0.0000 20.2668
#
#
#
# Elastic Compliance Matrix: (Units=1/GPa)
#
#
# Indices 1 2 3 4 5 6 
#
# 1 0.017077 -0.005547 -0.003725 0.000000 0.000000 0.000000
# 2 -0.005547 0.010988 -0.003979 0.000000 0.000000 0.000000
# 3 -0.003725 -0.003979 0.015639 0.000000 0.000000 0.000000
# 4 0.000000 0.000000 0.000000 0.060892 0.000000 0.000000
# 5 0.000000 0.000000 0.000000 0.000000 0.065688 0.000000
# 6 0.000000 0.000000 0.000000 0.000000 0.000000 0.049342
#
#
# Mechanical properties :
#
#
# Convention : Reuss Voigt Hill
#
# Bulk Modulus (GPa) = 58.13369 63.85783 60.99576
# Shear Modulus (GPa) = 19.85219 21.56077 20.70648
#
# Velocity S-wave (km/s) = 3.59419 3.74566 3.67070
# Velocity P-wave (km/s) = 7.41976 7.76273 7.59318
#
# Compressibility (1/GPa) = 0.01720173
#
# Stress axis : x y z
#
# Youngs Moduli (GPa) = 58.55967 91.00667 63.94332
#
# Poissons Ratio (x) = 0.50482 0.23816
# Poissons Ratio (y) = 0.32484 0.25445
# Poissons Ratio (z) = 0.21811 0.36215
#
# Static dielectric constant tensor:
#      x y z
#    x 2.875110 0.000000 0.000000 
#    y 0.000000 3.130380 0.000000 
#    z 0.000000 0.000000 2.749380 
# 
# 
# High freq. dielectric constant tensor:
#      x y z
#    x 1.569310 0.000000 0.000000 
#    y 0.000000 1.589550 0.000000 
#    z 0.000000 0.000000 1.567810 
# 
# From -- ./inp_files/32320.got.cif
#   From: 2010.03.12/outbox.cif.g09.slc.cpg/sg64_17_cif.got.tgz:32320.got - 2010.04.10 20:19:32.
