data_PCOD8261894
_publ_section_title
;
Structure prediction by ZEFSAII (Michael W. Deem and Ramdas Pophale) SiO2 
 PCOD8261894
Probable space group: C M C A
;
_chemical_formula_sum "Si O2"
_cell_formula_units_Z 80
_cell_length_a 13.182236
_cell_length_b 23.381472
_cell_length_c 14.040614
_cell_angle_alpha 90.000000
_cell_angle_beta 90.000000
_cell_angle_gamma 90.000000
_cell_volume 4327.599197
_symmetry_space_group_name_H-M "C M C A"
_symmetry_group_IT_number 64
_symmetry_cell_setting 'orthorhombic'
loop_
_space_group_symop_operation_xyz
x,y,z
-x,1/2-y,1/2+z
x,-y,-z
-x,1/2+y,1/2-z
-x,-y,-z
x,1/2+y,1/2-z
-x,y,z
x,1/2-y,1/2+z
1/2+x,1/2+y,z
1/2-x,-y,1/2+z
1/2+x,1/2-y,-z
1/2-x,y,1/2-z
1/2-x,1/2-y,-z
1/2+x,y,1/2-z
1/2-x,1/2+y,z
1/2+x,-y,1/2+z
loop_
_atom_site_type_symbol
_atom_site_label
_atom_site_fract_x
_atom_site_fract_y
_atom_site_fract_z
Si Si1 0.307557 0.465702 0.868854
Si Si2 0.882288 0.800549 0.022221
Si Si3 0.616158 0.587034 0.309320
Si Si4 0.616796 0.425337 0.065003
Si Si5 0.721541 0.705194 0.356448
O O1 0.370153 0.419547 0.804704
O O2 0.186606 0.464256 0.849120
O O3 0.345897 0.531353 0.851482
O O4 0.320151 0.444500 0.974611
O O5 0.862063 0.858497 0.083632
O O6 0.852282 0.750124 0.093116
O O7 0.000000 0.794627 0.993909
O O8 0.820926 0.801361 0.922729
O O9 0.500000 0.579591 0.341114
O O10 0.659048 0.646717 0.347685
O O11 0.500000 0.437122 0.045044
O O12 0.750000 0.726609 0.250000
#
# Coordination Sequence:
#
# PCOD8261894 Si02
#       5
#    16  16  16  16  16
#     4  10  19  33  54  83 107 142 185 236 281 340
#     4  10  22  38  61  87 117 156 199 244 297 352
#     4  11  20  34  55  83 113 145 186 234 289 343
#     4  10  18  34  57  80 109 144 187 234 280 338
#     4  11  21  39  59  88 119 154 195 250 293 352
#
# _framework density 18.486000000000001
#
# number of rings (size 3 to 8) (size 9 to 14) (size 15 to 20)
#    0.000    1.600    4.000    3.000    0.000    3.200 
#    3.600    2.000    0.000    0.000    0.000    0.000 
#    0.000    0.000    0.000    0.000    0.000    0.000 
#
# Total GULP energy -495613.283436 kJ/mol
# GULP energy per Si atom -12390.332086 kJ/mol
# Density = 1.844393 g / cm^3
# Si number density = 18.486000 Si / 1000 Ang^3
#
#
#
# Elastic Constant Matrix: (Units=GPa)
#
#
# Indices 1 2 3 4 5 6 
#
# 1 142.7760 53.3552 40.9632 0.0000 0.0000 0.0000
# 2 53.3552 123.8004 44.7199 0.0000 0.0000 0.0000
# 3 40.9632 44.7199 76.7729 0.0000 0.0000 0.0000
# 4 0.0000 0.0000 0.0000 33.9539 0.0000 0.0000
# 5 0.0000 0.0000 0.0000 0.0000 14.4162 0.0000
# 6 0.0000 0.0000 0.0000 0.0000 0.0000 31.7041
#
#
#
# Elastic Compliance Matrix: (Units=1/GPa)
#
#
# Indices 1 2 3 4 5 6 
#
# 1 0.008927 -0.002694 -0.003194 0.000000 0.000000 0.000000
# 2 -0.002694 0.011043 -0.004995 0.000000 0.000000 0.000000
# 3 -0.003194 -0.004995 0.017639 0.000000 0.000000 0.000000
# 4 0.000000 0.000000 0.000000 0.029452 0.000000 0.000000
# 5 0.000000 0.000000 0.000000 0.000000 0.069367 0.000000
# 6 0.000000 0.000000 0.000000 0.000000 0.000000 0.031542
#
#
# Mechanical properties :
#
#
# Convention : Reuss Voigt Hill
#
# Bulk Modulus (GPa) = 63.11774 69.04731 66.08253
# Shear Modulus (GPa) = 25.63892 29.63555 27.63724
#
# Velocity S-wave (km/s) = 3.72820 4.00826 3.87076
# Velocity P-wave (km/s) = 7.26294 7.67162 7.47008
#
# Compressibility (1/GPa) = 0.01584341
#
# Stress axis : x y z
#
# Youngs Moduli (GPa) = 112.02025 90.55709 56.69127
#
# Poissons Ratio (x) = 0.24392 0.18108
# Poissons Ratio (y) = 0.30173 0.28318
# Poissons Ratio (z) = 0.35781 0.45235
#
# Static dielectric constant tensor:
#      x y z
#    x 3.473500 0.000000 0.000000 
#    y 0.000000 4.159680 0.000000 
#    z 0.000000 0.000000 3.463410 
# 
# 
# High freq. dielectric constant tensor:
#      x y z
#    x 1.720830 0.000000 0.000000 
#    y 0.000000 1.725480 0.000000 
#    z 0.000000 0.000000 1.697260 
# 
# From -- ./inp_files/22325.got.cif
#   From: 2010.03.12/outbox.cif.g09.slc.cpg/sg64_12_cif.got.tgz:22325.got - 2010.04.10 20:19:32.
