data_PCOD8261746
_publ_section_title
;
Structure prediction by ZEFSAII (Michael W. Deem and Ramdas Pophale) SiO2 
 PCOD8261746
Probable space group: C M C A
;
_chemical_formula_sum "Si O2"
_cell_formula_units_Z 64
_cell_length_a 8.704476
_cell_length_b 23.420800
_cell_length_c 18.547115
_cell_angle_alpha 90.000000
_cell_angle_beta 90.000000
_cell_angle_gamma 90.000000
_cell_volume 3781.122280
_symmetry_space_group_name_H-M "C M C A"
_symmetry_group_IT_number 64
_symmetry_cell_setting 'orthorhombic'
loop_
_space_group_symop_operation_xyz
x,y,z
-x,1/2-y,1/2+z
x,-y,-z
-x,1/2+y,1/2-z
-x,-y,-z
x,1/2+y,1/2-z
-x,y,z
x,1/2-y,1/2+z
1/2+x,1/2+y,z
1/2-x,-y,1/2+z
1/2+x,1/2-y,-z
1/2-x,y,1/2-z
1/2-x,1/2-y,-z
1/2+x,y,1/2-z
1/2-x,1/2+y,z
1/2+x,-y,1/2+z
loop_
_atom_site_type_symbol
_atom_site_label
_atom_site_fract_x
_atom_site_fract_y
_atom_site_fract_z
Si Si1 0.680489 0.500839 0.174470
Si Si2 0.173704 0.901228 0.406303
Si Si3 0.818259 0.687567 0.503788
Si Si4 0.673646 0.586316 0.435313
O O1 0.500000 0.496336 0.181086
O O2 0.750000 0.521310 0.250000
O O3 0.746033 0.438535 0.155030
O O4 0.722960 0.546574 0.114038
O O5 0.266432 0.842029 0.420252
O O6 0.172680 0.936953 0.481912
O O7 0.000000 0.887086 0.381904
O O8 0.750000 0.750000 0.500000
O O9 0.748145 0.650092 0.437539
O O10 0.000000 0.689706 0.497941
O O11 0.500000 0.589095 0.404585
#
# Coordination Sequence:
#
# PCOD8261746 Si02
#       4
#    16  16  16  16
#     4  12  23  34  51  75 106 140 172 209 255 308
#     4   9  19  34  53  76 104 134 169 213 256 300
#     4  10  18  31  52  79 104 132 170 212 256 298
#     4   9  19  34  53  76 104 134 169 213 256 300
#
# _framework density 16.926192
#
# number of rings (size 3 to 8) (size 9 to 14) (size 15 to 20)
#    1.500    0.500    0.000    6.000    0.000    3.000 
#    0.000    0.000    0.000    1.500    0.000   10.500 
#    0.000    0.000    0.000    0.000    0.000    0.000 
#
# Total GULP energy -396529.485430 kJ/mol
# GULP energy per Si atom -12391.546420 kJ/mol
# Density = 1.688767 g / cm^3
# Si number density = 16.926192 Si / 1000 Ang^3
#
#
#
# Elastic Constant Matrix: (Units=GPa)
#
#
# Indices 1 2 3 4 5 6 
#
# 1 146.4320 27.5256 20.4265 0.0000 0.0000 0.0000
# 2 27.5256 75.2567 8.5038 0.0000 0.0000 0.0000
# 3 20.4265 8.5038 41.6068 0.0000 0.0000 0.0000
# 4 0.0000 0.0000 0.0000 7.8976 0.0000 0.0000
# 5 0.0000 0.0000 0.0000 0.0000 26.4708 0.0000
# 6 0.0000 0.0000 0.0000 0.0000 0.0000 34.6583
#
#
#
# Elastic Compliance Matrix: (Units=1/GPa)
#
#
# Indices 1 2 3 4 5 6 
#
# 1 0.007753 -0.002462 -0.003303 0.000000 0.000000 0.000000
# 2 -0.002462 0.014384 -0.001731 0.000000 0.000000 0.000000
# 3 -0.003303 -0.001731 0.026010 0.000000 0.000000 0.000000
# 4 0.000000 0.000000 0.000000 0.126620 0.000000 0.000000
# 5 0.000000 0.000000 0.000000 0.000000 0.037777 0.000000
# 6 0.000000 0.000000 0.000000 0.000000 0.000000 0.028853
#
#
# Mechanical properties :
#
#
# Convention : Reuss Voigt Hill
#
# Bulk Modulus (GPa) = 30.16216 41.80082 35.98149
# Shear Modulus (GPa) = 18.69570 27.59468 23.14519
#
# Velocity S-wave (km/s) = 3.32707 4.04207 3.70187
# Velocity P-wave (km/s) = 5.71119 6.82158 6.29093
#
# Compressibility (1/GPa) = 0.03315412
#
# Stress axis : x y z
#
# Youngs Moduli (GPa) = 128.98722 69.52132 38.44704
#
# Poissons Ratio (x) = 0.17119 0.12698
# Poissons Ratio (y) = 0.31762 0.06655
# Poissons Ratio (z) = 0.42603 0.12034
#
# Static dielectric constant tensor:
#      x y z
#    x 3.271100 0.000000 0.000000 
#    y 0.000000 3.133340 0.000000 
#    z 0.000000 0.000000 2.917470 
# 
# 
# High freq. dielectric constant tensor:
#      x y z
#    x 1.676540 0.000000 0.000000 
#    y 0.000000 1.640600 0.000000 
#    z 0.000000 0.000000 1.614980 
# 
# From -- ./inp_files/29255.got.cif
#   From: 2010.03.12/outbox.cif.g09.slc.cpg/sg64_15_cif.got.tgz:29255.got - 2010.04.10 20:19:32.
