data_PCOD8261433
_publ_section_title
;
Structure prediction by ZEFSAII (Michael W. Deem and Ramdas Pophale) SiO2 
 PCOD8261433
Probable space group: C M C A
;
_chemical_formula_sum "Si O2"
_cell_formula_units_Z 112
_cell_length_a 20.673362
_cell_length_b 15.880916
_cell_length_c 18.833087
_cell_angle_alpha 90.000000
_cell_angle_beta 90.000000
_cell_angle_gamma 90.000000
_cell_volume 6183.127053
_symmetry_space_group_name_H-M "C M C A"
_symmetry_group_IT_number 64
_symmetry_cell_setting 'orthorhombic'
loop_
_space_group_symop_operation_xyz
x,y,z
-x,1/2-y,1/2+z
x,-y,-z
-x,1/2+y,1/2-z
-x,-y,-z
x,1/2+y,1/2-z
-x,y,z
x,1/2-y,1/2+z
1/2+x,1/2+y,z
1/2-x,-y,1/2+z
1/2+x,1/2-y,-z
1/2-x,y,1/2-z
1/2-x,1/2-y,-z
1/2+x,y,1/2-z
1/2-x,1/2+y,z
1/2+x,-y,1/2+z
loop_
_atom_site_type_symbol
_atom_site_label
_atom_site_fract_x
_atom_site_fract_y
_atom_site_fract_z
Si Si1 0.260983 0.942160 0.942741
Si Si2 0.832076 0.808913 0.786523
Si Si3 0.199459 0.999310 0.804389
Si Si4 0.071947 0.833488 0.900591
Si Si5 0.795652 0.279479 0.863441
Si Si6 0.426572 0.529783 0.871323
Si Si7 0.648745 0.353720 0.028782
O O1 0.231049 0.002884 0.882456
O O2 0.302727 0.867714 0.906795
O O3 0.201759 0.907044 0.987980
O O4 0.301269 0.000000 0.000000
O O5 0.809892 0.904884 0.777524
O O6 0.899203 0.797131 0.827343
O O7 0.841426 0.775422 0.706350
O O8 0.776858 0.763904 0.834205
O O9 0.250000 0.044974 0.750000
O O10 0.127977 0.042727 0.808877
O O11 0.000000 0.798702 0.905697
O O12 0.076320 0.934595 0.899507
O O13 0.111713 0.799252 0.968430
O O14 0.815730 0.205020 0.914802
O O15 0.500000 0.550709 0.844796
O O16 0.407285 0.590205 0.935774
#
# Coordination Sequence:
#
# PCOD8261433 Si02
#       7
#    16  16  16  16  16  16  16
#     4  11  18  31  50  78 107 135 175 222 262 316
#     4   9  17  35  51  70 101 142 182 219 249 319
#     4  10  16  32  54  74 105 139 181 216 256 313
#     4  10  19  32  55  77 103 142 176 213 268 324
#     4  10  20  32  52  73 106 145 176 219 270 306
#     4  10  20  33  51  80 112 138 171 217 270 324
#     4  12  19  30  49  81 111 138 171 219 274 323
#
# _framework density 18.113811999999999
#
# number of rings (size 3 to 8) (size 9 to 14) (size 15 to 20)
#    0.000    1.714    8.571    1.286    0.000    1.143 
#    2.571    1.429    0.000    0.000    0.000    0.000 
#    0.000    5.714    0.000    0.000    0.000    0.000 
#
# Total GULP energy -693790.924073 kJ/mol
# GULP energy per Si atom -12389.123644 kJ/mol
# Density = 1.807258 g / cm^3
# Si number density = 18.113812 Si / 1000 Ang^3
#
#
#
# Elastic Constant Matrix: (Units=GPa)
#
#
# Indices 1 2 3 4 5 6 
#
# 1 93.5566 22.5259 62.2694 0.0000 0.0000 0.0000
# 2 22.5259 30.3556 35.6608 0.0000 0.0000 0.0000
# 3 62.2694 35.6608 141.8169 0.0000 0.0000 0.0000
# 4 0.0000 0.0000 0.0000 21.0466 0.0000 0.0000
# 5 0.0000 0.0000 0.0000 0.0000 24.8126 0.0000
# 6 0.0000 0.0000 0.0000 0.0000 0.0000 7.5009
#
#
#
# Elastic Compliance Matrix: (Units=1/GPa)
#
#
# Indices 1 2 3 4 5 6 
#
# 1 0.015623 -0.005016 -0.005598 0.000000 0.000000 0.000000
# 2 -0.005016 0.048365 -0.009959 0.000000 0.000000 0.000000
# 3 -0.005598 -0.009959 0.012014 0.000000 0.000000 0.000000
# 4 0.000000 0.000000 0.000000 0.047514 0.000000 0.000000
# 5 0.000000 0.000000 0.000000 0.000000 0.040302 0.000000
# 6 0.000000 0.000000 0.000000 0.000000 0.000000 0.133318
#
#
# Mechanical properties :
#
#
# Convention : Reuss Voigt Hill
#
# Bulk Modulus (GPa) = 28.69124 56.29349 42.49236
# Shear Modulus (GPa) = 14.28978 20.35687 17.32332
#
# Velocity S-wave (km/s) = 2.81176 3.35600 3.09586
# Velocity P-wave (km/s) = 5.13957 6.79427 6.02400
#
# Compressibility (1/GPa) = 0.03485385
#
# Stress axis : x y z
#
# Youngs Moduli (GPa) = 64.00978 20.67613 83.23833
#
# Poissons Ratio (x) = 0.10372 0.46599
# Poissons Ratio (y) = 0.32110 0.82897
# Poissons Ratio (z) = 0.35834 0.20591
#
# Static dielectric constant tensor:
#      x y z
#    x 3.362600 0.000000 0.000000 
#    y 0.000000 3.011460 0.000000 
#    z 0.000000 0.000000 3.752570 
# 
# 
# High freq. dielectric constant tensor:
#      x y z
#    x 1.675190 0.000000 0.000000 
#    y 0.000000 1.659770 0.000000 
#    z 0.000000 0.000000 1.714890 
# 
# From -- ./inp_files/34472.got.cif
#   From: 2010.03.12/outbox.cif.g09.slc.cpg/sg64_18_cif.got.tgz:34472.got - 2010.04.10 20:19:32.
