data_PCOD8261441
_publ_section_title
;
Structure prediction by ZEFSAII (Michael W. Deem and Ramdas Pophale) SiO2 
 PCOD8261441
Probable space group: C M C A
;
_chemical_formula_sum "Si O2"
_cell_formula_units_Z 112
_cell_length_a 27.484072
_cell_length_b 18.886492
_cell_length_c 10.843993
_cell_angle_alpha 90.000000
_cell_angle_beta 90.000000
_cell_angle_gamma 90.000000
_cell_volume 5628.875010
_symmetry_space_group_name_H-M "C M C A"
_symmetry_group_IT_number 64
_symmetry_cell_setting 'orthorhombic'
loop_
_space_group_symop_operation_xyz
x,y,z
-x,1/2-y,1/2+z
x,-y,-z
-x,1/2+y,1/2-z
-x,-y,-z
x,1/2+y,1/2-z
-x,y,z
x,1/2-y,1/2+z
1/2+x,1/2+y,z
1/2-x,-y,1/2+z
1/2+x,1/2-y,-z
1/2-x,y,1/2-z
1/2-x,1/2-y,-z
1/2+x,y,1/2-z
1/2-x,1/2+y,z
1/2+x,-y,1/2+z
loop_
_atom_site_type_symbol
_atom_site_label
_atom_site_fract_x
_atom_site_fract_y
_atom_site_fract_z
Si Si1 0.778669 0.165446 0.619204
Si Si2 0.945363 0.126593 0.697704
Si Si3 0.135605 0.420061 0.029334
Si Si4 0.446390 0.287971 0.878380
Si Si5 0.637184 0.329292 0.715178
Si Si6 0.886169 0.684889 0.602846
Si Si7 0.800890 0.673408 0.432442
O O1 0.750000 0.163984 0.750000
O O2 0.824563 0.112497 0.624192
O O3 0.797955 0.242155 0.582209
O O4 0.746347 0.141095 0.499757
O O5 0.917992 0.084223 0.589386
O O6 0.948543 0.209831 0.675245
O O7 0.912000 0.121710 0.820225
O O8 0.000000 0.095044 0.713436
O O9 0.149633 0.500000 0.000000
O O10 0.134857 0.376949 0.903649
O O11 0.500000 0.322455 0.877800
O O12 0.411634 0.338720 0.797093
O O13 0.427520 0.279548 0.017795
O O14 0.640750 0.245585 0.683669
O O15 0.685347 0.353242 0.794146
O O16 0.845037 0.649696 0.519771
#
# Coordination Sequence:
#
# PCOD8261441 Si02
#       7
#    16  16  16  16  16  16  16
#     4  11  22  38  59  89 111 148 193 243 302 356
#     4  10  20  34  57  85 114 153 193 234 292 348
#     4  12  25  42  56  77 120 164 200 238 277 349
#     4   9  17  29  55  89 116 143 178 241 305 348
#     4  10  19  34  52  82 116 151 185 233 288 345
#     4  10  16  33  57  87 123 141 179 241 299 352
#     4  10  20  33  63  89 115 141 180 245 314 355
#
# _framework density 19.897403000000001
#
# number of rings (size 3 to 8) (size 9 to 14) (size 15 to 20)
#    0.000    1.714    2.857    3.857    2.000    1.429 
#    2.571    0.000    0.000    2.571    0.000    5.000 
#    0.000    0.000    0.000    0.000    0.000    0.000 
#
# Total GULP energy -693949.956677 kJ/mol
# GULP energy per Si atom -12391.963512 kJ/mol
# Density = 1.985212 g / cm^3
# Si number density = 19.897403 Si / 1000 Ang^3
#
#
#
# Elastic Constant Matrix: (Units=GPa)
#
#
# Indices 1 2 3 4 5 6 
#
# 1 92.8530 15.6123 31.7415 0.0000 0.0000 0.0000
# 2 15.6123 41.3769 6.3926 0.0000 0.0000 0.0000
# 3 31.7415 6.3926 99.7703 0.0000 0.0000 0.0000
# 4 0.0000 0.0000 0.0000 11.0704 0.0000 0.0000
# 5 0.0000 0.0000 0.0000 0.0000 27.9998 0.0000
# 6 0.0000 0.0000 0.0000 0.0000 0.0000 10.8233
#
#
#
# Elastic Compliance Matrix: (Units=1/GPa)
#
#
# Indices 1 2 3 4 5 6 
#
# 1 0.012779 -0.004236 -0.003794 0.000000 0.000000 0.000000
# 2 -0.004236 0.025814 -0.000306 0.000000 0.000000 0.000000
# 3 -0.003794 -0.000306 0.011250 0.000000 0.000000 0.000000
# 4 0.000000 0.000000 0.000000 0.090331 0.000000 0.000000
# 5 0.000000 0.000000 0.000000 0.000000 0.035715 0.000000
# 6 0.000000 0.000000 0.000000 0.000000 0.000000 0.092393
#
#
# Mechanical properties :
#
#
# Convention : Reuss Voigt Hill
#
# Bulk Modulus (GPa) = 30.14779 37.94367 34.04573
# Shear Modulus (GPa) = 16.89133 21.99562 19.44347
#
# Velocity S-wave (km/s) = 2.91679 3.32844 3.12939
# Velocity P-wave (km/s) = 5.15054 5.82086 5.49593
#
# Compressibility (1/GPa) = 0.03316993
#
# Stress axis : x y z
#
# Youngs Moduli (GPa) = 78.25406 38.73937 88.89084
#
# Poissons Ratio (x) = 0.16408 0.33727
# Poissons Ratio (y) = 0.33145 0.02724
# Poissons Ratio (z) = 0.29691 0.01187
#
# Static dielectric constant tensor:
#      x y z
#    x 4.149390 0.000000 0.000000 
#    y 0.000000 2.958590 0.000000 
#    z 0.000000 0.000000 4.014350 
# 
# 
# High freq. dielectric constant tensor:
#      x y z
#    x 1.796410 0.000000 0.000000 
#    y 0.000000 1.688500 0.000000 
#    z 0.000000 0.000000 1.797960 
# 
# From -- ./inp_files/19332.got.cif
#   From: 2010.03.12/outbox.cif.g09.slc.cpg/sg64_10_cif.got.tgz:19332.got - 2010.04.10 20:19:32.
