data_PCOD8261156
_publ_section_title
;
Structure prediction by ZEFSAII (Michael W. Deem and Ramdas Pophale) SiO2 
 PCOD8261156
Probable space group: C M C M
;
_chemical_formula_sum "Si O2"
_cell_formula_units_Z 80
_cell_length_a 18.752100
_cell_length_b 22.663356
_cell_length_c 9.641988
_cell_angle_alpha 90.000000
_cell_angle_beta 90.000000
_cell_angle_gamma 90.000000
_cell_volume 4097.705265
_symmetry_space_group_name_H-M "C M C M"
_symmetry_group_IT_number 63
_symmetry_cell_setting 'orthorhombic'
loop_
_space_group_symop_operation_xyz
x,y,z
-x,-y,1/2+z
x,-y,-z
-x,y,1/2-z
-x,-y,-z
x,y,1/2-z
-x,y,z
x,-y,1/2+z
1/2+x,1/2+y,z
1/2-x,1/2-y,1/2+z
1/2+x,1/2-y,-z
1/2-x,1/2+y,1/2-z
1/2-x,1/2-y,-z
1/2+x,1/2+y,1/2-z
1/2-x,1/2+y,z
1/2+x,1/2-y,1/2+z
loop_
_atom_site_type_symbol
_atom_site_label
_atom_site_fract_x
_atom_site_fract_y
_atom_site_fract_z
Si Si1 0.581070 0.403329 0.750000
Si Si2 0.682157 0.742662 0.594563
Si Si3 0.692780 0.940358 0.584656
Si Si4 0.417035 0.542583 0.750000
Si Si5 0.421128 0.157475 0.087301
Si Si6 0.339128 0.613593 0.519444
O O1 0.500000 0.384575 0.750000
O O2 0.591996 0.473087 0.750000
O O3 0.616140 0.374189 0.882815
O O4 0.701061 0.764576 0.750000
O O5 0.750000 0.750000 0.500000
O O6 0.619039 0.783665 0.532882
O O7 0.660241 0.674535 0.602885
O O8 0.702497 0.951999 0.750000
O O9 0.623888 0.900809 0.551337
O O10 0.760578 0.906886 0.522365
O O11 0.681292 0.000000 0.500000
O O12 0.500000 0.561871 0.750000
O O13 0.377841 0.564715 0.612461
O O14 0.430640 0.163203 0.250000
O O15 0.500000 0.153160 0.017979
#
# Coordination Sequence:
#
# PCOD8261156 Si02
#       6
#     8  16  16   8  16  16
#     4  11  24  40  59  86 131 173 203 252 312 366
#     4  11  23  41  66  92 122 160 204 259 310 366
#     4  11  23  39  64  94 123 162 208 257 312 373
#     4  11  24  42  61  90 127 165 213 260 306 362
#     4   9  20  40  64  90 123 163 205 252 309 370
#     4  12  23  39  62  93 124 160 215 258 308 373
#
# _framework density 19.523122999999998
#
# number of rings (size 3 to 8) (size 9 to 14) (size 15 to 20)
#    0.000    1.200    4.000    2.400    2.800    3.600 
#    0.000    0.000    0.000    1.200    0.000    0.000 
#    0.000    0.000    0.000    0.000    0.000    0.000 
#
# Total GULP energy -496053.624153 kJ/mol
# GULP energy per Si atom -12401.340604 kJ/mol
# Density = 1.947869 g / cm^3
# Si number density = 19.523123 Si / 1000 Ang^3
#
#
#
# Elastic Constant Matrix: (Units=GPa)
#
#
# Indices 1 2 3 4 5 6 
#
# 1 162.2409 58.9053 42.4132 0.0000 0.0000 0.0000
# 2 58.9053 106.8971 20.3879 0.0000 0.0000 0.0000
# 3 42.4132 20.3879 88.4064 0.0000 0.0000 0.0000
# 4 0.0000 0.0000 0.0000 21.8783 0.0000 0.0000
# 5 0.0000 0.0000 0.0000 0.0000 41.4110 0.0000
# 6 0.0000 0.0000 0.0000 0.0000 0.0000 20.6614
#
#
#
# Elastic Compliance Matrix: (Units=1/GPa)
#
#
# Indices 1 2 3 4 5 6 
#
# 1 0.008455 -0.004064 -0.003119 0.000000 0.000000 0.000000
# 2 -0.004064 0.011739 -0.000757 0.000000 0.000000 0.000000
# 3 -0.003119 -0.000757 0.012982 0.000000 0.000000 0.000000
# 4 0.000000 0.000000 0.000000 0.045707 0.000000 0.000000
# 5 0.000000 0.000000 0.000000 0.000000 0.024148 0.000000
# 6 0.000000 0.000000 0.000000 0.000000 0.000000 0.048400
#
#
# Mechanical properties :
#
#
# Convention : Reuss Voigt Hill
#
# Bulk Modulus (GPa) = 57.82004 66.77301 62.29652
# Shear Modulus (GPa) = 28.88898 32.51265 30.70082
#
# Velocity S-wave (km/s) = 3.85090 4.08529 3.96982
# Velocity P-wave (km/s) = 7.03229 7.51858 7.27949
#
# Compressibility (1/GPa) = 0.01729504
#
# Stress axis : x y z
#
# Youngs Moduli (GPa) = 118.27957 85.18826 77.02760
#
# Poissons Ratio (x) = 0.34621 0.24024
# Poissons Ratio (y) = 0.48069 0.05834
# Poissons Ratio (z) = 0.36890 0.06452
#
# Static dielectric constant tensor:
#      x y z
#    x 3.873710 0.000000 0.000000 
#    y 0.000000 3.809200 0.000000 
#    z 0.000000 0.000000 2.420670 
# 
# 
# High freq. dielectric constant tensor:
#      x y z
#    x 1.770520 0.000000 0.000000 
#    y 0.000000 1.767220 0.000000 
#    z 0.000000 0.000000 1.751720 
# 
# From -- ./inp_files/6488.got.cif
#   From: 2010.03.12/outbox.cif.g09.slc.cpg/sg63_4_cif.got.tgz:6488.got - 2010.04.10 19:34:48.
