data_PCOD8261884
_publ_section_title
;
Structure prediction by ZEFSAII (Michael W. Deem and Ramdas Pophale) SiO2 
 PCOD8261884
Probable space group: C M C A
;
_chemical_formula_sum "Si O2"
_cell_formula_units_Z 112
_cell_length_a 27.467128
_cell_length_b 14.383522
_cell_length_c 14.237212
_cell_angle_alpha 90.000000
_cell_angle_beta 90.000000
_cell_angle_gamma 90.000000
_cell_volume 5624.752861
_symmetry_space_group_name_H-M "C M C A"
_symmetry_group_IT_number 64
_symmetry_cell_setting 'orthorhombic'
loop_
_space_group_symop_operation_xyz
x,y,z
-x,1/2-y,1/2+z
x,-y,-z
-x,1/2+y,1/2-z
-x,-y,-z
x,1/2+y,1/2-z
-x,y,z
x,1/2-y,1/2+z
1/2+x,1/2+y,z
1/2-x,-y,1/2+z
1/2+x,1/2-y,-z
1/2-x,y,1/2-z
1/2-x,1/2-y,-z
1/2+x,y,1/2-z
1/2-x,1/2+y,z
1/2+x,-y,1/2+z
loop_
_atom_site_type_symbol
_atom_site_label
_atom_site_fract_x
_atom_site_fract_y
_atom_site_fract_z
Si Si1 0.751159 0.739042 0.144594
Si Si2 0.155600 0.845865 0.343697
Si Si3 0.392235 0.785355 0.520564
Si Si4 0.055414 0.442807 0.593366
Si Si5 0.362821 0.534955 0.244752
Si Si6 0.193589 0.080032 0.069846
Si Si7 0.141226 0.768966 0.665514
O O1 0.750000 0.698345 0.250000
O O2 0.713490 0.826272 0.140064
O O3 0.736041 0.656949 0.073834
O O4 0.806773 0.764378 0.119826
O O5 0.125214 0.812086 0.434177
O O6 0.133003 0.782314 0.262491
O O7 0.145120 0.951494 0.318106
O O8 0.439956 0.831650 0.567886
O O9 0.354894 0.870578 0.534506
O O10 0.399211 0.763359 0.410017
O O11 0.070523 0.500000 0.500000
O O12 0.087692 0.473208 0.683671
O O13 0.000000 0.463152 0.622157
O O14 0.317116 0.538161 0.173403
O O15 0.362946 0.622365 0.314337
O O16 0.211391 0.000000 0.000000
#
# Coordination Sequence:
#
# PCOD8261884 Si02
#       7
#    16  16  16  16  16  16  16
#     4   9  18  37  47  77 118 152 203 249 277 331
#     4  10  20  36  56  82 117 164 199 242 289 351
#     4  10  20  37  57  80 119 154 187 238 304 344
#     4  10  20  39  67  94 112 137 199 253 291 361
#     4  11  20  37  60  82 119 160 189 241 309 340
#     4  10  18  34  54  78 107 154 205 246 284 329
#     4  11  20  38  56  79 122 160 197 247 284 351
#
# _framework density 19.911985999999999
#
# number of rings (size 3 to 8) (size 9 to 14) (size 15 to 20)
#    0.000    1.857    5.714    3.429    0.000    2.857 
#   12.857    1.429    0.000    0.000    0.000    2.000 
#    0.000    0.000    0.000    0.000    0.000    0.000 
#
# Total GULP energy -694026.756665 kJ/mol
# GULP energy per Si atom -12393.334940 kJ/mol
# Density = 1.986667 g / cm^3
# Si number density = 19.911986 Si / 1000 Ang^3
#
#
#
# Elastic Constant Matrix: (Units=GPa)
#
#
# Indices 1 2 3 4 5 6 
#
# 1 53.4571 3.6651 11.2957 0.0000 0.0000 0.0000
# 2 3.6651 97.5050 18.3434 0.0000 0.0000 0.0000
# 3 11.2957 18.3434 52.2868 0.0000 0.0000 0.0000
# 4 0.0000 0.0000 0.0000 38.5525 0.0000 0.0000
# 5 0.0000 0.0000 0.0000 0.0000 7.7508 0.0000
# 6 0.0000 0.0000 0.0000 0.0000 0.0000 13.2903
#
#
#
# Elastic Compliance Matrix: (Units=1/GPa)
#
#
# Indices 1 2 3 4 5 6 
#
# 1 0.019602 0.000064 -0.004257 0.000000 0.000000 0.000000
# 2 0.000064 0.010981 -0.003866 0.000000 0.000000 0.000000
# 3 -0.004257 -0.003866 0.021401 0.000000 0.000000 0.000000
# 4 0.000000 0.000000 0.000000 0.025939 0.000000 0.000000
# 5 0.000000 0.000000 0.000000 0.000000 0.129019 0.000000
# 6 0.000000 0.000000 0.000000 0.000000 0.000000 0.075243
#
#
# Mechanical properties :
#
#
# Convention : Reuss Voigt Hill
#
# Bulk Modulus (GPa) = 27.88199 29.98415 28.93307
# Shear Modulus (GPa) = 16.11562 23.24836 19.68199
#
# Velocity S-wave (km/s) = 2.84798 3.42066 3.14737
# Velocity P-wave (km/s) = 4.98474 5.54006 5.26972
#
# Compressibility (1/GPa) = 0.03586545
#
# Stress axis : x y z
#
# Youngs Moduli (GPa) = 51.01588 91.06799 46.72612
#
# Poissons Ratio (x) = -0.00584 0.19892
# Poissons Ratio (y) = -0.00327 0.18065
# Poissons Ratio (z) = 0.21718 0.35208
#
# Static dielectric constant tensor:
#      x y z
#    x 3.515230 0.000000 0.000000 
#    y 0.000000 3.593470 0.000000 
#    z 0.000000 0.000000 3.626910 
# 
# 
# High freq. dielectric constant tensor:
#      x y z
#    x 1.732660 0.000000 0.000000 
#    y 0.000000 1.769470 0.000000 
#    z 0.000000 0.000000 1.781680 
# 
# From -- ./inp_files/28469.got.cif
#   From: 2010.03.12/outbox.cif.g09.slc.cpg/sg64_15_cif.got.tgz:28469.got - 2010.04.10 20:19:32.
