data_PCOD8261920
_publ_section_title
;
Structure prediction by ZEFSAII (Michael W. Deem and Ramdas Pophale) SiO2 
 PCOD8261920
Probable space group: C M C A
;
_chemical_formula_sum "Si O2"
_cell_formula_units_Z 96
_cell_length_a 17.073749
_cell_length_b 21.207438
_cell_length_c 13.901601
_cell_angle_alpha 90.000000
_cell_angle_beta 90.000000
_cell_angle_gamma 90.000000
_cell_volume 5033.637286
_symmetry_space_group_name_H-M "C M C A"
_symmetry_group_IT_number 64
_symmetry_cell_setting 'orthorhombic'
loop_
_space_group_symop_operation_xyz
x,y,z
-x,1/2-y,1/2+z
x,-y,-z
-x,1/2+y,1/2-z
-x,-y,-z
x,1/2+y,1/2-z
-x,y,z
x,1/2-y,1/2+z
1/2+x,1/2+y,z
1/2-x,-y,1/2+z
1/2+x,1/2-y,-z
1/2-x,y,1/2-z
1/2-x,1/2-y,-z
1/2+x,y,1/2-z
1/2-x,1/2+y,z
1/2+x,-y,1/2+z
loop_
_atom_site_type_symbol
_atom_site_label
_atom_site_fract_x
_atom_site_fract_y
_atom_site_fract_z
Si Si1 0.712717 0.108799 0.652502
Si Si2 0.307839 0.967062 0.666036
Si Si3 0.591416 0.827415 0.875841
Si Si4 0.313428 0.067731 0.015272
Si Si5 0.091188 0.147411 0.166187
Si Si6 0.407151 0.806565 0.460935
O O1 0.750000 0.137501 0.750000
O O2 0.788101 0.101837 0.583062
O O3 0.643199 0.152081 0.612901
O O4 0.672635 0.040932 0.673589
O O5 0.250000 0.945262 0.750000
O O6 0.268155 0.949122 0.566036
O O7 0.386816 0.926372 0.671814
O O8 0.500000 0.842445 0.877369
O O9 0.632397 0.887357 0.922616
O O10 0.619835 0.818381 0.764663
O O11 0.611610 0.765789 0.937082
O O12 0.357571 0.000000 0.000000
O O13 0.000000 0.152142 0.156986
O O14 0.124381 0.181155 0.069765
O O15 0.500000 0.821492 0.447881
#
# Coordination Sequence:
#
# PCOD8261920 Si02
#       6
#    16  16  16  16  16  16
#     4  10  22  37  55  86 121 149 188 237 286 344
#     4  10  18  35  59  84 113 146 186 237 289 336
#     4  10  22  39  59  85 117 153 196 237 281 345
#     4  10  20  36  58  83 113 149 189 238 287 330
#     4  10  20  36  60  85 111 150 196 236 283 344
#     4  10  22  40  59  84 118 153 189 237 290 339
#
# _framework density 19.071695999999999
#
# number of rings (size 3 to 8) (size 9 to 14) (size 15 to 20)
#    0.000    2.000    3.333    0.000    0.000    3.000 
#    3.000    4.167    0.000    0.000    0.000    0.000 
#    0.000    0.000    0.000    0.000    0.000    0.000 
#
# Total GULP energy -594959.794692 kJ/mol
# GULP energy per Si atom -12394.995723 kJ/mol
# Density = 1.902829 g / cm^3
# Si number density = 19.071696 Si / 1000 Ang^3
#
#
#
# Elastic Constant Matrix: (Units=GPa)
#
#
# Indices 1 2 3 4 5 6 
#
# 1 31.5162 38.2421 37.7594 0.0000 0.0000 0.0000
# 2 38.2421 107.0466 51.1383 0.0000 0.0000 0.0000
# 3 37.7594 51.1383 145.5508 0.0000 0.0000 0.0000
# 4 0.0000 0.0000 0.0000 30.3906 0.0000 0.0000
# 5 0.0000 0.0000 0.0000 0.0000 29.6175 0.0000
# 6 0.0000 0.0000 0.0000 0.0000 0.0000 30.3861
#
#
#
# Elastic Compliance Matrix: (Units=1/GPa)
#
#
# Indices 1 2 3 4 5 6 
#
# 1 0.067944 -0.019050 -0.010933 0.000000 0.000000 0.000000
# 2 -0.019050 0.016567 -0.000879 0.000000 0.000000 0.000000
# 3 -0.010933 -0.000879 0.010016 0.000000 0.000000 0.000000
# 4 0.000000 0.000000 0.000000 0.032905 0.000000 0.000000
# 5 0.000000 0.000000 0.000000 0.000000 0.033764 0.000000
# 6 0.000000 0.000000 0.000000 0.000000 0.000000 0.032910
#
#
# Mechanical properties :
#
#
# Convention : Reuss Voigt Hill
#
# Bulk Modulus (GPa) = 30.48509 59.82149 45.15329
# Shear Modulus (GPa) = 18.74322 28.54375 23.64349
#
# Velocity S-wave (km/s) = 3.13833 3.87286 3.52478
# Velocity P-wave (km/s) = 5.39919 7.17171 6.34763
#
# Compressibility (1/GPa) = 0.03280293
#
# Stress axis : x y z
#
# Youngs Moduli (GPa) = 14.71800 60.36103 99.84464
#
# Poissons Ratio (x) = 1.14986 1.09163
# Poissons Ratio (y) = 0.28037 0.08774
# Poissons Ratio (z) = 0.16092 0.05304
#
# Static dielectric constant tensor:
#      x y z
#    x 3.185870 0.000000 0.000000 
#    y 0.000000 3.494030 0.000000 
#    z 0.000000 0.000000 4.113380 
# 
# 
# High freq. dielectric constant tensor:
#      x y z
#    x 1.715390 0.000000 0.000000 
#    y 0.000000 1.737000 0.000000 
#    z 0.000000 0.000000 1.764890 
# 
# From -- ./inp_files/17387.got.cif
#   From: 2010.03.12/outbox.cif.g09.slc.cpg/sg64_9_cif.got.tgz:17387.got - 2010.04.10 20:19:32.
