data_PCOD8261138
_publ_section_title
;
Structure prediction by ZEFSAII (Michael W. Deem and Ramdas Pophale) SiO2 
 PCOD8261138
Probable space group: C M C M
;
_chemical_formula_sum "Si O2"
_cell_formula_units_Z 80
_cell_length_a 18.342178
_cell_length_b 25.763538
_cell_length_c 9.274495
_cell_angle_alpha 90.000000
_cell_angle_beta 90.000000
_cell_angle_gamma 90.000000
_cell_volume 4382.749792
_symmetry_space_group_name_H-M "C M C M"
_symmetry_group_IT_number 63
_symmetry_cell_setting 'orthorhombic'
loop_
_space_group_symop_operation_xyz
x,y,z
-x,-y,1/2+z
x,-y,-z
-x,y,1/2-z
-x,-y,-z
x,y,1/2-z
-x,y,z
x,-y,1/2+z
1/2+x,1/2+y,z
1/2-x,1/2-y,1/2+z
1/2+x,1/2-y,-z
1/2-x,1/2+y,1/2-z
1/2-x,1/2-y,-z
1/2+x,1/2+y,1/2-z
1/2-x,1/2+y,z
1/2+x,1/2-y,1/2+z
loop_
_atom_site_type_symbol
_atom_site_label
_atom_site_fract_x
_atom_site_fract_y
_atom_site_fract_z
Si Si1 0.914772 0.662478 0.082478
Si Si2 0.413562 0.953163 0.908481
Si Si3 0.416002 0.649734 0.416706
Si Si4 0.173882 0.748215 0.920125
Si Si5 0.586834 0.450665 0.413066
O O1 0.893055 0.670866 0.250000
O O2 0.894375 0.604000 0.031486
O O3 0.000000 0.673190 0.061744
O O4 0.871232 0.699773 0.977836
O O5 0.379983 0.958836 0.750000
O O6 0.500000 0.959106 0.901822
O O7 0.378452 0.000000 0.000000
O O8 0.406865 0.634494 0.250000
O O9 0.500000 0.662120 0.453176
O O10 0.369519 0.699728 0.458664
O O11 0.385918 0.601881 0.510547
O O12 0.185627 0.742084 0.750000
O O13 0.250000 0.750000 0.000000
O O14 0.618329 0.500000 0.500000
O O15 0.616819 0.452156 0.250000
O O16 0.500000 0.452403 0.414793
#
# Coordination Sequence:
#
# PCOD8261138 Si02
#       5
#    16  16  16  16  16
#     4   9  18  33  53  77 105 135 168 209 255 301
#     4   8  14  25  43  70 102 132 161 197 243 292
#     4   9  18  33  52  74 100 129 164 207 251 296
#     4  11  23  37  53  73 100 135 173 213 258 305
#     4   9  16  26  44  72 103 132 161 196 241 292
#
# _framework density 18.25338
#
# number of rings (size 3 to 8) (size 9 to 14) (size 15 to 20)
#    0.000    2.800    0.000    3.000    0.000    6.000 
#    0.000    4.000    0.000    1.200    0.000    5.600 
#    0.000    0.000    0.000    0.000    0.000    0.000 
#
# Total GULP energy -495890.728521 kJ/mol
# GULP energy per Si atom -12397.268213 kJ/mol
# Density = 1.821183 g / cm^3
# Si number density = 18.253380 Si / 1000 Ang^3
#
#
#
# Elastic Constant Matrix: (Units=GPa)
#
#
# Indices 1 2 3 4 5 6 
#
# 1 52.9963 54.7398 44.8437 0.0000 0.0000 0.0000
# 2 54.7398 181.6483 98.5818 0.0000 0.0000 0.0000
# 3 44.8437 98.5818 116.3944 0.0000 0.0000 0.0000
# 4 0.0000 0.0000 0.0000 42.0435 0.0000 0.0000
# 5 0.0000 0.0000 0.0000 0.0000 22.1965 0.0000
# 6 0.0000 0.0000 0.0000 0.0000 0.0000 -3.6768
#
#
#
# Elastic Compliance Matrix: (Units=1/GPa)
#
#
# Indices 1 2 3 4 5 6 
#
# 1 0.030434 -0.005196 -0.007324 0.000000 0.000000 0.000000
# 2 -0.005196 0.011075 -0.007378 0.000000 0.000000 0.000000
# 3 -0.007324 -0.007378 0.017663 0.000000 0.000000 0.000000
# 4 0.000000 0.000000 0.000000 0.023785 0.000000 0.000000
# 5 0.000000 0.000000 0.000000 0.000000 0.045052 0.000000
# 6 0.000000 0.000000 0.000000 0.000000 0.000000 -0.271979
#
#
# Mechanical properties :
#
#
# Convention : Reuss Voigt Hill
#
# Bulk Modulus (GPa) = 51.61582 83.04106 67.32844
# Shear Modulus (GPa) = -51.17021 22.30422 -14.43300
#
# Velocity S-wave (km/s) = -5.30039 3.49939 -2.81499
# Velocity P-wave (km/s) = 3.01994 7.86892 5.13809
#
# Compressibility (1/GPa) = 0.01937391
#
# Stress axis : x y z
#
# Youngs Moduli (GPa) = 32.85777 90.29007 56.61674
#
# Poissons Ratio (x) = 0.46918 0.41468
# Poissons Ratio (y) = 0.17074 0.41774
# Poissons Ratio (z) = 0.24066 0.66620
#
# Static dielectric constant tensor:
#      x y z
#    x 2.919440 0.000000 0.000000 
#    y 0.000000 3.585600 0.000000 
#    z 0.000000 0.000000 3.557460 
# 
# 
# High freq. dielectric constant tensor:
#      x y z
#    x 1.657400 0.000000 0.000000 
#    y 0.000000 1.725020 0.000000 
#    z 0.000000 0.000000 1.711380 
# 
# From -- ./inp_files/6380.got.cif
#   From: 2010.03.12/outbox.cif.g09.slc.cpg/sg63_4_cif.got.tgz:6380.got - 2010.04.10 19:34:48.
