data_PCOD8261298
_publ_section_title
;
Structure prediction by ZEFSAII (Michael W. Deem and Ramdas Pophale) SiO2 
 PCOD8261298
Probable space group: C M C M
;
_chemical_formula_sum "Si O2"
_cell_formula_units_Z 112
_cell_length_a 9.553412
_cell_length_b 25.761345
_cell_length_c 26.887991
_cell_angle_alpha 90.000000
_cell_angle_beta 90.000000
_cell_angle_gamma 90.000000
_cell_volume 6617.369652
_symmetry_space_group_name_H-M "C M C M"
_symmetry_group_IT_number 63
_symmetry_cell_setting 'orthorhombic'
loop_
_space_group_symop_operation_xyz
x,y,z
-x,-y,1/2+z
x,-y,-z
-x,y,1/2-z
-x,-y,-z
x,y,1/2-z
-x,y,z
x,-y,1/2+z
1/2+x,1/2+y,z
1/2-x,1/2-y,1/2+z
1/2+x,1/2-y,-z
1/2-x,1/2+y,1/2-z
1/2-x,1/2-y,-z
1/2+x,1/2+y,1/2-z
1/2-x,1/2+y,z
1/2+x,1/2-y,1/2+z
loop_
_atom_site_type_symbol
_atom_site_label
_atom_site_fract_x
_atom_site_fract_y
_atom_site_fract_z
Si Si1 0.837183 0.234187 0.692106
Si Si2 0.657100 0.172895 0.128246
Si Si3 0.832888 0.435282 0.596492
Si Si4 0.333624 0.908747 0.011478
Si Si5 0.163932 0.633354 0.692561
Si Si6 0.343771 0.203066 0.015301
Si Si7 0.666135 0.951851 0.114600
O O1 0.817948 0.244132 0.750000
O O2 0.771259 0.285156 0.665022
O O3 0.749554 0.183861 0.675296
O O4 0.000000 0.225107 0.677713
O O5 0.500000 0.165691 0.148225
O O6 0.728682 0.115232 0.126130
O O7 0.659043 0.197294 0.074067
O O8 0.778988 0.436654 0.539047
O O9 0.785803 0.488410 0.623824
O O10 0.000000 0.428896 0.594989
O O11 0.500000 0.912646 0.012324
O O12 0.270115 0.934148 0.061393
O O13 0.286013 0.848846 0.010855
O O14 0.194598 0.619493 0.750000
O O15 0.218149 0.584808 0.659461
O O16 0.000000 0.644375 0.683782
O O17 0.500000 0.214628 0.996543
O O18 0.250000 0.250000 0.000000
O O19 0.500000 0.949484 0.111803
#
# Coordination Sequence:
#
# PCOD8261298 Si02
#       7
#    16  16  16  16  16  16  16
#     4   9  17  30  47  63  81 111 148 177 205 252
#     4   8  15  27  41  59  85 110 135 175 218 245
#     4   8  13  23  38  58  85 112 135 169 214 249
#     4   8  14  23  36  57  82 108 140 172 200 241
#     4   9  18  30  42  62  91 113 133 172 219 253
#     4   9  17  27  39  58  86 113 136 169 209 247
#     4   9  15  23  39  60  83 112 142 169 205 253
#
# _framework density 16.925153999999999
#
# number of rings (size 3 to 8) (size 9 to 14) (size 15 to 20)
#    0.000    3.429    0.000    2.143    2.000    1.714 
#    0.000    0.714    0.000    4.286    0.000    5.000 
#    0.000   10.286    0.000    0.000    0.000    0.000 
#
# Total GULP energy -693802.366477 kJ/mol
# GULP energy per Si atom -12389.327973 kJ/mol
# Density = 1.688663 g / cm^3
# Si number density = 16.925154 Si / 1000 Ang^3
#
#
#
# Elastic Constant Matrix: (Units=GPa)
#
#
# Indices 1 2 3 4 5 6 
#
# 1 19.7234 29.3700 15.4406 0.0000 0.0000 0.0000
# 2 29.3700 176.4561 79.2855 0.0000 0.0000 0.0000
# 3 15.4406 79.2855 70.3175 0.0000 0.0000 0.0000
# 4 0.0000 0.0000 0.0000 32.8350 0.0000 0.0000
# 5 0.0000 0.0000 0.0000 0.0000 10.6987 0.0000
# 6 0.0000 0.0000 0.0000 0.0000 0.0000 19.3290
#
#
#
# Elastic Compliance Matrix: (Units=1/GPa)
#
#
# Indices 1 2 3 4 5 6 
#
# 1 0.068075 -0.009352 -0.004403 0.000000 0.000000 0.000000
# 2 -0.009352 0.012771 -0.012347 0.000000 0.000000 0.000000
# 3 -0.004403 -0.012347 0.029109 0.000000 0.000000 0.000000
# 4 0.000000 0.000000 0.000000 0.030455 0.000000 0.000000
# 5 0.000000 0.000000 0.000000 0.000000 0.093470 0.000000
# 6 0.000000 0.000000 0.000000 0.000000 0.000000 0.051736
#
#
# Mechanical properties :
#
#
# Convention : Reuss Voigt Hill
#
# Bulk Modulus (GPa) = 17.31563 57.18770 37.25166
# Shear Modulus (GPa) = 14.00285 22.06592 18.03439
#
# Velocity S-wave (km/s) = 2.87947 3.61464 3.26780
# Velocity P-wave (km/s) = 4.61607 7.16120 6.02457
#
# Compressibility (1/GPa) = 0.05775130
#
# Stress axis : x y z
#
# Youngs Moduli (GPa) = 14.68978 78.30069 34.35330
#
# Poissons Ratio (x) = 0.73227 0.15127
# Poissons Ratio (y) = 0.13738 0.42414
# Poissons Ratio (z) = 0.06468 0.96674
#
# Static dielectric constant tensor:
#      x y z
#    x 2.663360 0.000000 0.000000 
#    y 0.000000 3.822880 0.000000 
#    z 0.000000 0.000000 2.863650 
# 
# 
# High freq. dielectric constant tensor:
#      x y z
#    x 1.580410 0.000000 0.000000 
#    y 0.000000 1.668610 0.000000 
#    z 0.000000 0.000000 1.645270 
# 
# From -- ./inp_files/68742.got.cif
#   From: 2010.03.12/outbox.cif.g09.slc.cpg/sg63_35_cif.got.tgz:68742.got - 2010.04.10 19:34:48.
