data_PCOD8261261
_publ_section_title
;
Structure prediction by ZEFSAII (Michael W. Deem and Ramdas Pophale) SiO2 
 PCOD8261261
Probable space group: C M C M
;
_chemical_formula_sum "Si O2"
_cell_formula_units_Z 96
_cell_length_a 14.239308
_cell_length_b 23.419083
_cell_length_c 14.479766
_cell_angle_alpha 90.000000
_cell_angle_beta 90.000000
_cell_angle_gamma 90.000000
_cell_volume 4828.589808
_symmetry_space_group_name_H-M "C M C M"
_symmetry_group_IT_number 63
_symmetry_cell_setting 'orthorhombic'
loop_
_space_group_symop_operation_xyz
x,y,z
-x,-y,1/2+z
x,-y,-z
-x,y,1/2-z
-x,-y,-z
x,y,1/2-z
-x,y,z
x,-y,1/2+z
1/2+x,1/2+y,z
1/2-x,1/2-y,1/2+z
1/2+x,1/2-y,-z
1/2-x,1/2+y,1/2-z
1/2-x,1/2-y,-z
1/2+x,1/2+y,1/2-z
1/2-x,1/2+y,z
1/2+x,1/2-y,1/2+z
loop_
_atom_site_type_symbol
_atom_site_label
_atom_site_fract_x
_atom_site_fract_y
_atom_site_fract_z
Si Si1 0.610280 0.000000 0.649821
Si Si2 0.608213 0.123270 0.359261
Si Si3 0.766702 0.683463 1.000000
Si Si4 0.391787 0.876730 0.140739
Si Si5 0.389444 0.500000 0.146952
Si Si6 0.611333 0.407784 0.000000
O O1 0.659322 0.000000 0.750000
O O2 0.500000 1.000000 0.665071
O O3 0.637054 0.940156 0.600514
O O4 0.637054 0.059844 0.600514
O O5 0.624512 0.126404 0.250000
O O6 0.500000 0.136663 0.383416
O O7 0.674017 0.168812 0.408697
O O8 0.666461 0.651736 1.000000
O O9 0.750000 0.750000 0.000000
O O10 0.825983 0.668812 0.908697
O O11 0.375488 0.873596 0.250000
O O12 0.500000 0.863337 0.116584
O O13 0.344837 0.500000 0.250000
O O14 0.500000 0.500000 0.153766
O O15 0.358301 0.556441 0.091043
O O16 0.358301 0.443559 0.091043
O O17 0.500000 0.395045 1.000000
#
# Coordination Sequence:
#
# PCOD8261261 Si02
#       6
#    16  16  16  16  16  16
#     4   7  12  27  54  86 114 135 160 207 275 344
#     4   9  19  38  62  87 115 143 175 224 284 340
#     4  12  26  38  53  78 112 155 201 235 260 309
#     4   9  19  38  62  87 115 143 175 224 284 340
#     4   8  15  33  61  86 107 135 176 231 293 345
#     4   9  20  37  55  81 115 146 181 229 282 332
#
# _framework density 19.881581000000001
#
# number of rings (size 3 to 8) (size 9 to 14) (size 15 to 20)
#    0.000    3.000    0.000    3.500    0.000    6.667 
#    0.000    4.167    0.000    4.000    0.000    0.000 
#    0.000    0.000    0.000    0.000    0.000    0.000 
#
# Total GULP energy -594649.459061 kJ/mol
# GULP energy per Si atom -12388.530397 kJ/mol
# Density = 1.983633 g / cm^3
# Si number density = 19.881581 Si / 1000 Ang^3
#
#
#
# Elastic Constant Matrix: (Units=GPa)
#
#
# Indices 1 2 3 4 5 6 
#
# 1 98.6419 69.5344 39.9785 0.0000 0.0000 0.0000
# 2 69.5344 184.4031 59.9360 0.0000 0.0000 0.0000
# 3 39.9785 59.9360 121.2125 0.0000 0.0000 0.0000
# 4 0.0000 0.0000 0.0000 26.9803 0.0000 0.0000
# 5 0.0000 0.0000 0.0000 0.0000 93.7812 0.0000
# 6 0.0000 0.0000 0.0000 0.0000 0.0000 31.8229
#
#
#
# Elastic Compliance Matrix: (Units=1/GPa)
#
#
# Indices 1 2 3 4 5 6 
#
# 1 0.014398 -0.004630 -0.002460 0.000000 0.000000 0.000000
# 2 -0.004630 0.007950 -0.002404 0.000000 0.000000 0.000000
# 3 -0.002460 -0.002404 0.010250 0.000000 0.000000 0.000000
# 4 0.000000 0.000000 0.000000 0.037064 0.000000 0.000000
# 5 0.000000 0.000000 0.000000 0.000000 0.010663 0.000000
# 6 0.000000 0.000000 0.000000 0.000000 0.000000 0.031424
#
#
# Mechanical properties :
#
#
# Convention : Reuss Voigt Hill
#
# Bulk Modulus (GPa) = 73.46809 82.57279 78.02044
# Shear Modulus (GPa) = 36.96227 46.17080 41.56654
#
# Velocity S-wave (km/s) = 4.31643 4.82424 4.57738
# Velocity P-wave (km/s) = 7.86608 8.52371 8.20149
#
# Compressibility (1/GPa) = 0.01361135
#
# Stress axis : x y z
#
# Youngs Moduli (GPa) = 69.45345 125.78468 97.56182
#
# Poissons Ratio (x) = 0.58236 0.23995
# Poissons Ratio (y) = 0.32156 0.23455
# Poissons Ratio (z) = 0.17082 0.30240
#
# Static dielectric constant tensor:
#      x y z
#    x 3.454300 0.000000 0.000000 
#    y 0.000000 3.445570 0.000000 
#    z 0.000000 0.000000 3.876500 
# 
# 
# High freq. dielectric constant tensor:
#      x y z
#    x 1.776530 0.000000 0.000000 
#    y 0.000000 1.743780 0.000000 
#    z 0.000000 0.000000 1.776660 
# 
# From -- ./inp_files/31920.got.cif
#   From: 2010.03.12/outbox.cif.g09.slc.cpg/sg63_16_cif.got.tgz:31920.got - 2010.04.10 19:34:48.
