data_PCOD8261713
_publ_section_title
;
Structure prediction by ZEFSAII (Michael W. Deem and Ramdas Pophale) SiO2 
 PCOD8261713
Probable space group: C M C A
;
_chemical_formula_sum "Si O2"
_cell_formula_units_Z 96
_cell_length_a 16.309830
_cell_length_b 17.272727
_cell_length_c 19.273906
_cell_angle_alpha 90.000000
_cell_angle_beta 90.000000
_cell_angle_gamma 90.000000
_cell_volume 5429.753074
_symmetry_space_group_name_H-M "C M C A"
_symmetry_group_IT_number 64
_symmetry_cell_setting 'orthorhombic'
loop_
_space_group_symop_operation_xyz
x,y,z
-x,1/2-y,1/2+z
x,-y,-z
-x,1/2+y,1/2-z
-x,-y,-z
x,1/2+y,1/2-z
-x,y,z
x,1/2-y,1/2+z
1/2+x,1/2+y,z
1/2-x,-y,1/2+z
1/2+x,1/2-y,-z
1/2-x,y,1/2-z
1/2-x,1/2-y,-z
1/2+x,y,1/2-z
1/2-x,1/2+y,z
1/2+x,-y,1/2+z
loop_
_atom_site_type_symbol
_atom_site_label
_atom_site_fract_x
_atom_site_fract_y
_atom_site_fract_z
Si Si1 0.209827 0.552270 0.317862
Si Si2 0.731548 0.652638 0.431135
Si Si3 0.156890 0.580187 0.832233
Si Si4 0.903134 0.920216 0.183681
Si Si5 0.721606 0.332032 0.086012
Si Si6 0.590945 0.963728 0.929810
O O1 0.250000 0.593254 0.250000
O O2 0.202483 0.616306 0.377906
O O3 0.265781 0.477111 0.330602
O O4 0.119817 0.512406 0.312417
O O5 0.709335 0.740540 0.415600
O O6 0.768263 0.637320 0.507295
O O7 0.648148 0.608009 0.411723
O O8 0.123716 0.612889 0.759201
O O9 0.191843 0.653359 0.874868
O O10 0.086960 0.531784 0.872087
O O11 0.856581 0.872684 0.122757
O O12 0.000000 0.910991 0.171318
O O13 0.500000 0.930604 0.940313
O O14 0.626516 0.000000 0.000000
#
# Coordination Sequence:
#
# PCOD8261713 Si02
#       6
#    16  16  16  16  16  16
#     4   8  17  32  53  76  97 133 174 212 251 307
#     4  10  20  34  53  75 107 137 173 217 256 307
#     4   9  17  33  53  75 102 133 174 210 251 311
#     4  10  20  34  54  77 104 135 171 217 261 307
#     4  10  20  34  52  76 104 140 175 209 255 315
#     4  10  18  30  53  80 103 130 169 218 265 301
#
# _framework density 17.680361000000001
#
# number of rings (size 3 to 8) (size 9 to 14) (size 15 to 20)
#    0.000    2.500    1.667    2.000    0.000    2.000 
#    0.000    1.667    0.000    9.000    0.000    0.000 
#    0.000    0.000    0.000    0.000    0.000    0.000 
#
# Total GULP energy -594685.198787 kJ/mol
# GULP energy per Si atom -12389.274975 kJ/mol
# Density = 1.764012 g / cm^3
# Si number density = 17.680361 Si / 1000 Ang^3
#
#
#
# Elastic Constant Matrix: (Units=GPa)
#
#
# Indices 1 2 3 4 5 6 
#
# 1 89.0086 43.1951 42.4389 0.0000 0.0000 0.0000
# 2 43.1951 56.4094 45.0220 0.0000 0.0000 0.0000
# 3 42.4389 45.0220 136.2055 0.0000 0.0000 0.0000
# 4 0.0000 0.0000 0.0000 24.4072 0.0000 0.0000
# 5 0.0000 0.0000 0.0000 0.0000 20.2992 0.0000
# 6 0.0000 0.0000 0.0000 0.0000 0.0000 13.9622
#
#
#
# Elastic Compliance Matrix: (Units=1/GPa)
#
#
# Indices 1 2 3 4 5 6 
#
# 1 0.018083 -0.012701 -0.001436 0.000000 0.000000 0.000000
# 2 -0.012701 0.033001 -0.006951 0.000000 0.000000 0.000000
# 3 -0.001436 -0.006951 0.010087 0.000000 0.000000 0.000000
# 4 0.000000 0.000000 0.000000 0.040971 0.000000 0.000000
# 5 0.000000 0.000000 0.000000 0.000000 0.049263 0.000000
# 6 0.000000 0.000000 0.000000 0.000000 0.000000 0.071622
#
#
# Mechanical properties :
#
#
# Convention : Reuss Voigt Hill
#
# Bulk Modulus (GPa) = 52.64512 60.32616 56.48564
# Shear Modulus (GPa) = 18.41384 21.79824 20.10604
#
# Velocity S-wave (km/s) = 3.23071 3.51509 3.37589
# Velocity P-wave (km/s) = 6.61493 7.11821 6.87118
#
# Compressibility (1/GPa) = 0.01899511
#
# Stress axis : x y z
#
# Youngs Moduli (GPa) = 55.29985 30.30229 99.13834
#
# Poissons Ratio (x) = 0.38486 0.14238
# Poissons Ratio (y) = 0.70235 0.68910
# Poissons Ratio (z) = 0.07942 0.21063
#
# Static dielectric constant tensor:
#      x y z
#    x 3.162450 0.000000 0.000000 
#    y 0.000000 3.084350 0.000000 
#    z 0.000000 0.000000 3.634640 
# 
# 
# High freq. dielectric constant tensor:
#      x y z
#    x 1.663570 0.000000 0.000000 
#    y 0.000000 1.660610 0.000000 
#    z 0.000000 0.000000 1.700620 
# 
# From -- ./inp_files/33269.got.cif
#   From: 2010.03.12/outbox.cif.g09.slc.cpg/sg64_17_cif.got.tgz:33269.got - 2010.04.10 20:19:32.
