data_PCOD8261926
_publ_section_title
;
Structure prediction by ZEFSAII (Michael W. Deem and Ramdas Pophale) SiO2 
 PCOD8261926
Probable space group: C M C A
;
_chemical_formula_sum "Si O2"
_cell_formula_units_Z 88
_cell_length_a 19.361061
_cell_length_b 14.209609
_cell_length_c 15.591449
_cell_angle_alpha 90.000000
_cell_angle_beta 90.000000
_cell_angle_gamma 90.000000
_cell_volume 4289.411971
_symmetry_space_group_name_H-M "C M C A"
_symmetry_group_IT_number 64
_symmetry_cell_setting 'orthorhombic'
loop_
_space_group_symop_operation_xyz
x,y,z
-x,1/2-y,1/2+z
x,-y,-z
-x,1/2+y,1/2-z
-x,-y,-z
x,1/2+y,1/2-z
-x,y,z
x,1/2-y,1/2+z
1/2+x,1/2+y,z
1/2-x,-y,1/2+z
1/2+x,1/2-y,-z
1/2-x,y,1/2-z
1/2-x,1/2-y,-z
1/2+x,y,1/2-z
1/2-x,1/2+y,z
1/2+x,-y,1/2+z
loop_
_atom_site_type_symbol
_atom_site_label
_atom_site_fract_x
_atom_site_fract_y
_atom_site_fract_z
Si Si1 0.855506 0.326875 0.390508
Si Si2 0.000000 0.090208 0.440613
Si Si3 0.143275 0.119540 0.358347
Si Si4 0.500000 0.298343 0.022470
Si Si5 0.500000 0.047899 0.404484
Si Si6 0.226181 0.599756 0.461640
Si Si7 0.143585 0.023806 0.182311
O O1 0.850381 0.230670 0.335617
O O2 0.933579 0.336133 0.425306
O O3 0.801526 0.321727 0.471311
O O4 0.833536 0.414825 0.330636
O O5 0.066440 0.088937 0.380941
O O6 0.000000 0.186875 0.494549
O O7 0.000000 0.000000 0.500000
O O8 0.192410 0.103807 0.441100
O O9 0.162173 0.052946 0.279079
O O10 0.500000 0.341096 0.926860
O O11 0.436006 0.025617 0.343948
O O12 0.500000 0.000000 0.500000
O O13 0.204776 0.500000 0.500000
O O14 0.184577 0.602403 0.372414
#
# Coordination Sequence:
#
# PCOD8261926 Si02
#       7
#    16   8  16   8   8  16  16
#     4  10  20  38  61  88 115 158 197 245 287 361
#     4  10  23  42  57  79 120 165 198 231 290 361
#     4  11  23  39  57  87 124 155 194 249 302 350
#     4  10  18  35  64  89 108 145 210 240 271 351
#     4  12  17  35  65  92 112 148 195 246 294 344
#     4  10  20  38  63  84 112 158 203 238 290 360
#     4  11  21  36  60  90 120 144 193 253 303 336
#
# _framework density 20.515632
#
# number of rings (size 3 to 8) (size 9 to 14) (size 15 to 20)
#    0.000    1.455    3.636    2.727    0.000    0.000 
#    3.273    9.091    0.000    0.000    0.000    0.000 
#    0.000    0.000    0.000    0.000    0.000    0.000 
#
# Total GULP energy -545331.080601 kJ/mol
# GULP energy per Si atom -12393.888195 kJ/mol
# Density = 2.046894 g / cm^3
# Si number density = 20.515632 Si / 1000 Ang^3
#
#
#
# Elastic Constant Matrix: (Units=GPa)
#
#
# Indices 1 2 3 4 5 6 
#
# 1 110.3638 8.8223 33.8182 0.0000 0.0000 0.0000
# 2 8.8223 116.9498 55.7347 0.0000 0.0000 0.0000
# 3 33.8182 55.7347 95.6528 0.0000 0.0000 0.0000
# 4 0.0000 0.0000 0.0000 33.0524 0.0000 0.0000
# 5 0.0000 0.0000 0.0000 0.0000 21.3390 0.0000
# 6 0.0000 0.0000 0.0000 0.0000 0.0000 19.6192
#
#
#
# Elastic Compliance Matrix: (Units=1/GPa)
#
#
# Indices 1 2 3 4 5 6 
#
# 1 0.010309 0.001328 -0.004418 0.000000 0.000000 0.000000
# 2 0.001328 0.012009 -0.007467 0.000000 0.000000 0.000000
# 3 -0.004418 -0.007467 0.016367 0.000000 0.000000 0.000000
# 4 0.000000 0.000000 0.000000 0.030255 0.000000 0.000000
# 5 0.000000 0.000000 0.000000 0.000000 0.046863 0.000000
# 6 0.000000 0.000000 0.000000 0.000000 0.000000 0.050970
#
#
# Mechanical properties :
#
#
# Convention : Reuss Voigt Hill
#
# Bulk Modulus (GPa) = 56.91367 57.74632 57.33000
# Shear Modulus (GPa) = 25.80717 29.77487 27.79102
#
# Velocity S-wave (km/s) = 3.55057 3.81376 3.68452
# Velocity P-wave (km/s) = 6.67912 6.89939 6.79015
#
# Compressibility (1/GPa) = 0.01757047
#
# Stress axis : x y z
#
# Youngs Moduli (GPa) = 97.00535 83.27089 61.09692
#
# Poissons Ratio (x) = -0.11059 0.26996
# Poissons Ratio (y) = -0.12883 0.45621
# Poissons Ratio (z) = 0.42862 0.62178
#
# Static dielectric constant tensor:
#      x y z
#    x 3.834540 0.000000 0.000000 
#    y 0.000000 3.858810 0.000000 
#    z 0.000000 0.000000 3.442300 
# 
# 
# High freq. dielectric constant tensor:
#      x y z
#    x 1.816370 0.000000 0.000000 
#    y 0.000000 1.805770 0.000000 
#    z 0.000000 0.000000 1.771300 
# 
# From -- ./inp_files/26272.got.cif
#   From: 2010.03.12/outbox.cif.g09.slc.cpg/sg64_14_cif.got.tgz:26272.got - 2010.04.10 20:19:32.
