data_PCOD8261274
_publ_section_title
;
Structure prediction by ZEFSAII (Michael W. Deem and Ramdas Pophale) SiO2 
 PCOD8261274
Probable space group: C M C M
;
_chemical_formula_sum "Si O2"
_cell_formula_units_Z 80
_cell_length_a 9.394852
_cell_length_b 27.389472
_cell_length_c 18.700275
_cell_angle_alpha 90.000000
_cell_angle_beta 90.000000
_cell_angle_gamma 90.000000
_cell_volume 4811.955432
_symmetry_space_group_name_H-M "C M C M"
_symmetry_group_IT_number 63
_symmetry_cell_setting 'orthorhombic'
loop_
_space_group_symop_operation_xyz
x,y,z
-x,-y,1/2+z
x,-y,-z
-x,y,1/2-z
-x,-y,-z
x,y,1/2-z
-x,y,z
x,-y,1/2+z
1/2+x,1/2+y,z
1/2-x,1/2-y,1/2+z
1/2+x,1/2-y,-z
1/2-x,1/2+y,1/2-z
1/2-x,1/2-y,-z
1/2+x,1/2+y,1/2-z
1/2-x,1/2+y,z
1/2+x,1/2-y,1/2+z
loop_
_atom_site_type_symbol
_atom_site_label
_atom_site_fract_x
_atom_site_fract_y
_atom_site_fract_z
Si Si1 0.169036 0.319430 0.250000
Si Si2 0.168859 0.573629 0.466149
Si Si3 0.830786 0.521906 0.607051
Si Si4 0.329669 0.070335 0.750000
Si Si5 0.665665 0.766653 0.393122
Si Si6 0.165960 0.317755 0.540961
O O1 0.229452 0.374476 0.250000
O O2 0.223605 0.291814 0.320907
O O3 0.000000 0.321690 0.250000
O O4 0.215585 0.534622 0.405328
O O5 0.228607 0.555447 0.542665
O O6 0.226756 0.627486 0.447962
O O7 0.000000 0.576503 0.471817
O O8 0.767869 0.541916 0.681192
O O9 0.000000 0.525177 0.607988
O O10 0.500000 0.070264 0.750000
O O11 0.500000 0.753776 0.386680
O O12 0.749943 0.716434 0.404192
O O13 0.694893 0.803095 0.458859
O O14 0.000000 0.313641 0.559660
#
# Coordination Sequence:
#
# PCOD8261274 Si02
#       6
#     8  16  16   8  16  16
#     4   9  16  26  40  57  79 107 137 169 204 239
#     4   8  13  22  35  52  76 104 128 154 194 239
#     4   8  13  20  32  52  76  99 126 159 195 236
#     4   9  14  20  33  53  75  99 127 161 198 233
#     4   9  17  28  42  60  81 106 138 172 202 235
#     4   9  16  27  43  61  82 108 136 166 201 240
#
# _framework density 16.625259
#
# number of rings (size 3 to 8) (size 9 to 14) (size 15 to 20)
#    0.000    3.400    0.000    2.400    0.000    4.800 
#    0.000    1.500    0.000    2.400    0.000    2.800 
#    0.000    3.200    0.000    0.400    0.000    0.000 
#
# Total GULP energy -495762.009217 kJ/mol
# GULP energy per Si atom -12394.050230 kJ/mol
# Density = 1.658742 g / cm^3
# Si number density = 16.625259 Si / 1000 Ang^3
#
#
#
# Elastic Constant Matrix: (Units=GPa)
#
#
# Indices 1 2 3 4 5 6 
#
# 1 15.1482 27.2614 17.9444 0.0000 0.0000 0.0000
# 2 27.2614 186.5713 86.7207 0.0000 0.0000 0.0000
# 3 17.9444 86.7207 131.1915 0.0000 0.0000 0.0000
# 4 0.0000 0.0000 0.0000 26.3595 0.0000 0.0000
# 5 0.0000 0.0000 0.0000 0.0000 11.5262 0.0000
# 6 0.0000 0.0000 0.0000 0.0000 0.0000 18.1213
#
#
#
# Elastic Compliance Matrix: (Units=1/GPa)
#
#
# Indices 1 2 3 4 5 6 
#
# 1 0.092091 -0.010973 -0.005343 0.000000 0.000000 0.000000
# 2 -0.010973 0.009045 -0.004478 0.000000 0.000000 0.000000
# 3 -0.005343 -0.004478 0.011313 0.000000 0.000000 0.000000
# 4 0.000000 0.000000 0.000000 0.037937 0.000000 0.000000
# 5 0.000000 0.000000 0.000000 0.000000 0.086759 0.000000
# 6 0.000000 0.000000 0.000000 0.000000 0.000000 0.055184
#
#
# Mechanical properties :
#
#
# Convention : Reuss Voigt Hill
#
# Bulk Modulus (GPa) = 14.11202 66.30712 40.20957
# Shear Modulus (GPa) = 13.98464 24.60037 19.29250
#
# Velocity S-wave (km/s) = 2.90344 3.85086 3.41021
# Velocity P-wave (km/s) = 4.44372 7.72930 6.30431
#
# Compressibility (1/GPa) = 0.07086159
#
# Stress axis : x y z
#
# Youngs Moduli (GPa) = 10.85885 110.56415 88.39229
#
# Poissons Ratio (x) = 1.21318 0.47228
# Poissons Ratio (y) = 0.11915 0.39580
# Poissons Ratio (z) = 0.05802 0.49509
#
# Static dielectric constant tensor:
#      x y z
#    x 2.515220 0.000000 0.000000 
#    y 0.000000 3.418360 0.000000 
#    z 0.000000 0.000000 3.240940 
# 
# 
# High freq. dielectric constant tensor:
#      x y z
#    x 1.568960 0.000000 0.000000 
#    y 0.000000 1.653560 0.000000 
#    z 0.000000 0.000000 1.635110 
# 
# From -- ./inp_files/42415.got.cif
#   From: 2010.03.12/outbox.cif.g09.slc.cpg/sg63_22_cif.got.tgz:42415.got - 2010.04.10 19:34:48.
