data_PCOD8261367
_publ_section_title
;
Structure prediction by ZEFSAII (Michael W. Deem and Ramdas Pophale) SiO2 
 PCOD8261367
Probable space group: C M C M
;
_chemical_formula_sum "Si O2"
_cell_formula_units_Z 96
_cell_length_a 29.375062
_cell_length_b 10.747141
_cell_length_c 17.154475
_cell_angle_alpha 90.000000
_cell_angle_beta 90.000000
_cell_angle_gamma 90.000000
_cell_volume 5415.632303
_symmetry_space_group_name_H-M "C M C M"
_symmetry_group_IT_number 63
_symmetry_cell_setting 'orthorhombic'
loop_
_space_group_symop_operation_xyz
x,y,z
-x,-y,1/2+z
x,-y,-z
-x,y,1/2-z
-x,-y,-z
x,y,1/2-z
-x,y,z
x,-y,1/2+z
1/2+x,1/2+y,z
1/2-x,1/2-y,1/2+z
1/2+x,1/2-y,-z
1/2-x,1/2+y,1/2-z
1/2-x,1/2-y,-z
1/2+x,1/2+y,1/2-z
1/2-x,1/2+y,z
1/2+x,1/2-y,1/2+z
loop_
_atom_site_type_symbol
_atom_site_label
_atom_site_fract_x
_atom_site_fract_y
_atom_site_fract_z
Si Si1 0.126480 0.688862 0.446699
Si Si2 0.552116 0.638295 0.493531
Si Si3 0.271344 0.966852 0.162738
Si Si4 0.130982 0.419969 0.109359
Si Si5 0.210417 0.259105 0.844381
Si Si6 0.449606 0.233515 0.664766
O O1 0.081307 0.772694 0.450547
O O2 0.113048 0.555787 0.412876
O O3 0.144201 0.665558 0.534891
O O4 0.163126 0.755672 0.390799
O O5 0.571225 0.500000 0.500000
O O6 0.500000 0.649714 0.521629
O O7 0.557817 0.665871 0.402119
O O8 0.253740 0.973568 0.250000
O O9 0.323809 0.926075 0.160978
O O10 0.240591 0.857550 0.124438
O O11 0.266730 0.107933 0.128122
O O12 0.089414 0.369336 0.159825
O O13 0.202974 0.260381 0.750000
O O14 0.445921 0.297977 0.750000
O O15 0.500000 0.172144 0.654868
#
# Coordination Sequence:
#
# PCOD8261367 Si02
#       6
#    16  16  16  16  16  16
#     4   9  18  32  49  71  97 126 163 202 247 297
#     4   9  18  34  53  72 101 137 169 203 246 298
#     4   9  17  31  49  68  96 130 164 202 250 302
#     4   9  17  30  50  72  97 127 160 201 249 301
#     4   9  18  33  50  69  96 129 164 206 253 301
#     4   9  17  30  50  76 101 126 162 206 249 295
#
# _framework density 17.726462999999999
#
# number of rings (size 3 to 8) (size 9 to 14) (size 15 to 20)
#    0.000    3.000    0.000    0.500    0.000    2.000 
#    6.000    4.167    0.000    1.500    0.000    0.000 
#    0.000    0.000    0.000    0.000    0.000    0.000 
#
# Total GULP energy -594635.827537 kJ/mol
# GULP energy per Si atom -12388.246407 kJ/mol
# Density = 1.768612 g / cm^3
# Si number density = 17.726463 Si / 1000 Ang^3
#
#
#
# Elastic Constant Matrix: (Units=GPa)
#
#
# Indices 1 2 3 4 5 6 
#
# 1 94.2246 64.3480 39.6615 0.0000 0.0000 0.0000
# 2 64.3480 101.0840 33.6578 0.0000 0.0000 0.0000
# 3 39.6615 33.6578 61.7969 0.0000 0.0000 0.0000
# 4 0.0000 0.0000 0.0000 13.8159 0.0000 0.0000
# 5 0.0000 0.0000 0.0000 0.0000 27.6450 0.0000
# 6 0.0000 0.0000 0.0000 0.0000 0.0000 32.9186
#
#
#
# Elastic Compliance Matrix: (Units=1/GPa)
#
#
# Indices 1 2 3 4 5 6 
#
# 1 0.021418 -0.011064 -0.007720 0.000000 0.000000 0.000000
# 2 -0.011064 0.017799 -0.002594 0.000000 0.000000 0.000000
# 3 -0.007720 -0.002594 0.022550 0.000000 0.000000 0.000000
# 4 0.000000 0.000000 0.000000 0.072380 0.000000 0.000000
# 5 0.000000 0.000000 0.000000 0.000000 0.036173 0.000000
# 6 0.000000 0.000000 0.000000 0.000000 0.000000 0.030378
#
#
# Mechanical properties :
#
#
# Convention : Reuss Voigt Hill
#
# Bulk Modulus (GPa) = 52.59957 59.16002 55.87979
# Shear Modulus (GPa) = 20.01666 22.83845 21.42756
#
# Velocity S-wave (km/s) = 3.36400 3.59330 3.48054
# Velocity P-wave (km/s) = 6.69522 7.11773 6.90970
#
# Compressibility (1/GPa) = 0.01901156
#
# Stress axis : x y z
#
# Youngs Moduli (GPa) = 46.68879 56.18169 44.34653
#
# Poissons Ratio (x) = 0.62159 0.34238
# Poissons Ratio (y) = 0.51656 0.11502
# Poissons Ratio (z) = 0.36046 0.14572
#
# Static dielectric constant tensor:
#      x y z
#    x 3.251680 0.000000 0.000000 
#    y 0.000000 3.383920 0.000000 
#    z 0.000000 0.000000 3.265260 
# 
# 
# High freq. dielectric constant tensor:
#      x y z
#    x 1.678890 0.000000 0.000000 
#    y 0.000000 1.677830 0.000000 
#    z 0.000000 0.000000 1.678600 
# 
# From -- ./inp_files/47974.got.cif
#   From: 2010.03.12/outbox.cif.g09.slc.cpg/sg63_24_cif.got.tgz:47974.got - 2010.04.10 19:34:48.
