data_PCOD8261552
_publ_section_title
;
Structure prediction by ZEFSAII (Michael W. Deem and Ramdas Pophale) SiO2 
 PCOD8261552
Probable space group: C M C A
;
_chemical_formula_sum "Si O2"
_cell_formula_units_Z 96
_cell_length_a 14.886645
_cell_length_b 18.693833
_cell_length_c 21.038983
_cell_angle_alpha 90.000000
_cell_angle_beta 90.000000
_cell_angle_gamma 90.000000
_cell_volume 5854.906086
_symmetry_space_group_name_H-M "C M C A"
_symmetry_group_IT_number 64
_symmetry_cell_setting 'orthorhombic'
loop_
_space_group_symop_operation_xyz
x,y,z
-x,1/2-y,1/2+z
x,-y,-z
-x,1/2+y,1/2-z
-x,-y,-z
x,1/2+y,1/2-z
-x,y,z
x,1/2-y,1/2+z
1/2+x,1/2+y,z
1/2-x,-y,1/2+z
1/2+x,1/2-y,-z
1/2-x,y,1/2-z
1/2-x,1/2-y,-z
1/2+x,y,1/2-z
1/2-x,1/2+y,z
1/2+x,-y,1/2+z
loop_
_atom_site_type_symbol
_atom_site_label
_atom_site_fract_x
_atom_site_fract_y
_atom_site_fract_z
Si Si1 0.701997 0.770740 0.313773
Si Si2 0.600528 0.584129 0.498232
Si Si3 0.102470 0.633222 0.141018
Si Si4 0.098824 0.906215 0.168985
Si Si5 0.345048 0.002202 0.781051
Si Si6 0.780492 0.391322 0.115702
O O1 0.750000 0.746103 0.250000
O O2 0.665446 0.700103 0.346303
O O3 0.622835 0.828671 0.299973
O O4 0.776104 0.809586 0.358827
O O5 0.599126 0.500000 0.500000
O O6 0.500000 0.613391 0.514575
O O7 0.631253 0.606186 0.428209
O O8 0.675254 0.613124 0.546670
O O9 0.113143 0.570890 0.193006
O O10 0.000000 0.658972 0.142111
O O11 0.177106 0.923175 0.116390
O O12 0.000000 0.903931 0.136702
O O13 0.094226 0.964693 0.225198
O O14 0.250000 0.985048 0.750000
O O15 0.340129 0.059597 0.838022
#
# Coordination Sequence:
#
# PCOD8261552 Si02
#       6
#    16  16  16  16  16  16
#     4  10  19  36  51  76 111 137 177 210 270 327
#     4  10  20  34  53  80 108 137 181 232 270 310
#     4  11  22  32  52  82 108 137 174 223 277 312
#     4   9  17  31  54  77 106 140 179 217 258 324
#     4  10  17  32  52  79 105 135 177 217 265 319
#     4   9  18  34  53  76 106 140 181 212 266 316
#
# _framework density 16.396505000000001
#
# number of rings (size 3 to 8) (size 9 to 14) (size 15 to 20)
#    1.000    1.167    3.333    1.500    0.000    1.333 
#    0.000    0.000    0.000    0.500    0.000    2.333 
#    0.000    0.000    0.000    0.000    0.000    0.000 
#
# Total GULP energy -594703.872046 kJ/mol
# GULP energy per Si atom -12389.664001 kJ/mol
# Density = 1.635919 g / cm^3
# Si number density = 16.396505 Si / 1000 Ang^3
#
#
#
# Elastic Constant Matrix: (Units=GPa)
#
#
# Indices 1 2 3 4 5 6 
#
# 1 75.2513 18.7002 38.9145 0.0000 0.0000 0.0000
# 2 18.7002 89.8258 34.8945 0.0000 0.0000 0.0000
# 3 38.9145 34.8945 93.8310 0.0000 0.0000 0.0000
# 4 0.0000 0.0000 0.0000 17.2051 0.0000 0.0000
# 5 0.0000 0.0000 0.0000 0.0000 23.5572 0.0000
# 6 0.0000 0.0000 0.0000 0.0000 0.0000 1.5994
#
#
#
# Elastic Compliance Matrix: (Units=1/GPa)
#
#
# Indices 1 2 3 4 5 6 
#
# 1 0.016984 -0.000934 -0.006696 0.000000 0.000000 0.000000
# 2 -0.000934 0.013064 -0.004471 0.000000 0.000000 0.000000
# 3 -0.006696 -0.004471 0.015097 0.000000 0.000000 0.000000
# 4 0.000000 0.000000 0.000000 0.058122 0.000000 0.000000
# 5 0.000000 0.000000 0.000000 0.000000 0.042450 0.000000
# 6 0.000000 0.000000 0.000000 0.000000 0.000000 0.625223
#
#
# Mechanical properties :
#
#
# Convention : Reuss Voigt Hill
#
# Bulk Modulus (GPa) = 47.75066 49.32516 48.53791
# Shear Modulus (GPa) = 6.23345 19.56559 12.89952
#
# Velocity S-wave (km/s) = 1.95191 3.45813 2.80790
# Velocity P-wave (km/s) = 5.85368 6.78918 6.33871
#
# Compressibility (1/GPa) = 0.02094212
#
# Stress axis : x y z
#
# Youngs Moduli (GPa) = 58.87957 76.54656 66.23754
#
# Poissons Ratio (x) = 0.07153 0.44354
# Poissons Ratio (y) = 0.05502 0.29613
# Poissons Ratio (z) = 0.39427 0.34222
#
# Static dielectric constant tensor:
#      x y z
#    x 3.088000 0.000000 0.000000 
#    y 0.000000 2.943340 0.000000 
#    z 0.000000 0.000000 2.832050 
# 
# 
# High freq. dielectric constant tensor:
#      x y z
#    x 1.627680 0.000000 0.000000 
#    y 0.000000 1.621480 0.000000 
#    z 0.000000 0.000000 1.613370 
# 
# From -- ./inp_files/39563.got.cif
#   From: 2010.03.12/outbox.cif.g09.slc.cpg/sg64_20_cif.got.tgz:39563.got - 2010.04.10 20:19:32.
