data_PCOD8261695
_publ_section_title
;
Structure prediction by ZEFSAII (Michael W. Deem and Ramdas Pophale) SiO2 
 PCOD8261695
Probable space group: C M C A
;
_chemical_formula_sum "Si O2"
_cell_formula_units_Z 64
_cell_length_a 8.842352
_cell_length_b 20.971649
_cell_length_c 19.226379
_cell_angle_alpha 90.000000
_cell_angle_beta 90.000000
_cell_angle_gamma 90.000000
_cell_volume 3565.314775
_symmetry_space_group_name_H-M "C M C A"
_symmetry_group_IT_number 64
_symmetry_cell_setting 'orthorhombic'
loop_
_space_group_symop_operation_xyz
x,y,z
-x,1/2-y,1/2+z
x,-y,-z
-x,1/2+y,1/2-z
-x,-y,-z
x,1/2+y,1/2-z
-x,y,z
x,1/2-y,1/2+z
1/2+x,1/2+y,z
1/2-x,-y,1/2+z
1/2+x,1/2-y,-z
1/2-x,y,1/2-z
1/2-x,1/2-y,-z
1/2+x,y,1/2-z
1/2-x,1/2+y,z
1/2+x,-y,1/2+z
loop_
_atom_site_type_symbol
_atom_site_label
_atom_site_fract_x
_atom_site_fract_y
_atom_site_fract_z
Si Si1 0.178653 0.883942 0.178739
Si Si2 0.178992 0.064369 0.967318
Si Si3 0.324118 0.747924 0.180776
Si Si4 0.174956 0.191099 0.037221
O O1 0.250000 0.911721 0.250000
O O2 0.221822 0.930016 0.114335
O O3 0.243158 0.814165 0.161786
O O4 0.000000 0.878593 0.187991
O O5 0.000000 0.062980 0.976845
O O6 0.245750 0.124722 0.009955
O O7 0.250369 0.000000 0.000000
O O8 0.500000 0.762283 0.193418
O O9 0.250000 0.718121 0.250000
O O10 0.299081 0.696568 0.119909
O O11 0.000000 0.193772 0.017329
O O12 0.250000 0.250000 0.000000
#
# Coordination Sequence:
#
# PCOD8261695 Si02
#       4
#    16  16  16  16
#     4  10  18  30  51  74  99 130 166 208 249 298
#     4   9  18  33  52  74 100 134 172 205 245 301
#     4  10  19  30  48  74 103 131 164 208 253 301
#     4  10  19  32  52  76 100 129 167 210 252 296
#
# _framework density 17.950728999999999
#
# number of rings (size 3 to 8) (size 9 to 14) (size 15 to 20)
#    0.000    2.250    2.500    3.000    0.000    1.000 
#    0.000    1.250    0.000    6.750    0.000    0.000 
#    0.000    0.000    0.000    0.000    0.000    0.000 
#
# Total GULP energy -396696.350947 kJ/mol
# GULP energy per Si atom -12396.760967 kJ/mol
# Density = 1.790987 g / cm^3
# Si number density = 17.950729 Si / 1000 Ang^3
#
#
#
# Elastic Constant Matrix: (Units=GPa)
#
#
# Indices 1 2 3 4 5 6 
#
# 1 67.7399 27.7790 48.2755 0.0000 0.0000 0.0000
# 2 27.7790 128.7452 85.3047 0.0000 0.0000 0.0000
# 3 48.2755 85.3047 156.7264 0.0000 0.0000 0.0000
# 4 0.0000 0.0000 0.0000 30.9512 0.0000 0.0000
# 5 0.0000 0.0000 0.0000 0.0000 24.4350 0.0000
# 6 0.0000 0.0000 0.0000 0.0000 0.0000 14.7782
#
#
#
# Elastic Compliance Matrix: (Units=1/GPa)
#
#
# Indices 1 2 3 4 5 6 
#
# 1 0.018924 -0.000346 -0.005641 0.000000 0.000000 0.000000
# 2 -0.000346 0.012155 -0.006509 0.000000 0.000000 0.000000
# 3 -0.005641 -0.006509 0.011661 0.000000 0.000000 0.000000
# 4 0.000000 0.000000 0.000000 0.032309 0.000000 0.000000
# 5 0.000000 0.000000 0.000000 0.000000 0.040925 0.000000
# 6 0.000000 0.000000 0.000000 0.000000 0.000000 0.067667
#
#
# Mechanical properties :
#
#
# Convention : Reuss Voigt Hill
#
# Bulk Modulus (GPa) = 56.34347 75.10332 65.72339
# Shear Modulus (GPa) = 23.30472 26.82305 25.06389
#
# Velocity S-wave (km/s) = 3.60705 3.86976 3.74071
# Velocity P-wave (km/s) = 6.98596 7.86741 7.43975
#
# Compressibility (1/GPa) = 0.01774829
#
# Stress axis : x y z
#
# Youngs Moduli (GPa) = 52.84249 82.27186 85.75542
#
# Poissons Ratio (x) = 0.02843 0.48375
# Poissons Ratio (y) = 0.01826 0.55821
# Poissons Ratio (z) = 0.29808 0.53553
#
# Static dielectric constant tensor:
#      x y z
#    x 3.197380 0.000000 0.000000 
#    y 0.000000 3.349160 0.000000 
#    z 0.000000 0.000000 3.881170 
# 
# 
# High freq. dielectric constant tensor:
#      x y z
#    x 1.679450 0.000000 0.000000 
#    y 0.000000 1.664030 0.000000 
#    z 0.000000 0.000000 1.714640 
# 
# From -- ./inp_files/29239.got.cif
#   From: 2010.03.12/outbox.cif.g09.slc.cpg/sg64_15_cif.got.tgz:29239.got - 2010.04.10 20:19:32.
