data_PCOD8261562
_publ_section_title
;
Structure prediction by ZEFSAII (Michael W. Deem and Ramdas Pophale) SiO2 
 PCOD8261562
Probable space group: C M C A
;
_chemical_formula_sum "Si O2"
_cell_formula_units_Z 72
_cell_length_a 14.249633
_cell_length_b 15.065786
_cell_length_c 18.748544
_cell_angle_alpha 90.000000
_cell_angle_beta 90.000000
_cell_angle_gamma 90.000000
_cell_volume 4024.973449
_symmetry_space_group_name_H-M "C M C A"
_symmetry_group_IT_number 64
_symmetry_cell_setting 'orthorhombic'
loop_
_space_group_symop_operation_xyz
x,y,z
-x,1/2-y,1/2+z
x,-y,-z
-x,1/2+y,1/2-z
-x,-y,-z
x,1/2+y,1/2-z
-x,y,z
x,1/2-y,1/2+z
1/2+x,1/2+y,z
1/2-x,-y,1/2+z
1/2+x,1/2-y,-z
1/2-x,y,1/2-z
1/2-x,1/2-y,-z
1/2+x,y,1/2-z
1/2-x,1/2+y,z
1/2+x,-y,1/2+z
loop_
_atom_site_type_symbol
_atom_site_label
_atom_site_fract_x
_atom_site_fract_y
_atom_site_fract_z
Si Si1 0.699539 0.751718 0.574005
Si Si2 0.500000 0.635488 0.871597
Si Si3 0.705946 0.383177 0.174568
Si Si4 0.500000 0.565750 0.136951
Si Si5 0.500000 0.210097 0.473149
Si Si6 0.300684 0.411796 0.822696
O O1 0.750000 0.750000 0.500000
O O2 0.733036 0.666615 0.616498
O O3 0.589903 0.738324 0.557094
O O4 0.726735 0.843172 0.614853
O O5 0.596643 0.649732 0.826669
O O6 0.500000 0.533318 0.892758
O O7 0.500000 0.698998 0.941014
O O8 0.750000 0.357899 0.250000
O O9 0.723354 0.486892 0.156705
O O10 0.500000 0.613070 0.060887
O O11 0.412946 0.591604 0.187627
O O12 0.250000 0.382062 0.750000
#
# Coordination Sequence:
#
# PCOD8261562 Si02
#       6
#    16   8  16   8   8  16
#     4  11  21  35  56  81 111 143 182 225 274 325
#     4  10  17  33  55  79 106 139 184 226 269 313
#     4  10  21  36  57  82 109 143 182 227 275 325
#     4   8  17  30  55  81 102 137 183 232 265 303
#     4  10  19  33  52  79 111 139 182 226 268 318
#     4   9  19  36  55  80 110 141 181 227 275 318
#
# _framework density 17.888318000000002
#
# number of rings (size 3 to 8) (size 9 to 14) (size 15 to 20)
#    0.000    2.222    2.222    1.000    0.000    1.778 
#    0.000    5.556    0.000    1.333    0.000    0.000 
#    0.000    0.000    0.000    0.000    0.000    0.000 
#
# Total GULP energy -446128.465310 kJ/mol
# GULP energy per Si atom -12392.457370 kJ/mol
# Density = 1.784760 g / cm^3
# Si number density = 17.888318 Si / 1000 Ang^3
#
#
#
# Elastic Constant Matrix: (Units=GPa)
#
#
# Indices 1 2 3 4 5 6 
#
# 1 142.6415 52.6746 77.4465 0.0000 0.0000 0.0000
# 2 52.6746 73.4571 57.5755 0.0000 0.0000 0.0000
# 3 77.4465 57.5755 138.0727 0.0000 0.0000 0.0000
# 4 0.0000 0.0000 0.0000 29.1838 0.0000 0.0000
# 5 0.0000 0.0000 0.0000 0.0000 36.6373 0.0000
# 6 0.0000 0.0000 0.0000 0.0000 0.0000 26.5206
#
#
#
# Elastic Compliance Matrix: (Units=1/GPa)
#
#
# Indices 1 2 3 4 5 6 
#
# 1 0.011013 -0.004539 -0.004285 0.000000 0.000000 0.000000
# 2 -0.004539 0.022094 -0.006667 0.000000 0.000000 0.000000
# 3 -0.004285 -0.006667 0.012426 0.000000 0.000000 0.000000
# 4 0.000000 0.000000 0.000000 0.034266 0.000000 0.000000
# 5 0.000000 0.000000 0.000000 0.000000 0.027295 0.000000
# 6 0.000000 0.000000 0.000000 0.000000 0.000000 0.037707
#
#
# Mechanical properties :
#
#
# Convention : Reuss Voigt Hill
#
# Bulk Modulus (GPa) = 68.72102 81.06271 74.89187
# Shear Modulus (GPa) = 27.68071 29.56666 28.62369
#
# Velocity S-wave (km/s) = 3.93799 4.06993 4.00451
# Velocity P-wave (km/s) = 7.69267 8.21585 7.95856
#
# Compressibility (1/GPa) = 0.01455159
#
# Stress axis : x y z
#
# Youngs Moduli (GPa) = 90.80145 45.26161 80.47658
#
# Poissons Ratio (x) = 0.20544 0.34481
# Poissons Ratio (y) = 0.41214 0.53654
# Poissons Ratio (z) = 0.38905 0.30176
#
# Static dielectric constant tensor:
#      x y z
#    x 4.854550 0.000000 0.000000 
#    y 0.000000 3.519000 0.000000 
#    z 0.000000 0.000000 3.140670 
# 
# 
# High freq. dielectric constant tensor:
#      x y z
#    x 1.704380 0.000000 0.000000 
#    y 0.000000 1.685500 0.000000 
#    z 0.000000 0.000000 1.685430 
# 
# From -- ./inp_files/25164.got.cif
#   From: 2010.03.12/outbox.cif.g09.slc.cpg/sg64_13_cif.got.tgz:25164.got - 2010.04.10 20:19:32.
