data_PCOD8261976
_publ_section_title
;
Structure prediction by ZEFSAII (Michael W. Deem and Ramdas Pophale) SiO2 
 PCOD8261976
Probable space group: C M C A
;
_chemical_formula_sum "Si O2"
_cell_formula_units_Z 96
_cell_length_a 9.112873
_cell_length_b 23.023954
_cell_length_c 25.936203
_cell_angle_alpha 90.000000
_cell_angle_beta 90.000000
_cell_angle_gamma 90.000000
_cell_volume 5441.788060
_symmetry_space_group_name_H-M "C M C A"
_symmetry_group_IT_number 64
_symmetry_cell_setting 'orthorhombic'
loop_
_space_group_symop_operation_xyz
x,y,z
-x,1/2-y,1/2+z
x,-y,-z
-x,1/2+y,1/2-z
-x,-y,-z
x,1/2+y,1/2-z
-x,y,z
x,1/2-y,1/2+z
1/2+x,1/2+y,z
1/2-x,-y,1/2+z
1/2+x,1/2-y,-z
1/2-x,y,1/2-z
1/2-x,1/2-y,-z
1/2+x,y,1/2-z
1/2-x,1/2+y,z
1/2+x,-y,1/2+z
loop_
_atom_site_type_symbol
_atom_site_label
_atom_site_fract_x
_atom_site_fract_y
_atom_site_fract_z
Si Si1 0.337485 0.331516 0.379701
Si Si2 0.671942 0.350484 0.618747
Si Si3 0.839940 0.225785 0.045972
Si Si4 0.170585 0.923868 0.049818
Si Si5 0.325867 0.247908 0.695407
Si Si6 0.170039 0.556322 0.432627
O O1 0.500000 0.352851 0.360955
O O2 0.362183 0.274359 0.412083
O O3 0.262373 0.380451 0.414447
O O4 0.235822 0.310457 0.332037
O O5 0.500000 0.354761 0.612462
O O6 0.743897 0.326474 0.566818
O O7 0.713397 0.308818 0.666543
O O8 0.741349 0.415230 0.616253
O O9 0.000000 0.202698 0.027842
O O10 0.750000 0.250000 0.000000
O O11 0.000000 0.907944 0.055534
O O12 0.201785 0.988103 0.070902
O O13 0.217818 0.920341 0.989657
O O14 0.500000 0.240635 0.700666
O O15 0.250000 0.253861 0.750000
O O16 0.000000 0.569680 0.423818
#
# Coordination Sequence:
#
# PCOD8261976 Si02
#       6
#    16  16  16  16  16  16
#     4  10  20  32  48  72  99 129 165 204 247 295
#     4  10  20  32  48  72  99 127 161 202 248 296
#     4  10  19  29  43  66  97 130 162 197 240 291
#     4   9  18  32  49  72 103 139 175 207 243 287
#     4  10  21  37  56  76  98 125 159 204 256 306
#     4   9  18  32  50  72 102 140 175 206 242 287
#
# _framework density 17.641259999999999
#
# number of rings (size 3 to 8) (size 9 to 14) (size 15 to 20)
#    0.000    2.333    0.000    4.000    0.000    8.000 
#    0.000    1.667    0.000    1.000    0.000    2.333 
#    0.000    0.000    0.000    0.000    0.000    0.000 
#
# Total GULP energy -594671.852698 kJ/mol
# GULP energy per Si atom -12388.996931 kJ/mol
# Density = 1.760111 g / cm^3
# Si number density = 17.641260 Si / 1000 Ang^3
#
#
#
# Elastic Constant Matrix: (Units=GPa)
#
#
# Indices 1 2 3 4 5 6 
#
# 1 103.0402 49.9397 51.0837 0.0000 0.0000 0.0000
# 2 49.9397 84.2896 29.6185 0.0000 0.0000 0.0000
# 3 51.0837 29.6185 64.0764 0.0000 0.0000 0.0000
# 4 0.0000 0.0000 0.0000 25.2852 0.0000 0.0000
# 5 0.0000 0.0000 0.0000 0.0000 29.0055 0.0000
# 6 0.0000 0.0000 0.0000 0.0000 0.0000 30.7995
#
#
#
# Elastic Compliance Matrix: (Units=1/GPa)
#
#
# Indices 1 2 3 4 5 6 
#
# 1 0.019049 -0.007103 -0.011903 0.000000 0.000000 0.000000
# 2 -0.007103 0.016813 -0.002109 0.000000 0.000000 0.000000
# 3 -0.011903 -0.002109 0.026070 0.000000 0.000000 0.000000
# 4 0.000000 0.000000 0.000000 0.039549 0.000000 0.000000
# 5 0.000000 0.000000 0.000000 0.000000 0.034476 0.000000
# 6 0.000000 0.000000 0.000000 0.000000 0.000000 0.032468
#
#
# Mechanical properties :
#
#
# Convention : Reuss Voigt Hill
#
# Bulk Modulus (GPa) = 50.75450 56.96555 53.86003
# Shear Modulus (GPa) = 23.01783 25.06899 24.04341
#
# Velocity S-wave (km/s) = 3.61608 3.77376 3.69576
# Velocity P-wave (km/s) = 6.80202 7.16586 6.98631
#
# Compressibility (1/GPa) = 0.01970269
#
# Stress axis : x y z
#
# Youngs Moduli (GPa) = 52.49713 59.47621 38.35774
#
# Poissons Ratio (x) = 0.42248 0.45656
# Poissons Ratio (y) = 0.37291 0.08089
# Poissons Ratio (z) = 0.62486 0.12542
#
# Static dielectric constant tensor:
#      x y z
#    x 3.493310 0.000000 0.000000 
#    y 0.000000 3.385290 0.000000 
#    z 0.000000 0.000000 2.979590 
# 
# 
# High freq. dielectric constant tensor:
#      x y z
#    x 1.695270 0.000000 0.000000 
#    y 0.000000 1.684310 0.000000 
#    z 0.000000 0.000000 1.649580 
# 
# From -- ./inp_files/42983.got.cif
#   From: 2010.03.12/outbox.cif.g09.slc.cpg/sg64_22_cif.got.tgz:42983.got - 2010.04.10 20:19:32.
