data_PCOD8261514
_publ_section_title
;
Structure prediction by ZEFSAII (Michael W. Deem and Ramdas Pophale) SiO2 
 PCOD8261514
Probable space group: C M C A
;
_chemical_formula_sum "Si O2"
_cell_formula_units_Z 128
_cell_length_a 19.433665
_cell_length_b 22.329004
_cell_length_c 16.669371
_cell_angle_alpha 90.000000
_cell_angle_beta 90.000000
_cell_angle_gamma 90.000000
_cell_volume 7233.413229
_symmetry_space_group_name_H-M "C M C A"
_symmetry_group_IT_number 64
_symmetry_cell_setting 'orthorhombic'
loop_
_space_group_symop_operation_xyz
x,y,z
-x,1/2-y,1/2+z
x,-y,-z
-x,1/2+y,1/2-z
-x,-y,-z
x,1/2+y,1/2-z
-x,y,z
x,1/2-y,1/2+z
1/2+x,1/2+y,z
1/2-x,-y,1/2+z
1/2+x,1/2-y,-z
1/2-x,y,1/2-z
1/2-x,1/2-y,-z
1/2+x,y,1/2-z
1/2-x,1/2+y,z
1/2+x,-y,1/2+z
loop_
_atom_site_type_symbol
_atom_site_label
_atom_site_fract_x
_atom_site_fract_y
_atom_site_fract_z
Si Si1 0.296424 0.093231 0.408072
Si Si2 0.231441 0.405475 0.076784
Si Si3 0.325686 0.309329 0.785568
Si Si4 0.821715 0.824339 0.297001
Si Si5 0.648498 0.929164 0.302548
Si Si6 0.076887 0.899287 0.713035
Si Si7 0.926016 0.970476 0.875746
Si Si8 0.814911 0.986329 0.661019
O O1 0.248994 0.106774 0.484526
O O2 0.322598 0.155203 0.369732
O O3 0.362955 0.051959 0.432067
O O4 0.251848 0.057227 0.341811
O O5 0.188651 0.349298 0.112425
O O6 0.301198 0.412295 0.125924
O O7 0.187728 0.467182 0.086182
O O8 0.250000 0.306642 0.750000
O O9 0.353108 0.242059 0.802389
O O10 0.378145 0.338631 0.721286
O O11 0.750000 0.825197 0.250000
O O12 0.872495 0.869515 0.247717
O O13 0.583229 0.961591 0.343051
O O14 0.686772 0.976035 0.243476
O O15 0.072115 0.925970 0.801183
O O16 0.115975 0.946044 0.654526
O O17 0.000000 0.886044 0.679137
O O18 0.000000 0.967668 0.921067
#
# Coordination Sequence:
#
# PCOD8261514 Si02
#       8
#    16  16  16  16  16  16  16  16
#     4  11  20  28  48  75 103 131 169 212 258 315
#     4  10  19  29  46  74  99 132 167 206 251 308
#     4  10  18  31  51  73  97 127 167 216 253 301
#     4   8  17  31  48  70  95 125 168 214 251 293
#     4   9  17  30  50  64  96 135 162 206 253 303
#     4   9  18  30  49  76  99 124 164 211 260 304
#     4   9  18  29  45  71 104 134 165 205 258 318
#     4  10  17  29  50  71  95 130 164 207 252 303
#
# _framework density 17.695657000000001
#
# number of rings (size 3 to 8) (size 9 to 14) (size 15 to 20)
#    0.000    2.500    2.500    1.500    3.500    0.500 
#    0.000    1.875    0.000    2.250    0.000    0.875 
#    0.000    0.000    0.000    0.000    0.000    0.000 
#
# Total GULP energy -792964.574407 kJ/mol
# GULP energy per Si atom -12390.071475 kJ/mol
# Density = 1.765538 g / cm^3
# Si number density = 17.695657 Si / 1000 Ang^3
#
#
#
# Elastic Constant Matrix: (Units=GPa)
#
#
# Indices 1 2 3 4 5 6 
#
# 1 87.4645 34.5426 6.1942 0.0000 0.0000 0.0000
# 2 34.5426 136.0115 25.2918 0.0000 0.0000 0.0000
# 3 6.1942 25.2918 55.1748 0.0000 0.0000 0.0000
# 4 0.0000 0.0000 0.0000 16.1600 0.0000 0.0000
# 5 0.0000 0.0000 0.0000 0.0000 7.9653 0.0000
# 6 0.0000 0.0000 0.0000 0.0000 0.0000 12.8774
#
#
#
# Elastic Compliance Matrix: (Units=1/GPa)
#
#
# Indices 1 2 3 4 5 6 
#
# 1 0.012708 -0.003238 0.000058 0.000000 0.000000 0.000000
# 2 -0.003238 0.008863 -0.003699 0.000000 0.000000 0.000000
# 3 0.000058 -0.003699 0.019813 0.000000 0.000000 0.000000
# 4 0.000000 0.000000 0.000000 0.061881 0.000000 0.000000
# 5 0.000000 0.000000 0.000000 0.000000 0.125544 0.000000
# 6 0.000000 0.000000 0.000000 0.000000 0.000000 0.077656
#
#
# Mechanical properties :
#
#
# Convention : Reuss Voigt Hill
#
# Bulk Modulus (GPa) = 36.19921 45.63424 40.91673
# Shear Modulus (GPa) = 15.17765 21.57536 18.37651
#
# Velocity S-wave (km/s) = 2.93184 3.49556 3.22603
# Velocity P-wave (km/s) = 5.65348 6.49125 6.08679
#
# Compressibility (1/GPa) = 0.02762491
#
# Stress axis : x y z
#
# Youngs Moduli (GPa) = 78.69073 112.83440 50.47109
#
# Poissons Ratio (x) = 0.36537 -0.00291
# Poissons Ratio (y) = 0.25481 0.18669
# Poissons Ratio (z) = -0.00454 0.41737
#
# Static dielectric constant tensor:
#      x y z
#    x 3.409390 0.000000 0.000000 
#    y 0.000000 3.628100 0.000000 
#    z 0.000000 0.000000 2.951830 
# 
# 
# High freq. dielectric constant tensor:
#      x y z
#    x 1.655080 0.000000 0.000000 
#    y 0.000000 1.682830 0.000000 
#    z 0.000000 0.000000 1.654170 
# 
# From -- ./inp_files/34645.got.cif
#   From: 2010.03.12/outbox.cif.g09.slc.cpg/sg64_18_cif.got.tgz:34645.got - 2010.04.10 20:19:32.
