data_PCOD8261165
_publ_section_title
;
Structure prediction by ZEFSAII (Michael W. Deem and Ramdas Pophale) SiO2 
 PCOD8261165
Probable space group: C M C M
;
_chemical_formula_sum "Si O2"
_cell_formula_units_Z 48
_cell_length_a 9.974185
_cell_length_b 13.601296
_cell_length_c 15.877228
_cell_angle_alpha 90.000000
_cell_angle_beta 90.000000
_cell_angle_gamma 90.000000
_cell_volume 2153.934005
_symmetry_space_group_name_H-M "C M C M"
_symmetry_group_IT_number 63
_symmetry_cell_setting 'orthorhombic'
loop_
_space_group_symop_operation_xyz
x,y,z
-x,-y,1/2+z
x,-y,-z
-x,y,1/2-z
-x,-y,-z
x,y,1/2-z
-x,y,z
x,-y,1/2+z
1/2+x,1/2+y,z
1/2-x,1/2-y,1/2+z
1/2+x,1/2-y,-z
1/2-x,1/2+y,1/2-z
1/2-x,1/2-y,-z
1/2+x,1/2+y,1/2-z
1/2-x,1/2+y,z
1/2+x,1/2-y,1/2+z
loop_
_atom_site_type_symbol
_atom_site_label
_atom_site_fract_x
_atom_site_fract_y
_atom_site_fract_z
Si Si1 0.500000 0.883853 0.990486
Si Si2 0.713966 0.166601 0.880354
Si Si3 0.000000 0.238256 0.648304
Si Si4 0.152359 0.496538 0.250000
Si Si5 0.145338 0.172562 0.250000
O O1 0.500000 0.848051 0.892937
O O2 0.636560 0.839546 0.030992
O O3 0.500000 0.000000 0.000000
O O4 0.873891 0.177285 0.887269
O O5 0.655379 0.259943 0.831882
O O6 0.683763 0.065293 0.832990
O O7 0.000000 0.245456 0.750000
O O8 0.237120 0.595170 0.250000
O O9 0.000000 0.529999 0.250000
O O10 0.000000 0.119950 0.250000
#
# Coordination Sequence:
#
# PCOD8261165 Si02
#       5
#     8  16   8   8   8
#     4  12  28  49  74 105 144 202 251 298 360 440
#     4  11  24  47  70 104 150 190 240 305 354 437
#     4  12  26  46  74 109 146 195 241 307 371 424
#     4  11  23  40  75 107 143 190 252 286 370 442
#     4  11  23  40  75 107 147 190 238 300 366 420
#
# _framework density 22.284806
#
# number of rings (size 3 to 8) (size 9 to 14) (size 15 to 20)
#    0.000    0.667    6.667    2.000    9.333    0.000 
#    3.000    0.833    0.000    0.000    0.000    0.000 
#    0.000    0.000    0.000    0.000    0.000    0.000 
#
# Total GULP energy -297628.425396 kJ/mol
# GULP energy per Si atom -12401.184391 kJ/mol
# Density = 2.223409 g / cm^3
# Si number density = 22.284806 Si / 1000 Ang^3
#
#
#
# Elastic Constant Matrix: (Units=GPa)
#
#
# Indices 1 2 3 4 5 6 
#
# 1 230.8507 66.0978 51.7452 0.0000 0.0000 0.0000
# 2 66.0978 140.1311 38.4684 0.0000 0.0000 0.0000
# 3 51.7452 38.4684 109.2155 0.0000 0.0000 0.0000
# 4 0.0000 0.0000 0.0000 3.0835 0.0000 0.0000
# 5 0.0000 0.0000 0.0000 0.0000 24.9198 0.0000
# 6 0.0000 0.0000 0.0000 0.0000 0.0000 34.9172
#
#
#
# Elastic Compliance Matrix: (Units=1/GPa)
#
#
# Indices 1 2 3 4 5 6 
#
# 1 0.005313 -0.002009 -0.001809 0.000000 0.000000 0.000000
# 2 -0.002009 0.008660 -0.002098 0.000000 0.000000 0.000000
# 3 -0.001809 -0.002098 0.010753 0.000000 0.000000 0.000000
# 4 0.000000 0.000000 0.000000 0.324306 0.000000 0.000000
# 5 0.000000 0.000000 0.000000 0.000000 0.040129 0.000000
# 6 0.000000 0.000000 0.000000 0.000000 0.000000 0.028639
#
#
# Mechanical properties :
#
#
# Convention : Reuss Voigt Hill
#
# Bulk Modulus (GPa) = 77.57143 88.09111 82.83127
# Shear Modulus (GPa) = 11.52260 34.17651 22.84956
#
# Velocity S-wave (km/s) = 2.27636 3.92040 3.20557
# Velocity P-wave (km/s) = 6.46481 7.75295 7.13800
#
# Compressibility (1/GPa) = 0.01289134
#
# Stress axis : x y z
#
# Youngs Moduli (GPa) = 188.22967 115.47484 93.00117
#
# Poissons Ratio (x) = 0.23201 0.16828
# Poissons Ratio (y) = 0.37819 0.19514
# Poissons Ratio (z) = 0.34058 0.24230
#
# Static dielectric constant tensor:
#      x y z
#    x 4.441170 0.000000 0.000000 
#    y 0.000000 3.918510 0.000000 
#    z 0.000000 0.000000 4.086200 
# 
# 
# High freq. dielectric constant tensor:
#      x y z
#    x 1.900950 0.000000 0.000000 
#    y 0.000000 1.874630 0.000000 
#    z 0.000000 0.000000 1.871540 
# 
# From -- ./inp_files/41181.got.cif
#   From: 2010.03.12/outbox.cif.g09.slc.cpg/sg63_21_cif.got.tgz:41181.got - 2010.04.10 19:34:48.
