data_PCOD8261516
_publ_section_title
;
Structure prediction by ZEFSAII (Michael W. Deem and Ramdas Pophale) SiO2 
 PCOD8261516
Probable space group: C M C A
;
_chemical_formula_sum "Si O2"
_cell_formula_units_Z 112
_cell_length_a 18.233932
_cell_length_b 27.736059
_cell_length_c 11.941517
_cell_angle_alpha 90.000000
_cell_angle_beta 90.000000
_cell_angle_gamma 90.000000
_cell_volume 6039.271924
_symmetry_space_group_name_H-M "C M C A"
_symmetry_group_IT_number 64
_symmetry_cell_setting 'orthorhombic'
loop_
_space_group_symop_operation_xyz
x,y,z
-x,1/2-y,1/2+z
x,-y,-z
-x,1/2+y,1/2-z
-x,-y,-z
x,1/2+y,1/2-z
-x,y,z
x,1/2-y,1/2+z
1/2+x,1/2+y,z
1/2-x,-y,1/2+z
1/2+x,1/2-y,-z
1/2-x,y,1/2-z
1/2-x,1/2-y,-z
1/2+x,y,1/2-z
1/2-x,1/2+y,z
1/2+x,-y,1/2+z
loop_
_atom_site_type_symbol
_atom_site_label
_atom_site_fract_x
_atom_site_fract_y
_atom_site_fract_z
Si Si1 0.305452 0.631377 0.645474
Si Si2 0.585688 0.299325 0.466668
Si Si3 0.163873 0.544862 0.732729
Si Si4 0.585345 0.189366 0.435023
Si Si5 0.415125 0.149824 0.198002
Si Si6 0.165274 0.438933 0.725314
Si Si7 0.671118 0.896730 0.482780
O O1 0.250000 0.643004 0.750000
O O2 0.360933 0.675105 0.622670
O O3 0.357932 0.585116 0.674453
O O4 0.256253 0.618070 0.536960
O O5 0.500000 0.306961 0.433954
O O6 0.606911 0.243428 0.467606
O O7 0.603865 0.319291 0.589238
O O8 0.250000 0.537732 0.750000
O O9 0.128327 0.491796 0.746543
O O10 0.143323 0.566448 0.611816
O O11 0.500000 0.180097 0.450922
O O12 0.609911 0.180242 0.306572
O O13 0.625958 0.153183 0.519445
O O14 0.500000 0.137271 0.204630
O O15 0.373448 0.098876 0.192384
O O16 0.250000 0.439497 0.750000
O O17 0.155266 0.424300 0.597075
#
# Coordination Sequence:
#
# PCOD8261516 Si02
#       7
#    16  16  16  16  16  16  16
#     4   9  19  35  50  75 107 129 163 214 250 285
#     4  10  20  36  56  73  98 139 170 195 249 308
#     4   8  17  31  48  71 100 132 163 203 250 296
#     4   9  19  34  52  75 100 130 170 209 246 297
#     4   9  19  34  50  73 103 128 162 211 248 290
#     4  10  17  29  51  74  96 129 170 204 245 301
#     4   9  17  31  50  72 100 130 164 209 256 293
#
# _framework density 18.545282
#
# number of rings (size 3 to 8) (size 9 to 14) (size 15 to 20)
#    0.000    3.143    0.000    1.286    0.000    2.857 
#    0.000   12.143    0.000    5.143    0.000    0.000 
#    0.000    0.000    0.000    0.000    0.000    0.000 
#
# Total GULP energy -693959.703186 kJ/mol
# GULP energy per Si atom -12392.137557 kJ/mol
# Density = 1.850307 g / cm^3
# Si number density = 18.545282 Si / 1000 Ang^3
#
#
#
# Elastic Constant Matrix: (Units=GPa)
#
#
# Indices 1 2 3 4 5 6 
#
# 1 40.4243 53.7964 29.4580 0.0000 0.0000 0.0000
# 2 53.7964 189.0410 63.5118 0.0000 0.0000 0.0000
# 3 29.4580 63.5118 69.3843 0.0000 0.0000 0.0000
# 4 0.0000 0.0000 0.0000 26.2402 0.0000 0.0000
# 5 0.0000 0.0000 0.0000 0.0000 24.3767 0.0000
# 6 0.0000 0.0000 0.0000 0.0000 0.0000 24.2314
#
#
#
# Elastic Compliance Matrix: (Units=1/GPa)
#
#
# Indices 1 2 3 4 5 6 
#
# 1 0.044607 -0.009143 -0.010569 0.000000 0.000000 0.000000
# 2 -0.009143 0.009513 -0.004826 0.000000 0.000000 0.000000
# 3 -0.010569 -0.004826 0.023318 0.000000 0.000000 0.000000
# 4 0.000000 0.000000 0.000000 0.038109 0.000000 0.000000
# 5 0.000000 0.000000 0.000000 0.000000 0.041023 0.000000
# 6 0.000000 0.000000 0.000000 0.000000 0.000000 0.041269
#
#
# Mechanical properties :
#
#
# Convention : Reuss Voigt Hill
#
# Bulk Modulus (GPa) = 35.26003 65.82024 50.54013
# Shear Modulus (GPa) = 19.50306 25.10855 22.30581
#
# Velocity S-wave (km/s) = 3.24643 3.68354 3.47187
# Velocity P-wave (km/s) = 5.75383 7.32529 6.58660
#
# Compressibility (1/GPa) = 0.02836073
#
# Stress axis : x y z
#
# Youngs Moduli (GPa) = 22.41787 105.11677 42.88616
#
# Poissons Ratio (x) = 0.96110 0.45328
# Poissons Ratio (y) = 0.20497 0.20698
# Poissons Ratio (z) = 0.23694 0.50732
#
# Static dielectric constant tensor:
#      x y z
#    x 5.279400 0.000000 0.000000 
#    y 0.000000 3.847130 0.000000 
#    z 0.000000 0.000000 3.414580 
# 
# 
# High freq. dielectric constant tensor:
#      x y z
#    x 1.689480 0.000000 0.000000 
#    y 0.000000 1.733540 0.000000 
#    z 0.000000 0.000000 1.716080 
# 
# From -- ./inp_files/17686.got.cif
#   From: 2010.03.12/outbox.cif.g09.slc.cpg/sg64_9_cif.got.tgz:17686.got - 2010.04.10 20:19:32.
