data_PCOD8261207
_publ_section_title
;
Structure prediction by ZEFSAII (Michael W. Deem and Ramdas Pophale) SiO2 
 PCOD8261207
Probable space group: C M C M
;
_chemical_formula_sum "Si O2"
_cell_formula_units_Z 112
_cell_length_a 16.638775
_cell_length_b 12.570796
_cell_length_c 28.364885
_cell_angle_alpha 90.000000
_cell_angle_beta 90.000000
_cell_angle_gamma 90.000000
_cell_volume 5932.874406
_symmetry_space_group_name_H-M "C M C M"
_symmetry_group_IT_number 63
_symmetry_cell_setting 'orthorhombic'
loop_
_space_group_symop_operation_xyz
x,y,z
-x,-y,1/2+z
x,-y,-z
-x,y,1/2-z
-x,-y,-z
x,y,1/2-z
-x,y,z
x,-y,1/2+z
1/2+x,1/2+y,z
1/2-x,1/2-y,1/2+z
1/2+x,1/2-y,-z
1/2-x,1/2+y,1/2-z
1/2-x,1/2-y,-z
1/2+x,1/2+y,1/2-z
1/2-x,1/2+y,z
1/2+x,1/2-y,1/2+z
loop_
_atom_site_type_symbol
_atom_site_label
_atom_site_fract_x
_atom_site_fract_y
_atom_site_fract_z
Si Si1 0.842744 0.794808 0.896071
Si Si2 0.907997 0.118786 0.803620
Si Si3 0.905711 0.391691 0.558250
Si Si4 0.331050 0.705513 0.892630
Si Si5 0.909099 0.379337 0.044772
Si Si6 0.594646 0.496214 0.056023
Si Si7 0.592473 0.369555 0.802506
O O1 0.761600 0.728172 0.904676
O O2 0.908523 0.719058 0.919776
O O3 0.852193 0.909772 0.920755
O O4 0.855525 0.804420 0.840133
O O5 0.886686 0.149987 0.750000
O O6 0.845997 0.178186 0.837885
O O7 0.000000 0.150859 0.815216
O O8 0.897095 0.993941 0.811868
O O9 0.871982 0.318442 0.599179
O O10 0.872759 0.351658 0.506872
O O11 0.871702 0.511900 0.566380
O O12 0.000000 0.382219 0.563026
O O13 0.368753 0.614854 0.926022
O O14 0.000000 0.410746 0.033831
O O15 0.500000 0.505363 0.070736
O O16 0.603472 0.500000 0.000000
O O17 0.622791 0.340002 0.750000
O O18 0.500000 0.336994 0.808365
#
# Coordination Sequence:
#
# PCOD8261207 Si02
#       7
#    16  16  16  16  16  16  16
#     4  12  24  35  57  88 123 152 191 243 308 352
#     4   9  18  36  63  88 111 147 197 248 296 355
#     4   9  19  36  56  77 107 153 201 236 275 343
#     4  12  24  35  57  88 123 152 191 243 308 352
#     4   9  19  36  56  77 107 153 201 236 275 343
#     4  11  24  42  63  87 118 161 209 253 293 344
#     4   9  18  36  63  88 111 147 197 248 296 355
#
# _framework density 18.877863999999999
#
# number of rings (size 3 to 8) (size 9 to 14) (size 15 to 20)
#    0.000    1.857    1.429    5.143    2.000    5.143 
#    0.000    0.000    0.000    0.857    0.000    4.000 
#    0.000    0.000    0.000    0.000    0.000    0.000 
#
# Total GULP energy -694035.763826 kJ/mol
# GULP energy per Si atom -12393.495783 kJ/mol
# Density = 1.883490 g / cm^3
# Si number density = 18.877864 Si / 1000 Ang^3
#
#
#
# Elastic Constant Matrix: (Units=GPa)
#
#
# Indices 1 2 3 4 5 6 
#
# 1 62.5069 17.4598 21.0559 0.0000 0.0000 0.0000
# 2 17.4598 74.4671 31.4093 0.0000 0.0000 0.0000
# 3 21.0559 31.4093 99.8015 0.0000 0.0000 0.0000
# 4 0.0000 0.0000 0.0000 36.5883 0.0000 0.0000
# 5 0.0000 0.0000 0.0000 0.0000 6.2198 0.0000
# 6 0.0000 0.0000 0.0000 0.0000 0.0000 15.0815
#
#
#
# Elastic Compliance Matrix: (Units=1/GPa)
#
#
# Indices 1 2 3 4 5 6 
#
# 1 0.017779 -0.002982 -0.002812 0.000000 0.000000 0.000000
# 2 -0.002982 0.015984 -0.004401 0.000000 0.000000 0.000000
# 3 -0.002812 -0.004401 0.011998 0.000000 0.000000 0.000000
# 4 0.000000 0.000000 0.000000 0.027331 0.000000 0.000000
# 5 0.000000 0.000000 0.000000 0.000000 0.160776 0.000000
# 6 0.000000 0.000000 0.000000 0.000000 0.000000 0.066306
#
#
# Mechanical properties :
#
#
# Convention : Reuss Voigt Hill
#
# Bulk Modulus (GPa) = 39.41731 41.84726 40.63229
# Shear Modulus (GPa) = 15.19648 22.70129 18.94888
#
# Velocity S-wave (km/s) = 2.84031 3.47152 3.17166
# Velocity P-wave (km/s) = 5.62868 6.18741 5.91465
#
# Compressibility (1/GPa) = 0.02536956
#
# Stress axis : x y z
#
# Youngs Moduli (GPa) = 56.24737 62.56088 83.34422
#
# Poissons Ratio (x) = 0.18657 0.23439
# Poissons Ratio (y) = 0.16774 0.36683
# Poissons Ratio (z) = 0.15819 0.27536
#
# Static dielectric constant tensor:
#      x y z
#    x 3.297970 0.000000 0.000000 
#    y 0.000000 3.444180 0.000000 
#    z 0.000000 0.000000 3.507850 
# 
# 
# High freq. dielectric constant tensor:
#      x y z
#    x 1.714620 0.000000 0.000000 
#    y 0.000000 1.732030 0.000000 
#    z 0.000000 0.000000 1.735400 
# 
# From -- ./inp_files/73448.got.cif
#   From: 2010.03.12/outbox.cif.g09.slc.cpg/sg63_37_cif.got.tgz:73448.got - 2010.04.10 19:34:48.
