data_PCOD8261127
_publ_section_title
;
Structure prediction by ZEFSAII (Michael W. Deem and Ramdas Pophale) SiO2 
 PCOD8261127
Probable space group: C M C M
;
_chemical_formula_sum "Si O2"
_cell_formula_units_Z 64
_cell_length_a 14.585065
_cell_length_b 11.650376
_cell_length_c 18.338450
_cell_angle_alpha 90.000000
_cell_angle_beta 90.000000
_cell_angle_gamma 90.000000
_cell_volume 3116.096771
_symmetry_space_group_name_H-M "C M C M"
_symmetry_group_IT_number 63
_symmetry_cell_setting 'orthorhombic'
loop_
_space_group_symop_operation_xyz
x,y,z
-x,-y,1/2+z
x,-y,-z
-x,y,1/2-z
-x,-y,-z
x,y,1/2-z
-x,y,z
x,-y,1/2+z
1/2+x,1/2+y,z
1/2-x,1/2-y,1/2+z
1/2+x,1/2-y,-z
1/2-x,1/2+y,1/2-z
1/2-x,1/2-y,-z
1/2+x,1/2+y,1/2-z
1/2-x,1/2+y,z
1/2+x,1/2-y,1/2+z
loop_
_atom_site_type_symbol
_atom_site_label
_atom_site_fract_x
_atom_site_fract_y
_atom_site_fract_z
Si Si1 0.861004 0.706922 0.164156
Si Si2 0.098742 0.477495 0.084436
Si Si3 0.194916 0.740840 0.576949
Si Si4 0.000000 0.864245 0.932960
Si Si5 0.500000 0.614013 0.603382
O O1 0.872217 0.702613 0.250000
O O2 0.904468 0.593258 0.130635
O O3 0.755211 0.704409 0.140749
O O4 0.910282 0.821515 0.134104
O O5 0.181127 0.391016 0.102910
O O6 0.000000 0.417397 0.097348
O O7 0.111689 0.500000 0.000000
O O8 0.250000 0.750000 0.500000
O O9 0.094868 0.796895 0.579194
O O10 0.000000 0.976889 0.879488
O O11 0.000000 0.889653 0.017486
#
# Coordination Sequence:
#
# PCOD8261127 Si02
#       5
#    16  16  16   8   8
#     4  12  27  45  69 104 143 189 230 283 363 421
#     4  11  22  41  72 102 136 176 234 294 341 407
#     4  12  24  43  71 104 140 178 230 296 345 417
#     4  11  24  43  70 105 133 177 238 289 348 405
#     4  11  23  43  70 101 143 176 229 295 346 424
#
# _framework density 20.538515
#
# number of rings (size 3 to 8) (size 9 to 14) (size 15 to 20)
#    0.000    0.500    7.500    0.375    3.500    1.000 
#    0.000    1.875    0.000    0.000    0.000    0.000 
#    0.000    0.000    0.000    0.000    0.000    0.000 
#
# Total GULP energy -396442.351645 kJ/mol
# GULP energy per Si atom -12388.823489 kJ/mol
# Density = 2.049177 g / cm^3
# Si number density = 20.538515 Si / 1000 Ang^3
#
#
#
# Elastic Constant Matrix: (Units=GPa)
#
#
# Indices 1 2 3 4 5 6 
#
# 1 130.4101 53.6059 28.1107 0.0000 0.0000 0.0000
# 2 53.6059 120.9322 51.4463 0.0000 0.0000 0.0000
# 3 28.1107 51.4463 116.9118 0.0000 0.0000 0.0000
# 4 0.0000 0.0000 0.0000 23.8186 0.0000 0.0000
# 5 0.0000 0.0000 0.0000 0.0000 34.8918 0.0000
# 6 0.0000 0.0000 0.0000 0.0000 0.0000 41.0588
#
#
#
# Elastic Compliance Matrix: (Units=1/GPa)
#
#
# Indices 1 2 3 4 5 6 
#
# 1 0.009403 -0.003945 -0.000525 0.000000 0.000000 0.000000
# 2 -0.003945 0.011828 -0.004257 0.000000 0.000000 0.000000
# 3 -0.000525 -0.004257 0.010553 0.000000 0.000000 0.000000
# 4 0.000000 0.000000 0.000000 0.041984 0.000000 0.000000
# 5 0.000000 0.000000 0.000000 0.000000 0.028660 0.000000
# 6 0.000000 0.000000 0.000000 0.000000 0.000000 0.024355
#
#
# Mechanical properties :
#
#
# Convention : Reuss Voigt Hill
#
# Bulk Modulus (GPa) = 69.77624 70.50888 70.14256
# Shear Modulus (GPa) = 33.55412 35.62658 34.59035
#
# Velocity S-wave (km/s) = 4.04631 4.16940 4.10832
# Velocity P-wave (km/s) = 7.47511 7.58835 7.53195
#
# Compressibility (1/GPa) = 0.01433153
#
# Stress axis : x y z
#
# Youngs Moduli (GPa) = 106.35184 84.54196 94.76179
#
# Poissons Ratio (x) = 0.33349 0.04975
# Poissons Ratio (y) = 0.41952 0.40336
# Poissons Ratio (z) = 0.05584 0.35986
#
# Static dielectric constant tensor:
#      x y z
#    x 4.036900 0.000000 0.000000 
#    y 0.000000 4.340330 0.000000 
#    z 0.000000 0.000000 3.499240 
# 
# 
# High freq. dielectric constant tensor:
#      x y z
#    x 1.824900 0.000000 0.000000 
#    y 0.000000 1.813700 0.000000 
#    z 0.000000 0.000000 1.773390 
# 
# From -- ./inp_files/43492.got.cif
#   From: 2010.03.12/outbox.cif.g09.slc.cpg/sg63_22_cif.got.tgz:43492.got - 2010.04.10 19:34:48.
