data_PCOD8261175
_publ_section_title
;
Structure prediction by ZEFSAII (Michael W. Deem and Ramdas Pophale) SiO2 
 PCOD8261175
Probable space group: C M C M
;
_chemical_formula_sum "Si O2"
_cell_formula_units_Z 48
_cell_length_a 8.672471
_cell_length_b 22.382674
_cell_length_c 12.540977
_cell_angle_alpha 90.000000
_cell_angle_beta 90.000000
_cell_angle_gamma 90.000000
_cell_volume 2434.367812
_symmetry_space_group_name_H-M "C M C M"
_symmetry_group_IT_number 63
_symmetry_cell_setting 'orthorhombic'
loop_
_space_group_symop_operation_xyz
x,y,z
-x,-y,1/2+z
x,-y,-z
-x,y,1/2-z
-x,-y,-z
x,y,1/2-z
-x,y,z
x,-y,1/2+z
1/2+x,1/2+y,z
1/2-x,1/2-y,1/2+z
1/2+x,1/2-y,-z
1/2-x,1/2+y,1/2-z
1/2-x,1/2-y,-z
1/2+x,1/2+y,1/2-z
1/2-x,1/2+y,z
1/2+x,1/2-y,1/2+z
loop_
_atom_site_type_symbol
_atom_site_label
_atom_site_fract_x
_atom_site_fract_y
_atom_site_fract_z
Si Si1 0.320068 0.688263 0.037921
Si Si2 0.819439 0.504063 0.250000
Si Si3 0.816866 0.636392 0.250000
Si Si4 0.824982 0.606802 0.631307
O O1 0.500000 0.695880 0.057466
O O2 0.239615 0.671078 0.147204
O O3 0.250000 0.750000 0.000000
O O4 0.292177 0.637687 0.949086
O O5 0.741449 0.569294 0.250000
O O6 0.778798 0.463829 0.355205
O O7 0.000000 0.514847 0.250000
O O8 0.000000 0.634602 0.250000
O O9 0.815030 0.636604 0.750000
O O10 0.000000 0.613222 0.587299
#
# Coordination Sequence:
#
# PCOD8261175 Si02
#       4
#    16   8   8  16
#     4  12  26  42  61  88 124 164 204 252 306 362
#     4   7  16  36  65  94 121 156 200 245 294 361
#     4  11  23  42  65  92 121 158 206 251 300 359
#     4   8  17  38  65  91 119 157 201 244 294 355
#
# _framework density 19.717642999999999
#
# number of rings (size 3 to 8) (size 9 to 14) (size 15 to 20)
#    1.000    1.333    0.000    3.500    2.333    2.000 
#    0.000   10.000    0.000    0.000    0.000    0.000 
#    0.000    0.000    0.000    0.000    0.000    0.000 
#
# Total GULP energy -297352.301870 kJ/mol
# GULP energy per Si atom -12389.679245 kJ/mol
# Density = 1.967276 g / cm^3
# Si number density = 19.717643 Si / 1000 Ang^3
#
#
#
# Elastic Constant Matrix: (Units=GPa)
#
#
# Indices 1 2 3 4 5 6 
#
# 1 97.7834 47.9580 41.5766 0.0000 0.0000 0.0000
# 2 47.9580 157.3480 76.7941 0.0000 0.0000 0.0000
# 3 41.5766 76.7941 125.3815 0.0000 0.0000 0.0000
# 4 0.0000 0.0000 0.0000 32.5264 0.0000 0.0000
# 5 0.0000 0.0000 0.0000 0.0000 33.9213 0.0000
# 6 0.0000 0.0000 0.0000 0.0000 0.0000 25.0632
#
#
#
# Elastic Compliance Matrix: (Units=1/GPa)
#
#
# Indices 1 2 3 4 5 6 
#
# 1 0.012593 -0.002568 -0.002603 0.000000 0.000000 0.000000
# 2 -0.002568 0.009589 -0.005021 0.000000 0.000000 0.000000
# 3 -0.002603 -0.005021 0.011914 0.000000 0.000000 0.000000
# 4 0.000000 0.000000 0.000000 0.030744 0.000000 0.000000
# 5 0.000000 0.000000 0.000000 0.000000 0.029480 0.000000
# 6 0.000000 0.000000 0.000000 0.000000 0.000000 0.039899
#
#
# Mechanical properties :
#
#
# Convention : Reuss Voigt Hill
#
# Bulk Modulus (GPa) = 72.93214 79.24115 76.08664
# Shear Modulus (GPa) = 31.41211 32.58114 31.99662
#
# Velocity S-wave (km/s) = 3.99569 4.06936 4.03270
# Velocity P-wave (km/s) = 7.63911 7.89651 7.76887
#
# Compressibility (1/GPa) = 0.01371138
#
# Stress axis : x y z
#
# Youngs Moduli (GPa) = 79.41024 104.28956 83.93194
#
# Poissons Ratio (x) = 0.26779 0.21848
# Poissons Ratio (y) = 0.20390 0.42146
# Poissons Ratio (z) = 0.20671 0.52369
#
# Static dielectric constant tensor:
#      x y z
#    x 3.374300 0.000000 0.000000 
#    y 0.000000 3.948880 0.000000 
#    z 0.000000 0.000000 3.468870 
# 
# 
# High freq. dielectric constant tensor:
#      x y z
#    x 1.748940 0.000000 0.000000 
#    y 0.000000 1.774150 0.000000 
#    z 0.000000 0.000000 1.765030 
# 
# From -- ./inp_files/15681.got.cif
#   From: 2010.03.12/outbox.cif.g09.slc.cpg/sg63_8_cif.got.tgz:15681.got - 2010.04.10 19:34:48.
