data_PCOD8261961
_publ_section_title
;
Structure prediction by ZEFSAII (Michael W. Deem and Ramdas Pophale) SiO2 
 PCOD8261961
Probable space group: C M C A
;
_chemical_formula_sum "Si O2"
_cell_formula_units_Z 88
_cell_length_a 14.322492
_cell_length_b 24.220474
_cell_length_c 13.724010
_cell_angle_alpha 90.000000
_cell_angle_beta 90.000000
_cell_angle_gamma 90.000000
_cell_volume 4760.825378
_symmetry_space_group_name_H-M "C M C A"
_symmetry_group_IT_number 64
_symmetry_cell_setting 'orthorhombic'
loop_
_space_group_symop_operation_xyz
x,y,z
-x,1/2-y,1/2+z
x,-y,-z
-x,1/2+y,1/2-z
-x,-y,-z
x,1/2+y,1/2-z
-x,y,z
x,1/2-y,1/2+z
1/2+x,1/2+y,z
1/2-x,-y,1/2+z
1/2+x,1/2-y,-z
1/2-x,y,1/2-z
1/2-x,1/2-y,-z
1/2+x,y,1/2-z
1/2-x,1/2+y,z
1/2+x,-y,1/2+z
loop_
_atom_site_type_symbol
_atom_site_label
_atom_site_fract_x
_atom_site_fract_y
_atom_site_fract_z
Si Si1 0.893028 0.023585 0.196003
Si Si2 0.169242 0.375121 0.820555
Si Si3 0.164497 0.404727 0.314627
Si Si4 0.500000 0.300689 0.724907
Si Si5 0.312907 0.589841 0.038045
Si Si6 0.500000 0.158084 0.436438
Si Si7 0.000000 0.678551 0.652910
O O1 0.869228 0.065783 0.283117
O O2 0.827291 0.033812 0.101047
O O3 0.000000 0.030685 0.164724
O O4 0.875464 0.961103 0.232541
O O5 0.250000 0.352813 0.750000
O O6 0.089170 0.329354 0.824804
O O7 0.216247 0.381355 0.927279
O O8 0.250000 0.383089 0.250000
O O9 0.196103 0.419304 0.423985
O O10 0.089808 0.356081 0.314907
O O11 0.500000 0.303644 0.841773
O O12 0.500000 0.236169 0.706462
O O13 0.405659 0.623047 0.068563
O O14 0.500000 0.191725 0.537510
#
# Coordination Sequence:
#
# PCOD8261961 Si02
#       7
#    16  16  16   8  16   8   8
#     4  11  18  33  63  93 115 151 189 239 292 343
#     4  10  19  34  61  95 111 143 194 244 290 329
#     4  11  23  40  56  83 125 157 191 231 291 363
#     4  12  20  41  62  84 119 151 193 252 290 328
#     4  10  19  35  60  91 114 146 193 241 290 338
#     4  10  18  39  61  87 109 140 203 249 268 336
#     4  10  26  40  59  84 115 156 200 235 293 342
#
# _framework density 18.484190000000002
#
# number of rings (size 3 to 8) (size 9 to 14) (size 15 to 20)
#    0.000    1.455    6.364    2.182    0.000    1.455 
#    3.273    1.818    0.000    1.091    0.000    0.000 
#    0.000    0.000    0.000    0.000    0.000    0.000 
#
# Total GULP energy -545430.553257 kJ/mol
# GULP energy per Si atom -12396.148938 kJ/mol
# Density = 1.844212 g / cm^3
# Si number density = 18.484190 Si / 1000 Ang^3
#
#
#
# Elastic Constant Matrix: (Units=GPa)
#
#
# Indices 1 2 3 4 5 6 
#
# 1 125.0128 51.1401 45.1638 0.0000 0.0000 0.0000
# 2 51.1401 124.5287 44.1011 0.0000 0.0000 0.0000
# 3 45.1638 44.1011 74.6861 0.0000 0.0000 0.0000
# 4 0.0000 0.0000 0.0000 23.4047 0.0000 0.0000
# 5 0.0000 0.0000 0.0000 0.0000 27.2914 0.0000
# 6 0.0000 0.0000 0.0000 0.0000 0.0000 11.5315
#
#
#
# Elastic Compliance Matrix: (Units=1/GPa)
#
#
# Indices 1 2 3 4 5 6 
#
# 1 0.010915 -0.002712 -0.004999 0.000000 0.000000 0.000000
# 2 -0.002712 0.010827 -0.004753 0.000000 0.000000 0.000000
# 3 -0.004999 -0.004753 0.019219 0.000000 0.000000 0.000000
# 4 0.000000 0.000000 0.000000 0.042726 0.000000 0.000000
# 5 0.000000 0.000000 0.000000 0.000000 0.036642 0.000000
# 6 0.000000 0.000000 0.000000 0.000000 0.000000 0.086719
#
#
# Mechanical properties :
#
#
# Convention : Reuss Voigt Hill
#
# Bulk Modulus (GPa) = 62.37314 67.22643 64.79978
# Shear Modulus (GPa) = 21.06855 24.70036 22.88446
#
# Velocity S-wave (km/s) = 3.37978 3.65951 3.52242
# Velocity P-wave (km/s) = 7.00342 7.36917 7.18862
#
# Compressibility (1/GPa) = 0.01603254
#
# Stress axis : x y z
#
# Youngs Moduli (GPa) = 91.62108 92.35818 52.03163
#
# Poissons Ratio (x) = 0.25047 0.26010
# Poissons Ratio (y) = 0.24847 0.24733
# Poissons Ratio (z) = 0.45799 0.43902
#
# Static dielectric constant tensor:
#      x y z
#    x 3.609900 0.000000 0.000000 
#    y 0.000000 3.138650 0.000000 
#    z 0.000000 0.000000 3.370980 
# 
# 
# High freq. dielectric constant tensor:
#      x y z
#    x 1.727430 0.000000 0.000000 
#    y 0.000000 1.697580 0.000000 
#    z 0.000000 0.000000 1.702900 
# 
# From -- ./inp_files/23801.got.cif
#   From: 2010.03.12/outbox.cif.g09.slc.cpg/sg64_12_cif.got.tgz:23801.got - 2010.04.10 20:19:32.
