data_PCOD8261102
_publ_section_title
;
Structure prediction by ZEFSAII (Michael W. Deem and Ramdas Pophale) SiO2 
 PCOD8261102
Probable space group: C M C M
;
_chemical_formula_sum "Si O2"
_cell_formula_units_Z 64
_cell_length_a 19.482480
_cell_length_b 9.312317
_cell_length_c 15.488801
_cell_angle_alpha 90.000000
_cell_angle_beta 90.000000
_cell_angle_gamma 90.000000
_cell_volume 2810.087159
_symmetry_space_group_name_H-M "C M C M"
_symmetry_group_IT_number 63
_symmetry_cell_setting 'orthorhombic'
loop_
_space_group_symop_operation_xyz
x,y,z
-x,-y,1/2+z
x,-y,-z
-x,y,1/2-z
-x,-y,-z
x,y,1/2-z
-x,y,z
x,-y,1/2+z
1/2+x,1/2+y,z
1/2-x,1/2-y,1/2+z
1/2+x,1/2-y,-z
1/2-x,1/2+y,1/2-z
1/2-x,1/2-y,-z
1/2+x,1/2+y,1/2-z
1/2-x,1/2+y,z
1/2+x,1/2-y,1/2+z
loop_
_atom_site_type_symbol
_atom_site_label
_atom_site_fract_x
_atom_site_fract_y
_atom_site_fract_z
Si Si1 0.924311 0.294135 0.852677
Si Si2 0.810184 0.085566 0.846241
Si Si3 0.204703 0.222981 0.084477
Si Si4 0.420435 0.880447 0.148634
O O1 0.923445 0.282929 0.750000
O O2 0.871373 0.177757 0.891297
O O3 0.902820 0.455718 0.877688
O O4 0.000000 0.258739 0.888686
O O5 0.830250 0.036341 0.750000
O O6 0.743487 0.188149 0.840389
O O7 0.795284 0.946872 0.902859
O O8 0.126071 0.279860 0.086665
O O9 0.250000 0.250000 0.000000
O O10 0.405758 0.852117 0.250000
O O11 0.500000 0.846641 0.128369
#
# Coordination Sequence:
#
# PCOD8261102 Si02
#       4
#    16  16  16  16
#     4   8  16  33  60  94 125 153 198 266 328 370
#     4  11  22  38  62  87 118 166 219 263 306 373
#     4  12  25  40  58  90 131 166 204 260 327 381
#     4   9  18  37  66  95 124 165 220 274 321 380
#
# _framework density 22.775095
#
# number of rings (size 3 to 8) (size 9 to 14) (size 15 to 20)
#    0.000    2.000    0.000    6.000    0.000    3.000 
#    0.000    3.750    0.000    9.000    0.000    0.000 
#    0.000    0.000    0.000    0.000    0.000    0.000 
#
# Total GULP energy -396673.335876 kJ/mol
# GULP energy per Si atom -12396.041746 kJ/mol
# Density = 2.272326 g / cm^3
# Si number density = 22.775095 Si / 1000 Ang^3
#
#
#
# Elastic Constant Matrix: (Units=GPa)
#
#
# Indices 1 2 3 4 5 6 
#
# 1 153.1651 82.8294 40.5886 0.0000 0.0000 0.0000
# 2 82.8294 148.0507 36.0321 0.0000 0.0000 0.0000
# 3 40.5886 36.0321 66.2071 0.0000 0.0000 0.0000
# 4 0.0000 0.0000 0.0000 31.5451 0.0000 0.0000
# 5 0.0000 0.0000 0.0000 0.0000 32.8117 0.0000
# 6 0.0000 0.0000 0.0000 0.0000 0.0000 51.4292
#
#
#
# Elastic Compliance Matrix: (Units=1/GPa)
#
#
# Indices 1 2 3 4 5 6 
#
# 1 0.010044 -0.004750 -0.003573 0.000000 0.000000 0.000000
# 2 -0.004750 0.010032 -0.002548 0.000000 0.000000 0.000000
# 3 -0.003573 -0.002548 0.018681 0.000000 0.000000 0.000000
# 4 0.000000 0.000000 0.000000 0.031701 0.000000 0.000000
# 5 0.000000 0.000000 0.000000 0.000000 0.030477 0.000000
# 6 0.000000 0.000000 0.000000 0.000000 0.000000 0.019444
#
#
# Mechanical properties :
#
#
# Convention : Reuss Voigt Hill
#
# Bulk Modulus (GPa) = 58.76644 76.25813 67.51228
# Shear Modulus (GPa) = 33.83135 37.02206 35.42671
#
# Velocity S-wave (km/s) = 3.85834 4.03619 3.94826
# Velocity P-wave (km/s) = 6.76077 7.43484 7.10580
#
# Compressibility (1/GPa) = 0.01701652
#
# Stress axis : x y z
#
# Youngs Moduli (GPa) = 99.55810 99.68138 53.53058
#
# Poissons Ratio (x) = 0.47349 0.19125
# Poissons Ratio (y) = 0.47290 0.13638
# Poissons Ratio (z) = 0.35569 0.25396
#
# Static dielectric constant tensor:
#      x y z
#    x 4.636370 0.000000 0.000000 
#    y 0.000000 4.088270 0.000000 
#    z 0.000000 0.000000 3.727760 
# 
# 
# High freq. dielectric constant tensor:
#      x y z
#    x 1.910830 0.000000 0.000000 
#    y 0.000000 1.894890 0.000000 
#    z 0.000000 0.000000 1.876110 
# 
# From -- ./inp_files/31316.got.cif
#   From: 2010.03.12/outbox.cif.g09.slc.cpg/sg63_16_cif.got.tgz:31316.got - 2010.04.10 19:34:48.
