data_PCOD8261341
_publ_section_title
;
Structure prediction by ZEFSAII (Michael W. Deem and Ramdas Pophale) SiO2 
 PCOD8261341
Probable space group: C M C M
;
_chemical_formula_sum "Si O2"
_cell_formula_units_Z 96
_cell_length_a 9.564735
_cell_length_b 24.034331
_cell_length_c 26.012711
_cell_angle_alpha 90.000000
_cell_angle_beta 90.000000
_cell_angle_gamma 90.000000
_cell_volume 5979.854210
_symmetry_space_group_name_H-M "C M C M"
_symmetry_group_IT_number 63
_symmetry_cell_setting 'orthorhombic'
loop_
_space_group_symop_operation_xyz
x,y,z
-x,-y,1/2+z
x,-y,-z
-x,y,1/2-z
-x,-y,-z
x,y,1/2-z
-x,y,z
x,-y,1/2+z
1/2+x,1/2+y,z
1/2-x,1/2-y,1/2+z
1/2+x,1/2-y,-z
1/2-x,1/2+y,1/2-z
1/2-x,1/2-y,-z
1/2+x,1/2+y,1/2-z
1/2-x,1/2+y,z
1/2+x,1/2-y,1/2+z
loop_
_atom_site_type_symbol
_atom_site_label
_atom_site_fract_x
_atom_site_fract_y
_atom_site_fract_z
Si Si1 0.663800 0.336353 0.191232
Si Si2 0.337617 0.246566 0.110117
Si Si3 0.657409 0.182970 0.961174
Si Si4 0.666775 0.013439 0.442616
Si Si5 0.157531 0.411713 0.122711
Si Si6 0.836491 0.364361 0.567002
O O1 0.708270 0.327734 0.250000
O O2 0.500000 0.348376 0.185511
O O3 0.707176 0.279110 0.161862
O O4 0.744757 0.389558 0.168636
O O5 0.500000 0.256738 0.098807
O O6 0.255150 0.268722 0.060719
O O7 0.306422 0.179680 0.113644
O O8 0.500000 0.206427 0.967615
O O9 0.657270 0.130836 0.923750
O O10 0.723255 0.162474 0.014773
O O11 0.500000 0.010102 0.443683
O O12 0.725610 0.073891 0.423950
O O13 0.724035 0.000000 0.500000
O O14 0.720317 0.969219 0.400162
O O15 0.000000 0.419592 0.144357
O O16 0.000000 0.373146 0.558427
#
# Coordination Sequence:
#
# PCOD8261341 Si02
#       6
#    16  16  16  16  16  16
#     4   9  18  32  47  60  79 110 143 177 222 266
#     4   9  17  27  40  60  83 107 140 178 210 245
#     4   9  15  24  39  60  86 114 140 166 201 246
#     4   9  14  23  40  63  91 120 144 165 199 253
#     4   9  16  26  44  68  88 108 141 181 209 242
#     4   9  15  23  38  60  87 116 143 166 197 247
#
# _framework density 16.053902999999998
#
# number of rings (size 3 to 8) (size 9 to 14) (size 15 to 20)
#    0.000    3.000    1.667    0.500    0.000    0.333 
#    0.000    0.000    0.000    3.500    0.000    4.667 
#    0.000    0.000    0.000    0.000    0.000    0.000 
#
# Total GULP energy -594756.996551 kJ/mol
# GULP energy per Si atom -12390.770761 kJ/mol
# Density = 1.601736 g / cm^3
# Si number density = 16.053903 Si / 1000 Ang^3
#
#
#
# Elastic Constant Matrix: (Units=GPa)
#
#
# Indices 1 2 3 4 5 6 
#
# 1 25.4181 24.3694 19.8816 0.0000 0.0000 0.0000
# 2 24.3694 133.3251 50.0663 0.0000 0.0000 0.0000
# 3 19.8816 50.0663 82.9791 0.0000 0.0000 0.0000
# 4 0.0000 0.0000 0.0000 12.8145 0.0000 0.0000
# 5 0.0000 0.0000 0.0000 0.0000 12.5810 0.0000
# 6 0.0000 0.0000 0.0000 0.0000 0.0000 15.2968
#
#
#
# Elastic Compliance Matrix: (Units=1/GPa)
#
#
# Indices 1 2 3 4 5 6 
#
# 1 0.052165 -0.006260 -0.008722 0.000000 0.000000 0.000000
# 2 -0.006260 0.010449 -0.004805 0.000000 0.000000 0.000000
# 3 -0.008722 -0.004805 0.017040 0.000000 0.000000 0.000000
# 4 0.000000 0.000000 0.000000 0.078037 0.000000 0.000000
# 5 0.000000 0.000000 0.000000 0.000000 0.079485 0.000000
# 6 0.000000 0.000000 0.000000 0.000000 0.000000 0.065373
#
#
# Mechanical properties :
#
#
# Convention : Reuss Voigt Hill
#
# Bulk Modulus (GPa) = 24.94893 47.81745 36.38319
# Shear Modulus (GPa) = 14.06543 17.96547 16.01545
#
# Velocity S-wave (km/s) = 2.96317 3.34888 3.16191
# Velocity P-wave (km/s) = 5.22318 6.69355 6.00355
#
# Compressibility (1/GPa) = 0.04008188
#
# Stress axis : x y z
#
# Youngs Moduli (GPa) = 19.16977 95.70423 58.68583
#
# Poissons Ratio (x) = 0.59908 0.51185
# Poissons Ratio (y) = 0.12000 0.28196
# Poissons Ratio (z) = 0.16720 0.45982
#
# Static dielectric constant tensor:
#      x y z
#    x 2.857290 0.000000 0.000000 
#    y 0.000000 3.365470 0.000000 
#    z 0.000000 0.000000 2.895060 
# 
# 
# High freq. dielectric constant tensor:
#      x y z
#    x 1.580740 0.000000 0.000000 
#    y 0.000000 1.624330 0.000000 
#    z 0.000000 0.000000 1.588890 
# 
# From -- ./inp_files/53057.got.cif
#   From: 2010.03.12/outbox.cif.g09.slc.cpg/sg63_27_cif.got.tgz:53057.got - 2010.04.10 19:34:48.
