data_PCOD8261724
_publ_section_title
;
Structure prediction by ZEFSAII (Michael W. Deem and Ramdas Pophale) SiO2 
 PCOD8261724
Probable space group: C M C A
;
_chemical_formula_sum "Si O2"
_cell_formula_units_Z 96
_cell_length_a 24.333060
_cell_length_b 8.969898
_cell_length_c 24.209481
_cell_angle_alpha 90.000000
_cell_angle_beta 90.000000
_cell_angle_gamma 90.000000
_cell_volume 5284.083974
_symmetry_space_group_name_H-M "C M C A"
_symmetry_group_IT_number 64
_symmetry_cell_setting 'orthorhombic'
loop_
_space_group_symop_operation_xyz
x,y,z
-x,1/2-y,1/2+z
x,-y,-z
-x,1/2+y,1/2-z
-x,-y,-z
x,1/2+y,1/2-z
-x,y,z
x,1/2-y,1/2+z
1/2+x,1/2+y,z
1/2-x,-y,1/2+z
1/2+x,1/2-y,-z
1/2-x,y,1/2-z
1/2-x,1/2-y,-z
1/2+x,y,1/2-z
1/2-x,1/2+y,z
1/2+x,-y,1/2+z
loop_
_atom_site_type_symbol
_atom_site_label
_atom_site_fract_x
_atom_site_fract_y
_atom_site_fract_z
Si Si1 0.936442 0.860198 0.873060
Si Si2 0.163211 0.722822 0.139659
Si Si3 0.127725 0.413649 0.159304
Si Si4 0.213048 0.834678 0.843833
Si Si5 0.127516 0.972727 0.214734
Si Si6 0.657695 0.992378 0.435739
O O1 0.919749 0.685786 0.868881
O O2 0.921642 0.935540 0.814427
O O3 0.902905 0.943719 0.921640
O O4 0.000000 0.875132 0.887200
O O5 0.132773 0.567817 0.125364
O O6 0.222745 0.684683 0.165158
O O7 0.130785 0.808633 0.188059
O O8 0.164350 0.821075 0.084016
O O9 0.185825 0.328393 0.158447
O O10 0.112740 0.457836 0.221778
O O11 0.185188 0.940224 0.797026
O O12 0.202505 0.907695 0.903943
O O13 0.669819 0.000000 0.500000
#
# Coordination Sequence:
#
# PCOD8261724 Si02
#       6
#    16  16  16  16  16  16
#     4   9  20  37  52  70  98 129 166 214 260 298
#     4  10  18  31  50  75 103 133 168 200 237 295
#     4  10  18  31  49  75 104 130 165 203 238 284
#     4   9  19  31  47  74 107 135 160 196 239 290
#     4   9  19  31  48  74 106 139 165 192 237 301
#     4   9  20  37  53  71  96 130 170 209 256 308
#
# _framework density 18.167766
#
# number of rings (size 3 to 8) (size 9 to 14) (size 15 to 20)
#    0.000    3.333    0.000    4.000    0.000    5.667 
#    0.000    6.667    0.000    1.000    0.000    0.000 
#    0.000    0.000    0.000    0.000    0.000    0.000 
#
# Total GULP energy -594998.200813 kJ/mol
# GULP energy per Si atom -12395.795850 kJ/mol
# Density = 1.812642 g / cm^3
# Si number density = 18.167766 Si / 1000 Ang^3
#
#
#
# Elastic Constant Matrix: (Units=GPa)
#
#
# Indices 1 2 3 4 5 6 
#
# 1 65.4878 12.3396 -24.9248 0.0000 0.0000 0.0000
# 2 12.3396 127.6796 2.5517 0.0000 0.0000 0.0000
# 3 -24.9248 2.5517 53.2223 0.0000 0.0000 0.0000
# 4 0.0000 0.0000 0.0000 15.3527 0.0000 0.0000
# 5 0.0000 0.0000 0.0000 0.0000 7.6220 0.0000
# 6 0.0000 0.0000 0.0000 0.0000 0.0000 13.9615
#
#
#
# Elastic Compliance Matrix: (Units=1/GPa)
#
#
# Indices 1 2 3 4 5 6 
#
# 1 0.019092 -0.002026 0.009038 0.000000 0.000000 0.000000
# 2 -0.002026 0.008055 -0.001335 0.000000 0.000000 0.000000
# 3 0.009038 -0.001335 0.023086 0.000000 0.000000 0.000000
# 4 0.000000 0.000000 0.000000 0.065135 0.000000 0.000000
# 5 0.000000 0.000000 0.000000 0.000000 0.131199 0.000000
# 6 0.000000 0.000000 0.000000 0.000000 0.000000 0.071625
#
#
# Mechanical properties :
#
#
# Convention : Reuss Voigt Hill
#
# Bulk Modulus (GPa) = 16.23725 25.14696 20.69211
# Shear Modulus (GPa) = 15.27346 24.48213 19.87780
#
# Velocity S-wave (km/s) = 2.90261 3.67489 3.31134
# Velocity P-wave (km/s) = 4.49337 5.64606 5.10237
#
# Compressibility (1/GPa) = 0.06158677
#
# Stress axis : x y z
#
# Youngs Moduli (GPa) = 52.37905 124.15334 43.31675
#
# Poissons Ratio (x) = 0.25150 -0.39150
# Poissons Ratio (y) = 0.10611 0.05782
# Poissons Ratio (z) = -0.47340 0.16573
#
# Static dielectric constant tensor:
#      x y z
#    x 3.011000 0.000000 0.000000 
#    y 0.000000 3.650970 0.000000 
#    z 0.000000 0.000000 2.976650 
# 
# 
# High freq. dielectric constant tensor:
#      x y z
#    x 1.673430 0.000000 0.000000 
#    y 0.000000 1.725350 0.000000 
#    z 0.000000 0.000000 1.672390 
# 
# From -- ./inp_files/51206.got.cif
#   From: 2010.03.12/outbox.cif.g09.slc.cpg/sg64_26_cif.got.tgz:51206.got - 2010.04.10 20:19:32.
