data_PCOD8261802
_publ_section_title
;
Structure prediction by ZEFSAII (Michael W. Deem and Ramdas Pophale) SiO2 
 PCOD8261802
Probable space group: C M C A
;
_chemical_formula_sum "Si O2"
_cell_formula_units_Z 48
_cell_length_a 25.545434
_cell_length_b 5.333406
_cell_length_c 13.333565
_cell_angle_alpha 90.000000
_cell_angle_beta 90.000000
_cell_angle_gamma 90.000000
_cell_volume 1816.620509
_symmetry_space_group_name_H-M "C M C A"
_symmetry_group_IT_number 64
_symmetry_cell_setting 'orthorhombic'
loop_
_space_group_symop_operation_xyz
x,y,z
-x,1/2-y,1/2+z
x,-y,-z
-x,1/2+y,1/2-z
-x,-y,-z
x,1/2+y,1/2-z
-x,y,z
x,1/2-y,1/2+z
1/2+x,1/2+y,z
1/2-x,-y,1/2+z
1/2+x,1/2-y,-z
1/2-x,y,1/2-z
1/2-x,1/2-y,-z
1/2+x,y,1/2-z
1/2-x,1/2+y,z
1/2+x,-y,1/2+z
loop_
_atom_site_type_symbol
_atom_site_label
_atom_site_fract_x
_atom_site_fract_y
_atom_site_fract_z
Si Si1 0.720120 0.013510 0.118289
Si Si2 0.060765 0.889656 0.866519
Si Si3 0.896708 0.608560 0.144586
O O1 0.757552 0.243286 0.153304
O O2 0.664330 0.068320 0.168352
O O3 0.712287 0.000000 0.000000
O O4 0.071964 0.861743 0.748402
O O5 0.091276 0.130177 0.914049
O O6 0.000000 0.924475 0.888799
O O7 0.081907 0.632040 0.917258
#
# Coordination Sequence:
#
# PCOD8261802 Si02
#       3
#    16  16  16
#     4  10  21  37  54  72  99 135 171 208 249 292
#     4  10  19  33  53  76 105 134 160 200 253 302
#     4  10  18  32  53  76  98 133 171 200 245 301
#
# _framework density 26.422692999999999
#
# number of rings (size 3 to 8) (size 9 to 14) (size 15 to 20)
#    0.000    2.000    0.000    7.000    0.000    0.000 
#    0.000   20.000    0.000   11.000    0.000    0.000 
#    0.000    0.000    0.000    0.000    0.000    0.000 
#
# Total GULP energy -297516.706082 kJ/mol
# GULP energy per Si atom -12396.529420 kJ/mol
# Density = 2.636255 g / cm^3
# Si number density = 26.422693 Si / 1000 Ang^3
#
#
#
# Elastic Constant Matrix: (Units=GPa)
#
#
# Indices 1 2 3 4 5 6 
#
# 1 189.4406 78.6704 -4.8535 0.0000 0.0000 0.0000
# 2 78.6704 302.4227 9.4264 0.0000 0.0000 0.0000
# 3 -4.8535 9.4264 22.9975 0.0000 0.0000 0.0000
# 4 0.0000 0.0000 0.0000 -1.4034 0.0000 0.0000
# 5 0.0000 0.0000 0.0000 0.0000 39.6584 0.0000
# 6 0.0000 0.0000 0.0000 0.0000 0.0000 62.6040
#
#
#
# Elastic Compliance Matrix: (Units=1/GPa)
#
#
# Indices 1 2 3 4 5 6 
#
# 1 0.006002 -0.001621 0.001931 0.000000 0.000000 0.000000
# 2 -0.001621 0.003787 -0.001895 0.000000 0.000000 0.000000
# 3 0.001931 -0.001895 0.044667 0.000000 0.000000 0.000000
# 4 0.000000 0.000000 0.000000 -0.712572 0.000000 0.000000
# 5 0.000000 0.000000 0.000000 0.000000 0.025215 0.000000
# 6 0.000000 0.000000 0.000000 0.000000 0.000000 0.015973
#
#
# Mechanical properties :
#
#
# Convention : Reuss Voigt Hill
#
# Bulk Modulus (GPa) = 19.49833 75.70526 47.60179
# Shear Modulus (GPa) = -8.37995 48.94630 20.28317
#
# Velocity S-wave (km/s) = -1.78280 4.30866 2.77364
# Velocity P-wave (km/s) = 1.77695 7.31208 5.32091
#
# Compressibility (1/GPa) = 0.05128644
#
# Stress axis : x y z
#
# Youngs Moduli (GPa) = 166.62500 264.02903 22.38782
#
# Poissons Ratio (x) = 0.42809 -0.04323
# Poissons Ratio (y) = 0.27016 0.04242
# Poissons Ratio (z) = -0.32178 0.50023
#
# Static dielectric constant tensor:
#      x y z
#    x 4.429430 0.000000 0.000000 
#    y 0.000000 7.082220 0.000000 
#    z 0.000000 0.000000 4.251370 
# 
# 
# High freq. dielectric constant tensor:
#      x y z
#    x 2.048340 0.000000 0.000000 
#    y 0.000000 2.104050 0.000000 
#    z 0.000000 0.000000 2.047790 
# 
# From -- ./inp_files/716.got.cif
#   From: 2010.03.12/outbox.cif.g09.slc.cpg/sg64_1_cif.got.tgz:716.got - 2010.04.10 20:19:32.
