data_PCOD8261868
_publ_section_title
;
Structure prediction by ZEFSAII (Michael W. Deem and Ramdas Pophale) SiO2 
 PCOD8261868
Probable space group: C M C A
;
_chemical_formula_sum "Si O2"
_cell_formula_units_Z 64
_cell_length_a 8.803727
_cell_length_b 15.163950
_cell_length_c 27.129547
_cell_angle_alpha 90.000000
_cell_angle_beta 90.000000
_cell_angle_gamma 90.000000
_cell_volume 3621.774884
_symmetry_space_group_name_H-M "C M C A"
_symmetry_group_IT_number 64
_symmetry_cell_setting 'orthorhombic'
loop_
_space_group_symop_operation_xyz
x,y,z
-x,1/2-y,1/2+z
x,-y,-z
-x,1/2+y,1/2-z
-x,-y,-z
x,1/2+y,1/2-z
-x,y,z
x,1/2-y,1/2+z
1/2+x,1/2+y,z
1/2-x,-y,1/2+z
1/2+x,1/2-y,-z
1/2-x,y,1/2-z
1/2-x,1/2-y,-z
1/2+x,y,1/2-z
1/2-x,1/2+y,z
1/2+x,-y,1/2+z
loop_
_atom_site_type_symbol
_atom_site_label
_atom_site_fract_x
_atom_site_fract_y
_atom_site_fract_z
Si Si1 0.171652 0.132926 0.127632
Si Si2 0.328136 0.175123 0.859246
Si Si3 0.679913 0.478144 0.197509
Si Si4 0.320998 0.755407 0.946613
O O1 0.238435 0.052645 0.159413
O O2 0.000000 0.111383 0.110384
O O3 0.172483 0.223337 0.160358
O O4 0.274248 0.150730 0.078827
O O5 0.500000 0.139104 0.864118
O O6 0.234884 0.116808 0.820878
O O7 0.247459 0.175253 0.913288
O O8 0.500000 0.478828 0.202269
O O9 0.750000 0.500377 0.250000
O O10 0.500000 0.746054 0.950046
O O11 0.250000 0.750000 0.000000
#
# Coordination Sequence:
#
# PCOD8261868 Si02
#       4
#    16  16  16  16
#     4   8  19  37  55  78 111 144 180 225 270 320
#     4   9  19  37  56  80 111 143 181 226 269 321
#     4  11  22  37  56  81 111 145 182 224 271 321
#     4  10  18  33  58  83 109 144 180 221 274 324
#
# _framework density 17.670894000000001
#
# number of rings (size 3 to 8) (size 9 to 14) (size 15 to 20)
#    1.500    1.000    0.000    3.000    0.000    3.000 
#    0.000    3.750    0.000    7.500    0.000    0.000 
#    0.000    0.000    0.000    0.000    0.000    0.000 
#
# Total GULP energy -396472.693660 kJ/mol
# GULP energy per Si atom -12389.771677 kJ/mol
# Density = 1.763067 g / cm^3
# Si number density = 17.670894 Si / 1000 Ang^3
#
#
#
# Elastic Constant Matrix: (Units=GPa)
#
#
# Indices 1 2 3 4 5 6 
#
# 1 109.2809 19.5581 40.5838 0.0000 0.0000 0.0000
# 2 19.5581 48.3343 11.9101 0.0000 0.0000 0.0000
# 3 40.5838 11.9101 81.2808 0.0000 0.0000 0.0000
# 4 0.0000 0.0000 0.0000 31.8061 0.0000 0.0000
# 5 0.0000 0.0000 0.0000 0.0000 35.3796 0.0000
# 6 0.0000 0.0000 0.0000 0.0000 0.0000 25.1210
#
#
#
# Elastic Compliance Matrix: (Units=1/GPa)
#
#
# Indices 1 2 3 4 5 6 
#
# 1 0.011759 -0.003435 -0.005368 0.000000 0.000000 0.000000
# 2 -0.003435 0.022468 -0.001577 0.000000 0.000000 0.000000
# 3 -0.005368 -0.001577 0.015214 0.000000 0.000000 0.000000
# 4 0.000000 0.000000 0.000000 0.031441 0.000000 0.000000
# 5 0.000000 0.000000 0.000000 0.000000 0.028265 0.000000
# 6 0.000000 0.000000 0.000000 0.000000 0.000000 0.039807
#
#
# Mechanical properties :
#
#
# Convention : Reuss Voigt Hill
#
# Bulk Modulus (GPa) = 34.86666 42.55555 38.71111
# Shear Modulus (GPa) = 27.89013 29.58428 28.73720
#
# Velocity S-wave (km/s) = 3.97710 4.09612 4.03705
# Velocity P-wave (km/s) = 6.39248 6.81949 6.60943
#
# Compressibility (1/GPa) = 0.02868069
#
# Stress axis : x y z
#
# Youngs Moduli (GPa) = 85.04071 44.50785 65.72755
#
# Poissons Ratio (x) = 0.15291 0.35282
# Poissons Ratio (y) = 0.29216 0.10365
# Poissons Ratio (z) = 0.45649 0.07018
#
# Static dielectric constant tensor:
#      x y z
#    x 3.313690 0.000000 0.000000 
#    y 0.000000 3.159450 0.000000 
#    z 0.000000 0.000000 3.120910 
# 
# 
# High freq. dielectric constant tensor:
#      x y z
#    x 1.696500 0.000000 0.000000 
#    y 0.000000 1.664100 0.000000 
#    z 0.000000 0.000000 1.667670 
# 
# From -- ./inp_files/42473.got.cif
#   From: 2010.03.12/outbox.cif.g09.slc.cpg/sg64_22_cif.got.tgz:42473.got - 2010.04.10 20:19:32.
