data_PCOD8261271
_publ_section_title
;
Structure prediction by ZEFSAII (Michael W. Deem and Ramdas Pophale) SiO2 
 PCOD8261271
Probable space group: C M C M
;
_chemical_formula_sum "Si O2"
_cell_formula_units_Z 80
_cell_length_a 13.451162
_cell_length_b 44.289251
_cell_length_c 9.933093
_cell_angle_alpha 90.000000
_cell_angle_beta 90.000000
_cell_angle_gamma 90.000000
_cell_volume 5917.559598
_symmetry_space_group_name_H-M "C M C M"
_symmetry_group_IT_number 63
_symmetry_cell_setting 'orthorhombic'
loop_
_space_group_symop_operation_xyz
x,y,z
-x,-y,1/2+z
x,-y,-z
-x,y,1/2-z
-x,-y,-z
x,y,1/2-z
-x,y,z
x,-y,1/2+z
1/2+x,1/2+y,z
1/2-x,1/2-y,1/2+z
1/2+x,1/2-y,-z
1/2-x,1/2+y,1/2-z
1/2-x,1/2-y,-z
1/2+x,1/2+y,1/2-z
1/2-x,1/2+y,z
1/2+x,1/2-y,1/2+z
loop_
_atom_site_type_symbol
_atom_site_label
_atom_site_fract_x
_atom_site_fract_y
_atom_site_fract_z
Si Si1 0.118099 0.592120 0.400858
Si Si2 0.804450 0.291609 0.405200
Si Si3 0.881687 0.474884 0.900934
Si Si4 0.889120 0.243038 0.597200
Si Si5 0.615849 0.143994 0.595425
O O1 0.154897 0.600036 0.250000
O O2 0.155911 0.558634 0.442554
O O3 0.159547 0.616849 0.504983
O O4 0.000000 0.592302 0.405290
O O5 0.834425 0.285799 0.250000
O O6 0.873935 0.270997 0.497585
O O7 0.688862 0.283777 0.432937
O O8 0.822048 0.326318 0.443526
O O9 0.846021 0.482465 0.750000
O O10 0.000000 0.475722 0.908262
O O11 0.834941 0.500000 0.000000
O O12 0.875017 0.254884 0.750000
O O13 0.000000 0.229976 0.575560
O O14 0.632410 0.134791 0.750000
O O15 0.500000 0.150333 0.566047
#
# Coordination Sequence:
#
# PCOD8261271 Si02
#       5
#    16  16  16  16  16
#     4   8  14  23  32  43  61  84 109 138 170 199
#     4   9  17  28  40  54  72  92 114 142 176 211
#     4   8  13  20  29  41  57  78 105 136 167 195
#     4   9  17  28  41  56  72  90 114 143 174 210
#     4   9  16  24  34  48  65  86 112 140 170 203
#
# _framework density 13.519085
#
# number of rings (size 3 to 8) (size 9 to 14) (size 15 to 20)
#    0.000    3.400    0.000    1.800    0.000    2.800 
#    0.000    6.000    0.000    0.000    0.000    0.000 
#    0.000    0.000    0.000    0.000    0.000    1.000 
#
# Total GULP energy -495752.679923 kJ/mol
# GULP energy per Si atom -12393.816998 kJ/mol
# Density = 1.348832 g / cm^3
# Si number density = 13.519085 Si / 1000 Ang^3
#
#
#
# Elastic Constant Matrix: (Units=GPa)
#
#
# Indices 1 2 3 4 5 6 
#
# 1 40.2474 28.5993 23.7009 0.0000 0.0000 0.0000
# 2 28.5993 127.5040 76.0618 0.0000 0.0000 0.0000
# 3 23.7009 76.0618 78.7657 0.0000 0.0000 0.0000
# 4 0.0000 0.0000 0.0000 30.0779 0.0000 0.0000
# 5 0.0000 0.0000 0.0000 0.0000 10.0451 0.0000
# 6 0.0000 0.0000 0.0000 0.0000 0.0000 10.3972
#
#
#
# Elastic Compliance Matrix: (Units=1/GPa)
#
#
# Indices 1 2 3 4 5 6 
#
# 1 0.030758 -0.003250 -0.006116 0.000000 0.000000 0.000000
# 2 -0.003250 0.018844 -0.017219 0.000000 0.000000 0.000000
# 3 -0.006116 -0.017219 0.031164 0.000000 0.000000 0.000000
# 4 0.000000 0.000000 0.000000 0.033247 0.000000 0.000000
# 5 0.000000 0.000000 0.000000 0.000000 0.099551 0.000000
# 6 0.000000 0.000000 0.000000 0.000000 0.000000 0.096180
#
#
# Mechanical properties :
#
#
# Convention : Reuss Voigt Hill
#
# Bulk Modulus (GPa) = 36.23912 55.91567 46.07739
# Shear Modulus (GPa) = 13.43681 17.98106 15.70893
#
# Velocity S-wave (km/s) = 3.15606 3.65094 3.41248
# Velocity P-wave (km/s) = 6.33601 7.69564 7.04868
#
# Compressibility (1/GPa) = 0.02759449
#
# Stress axis : x y z
#
# Youngs Moduli (GPa) = 32.51215 53.06798 32.08820
#
# Poissons Ratio (x) = 0.17249 0.19626
# Poissons Ratio (y) = 0.10567 0.55252
# Poissons Ratio (z) = 0.19886 0.91377
#
# Static dielectric constant tensor:
#      x y z
#    x 2.318930 0.000000 0.000000 
#    y 0.000000 2.852830 0.000000 
#    z 0.000000 0.000000 2.887720 
# 
# 
# High freq. dielectric constant tensor:
#      x y z
#    x 1.453750 0.000000 0.000000 
#    y 0.000000 1.512930 0.000000 
#    z 0.000000 0.000000 1.525630 
# 
# From -- ./inp_files/19870.got.cif
#   From: 2010.03.12/outbox.cif.g09.slc.cpg/sg63_10_cif.got.tgz:19870.got - 2010.04.10 19:34:48.
