data_PCOD8261671
_publ_section_title
;
Structure prediction by ZEFSAII (Michael W. Deem and Ramdas Pophale) SiO2 
 PCOD8261671
Probable space group: C M C A
;
_chemical_formula_sum "Si O2"
_cell_formula_units_Z 96
_cell_length_a 8.928630
_cell_length_b 30.382287
_cell_length_c 20.445184
_cell_angle_alpha 90.000000
_cell_angle_beta 90.000000
_cell_angle_gamma 90.000000
_cell_volume 5546.210026
_symmetry_space_group_name_H-M "C M C A"
_symmetry_group_IT_number 64
_symmetry_cell_setting 'orthorhombic'
loop_
_space_group_symop_operation_xyz
x,y,z
-x,1/2-y,1/2+z
x,-y,-z
-x,1/2+y,1/2-z
-x,-y,-z
x,1/2+y,1/2-z
-x,y,z
x,1/2-y,1/2+z
1/2+x,1/2+y,z
1/2-x,-y,1/2+z
1/2+x,1/2-y,-z
1/2-x,y,1/2-z
1/2-x,1/2-y,-z
1/2+x,y,1/2-z
1/2-x,1/2+y,z
1/2+x,-y,1/2+z
loop_
_atom_site_type_symbol
_atom_site_label
_atom_site_fract_x
_atom_site_fract_y
_atom_site_fract_z
Si Si1 0.677252 0.257722 0.686492
Si Si2 0.831247 0.371294 0.510264
Si Si3 0.177006 0.540968 0.041244
Si Si4 0.328763 0.150950 0.341590
Si Si5 0.676244 0.783058 0.449472
Si Si6 0.822633 0.560811 0.185827
O O1 0.500000 0.261688 0.693430
O O2 0.750000 0.234046 0.750000
O O3 0.749029 0.305717 0.683548
O O4 0.723870 0.229205 0.623794
O O5 0.729855 0.414518 0.505984
O O6 0.823416 0.348717 0.580579
O O7 0.771671 0.333621 0.460817
O O8 0.000000 0.385831 0.493131
O O9 0.230668 0.538213 0.117332
O O10 0.000000 0.540988 0.038938
O O11 0.242864 0.500000 0.000000
O O12 0.500000 0.148476 0.316306
O O13 0.234782 0.110603 0.313224
O O14 0.500000 0.779189 0.460693
O O15 0.750000 0.750000 0.500000
O O16 0.750000 0.536909 0.250000
O O17 0.000000 0.559258 0.192257
#
# Coordination Sequence:
#
# PCOD8261671 Si02
#       6
#    16  16  16  16  16  16
#     4  11  22  33  47  68  99 136 173 211 252 295
#     4   9  18  32  51  76 101 127 163 208 252 297
#     4   9  19  35  54  76 101 129 164 206 251 299
#     4  10  18  30  48  70 100 132 164 201 246 299
#     4  10  20  34  52  74 100 132 171 211 249 295
#     4  10  19  31  48  71 101 131 161 198 245 302
#
# _framework density 17.309118000000002
#
# number of rings (size 3 to 8) (size 9 to 14) (size 15 to 20)
#    0.000    2.167    1.667    2.000    0.000    3.000 
#    0.000    0.000    0.000    1.000    0.000    7.000 
#    0.000    0.000    0.000    0.000    0.000    0.000 
#
# Total GULP energy -595058.615103 kJ/mol
# GULP energy per Si atom -12397.054481 kJ/mol
# Density = 1.726972 g / cm^3
# Si number density = 17.309118 Si / 1000 Ang^3
#
#
#
# Elastic Constant Matrix: (Units=GPa)
#
#
# Indices 1 2 3 4 5 6 
#
# 1 48.8218 26.4907 41.1544 0.0000 0.0000 0.0000
# 2 26.4907 91.7812 73.5667 0.0000 0.0000 0.0000
# 3 41.1544 73.5667 134.4703 0.0000 0.0000 0.0000
# 4 0.0000 0.0000 0.0000 -377.2222 0.0000 0.0000
# 5 0.0000 0.0000 0.0000 0.0000 26.3700 0.0000
# 6 0.0000 0.0000 0.0000 0.0000 0.0000 20.2723
#
#
#
# Elastic Compliance Matrix: (Units=1/GPa)
#
#
# Indices 1 2 3 4 5 6 
#
# 1 0.027840 -0.002148 -0.007345 0.000000 0.000000 0.000000
# 2 -0.002148 0.019570 -0.010049 0.000000 0.000000 0.000000
# 3 -0.007345 -0.010049 0.015182 0.000000 0.000000 0.000000
# 4 0.000000 0.000000 0.000000 -0.002651 0.000000 0.000000
# 5 0.000000 0.000000 0.000000 0.000000 0.037922 0.000000
# 6 0.000000 0.000000 0.000000 0.000000 0.000000 0.049328
#
#
# Mechanical properties :
#
#
# Convention : Reuss Voigt Hill
#
# Bulk Modulus (GPa) = 42.53917 61.94411 52.24164
# Shear Modulus (GPa) = 25.75825 -57.19187 -15.71681
#
# Velocity S-wave (km/s) = 3.86182 -5.75441 -3.01659
# Velocity P-wave (km/s) = 6.67191 2.87859 4.25606
#
# Compressibility (1/GPa) = 0.02350775
#
# Stress axis : x y z
#
# Youngs Moduli (GPa) = 35.91988 51.09764 65.86561
#
# Poissons Ratio (x) = 0.10975 0.48380
# Poissons Ratio (y) = 0.07715 0.66191
# Poissons Ratio (z) = 0.26384 0.51350
#
# Static dielectric constant tensor:
#      x y z
#    x 3.249630 0.000000 0.000000 
#    y 0.000000 3.100280 0.000000 
#    z 0.000000 0.000000 3.709750 
# 
# 
# High freq. dielectric constant tensor:
#      x y z
#    x 1.672470 0.000000 0.000000 
#    y 0.000000 1.635830 0.000000 
#    z 0.000000 0.000000 1.676540 
# 
# From -- ./inp_files/43229.got.cif
#   From: 2010.03.12/outbox.cif.g09.slc.cpg/sg64_22_cif.got.tgz:43229.got - 2010.04.10 20:19:32.
