data_PCOD8261042
_publ_section_title
;
Structure prediction by ZEFSAII (Michael W. Deem and Ramdas Pophale) SiO2 
 PCOD8261042
Probable space group: C M C M
;
_chemical_formula_sum "Si O2"
_cell_formula_units_Z 80
_cell_length_a 11.677168
_cell_length_b 30.542624
_cell_length_c 11.411198
_cell_angle_alpha 90.000000
_cell_angle_beta 90.000000
_cell_angle_gamma 90.000000
_cell_volume 4069.819190
_symmetry_space_group_name_H-M "C M C M"
_symmetry_group_IT_number 63
_symmetry_cell_setting 'orthorhombic'
loop_
_space_group_symop_operation_xyz
x,y,z
-x,-y,1/2+z
x,-y,-z
-x,y,1/2-z
-x,-y,-z
x,y,1/2-z
-x,y,z
x,-y,1/2+z
1/2+x,1/2+y,z
1/2-x,1/2-y,1/2+z
1/2+x,1/2-y,-z
1/2-x,1/2+y,1/2-z
1/2-x,1/2-y,-z
1/2+x,1/2+y,1/2-z
1/2-x,1/2+y,z
1/2+x,1/2-y,1/2+z
loop_
_atom_site_type_symbol
_atom_site_label
_atom_site_fract_x
_atom_site_fract_y
_atom_site_fract_z
Si Si1 0.000000 0.666245 0.387517
Si Si2 0.627860 0.826102 0.250000
Si Si3 0.222090 0.300504 0.494944
Si Si4 0.729373 0.952241 0.494520
Si Si5 0.635284 0.373827 0.886328
Si Si6 0.371784 0.928254 0.250000
Si Si7 0.500000 0.067697 0.388109
O O1 0.890235 0.692098 0.429200
O O2 0.000000 0.663280 0.250000
O O3 0.000000 0.617165 0.440992
O O4 0.500000 0.804286 0.250000
O O5 0.701917 0.812228 0.360757
O O6 0.609963 0.877154 0.250000
O O7 0.250000 0.250000 0.500000
O O8 0.323705 0.329691 0.549374
O O9 0.810664 0.916083 0.551929
O O10 0.703106 0.941421 0.360864
O O11 0.612198 0.956756 0.567382
O O12 0.789830 0.000000 0.500000
O O13 0.673249 0.372738 0.750000
O O14 0.500000 0.376823 0.899051
O O15 0.500000 0.950102 0.250000
O O16 0.500000 0.068118 0.250000
#
# Coordination Sequence:
#
# PCOD8261042 Si02
#       7
#     8   8  16  16  16   8   8
#     4  11  22  42  68  96 132 171 218 272 325 384
#     4  11  22  44  68  95 136 176 211 267 336 395
#     4  12  26  43  67 102 132 170 220 271 331 389
#     4  12  25  40  66 100 134 171 218 269 327 391
#     4  11  26  49  70  91 129 179 227 271 319 386
#     4  11  22  40  62  97 138 172 205 263 338 395
#     4  11  21  38  66 100 134 169 215 270 327 389
#
# _framework density 19.656894000000001
#
# number of rings (size 3 to 8) (size 9 to 14) (size 15 to 20)
#    0.000    0.600    6.000    1.500    7.000    0.400 
#    0.000    2.000    0.000    0.000    0.000    0.000 
#    0.000    0.000    0.000    0.000    0.000    0.000 
#
# Total GULP energy -496132.628954 kJ/mol
# GULP energy per Si atom -12403.315724 kJ/mol
# Density = 1.961215 g / cm^3
# Si number density = 19.656894 Si / 1000 Ang^3
#
#
#
# Elastic Constant Matrix: (Units=GPa)
#
#
# Indices 1 2 3 4 5 6 
#
# 1 93.5482 42.2093 54.8021 0.0000 0.0000 0.0000
# 2 42.2093 153.6255 54.6147 0.0000 0.0000 0.0000
# 3 54.8021 54.6147 160.7245 0.0000 0.0000 0.0000
# 4 0.0000 0.0000 0.0000 25.9219 0.0000 0.0000
# 5 0.0000 0.0000 0.0000 0.0000 34.2649 0.0000
# 6 0.0000 0.0000 0.0000 0.0000 0.0000 16.6674
#
#
#
# Elastic Compliance Matrix: (Units=1/GPa)
#
#
# Indices 1 2 3 4 5 6 
#
# 1 0.014136 -0.002469 -0.003981 0.000000 0.000000 0.000000
# 2 -0.002469 0.007835 -0.001821 0.000000 0.000000 0.000000
# 3 -0.003981 -0.001821 0.008198 0.000000 0.000000 0.000000
# 4 0.000000 0.000000 0.000000 0.038577 0.000000 0.000000
# 5 0.000000 0.000000 0.000000 0.000000 0.029184 0.000000
# 6 0.000000 0.000000 0.000000 0.000000 0.000000 0.059997
#
#
# Mechanical properties :
#
#
# Convention : Reuss Voigt Hill
#
# Bulk Modulus (GPa) = 73.37823 79.01671 76.19747
# Shear Modulus (GPa) = 27.93135 32.45567 30.19351
#
# Velocity S-wave (km/s) = 3.77363 4.06779 3.92347
# Velocity P-wave (km/s) = 7.50983 7.89606 7.70537
#
# Compressibility (1/GPa) = 0.01362802
#
# Stress axis : x y z
#
# Youngs Moduli (GPa) = 70.74323 127.63546 121.98304
#
# Poissons Ratio (x) = 0.31508 0.48561
# Poissons Ratio (y) = 0.17463 0.22208
# Poissons Ratio (z) = 0.28163 0.23237
#
# Static dielectric constant tensor:
#      x y z
#    x 3.599660 0.000000 0.000000 
#    y 0.000000 3.812120 0.000000 
#    z 0.000000 0.000000 3.811910 
# 
# 
# High freq. dielectric constant tensor:
#      x y z
#    x 1.754360 0.000000 0.000000 
#    y 0.000000 1.775350 0.000000 
#    z 0.000000 0.000000 1.788600 
# 
# From -- ./inp_files/17924.got.cif
#   From: 2010.03.12/outbox.cif.g09.slc.cpg/sg63_9_cif.got.tgz:17924.got - 2010.04.10 19:34:48.
