data_PCOD8261968
_publ_section_title
;
Structure prediction by ZEFSAII (Michael W. Deem and Ramdas Pophale) SiO2 
 PCOD8261968
Probable space group: C M C A
;
_chemical_formula_sum "Si O2"
_cell_formula_units_Z 96
_cell_length_a 8.946630
_cell_length_b 23.096679
_cell_length_c 26.208545
_cell_angle_alpha 90.000000
_cell_angle_beta 90.000000
_cell_angle_gamma 90.000000
_cell_volume 5415.666677
_symmetry_space_group_name_H-M "C M C A"
_symmetry_group_IT_number 64
_symmetry_cell_setting 'orthorhombic'
loop_
_space_group_symop_operation_xyz
x,y,z
-x,1/2-y,1/2+z
x,-y,-z
-x,1/2+y,1/2-z
-x,-y,-z
x,1/2+y,1/2-z
-x,y,z
x,1/2-y,1/2+z
1/2+x,1/2+y,z
1/2-x,-y,1/2+z
1/2+x,1/2-y,-z
1/2-x,y,1/2-z
1/2-x,1/2-y,-z
1/2+x,y,1/2-z
1/2-x,1/2+y,z
1/2+x,-y,1/2+z
loop_
_atom_site_type_symbol
_atom_site_label
_atom_site_fract_x
_atom_site_fract_y
_atom_site_fract_z
Si Si1 0.679321 0.307622 0.304476
Si Si2 0.659503 0.013780 0.706121
Si Si3 0.823722 0.814106 0.697602
Si Si4 0.334125 0.394366 0.120305
Si Si5 0.323297 0.513819 0.556722
Si Si6 0.328491 0.928234 0.855770
O O1 0.500000 0.310271 0.300404
O O2 0.750000 0.327418 0.250000
O O3 0.736681 0.243757 0.318285
O O4 0.733416 0.346228 0.352155
O O5 0.500000 0.995891 0.728628
O O6 0.750000 0.047646 0.750000
O O7 0.744323 0.955292 0.692152
O O8 0.640774 0.053713 0.658343
O O9 0.750000 0.837832 0.750000
O O10 0.801625 0.859203 0.650305
O O11 0.000000 0.801358 0.706529
O O12 0.500000 0.370153 0.104841
O O13 0.250227 0.424502 0.072660
O O14 0.267144 0.500000 0.500000
O O15 0.500000 0.523181 0.558905
O O16 0.273708 0.458041 0.591267
O O17 0.500000 0.943924 0.849062
#
# Coordination Sequence:
#
# PCOD8261968 Si02
#       6
#    16  16  16  16  16  16
#     4  11  21  33  50  72 100 134 169 202 239 285
#     4  10  19  28  42  65  94 126 156 191 234 283
#     4  10  19  31  47  69  99 133 167 199 234 280
#     4  10  20  33  49  71  98 128 163 202 245 292
#     4   9  18  34  55  77 100 127 161 204 255 305
#     4   9  18  31  48  70  96 127 161 198 241 290
#
# _framework density 17.72635
#
# number of rings (size 3 to 8) (size 9 to 14) (size 15 to 20)
#    0.000    2.167    0.000    5.000    0.000    6.333 
#    0.000    0.000    0.000    1.000    0.000    0.000 
#    0.000    0.000    0.000    0.000    0.000    0.000 
#
# Total GULP energy -594657.214314 kJ/mol
# GULP energy per Si atom -12388.691965 kJ/mol
# Density = 1.768600 g / cm^3
# Si number density = 17.726350 Si / 1000 Ang^3
#
#
#
# Elastic Constant Matrix: (Units=GPa)
#
#
# Indices 1 2 3 4 5 6 
#
# 1 111.9951 41.0994 39.9431 0.0000 0.0000 0.0000
# 2 41.0994 87.5741 39.9935 0.0000 0.0000 0.0000
# 3 39.9431 39.9935 85.0297 0.0000 0.0000 0.0000
# 4 0.0000 0.0000 0.0000 24.5759 0.0000 0.0000
# 5 0.0000 0.0000 0.0000 0.0000 20.2853 0.0000
# 6 0.0000 0.0000 0.0000 0.0000 0.0000 25.0569
#
#
#
# Elastic Compliance Matrix: (Units=1/GPa)
#
#
# Indices 1 2 3 4 5 6 
#
# 1 0.011629 -0.003773 -0.003688 0.000000 0.000000 0.000000
# 2 -0.003773 0.015767 -0.005643 0.000000 0.000000 0.000000
# 3 -0.003688 -0.005643 0.016147 0.000000 0.000000 0.000000
# 4 0.000000 0.000000 0.000000 0.040690 0.000000 0.000000
# 5 0.000000 0.000000 0.000000 0.000000 0.049297 0.000000
# 6 0.000000 0.000000 0.000000 0.000000 0.000000 0.039909
#
#
# Mechanical properties :
#
#
# Convention : Reuss Voigt Hill
#
# Bulk Modulus (GPa) = 57.69046 58.51900 58.10473
# Shear Modulus (GPa) = 24.33951 24.88780 24.61366
#
# Velocity S-wave (km/s) = 3.70952 3.75106 3.73035
# Velocity P-wave (km/s) = 7.13884 7.20033 7.16965
#
# Compressibility (1/GPa) = 0.01733389
#
# Stress axis : x y z
#
# Youngs Moduli (GPa) = 85.99176 63.42344 61.92940
#
# Poissons Ratio (x) = 0.23932 0.22839
# Poissons Ratio (y) = 0.32448 0.34949
# Poissons Ratio (z) = 0.31714 0.35793
#
# Static dielectric constant tensor:
#      x y z
#    x 3.891070 0.000000 0.000000 
#    y 0.000000 3.268470 0.000000 
#    z 0.000000 0.000000 3.251610 
# 
# 
# High freq. dielectric constant tensor:
#      x y z
#    x 1.701830 0.000000 0.000000 
#    y 0.000000 1.676860 0.000000 
#    z 0.000000 0.000000 1.653800 
# 
# From -- ./inp_files/43040.got.cif
#   From: 2010.03.12/outbox.cif.g09.slc.cpg/sg64_22_cif.got.tgz:43040.got - 2010.04.10 20:19:32.
