data_PCOD8261881
_publ_section_title
;
Structure prediction by ZEFSAII (Michael W. Deem and Ramdas Pophale) SiO2 
 PCOD8261881
Probable space group: C M C A
;
_chemical_formula_sum "Si O2"
_cell_formula_units_Z 112
_cell_length_a 19.005814
_cell_length_b 17.376283
_cell_length_c 18.691929
_cell_angle_alpha 90.000000
_cell_angle_beta 90.000000
_cell_angle_gamma 90.000000
_cell_volume 6173.017080
_symmetry_space_group_name_H-M "C M C A"
_symmetry_group_IT_number 64
_symmetry_cell_setting 'orthorhombic'
loop_
_space_group_symop_operation_xyz
x,y,z
-x,1/2-y,1/2+z
x,-y,-z
-x,1/2+y,1/2-z
-x,-y,-z
x,1/2+y,1/2-z
-x,y,z
x,1/2-y,1/2+z
1/2+x,1/2+y,z
1/2-x,-y,1/2+z
1/2+x,1/2-y,-z
1/2-x,y,1/2-z
1/2-x,1/2-y,-z
1/2+x,y,1/2-z
1/2-x,1/2+y,z
1/2+x,-y,1/2+z
loop_
_atom_site_type_symbol
_atom_site_label
_atom_site_fract_x
_atom_site_fract_y
_atom_site_fract_z
Si Si1 0.177721 0.923752 0.288933
Si Si2 0.421401 0.150658 0.391128
Si Si3 0.079734 0.214871 0.715789
Si Si4 0.754251 0.962338 0.428428
Si Si5 0.380557 0.988528 0.349459
Si Si6 0.689057 0.189684 0.514381
Si Si7 0.422201 0.184818 0.624247
O O1 0.250000 0.896776 0.250000
O O2 0.132596 0.850007 0.311555
O O3 0.189261 0.965991 0.364515
O O4 0.138114 0.981472 0.234818
O O5 0.500000 0.169698 0.422656
O O6 0.404144 0.205419 0.323977
O O7 0.428220 0.063218 0.361989
O O8 0.357930 0.162371 0.447115
O O9 0.092130 0.225225 0.800149
O O10 0.000000 0.186913 0.701183
O O11 0.731276 0.876888 0.446555
O O12 0.786269 0.000000 0.500000
O O13 0.686325 0.007372 0.399473
O O14 0.416407 0.908458 0.372997
O O15 0.750000 0.250000 0.500000
O O16 0.633321 0.223763 0.570916
O O17 0.500000 0.204411 0.596516
#
# Coordination Sequence:
#
# PCOD8261881 Si02
#       7
#    16  16  16  16  16  16  16
#     4   9  18  34  56  77 103 142 182 215 263 326
#     4  11  21  34  54  83 113 140 179 231 278 322
#     4   9  19  35  54  76 103 139 180 222 266 319
#     4  10  18  34  51  73 109 139 175 220 260 316
#     4   9  18  33  53  82 107 136 175 223 277 322
#     4  11  22  35  52  80 112 144 181 220 273 324
#     4   9  18  35  57  78 105 144 181 219 274 334
#
# _framework density 18.143478000000002
#
# number of rings (size 3 to 8) (size 9 to 14) (size 15 to 20)
#    0.000    2.286    1.429    2.571    0.000    0.571 
#    2.571    4.286    0.000    0.429    0.000    0.000 
#    0.000    0.000    0.000    0.000    0.000    0.000 
#
# Total GULP energy -693901.636358 kJ/mol
# GULP energy per Si atom -12391.100649 kJ/mol
# Density = 1.810218 g / cm^3
# Si number density = 18.143478 Si / 1000 Ang^3
#
#
#
# Elastic Constant Matrix: (Units=GPa)
#
#
# Indices 1 2 3 4 5 6 
#
# 1 83.9727 20.4041 40.5576 0.0000 0.0000 0.0000
# 2 20.4041 46.4319 27.3396 0.0000 0.0000 0.0000
# 3 40.5576 27.3396 107.4497 0.0000 0.0000 0.0000
# 4 0.0000 0.0000 0.0000 26.2318 0.0000 0.0000
# 5 0.0000 0.0000 0.0000 0.0000 22.9821 0.0000
# 6 0.0000 0.0000 0.0000 0.0000 0.0000 22.4332
#
#
#
# Elastic Compliance Matrix: (Units=1/GPa)
#
#
# Indices 1 2 3 4 5 6 
#
# 1 0.015131 -0.003866 -0.004728 0.000000 0.000000 0.000000
# 2 -0.003866 0.026320 -0.005238 0.000000 0.000000 0.000000
# 3 -0.004728 -0.005238 0.012424 0.000000 0.000000 0.000000
# 4 0.000000 0.000000 0.000000 0.038122 0.000000 0.000000
# 5 0.000000 0.000000 0.000000 0.000000 0.043512 0.000000
# 6 0.000000 0.000000 0.000000 0.000000 0.000000 0.044577
#
#
# Mechanical properties :
#
#
# Convention : Reuss Voigt Hill
#
# Bulk Modulus (GPa) = 38.14951 46.05080 42.10015
# Shear Modulus (GPa) = 23.09625 24.29963 23.69794
#
# Velocity S-wave (km/s) = 3.57175 3.66362 3.61798
# Velocity P-wave (km/s) = 6.17107 6.58276 6.38024
#
# Compressibility (1/GPa) = 0.02621266
#
# Stress axis : x y z
#
# Youngs Moduli (GPa) = 66.08767 37.99448 80.48970
#
# Poissons Ratio (x) = 0.14687 0.38055
# Poissons Ratio (y) = 0.25546 0.42158
# Poissons Ratio (z) = 0.31246 0.19900
#
# Static dielectric constant tensor:
#      x y z
#    x 3.461970 0.000000 0.000000 
#    y 0.000000 3.085420 0.000000 
#    z 0.000000 0.000000 3.570640 
# 
# 
# High freq. dielectric constant tensor:
#      x y z
#    x 1.703850 0.000000 0.000000 
#    y 0.000000 1.674960 0.000000 
#    z 0.000000 0.000000 1.710420 
# 
# From -- ./inp_files/34471.got.cif
#   From: 2010.03.12/outbox.cif.g09.slc.cpg/sg64_18_cif.got.tgz:34471.got - 2010.04.10 20:19:32.
