data_PCOD8261900
_publ_section_title
;
Structure prediction by ZEFSAII (Michael W. Deem and Ramdas Pophale) SiO2 
 PCOD8261900
Probable space group: C M C A
;
_chemical_formula_sum "Si O2"
_cell_formula_units_Z 96
_cell_length_a 8.968296
_cell_length_b 24.208461
_cell_length_c 21.729334
_cell_angle_alpha 90.000000
_cell_angle_beta 90.000000
_cell_angle_gamma 90.000000
_cell_volume 4717.626239
_symmetry_space_group_name_H-M "C M C A"
_symmetry_group_IT_number 64
_symmetry_cell_setting 'orthorhombic'
loop_
_space_group_symop_operation_xyz
x,y,z
-x,1/2-y,1/2+z
x,-y,-z
-x,1/2+y,1/2-z
-x,-y,-z
x,1/2+y,1/2-z
-x,y,z
x,1/2-y,1/2+z
1/2+x,1/2+y,z
1/2-x,-y,1/2+z
1/2+x,1/2-y,-z
1/2-x,y,1/2-z
1/2-x,1/2-y,-z
1/2+x,y,1/2-z
1/2-x,1/2+y,z
1/2+x,-y,1/2+z
loop_
_atom_site_type_symbol
_atom_site_label
_atom_site_fract_x
_atom_site_fract_y
_atom_site_fract_z
Si Si1 0.824092 0.451287 0.309856
Si Si2 0.175911 0.930162 0.845635
Si Si3 0.328192 0.744374 0.566743
Si Si4 0.670189 0.881421 0.088627
Si Si5 0.676908 0.690074 0.187653
Si Si6 0.329031 0.936495 0.517013
O O1 0.750000 0.424149 0.250000
O O2 0.758760 0.513858 0.315609
O O3 0.781028 0.413611 0.366874
O O4 0.000000 0.450794 0.303630
O O5 0.226349 0.874399 0.811564
O O6 0.232277 0.927373 0.915056
O O7 0.000000 0.935959 0.846287
O O8 0.500000 0.758754 0.554220
O O9 0.250000 0.750000 0.500000
O O10 0.307367 0.683706 0.594690
O O11 0.266347 0.783302 0.622651
O O12 0.500000 0.898445 0.102184
O O13 0.716815 0.898473 0.020541
O O14 0.500000 0.698079 0.192312
O O15 0.750000 0.716298 0.250000
O O16 0.500000 0.916518 0.508394
O O17 0.313907 0.000000 0.500000
#
# Coordination Sequence:
#
# PCOD8261900 Si02
#       6
#    16  16  16  16  16  16
#     4  11  22  38  57  82 114 153 194 237 288 352
#     4   9  18  34  58  85 115 149 191 238 291 352
#     4  10  23  42  64  89 120 156 203 254 304 360
#     4  11  23  38  56  86 120 151 189 239 295 355
#     4  10  21  39  61  86 117 155 200 252 302 357
#     4  10  18  34  59  85 114 153 195 233 285 358
#
# _framework density 20.349215999999998
#
# number of rings (size 3 to 8) (size 9 to 14) (size 15 to 20)
#    0.000    1.833    1.667    2.500    0.000    4.333 
#    0.000    3.333    0.000    0.000    0.000    0.000 
#    0.000    0.000    0.000    0.000    0.000    0.000 
#
# Total GULP energy -594988.456614 kJ/mol
# GULP energy per Si atom -12395.592846 kJ/mol
# Density = 2.030290 g / cm^3
# Si number density = 20.349216 Si / 1000 Ang^3
#
#
#
# Elastic Constant Matrix: (Units=GPa)
#
#
# Indices 1 2 3 4 5 6 
#
# 1 64.1900 33.7810 40.4455 0.0000 0.0000 0.0000
# 2 33.7810 71.4375 34.4505 0.0000 0.0000 0.0000
# 3 40.4455 34.4505 151.6427 0.0000 0.0000 0.0000
# 4 0.0000 0.0000 0.0000 22.2960 0.0000 0.0000
# 5 0.0000 0.0000 0.0000 0.0000 36.1830 0.0000
# 6 0.0000 0.0000 0.0000 0.0000 0.0000 29.6224
#
#
#
# Elastic Compliance Matrix: (Units=1/GPa)
#
#
# Indices 1 2 3 4 5 6 
#
# 1 0.022782 -0.008808 -0.004075 0.000000 0.000000 0.000000
# 2 -0.008808 0.019126 -0.001996 0.000000 0.000000 0.000000
# 3 -0.004075 -0.001996 0.008135 0.000000 0.000000 0.000000
# 4 0.000000 0.000000 0.000000 0.044851 0.000000 0.000000
# 5 0.000000 0.000000 0.000000 0.000000 0.027637 0.000000
# 6 0.000000 0.000000 0.000000 0.000000 0.000000 0.033758
#
#
# Mechanical properties :
#
#
# Convention : Reuss Voigt Hill
#
# Bulk Modulus (GPa) = 49.29846 56.06935 52.68391
# Shear Modulus (GPa) = 25.93253 29.52647 27.72950
#
# Velocity S-wave (km/s) = 3.57371 3.81332 3.69546
# Velocity P-wave (km/s) = 6.42708 6.85579 6.64489
#
# Compressibility (1/GPa) = 0.02028461
#
# Stress axis : x y z
#
# Youngs Moduli (GPa) = 43.89487 52.28581 122.92822
#
# Poissons Ratio (x) = 0.46051 0.50097
# Poissons Ratio (y) = 0.38661 0.24535
# Poissons Ratio (z) = 0.17889 0.10436
#
# Static dielectric constant tensor:
#      x y z
#    x 3.416860 0.000000 0.000000 
#    y 0.000000 4.166470 0.000000 
#    z 0.000000 0.000000 3.892680 
# 
# 
# High freq. dielectric constant tensor:
#      x y z
#    x 1.769990 0.000000 0.000000 
#    y 0.000000 1.796430 0.000000 
#    z 0.000000 0.000000 1.812140 
# 
# From -- ./inp_files/37011.got.cif
#   From: 2010.03.12/outbox.cif.g09.slc.cpg/sg64_19_cif.got.tgz:37011.got - 2010.04.10 20:19:32.
