data_PCOD8261689
_publ_section_title
;
Structure prediction by ZEFSAII (Michael W. Deem and Ramdas Pophale) SiO2 
 PCOD8261689
Probable space group: C M C A
;
_chemical_formula_sum "Si O2"
_cell_formula_units_Z 96
_cell_length_a 8.976819
_cell_length_b 23.757648
_cell_length_c 25.068903
_cell_angle_alpha 90.000000
_cell_angle_beta 90.000000
_cell_angle_gamma 90.000000
_cell_volume 5346.397461
_symmetry_space_group_name_H-M "C M C A"
_symmetry_group_IT_number 64
_symmetry_cell_setting 'orthorhombic'
loop_
_space_group_symop_operation_xyz
x,y,z
-x,1/2-y,1/2+z
x,-y,-z
-x,1/2+y,1/2-z
-x,-y,-z
x,1/2+y,1/2-z
-x,y,z
x,1/2-y,1/2+z
1/2+x,1/2+y,z
1/2-x,-y,1/2+z
1/2+x,1/2-y,-z
1/2-x,y,1/2-z
1/2-x,1/2-y,-z
1/2+x,y,1/2-z
1/2-x,1/2+y,z
1/2+x,-y,1/2+z
loop_
_atom_site_type_symbol
_atom_site_label
_atom_site_fract_x
_atom_site_fract_y
_atom_site_fract_z
Si Si1 0.823545 0.810334 0.498011
Si Si2 0.661272 0.003919 0.439944
Si Si3 0.326011 0.391225 0.594147
Si Si4 0.828608 0.563370 0.695872
Si Si5 0.174126 0.065084 0.193846
Si Si6 0.826394 0.882254 0.090519
O O1 0.750000 0.750000 0.500000
O O2 0.772975 0.843982 0.551408
O O3 0.771379 0.838295 0.442393
O O4 0.000000 0.804980 0.496250
O O5 0.500000 0.016984 0.409583
O O6 0.789924 0.049163 0.432173
O O7 0.615219 0.000000 0.500000
O O8 0.726861 0.944087 0.424813
O O9 0.500000 0.385269 0.606027
O O10 0.236748 0.390111 0.650213
O O11 0.750000 0.580325 0.750000
O O12 0.784798 0.499591 0.675507
O O13 0.795520 0.614622 0.654318
O O14 0.000000 0.560915 0.710073
O O15 0.250000 0.078513 0.250000
O O16 0.000000 0.075200 0.200953
O O17 0.000000 0.870758 0.077798
#
# Coordination Sequence:
#
# PCOD8261689 Si02
#       6
#    16  16  16  16  16  16
#     4  11  25  41  57  79 105 140 185 231 280 326
#     4  10  18  30  50  77 109 146 179 211 267 333
#     4  11  22  34  52  80 112 143 179 225 273 325
#     4   9  18  31  49  77 112 148 181 213 256 314
#     4  10  19  33  52  79 114 151 185 216 262 321
#     4  10  19  34  55  79 110 145 181 221 268 324
#
# _framework density 17.956016999999999
#
# number of rings (size 3 to 8) (size 9 to 14) (size 15 to 20)
#    0.000    1.833    3.333    1.500    0.000    4.333 
#    0.000    0.000    0.000    1.000    0.000    4.667 
#    0.000    0.000    0.000    0.000    0.000    0.000 
#
# Total GULP energy -594657.169125 kJ/mol
# GULP energy per Si atom -12388.691023 kJ/mol
# Density = 1.791515 g / cm^3
# Si number density = 17.956017 Si / 1000 Ang^3
#
#
#
# Elastic Constant Matrix: (Units=GPa)
#
#
# Indices 1 2 3 4 5 6 
#
# 1 77.8182 41.5305 59.1176 0.0000 0.0000 0.0000
# 2 41.5305 95.6737 57.0041 0.0000 0.0000 0.0000
# 3 59.1176 57.0041 129.2581 0.0000 0.0000 0.0000
# 4 0.0000 0.0000 0.0000 12.7935 0.0000 0.0000
# 5 0.0000 0.0000 0.0000 0.0000 34.5967 0.0000
# 6 0.0000 0.0000 0.0000 0.0000 0.0000 24.9411
#
#
#
# Elastic Compliance Matrix: (Units=1/GPa)
#
#
# Indices 1 2 3 4 5 6 
#
# 1 0.021101 -0.004625 -0.007611 0.000000 0.000000 0.000000
# 2 -0.004625 0.015191 -0.004584 0.000000 0.000000 0.000000
# 3 -0.007611 -0.004584 0.013239 0.000000 0.000000 0.000000
# 4 0.000000 0.000000 0.000000 0.078165 0.000000 0.000000
# 5 0.000000 0.000000 0.000000 0.000000 0.028905 0.000000
# 6 0.000000 0.000000 0.000000 0.000000 0.000000 0.040094
#
#
# Mechanical properties :
#
#
# Convention : Reuss Voigt Hill
#
# Bulk Modulus (GPa) = 62.92922 68.67270 65.80096
# Shear Modulus (GPa) = 21.21956 24.13944 22.67950
#
# Velocity S-wave (km/s) = 3.44139 3.67054 3.55781
# Velocity P-wave (km/s) = 7.13536 7.50278 7.32137
#
# Compressibility (1/GPa) = 0.01589087
#
# Stress axis : x y z
#
# Youngs Moduli (GPa) = 47.39193 65.82812 75.53329
#
# Poissons Ratio (x) = 0.30443 0.57489
# Poissons Ratio (y) = 0.21917 0.34627
# Poissons Ratio (z) = 0.36070 0.30177
#
# Static dielectric constant tensor:
#      x y z
#    x 3.238740 0.000000 0.000000 
#    y 0.000000 3.013550 0.000000 
#    z 0.000000 0.000000 3.633400 
# 
# 
# High freq. dielectric constant tensor:
#      x y z
#    x 1.696900 0.000000 0.000000 
#    y 0.000000 1.649030 0.000000 
#    z 0.000000 0.000000 1.715360 
# 
# From -- ./inp_files/48354.got.cif
#   From: 2010.03.12/outbox.cif.g09.slc.cpg/sg64_25_cif.got.tgz:48354.got - 2010.04.10 20:19:32.
