data_PCOD8261103
_publ_section_title
;
Structure prediction by ZEFSAII (Michael W. Deem and Ramdas Pophale) SiO2 
 PCOD8261103
Probable space group: C M C M
;
_chemical_formula_sum "Si O2"
_cell_formula_units_Z 96
_cell_length_a 27.835233
_cell_length_b 9.714109
_cell_length_c 17.185137
_cell_angle_alpha 90.000000
_cell_angle_beta 90.000000
_cell_angle_gamma 90.000000
_cell_volume 4646.766310
_symmetry_space_group_name_H-M "C M C M"
_symmetry_group_IT_number 63
_symmetry_cell_setting 'orthorhombic'
loop_
_space_group_symop_operation_xyz
x,y,z
-x,-y,1/2+z
x,-y,-z
-x,y,1/2-z
-x,-y,-z
x,y,1/2-z
-x,y,z
x,-y,1/2+z
1/2+x,1/2+y,z
1/2-x,1/2-y,1/2+z
1/2+x,1/2-y,-z
1/2-x,1/2+y,1/2-z
1/2-x,1/2-y,-z
1/2+x,1/2+y,1/2-z
1/2-x,1/2+y,z
1/2+x,1/2-y,1/2+z
loop_
_atom_site_type_symbol
_atom_site_label
_atom_site_fract_x
_atom_site_fract_y
_atom_site_fract_z
Si Si1 0.945288 0.722249 0.587558
Si Si2 0.789140 0.119904 0.157914
Si Si3 0.393514 0.537502 0.160333
Si Si4 0.204039 0.569814 0.657505
Si Si5 0.400531 0.973719 0.840268
Si Si6 0.556694 0.285154 0.411034
O O1 0.937608 0.562789 0.608542
O O2 0.930228 0.748084 0.499014
O O3 0.000000 0.764886 0.600697
O O4 0.912740 0.808628 0.646880
O O5 0.784656 0.132996 0.250000
O O6 0.837626 0.037423 0.136365
O O7 0.745202 0.030864 0.123154
O O8 0.789363 0.275503 0.123336
O O9 0.400496 0.495774 0.250000
O O10 0.424117 0.437655 0.105482
O O11 0.207699 0.573456 0.750000
O O12 0.153359 0.505939 0.630985
O O13 0.406579 0.009773 0.750000
O O14 0.414027 0.815355 0.854060
O O15 0.500000 0.277213 0.394249
#
# Coordination Sequence:
#
# PCOD8261103 Si02
#       6
#    16  16  16  16  16  16
#     4  11  23  41  62  83 116 164 203 237 296 365
#     4   9  18  33  56  87 119 151 190 238 295 354
#     4  11  22  38  62  92 120 150 199 254 294 339
#     4   9  18  33  56  87 119 151 190 238 295 354
#     4  11  22  38  62  92 120 150 199 254 294 339
#     4  11  25  41  58  85 122 164 201 237 298 365
#
# _framework density 20.659528999999999
#
# number of rings (size 3 to 8) (size 9 to 14) (size 15 to 20)
#    0.000    1.667    1.667    3.000    2.333    6.667 
#    0.000    0.000    0.000    6.000    0.000    0.000 
#    0.000    0.000    0.000    0.000    0.000    0.000 
#
# Total GULP energy -595389.295495 kJ/mol
# GULP energy per Si atom -12403.943656 kJ/mol
# Density = 2.061251 g / cm^3
# Si number density = 20.659529 Si / 1000 Ang^3
#
#
#
# Elastic Constant Matrix: (Units=GPa)
#
#
# Indices 1 2 3 4 5 6 
#
# 1 120.9264 46.3775 43.9020 0.0000 0.0000 0.0000
# 2 46.3775 101.5829 15.0583 0.0000 0.0000 0.0000
# 3 43.9020 15.0583 40.3311 0.0000 0.0000 0.0000
# 4 0.0000 0.0000 0.0000 28.4466 0.0000 0.0000
# 5 0.0000 0.0000 0.0000 0.0000 6.9719 0.0000
# 6 0.0000 0.0000 0.0000 0.0000 0.0000 42.2661
#
#
#
# Elastic Compliance Matrix: (Units=1/GPa)
#
#
# Indices 1 2 3 4 5 6 
#
# 1 0.015682 -0.004900 -0.015241 0.000000 0.000000 0.000000
# 2 -0.004900 0.011952 0.000872 0.000000 0.000000 0.000000
# 3 -0.015241 0.000872 0.041060 0.000000 0.000000 0.000000
# 4 0.000000 0.000000 0.000000 0.035154 0.000000 0.000000
# 5 0.000000 0.000000 0.000000 0.000000 0.143432 0.000000
# 6 0.000000 0.000000 0.000000 0.000000 0.000000 0.023660
#
#
# Mechanical properties :
#
#
# Convention : Reuss Voigt Hill
#
# Bulk Modulus (GPa) = 33.16236 52.61289 42.88763
# Shear Modulus (GPa) = 15.64801 26.03711 20.84256
#
# Velocity S-wave (km/s) = 2.75512 3.55392 3.17970
# Velocity P-wave (km/s) = 5.11934 6.50864 5.85534
#
# Compressibility (1/GPa) = 0.03015467
#
# Stress axis : x y z
#
# Youngs Moduli (GPa) = 63.76737 83.66658 24.35489
#
# Poissons Ratio (x) = 0.40999 0.37119
# Poissons Ratio (y) = 0.31248 -0.02123
# Poissons Ratio (z) = 0.97187 -0.07293
#
# Static dielectric constant tensor:
#      x y z
#    x 3.842890 0.000000 0.000000 
#    y 0.000000 3.812240 0.000000 
#    z 0.000000 0.000000 3.312590 
# 
# 
# High freq. dielectric constant tensor:
#      x y z
#    x 1.817950 0.000000 0.000000 
#    y 0.000000 1.819660 0.000000 
#    z 0.000000 0.000000 1.774220 
# 
# From -- ./inp_files/58069.got.cif
#   From: 2010.03.12/outbox.cif.g09.slc.cpg/sg63_30_cif.got.tgz:58069.got - 2010.04.10 19:34:48.
