data_PCOD8261023
_publ_section_title
;
Structure prediction by ZEFSAII (Michael W. Deem and Ramdas Pophale) SiO2 
 PCOD8261023
Probable space group: C M C M
;
_chemical_formula_sum "Si O2"
_cell_formula_units_Z 96
_cell_length_a 8.719489
_cell_length_b 22.505434
_cell_length_c 23.703439
_cell_angle_alpha 90.000000
_cell_angle_beta 90.000000
_cell_angle_gamma 90.000000
_cell_volume 4651.465311
_symmetry_space_group_name_H-M "C M C M"
_symmetry_group_IT_number 63
_symmetry_cell_setting 'orthorhombic'
loop_
_space_group_symop_operation_xyz
x,y,z
-x,-y,1/2+z
x,-y,-z
-x,y,1/2-z
-x,-y,-z
x,y,1/2-z
-x,y,z
x,-y,1/2+z
1/2+x,1/2+y,z
1/2-x,1/2-y,1/2+z
1/2+x,1/2-y,-z
1/2-x,1/2+y,1/2-z
1/2-x,1/2-y,-z
1/2+x,1/2+y,1/2-z
1/2-x,1/2+y,z
1/2+x,1/2-y,1/2+z
loop_
_atom_site_type_symbol
_atom_site_label
_atom_site_fract_x
_atom_site_fract_y
_atom_site_fract_z
Si Si1 0.683798 0.148068 0.750000
Si Si2 0.321934 0.214444 0.861052
Si Si3 0.168217 0.045802 0.549077
Si Si4 0.679216 0.162855 0.522502
Si Si5 0.679232 0.986886 0.250000
Si Si6 0.322478 0.338123 0.905718
Si Si7 0.320051 0.039730 0.366310
O O1 0.500000 0.150806 0.750000
O O2 0.749148 0.182550 0.694340
O O3 0.748959 0.080385 0.750000
O O4 0.500000 0.198115 0.862744
O O5 0.250771 0.190682 0.919944
O O6 0.296717 0.285743 0.859748
O O7 0.291172 0.092896 0.526973
O O8 0.000000 0.073588 0.563402
O O9 0.144692 0.000000 0.500000
O O10 0.234957 0.013341 0.602941
O O11 0.500000 0.176570 0.515063
O O12 0.767184 0.186387 0.466814
O O13 0.500000 0.975478 0.250000
O O14 0.728878 0.027773 0.197863
O O15 0.500000 0.355867 0.910786
O O16 0.229284 0.395056 0.885557
O O17 0.500000 0.033806 0.376797
#
# Coordination Sequence:
#
# PCOD8261023 Si02
#       7
#     8  16  16  16   8  16  16
#     4   9  16  35  60  83 109 143 188 239 288 343
#     4   9  20  35  57  85 114 149 193 238 286 343
#     4  11  22  36  56  84 119 152 186 237 297 346
#     4  11  21  36  59  87 115 152 197 240 288 349
#     4   9  20  37  61  89 117 147 190 247 294 335
#     4  11  22  37  55  84 122 155 190 238 290 343
#     4  11  22  38  60  87 117 155 199 240 285 345
#
# _framework density 20.638658
#
# number of rings (size 3 to 8) (size 9 to 14) (size 15 to 20)
#    0.000    1.667    1.667    3.500    0.000    4.000 
#    0.000    5.000    0.000    0.000    0.000    6.417 
#    0.000    0.000    0.000    0.000    0.000    0.000 
#
# Total GULP energy -595020.299341 kJ/mol
# GULP energy per Si atom -12396.256236 kJ/mol
# Density = 2.059168 g / cm^3
# Si number density = 20.638658 Si / 1000 Ang^3
#
#
#
# Elastic Constant Matrix: (Units=GPa)
#
#
# Indices 1 2 3 4 5 6 
#
# 1 52.5144 4.9875 23.3377 0.0000 0.0000 0.0000
# 2 4.9875 63.8720 34.2800 0.0000 0.0000 0.0000
# 3 23.3377 34.2800 141.9906 0.0000 0.0000 0.0000
# 4 0.0000 0.0000 0.0000 35.6675 0.0000 0.0000
# 5 0.0000 0.0000 0.0000 0.0000 21.1166 0.0000
# 6 0.0000 0.0000 0.0000 0.0000 0.0000 29.3092
#
#
#
# Elastic Compliance Matrix: (Units=1/GPa)
#
#
# Indices 1 2 3 4 5 6 
#
# 1 0.020546 0.000239 -0.003435 0.000000 0.000000 0.000000
# 2 0.000239 0.017990 -0.004382 0.000000 0.000000 0.000000
# 3 -0.003435 -0.004382 0.008665 0.000000 0.000000 0.000000
# 4 0.000000 0.000000 0.000000 0.028037 0.000000 0.000000
# 5 0.000000 0.000000 0.000000 0.000000 0.047356 0.000000
# 6 0.000000 0.000000 0.000000 0.000000 0.000000 0.034119
#
#
# Mechanical properties :
#
#
# Convention : Reuss Voigt Hill
#
# Bulk Modulus (GPa) = 31.20627 42.62085 36.91356
# Shear Modulus (GPa) = 27.38965 30.27011 28.82988
#
# Velocity S-wave (km/s) = 3.64690 3.83387 3.74155
# Velocity P-wave (km/s) = 5.73465 6.34775 6.04897
#
# Compressibility (1/GPa) = 0.03204485
#
# Stress axis : x y z
#
# Youngs Moduli (GPa) = 48.67106 55.58742 115.40316
#
# Poissons Ratio (x) = -0.01329 0.39637
# Poissons Ratio (y) = -0.01163 0.50575
# Poissons Ratio (z) = 0.16717 0.24361
#
# Static dielectric constant tensor:
#      x y z
#    x 3.588330 0.000000 0.000000 
#    y 0.000000 3.680430 0.000000 
#    z 0.000000 0.000000 4.177750 
# 
# 
# High freq. dielectric constant tensor:
#      x y z
#    x 1.779930 0.000000 0.000000 
#    y 0.000000 1.815240 0.000000 
#    z 0.000000 0.000000 1.814270 
# 
# From -- ./inp_files/60013.got.cif
#   From: 2010.03.12/outbox.cif.g09.slc.cpg/sg63_31_cif.got.tgz:60013.got - 2010.04.10 19:34:48.
