data_PCOD8261978
_publ_section_title
;
Structure prediction by ZEFSAII (Michael W. Deem and Ramdas Pophale) SiO2 
 PCOD8261978
Probable space group: C M C A
;
_chemical_formula_sum "Si O2"
_cell_formula_units_Z 96
_cell_length_a 8.962733
_cell_length_b 22.848526
_cell_length_c 25.994675
_cell_angle_alpha 90.000000
_cell_angle_beta 90.000000
_cell_angle_gamma 90.000000
_cell_volume 5323.325706
_symmetry_space_group_name_H-M "C M C A"
_symmetry_group_IT_number 64
_symmetry_cell_setting 'orthorhombic'
loop_
_space_group_symop_operation_xyz
x,y,z
-x,1/2-y,1/2+z
x,-y,-z
-x,1/2+y,1/2-z
-x,-y,-z
x,1/2+y,1/2-z
-x,y,z
x,1/2-y,1/2+z
1/2+x,1/2+y,z
1/2-x,-y,1/2+z
1/2+x,1/2-y,-z
1/2-x,y,1/2-z
1/2-x,1/2-y,-z
1/2+x,y,1/2-z
1/2-x,1/2+y,z
1/2+x,-y,1/2+z
loop_
_atom_site_type_symbol
_atom_site_label
_atom_site_fract_x
_atom_site_fract_y
_atom_site_fract_z
Si Si1 0.172419 0.075225 0.303478
Si Si2 0.825266 0.827988 0.858218
Si Si3 0.662228 0.761591 0.295195
Si Si4 0.826860 0.938739 0.303786
Si Si5 0.834427 0.644219 0.618937
Si Si6 0.323163 0.736575 0.554012
O O1 0.250000 0.093119 0.250000
O O2 0.244646 0.108979 0.352716
O O3 0.000000 0.091993 0.299346
O O4 0.195341 0.006966 0.314392
O O5 0.767718 0.792788 0.808740
O O6 0.780493 0.791422 0.909177
O O7 0.000000 0.838002 0.855623
O O8 0.500000 0.739030 0.277105
O O9 0.750000 0.795657 0.250000
O O10 0.640679 0.804496 0.341498
O O11 0.750000 0.920294 0.250000
O O12 0.753924 0.908069 0.353517
O O13 0.000000 0.920760 0.299882
O O14 0.740154 0.673524 0.572741
O O15 0.000000 0.623035 0.600217
O O16 0.500000 0.730262 0.549191
O O17 0.250000 0.750000 0.500000
#
# Coordination Sequence:
#
# PCOD8261978 Si02
#       6
#    16  16  16  16  16  16
#     4  10  20  33  50  73 104 141 176 209 246 292
#     4  10  20  33  50  72  98 129 165 205 249 298
#     4  10  19  29  43  66  97 130 162 198 242 293
#     4  10  20  33  50  74 105 141 177 210 247 293
#     4  10  20  33  51  74 100 132 168 207 252 301
#     4  10  21  37  57  79 102 129 164 209 261 313
#
# _framework density 18.033840000000001
#
# number of rings (size 3 to 8) (size 9 to 14) (size 15 to 20)
#    0.000    2.000    0.000    4.000    0.000    7.333 
#    0.000    0.000    0.000    1.000    0.000    7.000 
#    0.000    0.000    0.000    0.000    0.000    0.000 
#
# Total GULP energy -594932.616747 kJ/mol
# GULP energy per Si atom -12394.429516 kJ/mol
# Density = 1.799279 g / cm^3
# Si number density = 18.033840 Si / 1000 Ang^3
#
#
#
# Elastic Constant Matrix: (Units=GPa)
#
#
# Indices 1 2 3 4 5 6 
#
# 1 139.8286 54.0697 63.4547 0.0000 0.0000 0.0000
# 2 54.0697 77.8254 35.3316 0.0000 0.0000 0.0000
# 3 63.4547 35.3316 83.2443 0.0000 0.0000 0.0000
# 4 0.0000 0.0000 0.0000 24.2801 0.0000 0.0000
# 5 0.0000 0.0000 0.0000 0.0000 30.7654 0.0000
# 6 0.0000 0.0000 0.0000 0.0000 0.0000 21.3919
#
#
#
# Elastic Compliance Matrix: (Units=1/GPa)
#
#
# Indices 1 2 3 4 5 6 
#
# 1 0.012541 -0.005417 -0.007261 0.000000 0.000000 0.000000
# 2 -0.005417 0.018256 -0.003619 0.000000 0.000000 0.000000
# 3 -0.007261 -0.003619 0.019084 0.000000 0.000000 0.000000
# 4 0.000000 0.000000 0.000000 0.041186 0.000000 0.000000
# 5 0.000000 0.000000 0.000000 0.000000 0.032504 0.000000
# 6 0.000000 0.000000 0.000000 0.000000 0.000000 0.046747
#
#
# Mechanical properties :
#
#
# Convention : Reuss Voigt Hill
#
# Bulk Modulus (GPa) = 57.84706 67.40116 62.62411
# Shear Modulus (GPa) = 23.96097 25.15699 24.55898
#
# Velocity S-wave (km/s) = 3.64904 3.73901 3.69430
# Velocity P-wave (km/s) = 7.06404 7.48974 7.28000
#
# Compressibility (1/GPa) = 0.01728696
#
# Stress axis : x y z
#
# Youngs Moduli (GPa) = 79.73763 54.77739 52.40114
#
# Poissons Ratio (x) = 0.29672 0.38047
# Poissons Ratio (y) = 0.43192 0.18965
# Poissons Ratio (z) = 0.57895 0.19825
#
# Static dielectric constant tensor:
#      x y z
#    x 3.776100 0.000000 0.000000 
#    y 0.000000 3.370280 0.000000 
#    z 0.000000 0.000000 3.440360 
# 
# 
# High freq. dielectric constant tensor:
#      x y z
#    x 1.723290 0.000000 0.000000 
#    y 0.000000 1.691830 0.000000 
#    z 0.000000 0.000000 1.666530 
# 
# From -- ./inp_files/48088.got.cif
#   From: 2010.03.12/outbox.cif.g09.slc.cpg/sg64_25_cif.got.tgz:48088.got - 2010.04.10 20:19:32.
