data_PCOD8261389
_publ_section_title
;
Structure prediction by ZEFSAII (Michael W. Deem and Ramdas Pophale) SiO2 
 PCOD8261389
Probable space group: C M C A
;
_chemical_formula_sum "Si O2"
_cell_formula_units_Z 48
_cell_length_a 27.816161
_cell_length_b 14.934271
_cell_length_c 5.055792
_cell_angle_alpha 90.000000
_cell_angle_beta 90.000000
_cell_angle_gamma 90.000000
_cell_volume 2100.247215
_symmetry_space_group_name_H-M "C M C A"
_symmetry_group_IT_number 64
_symmetry_cell_setting 'orthorhombic'
loop_
_space_group_symop_operation_xyz
x,y,z
-x,1/2-y,1/2+z
x,-y,-z
-x,1/2+y,1/2-z
-x,-y,-z
x,1/2+y,1/2-z
-x,y,z
x,1/2-y,1/2+z
1/2+x,1/2+y,z
1/2-x,-y,1/2+z
1/2+x,1/2-y,-z
1/2-x,y,1/2-z
1/2-x,1/2-y,-z
1/2+x,y,1/2-z
1/2-x,1/2+y,z
1/2+x,-y,1/2+z
loop_
_atom_site_type_symbol
_atom_site_label
_atom_site_fract_x
_atom_site_fract_y
_atom_site_fract_z
Si Si1 0.500000 0.691861 0.553040
Si Si2 0.100269 0.394191 0.031205
Si Si3 0.750000 0.059724 0.250000
Si Si4 0.347189 0.394525 0.965365
O O1 0.500000 0.775281 0.751661
O O2 0.453667 0.631181 0.607544
O O3 0.137407 0.354002 0.251511
O O4 0.104014 0.500000 0.000000
O O5 0.116643 0.352263 0.751449
O O6 0.707525 0.122516 0.366435
O O7 0.769343 0.000000 0.500000
O O8 0.354124 0.500000 0.000000
#
# Coordination Sequence:
#
# PCOD8261389 Si02
#       4
#     8  16   8  16
#     4  12  25  40  57  80 106 142 186 232 279 324
#     4  10  20  36  56  80 109 143 181 222 269 323
#     4  10  16  26  46  80 118 144 168 214 270 320
#     4   9  17  29  50  80 112 142 173 215 268 318
#
# _framework density 22.854451999999998
#
# number of rings (size 3 to 8) (size 9 to 14) (size 15 to 20)
#    0.000    2.000    0.000    7.500    0.000    0.000 
#    0.000    6.667    0.000    0.000    0.000   23.333 
#    0.000    0.000    0.000    0.000    0.000    0.000 
#
# Total GULP energy -297393.204476 kJ/mol
# GULP energy per Si atom -12391.383520 kJ/mol
# Density = 2.280243 g / cm^3
# Si number density = 22.854452 Si / 1000 Ang^3
#
#
#
# Elastic Constant Matrix: (Units=GPa)
#
#
# Indices 1 2 3 4 5 6 
#
# 1 186.6538 15.7819 65.8557 0.0000 0.0000 0.0000
# 2 15.7819 10.5943 19.0265 0.0000 0.0000 0.0000
# 3 65.8557 19.0265 154.5509 0.0000 0.0000 0.0000
# 4 0.0000 0.0000 0.0000 15.2719 0.0000 0.0000
# 5 0.0000 0.0000 0.0000 0.0000 37.8182 0.0000
# 6 0.0000 0.0000 0.0000 0.0000 0.0000 8.4859
#
#
#
# Elastic Compliance Matrix: (Units=1/GPa)
#
#
# Indices 1 2 3 4 5 6 
#
# 1 0.006603 -0.006141 -0.002057 0.000000 0.000000 0.000000
# 2 -0.006141 0.126894 -0.013005 0.000000 0.000000 0.000000
# 3 -0.002057 -0.013005 0.008948 0.000000 0.000000 0.000000
# 4 0.000000 0.000000 0.000000 0.065480 0.000000 0.000000
# 5 0.000000 0.000000 0.000000 0.000000 0.026442 0.000000
# 6 0.000000 0.000000 0.000000 0.000000 0.000000 0.117843
#
#
# Mechanical properties :
#
#
# Convention : Reuss Voigt Hill
#
# Bulk Modulus (GPa) = 9.99619 61.45859 35.72739
# Shear Modulus (GPa) = 11.68329 29.05751 20.37040
#
# Velocity S-wave (km/s) = 2.26343 3.56956 2.98872
# Velocity P-wave (km/s) = 3.34876 6.62863 5.25133
#
# Compressibility (1/GPa) = 0.10003809
#
# Stress axis : x y z
#
# Youngs Moduli (GPa) = 151.45455 7.88061 111.75542
#
# Poissons Ratio (x) = 0.04839 0.22994
# Poissons Ratio (y) = 0.93002 1.45339
# Poissons Ratio (z) = 0.31162 0.10249
#
# Static dielectric constant tensor:
#      x y z
#    x 4.236920 0.000000 0.000000 
#    y 0.000000 3.347310 0.000000 
#    z 0.000000 0.000000 4.918630 
# 
# 
# High freq. dielectric constant tensor:
#      x y z
#    x 1.909720 0.000000 0.000000 
#    y 0.000000 1.835370 0.000000 
#    z 0.000000 0.000000 1.932700 
# 
# From -- ./inp_files/2057.got.cif
#   From: 2010.03.12/outbox.cif.g09.slc.cpg/sg64_2_cif.got.tgz:2057.got - 2010.04.10 20:19:32.
