data_PCOD8261576
_publ_section_title
;
Structure prediction by ZEFSAII (Michael W. Deem and Ramdas Pophale) SiO2 
 PCOD8261576
Probable space group: C M C A
;
_chemical_formula_sum "Si O2"
_cell_formula_units_Z 104
_cell_length_a 16.686348
_cell_length_b 20.724473
_cell_length_c 15.980524
_cell_angle_alpha 90.000000
_cell_angle_beta 90.000000
_cell_angle_gamma 90.000000
_cell_volume 5526.317190
_symmetry_space_group_name_H-M "C M C A"
_symmetry_group_IT_number 64
_symmetry_cell_setting 'orthorhombic'
loop_
_space_group_symop_operation_xyz
x,y,z
-x,1/2-y,1/2+z
x,-y,-z
-x,1/2+y,1/2-z
-x,-y,-z
x,1/2+y,1/2-z
-x,y,z
x,1/2-y,1/2+z
1/2+x,1/2+y,z
1/2-x,-y,1/2+z
1/2+x,1/2-y,-z
1/2-x,y,1/2-z
1/2-x,1/2-y,-z
1/2+x,y,1/2-z
1/2-x,1/2+y,z
1/2+x,-y,1/2+z
loop_
_atom_site_type_symbol
_atom_site_label
_atom_site_fract_x
_atom_site_fract_y
_atom_site_fract_z
Si Si1 0.349233 0.804062 0.530781
Si Si2 0.171828 0.922831 0.642648
Si Si3 0.589873 0.559772 0.631362
Si Si4 0.500000 0.127941 0.546664
Si Si5 0.347334 0.896352 0.671522
Si Si6 0.323709 0.840540 0.016973
Si Si7 0.000000 0.036187 0.095524
Si Si8 0.500000 0.917307 0.288442
O O1 0.422264 0.838583 0.488051
O O2 0.340783 0.825611 0.628300
O O3 0.366795 0.728059 0.527720
O O4 0.271192 0.827020 0.478771
O O5 0.266910 0.936473 0.648208
O O6 0.141937 0.890108 0.728735
O O7 0.149747 0.872542 0.570139
O O8 0.127780 0.989473 0.621559
O O9 0.500000 0.560527 0.590304
O O10 0.648479 0.612520 0.591616
O O11 0.579455 0.576360 0.730780
O O12 0.500000 0.053512 0.504848
O O13 0.500000 0.143099 0.648006
O O14 0.421693 0.932892 0.634953
O O15 0.000000 0.964621 0.131447
#
# Coordination Sequence:
#
# PCOD8261576 Si02
#       8
#    16  16  16   8  16  16   8   8
#     4   9  21  40  60  83 116 149 206 234 291 348
#     4  10  19  35  59  85 116 151 197 231 295 357
#     4  10  22  38  57  84 122 149 187 245 295 346
#     4  10  21  37  61  81 111 158 201 241 289 347
#     4   9  18  35  59  83 113 151 187 245 284 348
#     4  10  21  39  59  86 116 156 191 246 287 353
#     4  10  17  36  58  82 112 150 193 243 293 340
#     4  10  21  37  52  86 123 143 191 245 290 353
#
# _framework density 18.819043000000001
#
# number of rings (size 3 to 8) (size 9 to 14) (size 15 to 20)
#    0.462    1.846    1.538    0.692    1.077    2.462 
#    2.769    4.615    0.000    0.000    0.000    0.000 
#    0.000    0.000    0.000    0.000    0.000    0.000 
#
# Total GULP energy -644216.128724 kJ/mol
# GULP energy per Si atom -12388.771706 kJ/mol
# Density = 1.877621 g / cm^3
# Si number density = 18.819043 Si / 1000 Ang^3
#
#
#
# Elastic Constant Matrix: (Units=GPa)
#
#
# Indices 1 2 3 4 5 6 
#
# 1 66.1846 29.2818 37.0065 0.0000 0.0000 0.0000
# 2 29.2818 114.1425 58.0134 0.0000 0.0000 0.0000
# 3 37.0065 58.0134 134.4352 0.0000 0.0000 0.0000
# 4 0.0000 0.0000 0.0000 20.2283 0.0000 0.0000
# 5 0.0000 0.0000 0.0000 0.0000 25.1029 0.0000
# 6 0.0000 0.0000 0.0000 0.0000 0.0000 28.2138
#
#
#
# Elastic Compliance Matrix: (Units=1/GPa)
#
#
# Indices 1 2 3 4 5 6 
#
# 1 0.018515 -0.002766 -0.003903 0.000000 0.000000 0.000000
# 2 -0.002766 0.011636 -0.004260 0.000000 0.000000 0.000000
# 3 -0.003903 -0.004260 0.010351 0.000000 0.000000 0.000000
# 4 0.000000 0.000000 0.000000 0.049436 0.000000 0.000000
# 5 0.000000 0.000000 0.000000 0.000000 0.039836 0.000000
# 6 0.000000 0.000000 0.000000 0.000000 0.000000 0.035444
#
#
# Mechanical properties :
#
#
# Convention : Reuss Voigt Hill
#
# Bulk Modulus (GPa) = 53.63577 62.59618 58.11598
# Shear Modulus (GPa) = 25.86781 27.40637 26.63709
#
# Velocity S-wave (km/s) = 3.71152 3.82030 3.76631
# Velocity P-wave (km/s) = 6.85054 7.26595 7.06130
#
# Compressibility (1/GPa) = 0.01864427
#
# Stress axis : x y z
#
# Youngs Moduli (GPa) = 54.00892 85.94301 96.60739
#
# Poissons Ratio (x) = 0.23773 0.37707
# Poissons Ratio (y) = 0.14940 0.41152
# Poissons Ratio (z) = 0.21080 0.36609
#
# Static dielectric constant tensor:
#      x y z
#    x 3.508520 0.000000 0.000000 
#    y 0.000000 3.441330 0.000000 
#    z 0.000000 0.000000 3.648230 
# 
# 
# High freq. dielectric constant tensor:
#      x y z
#    x 1.734000 0.000000 0.000000 
#    y 0.000000 1.719170 0.000000 
#    z 0.000000 0.000000 1.741200 
# 
# From -- ./inp_files/25738.got.cif
#   From: 2010.03.12/outbox.cif.g09.slc.cpg/sg64_13_cif.got.tgz:25738.got - 2010.04.10 20:19:32.
