data_PCOD8261833
_publ_section_title
;
Structure prediction by ZEFSAII (Michael W. Deem and Ramdas Pophale) SiO2 
 PCOD8261833
Probable space group: C M C A
;
_chemical_formula_sum "Si O2"
_cell_formula_units_Z 96
_cell_length_a 17.693358
_cell_length_b 20.346481
_cell_length_c 14.220054
_cell_angle_alpha 90.000000
_cell_angle_beta 90.000000
_cell_angle_gamma 90.000000
_cell_volume 5119.184919
_symmetry_space_group_name_H-M "C M C A"
_symmetry_group_IT_number 64
_symmetry_cell_setting 'orthorhombic'
loop_
_space_group_symop_operation_xyz
x,y,z
-x,1/2-y,1/2+z
x,-y,-z
-x,1/2+y,1/2-z
-x,-y,-z
x,1/2+y,1/2-z
-x,y,z
x,1/2-y,1/2+z
1/2+x,1/2+y,z
1/2-x,-y,1/2+z
1/2+x,1/2-y,-z
1/2-x,y,1/2-z
1/2-x,1/2-y,-z
1/2+x,y,1/2-z
1/2-x,1/2+y,z
1/2+x,-y,1/2+z
loop_
_atom_site_type_symbol
_atom_site_label
_atom_site_fract_x
_atom_site_fract_y
_atom_site_fract_z
Si Si1 0.089258 0.681986 0.659018
Si Si2 0.910476 0.068557 0.702866
Si Si3 0.836852 0.763933 0.986061
Si Si4 0.087120 0.373437 0.011320
Si Si5 0.412276 0.422284 0.691133
Si Si6 0.837194 0.702725 0.273159
O O1 0.116355 0.616561 0.713770
O O2 0.132914 0.681787 0.559728
O O3 0.110338 0.745906 0.719123
O O4 0.000000 0.681953 0.641362
O O5 0.875323 0.093546 0.603666
O O6 0.000000 0.069004 0.692922
O O7 0.884344 0.994252 0.724503
O O8 0.878192 0.696765 0.010442
O O9 0.854245 0.790338 0.882952
O O10 0.750000 0.750000 0.000000
O O11 0.000000 0.360848 0.031443
O O12 0.099713 0.419754 0.921312
O O13 0.500000 0.409105 0.716591
O O14 0.359453 0.370606 0.743841
O O15 0.750000 0.716754 0.250000
#
# Coordination Sequence:
#
# PCOD8261833 Si02
#       6
#    16  16  16  16  16  16
#     4  11  22  38  61  90 120 153 198 246 294 355
#     4   9  19  35  58  87 119 154 195 243 296 348
#     4  12  23  37  58  86 121 155 198 247 298 351
#     4  10  18  32  58  87 116 150 197 250 294 340
#     4  10  20  36  58  87 119 153 195 245 295 350
#     4  12  23  39  60  85 119 160 199 242 297 353
#
# _framework density 18.752986
#
# number of rings (size 3 to 8) (size 9 to 14) (size 15 to 20)
#    0.000    1.333    5.000    1.500    0.000    4.000 
#    0.000    3.333    0.000    3.000    0.000    0.000 
#    0.000    0.000    0.000    0.000    0.000    0.000 
#
# Total GULP energy -595302.248492 kJ/mol
# GULP energy per Si atom -12402.130177 kJ/mol
# Density = 1.871030 g / cm^3
# Si number density = 18.752986 Si / 1000 Ang^3
#
#
#
# Elastic Constant Matrix: (Units=GPa)
#
#
# Indices 1 2 3 4 5 6 
#
# 1 58.0171 24.8781 36.8190 0.0000 0.0000 0.0000
# 2 24.8781 120.8327 41.5975 0.0000 0.0000 0.0000
# 3 36.8190 41.5975 121.6987 0.0000 0.0000 0.0000
# 4 0.0000 0.0000 0.0000 32.3679 0.0000 0.0000
# 5 0.0000 0.0000 0.0000 0.0000 29.0795 0.0000
# 6 0.0000 0.0000 0.0000 0.0000 0.0000 1.4396
#
#
#
# Elastic Compliance Matrix: (Units=1/GPa)
#
#
# Indices 1 2 3 4 5 6 
#
# 1 0.021997 -0.002536 -0.005788 0.000000 0.000000 0.000000
# 2 -0.002536 0.009672 -0.002539 0.000000 0.000000 0.000000
# 3 -0.005788 -0.002539 0.010836 0.000000 0.000000 0.000000
# 4 0.000000 0.000000 0.000000 0.030895 0.000000 0.000000
# 5 0.000000 0.000000 0.000000 0.000000 0.034388 0.000000
# 6 0.000000 0.000000 0.000000 0.000000 0.000000 0.694661
#
#
# Mechanical properties :
#
#
# Convention : Reuss Voigt Hill
#
# Bulk Modulus (GPa) = 48.12577 56.34865 52.23721
# Shear Modulus (GPa) = 6.01611 25.72765 15.87188
#
# Velocity S-wave (km/s) = 1.79305 3.70797 2.91239
# Velocity P-wave (km/s) = 5.47772 6.96025 6.26301
#
# Compressibility (1/GPa) = 0.02077889
#
# Stress axis : x y z
#
# Youngs Moduli (GPa) = 45.46035 103.39063 92.28595
#
# Poissons Ratio (x) = 0.26224 0.53416
# Poissons Ratio (y) = 0.11530 0.23428
# Poissons Ratio (z) = 0.26313 0.26247
#
# Static dielectric constant tensor:
#      x y z
#    x 3.238060 0.000000 0.000000 
#    y 0.000000 3.556320 0.000000 
#    z 0.000000 0.000000 3.736760 
# 
# 
# High freq. dielectric constant tensor:
#      x y z
#    x 1.710300 0.000000 0.000000 
#    y 0.000000 1.726780 0.000000 
#    z 0.000000 0.000000 1.736790 
# 
# From -- ./inp_files/23887.got.cif
#   From: 2010.03.12/outbox.cif.g09.slc.cpg/sg64_12_cif.got.tgz:23887.got - 2010.04.10 20:19:32.
