data_PCOD8261432
_publ_section_title
;
Structure prediction by ZEFSAII (Michael W. Deem and Ramdas Pophale) SiO2 
 PCOD8261432
Probable space group: C M C A
;
_chemical_formula_sum "Si O2"
_cell_formula_units_Z 128
_cell_length_a 20.346676
_cell_length_b 16.691415
_cell_length_c 20.854634
_cell_angle_alpha 90.000000
_cell_angle_beta 90.000000
_cell_angle_gamma 90.000000
_cell_volume 7082.542626
_symmetry_space_group_name_H-M "C M C A"
_symmetry_group_IT_number 64
_symmetry_cell_setting 'orthorhombic'
loop_
_space_group_symop_operation_xyz
x,y,z
-x,1/2-y,1/2+z
x,-y,-z
-x,1/2+y,1/2-z
-x,-y,-z
x,1/2+y,1/2-z
-x,y,z
x,1/2-y,1/2+z
1/2+x,1/2+y,z
1/2-x,-y,1/2+z
1/2+x,1/2-y,-z
1/2-x,y,1/2-z
1/2-x,1/2-y,-z
1/2+x,y,1/2-z
1/2-x,1/2+y,z
1/2+x,-y,1/2+z
loop_
_atom_site_type_symbol
_atom_site_label
_atom_site_fract_x
_atom_site_fract_y
_atom_site_fract_z
Si Si1 0.331866 0.395101 0.115808
Si Si2 0.748019 0.822496 0.911279
Si Si3 0.573586 0.700460 0.203027
Si Si4 0.314008 0.244813 0.705411
Si Si5 0.427745 0.306233 0.419947
Si Si6 0.574126 0.650092 0.995668
Si Si7 0.369124 0.574084 0.116578
Si Si8 0.705518 0.650604 0.547395
O O1 0.329448 0.345358 0.181888
O O2 0.378091 0.349196 0.065211
O O3 0.361226 0.481046 0.132529
O O4 0.258472 0.402735 0.085753
O O5 0.695996 0.800270 0.856803
O O6 0.798483 0.884346 0.880606
O O7 0.786710 0.744153 0.935071
O O8 0.712435 0.864113 0.971531
O O9 0.500000 0.701054 0.231388
O O10 0.623816 0.717901 0.259561
O O11 0.582358 0.768770 0.149910
O O12 0.585661 0.613410 0.171394
O O13 0.250000 0.243850 0.750000
O O14 0.500000 0.347258 0.424341
O O15 0.422509 0.237485 0.473460
O O16 0.369613 0.371177 0.432088
O O17 0.500000 0.628925 0.974286
O O18 0.598151 0.583435 0.046609
#
# Coordination Sequence:
#
# PCOD8261432 Si02
#       8
#    16  16  16  16  16  16  16  16
#     4  11  23  31  54  82 116 137 173 226 284 322
#     4  10  18  30  57  74 107 143 175 218 264 320
#     4  10  20  36  57  75 103 149 193 218 255 322
#     4  11  21  38  54  77 104 145 186 233 258 298
#     4   9  16  30  55  79 103 143 185 219 261 318
#     4  10  19  32  52  82 117 143 165 206 273 341
#     4  11  19  36  52  83 107 144 177 212 277 338
#     4  10  16  32  51  84 110 135 173 226 266 322
#
# _framework density 18.072606
#
# number of rings (size 3 to 8) (size 9 to 14) (size 15 to 20)
#    0.000    1.750    5.000    3.750    0.000    2.000 
#    2.250    0.625    0.000    0.000    0.000    1.750 
#    0.000    0.000    0.000    0.000    0.000    0.000 
#
# Total GULP energy -793571.496692 kJ/mol
# GULP energy per Si atom -12399.554636 kJ/mol
# Density = 1.803147 g / cm^3
# Si number density = 18.072606 Si / 1000 Ang^3
#
#
#
# Elastic Constant Matrix: (Units=GPa)
#
#
# Indices 1 2 3 4 5 6 
#
# 1 144.3716 17.2383 41.6667 0.0000 0.0000 0.0000
# 2 17.2383 27.8106 18.2678 0.0000 0.0000 0.0000
# 3 41.6667 18.2678 83.8061 0.0000 0.0000 0.0000
# 4 0.0000 0.0000 0.0000 14.1068 0.0000 0.0000
# 5 0.0000 0.0000 0.0000 0.0000 26.6079 0.0000
# 6 0.0000 0.0000 0.0000 0.0000 0.0000 20.3190
#
#
#
# Elastic Compliance Matrix: (Units=1/GPa)
#
#
# Indices 1 2 3 4 5 6 
#
# 1 0.008274 -0.002832 -0.003496 0.000000 0.000000 0.000000
# 2 -0.002832 0.042936 -0.007951 0.000000 0.000000 0.000000
# 3 -0.003496 -0.007951 0.015404 0.000000 0.000000 0.000000
# 4 0.000000 0.000000 0.000000 0.070888 0.000000 0.000000
# 5 0.000000 0.000000 0.000000 0.000000 0.037583 0.000000
# 6 0.000000 0.000000 0.000000 0.000000 0.000000 0.049215
#
#
# Mechanical properties :
#
#
# Convention : Reuss Voigt Hill
#
# Bulk Modulus (GPa) = 26.27794 45.59266 35.93530
# Shear Modulus (GPa) = 18.82942 24.12777 21.47860
#
# Velocity S-wave (km/s) = 3.23131 3.65779 3.45115
# Velocity P-wave (km/s) = 5.33794 6.56670 5.98394
#
# Compressibility (1/GPa) = 0.03805474
#
# Stress axis : x y z
#
# Youngs Moduli (GPa) = 120.86419 23.29071 64.91939
#
# Poissons Ratio (x) = 0.06596 0.22698
# Poissons Ratio (y) = 0.34227 0.51617
# Poissons Ratio (z) = 0.42257 0.18518
#
# Static dielectric constant tensor:
#      x y z
#    x 3.626240 0.000000 0.000000 
#    y 0.000000 2.919900 0.000000 
#    z 0.000000 0.000000 3.326720 
# 
# 
# High freq. dielectric constant tensor:
#      x y z
#    x 1.714280 0.000000 0.000000 
#    y 0.000000 1.651280 0.000000 
#    z 0.000000 0.000000 1.690680 
# 
# From -- ./inp_files/41164.got.cif
#   From: 2010.03.12/outbox.cif.g09.slc.cpg/sg64_21_cif.got.tgz:41164.got - 2010.04.10 20:19:32.
