data_PCOD8261034
_publ_section_title
;
Structure prediction by ZEFSAII (Michael W. Deem and Ramdas Pophale) SiO2 
 PCOD8261034
Probable space group: C M C M
;
_chemical_formula_sum "Si O2"
_cell_formula_units_Z 112
_cell_length_a 19.579024
_cell_length_b 12.388783
_cell_length_c 23.915904
_cell_angle_alpha 90.000000
_cell_angle_beta 90.000000
_cell_angle_gamma 90.000000
_cell_volume 5801.048363
_symmetry_space_group_name_H-M "C M C M"
_symmetry_group_IT_number 63
_symmetry_cell_setting 'orthorhombic'
loop_
_space_group_symop_operation_xyz
x,y,z
-x,-y,1/2+z
x,-y,-z
-x,y,1/2-z
-x,-y,-z
x,y,1/2-z
-x,y,z
x,-y,1/2+z
1/2+x,1/2+y,z
1/2-x,1/2-y,1/2+z
1/2+x,1/2-y,-z
1/2-x,1/2+y,1/2-z
1/2-x,1/2-y,-z
1/2+x,1/2+y,1/2-z
1/2-x,1/2+y,z
1/2+x,1/2-y,1/2+z
loop_
_atom_site_type_symbol
_atom_site_label
_atom_site_fract_x
_atom_site_fract_y
_atom_site_fract_z
Si Si1 0.659599 0.891505 0.376349
Si Si2 0.310672 0.124372 0.115889
Si Si3 0.341715 0.440658 0.857384
Si Si4 0.796414 0.167979 0.683371
Si Si5 0.920315 0.896248 0.534363
Si Si6 0.423709 0.736049 0.188894
Si Si7 0.324542 0.798009 0.004590
O O1 0.720177 0.840831 0.339592
O O2 0.592524 0.826106 0.358175
O O3 0.673449 0.878407 0.442486
O O4 0.650907 0.017692 0.361505
O O5 0.229612 0.099986 0.116665
O O6 0.329999 0.225477 0.155436
O O7 0.338193 0.140184 0.053167
O O8 0.339121 0.562630 0.834918
O O9 0.400806 0.424605 0.902716
O O10 0.368173 0.361154 0.808947
O O11 0.796520 0.180346 0.750000
O O12 0.880769 0.793944 0.510429
O O13 0.000000 0.870892 0.529508
O O14 0.897544 0.000000 0.500000
O O15 0.420583 0.790896 0.250000
O O16 0.500000 0.692628 0.176350
O O17 0.250000 0.750000 0.000000
#
# Coordination Sequence:
#
# PCOD8261034 Si02
#       7
#    16  16  16  16  16  16  16
#     4  11  23  37  58  90 120 160 201 253 300 367
#     4  11  23  37  59  91 120 163 196 252 308 364
#     4  11  21  37  59  85 120 154 202 248 303 369
#     4  11  22  36  57  87 122 156 194 253 313 362
#     4  11  23  36  59  90 124 159 196 255 313 366
#     4  11  22  39  62  86 117 157 203 250 300 361
#     4  12  20  38  60  87 123 164 209 248 306 369
#
# _framework density 19.306856
#
# number of rings (size 3 to 8) (size 9 to 14) (size 15 to 20)
#    0.000    0.857    5.714    2.571    2.000    2.857 
#    0.000    0.714    0.000    3.429    0.000    2.000 
#    0.000    0.000    0.000    0.000    0.000    0.000 
#
# Total GULP energy -694318.638913 kJ/mol
# GULP energy per Si atom -12398.547123 kJ/mol
# Density = 1.926291 g / cm^3
# Si number density = 19.306856 Si / 1000 Ang^3
#
#
#
# Elastic Constant Matrix: (Units=GPa)
#
#
# Indices 1 2 3 4 5 6 
#
# 1 62.9292 43.1623 26.5089 0.0000 0.0000 0.0000
# 2 43.1623 157.9812 56.9776 0.0000 0.0000 0.0000
# 3 26.5089 56.9776 129.1396 0.0000 0.0000 0.0000
# 4 0.0000 0.0000 0.0000 27.2148 0.0000 0.0000
# 5 0.0000 0.0000 0.0000 0.0000 977.3260 0.0000
# 6 0.0000 0.0000 0.0000 0.0000 0.0000 411.2201
#
#
#
# Elastic Compliance Matrix: (Units=1/GPa)
#
#
# Indices 1 2 3 4 5 6 
#
# 1 0.019986 -0.004734 -0.002014 0.000000 0.000000 0.000000
# 2 -0.004734 0.008649 -0.002844 0.000000 0.000000 0.000000
# 3 -0.002014 -0.002844 0.009412 0.000000 0.000000 0.000000
# 4 0.000000 0.000000 0.000000 0.036745 0.000000 0.000000
# 5 0.000000 0.000000 0.000000 0.000000 0.001023 0.000000
# 6 0.000000 0.000000 0.000000 0.000000 0.000000 0.002432
#
#
# Mechanical properties :
#
#
# Convention : Reuss Voigt Hill
#
# Bulk Modulus (GPa) = 53.01482 67.03863 60.02672
# Shear Modulus (GPa) = 48.20704 298.04559 173.12631
#
# Velocity S-wave (km/s) = 5.00231 12.43817 9.47975
# Velocity P-wave (km/s) = 7.80274 15.52661 12.28736
#
# Compressibility (1/GPa) = 0.01886265
#
# Stress axis : x y z
#
# Youngs Moduli (GPa) = 50.03416 115.61883 106.24876
#
# Poissons Ratio (x) = 0.54736 0.21398
# Poissons Ratio (y) = 0.23687 0.30220
# Poissons Ratio (z) = 0.10076 0.32885
#
# Static dielectric constant tensor:
#      x y z
#    x 3.335860 0.000000 0.000000 
#    y 0.000000 3.908190 0.000000 
#    z 0.000000 0.000000 3.793630 
# 
# 
# High freq. dielectric constant tensor:
#      x y z
#    x 1.723150 0.000000 0.000000 
#    y 0.000000 1.759790 0.000000 
#    z 0.000000 0.000000 1.763670 
# 
# From -- ./inp_files/64613.got.cif
#   From: 2010.03.12/outbox.cif.g09.slc.cpg/sg63_33_cif.got.tgz:64613.got - 2010.04.10 19:34:48.
