data_PCOD8261146
_publ_section_title
;
Structure prediction by ZEFSAII (Michael W. Deem and Ramdas Pophale) SiO2 
 PCOD8261146
Probable space group: C M C M
;
_chemical_formula_sum "Si O2"
_cell_formula_units_Z 104
_cell_length_a 21.841813
_cell_length_b 9.343295
_cell_length_c 25.732760
_cell_angle_alpha 90.000000
_cell_angle_beta 90.000000
_cell_angle_gamma 90.000000
_cell_volume 5251.400187
_symmetry_space_group_name_H-M "C M C M"
_symmetry_group_IT_number 63
_symmetry_cell_setting 'orthorhombic'
loop_
_space_group_symop_operation_xyz
x,y,z
-x,-y,1/2+z
x,-y,-z
-x,y,1/2-z
-x,-y,-z
x,y,1/2-z
-x,y,z
x,-y,1/2+z
1/2+x,1/2+y,z
1/2-x,1/2-y,1/2+z
1/2+x,1/2-y,-z
1/2-x,1/2+y,1/2-z
1/2-x,1/2-y,-z
1/2+x,1/2+y,1/2-z
1/2-x,1/2+y,z
1/2+x,1/2-y,1/2+z
loop_
_atom_site_type_symbol
_atom_site_label
_atom_site_fract_x
_atom_site_fract_y
_atom_site_fract_z
Si Si1 0.000000 0.956917 0.616873
Si Si2 0.722887 0.220944 0.557269
Si Si3 0.500000 0.274054 0.308919
Si Si4 0.182736 0.419964 0.900893
Si Si5 0.000000 0.314748 0.189116
Si Si6 0.066474 0.637107 0.034150
Si Si7 0.101189 0.539117 0.190809
Si Si8 0.102773 0.120055 0.461818
O O1 0.000000 0.103381 0.648283
O O2 0.000000 0.829141 0.657279
O O3 0.060524 0.952036 0.581725
O O4 0.750000 0.250000 0.500000
O O5 0.769005 0.289685 0.599264
O O6 0.658094 0.297197 0.565254
O O7 0.713042 0.052590 0.567978
O O8 0.500000 0.336269 0.250000
O O9 0.438834 0.181415 0.316927
O O10 0.120789 0.355271 0.925097
O O11 0.163927 0.461451 0.842443
O O12 0.939551 0.403441 0.173771
O O13 0.000000 0.280289 0.250000
O O14 0.000000 0.626276 0.062570
O O15 0.079583 0.500000 0.000000
O O16 0.062955 0.772427 0.996336
O O17 0.122486 0.523788 0.250000
O O18 0.130321 0.000000 0.500000
#
# Coordination Sequence:
#
# PCOD8261146 Si02
#       8
#     8  16   8  16   8  16  16  16
#     4  12  24  36  58  93 131 162 199 254 323 375
#     4  12  24  42  59  88 120 171 216 248 294 384
#     4   9  21  40  64  92 123 162 204 255 318 385
#     4  12  24  40  66  87 122 168 209 255 315 356
#     4   9  19  38  63  90 121 156 198 257 311 367
#     4  11  23  38  60  89 123 162 207 254 303 366
#     4   9  21  41  66  93 117 152 211 262 307 371
#     4  12  25  38  53  88 131 163 204 257 307 364
#
# _framework density 19.804241000000001
#
# number of rings (size 3 to 8) (size 9 to 14) (size 15 to 20)
#    0.000    1.077    3.846    3.692    4.308    0.000 
#    0.000    0.769    0.000    1.846    0.000    0.000 
#    0.000    0.000    0.000    0.000    0.000    0.000 
#
# Total GULP energy -644830.308279 kJ/mol
# GULP energy per Si atom -12400.582852 kJ/mol
# Density = 1.975917 g / cm^3
# Si number density = 19.804241 Si / 1000 Ang^3
#
#
#
# Elastic Constant Matrix: (Units=GPa)
#
#
# Indices 1 2 3 4 5 6 
#
# 1 99.6776 7.9118 27.7784 0.0000 0.0000 0.0000
# 2 7.9118 81.8731 21.5331 0.0000 0.0000 0.0000
# 3 27.7784 21.5331 65.0984 0.0000 0.0000 0.0000
# 4 0.0000 0.0000 0.0000 31.2889 0.0000 0.0000
# 5 0.0000 0.0000 0.0000 0.0000 43.8824 0.0000
# 6 0.0000 0.0000 0.0000 0.0000 0.0000 26.9266
#
#
#
# Elastic Compliance Matrix: (Units=1/GPa)
#
#
# Indices 1 2 3 4 5 6 
#
# 1 0.011389 0.000195 -0.004924 0.000000 0.000000 0.000000
# 2 0.000195 0.013381 -0.004509 0.000000 0.000000 0.000000
# 3 -0.004924 -0.004509 0.018954 0.000000 0.000000 0.000000
# 4 0.000000 0.000000 0.000000 0.031960 0.000000 0.000000
# 5 0.000000 0.000000 0.000000 0.000000 0.022788 0.000000
# 6 0.000000 0.000000 0.000000 0.000000 0.000000 0.037138
#
#
# Mechanical properties :
#
#
# Convention : Reuss Voigt Hill
#
# Bulk Modulus (GPa) = 39.60925 40.12175 39.86550
# Shear Modulus (GPa) = 30.76839 33.04797 31.90818
#
# Velocity S-wave (km/s) = 3.94588 4.08944 4.01830
# Velocity P-wave (km/s) = 6.38779 6.52696 6.45775
#
# Compressibility (1/GPa) = 0.02524663
#
# Stress axis : x y z
#
# Youngs Moduli (GPa) = 87.80236 74.73192 52.75889
#
# Poissons Ratio (x) = -0.01454 0.25980
# Poissons Ratio (y) = -0.01708 0.23790
# Poissons Ratio (z) = 0.43236 0.33698
#
# Static dielectric constant tensor:
#      x y z
#    x 3.711750 0.000000 0.000000 
#    y 0.000000 3.570890 0.000000 
#    z 0.000000 0.000000 3.567710 
# 
# 
# High freq. dielectric constant tensor:
#      x y z
#    x 1.770330 0.000000 0.000000 
#    y 0.000000 1.781340 0.000000 
#    z 0.000000 0.000000 1.759340 
# 
# From -- ./inp_files/70417.got.cif
#   From: 2010.03.12/outbox.cif.g09.slc.cpg/sg63_36_cif.got.tgz:70417.got - 2010.04.10 19:34:48.
