data_PCOD8261718
_publ_section_title
;
Structure prediction by ZEFSAII (Michael W. Deem and Ramdas Pophale) SiO2 
 PCOD8261718
Probable space group: C M C A
;
_chemical_formula_sum "Si O2"
_cell_formula_units_Z 88
_cell_length_a 18.005412
_cell_length_b 15.888479
_cell_length_c 15.766115
_cell_angle_alpha 90.000000
_cell_angle_beta 90.000000
_cell_angle_gamma 90.000000
_cell_volume 4510.348271
_symmetry_space_group_name_H-M "C M C A"
_symmetry_group_IT_number 64
_symmetry_cell_setting 'orthorhombic'
loop_
_space_group_symop_operation_xyz
x,y,z
-x,1/2-y,1/2+z
x,-y,-z
-x,1/2+y,1/2-z
-x,-y,-z
x,1/2+y,1/2-z
-x,y,z
x,1/2-y,1/2+z
1/2+x,1/2+y,z
1/2-x,-y,1/2+z
1/2+x,1/2-y,-z
1/2-x,y,1/2-z
1/2-x,1/2-y,-z
1/2+x,y,1/2-z
1/2-x,1/2+y,z
1/2+x,-y,1/2+z
loop_
_atom_site_type_symbol
_atom_site_label
_atom_site_fract_x
_atom_site_fract_y
_atom_site_fract_z
Si Si1 0.583819 0.167810 0.594637
Si Si2 0.786302 0.221210 0.333755
Si Si3 0.685408 0.027602 0.185378
Si Si4 0.583741 0.486767 0.825827
Si Si5 0.234360 0.000000 0.500000
Si Si6 0.668277 0.357649 0.938417
O O1 0.500000 0.200114 0.612587
O O2 0.643151 0.222429 0.644826
O O3 0.600566 0.178439 0.494140
O O4 0.590976 0.070184 0.618412
O O5 0.750000 0.261022 0.250000
O O6 0.815571 0.127913 0.318567
O O7 0.720674 0.218051 0.404605
O O8 0.750000 0.995289 0.250000
O O9 0.608537 0.996317 0.228477
O O10 0.688499 0.992761 0.088724
O O11 0.500000 0.453017 0.827362
O O12 0.638357 0.414306 0.861062
O O13 0.283244 0.083976 0.500429
#
# Coordination Sequence:
#
# PCOD8261718 Si02
#       6
#    16  16  16  16   8  16
#     4  11  23  36  55  90 122 148 187 247 307 344
#     4  10  21  38  57  82 118 155 198 230 290 360
#     4  10  18  37  59  87 116 153 201 233 286 348
#     4  11  21  36  61  86 115 149 191 247 295 339
#     4  10  18  30  64  88 110 146 194 248 274 326
#     4  11  18  38  60  88 112 151 202 246 285 343
#
# _framework density 19.510688999999999
#
# number of rings (size 3 to 8) (size 9 to 14) (size 15 to 20)
#    0.000    1.455    7.273    1.091    0.000    4.364 
#    0.000    0.455    0.000    5.455    0.000    0.000 
#    0.000    0.000    0.000    0.000    0.000    0.000 
#
# Total GULP energy -545316.521253 kJ/mol
# GULP energy per Si atom -12393.557301 kJ/mol
# Density = 1.946628 g / cm^3
# Si number density = 19.510689 Si / 1000 Ang^3
#
#
#
# Elastic Constant Matrix: (Units=GPa)
#
#
# Indices 1 2 3 4 5 6 
#
# 1 131.4649 37.5588 61.4397 0.0000 0.0000 0.0000
# 2 37.5588 28.5337 16.9660 0.0000 0.0000 0.0000
# 3 61.4397 16.9660 140.3128 0.0000 0.0000 0.0000
# 4 0.0000 0.0000 0.0000 17.4677 0.0000 0.0000
# 5 0.0000 0.0000 0.0000 0.0000 19.6008 0.0000
# 6 0.0000 0.0000 0.0000 0.0000 0.0000 28.0394
#
#
#
# Elastic Compliance Matrix: (Units=1/GPa)
#
#
# Indices 1 2 3 4 5 6 
#
# 1 0.014228 -0.016188 -0.004273 0.000000 0.000000 0.000000
# 2 -0.016188 0.056179 0.000295 0.000000 0.000000 0.000000
# 3 -0.004273 0.000295 0.008962 0.000000 0.000000 0.000000
# 4 0.000000 0.000000 0.000000 0.057249 0.000000 0.000000
# 5 0.000000 0.000000 0.000000 0.000000 0.051018 0.000000
# 6 0.000000 0.000000 0.000000 0.000000 0.000000 0.035664
#
#
# Mechanical properties :
#
#
# Convention : Reuss Voigt Hill
#
# Bulk Modulus (GPa) = 25.61569 59.13782 42.37676
# Shear Modulus (GPa) = 18.07372 25.31135 21.69254
#
# Velocity S-wave (km/s) = 3.04690 3.60572 3.33803
# Velocity P-wave (km/s) = 5.05329 6.90733 6.05173
#
# Compressibility (1/GPa) = 0.03903858
#
# Stress axis : x y z
#
# Youngs Moduli (GPa) = 70.28211 17.80021 111.57981
#
# Poissons Ratio (x) = 0.28815 0.47677
# Poissons Ratio (y) = 1.13774 -0.03297
# Poissons Ratio (z) = 0.30031 -0.00526
#
# Static dielectric constant tensor:
#      x y z
#    x 3.628880 0.000000 0.000000 
#    y 0.000000 3.213040 0.000000 
#    z 0.000000 0.000000 3.747030 
# 
# 
# High freq. dielectric constant tensor:
#      x y z
#    x 1.750770 0.000000 0.000000 
#    y 0.000000 1.729780 0.000000 
#    z 0.000000 0.000000 1.772070 
# 
# From -- ./inp_files/33130.got.cif
#   From: 2010.03.12/outbox.cif.g09.slc.cpg/sg64_17_cif.got.tgz:33130.got - 2010.04.10 20:19:32.
