data_PCOD8261715
_publ_section_title
;
Structure prediction by ZEFSAII (Michael W. Deem and Ramdas Pophale) SiO2 
 PCOD8261715
Probable space group: C M C A
;
_chemical_formula_sum "Si O2"
_cell_formula_units_Z 128
_cell_length_a 21.161460
_cell_length_b 18.543803
_cell_length_c 18.788634
_cell_angle_alpha 90.000000
_cell_angle_beta 90.000000
_cell_angle_gamma 90.000000
_cell_volume 7372.921997
_symmetry_space_group_name_H-M "C M C A"
_symmetry_group_IT_number 64
_symmetry_cell_setting 'orthorhombic'
loop_
_space_group_symop_operation_xyz
x,y,z
-x,1/2-y,1/2+z
x,-y,-z
-x,1/2+y,1/2-z
-x,-y,-z
x,1/2+y,1/2-z
-x,y,z
x,1/2-y,1/2+z
1/2+x,1/2+y,z
1/2-x,-y,1/2+z
1/2+x,1/2-y,-z
1/2-x,y,1/2-z
1/2-x,1/2-y,-z
1/2+x,y,1/2-z
1/2-x,1/2+y,z
1/2+x,-y,1/2+z
loop_
_atom_site_type_symbol
_atom_site_label
_atom_site_fract_x
_atom_site_fract_y
_atom_site_fract_z
Si Si1 0.745575 0.300208 0.334341
Si Si2 0.930796 0.258916 0.993235
Si Si3 0.572358 0.212669 0.215083
Si Si4 0.833362 0.321617 0.896321
Si Si5 0.192524 0.426070 0.407462
Si Si6 0.430635 0.852755 0.369743
Si Si7 0.127940 0.711978 0.366395
Si Si8 0.286255 0.409329 0.927850
O O1 0.750000 0.289499 0.250000
O O2 0.796123 0.251521 0.376659
O O3 0.757891 0.382193 0.358707
O O4 0.675517 0.278517 0.357092
O O5 0.874485 0.311636 0.968213
O O6 0.930407 0.189185 0.943744
O O7 0.000000 0.296719 0.988561
O O8 0.920988 0.232646 0.072980
O O9 0.500000 0.192157 0.197808
O O10 0.618117 0.161144 0.168124
O O11 0.584878 0.296437 0.193910
O O12 0.586561 0.198916 0.296822
O O13 0.785644 0.386694 0.910651
O O14 0.122210 0.414525 0.375396
O O15 0.207722 0.509710 0.400499
O O16 0.198275 0.400063 0.488992
O O17 0.500000 0.888259 0.357177
O O18 0.165711 0.639097 0.383182
#
# Coordination Sequence:
#
# PCOD8261715 Si02
#       8
#    16  16  16  16  16  16  16  16
#     4  11  19  32  54  76 104 141 175 220 267 316
#     4  10  18  30  54  81 103 134 178 217 262 314
#     4  10  19  33  56  78 106 136 175 220 268 317
#     4  10  18  36  52  79 104 139 174 218 266 316
#     4  11  19  38  49  79 107 146 183 213 266 326
#     4   9  17  32  53  74 102 143 177 212 253 321
#     4  11  19  33  50  83 109 135 171 233 270 305
#     4  10  23  32  54  75 112 141 174 224 269 315
#
# _framework density 17.360824000000001
#
# number of rings (size 3 to 8) (size 9 to 14) (size 15 to 20)
#    0.000    1.750    5.000    2.250    0.000    2.000 
#    2.250    2.500    0.000    0.000    0.000   17.500 
#    0.000    0.000    0.000    0.000    0.000    0.000 
#
# Total GULP energy -793460.345170 kJ/mol
# GULP energy per Si atom -12397.817893 kJ/mol
# Density = 1.732131 g / cm^3
# Si number density = 17.360824 Si / 1000 Ang^3
#
#
#
# Elastic Constant Matrix: (Units=GPa)
#
#
# Indices 1 2 3 4 5 6 
#
# 1 113.5263 47.5307 29.5244 0.0000 0.0000 0.0000
# 2 47.5307 83.0819 30.8877 0.0000 0.0000 0.0000
# 3 29.5244 30.8877 94.5137 0.0000 0.0000 0.0000
# 4 0.0000 0.0000 0.0000 14.7063 0.0000 0.0000
# 5 0.0000 0.0000 0.0000 0.0000 25.1546 0.0000
# 6 0.0000 0.0000 0.0000 0.0000 0.0000 21.8989
#
#
#
# Elastic Compliance Matrix: (Units=1/GPa)
#
#
# Indices 1 2 3 4 5 6 
#
# 1 0.011814 -0.006132 -0.001687 0.000000 0.000000 0.000000
# 2 -0.006132 0.016884 -0.003602 0.000000 0.000000 0.000000
# 3 -0.001687 -0.003602 0.012285 0.000000 0.000000 0.000000
# 4 0.000000 0.000000 0.000000 0.067998 0.000000 0.000000
# 5 0.000000 0.000000 0.000000 0.000000 0.039754 0.000000
# 6 0.000000 0.000000 0.000000 0.000000 0.000000 0.045664
#
#
# Mechanical properties :
#
#
# Convention : Reuss Voigt Hill
#
# Bulk Modulus (GPa) = 55.12353 56.33418 55.72886
# Shear Modulus (GPa) = 22.39262 24.56390 23.47826
#
# Velocity S-wave (km/s) = 3.59533 3.76560 3.68145
# Velocity P-wave (km/s) = 7.00398 7.17118 7.08807
#
# Compressibility (1/GPa) = 0.01814107
#
# Stress axis : x y z
#
# Youngs Moduli (GPa) = 84.64188 59.22919 81.40291
#
# Poissons Ratio (x) = 0.36319 0.13730
# Poissons Ratio (y) = 0.51902 0.29323
# Poissons Ratio (z) = 0.14276 0.21335
#
# Static dielectric constant tensor:
#      x y z
#    x 3.546810 0.000000 0.000000 
#    y 0.000000 2.832790 0.000000 
#    z 0.000000 0.000000 3.307120 
# 
# 
# High freq. dielectric constant tensor:
#      x y z
#    x 1.690400 0.000000 0.000000 
#    y 0.000000 1.620350 0.000000 
#    z 0.000000 0.000000 1.677960 
# 
# From -- ./inp_files/41153.got.cif
#   From: 2010.03.12/outbox.cif.g09.slc.cpg/sg64_21_cif.got.tgz:41153.got - 2010.04.10 20:19:32.
