data_PCOD8261875
_publ_section_title
;
Structure prediction by ZEFSAII (Michael W. Deem and Ramdas Pophale) SiO2 
 PCOD8261875
Probable space group: C M C A
;
_chemical_formula_sum "Si O2"
_cell_formula_units_Z 88
_cell_length_a 13.777294
_cell_length_b 16.154060
_cell_length_c 19.986365
_cell_angle_alpha 90.000000
_cell_angle_beta 90.000000
_cell_angle_gamma 90.000000
_cell_volume 4448.150083
_symmetry_space_group_name_H-M "C M C A"
_symmetry_group_IT_number 64
_symmetry_cell_setting 'orthorhombic'
loop_
_space_group_symop_operation_xyz
x,y,z
-x,1/2-y,1/2+z
x,-y,-z
-x,1/2+y,1/2-z
-x,-y,-z
x,1/2+y,1/2-z
-x,y,z
x,1/2-y,1/2+z
1/2+x,1/2+y,z
1/2-x,-y,1/2+z
1/2+x,1/2-y,-z
1/2-x,y,1/2-z
1/2-x,1/2-y,-z
1/2+x,y,1/2-z
1/2-x,1/2+y,z
1/2+x,-y,1/2+z
loop_
_atom_site_type_symbol
_atom_site_label
_atom_site_fract_x
_atom_site_fract_y
_atom_site_fract_z
Si Si1 0.388488 0.749987 0.998784
Si Si2 0.277313 0.975102 0.149537
Si Si3 0.603527 0.071013 0.052102
Si Si4 0.250000 0.192611 0.250000
Si Si5 0.753763 0.789790 0.388741
Si Si6 0.385404 0.957775 0.729827
O O1 0.500000 0.722782 0.006742
O O2 0.371266 0.846514 0.986941
O O3 0.343651 0.703681 0.934125
O O4 0.332579 0.734971 0.069346
O O5 0.289380 0.883432 0.121293
O O6 0.307884 0.047733 0.099173
O O7 0.353187 0.981774 0.210436
O O8 0.166249 0.999366 0.166040
O O9 0.500000 0.082450 0.091551
O O10 0.587137 0.000000 0.000000
O O11 0.264655 0.248711 0.183805
O O12 0.345267 0.135135 0.257795
O O13 0.500000 0.955691 0.719025
#
# Coordination Sequence:
#
# PCOD8261875 Si02
#       6
#    16  16  16   8  16  16
#     4  10  22  38  58  87 122 156 191 236 288 347
#     4  10  20  36  59  85 114 148 189 242 288 337
#     4  10  18  33  59  85 110 147 194 234 272 327
#     4  10  22  40  60  82 116 156 192 240 294 346
#     4  11  22  38  59  87 121 153 191 237 296 348
#     4  10  22  39  59  83 111 148 194 238 287 347
#
# _framework density 19.783505000000002
#
# number of rings (size 3 to 8) (size 9 to 14) (size 15 to 20)
#    0.000    2.000    1.818    3.818    0.000    4.364 
#    0.000    1.818    0.000    0.545    0.000    0.000 
#    0.000    0.000    0.000    0.000    0.000    0.000 
#
# Total GULP energy -545210.684776 kJ/mol
# GULP energy per Si atom -12391.151927 kJ/mol
# Density = 1.973848 g / cm^3
# Si number density = 19.783505 Si / 1000 Ang^3
#
#
#
# Elastic Constant Matrix: (Units=GPa)
#
#
# Indices 1 2 3 4 5 6 
#
# 1 152.9375 3.3005 46.2835 0.0000 0.0000 0.0000
# 2 3.3005 47.2214 14.7197 0.0000 0.0000 0.0000
# 3 46.2835 14.7197 109.6826 0.0000 0.0000 0.0000
# 4 0.0000 0.0000 0.0000 19.3002 0.0000 0.0000
# 5 0.0000 0.0000 0.0000 0.0000 24.1310 0.0000
# 6 0.0000 0.0000 0.0000 0.0000 0.0000 24.8585
#
#
#
# Elastic Compliance Matrix: (Units=1/GPa)
#
#
# Indices 1 2 3 4 5 6 
#
# 1 0.007506 0.000483 -0.003232 0.000000 0.000000 0.000000
# 2 0.000483 0.022132 -0.003174 0.000000 0.000000 0.000000
# 3 -0.003232 -0.003174 0.010907 0.000000 0.000000 0.000000
# 4 0.000000 0.000000 0.000000 0.051813 0.000000 0.000000
# 5 0.000000 0.000000 0.000000 0.000000 0.041440 0.000000
# 6 0.000000 0.000000 0.000000 0.000000 0.000000 0.040228
#
#
# Mechanical properties :
#
#
# Convention : Reuss Voigt Hill
#
# Bulk Modulus (GPa) = 34.84422 48.71654 41.78038
# Shear Modulus (GPa) = 25.58326 30.02713 27.80519
#
# Velocity S-wave (km/s) = 3.59996 3.90010 3.75303
# Velocity P-wave (km/s) = 5.91021 6.70517 6.32020
#
# Compressibility (1/GPa) = 0.02869916
#
# Stress axis : x y z
#
# Youngs Moduli (GPa) = 133.21971 45.18248 91.68301
#
# Poissons Ratio (x) = -0.02182 0.29635
# Poissons Ratio (y) = -0.06433 0.29100
# Poissons Ratio (z) = 0.43061 0.14341
#
# Static dielectric constant tensor:
#      x y z
#    x 4.085390 0.000000 0.000000 
#    y 0.000000 3.401580 0.000000 
#    z 0.000000 0.000000 3.549160 
# 
# 
# High freq. dielectric constant tensor:
#      x y z
#    x 1.765470 0.000000 0.000000 
#    y 0.000000 1.763660 0.000000 
#    z 0.000000 0.000000 1.776040 
# 
# From -- ./inp_files/39074.got.cif
#   From: 2010.03.12/outbox.cif.g09.slc.cpg/sg64_20_cif.got.tgz:39074.got - 2010.04.10 20:19:32.
