data_PCOD8261253
_publ_section_title
;
Structure prediction by ZEFSAII (Michael W. Deem and Ramdas Pophale) SiO2 
 PCOD8261253
Probable space group: C M C M
;
_chemical_formula_sum "Si O2"
_cell_formula_units_Z 72
_cell_length_a 16.346886
_cell_length_b 27.458668
_cell_length_c 8.963782
_cell_angle_alpha 90.000000
_cell_angle_beta 90.000000
_cell_angle_gamma 90.000000
_cell_volume 4023.516494
_symmetry_space_group_name_H-M "C M C M"
_symmetry_group_IT_number 63
_symmetry_cell_setting 'orthorhombic'
loop_
_space_group_symop_operation_xyz
x,y,z
-x,-y,1/2+z
x,-y,-z
-x,y,1/2-z
-x,-y,-z
x,y,1/2-z
-x,y,z
x,-y,1/2+z
1/2+x,1/2+y,z
1/2-x,1/2-y,1/2+z
1/2+x,1/2-y,-z
1/2-x,1/2+y,1/2-z
1/2-x,1/2-y,-z
1/2+x,1/2+y,1/2-z
1/2-x,1/2+y,z
1/2+x,1/2-y,1/2+z
loop_
_atom_site_type_symbol
_atom_site_label
_atom_site_fract_x
_atom_site_fract_y
_atom_site_fract_z
Si Si1 0.255370 0.801982 0.426436
Si Si2 0.589556 0.858494 0.072301
Si Si3 0.152951 0.894772 0.075607
Si Si4 0.000000 0.054241 0.071843
Si Si5 0.682712 0.049908 0.576937
O O1 0.255368 0.796402 0.250000
O O2 0.250000 0.750000 0.500000
O O3 0.342806 0.820950 0.486070
O O4 0.182478 0.839903 0.470705
O O5 0.589345 0.857719 0.250000
O O6 0.500000 0.845092 0.007797
O O7 0.615568 0.911996 0.017004
O O8 0.128609 0.895763 0.250000
O O9 0.226442 0.931538 0.041222
O O10 0.077729 0.913603 0.977265
O O11 0.000000 0.048003 0.250000
O O12 0.000000 0.000000 0.000000
O O13 0.672179 0.041777 0.750000
O O14 0.663526 0.000000 0.500000
#
# Coordination Sequence:
#
# PCOD8261253 Si02
#       5
#    16  16  16   8  16
#     4   9  18  34  56  77 101 135 171 213 261 307
#     4   8  15  30  50  71  97 130 165 198 237 294
#     4   9  19  36  53  72 103 141 177 213 259 315
#     4  12  24  36  54  80 108 140 178 224 273 324
#     4   9  17  29  48  72  97 131 169 200 241 293
#
# _framework density 17.894794000000001
#
# number of rings (size 3 to 8) (size 9 to 14) (size 15 to 20)
#    0.000    2.889    0.000    4.333    0.000    4.000 
#    2.000    3.333    0.000    1.333    0.000    0.000 
#    0.000    0.000    0.000    0.000    0.000    0.000 
#
# Total GULP energy -446078.084742 kJ/mol
# GULP energy per Si atom -12391.057910 kJ/mol
# Density = 1.785406 g / cm^3
# Si number density = 17.894794 Si / 1000 Ang^3
#
#
#
# Elastic Constant Matrix: (Units=GPa)
#
#
# Indices 1 2 3 4 5 6 
#
# 1 133.7255 81.4120 50.9302 0.0000 0.0000 0.0000
# 2 81.4120 167.1091 39.6447 0.0000 0.0000 0.0000
# 3 50.9302 39.6447 42.6726 0.0000 0.0000 0.0000
# 4 0.0000 0.0000 0.0000 35.9543 0.0000 0.0000
# 5 0.0000 0.0000 0.0000 0.0000 19.1375 0.0000
# 6 0.0000 0.0000 0.0000 0.0000 0.0000 14.7017
#
#
#
# Elastic Compliance Matrix: (Units=1/GPa)
#
#
# Indices 1 2 3 4 5 6 
#
# 1 0.015621 -0.004088 -0.014846 0.000000 0.000000 0.000000
# 2 -0.004088 0.008746 -0.003246 0.000000 0.000000 0.000000
# 3 -0.014846 -0.003246 0.044168 0.000000 0.000000 0.000000
# 4 0.000000 0.000000 0.000000 0.027813 0.000000 0.000000
# 5 0.000000 0.000000 0.000000 0.000000 0.052253 0.000000
# 6 0.000000 0.000000 0.000000 0.000000 0.000000 0.068019
#
#
# Mechanical properties :
#
#
# Convention : Reuss Voigt Hill
#
# Bulk Modulus (GPa) = 41.36421 76.38680 58.87550
# Shear Modulus (GPa) = 18.58466 25.39340 21.98903
#
# Velocity S-wave (km/s) = 3.22615 3.77110 3.50922
# Velocity P-wave (km/s) = 6.08628 7.85754 7.02793
#
# Compressibility (1/GPa) = 0.02417549
#
# Stress axis : x y z
#
# Youngs Moduli (GPa) = 64.01649 114.33945 22.64069
#
# Poissons Ratio (x) = 0.46745 0.33612
# Poissons Ratio (y) = 0.26172 0.07349
# Poissons Ratio (z) = 0.95036 0.37114
#
# Static dielectric constant tensor:
#      x y z
#    x 3.638050 0.000000 0.000000 
#    y 0.000000 3.203740 0.000000 
#    z 0.000000 0.000000 3.003400 
# 
# 
# High freq. dielectric constant tensor:
#      x y z
#    x 1.698070 0.000000 0.000000 
#    y 0.000000 1.697250 0.000000 
#    z 0.000000 0.000000 1.663160 
# 
# From -- ./inp_files/4631.got.cif
#   From: 2010.03.12/outbox.cif.g09.slc.cpg/sg63_3_cif.got.tgz:4631.got - 2010.04.10 19:34:48.
