data_PCOD8261937
_publ_section_title
;
Structure prediction by ZEFSAII (Michael W. Deem and Ramdas Pophale) SiO2 
 PCOD8261937
Probable space group: C M C A
;
_chemical_formula_sum "Si O2"
_cell_formula_units_Z 88
_cell_length_a 19.094070
_cell_length_b 22.094333
_cell_length_c 9.870732
_cell_angle_alpha 90.000000
_cell_angle_beta 90.000000
_cell_angle_gamma 90.000000
_cell_volume 4164.173022
_symmetry_space_group_name_H-M "C M C A"
_symmetry_group_IT_number 64
_symmetry_cell_setting 'orthorhombic'
loop_
_space_group_symop_operation_xyz
x,y,z
-x,1/2-y,1/2+z
x,-y,-z
-x,1/2+y,1/2-z
-x,-y,-z
x,1/2+y,1/2-z
-x,y,z
x,1/2-y,1/2+z
1/2+x,1/2+y,z
1/2-x,-y,1/2+z
1/2+x,1/2-y,-z
1/2-x,y,1/2-z
1/2-x,1/2-y,-z
1/2+x,y,1/2-z
1/2-x,1/2+y,z
1/2+x,-y,1/2+z
loop_
_atom_site_type_symbol
_atom_site_label
_atom_site_fract_x
_atom_site_fract_y
_atom_site_fract_z
Si Si1 0.864350 0.457031 0.372058
Si Si2 0.250000 0.971380 0.750000
Si Si3 0.630383 0.316642 0.512440
Si Si4 0.500000 0.478249 0.285500
Si Si5 0.000000 0.594756 0.053476
Si Si6 0.723619 0.873238 0.539022
Si Si7 0.826841 0.235918 0.215861
O O1 0.874372 0.500000 0.500000
O O2 0.817605 0.486168 0.253692
O O3 0.830535 0.393045 0.420622
O O4 0.937617 0.449375 0.300083
O O5 0.248041 0.932577 0.614198
O O6 0.569284 0.364328 0.540895
O O7 0.706328 0.344463 0.479889
O O8 0.621101 0.276256 0.377017
O O9 0.632792 0.273551 0.643518
O O10 0.500000 0.451205 0.432503
O O11 0.500000 0.552460 0.308377
O O12 0.684579 0.828911 0.643281
O O13 0.750000 0.264520 0.250000
#
# Coordination Sequence:
#
# PCOD8261937 Si02
#       7
#    16   8  16   8   8  16  16
#     4  10  23  37  64  98 128 170 209 267 309 393
#     4  10  18  36  60  94 132 160 212 248 322 384
#     4  11  23  43  64  94 128 169 223 265 334 389
#     4  11  25  46  60  94 130 170 219 251 341 394
#     4  11  28  42  68  84 133 185 200 275 329 394
#     4  10  19  38  65  96 126 168 209 273 330 374
#     4  10  21  40  68  94 125 166 215 282 330 384
#
# _framework density 21.132646999999999
#
# number of rings (size 3 to 8) (size 9 to 14) (size 15 to 20)
#    0.000    1.636    2.727    3.545    5.091    3.636 
#    0.000    0.909    0.000    0.000    0.000    0.000 
#    0.000    0.000    0.000    0.000    0.000    0.000 
#
# Total GULP energy -545261.077375 kJ/mol
# GULP energy per Si atom -12392.297213 kJ/mol
# Density = 2.108455 g / cm^3
# Si number density = 21.132647 Si / 1000 Ang^3
#
#
#
# Elastic Constant Matrix: (Units=GPa)
#
#
# Indices 1 2 3 4 5 6 
#
# 1 108.0062 30.9677 52.4463 0.0000 0.0000 0.0000
# 2 30.9677 54.6129 43.6673 0.0000 0.0000 0.0000
# 3 52.4463 43.6673 106.5240 0.0000 0.0000 0.0000
# 4 0.0000 0.0000 0.0000 30.7430 0.0000 0.0000
# 5 0.0000 0.0000 0.0000 0.0000 59.5491 0.0000
# 6 0.0000 0.0000 0.0000 0.0000 0.0000 29.0568
#
#
#
# Elastic Compliance Matrix: (Units=1/GPa)
#
#
# Indices 1 2 3 4 5 6 
#
# 1 0.012540 -0.003234 -0.004848 0.000000 0.000000 0.000000
# 2 -0.003234 0.028073 -0.009916 0.000000 0.000000 0.000000
# 3 -0.004848 -0.009916 0.015839 0.000000 0.000000 0.000000
# 4 0.000000 0.000000 0.000000 0.032528 0.000000 0.000000
# 5 0.000000 0.000000 0.000000 0.000000 0.016793 0.000000
# 6 0.000000 0.000000 0.000000 0.000000 0.000000 0.034415
#
#
# Mechanical properties :
#
#
# Convention : Reuss Voigt Hill
#
# Bulk Modulus (GPa) = 48.88482 58.14509 53.51495
# Shear Modulus (GPa) = 27.32188 33.34057 30.33122
#
# Velocity S-wave (km/s) = 3.59956 3.97631 3.79262
# Velocity P-wave (km/s) = 6.36069 6.97535 6.67510
#
# Compressibility (1/GPa) = 0.02045625
#
# Stress axis : x y z
#
# Youngs Moduli (GPa) = 79.74269 35.62151 63.13420
#
# Poissons Ratio (x) = 0.11521 0.30609
# Poissons Ratio (y) = 0.25791 0.62601
# Poissons Ratio (z) = 0.38662 0.35321
#
# Static dielectric constant tensor:
#      x y z
#    x 4.664370 0.000000 0.000000 
#    y 0.000000 3.931250 0.000000 
#    z 0.000000 0.000000 3.927590 
# 
# 
# High freq. dielectric constant tensor:
#      x y z
#    x 1.809120 0.000000 0.000000 
#    y 0.000000 1.825880 0.000000 
#    z 0.000000 0.000000 1.837560 
# 
# From -- ./inp_files/8267.got.cif
#   From: 2010.03.12/outbox.cif.g09.slc.cpg/sg64_5_cif.got.tgz:8267.got - 2010.04.10 20:19:32.
