data_PCOD8261324
_publ_section_title
;
Structure prediction by ZEFSAII (Michael W. Deem and Ramdas Pophale) SiO2 
 PCOD8261324
Probable space group: C M C M
;
_chemical_formula_sum "Si O2"
_cell_formula_units_Z 80
_cell_length_a 9.708338
_cell_length_b 25.205633
_cell_length_c 19.813877
_cell_angle_alpha 90.000000
_cell_angle_beta 90.000000
_cell_angle_gamma 90.000000
_cell_volume 4848.550901
_symmetry_space_group_name_H-M "C M C M"
_symmetry_group_IT_number 63
_symmetry_cell_setting 'orthorhombic'
loop_
_space_group_symop_operation_xyz
x,y,z
-x,-y,1/2+z
x,-y,-z
-x,y,1/2-z
-x,-y,-z
x,y,1/2-z
-x,y,z
x,-y,1/2+z
1/2+x,1/2+y,z
1/2-x,1/2-y,1/2+z
1/2+x,1/2-y,-z
1/2-x,1/2+y,1/2-z
1/2-x,1/2-y,-z
1/2+x,1/2+y,1/2-z
1/2-x,1/2+y,z
1/2+x,1/2-y,1/2+z
loop_
_atom_site_type_symbol
_atom_site_label
_atom_site_fract_x
_atom_site_fract_y
_atom_site_fract_z
Si Si1 0.160574 0.187183 0.062520
Si Si2 0.836338 0.893209 0.824913
Si Si3 0.841801 0.691054 0.935658
Si Si4 0.841127 0.604635 0.672629
Si Si5 0.153026 0.010019 0.830218
O O1 0.217973 0.151264 0.123610
O O2 0.187904 0.247963 0.083043
O O3 0.000000 0.176321 0.048148
O O4 0.244964 0.171551 0.996059
O O5 0.774770 0.882041 0.750000
O O6 0.000000 0.891444 0.820179
O O7 0.792174 0.951662 0.851872
O O8 0.805942 0.657147 0.869519
O O9 0.000000 0.683250 0.958055
O O10 0.801149 0.616908 0.750000
O O11 0.754918 0.555350 0.642494
O O12 0.000000 0.588653 0.666069
O O13 0.147544 0.011209 0.750000
O O14 0.000000 0.020632 0.859722
#
# Coordination Sequence:
#
# PCOD8261324 Si02
#       5
#    16  16  16  16  16
#     4   9  17  30  48  66  85 114 147 176 213 260
#     4   8  14  26  46  70  90 108 139 183 220 250
#     4   9  18  31  45  63  89 117 143 176 217 256
#     4   9  17  29  45  65  88 114 145 178 211 252
#     4   8  14  26  44  65  88 112 138 173 217 257
#
# _framework density 16.499775
#
# number of rings (size 3 to 8) (size 9 to 14) (size 15 to 20)
#    0.000    3.400    0.000    1.200    0.000    1.600 
#    0.000    6.000    0.000    7.800    0.000    5.600 
#    0.000    0.000    0.000    0.000    0.000    0.000 
#
# Total GULP energy -495835.429042 kJ/mol
# GULP energy per Si atom -12395.885726 kJ/mol
# Density = 1.646222 g / cm^3
# Si number density = 16.499775 Si / 1000 Ang^3
#
#
#
# Elastic Constant Matrix: (Units=GPa)
#
#
# Indices 1 2 3 4 5 6 
#
# 1 50.9153 49.2598 42.5097 0.0000 0.0000 0.0000
# 2 49.2598 118.3952 71.7927 0.0000 0.0000 0.0000
# 3 42.5097 71.7927 88.7663 0.0000 0.0000 0.0000
# 4 0.0000 0.0000 0.0000 15.7242 0.0000 0.0000
# 5 0.0000 0.0000 0.0000 0.0000 21.5934 0.0000
# 6 0.0000 0.0000 0.0000 0.0000 0.0000 24.2267
#
#
#
# Elastic Compliance Matrix: (Units=1/GPa)
#
#
# Indices 1 2 3 4 5 6 
#
# 1 0.037191 -0.009172 -0.010392 0.000000 0.000000 0.000000
# 2 -0.009172 0.018837 -0.010843 0.000000 0.000000 0.000000
# 3 -0.010392 -0.010843 0.025012 0.000000 0.000000 0.000000
# 4 0.000000 0.000000 0.000000 0.063596 0.000000 0.000000
# 5 0.000000 0.000000 0.000000 0.000000 0.046311 0.000000
# 6 0.000000 0.000000 0.000000 0.000000 0.000000 0.041277
#
#
# Mechanical properties :
#
#
# Convention : Reuss Voigt Hill
#
# Bulk Modulus (GPa) = 49.44218 65.02236 57.23227
# Shear Modulus (GPa) = 16.67889 18.60983 17.64436
#
# Velocity S-wave (km/s) = 3.18285 3.36204 3.27367
# Velocity P-wave (km/s) = 6.59831 7.38679 7.00366
#
# Compressibility (1/GPa) = 0.02022565
#
# Stress axis : x y z
#
# Youngs Moduli (GPa) = 26.88834 53.08602 39.98085
#
# Poissons Ratio (x) = 0.48690 0.41550
# Poissons Ratio (y) = 0.24662 0.43351
# Poissons Ratio (z) = 0.27943 0.57561
#
# Static dielectric constant tensor:
#      x y z
#    x 3.039990 0.000000 0.000000 
#    y 0.000000 3.350190 0.000000 
#    z 0.000000 0.000000 3.050340 
# 
# 
# High freq. dielectric constant tensor:
#      x y z
#    x 1.613790 0.000000 0.000000 
#    y 0.000000 1.642470 0.000000 
#    z 0.000000 0.000000 1.612850 
# 
# From -- ./inp_files/40704.got.cif
#   From: 2010.03.12/outbox.cif.g09.slc.cpg/sg63_21_cif.got.tgz:40704.got - 2010.04.10 19:34:48.
