data_PCOD8261913
_publ_section_title
;
Structure prediction by ZEFSAII (Michael W. Deem and Ramdas Pophale) SiO2 
 PCOD8261913
Probable space group: C M C A
;
_chemical_formula_sum "Si O2"
_cell_formula_units_Z 80
_cell_length_a 16.673400
_cell_length_b 13.804087
_cell_length_c 20.240177
_cell_angle_alpha 90.000000
_cell_angle_beta 90.000000
_cell_angle_gamma 90.000000
_cell_volume 4658.500678
_symmetry_space_group_name_H-M "C M C A"
_symmetry_group_IT_number 64
_symmetry_cell_setting 'orthorhombic'
loop_
_space_group_symop_operation_xyz
x,y,z
-x,1/2-y,1/2+z
x,-y,-z
-x,1/2+y,1/2-z
-x,-y,-z
x,1/2+y,1/2-z
-x,y,z
x,1/2-y,1/2+z
1/2+x,1/2+y,z
1/2-x,-y,1/2+z
1/2+x,1/2-y,-z
1/2-x,y,1/2-z
1/2-x,1/2-y,-z
1/2+x,y,1/2-z
1/2-x,1/2+y,z
1/2+x,-y,1/2+z
loop_
_atom_site_type_symbol
_atom_site_label
_atom_site_fract_x
_atom_site_fract_y
_atom_site_fract_z
Si Si1 0.757988 0.471923 0.594890
Si Si2 0.670055 0.520811 0.717781
Si Si3 0.591095 0.684769 0.635560
Si Si4 0.407282 0.596907 0.164811
Si Si5 0.213886 0.650657 0.975136
O O1 0.703570 0.452867 0.659218
O O2 0.849554 0.437137 0.604890
O O3 0.766606 0.586525 0.576537
O O4 0.706359 0.415245 0.540087
O O5 0.750000 0.567276 0.750000
O O6 0.616614 0.607088 0.690104
O O7 0.618048 0.454935 0.767168
O O8 0.500000 0.666959 0.617511
O O9 0.605101 0.788106 0.670464
O O10 0.632587 0.674525 0.563934
O O11 0.500000 0.571169 0.148320
O O12 0.250000 0.750000 0.000000
#
# Coordination Sequence:
#
# PCOD8261913 Si02
#       5
#    16  16  16  16  16
#     4   9  19  34  53  81  98 136 179 207 260 307
#     4   9  19  34  52  76 104 138 174 211 255 314
#     4  10  20  34  54  79 105 138 173 214 265 304
#     4  10  19  34  53  77 108 135 169 218 262 305
#     4  10  18  35  56  74 104 137 172 213 250 311
#
# _framework density 17.172906999999999
#
# number of rings (size 3 to 8) (size 9 to 14) (size 15 to 20)
#    0.000    2.400    2.000    0.600    0.000    2.400 
#    3.600   12.000    0.000    0.000    0.000    0.000 
#    0.000    0.000    0.000    0.000    0.000    0.000 
#
# Total GULP energy -495531.271788 kJ/mol
# GULP energy per Si atom -12388.281795 kJ/mol
# Density = 1.713382 g / cm^3
# Si number density = 17.172907 Si / 1000 Ang^3
#
#
#
# Elastic Constant Matrix: (Units=GPa)
#
#
# Indices 1 2 3 4 5 6 
#
# 1 131.9434 72.5037 59.4032 0.0000 0.0000 0.0000
# 2 72.5037 107.3953 49.1616 0.0000 0.0000 0.0000
# 3 59.4032 49.1616 104.9000 0.0000 0.0000 0.0000
# 4 0.0000 0.0000 0.0000 32.5478 0.0000 0.0000
# 5 0.0000 0.0000 0.0000 0.0000 25.8461 0.0000
# 6 0.0000 0.0000 0.0000 0.0000 0.0000 26.0786
#
#
#
# Elastic Compliance Matrix: (Units=1/GPa)
#
#
# Indices 1 2 3 4 5 6 
#
# 1 0.013395 -0.007092 -0.004261 0.000000 0.000000 0.000000
# 2 -0.007092 0.015610 -0.003299 0.000000 0.000000 0.000000
# 3 -0.004261 -0.003299 0.013492 0.000000 0.000000 0.000000
# 4 0.000000 0.000000 0.000000 0.030724 0.000000 0.000000
# 5 0.000000 0.000000 0.000000 0.000000 0.038691 0.000000
# 6 0.000000 0.000000 0.000000 0.000000 0.000000 0.038346
#
#
# Mechanical properties :
#
#
# Convention : Reuss Voigt Hill
#
# Bulk Modulus (GPa) = 75.81030 78.48619 77.14825
# Shear Modulus (GPa) = 27.17980 27.77252 27.47616
#
# Velocity S-wave (km/s) = 3.98265 4.02584 4.00430
# Velocity P-wave (km/s) = 8.08640 8.21052 8.14869
#
# Compressibility (1/GPa) = 0.01319082
#
# Stress axis : x y z
#
# Youngs Moduli (GPa) = 74.65566 64.06254 74.11616
#
# Poissons Ratio (x) = 0.45435 0.31584
# Poissons Ratio (y) = 0.52948 0.24453
# Poissons Ratio (z) = 0.31814 0.21136
#
# Static dielectric constant tensor:
#      x y z
#    x 3.221530 0.000000 0.000000 
#    y 0.000000 3.456970 0.000000 
#    z 0.000000 0.000000 3.470460 
# 
# 
# High freq. dielectric constant tensor:
#      x y z
#    x 1.653560 0.000000 0.000000 
#    y 0.000000 1.668070 0.000000 
#    z 0.000000 0.000000 1.670370 
# 
# From -- ./inp_files/38967.got.cif
#   From: 2010.03.12/outbox.cif.g09.slc.cpg/sg64_20_cif.got.tgz:38967.got - 2010.04.10 20:19:32.
