data_PCOD8261957
_publ_section_title
;
Structure prediction by ZEFSAII (Michael W. Deem and Ramdas Pophale) SiO2 
 PCOD8261957
Probable space group: C M C A
;
_chemical_formula_sum "Si O2"
_cell_formula_units_Z 72
_cell_length_a 18.910565
_cell_length_b 13.139967
_cell_length_c 13.525448
_cell_angle_alpha 90.000000
_cell_angle_beta 90.000000
_cell_angle_gamma 90.000000
_cell_volume 3360.860127
_symmetry_space_group_name_H-M "C M C A"
_symmetry_group_IT_number 64
_symmetry_cell_setting 'orthorhombic'
loop_
_space_group_symop_operation_xyz
x,y,z
-x,1/2-y,1/2+z
x,-y,-z
-x,1/2+y,1/2-z
-x,-y,-z
x,1/2+y,1/2-z
-x,y,z
x,1/2-y,1/2+z
1/2+x,1/2+y,z
1/2-x,-y,1/2+z
1/2+x,1/2-y,-z
1/2-x,y,1/2-z
1/2-x,1/2-y,-z
1/2+x,y,1/2-z
1/2-x,1/2+y,z
1/2+x,-y,1/2+z
loop_
_atom_site_type_symbol
_atom_site_label
_atom_site_fract_x
_atom_site_fract_y
_atom_site_fract_z
Si Si1 0.920530 0.310409 0.794021
Si Si2 0.750000 0.406520 0.250000
Si Si3 0.367678 0.375500 0.114319
Si Si4 0.651440 0.610048 0.106478
Si Si5 0.188904 0.446468 0.894957
O O1 0.925414 0.192106 0.828128
O O2 0.881584 0.316207 0.688370
O O3 0.876382 0.370804 0.877441
O O4 0.000000 0.353739 0.786278
O O5 0.708174 0.344089 0.165309
O O6 0.810670 0.473233 0.195180
O O7 0.379711 0.496459 0.122875
O O8 0.369804 0.344757 0.999545
O O9 0.736194 0.611279 0.110371
O O10 0.178976 0.500000 0.000000
#
# Coordination Sequence:
#
# PCOD8261957 Si02
#       5
#    16   8  16  16  16
#     4  12  27  41  62 101 143 179 215 269 345 412
#     4  10  18  38  68 102 122 160 226 288 324 368
#     4  10  22  41  71  99 124 173 227 275 333 386
#     4  10  21  47  71  95 128 176 236 280 319 392
#     4  11  20  41  70  98 128 167 228 281 333 384
#
# _framework density 21.423086999999999
#
# number of rings (size 3 to 8) (size 9 to 14) (size 15 to 20)
#    0.000    1.333    8.889    0.000    3.111    4.889 
#    0.000    2.222    0.000    0.000    0.000    0.000 
#    0.000    0.000    0.000    0.000    0.000    0.000 
#
# Total GULP energy -446184.977911 kJ/mol
# GULP energy per Si atom -12394.027164 kJ/mol
# Density = 2.137433 g / cm^3
# Si number density = 21.423087 Si / 1000 Ang^3
#
#
#
# Elastic Constant Matrix: (Units=GPa)
#
#
# Indices 1 2 3 4 5 6 
#
# 1 92.3323 35.7802 45.6478 0.0000 0.0000 0.0000
# 2 35.7802 58.3389 54.9055 0.0000 0.0000 0.0000
# 3 45.6478 54.9055 184.2469 0.0000 0.0000 0.0000
# 4 0.0000 0.0000 0.0000 34.0826 0.0000 0.0000
# 5 0.0000 0.0000 0.0000 0.0000 8.3295 0.0000
# 6 0.0000 0.0000 0.0000 0.0000 0.0000 15.8053
#
#
#
# Elastic Compliance Matrix: (Units=1/GPa)
#
#
# Indices 1 2 3 4 5 6 
#
# 1 0.014429 -0.007623 -0.001303 0.000000 0.000000 0.000000
# 2 -0.007623 0.027850 -0.006411 0.000000 0.000000 0.000000
# 3 -0.001303 -0.006411 0.007661 0.000000 0.000000 0.000000
# 4 0.000000 0.000000 0.000000 0.029340 0.000000 0.000000
# 5 0.000000 0.000000 0.000000 0.000000 0.120056 0.000000
# 6 0.000000 0.000000 0.000000 0.000000 0.000000 0.063270
#
#
# Mechanical properties :
#
#
# Convention : Reuss Voigt Hill
#
# Bulk Modulus (GPa) = 51.90519 67.50946 59.70733
# Shear Modulus (GPa) = 16.68330 24.88244 20.78287
#
# Velocity S-wave (km/s) = 2.79364 3.41174 3.11805
# Velocity P-wave (km/s) = 5.88958 6.86301 6.39484
#
# Compressibility (1/GPa) = 0.01926590
#
# Stress axis : x y z
#
# Youngs Moduli (GPa) = 69.30631 35.90683 130.53592
#
# Poissons Ratio (x) = 0.27371 0.17011
# Poissons Ratio (y) = 0.52832 0.83682
# Poissons Ratio (z) = 0.09032 0.23019
#
# Static dielectric constant tensor:
#      x y z
#    x 3.523610 0.000000 0.000000 
#    y 0.000000 3.616850 0.000000 
#    z 0.000000 0.000000 4.340090 
# 
# 
# High freq. dielectric constant tensor:
#      x y z
#    x 1.805670 0.000000 0.000000 
#    y 0.000000 1.818490 0.000000 
#    z 0.000000 0.000000 1.867030 
# 
# From -- ./inp_files/25123.got.cif
#   From: 2010.03.12/outbox.cif.g09.slc.cpg/sg64_13_cif.got.tgz:25123.got - 2010.04.10 20:19:32.
