data_PCOD8261771
_publ_section_title
;
Structure prediction by ZEFSAII (Michael W. Deem and Ramdas Pophale) SiO2 
 PCOD8261771
Probable space group: C M C A
;
_chemical_formula_sum "Si O2"
_cell_formula_units_Z 112
_cell_length_a 14.649351
_cell_length_b 24.635484
_cell_length_c 15.183939
_cell_angle_alpha 90.000000
_cell_angle_beta 90.000000
_cell_angle_gamma 90.000000
_cell_volume 5479.790237
_symmetry_space_group_name_H-M "C M C A"
_symmetry_group_IT_number 64
_symmetry_cell_setting 'orthorhombic'
loop_
_space_group_symop_operation_xyz
x,y,z
-x,1/2-y,1/2+z
x,-y,-z
-x,1/2+y,1/2-z
-x,-y,-z
x,1/2+y,1/2-z
-x,y,z
x,1/2-y,1/2+z
1/2+x,1/2+y,z
1/2-x,-y,1/2+z
1/2+x,1/2-y,-z
1/2-x,y,1/2-z
1/2-x,1/2-y,-z
1/2+x,y,1/2-z
1/2-x,1/2+y,z
1/2+x,-y,1/2+z
loop_
_atom_site_type_symbol
_atom_site_label
_atom_site_fract_x
_atom_site_fract_y
_atom_site_fract_z
Si Si1 0.603513 0.512218 0.198010
Si Si2 0.101973 0.312626 0.589848
Si Si3 0.604931 0.716693 0.900532
Si Si4 0.848606 0.192177 0.274615
Si Si5 0.898485 0.583399 0.137959
Si Si6 0.291533 0.581260 0.062163
Si Si7 0.895580 0.593694 0.610516
O O1 0.500000 0.529050 0.172668
O O2 0.626381 0.534899 0.294371
O O3 0.672770 0.534859 0.126210
O O4 0.614341 0.446208 0.194945
O O5 0.128264 0.275783 0.504952
O O6 0.104872 0.283089 0.685122
O O7 0.171977 0.361842 0.598300
O O8 0.000000 0.334721 0.571046
O O9 0.500000 0.730458 0.880984
O O10 0.663309 0.759942 0.845931
O O11 0.630340 0.655935 0.867327
O O12 0.750000 0.169709 0.250000
O O13 0.904201 0.141110 0.311873
O O14 0.819725 0.582665 0.063455
O O15 0.000000 0.573785 0.096700
O O16 0.327502 0.570771 0.964102
O O17 0.000000 0.592522 0.575036
#
# Coordination Sequence:
#
# PCOD8261771 Si02
#       7
#    16  16  16  16  16  16  16
#     4  10  18  31  55  85 114 142 180 236 291 340
#     4  10  19  34  56  84 118 150 187 239 293 342
#     4   9  20  36  56  84 118 154 190 236 291 349
#     4  12  21  36  56  83 118 156 198 245 293 341
#     4  11  22  35  54  84 117 150 192 240 288 339
#     4  11  18  32  52  87 113 141 183 234 289 341
#     4   9  19  35  57  86 117 148 184 233 293 348
#
# _framework density 20.438738000000001
#
# number of rings (size 3 to 8) (size 9 to 14) (size 15 to 20)
#    0.000    1.714    2.857    4.286    0.000    1.714 
#    0.000    1.429    0.000    1.714    0.000    0.000 
#    0.000    0.000    0.000    0.000    0.000    0.000 
#
# Total GULP energy -693995.978768 kJ/mol
# GULP energy per Si atom -12392.785335 kJ/mol
# Density = 2.039222 g / cm^3
# Si number density = 20.438738 Si / 1000 Ang^3
#
#
#
# Elastic Constant Matrix: (Units=GPa)
#
#
# Indices 1 2 3 4 5 6 
#
# 1 94.1190 23.2183 24.3928 0.0000 0.0000 0.0000
# 2 23.2183 56.9737 45.0064 0.0000 0.0000 0.0000
# 3 24.3928 45.0064 79.7318 0.0000 0.0000 0.0000
# 4 0.0000 0.0000 0.0000 31.7701 0.0000 0.0000
# 5 0.0000 0.0000 0.0000 0.0000 22.8612 0.0000
# 6 0.0000 0.0000 0.0000 0.0000 0.0000 5.2559
#
#
#
# Elastic Compliance Matrix: (Units=1/GPa)
#
#
# Indices 1 2 3 4 5 6 
#
# 1 0.011929 -0.003571 -0.001634 0.000000 0.000000 0.000000
# 2 -0.003571 0.032746 -0.017392 0.000000 0.000000 0.000000
# 3 -0.001634 -0.017392 0.022859 0.000000 0.000000 0.000000
# 4 0.000000 0.000000 0.000000 0.031476 0.000000 0.000000
# 5 0.000000 0.000000 0.000000 0.000000 0.043742 0.000000
# 6 0.000000 0.000000 0.000000 0.000000 0.000000 0.190262
#
#
# Mechanical properties :
#
#
# Convention : Reuss Voigt Hill
#
# Bulk Modulus (GPa) = 44.76027 46.22884 45.49455
# Shear Modulus (GPa) = 12.96499 21.19124 17.07811
#
# Velocity S-wave (km/s) = 2.52133 3.22346 2.89377
# Velocity P-wave (km/s) = 5.51574 6.04331 5.78554
#
# Compressibility (1/GPa) = 0.02234124
#
# Stress axis : x y z
#
# Youngs Moduli (GPa) = 83.82794 30.53853 43.74651
#
# Poissons Ratio (x) = 0.10904 0.07148
# Poissons Ratio (y) = 0.29932 0.76082
# Poissons Ratio (z) = 0.13698 0.53111
#
# Static dielectric constant tensor:
#      x y z
#    x 3.707390 0.000000 0.000000 
#    y 0.000000 3.547260 0.000000 
#    z 0.000000 0.000000 3.598360 
# 
# 
# High freq. dielectric constant tensor:
#      x y z
#    x 1.800630 0.000000 0.000000 
#    y 0.000000 1.780450 0.000000 
#    z 0.000000 0.000000 1.771010 
# 
# From -- ./inp_files/24418.got.cif
#   From: 2010.03.12/outbox.cif.g09.slc.cpg/sg64_13_cif.got.tgz:24418.got - 2010.04.10 20:19:32.
