data_PCOD8261364
_publ_section_title
;
Structure prediction by ZEFSAII (Michael W. Deem and Ramdas Pophale) SiO2 
 PCOD8261364
Probable space group: C M C M
;
_chemical_formula_sum "Si O2"
_cell_formula_units_Z 80
_cell_length_a 9.357257
_cell_length_b 32.163809
_cell_length_c 14.561364
_cell_angle_alpha 90.000000
_cell_angle_beta 90.000000
_cell_angle_gamma 90.000000
_cell_volume 4382.461308
_symmetry_space_group_name_H-M "C M C M"
_symmetry_group_IT_number 63
_symmetry_cell_setting 'orthorhombic'
loop_
_space_group_symop_operation_xyz
x,y,z
-x,-y,1/2+z
x,-y,-z
-x,y,1/2-z
-x,-y,-z
x,y,1/2-z
-x,y,z
x,-y,1/2+z
1/2+x,1/2+y,z
1/2-x,1/2-y,1/2+z
1/2+x,1/2-y,-z
1/2-x,1/2+y,1/2-z
1/2-x,1/2-y,-z
1/2+x,1/2+y,1/2-z
1/2-x,1/2+y,z
1/2+x,1/2-y,1/2+z
loop_
_atom_site_type_symbol
_atom_site_label
_atom_site_fract_x
_atom_site_fract_y
_atom_site_fract_z
Si Si1 0.840260 0.950356 0.848585
Si Si2 0.332992 0.255567 0.855564
Si Si3 0.167638 0.904117 0.472251
Si Si4 0.332756 0.309206 0.471658
Si Si5 0.339136 0.977310 0.097201
O O1 0.837237 0.927193 0.750000
O O2 0.000000 0.965931 0.873328
O O3 0.741693 0.990924 0.836612
O O4 0.790060 0.917422 0.924306
O O5 0.287255 0.266099 0.750000
O O6 0.500000 0.245215 0.859397
O O7 0.249565 0.215366 0.892147
O O8 0.295396 0.293589 0.924776
O O9 0.216415 0.856733 0.461593
O O10 0.257035 0.933166 0.403112
O O11 0.000000 0.909492 0.452068
O O12 0.500000 0.303885 0.452914
O O13 0.500000 0.969422 0.131907
O O14 0.335943 0.000000 0.000000
#
# Coordination Sequence:
#
# PCOD8261364 Si02
#       5
#    16  16  16  16  16
#     4   9  17  29  46  68  93 121 154 193 236 281
#     4   9  18  33  52  73  99 130 161 196 241 292
#     4   9  17  30  48  69  93 121 154 193 236 281
#     4   9  18  32  51  75 100 127 161 200 242 289
#     4   9  17  29  45  64  88 120 153 184 222 269
#
# _framework density 18.254581999999999
#
# number of rings (size 3 to 8) (size 9 to 14) (size 15 to 20)
#    0.000    3.000    0.000    0.600    0.000    4.800 
#    0.000    5.000    0.000    1.200    0.000   11.200 
#    0.000    0.000    0.000    0.000    0.000    0.000 
#
# Total GULP energy -495729.744809 kJ/mol
# GULP energy per Si atom -12393.243620 kJ/mol
# Density = 1.821303 g / cm^3
# Si number density = 18.254582 Si / 1000 Ang^3
#
#
#
# Elastic Constant Matrix: (Units=GPa)
#
#
# Indices 1 2 3 4 5 6 
#
# 1 57.3620 33.1786 8.4507 0.0000 0.0000 0.0000
# 2 33.1786 98.4390 -0.2939 0.0000 0.0000 0.0000
# 3 8.4507 -0.2939 56.3579 0.0000 0.0000 0.0000
# 4 0.0000 0.0000 0.0000 14.6260 0.0000 0.0000
# 5 0.0000 0.0000 0.0000 0.0000 17.1731 0.0000
# 6 0.0000 0.0000 0.0000 0.0000 0.0000 27.8545
#
#
#
# Elastic Compliance Matrix: (Units=1/GPa)
#
#
# Indices 1 2 3 4 5 6 
#
# 1 0.022281 -0.007520 -0.003380 0.000000 0.000000 0.000000
# 2 -0.007520 0.012697 0.001194 0.000000 0.000000 0.000000
# 3 -0.003380 0.001194 0.018257 0.000000 0.000000 0.000000
# 4 0.000000 0.000000 0.000000 0.068371 0.000000 0.000000
# 5 0.000000 0.000000 0.000000 0.000000 0.058231 0.000000
# 6 0.000000 0.000000 0.000000 0.000000 0.000000 0.035901
#
#
# Mechanical properties :
#
#
# Convention : Reuss Voigt Hill
#
# Bulk Modulus (GPa) = 29.56663 32.75886 31.16274
# Shear Modulus (GPa) = 20.29034 23.31896 21.80465
#
# Velocity S-wave (km/s) = 3.33756 3.57799 3.45987
# Velocity P-wave (km/s) = 5.57534 5.92063 5.75058
#
# Compressibility (1/GPa) = 0.03382191
#
# Stress axis : x y z
#
# Youngs Moduli (GPa) = 44.88217 78.76097 54.77409
#
# Poissons Ratio (x) = 0.59226 0.18514
# Poissons Ratio (y) = 0.33750 -0.06539
# Poissons Ratio (z) = 0.15171 -0.09402
#
# Static dielectric constant tensor:
#      x y z
#    x 3.396250 0.000000 0.000000 
#    y 0.000000 3.289610 0.000000 
#    z 0.000000 0.000000 3.289750 
# 
# 
# High freq. dielectric constant tensor:
#      x y z
#    x 1.702370 0.000000 0.000000 
#    y 0.000000 1.693010 0.000000 
#    z 0.000000 0.000000 1.699570 
# 
# From -- ./inp_files/30035.got.cif
#   From: 2010.03.12/outbox.cif.g09.slc.cpg/sg63_16_cif.got.tgz:30035.got - 2010.04.10 19:34:48.
