data_PCOD8261688
_publ_section_title
;
Structure prediction by ZEFSAII (Michael W. Deem and Ramdas Pophale) SiO2 
 PCOD8261688
Probable space group: C M C A
;
_chemical_formula_sum "Si O2"
_cell_formula_units_Z 128
_cell_length_a 18.638378
_cell_length_b 23.263564
_cell_length_c 17.317992
_cell_angle_alpha 90.000000
_cell_angle_beta 90.000000
_cell_angle_gamma 90.000000
_cell_volume 7508.996464
_symmetry_space_group_name_H-M "C M C A"
_symmetry_group_IT_number 64
_symmetry_cell_setting 'orthorhombic'
loop_
_space_group_symop_operation_xyz
x,y,z
-x,1/2-y,1/2+z
x,-y,-z
-x,1/2+y,1/2-z
-x,-y,-z
x,1/2+y,1/2-z
-x,y,z
x,1/2-y,1/2+z
1/2+x,1/2+y,z
1/2-x,-y,1/2+z
1/2+x,1/2-y,-z
1/2-x,y,1/2-z
1/2-x,1/2-y,-z
1/2+x,y,1/2-z
1/2-x,1/2+y,z
1/2+x,-y,1/2+z
loop_
_atom_site_type_symbol
_atom_site_label
_atom_site_fract_x
_atom_site_fract_y
_atom_site_fract_z
Si Si1 0.082363 0.848461 0.201945
Si Si2 0.309147 0.279793 0.104357
Si Si3 0.582779 0.102697 0.980006
Si Si4 0.584491 0.944629 0.181669
Si Si5 0.157514 0.785083 0.454977
Si Si6 0.582560 0.570110 0.352894
Si Si7 0.175866 0.828998 0.715475
Si Si8 0.578903 0.257685 0.815481
O O1 0.138128 0.831051 0.133863
O O2 0.110888 0.906617 0.245030
O O3 0.084773 0.798833 0.264276
O O4 0.000000 0.855793 0.170364
O O5 0.226427 0.300184 0.099291
O O6 0.312715 0.224038 0.158060
O O7 0.329483 0.264526 0.017127
O O8 0.500000 0.120265 0.968771
O O9 0.590548 0.060812 0.054290
O O10 0.615115 0.075957 0.901233
O O11 0.629625 0.158812 0.999170
O O12 0.500000 0.937807 0.176819
O O13 0.605445 0.011577 0.191266
O O14 0.094574 0.760674 0.402205
O O15 0.500000 0.586473 0.333683
O O16 0.634908 0.620046 0.326494
O O17 0.250000 0.852734 0.750000
O O18 0.131085 0.808024 0.788824
O O19 0.500000 0.284169 0.811109
#
# Coordination Sequence:
#
# PCOD8261688 Si02
#       8
#    16  16  16  16  16  16  16  16
#     4   9  18  32  50  74 101 129 167 212 252 299
#     4  10  22  33  49  72 101 139 168 201 255 300
#     4  10  18  30  50  77 105 130 161 205 250 302
#     4   9  17  32  52  75 101 129 165 208 254 299
#     4  11  19  33  49  74 103 137 168 200 249 310
#     4  10  20  33  52  74  98 132 170 206 250 302
#     4  11  20  35  49  69 102 135 165 206 248 294
#     4  10  19  31  51  75 100 130 164 203 249 300
#
# _framework density 17.046219000000001
#
# number of rings (size 3 to 8) (size 9 to 14) (size 15 to 20)
#    0.000    2.000    3.750    1.125    0.000    3.000 
#    0.000    1.250    0.000    0.000    0.000    0.875 
#    0.000    4.000    0.000    0.000    0.000    0.000 
#
# Total GULP energy -793270.223183 kJ/mol
# GULP energy per Si atom -12394.847237 kJ/mol
# Density = 1.700742 g / cm^3
# Si number density = 17.046219 Si / 1000 Ang^3
#
#
#
# Elastic Constant Matrix: (Units=GPa)
#
#
# Indices 1 2 3 4 5 6 
#
# 1 86.0496 43.0512 37.8145 0.0000 0.0000 0.0000
# 2 43.0512 73.1598 25.5370 0.0000 0.0000 0.0000
# 3 37.8145 25.5370 64.6430 0.0000 0.0000 0.0000
# 4 0.0000 0.0000 0.0000 27.0618 0.0000 0.0000
# 5 0.0000 0.0000 0.0000 0.0000 26.5355 0.0000
# 6 0.0000 0.0000 0.0000 0.0000 0.0000 12.8372
#
#
#
# Elastic Compliance Matrix: (Units=1/GPa)
#
#
# Indices 1 2 3 4 5 6 
#
# 1 0.019456 -0.008672 -0.007955 0.000000 0.000000 0.000000
# 2 -0.008672 0.019720 -0.002718 0.000000 0.000000 0.000000
# 3 -0.007955 -0.002718 0.021197 0.000000 0.000000 0.000000
# 4 0.000000 0.000000 0.000000 0.036952 0.000000 0.000000
# 5 0.000000 0.000000 0.000000 0.000000 0.037685 0.000000
# 6 0.000000 0.000000 0.000000 0.000000 0.000000 0.077898
#
#
# Mechanical properties :
#
#
# Convention : Reuss Voigt Hill
#
# Bulk Modulus (GPa) = 46.11858 48.51754 47.31806
# Shear Modulus (GPa) = 19.31794 21.11688 20.21741
#
# Velocity S-wave (km/s) = 3.37006 3.52348 3.44762
# Velocity P-wave (km/s) = 6.50052 6.71397 6.60811
#
# Compressibility (1/GPa) = 0.02168324
#
# Stress axis : x y z
#
# Youngs Moduli (GPa) = 51.39839 50.70897 47.17686
#
# Poissons Ratio (x) = 0.43975 0.37531
# Poissons Ratio (y) = 0.44573 0.12821
# Poissons Ratio (z) = 0.40889 0.13780
#
# Static dielectric constant tensor:
#      x y z
#    x 3.243680 0.000000 0.000000 
#    y 0.000000 3.160560 0.000000 
#    z 0.000000 0.000000 3.196460 
# 
# 
# High freq. dielectric constant tensor:
#      x y z
#    x 1.650740 0.000000 0.000000 
#    y 0.000000 1.636970 0.000000 
#    z 0.000000 0.000000 1.651070 
# 
# From -- ./inp_files/33747.got.cif
#   From: 2010.03.12/outbox.cif.g09.slc.cpg/sg64_17_cif.got.tgz:33747.got - 2010.04.10 20:19:32.
