data_PCOD8261838
_publ_section_title
;
Structure prediction by ZEFSAII (Michael W. Deem and Ramdas Pophale) SiO2 
 PCOD8261838
Probable space group: C M C A
;
_chemical_formula_sum "Si O2"
_cell_formula_units_Z 96
_cell_length_a 18.744231
_cell_length_b 11.509727
_cell_length_c 22.891456
_cell_angle_alpha 90.000000
_cell_angle_beta 90.000000
_cell_angle_gamma 90.000000
_cell_volume 4938.625188
_symmetry_space_group_name_H-M "C M C A"
_symmetry_group_IT_number 64
_symmetry_cell_setting 'orthorhombic'
loop_
_space_group_symop_operation_xyz
x,y,z
-x,1/2-y,1/2+z
x,-y,-z
-x,1/2+y,1/2-z
-x,-y,-z
x,1/2+y,1/2-z
-x,y,z
x,1/2-y,1/2+z
1/2+x,1/2+y,z
1/2-x,-y,1/2+z
1/2+x,1/2-y,-z
1/2-x,y,1/2-z
1/2-x,1/2-y,-z
1/2+x,y,1/2-z
1/2-x,1/2+y,z
1/2+x,-y,1/2+z
loop_
_atom_site_type_symbol
_atom_site_label
_atom_site_fract_x
_atom_site_fract_y
_atom_site_fract_z
Si Si1 0.322913 0.231242 0.074216
Si Si2 0.195706 0.993821 0.635434
Si Si3 0.831854 0.835552 0.264948
Si Si4 0.644802 0.444716 0.147265
Si Si5 0.334541 0.305785 0.444979
Si Si6 0.081120 0.816520 0.848463
O O1 0.357129 0.353448 0.093747
O O2 0.237752 0.233769 0.065940
O O3 0.335990 0.134925 0.124917
O O4 0.358148 0.195916 0.012633
O O5 0.159152 0.056452 0.690440
O O6 0.279520 0.990018 0.649049
O O7 0.179270 0.062884 0.575636
O O8 0.750000 0.802708 0.250000
O O9 0.871215 0.872280 0.205930
O O10 0.869272 0.723593 0.294045
O O11 0.586133 0.544836 0.140968
O O12 0.397421 0.247411 0.408111
O O13 0.000000 0.784167 0.833747
#
# Coordination Sequence:
#
# PCOD8261838 Si02
#       6
#    16  16  16  16  16  16
#     4  10  18  32  59  85 117 144 191 256 293 337
#     4   9  17  33  56  87 114 144 189 254 300 330
#     4   9  21  36  61  85 112 150 197 255 286 346
#     4  10  21  33  54  87 114 149 195 240 299 351
#     4   9  19  34  54  86 115 152 194 237 297 351
#     4  11  23  40  58  80 124 163 194 238 304 369
#
# _framework density 19.438609
#
# number of rings (size 3 to 8) (size 9 to 14) (size 15 to 20)
#    0.000    2.333    1.667    1.500    2.333    2.000 
#    0.000    1.667    0.000    9.000    0.000    0.000 
#    0.000    0.000    0.000    0.000    0.000    0.000 
#
# Total GULP energy -595126.442537 kJ/mol
# GULP energy per Si atom -12398.467553 kJ/mol
# Density = 1.939437 g / cm^3
# Si number density = 19.438609 Si / 1000 Ang^3
#
#
#
# Elastic Constant Matrix: (Units=GPa)
#
#
# Indices 1 2 3 4 5 6 
#
# 1 65.8876 29.5561 27.4953 0.0000 0.0000 0.0000
# 2 29.5561 92.1890 29.7185 0.0000 0.0000 0.0000
# 3 27.4953 29.7185 101.8209 0.0000 0.0000 0.0000
# 4 0.0000 0.0000 0.0000 23.2794 0.0000 0.0000
# 5 0.0000 0.0000 0.0000 0.0000 16.5736 0.0000
# 6 0.0000 0.0000 0.0000 0.0000 0.0000 17.5868
#
#
#
# Elastic Compliance Matrix: (Units=1/GPa)
#
#
# Indices 1 2 3 4 5 6 
#
# 1 0.018899 -0.004872 -0.003681 0.000000 0.000000 0.000000
# 2 -0.004872 0.013230 -0.002546 0.000000 0.000000 0.000000
# 3 -0.003681 -0.002546 0.011558 0.000000 0.000000 0.000000
# 4 0.000000 0.000000 0.000000 0.042956 0.000000 0.000000
# 5 0.000000 0.000000 0.000000 0.000000 0.060337 0.000000
# 6 0.000000 0.000000 0.000000 0.000000 0.000000 0.056861
#
#
# Mechanical properties :
#
#
# Convention : Reuss Voigt Hill
#
# Bulk Modulus (GPa) = 46.53631 48.15967 47.34799
# Shear Modulus (GPa) = 21.44047 23.02981 22.23514
#
# Velocity S-wave (km/s) = 3.32472 3.44575 3.38578
# Velocity P-wave (km/s) = 6.22338 6.37652 6.30041
#
# Compressibility (1/GPa) = 0.02148860
#
# Stress axis : x y z
#
# Youngs Moduli (GPa) = 52.91199 75.58547 86.51804
#
# Poissons Ratio (x) = 0.36829 0.31850
# Poissons Ratio (y) = 0.25781 0.22025
# Poissons Ratio (z) = 0.19479 0.19242
#
# Static dielectric constant tensor:
#      x y z
#    x 3.010210 0.000000 0.000000 
#    y 0.000000 3.481360 0.000000 
#    z 0.000000 0.000000 3.693870 
# 
# 
# High freq. dielectric constant tensor:
#      x y z
#    x 1.695630 0.000000 0.000000 
#    y 0.000000 1.761980 0.000000 
#    z 0.000000 0.000000 1.765620 
# 
# From -- ./inp_files/45745.got.cif
#   From: 2010.03.12/outbox.cif.g09.slc.cpg/sg64_23_cif.got.tgz:45745.got - 2010.04.10 20:19:32.
