data_PCOD8261784
_publ_section_title
;
Structure prediction by ZEFSAII (Michael W. Deem and Ramdas Pophale) SiO2 
 PCOD8261784
Probable space group: C M C A
;
_chemical_formula_sum "Si O2"
_cell_formula_units_Z 96
_cell_length_a 25.931369
_cell_length_b 25.766280
_cell_length_c 8.855169
_cell_angle_alpha 90.000000
_cell_angle_beta 90.000000
_cell_angle_gamma 90.000000
_cell_volume 5916.624686
_symmetry_space_group_name_H-M "C M C A"
_symmetry_group_IT_number 64
_symmetry_cell_setting 'orthorhombic'
loop_
_space_group_symop_operation_xyz
x,y,z
-x,1/2-y,1/2+z
x,-y,-z
-x,1/2+y,1/2-z
-x,-y,-z
x,1/2+y,1/2-z
-x,y,z
x,1/2-y,1/2+z
1/2+x,1/2+y,z
1/2-x,-y,1/2+z
1/2+x,1/2-y,-z
1/2-x,y,1/2-z
1/2-x,1/2-y,-z
1/2+x,y,1/2-z
1/2-x,1/2+y,z
1/2+x,-y,1/2+z
loop_
_atom_site_type_symbol
_atom_site_label
_atom_site_fract_x
_atom_site_fract_y
_atom_site_fract_z
Si Si1 0.394113 0.407971 0.348226
Si Si2 0.397266 0.006417 0.322583
Si Si3 0.697861 0.975424 0.161580
Si Si4 0.438672 0.191998 0.695436
Si Si5 0.940324 0.603470 0.173961
Si Si6 0.439050 0.297904 0.851656
O O1 0.421957 0.454792 0.255188
O O2 0.332532 0.420172 0.352146
O O3 0.406473 0.354173 0.268594
O O4 0.412517 0.408353 0.518866
O O5 0.339333 0.014848 0.255602
O O6 0.394483 0.000000 0.500000
O O7 0.432943 0.055466 0.286840
O O8 0.750000 0.964789 0.250000
O O9 0.710589 0.000000 0.000000
O O10 0.500000 0.182076 0.710974
O O11 0.420902 0.243539 0.782649
O O12 0.420133 0.197419 0.523389
O O13 0.916380 0.654931 0.251887
O O14 0.000000 0.612301 0.139242
O O15 0.500000 0.301339 0.848474
#
# Coordination Sequence:
#
# PCOD8261784 Si02
#       6
#    16  16  16  16  16  16
#     4  10  20  33  50  78 103 135 177 214 266 321
#     4  10  20  34  50  76 107 134 179 214 260 326
#     4  10  20  38  56  79 101 134 171 223 272 317
#     4  10  18  32  50  75 108 141 182 217 253 301
#     4  11  20  33  50  73 112 147 177 215 256 311
#     4   9  19  31  49  73 102 147 187 214 247 298
#
# _framework density 16.225466999999998
#
# number of rings (size 3 to 8) (size 9 to 14) (size 15 to 20)
#    1.000    1.000    1.667    3.500    0.000    5.000 
#    0.000    0.000    0.000    0.000    0.000    5.833 
#    0.000    0.000    0.000    0.000    0.000    0.000 
#
# Total GULP energy -594948.808608 kJ/mol
# GULP energy per Si atom -12394.766846 kJ/mol
# Density = 1.618854 g / cm^3
# Si number density = 16.225467 Si / 1000 Ang^3
#
#
#
# Elastic Constant Matrix: (Units=GPa)
#
#
# Indices 1 2 3 4 5 6 
#
# 1 56.1867 31.2636 37.0943 0.0000 0.0000 0.0000
# 2 31.2636 130.7049 61.4514 0.0000 0.0000 0.0000
# 3 37.0943 61.4514 149.5618 0.0000 0.0000 0.0000
# 4 0.0000 0.0000 0.0000 35.4163 0.0000 0.0000
# 5 0.0000 0.0000 0.0000 0.0000 20.6213 0.0000
# 6 0.0000 0.0000 0.0000 0.0000 0.0000 6.1293
#
#
#
# Elastic Compliance Matrix: (Units=1/GPa)
#
#
# Indices 1 2 3 4 5 6 
#
# 1 0.022446 -0.003410 -0.004166 0.000000 0.000000 0.000000
# 2 -0.003410 0.010001 -0.003263 0.000000 0.000000 0.000000
# 3 -0.004166 -0.003263 0.009060 0.000000 0.000000 0.000000
# 4 0.000000 0.000000 0.000000 0.028236 0.000000 0.000000
# 5 0.000000 0.000000 0.000000 0.000000 0.048493 0.000000
# 6 0.000000 0.000000 0.000000 0.000000 0.000000 0.163151
#
#
# Mechanical properties :
#
#
# Convention : Reuss Voigt Hill
#
# Bulk Modulus (GPa) = 50.43383 66.23025 58.33204
# Shear Modulus (GPa) = 16.14599 26.20965 21.17782
#
# Velocity S-wave (km/s) = 3.15795 4.02349 3.61670
# Velocity P-wave (km/s) = 6.66689 7.90518 7.31230
#
# Compressibility (1/GPa) = 0.01982796
#
# Stress axis : x y z
#
# Youngs Moduli (GPa) = 44.55220 99.99230 110.37295
#
# Poissons Ratio (x) = 0.34100 0.45979
# Poissons Ratio (y) = 0.15193 0.36018
# Poissons Ratio (z) = 0.18559 0.32630
#
# Static dielectric constant tensor:
#      x y z
#    x 2.685200 0.000000 0.000000 
#    y 0.000000 3.175280 0.000000 
#    z 0.000000 0.000000 3.275680 
# 
# 
# High freq. dielectric constant tensor:
#      x y z
#    x 1.576690 0.000000 0.000000 
#    y 0.000000 1.624450 0.000000 
#    z 0.000000 0.000000 1.648460 
# 
# From -- ./inp_files/10536.got.cif
#   From: 2010.03.12/outbox.cif.g09.slc.cpg/sg64_6_cif.got.tgz:10536.got - 2010.04.10 20:19:32.
