data_PCOD8261435
_publ_section_title
;
Structure prediction by ZEFSAII (Michael W. Deem and Ramdas Pophale) SiO2 
 PCOD8261435
Probable space group: C M C A
;
_chemical_formula_sum "Si O2"
_cell_formula_units_Z 88
_cell_length_a 8.972542
_cell_length_b 19.941623
_cell_length_c 24.593339
_cell_angle_alpha 90.000000
_cell_angle_beta 90.000000
_cell_angle_gamma 90.000000
_cell_volume 4400.413595
_symmetry_space_group_name_H-M "C M C A"
_symmetry_group_IT_number 64
_symmetry_cell_setting 'orthorhombic'
loop_
_space_group_symop_operation_xyz
x,y,z
-x,1/2-y,1/2+z
x,-y,-z
-x,1/2+y,1/2-z
-x,-y,-z
x,1/2+y,1/2-z
-x,y,z
x,1/2-y,1/2+z
1/2+x,1/2+y,z
1/2-x,-y,1/2+z
1/2+x,1/2-y,-z
1/2-x,y,1/2-z
1/2-x,1/2-y,-z
1/2+x,y,1/2-z
1/2-x,1/2+y,z
1/2+x,-y,1/2+z
loop_
_atom_site_type_symbol
_atom_site_label
_atom_site_fract_x
_atom_site_fract_y
_atom_site_fract_z
Si Si1 0.164346 0.036205 0.616065
Si Si2 0.823098 0.083866 0.306392
Si Si3 0.835323 0.144953 0.015958
Si Si4 0.322527 0.830751 0.397488
Si Si5 0.678471 0.301974 0.871501
Si Si6 0.247449 0.500000 0.000000
O O1 0.278192 0.097044 0.626982
O O2 0.148544 0.016662 0.552621
O O3 0.000000 0.057782 0.636089
O O4 0.221874 0.972558 0.649901
O O5 0.750000 0.061442 0.250000
O O6 0.749847 0.154047 0.323953
O O7 0.000000 0.092563 0.300855
O O8 0.754866 0.170891 0.070637
O O9 0.847554 0.064308 0.014347
O O10 0.000000 0.174795 0.018508
O O11 0.762021 0.172725 0.960193
O O12 0.500000 0.822625 0.393580
O O13 0.237926 0.773548 0.363641
O O14 0.500000 0.305232 0.867414
#
# Coordination Sequence:
#
# PCOD8261435 Si02
#       6
#    16  16  16  16  16   8
#     4  10  21  37  59  88 121 155 196 246 302 363
#     4  11  24  43  64  89 117 154 202 251 299 353
#     4   9  18  30  51  84 122 160 196 239 292 354
#     4  10  21  36  56  86 123 161 198 241 295 359
#     4  11  21  37  59  86 119 159 201 246 297 351
#     4  10  16  32  54  88 121 156 195 240 301 360
#
# _framework density 19.998118999999999
#
# number of rings (size 3 to 8) (size 9 to 14) (size 15 to 20)
#    0.000    1.818    1.818    2.727    0.000    2.182 
#    0.000    2.727    0.000    2.182    0.000    0.000 
#    0.000    0.000    0.000    0.000    0.000    0.000 
#
# Total GULP energy -545454.961188 kJ/mol
# GULP energy per Si atom -12396.703663 kJ/mol
# Density = 1.995260 g / cm^3
# Si number density = 19.998119 Si / 1000 Ang^3
#
#
#
# Elastic Constant Matrix: (Units=GPa)
#
#
# Indices 1 2 3 4 5 6 
#
# 1 95.6583 42.3982 34.4983 0.0000 0.0000 0.0000
# 2 42.3982 119.8555 49.2108 0.0000 0.0000 0.0000
# 3 34.4983 49.2108 79.8995 0.0000 0.0000 0.0000
# 4 0.0000 0.0000 0.0000 26.4359 0.0000 0.0000
# 5 0.0000 0.0000 0.0000 0.0000 24.2386 0.0000
# 6 0.0000 0.0000 0.0000 0.0000 0.0000 33.7535
#
#
#
# Elastic Compliance Matrix: (Units=1/GPa)
#
#
# Indices 1 2 3 4 5 6 
#
# 1 0.013198 -0.003117 -0.003779 0.000000 0.000000 0.000000
# 2 -0.003117 0.011904 -0.005986 0.000000 0.000000 0.000000
# 3 -0.003779 -0.005986 0.017834 0.000000 0.000000 0.000000
# 4 0.000000 0.000000 0.000000 0.037827 0.000000 0.000000
# 5 0.000000 0.000000 0.000000 0.000000 0.041256 0.000000
# 6 0.000000 0.000000 0.000000 0.000000 0.000000 0.029627
#
#
# Mechanical properties :
#
#
# Convention : Reuss Voigt Hill
#
# Bulk Modulus (GPa) = 58.23227 60.84755 59.53991
# Shear Modulus (GPa) = 27.30247 28.17268 27.73758
#
# Velocity S-wave (km/s) = 3.69894 3.75743 3.72830
# Velocity P-wave (km/s) = 6.88658 7.02261 6.95493
#
# Compressibility (1/GPa) = 0.01717261
#
# Stress axis : x y z
#
# Youngs Moduli (GPa) = 75.76736 84.00720 56.07325
#
# Poissons Ratio (x) = 0.26188 0.21188
# Poissons Ratio (y) = 0.23620 0.33563
# Poissons Ratio (z) = 0.28630 0.50284
#
# Static dielectric constant tensor:
#      x y z
#    x 3.356800 0.000000 0.000000 
#    y 0.000000 3.617860 0.000000 
#    z 0.000000 0.000000 3.547380 
# 
# 
# High freq. dielectric constant tensor:
#      x y z
#    x 1.770120 0.000000 0.000000 
#    y 0.000000 1.786200 0.000000 
#    z 0.000000 0.000000 1.757480 
# 
# From -- ./inp_files/42825.got.cif
#   From: 2010.03.12/outbox.cif.g09.slc.cpg/sg64_22_cif.got.tgz:42825.got - 2010.04.10 20:19:32.
