data_PCOD8261322
_publ_section_title
;
Structure prediction by ZEFSAII (Michael W. Deem and Ramdas Pophale) SiO2 
 PCOD8261322
Probable space group: C M C M
;
_chemical_formula_sum "Si O2"
_cell_formula_units_Z 72
_cell_length_a 13.039126
_cell_length_b 33.239244
_cell_length_c 9.526596
_cell_angle_alpha 90.000000
_cell_angle_beta 90.000000
_cell_angle_gamma 90.000000
_cell_volume 4128.928552
_symmetry_space_group_name_H-M "C M C M"
_symmetry_group_IT_number 63
_symmetry_cell_setting 'orthorhombic'
loop_
_space_group_symop_operation_xyz
x,y,z
-x,-y,1/2+z
x,-y,-z
-x,y,1/2-z
-x,-y,-z
x,y,1/2-z
-x,y,z
x,-y,1/2+z
1/2+x,1/2+y,z
1/2-x,1/2-y,1/2+z
1/2+x,1/2-y,-z
1/2-x,1/2+y,1/2-z
1/2-x,1/2-y,-z
1/2+x,1/2+y,1/2-z
1/2-x,1/2+y,z
1/2+x,1/2-y,1/2+z
loop_
_atom_site_type_symbol
_atom_site_label
_atom_site_fract_x
_atom_site_fract_y
_atom_site_fract_z
Si Si1 0.612560 0.765239 0.591133
Si Si2 0.115764 0.106384 0.083253
Si Si3 0.315805 0.307024 0.585817
Si Si4 0.776737 0.541153 0.085615
Si Si5 0.500000 0.038851 0.408539
O O1 0.631198 0.750096 0.750000
O O2 0.500000 0.784856 0.574110
O O3 0.618209 0.726813 0.490907
O O4 0.695498 0.799443 0.553073
O O5 0.120983 0.107177 0.250000
O O6 0.153065 0.149525 0.025099
O O7 0.000000 0.097455 0.030935
O O8 0.192253 0.072108 0.025812
O O9 0.341286 0.304192 0.750000
O O10 0.757885 0.532042 0.250000
O O11 0.891027 0.561466 0.062991
O O12 0.765299 0.500000 0.000000
O O13 0.500000 0.023443 0.250000
O O14 0.500000 0.000000 0.500000
#
# Coordination Sequence:
#
# PCOD8261322 Si02
#       5
#    16  16  16  16   8
#     4   9  17  29  45  67  93 117 145 187 230 262
#     4   9  17  29  45  66  91 117 149 186 220 258
#     4   9  17  30  47  66  88 120 155 182 217 269
#     4   9  17  30  47  67  89 115 146 182 221 262
#     4   8  14  26  44  64  84 108 140 174 214 260
#
# _framework density 17.437937000000002
#
# number of rings (size 3 to 8) (size 9 to 14) (size 15 to 20)
#    0.000    3.111    0.000    0.667    0.000    1.778 
#    2.000    1.111    0.000    1.333    0.000    0.000 
#    0.000    0.000    0.000    0.000    0.000    0.000 
#
# Total GULP energy -446034.911934 kJ/mol
# GULP energy per Si atom -12389.858665 kJ/mol
# Density = 1.739825 g / cm^3
# Si number density = 17.437937 Si / 1000 Ang^3
#
#
#
# Elastic Constant Matrix: (Units=GPa)
#
#
# Indices 1 2 3 4 5 6 
#
# 1 169.5463 71.7248 24.6030 0.0000 0.0000 0.0000
# 2 71.7248 91.5003 19.6030 0.0000 0.0000 0.0000
# 3 24.6030 19.6030 27.8931 0.0000 0.0000 0.0000
# 4 0.0000 0.0000 0.0000 19.7827 0.0000 0.0000
# 5 0.0000 0.0000 0.0000 0.0000 16.6177 0.0000
# 6 0.0000 0.0000 0.0000 0.0000 0.0000 24.5450
#
#
#
# Elastic Compliance Matrix: (Units=1/GPa)
#
#
# Indices 1 2 3 4 5 6 
#
# 1 0.009114 -0.006383 -0.003553 0.000000 0.000000 0.000000
# 2 -0.006383 0.017336 -0.006554 0.000000 0.000000 0.000000
# 3 -0.003553 -0.006554 0.043591 0.000000 0.000000 0.000000
# 4 0.000000 0.000000 0.000000 0.050549 0.000000 0.000000
# 5 0.000000 0.000000 0.000000 0.000000 0.060177 0.000000
# 6 0.000000 0.000000 0.000000 0.000000 0.000000 0.040741
#
#
# Mechanical properties :
#
#
# Convention : Reuss Voigt Hill
#
# Bulk Modulus (GPa) = 26.98194 57.86683 42.42438
# Shear Modulus (GPa) = 18.73764 23.72300 21.23032
#
# Velocity S-wave (km/s) = 3.28156 3.69239 3.49302
# Velocity P-wave (km/s) = 5.46488 7.17181 6.37573
#
# Compressibility (1/GPa) = 0.03706182
#
# Stress axis : x y z
#
# Youngs Moduli (GPa) = 109.72206 57.68187 22.94050
#
# Poissons Ratio (x) = 0.36818 0.08151
# Poissons Ratio (y) = 0.70035 0.15035
# Poissons Ratio (z) = 0.38985 0.37803
#
# Static dielectric constant tensor:
#      x y z
#    x 3.825050 0.000000 0.000000 
#    y 0.000000 3.469990 0.000000 
#    z 0.000000 0.000000 3.033650 
# 
# 
# High freq. dielectric constant tensor:
#      x y z
#    x 1.698720 0.000000 0.000000 
#    y 0.000000 1.642570 0.000000 
#    z 0.000000 0.000000 1.646990 
# 
# From -- ./inp_files/17568.got.cif
#   From: 2010.03.12/outbox.cif.g09.slc.cpg/sg63_9_cif.got.tgz:17568.got - 2010.04.10 19:34:48.
