data_PCOD8261096
_publ_section_title
;
Structure prediction by ZEFSAII (Michael W. Deem and Ramdas Pophale) SiO2 
 PCOD8261096
Probable space group: C M C M
;
_chemical_formula_sum "Si O2"
_cell_formula_units_Z 112
_cell_length_a 31.060070
_cell_length_b 10.939428
_cell_length_c 17.425411
_cell_angle_alpha 90.000000
_cell_angle_beta 90.000000
_cell_angle_gamma 90.000000
_cell_volume 5920.795685
_symmetry_space_group_name_H-M "C M C M"
_symmetry_group_IT_number 63
_symmetry_cell_setting 'orthorhombic'
loop_
_space_group_symop_operation_xyz
x,y,z
-x,-y,1/2+z
x,-y,-z
-x,y,1/2-z
-x,-y,-z
x,y,1/2-z
-x,y,z
x,-y,1/2+z
1/2+x,1/2+y,z
1/2-x,1/2-y,1/2+z
1/2+x,1/2-y,-z
1/2-x,1/2+y,1/2-z
1/2-x,1/2-y,-z
1/2+x,1/2+y,1/2-z
1/2-x,1/2+y,z
1/2+x,1/2-y,1/2+z
loop_
_atom_site_type_symbol
_atom_site_label
_atom_site_fract_x
_atom_site_fract_y
_atom_site_fract_z
Si Si1 0.609920 0.807628 0.165981
Si Si2 0.880449 0.051692 0.913985
Si Si3 0.332058 0.246838 0.158112
Si Si4 0.829784 0.480627 0.410842
Si Si5 0.815845 0.888557 0.666650
Si Si6 0.743904 0.783954 0.411714
Si Si7 0.451254 0.601977 0.341286
O O1 0.597203 0.859698 0.250000
O O2 0.649720 0.718043 0.174871
O O3 0.569896 0.730261 0.130449
O O4 0.624816 0.917353 0.111739
O O5 0.871522 0.195683 0.894622
O O6 0.837432 0.999608 0.876627
O O7 0.925113 0.013052 0.874389
O O8 0.882120 0.000000 0.000000
O O9 0.340162 0.262391 0.250000
O O10 0.326883 0.104738 0.137158
O O11 0.288188 0.314548 0.131686
O O12 0.832826 0.500000 0.500000
O O13 0.787869 0.397298 0.394955
O O14 0.801086 0.934819 0.750000
O O15 0.774335 0.842078 0.622116
O O16 0.750000 0.750000 0.500000
O O17 0.448546 0.594918 0.250000
O O18 0.500000 0.595459 0.371643
#
# Coordination Sequence:
#
# PCOD8261096 Si02
#       7
#    16  16  16  16  16  16  16
#     4   8  16  33  58  83 109 144 189 234 283 345
#     4  11  23  37  59  85 121 156 193 244 296 355
#     4  12  26  39  58  86 117 161 206 247 303 364
#     4  11  23  38  58  80 118 158 199 245 300 352
#     4   9  18  35  56  75 103 146 194 241 289 333
#     4  11  22  38  56  80 111 151 201 256 298 346
#     4   9  18  36  65  95 118 145 187 241 298 359
#
# _framework density 18.916377000000001
#
# number of rings (size 3 to 8) (size 9 to 14) (size 15 to 20)
#    0.000    1.857    1.429    3.857    6.000    2.571 
#    0.000    0.000    0.000    1.286    0.000    2.000 
#    0.000    0.000    0.000    0.000    0.000    0.000 
#
# Total GULP energy -693892.324702 kJ/mol
# GULP energy per Si atom -12390.934370 kJ/mol
# Density = 1.887332 g / cm^3
# Si number density = 18.916377 Si / 1000 Ang^3
#
#
#
# Elastic Constant Matrix: (Units=GPa)
#
#
# Indices 1 2 3 4 5 6 
#
# 1 120.0860 46.3917 29.7391 0.0000 0.0000 0.0000
# 2 46.3917 89.4811 26.4550 0.0000 0.0000 0.0000
# 3 29.7391 26.4550 80.1539 0.0000 0.0000 0.0000
# 4 0.0000 0.0000 0.0000 35.2768 0.0000 0.0000
# 5 0.0000 0.0000 0.0000 0.0000 -14.9786 0.0000
# 6 0.0000 0.0000 0.0000 0.0000 0.0000 14.8963
#
#
#
# Elastic Compliance Matrix: (Units=1/GPa)
#
#
# Indices 1 2 3 4 5 6 
#
# 1 0.010813 -0.004898 -0.002395 0.000000 0.000000 0.000000
# 2 -0.004898 0.014602 -0.003002 0.000000 0.000000 0.000000
# 3 -0.002395 -0.003002 0.014356 0.000000 0.000000 0.000000
# 4 0.000000 0.000000 0.000000 0.028347 0.000000 0.000000
# 5 0.000000 0.000000 0.000000 0.000000 -0.066762 0.000000
# 6 0.000000 0.000000 0.000000 0.000000 0.000000 0.067131
#
#
# Mechanical properties :
#
#
# Convention : Reuss Voigt Hill
#
# Bulk Modulus (GPa) = 52.13761 54.98805 53.56283
# Shear Modulus (GPa) = 52.37207 19.51458 35.94332
#
# Velocity S-wave (km/s) = 5.26747 3.21537 4.36376
# Velocity P-wave (km/s) = 8.03847 6.55110 7.33259
#
# Compressibility (1/GPa) = 0.01918001
#
# Stress axis : x y z
#
# Youngs Moduli (GPa) = 92.48449 68.48177 69.65894
#
# Poissons Ratio (x) = 0.33540 0.16685
# Poissons Ratio (y) = 0.45296 0.20914
# Poissons Ratio (z) = 0.22152 0.20561
#
# Static dielectric constant tensor:
#      x y z
#    x 3.492360 0.000000 0.000000 
#    y 0.000000 3.688110 0.000000 
#    z 0.000000 0.000000 1.272100 
# 
# 
# High freq. dielectric constant tensor:
#      x y z
#    x 1.709130 0.000000 0.000000 
#    y 0.000000 1.731350 0.000000 
#    z 0.000000 0.000000 1.741780 
# 
# From -- ./inp_files/38521.got.cif
#   From: 2010.03.12/outbox.cif.g09.slc.cpg/sg63_20_cif.got.tgz:38521.got - 2010.04.10 19:34:48.
