data_PCOD8261773
_publ_section_title
;
Structure prediction by ZEFSAII (Michael W. Deem and Ramdas Pophale) SiO2 
 PCOD8261773
Probable space group: C M C A
;
_chemical_formula_sum "Si O2"
_cell_formula_units_Z 80
_cell_length_a 14.316674
_cell_length_b 22.253842
_cell_length_c 14.255084
_cell_angle_alpha 90.000000
_cell_angle_beta 90.000000
_cell_angle_gamma 90.000000
_cell_volume 4541.684034
_symmetry_space_group_name_H-M "C M C A"
_symmetry_group_IT_number 64
_symmetry_cell_setting 'orthorhombic'
loop_
_space_group_symop_operation_xyz
x,y,z
-x,1/2-y,1/2+z
x,-y,-z
-x,1/2+y,1/2-z
-x,-y,-z
x,1/2+y,1/2-z
-x,y,z
x,1/2-y,1/2+z
1/2+x,1/2+y,z
1/2-x,-y,1/2+z
1/2+x,1/2-y,-z
1/2-x,y,1/2-z
1/2-x,1/2-y,-z
1/2+x,y,1/2-z
1/2-x,1/2+y,z
1/2+x,-y,1/2+z
loop_
_atom_site_type_symbol
_atom_site_label
_atom_site_fract_x
_atom_site_fract_y
_atom_site_fract_z
Si Si1 0.810085 0.146539 0.661524
Si Si2 0.234312 0.181512 0.022606
Si Si3 0.500000 0.583147 0.596491
Si Si4 0.896552 0.774884 0.836911
Si Si5 0.840281 0.632457 0.191334
Si Si6 0.500000 0.058173 0.117438
O O1 0.750000 0.121829 0.750000
O O2 0.740329 0.141203 0.571595
O O3 0.906600 0.110595 0.644326
O O4 0.832161 0.216756 0.676640
O O5 0.135820 0.180604 0.078139
O O6 0.315075 0.157295 0.089621
O O7 0.250000 0.250000 0.000000
O O8 0.500000 0.512708 0.613602
O O9 0.500000 0.591779 0.483865
O O10 0.893117 0.812871 0.741982
O O11 0.000000 0.752506 0.859484
O O12 0.750000 0.610600 0.250000
O O13 0.908926 0.576595 0.176971
#
# Coordination Sequence:
#
# PCOD8261773 Si02
#       6
#    16  16   8  16  16   8
#     4  11  21  38  54  79 116 147 185 230 283 339
#     4   9  18  32  50  78 113 143 170 216 276 333
#     4  11  24  39  58  79 105 156 202 233 271 326
#     4  10  18  31  55  87 114 144 177 218 285 349
#     4  10  19  34  58  85 110 139 179 232 282 332
#     4  11  22  39  60  81 105 146 204 235 269 330
#
# _framework density 17.614611
#
# number of rings (size 3 to 8) (size 9 to 14) (size 15 to 20)
#    0.000    1.800    4.000    3.000    0.000    0.800 
#    1.800    0.000    0.000    0.000    0.000    2.800 
#    0.000    0.000    0.000    0.000    0.000    0.000 
#
# Total GULP energy -495644.674841 kJ/mol
# GULP energy per Si atom -12391.116871 kJ/mol
# Density = 1.757452 g / cm^3
# Si number density = 17.614611 Si / 1000 Ang^3
#
#
#
# Elastic Constant Matrix: (Units=GPa)
#
#
# Indices 1 2 3 4 5 6 
#
# 1 104.6809 30.1001 46.8783 0.0000 0.0000 0.0000
# 2 30.1001 59.7798 31.8360 0.0000 0.0000 0.0000
# 3 46.8783 31.8360 122.8753 0.0000 0.0000 0.0000
# 4 0.0000 0.0000 0.0000 21.6476 0.0000 0.0000
# 5 0.0000 0.0000 0.0000 0.0000 18.9677 0.0000
# 6 0.0000 0.0000 0.0000 0.0000 0.0000 15.8756
#
#
#
# Elastic Compliance Matrix: (Units=1/GPa)
#
#
# Indices 1 2 3 4 5 6 
#
# 1 0.012416 -0.004326 -0.003616 0.000000 0.000000 0.000000
# 2 -0.004326 0.020913 -0.003768 0.000000 0.000000 0.000000
# 3 -0.003616 -0.003768 0.010494 0.000000 0.000000 0.000000
# 4 0.000000 0.000000 0.000000 0.046194 0.000000 0.000000
# 5 0.000000 0.000000 0.000000 0.000000 0.052721 0.000000
# 6 0.000000 0.000000 0.000000 0.000000 0.000000 0.062990
#
#
# Mechanical properties :
#
#
# Convention : Reuss Voigt Hill
#
# Bulk Modulus (GPa) = 49.01196 56.10720 52.55958
# Shear Modulus (GPa) = 21.19097 23.19962 22.19530
#
# Velocity S-wave (km/s) = 3.47224 3.63308 3.55357
# Velocity P-wave (km/s) = 6.63026 7.03710 6.83671
#
# Compressibility (1/GPa) = 0.02040318
#
# Stress axis : x y z
#
# Youngs Moduli (GPa) = 80.54070 47.81735 95.29120
#
# Poissons Ratio (x) = 0.20686 0.34458
# Poissons Ratio (y) = 0.34842 0.35905
# Poissons Ratio (z) = 0.29124 0.18017
#
# Static dielectric constant tensor:
#      x y z
#    x 3.307950 0.000000 0.000000 
#    y 0.000000 2.967560 0.000000 
#    z 0.000000 0.000000 3.624090 
# 
# 
# High freq. dielectric constant tensor:
#      x y z
#    x 1.681380 0.000000 0.000000 
#    y 0.000000 1.649120 0.000000 
#    z 0.000000 0.000000 1.692730 
# 
# From -- ./inp_files/14485.got.cif
#   From: 2010.03.12/outbox.cif.g09.slc.cpg/sg64_8_cif.got.tgz:14485.got - 2010.04.10 20:19:32.
