data_PCOD8261851
_publ_section_title
;
Structure prediction by ZEFSAII (Michael W. Deem and Ramdas Pophale) SiO2 
 PCOD8261851
Probable space group: C M C A
;
_chemical_formula_sum "Si O2"
_cell_formula_units_Z 112
_cell_length_a 24.191604
_cell_length_b 11.765157
_cell_length_c 22.822798
_cell_angle_alpha 90.000000
_cell_angle_beta 90.000000
_cell_angle_gamma 90.000000
_cell_volume 6495.779558
_symmetry_space_group_name_H-M "C M C A"
_symmetry_group_IT_number 64
_symmetry_cell_setting 'orthorhombic'
loop_
_space_group_symop_operation_xyz
x,y,z
-x,1/2-y,1/2+z
x,-y,-z
-x,1/2+y,1/2-z
-x,-y,-z
x,1/2+y,1/2-z
-x,y,z
x,1/2-y,1/2+z
1/2+x,1/2+y,z
1/2-x,-y,1/2+z
1/2+x,1/2-y,-z
1/2-x,y,1/2-z
1/2-x,1/2-y,-z
1/2+x,y,1/2-z
1/2-x,1/2+y,z
1/2+x,-y,1/2+z
loop_
_atom_site_type_symbol
_atom_site_label
_atom_site_fract_x
_atom_site_fract_y
_atom_site_fract_z
Si Si1 0.383608 0.517419 0.379467
Si Si2 0.183199 0.846173 0.702963
Si Si3 0.000000 0.314259 0.991163
Si Si4 0.688468 0.188811 0.915391
Si Si5 0.878710 0.782332 0.533819
Si Si6 0.690692 0.142975 0.621586
Si Si7 0.199603 0.601613 0.333369
Si Si8 0.000000 0.027457 0.593583
O O1 0.370657 0.597447 0.324656
O O2 0.344909 0.408166 0.381878
O O3 0.377955 0.590646 0.439086
O O4 0.445519 0.474736 0.366897
O O5 0.192744 0.716841 0.681491
O O6 0.174431 0.853783 0.772210
O O7 0.235247 0.916775 0.677571
O O8 0.000000 0.355823 0.057759
O O9 0.942125 0.245729 0.982116
O O10 0.000000 0.419237 0.947881
O O11 0.752585 0.149929 0.915980
O O12 0.683705 0.307115 0.881757
O O13 0.663141 0.210471 0.979353
O O14 0.857700 0.688037 0.579405
O O15 0.675517 0.016931 0.643000
#
# Coordination Sequence:
#
# PCOD8261851 Si02
#       8
#    16  16   8  16  16  16  16   8
#     4  10  18  33  55  81 104 135 175 224 266 294
#     4   9  20  34  53  74 104 137 175 221 255 307
#     4   9  16  30  52  78  99 138 178 213 262 291
#     4  11  20  32  51  80 109 140 172 208 264 312
#     4  10  20  34  53  78 111 139 171 220 260 315
#     4  10  21  35  49  77 111 142 168 208 271 314
#     4  10  21  33  52  78 105 141 175 206 259 323
#     4   9  16  28  54  79 102 129 177 228 254 298
#
# _framework density 17.241963999999999
#
# number of rings (size 3 to 8) (size 9 to 14) (size 15 to 20)
#    0.000    2.143    2.857    0.857    2.000    1.714 
#    2.571    0.000    0.000    5.143    0.000    0.000 
#    0.000    0.000    0.000    0.000    0.000    0.000 
#
# Total GULP energy -694105.130442 kJ/mol
# GULP energy per Si atom -12394.734472 kJ/mol
# Density = 1.720272 g / cm^3
# Si number density = 17.241964 Si / 1000 Ang^3
#
#
#
# Elastic Constant Matrix: (Units=GPa)
#
#
# Indices 1 2 3 4 5 6 
#
# 1 115.7012 33.2460 40.3749 0.0000 0.0000 0.0000
# 2 33.2460 87.7173 29.4243 0.0000 0.0000 0.0000
# 3 40.3749 29.4243 83.3094 0.0000 0.0000 0.0000
# 4 0.0000 0.0000 0.0000 20.8886 0.0000 0.0000
# 5 0.0000 0.0000 0.0000 0.0000 17.7043 0.0000
# 6 0.0000 0.0000 0.0000 0.0000 0.0000 22.3578
#
#
#
# Elastic Compliance Matrix: (Units=1/GPa)
#
#
# Indices 1 2 3 4 5 6 
#
# 1 0.010932 -0.002684 -0.004350 0.000000 0.000000 0.000000
# 2 -0.002684 0.013592 -0.003500 0.000000 0.000000 0.000000
# 3 -0.004350 -0.003500 0.015348 0.000000 0.000000 0.000000
# 4 0.000000 0.000000 0.000000 0.047873 0.000000 0.000000
# 5 0.000000 0.000000 0.000000 0.000000 0.056483 0.000000
# 6 0.000000 0.000000 0.000000 0.000000 0.000000 0.044727
#
#
# Mechanical properties :
#
#
# Convention : Reuss Voigt Hill
#
# Bulk Modulus (GPa) = 53.18116 54.75758 53.96937
# Shear Modulus (GPa) = 23.11702 24.43565 23.77633
#
# Velocity S-wave (km/s) = 3.66559 3.76868 3.71749
# Velocity P-wave (km/s) = 6.98759 7.12492 7.05659
#
# Compressibility (1/GPa) = 0.01880365
#
# Stress axis : x y z
#
# Youngs Moduli (GPa) = 91.47230 73.57530 65.15636
#
# Poissons Ratio (x) = 0.19749 0.28344
# Poissons Ratio (y) = 0.24553 0.22802
# Poissons Ratio (z) = 0.39792 0.25748
#
# Static dielectric constant tensor:
#      x y z
#    x 3.396010 0.000000 0.000000 
#    y 0.000000 3.071600 0.000000 
#    z 0.000000 0.000000 3.098330 
# 
# 
# High freq. dielectric constant tensor:
#      x y z
#    x 1.657290 0.000000 0.000000 
#    y 0.000000 1.654080 0.000000 
#    z 0.000000 0.000000 1.656140 
# 
# From -- ./inp_files/46712.got.cif
#   From: 2010.03.12/outbox.cif.g09.slc.cpg/sg64_24_cif.got.tgz:46712.got - 2010.04.10 20:19:32.
