data_PCOD8261539
_publ_section_title
;
Structure prediction by ZEFSAII (Michael W. Deem and Ramdas Pophale) SiO2 
 PCOD8261539
Probable space group: C M C A
;
_chemical_formula_sum "Si O2"
_cell_formula_units_Z 112
_cell_length_a 16.321794
_cell_length_b 19.808164
_cell_length_c 18.719472
_cell_angle_alpha 90.000000
_cell_angle_beta 90.000000
_cell_angle_gamma 90.000000
_cell_volume 6052.094633
_symmetry_space_group_name_H-M "C M C A"
_symmetry_group_IT_number 64
_symmetry_cell_setting 'orthorhombic'
loop_
_space_group_symop_operation_xyz
x,y,z
-x,1/2-y,1/2+z
x,-y,-z
-x,1/2+y,1/2-z
-x,-y,-z
x,1/2+y,1/2-z
-x,y,z
x,1/2-y,1/2+z
1/2+x,1/2+y,z
1/2-x,-y,1/2+z
1/2+x,1/2-y,-z
1/2-x,y,1/2-z
1/2-x,1/2-y,-z
1/2+x,y,1/2-z
1/2-x,1/2+y,z
1/2+x,-y,1/2+z
loop_
_atom_site_type_symbol
_atom_site_label
_atom_site_fract_x
_atom_site_fract_y
_atom_site_fract_z
Si Si1 0.591030 0.304057 0.014250
Si Si2 0.847556 0.872876 0.755265
Si Si3 0.841649 0.980909 0.220086
Si Si4 0.096458 0.950916 0.065976
Si Si5 0.861908 0.735296 0.149182
Si Si6 0.653473 0.340687 0.264129
Si Si7 0.169382 0.267326 0.629260
O O1 0.500000 0.313393 0.983499
O O2 0.648355 0.275632 0.952807
O O3 0.623774 0.375503 0.043713
O O4 0.589994 0.247370 0.076030
O O5 0.750000 0.875653 0.750000
O O6 0.886119 0.836185 0.685585
O O7 0.869255 0.829331 0.825773
O O8 0.885866 0.948054 0.760958
O O9 0.750000 0.986120 0.250000
O O10 0.848106 0.971349 0.134186
O O11 0.884359 0.916543 0.259465
O O12 0.000000 0.954445 0.085773
O O13 0.117360 0.000000 0.000000
O O14 0.887078 0.795653 0.202344
O O15 0.765968 0.734834 0.135414
O O16 0.750000 0.345867 0.250000
O O17 0.635226 0.304308 0.339893
#
# Coordination Sequence:
#
# PCOD8261539 Si02
#       7
#    16  16  16  16  16  16  16
#     4  11  21  32  47  72 102 131 166 208 250 299
#     4   8  16  29  51  75  99 121 161 208 247 290
#     4  10  17  31  54  78 105 132 171 216 252 299
#     4  10  21  35  51  76 112 142 166 208 273 330
#     4   9  16  32  49  71  95 130 163 202 250 297
#     4   8  15  28  50  72  97 122 164 205 247 293
#     4   9  17  31  50  72  96 132 164 202 251 304
#
# _framework density 18.505990000000001
#
# number of rings (size 3 to 8) (size 9 to 14) (size 15 to 20)
#    0.000    2.714    1.429    3.000    0.000    0.000 
#    0.000    4.286    0.000    0.000    0.000    1.000 
#    0.000    0.000    0.000    0.000    0.000    0.000 
#
# Total GULP energy -693866.216614 kJ/mol
# GULP energy per Si atom -12390.468154 kJ/mol
# Density = 1.846387 g / cm^3
# Si number density = 18.505990 Si / 1000 Ang^3
#
#
#
# Elastic Constant Matrix: (Units=GPa)
#
#
# Indices 1 2 3 4 5 6 
#
# 1 23.3864 11.2471 21.6048 0.0000 0.0000 0.0000
# 2 11.2471 172.3793 64.5678 0.0000 0.0000 0.0000
# 3 21.6048 64.5678 125.2882 0.0000 0.0000 0.0000
# 4 0.0000 0.0000 0.0000 31.5569 0.0000 0.0000
# 5 0.0000 0.0000 0.0000 0.0000 12.9056 0.0000
# 6 0.0000 0.0000 0.0000 0.0000 0.0000 7.8045
#
#
#
# Elastic Compliance Matrix: (Units=1/GPa)
#
#
# Indices 1 2 3 4 5 6 
#
# 1 0.050863 -0.000041 -0.008750 0.000000 0.000000 0.000000
# 2 -0.000041 0.007189 -0.003698 0.000000 0.000000 0.000000
# 3 -0.008750 -0.003698 0.011396 0.000000 0.000000 0.000000
# 4 0.000000 0.000000 0.000000 0.031689 0.000000 0.000000
# 5 0.000000 0.000000 0.000000 0.000000 0.077486 0.000000
# 6 0.000000 0.000000 0.000000 0.000000 0.000000 0.128131
#
#
# Mechanical properties :
#
#
# Convention : Reuss Voigt Hill
#
# Bulk Modulus (GPa) = 22.48675 57.32148 39.90412
# Shear Modulus (GPa) = 14.42777 25.36234 19.89505
#
# Velocity S-wave (km/s) = 2.79521 3.70603 3.28237
# Velocity P-wave (km/s) = 4.75342 7.02529 5.99791
#
# Compressibility (1/GPa) = 0.04447063
#
# Stress axis : x y z
#
# Youngs Moduli (GPa) = 19.66070 139.10334 87.74997
#
# Poissons Ratio (x) = 0.00575 0.76777
# Poissons Ratio (y) = 0.00081 0.32447
# Poissons Ratio (z) = 0.17202 0.51436
#
# Static dielectric constant tensor:
#      x y z
#    x 2.927300 0.000000 0.000000 
#    y 0.000000 4.054350 0.000000 
#    z 0.000000 0.000000 3.410200 
# 
# 
# High freq. dielectric constant tensor:
#      x y z
#    x 1.672850 0.000000 0.000000 
#    y 0.000000 1.729710 0.000000 
#    z 0.000000 0.000000 1.711450 
# 
# From -- ./inp_files/33596.got.cif
#   From: 2010.03.12/outbox.cif.g09.slc.cpg/sg64_17_cif.got.tgz:33596.got - 2010.04.10 20:19:32.
