data_PCOD8261676
_publ_section_title
;
Structure prediction by ZEFSAII (Michael W. Deem and Ramdas Pophale) SiO2 
 PCOD8261676
Probable space group: C M C A
;
_chemical_formula_sum "Si O2"
_cell_formula_units_Z 104
_cell_length_a 9.738199
_cell_length_b 21.948616
_cell_length_c 26.731505
_cell_angle_alpha 90.000000
_cell_angle_beta 90.000000
_cell_angle_gamma 90.000000
_cell_volume 5713.591622
_symmetry_space_group_name_H-M "C M C A"
_symmetry_group_IT_number 64
_symmetry_cell_setting 'orthorhombic'
loop_
_space_group_symop_operation_xyz
x,y,z
-x,1/2-y,1/2+z
x,-y,-z
-x,1/2+y,1/2-z
-x,-y,-z
x,1/2+y,1/2-z
-x,y,z
x,1/2-y,1/2+z
1/2+x,1/2+y,z
1/2-x,-y,1/2+z
1/2+x,1/2-y,-z
1/2-x,y,1/2-z
1/2-x,1/2-y,-z
1/2+x,y,1/2-z
1/2-x,1/2+y,z
1/2+x,-y,1/2+z
loop_
_atom_site_type_symbol
_atom_site_label
_atom_site_fract_x
_atom_site_fract_y
_atom_site_fract_z
Si Si1 0.342134 0.044550 0.397056
Si Si2 0.849809 0.132720 0.518432
Si Si3 0.341541 0.828842 0.564858
Si Si4 0.659073 0.659019 0.796576
Si Si5 0.156308 0.799210 0.383571
Si Si6 0.158817 0.484327 0.297052
Si Si7 0.236127 0.000000 0.500000
O O1 0.500000 0.043842 0.384030
O O2 0.288029 0.114074 0.401795
O O3 0.275247 0.013732 0.347707
O O4 0.323580 0.008281 0.449230
O O5 0.739179 0.170390 0.487173
O O6 0.821602 0.147002 0.576387
O O7 0.853094 0.060334 0.508708
O O8 0.000000 0.158209 0.503847
O O9 0.500000 0.838850 0.551014
O O10 0.315431 0.766469 0.592830
O O11 0.500000 0.678951 0.790165
O O12 0.750000 0.680445 0.750000
O O13 0.726501 0.693452 0.842871
O O14 0.671601 0.587428 0.804737
O O15 0.000000 0.802454 0.361919
O O16 0.250000 0.506425 0.250000
O O17 0.000000 0.502635 0.286981
#
# Coordination Sequence:
#
# PCOD8261676 Si02
#       7
#    16  16  16  16  16  16   8
#     4   9  17  31  51  74 100 129 163 205 249 297
#     4  10  20  32  48  72 103 134 165 204 249 296
#     4   9  19  34  51  71  98 132 168 205 244 289
#     4  10  20  34  53  76  99 125 159 202 248 294
#     4  10  20  34  51  72  99 133 169 205 246 291
#     4   9  18  33  52  75 100 126 160 201 246 295
#     4  10  18  30  48  74 103 132 165 204 257 308
#
# _framework density 18.202211999999999
#
# number of rings (size 3 to 8) (size 9 to 14) (size 15 to 20)
#    0.000    2.462    0.000    2.308    0.000    2.462 
#    0.000    4.615    0.000    1.846    0.000    0.000 
#    0.000    0.000    0.000    0.000    0.000    0.000 
#
# Total GULP energy -644500.704430 kJ/mol
# GULP energy per Si atom -12394.244316 kJ/mol
# Density = 1.816078 g / cm^3
# Si number density = 18.202212 Si / 1000 Ang^3
#
#
#
# Elastic Constant Matrix: (Units=GPa)
#
#
# Indices 1 2 3 4 5 6 
#
# 1 94.0189 37.6497 59.5363 0.0000 0.0000 0.0000
# 2 37.6497 62.6563 48.0380 0.0000 0.0000 0.0000
# 3 59.5363 48.0380 128.3488 0.0000 0.0000 0.0000
# 4 0.0000 0.0000 0.0000 26.1837 0.0000 0.0000
# 5 0.0000 0.0000 0.0000 0.0000 36.5654 0.0000
# 6 0.0000 0.0000 0.0000 0.0000 0.0000 20.5871
#
#
#
# Elastic Compliance Matrix: (Units=1/GPa)
#
#
# Indices 1 2 3 4 5 6 
#
# 1 0.016362 -0.005628 -0.005483 0.000000 0.000000 0.000000
# 2 -0.005628 0.024319 -0.006491 0.000000 0.000000 0.000000
# 3 -0.005483 -0.006491 0.012764 0.000000 0.000000 0.000000
# 4 0.000000 0.000000 0.000000 0.038192 0.000000 0.000000
# 5 0.000000 0.000000 0.000000 0.000000 0.027348 0.000000
# 6 0.000000 0.000000 0.000000 0.000000 0.000000 0.048574
#
#
# Mechanical properties :
#
#
# Convention : Reuss Voigt Hill
#
# Bulk Modulus (GPa) = 54.82464 63.94131 59.38298
# Shear Modulus (GPa) = 23.94129 25.98726 24.96427
#
# Velocity S-wave (km/s) = 3.63063 3.78259 3.70739
# Velocity P-wave (km/s) = 6.91090 7.36762 7.14291
#
# Compressibility (1/GPa) = 0.01823997
#
# Stress axis : x y z
#
# Youngs Moduli (GPa) = 61.11686 41.12072 78.34283
#
# Poissons Ratio (x) = 0.23142 0.42959
# Poissons Ratio (y) = 0.34395 0.50855
# Poissons Ratio (z) = 0.33513 0.26693
#
# Static dielectric constant tensor:
#      x y z
#    x 3.334660 0.000000 0.000000 
#    y 0.000000 3.368820 0.000000 
#    z 0.000000 0.000000 3.404000 
# 
# 
# High freq. dielectric constant tensor:
#      x y z
#    x 1.699260 0.000000 0.000000 
#    y 0.000000 1.700150 0.000000 
#    z 0.000000 0.000000 1.703390 
# 
# From -- ./inp_files/48232.got.cif
#   From: 2010.03.12/outbox.cif.g09.slc.cpg/sg64_25_cif.got.tgz:48232.got - 2010.04.10 20:19:32.
