data_PCOD8261925
_publ_section_title
;
Structure prediction by ZEFSAII (Michael W. Deem and Ramdas Pophale) SiO2 
 PCOD8261925
Probable space group: C M C A
;
_chemical_formula_sum "Si O2"
_cell_formula_units_Z 96
_cell_length_a 18.782508
_cell_length_b 26.750166
_cell_length_c 9.556588
_cell_angle_alpha 90.000000
_cell_angle_beta 90.000000
_cell_angle_gamma 90.000000
_cell_volume 4801.566269
_symmetry_space_group_name_H-M "C M C A"
_symmetry_group_IT_number 64
_symmetry_cell_setting 'orthorhombic'
loop_
_space_group_symop_operation_xyz
x,y,z
-x,1/2-y,1/2+z
x,-y,-z
-x,1/2+y,1/2-z
-x,-y,-z
x,1/2+y,1/2-z
-x,y,z
x,1/2-y,1/2+z
1/2+x,1/2+y,z
1/2-x,-y,1/2+z
1/2+x,1/2-y,-z
1/2-x,y,1/2-z
1/2-x,1/2-y,-z
1/2+x,y,1/2-z
1/2-x,1/2+y,z
1/2+x,-y,1/2+z
loop_
_atom_site_type_symbol
_atom_site_label
_atom_site_fract_x
_atom_site_fract_y
_atom_site_fract_z
Si Si1 0.500000 0.719002 0.308561
Si Si2 0.134928 0.878381 0.404022
Si Si3 0.500000 0.684423 0.636257
Si Si4 0.260307 0.307341 0.536823
Si Si5 0.916233 0.428767 0.811460
Si Si6 0.861362 0.834569 0.792295
Si Si7 0.183388 0.983982 0.343547
O O1 0.500000 0.708926 0.477676
O O2 0.500000 0.776805 0.265005
O O3 0.432953 0.695805 0.230008
O O4 0.201470 0.839866 0.415974
O O5 0.104115 0.900307 0.547124
O O6 0.163048 0.926133 0.317621
O O7 0.069653 0.848974 0.334503
O O8 0.250000 0.250000 0.500000
O O9 0.179029 0.325340 0.561380
O O10 0.308399 0.316092 0.671971
O O11 0.879839 0.393406 0.696329
O O12 0.885662 0.484254 0.798879
O O13 0.000000 0.432415 0.793929
O O14 0.250000 0.999126 0.250000
O O15 0.204686 0.000000 0.500000
#
# Coordination Sequence:
#
# PCOD8261925 Si02
#       7
#     8  16   8  16  16  16  16
#     4  12  22  40  61  88 123 165 204 255 297 361
#     4  10  20  39  59  90 125 157 203 260 300 365
#     4  12  22  40  64  87 129 159 209 246 307 359
#     4  10  20  35  55  83 118 165 201 243 300 360
#     4  10  18  35  63  88 115 153 210 250 301 363
#     4  10  20  34  57  84 119 154 207 249 294 356
#     4  10  24  39  65  93 121 158 201 255 317 363
#
# _framework density 19.993476000000001
#
# number of rings (size 3 to 8) (size 9 to 14) (size 15 to 20)
#    0.000    1.667    5.000    1.000    8.167    1.000 
#    6.000    0.000    0.000    0.500    2.167    0.000 
#    0.000    0.000    0.000    0.000    0.000    0.000 
#
# Total GULP energy -594725.852710 kJ/mol
# GULP energy per Si atom -12390.121931 kJ/mol
# Density = 1.994797 g / cm^3
# Si number density = 19.993476 Si / 1000 Ang^3
#
#
#
# Elastic Constant Matrix: (Units=GPa)
#
#
# Indices 1 2 3 4 5 6 
#
# 1 142.7543 63.4157 35.6380 0.0000 0.0000 0.0000
# 2 63.4157 168.6714 30.6178 0.0000 0.0000 0.0000
# 3 35.6380 30.6178 26.5347 0.0000 0.0000 0.0000
# 4 0.0000 0.0000 0.0000 24.1002 0.0000 0.0000
# 5 0.0000 0.0000 0.0000 0.0000 12.7458 0.0000
# 6 0.0000 0.0000 0.0000 0.0000 0.0000 39.5263
#
#
#
# Elastic Compliance Matrix: (Units=1/GPa)
#
#
# Indices 1 2 3 4 5 6 
#
# 1 0.010969 -0.001834 -0.012617 0.000000 0.000000 0.000000
# 2 -0.001834 0.007806 -0.006544 0.000000 0.000000 0.000000
# 3 -0.012617 -0.006544 0.062183 0.000000 0.000000 0.000000
# 4 0.000000 0.000000 0.000000 0.041493 0.000000 0.000000
# 5 0.000000 0.000000 0.000000 0.000000 0.078457 0.000000
# 6 0.000000 0.000000 0.000000 0.000000 0.000000 0.025300
#
#
# Mechanical properties :
#
#
# Convention : Reuss Voigt Hill
#
# Bulk Modulus (GPa) = 25.66150 66.36705 46.01428
# Shear Modulus (GPa) = 17.78171 29.16037 23.47104
#
# Velocity S-wave (km/s) = 2.98548 3.82317 3.42999
# Velocity P-wave (km/s) = 4.97462 7.26328 6.22503
#
# Compressibility (1/GPa) = 0.03896888
#
# Stress axis : x y z
#
# Youngs Moduli (GPa) = 91.16243 128.10435 16.08164
#
# Poissons Ratio (x) = 0.23494 0.20289
# Poissons Ratio (y) = 0.16719 0.10524
# Poissons Ratio (z) = 1.15016 0.83833
#
# Static dielectric constant tensor:
#      x y z
#    x 4.000800 0.000000 0.000000 
#    y 0.000000 4.006570 0.000000 
#    z 0.000000 0.000000 3.335610 
# 
# 
# High freq. dielectric constant tensor:
#      x y z
#    x 1.800920 0.000000 0.000000 
#    y 0.000000 1.795780 0.000000 
#    z 0.000000 0.000000 1.728350 
# 
# From -- ./inp_files/16376.got.cif
#   From: 2010.03.12/outbox.cif.g09.slc.cpg/sg64_9_cif.got.tgz:16376.got - 2010.04.10 20:19:32.
