data_PCOD8261109
_publ_section_title
;
Structure prediction by ZEFSAII (Michael W. Deem and Ramdas Pophale) SiO2 
 PCOD8261109
Probable space group: C M C M
;
_chemical_formula_sum "Si O2"
_cell_formula_units_Z 96
_cell_length_a 17.980652
_cell_length_b 16.323333
_cell_length_c 14.840221
_cell_angle_alpha 90.000000
_cell_angle_beta 90.000000
_cell_angle_gamma 90.000000
_cell_volume 4355.666749
_symmetry_space_group_name_H-M "C M C M"
_symmetry_group_IT_number 63
_symmetry_cell_setting 'orthorhombic'
loop_
_space_group_symop_operation_xyz
x,y,z
-x,-y,1/2+z
x,-y,-z
-x,y,1/2-z
-x,-y,-z
x,y,1/2-z
-x,y,z
x,-y,1/2+z
1/2+x,1/2+y,z
1/2-x,1/2-y,1/2+z
1/2+x,1/2-y,-z
1/2-x,1/2+y,1/2-z
1/2-x,1/2-y,-z
1/2+x,1/2+y,1/2-z
1/2-x,1/2+y,z
1/2+x,1/2-y,1/2+z
loop_
_atom_site_type_symbol
_atom_site_label
_atom_site_fract_x
_atom_site_fract_y
_atom_site_fract_z
Si Si1 0.696802 0.804464 0.852959
Si Si2 0.915707 0.831392 0.389147
Si Si3 0.651490 0.216390 0.849292
Si Si4 0.416681 0.379251 0.904949
Si Si5 0.314385 0.471282 0.348568
Si Si6 0.816507 0.415418 0.019726
O O1 0.697550 0.837833 0.750000
O O2 0.620589 0.757668 0.874706
O O3 0.763624 0.741165 0.869246
O O4 0.707690 0.879052 0.922651
O O5 0.909652 0.860612 0.490944
O O6 0.874157 0.899714 0.331331
O O7 0.000000 0.823697 0.355985
O O8 0.644165 0.177229 0.750000
O O9 0.597955 0.294447 0.853007
O O10 0.631847 0.147441 0.923965
O O11 0.500000 0.409908 0.880517
O O12 0.356386 0.446418 0.878646
O O13 0.277253 0.487033 0.250000
O O14 0.255603 0.441927 0.422678
O O15 0.861412 0.500000 0.000000
#
# Coordination Sequence:
#
# PCOD8261109 Si02
#       6
#    16  16  16  16  16  16
#     4  11  23  41  65  93 126 170 225 277 333 394
#     4  11  22  39  63  92 131 179 223 269 331 397
#     4  11  22  39  64  92 127 173 222 270 320 389
#     4  11  24  42  66  98 138 182 220 264 325 397
#     4  12  24  38  60  98 141 179 219 261 320 400
#     4  12  24  40  64  90 128 171 216 278 330 383
#
# _framework density 22.040254000000001
#
# number of rings (size 3 to 8) (size 9 to 14) (size 15 to 20)
#    0.000    0.667    3.333    6.000    0.000    7.333 
#    0.000    0.000    0.000    2.000    0.000    2.333 
#    0.000    0.000    0.000    0.000    0.000    0.000 
#
# Total GULP energy -595154.064856 kJ/mol
# GULP energy per Si atom -12399.043018 kJ/mol
# Density = 2.199009 g / cm^3
# Si number density = 22.040254 Si / 1000 Ang^3
#
#
#
# Elastic Constant Matrix: (Units=GPa)
#
#
# Indices 1 2 3 4 5 6 
#
# 1 43.7912 21.4836 8.2561 0.0000 0.0000 0.0000
# 2 21.4836 131.8572 57.4264 0.0000 0.0000 0.0000
# 3 8.2561 57.4264 142.8503 0.0000 0.0000 0.0000
# 4 0.0000 0.0000 0.0000 -18.9837 0.0000 0.0000
# 5 0.0000 0.0000 0.0000 0.0000 11.0280 0.0000
# 6 0.0000 0.0000 0.0000 0.0000 0.0000 26.5192
#
#
#
# Elastic Compliance Matrix: (Units=1/GPa)
#
#
# Indices 1 2 3 4 5 6 
#
# 1 0.024826 -0.004146 0.000232 0.000000 0.000000 0.000000
# 2 -0.004146 0.009886 -0.003735 0.000000 0.000000 0.000000
# 3 0.000232 -0.003735 0.008488 0.000000 0.000000 0.000000
# 4 0.000000 0.000000 0.000000 -0.052677 0.000000 0.000000
# 5 0.000000 0.000000 0.000000 0.000000 0.090678 0.000000
# 6 0.000000 0.000000 0.000000 0.000000 0.000000 0.037709
#
#
# Mechanical properties :
#
#
# Convention : Reuss Voigt Hill
#
# Bulk Modulus (GPa) = 35.83867 54.75898 45.29883
# Shear Modulus (GPa) = 34.84124 19.13488 26.98806
#
# Velocity S-wave (km/s) = 3.98024 2.94968 3.50307
# Velocity P-wave (km/s) = 6.11710 6.04150 6.07942
#
# Compressibility (1/GPa) = 0.02790282
#
# Stress axis : x y z
#
# Youngs Moduli (GPa) = 40.28061 101.15388 117.80988
#
# Poissons Ratio (x) = 0.41937 -0.02731
# Poissons Ratio (y) = 0.16700 0.43997
# Poissons Ratio (z) = -0.00934 0.37777
#
# Static dielectric constant tensor:
#      x y z
#    x 3.765160 0.000000 0.000000 
#    y 0.000000 4.161020 0.000000 
#    z 0.000000 0.000000 4.264560 
# 
# 
# High freq. dielectric constant tensor:
#      x y z
#    x 1.824030 0.000000 0.000000 
#    y 0.000000 1.869150 0.000000 
#    z 0.000000 0.000000 1.894360 
# 
# From -- ./inp_files/35304.got.cif
#   From: 2010.03.12/outbox.cif.g09.slc.cpg/sg63_18_cif.got.tgz:35304.got - 2010.04.10 19:34:48.
