data_PCOD8261095
_publ_section_title
;
Structure prediction by ZEFSAII (Michael W. Deem and Ramdas Pophale) SiO2 
 PCOD8261095
Probable space group: C M C M
;
_chemical_formula_sum "Si O2"
_cell_formula_units_Z 52
_cell_length_a 10.481872
_cell_length_b 13.455327
_cell_length_c 18.307501
_cell_angle_alpha 90.000000
_cell_angle_beta 90.000000
_cell_angle_gamma 90.000000
_cell_volume 2582.035299
_symmetry_space_group_name_H-M "C M C M"
_symmetry_group_IT_number 63
_symmetry_cell_setting 'orthorhombic'
loop_
_space_group_symop_operation_xyz
x,y,z
-x,-y,1/2+z
x,-y,-z
-x,y,1/2-z
-x,-y,-z
x,y,1/2-z
-x,y,z
x,-y,1/2+z
1/2+x,1/2+y,z
1/2-x,1/2-y,1/2+z
1/2+x,1/2-y,-z
1/2-x,1/2+y,1/2-z
1/2-x,1/2-y,-z
1/2+x,1/2+y,1/2-z
1/2-x,1/2+y,z
1/2+x,1/2-y,1/2+z
loop_
_atom_site_type_symbol
_atom_site_label
_atom_site_fract_x
_atom_site_fract_y
_atom_site_fract_z
Si Si1 0.755111 0.480862 0.250000
Si Si2 0.259916 0.855134 0.628887
Si Si3 0.500000 0.156078 0.750000
Si Si4 0.642922 0.718636 0.750000
Si Si5 0.000000 0.769981 0.599992
Si Si6 0.500000 0.111727 0.473630
O O1 0.749240 0.546498 0.322363
O O2 0.639833 0.401349 0.250000
O O3 0.881088 0.415966 0.250000
O O4 0.286243 0.758397 0.678179
O O5 0.125711 0.837952 0.587515
O O6 0.372786 0.867438 0.571631
O O7 0.500000 0.229112 0.681715
O O8 0.500000 0.761181 0.750000
O O9 0.000000 0.680324 0.544003
O O10 0.500000 0.000000 0.500000
#
# Coordination Sequence:
#
# PCOD8261095 Si02
#       6
#     8  16   4   8   8   8
#     4  11  22  37  68  99 128 163 220 264 332 382
#     4  11  24  43  65  98 132 172 217 273 327 389
#     4  12  20  40  70  96 122 170 224 272 314 394
#     4  11  22  39  69  95 133 168 213 273 320 388
#     4  12  24  44  64  97 129 173 215 280 335 377
#     4  12  26  45  67  90 133 182 227 265 325 400
#
# _framework density 20.139151999999999
#
# number of rings (size 3 to 8) (size 9 to 14) (size 15 to 20)
#    0.000    0.615    4.615    4.615    4.308    0.000 
#    0.000    0.769    0.000    0.000    0.000    0.000 
#    0.000    0.000    0.000    0.000    0.000    0.000 
#
# Total GULP energy -322492.312820 kJ/mol
# GULP energy per Si atom -12403.550493 kJ/mol
# Density = 2.009331 g / cm^3
# Si number density = 20.139152 Si / 1000 Ang^3
#
#
#
# Elastic Constant Matrix: (Units=GPa)
#
#
# Indices 1 2 3 4 5 6 
#
# 1 177.9254 44.2592 49.0772 0.0000 0.0000 0.0000
# 2 44.2592 109.9582 45.3572 0.0000 0.0000 0.0000
# 3 49.0772 45.3572 115.8580 0.0000 0.0000 0.0000
# 4 0.0000 0.0000 0.0000 14.1022 0.0000 0.0000
# 5 0.0000 0.0000 0.0000 0.0000 15.0355 0.0000
# 6 0.0000 0.0000 0.0000 0.0000 0.0000 36.7691
#
#
#
# Elastic Compliance Matrix: (Units=1/GPa)
#
#
# Indices 1 2 3 4 5 6 
#
# 1 0.006652 -0.001807 -0.002110 0.000000 0.000000 0.000000
# 2 -0.001807 0.011337 -0.003673 0.000000 0.000000 0.000000
# 3 -0.002110 -0.003673 0.010963 0.000000 0.000000 0.000000
# 4 0.000000 0.000000 0.000000 0.070911 0.000000 0.000000
# 5 0.000000 0.000000 0.000000 0.000000 0.066509 0.000000
# 6 0.000000 0.000000 0.000000 0.000000 0.000000 0.027197
#
#
# Mechanical properties :
#
#
# Convention : Reuss Voigt Hill
#
# Bulk Modulus (GPa) = 72.61363 75.68096 74.14729
# Shear Modulus (GPa) = 23.43686 30.85123 27.14404
#
# Velocity S-wave (km/s) = 3.41507 3.91820 3.67526
# Velocity P-wave (km/s) = 7.18919 7.62432 7.40995
#
# Compressibility (1/GPa) = 0.01377152
#
# Stress axis : x y z
#
# Youngs Moduli (GPa) = 150.33286 88.20928 91.21564
#
# Poissons Ratio (x) = 0.15939 0.19249
# Poissons Ratio (y) = 0.27164 0.33501
# Poissons Ratio (z) = 0.31725 0.32397
#
# Static dielectric constant tensor:
#      x y z
#    x 3.924450 0.000000 0.000000 
#    y 0.000000 3.790010 0.000000 
#    z 0.000000 0.000000 3.640230 
# 
# 
# High freq. dielectric constant tensor:
#      x y z
#    x 1.809910 0.000000 0.000000 
#    y 0.000000 1.793900 0.000000 
#    z 0.000000 0.000000 1.778880 
# 
# From -- ./inp_files/28803.got.cif
#   From: 2010.03.12/outbox.cif.g09.slc.cpg/sg63_15_cif.got.tgz:28803.got - 2010.04.10 19:34:48.
