data_PCOD8261437
_publ_section_title
;
Structure prediction by ZEFSAII (Michael W. Deem and Ramdas Pophale) SiO2 
 PCOD8261437
Probable space group: C M C A
;
_chemical_formula_sum "Si O2"
_cell_formula_units_Z 104
_cell_length_a 8.872422
_cell_length_b 28.812377
_cell_length_c 20.514688
_cell_angle_alpha 90.000000
_cell_angle_beta 90.000000
_cell_angle_gamma 90.000000
_cell_volume 5244.283910
_symmetry_space_group_name_H-M "C M C A"
_symmetry_group_IT_number 64
_symmetry_cell_setting 'orthorhombic'
loop_
_space_group_symop_operation_xyz
x,y,z
-x,1/2-y,1/2+z
x,-y,-z
-x,1/2+y,1/2-z
-x,-y,-z
x,1/2+y,1/2-z
-x,y,z
x,1/2-y,1/2+z
1/2+x,1/2+y,z
1/2-x,-y,1/2+z
1/2+x,1/2-y,-z
1/2-x,y,1/2-z
1/2-x,1/2-y,-z
1/2+x,y,1/2-z
1/2-x,1/2+y,z
1/2+x,-y,1/2+z
loop_
_atom_site_type_symbol
_atom_site_label
_atom_site_fract_x
_atom_site_fract_y
_atom_site_fract_z
Si Si1 0.676332 0.286654 0.816330
Si Si2 0.676135 0.449627 0.680344
Si Si3 0.250000 0.618578 0.750000
Si Si4 0.335378 0.685755 0.648614
Si Si5 0.825031 0.128227 0.096013
Si Si6 0.176183 0.381749 0.446673
Si Si7 0.320749 0.447004 0.356609
O O1 0.500000 0.283902 0.803927
O O2 0.750000 0.305022 0.750000
O O3 0.737693 0.235554 0.834643
O O4 0.718905 0.322182 0.873592
O O5 0.500000 0.445181 0.690746
O O6 0.750000 0.441363 0.750000
O O7 0.729245 0.411886 0.629106
O O8 0.720675 0.499419 0.650428
O O9 0.363624 0.654316 0.714052
O O10 0.208842 0.582354 0.692009
O O11 0.500000 0.692250 0.616063
O O12 0.222168 0.661680 0.598302
O O13 0.000000 0.116883 0.107308
O O14 0.782646 0.130816 0.020412
O O15 0.273488 0.427812 0.427723
O O16 0.000000 0.392009 0.438216
O O17 0.500000 0.438043 0.342970
#
# Coordination Sequence:
#
# PCOD8261437 Si02
#       7
#    16  16   8  16  16  16  16
#     4  10  21  39  60  85 117 152 192 241 290 342
#     4  11  23  40  62  89 117 151 194 241 293 344
#     4  10  16  32  56  82 112 146 178 232 282 340
#     4  10  21  36  57  86 118 151 189 238 291 346
#     4  10  23  42  60  82 118 159 200 241 286 339
#     4  10  22  38  58  86 118 156 196 240 288 343
#     4  10  22  38  58  86 118 152 190 236 293 351
#
# _framework density 19.831116999999999
#
# number of rings (size 3 to 8) (size 9 to 14) (size 15 to 20)
#    0.000    1.846    1.538    2.769    0.000   11.077 
#    0.000    3.077    0.000    0.000    0.000    0.000 
#    0.000    0.000    0.000    0.000    0.000    0.000 
#
# Total GULP energy -644280.089525 kJ/mol
# GULP energy per Si atom -12390.001722 kJ/mol
# Density = 1.978598 g / cm^3
# Si number density = 19.831117 Si / 1000 Ang^3
#
#
#
# Elastic Constant Matrix: (Units=GPa)
#
#
# Indices 1 2 3 4 5 6 
#
# 1 55.3012 43.9528 52.3337 0.0000 0.0000 0.0000
# 2 43.9528 147.1770 64.0681 0.0000 0.0000 0.0000
# 3 52.3337 64.0681 126.0942 0.0000 0.0000 0.0000
# 4 0.0000 0.0000 0.0000 0.2557 0.0000 0.0000
# 5 0.0000 0.0000 0.0000 0.0000 29.0233 0.0000
# 6 0.0000 0.0000 0.0000 0.0000 0.0000 30.1175
#
#
#
# Elastic Compliance Matrix: (Units=1/GPa)
#
#
# Indices 1 2 3 4 5 6 
#
# 1 0.032309 -0.004894 -0.010923 0.000000 0.000000 0.000000
# 2 -0.004894 0.009465 -0.002778 0.000000 0.000000 0.000000
# 3 -0.010923 -0.002778 0.013876 0.000000 0.000000 0.000000
# 4 0.000000 0.000000 0.000000 3.911095 0.000000 0.000000
# 5 0.000000 0.000000 0.000000 0.000000 0.034455 0.000000
# 6 0.000000 0.000000 0.000000 0.000000 0.000000 0.033203
#
#
# Mechanical properties :
#
#
# Convention : Reuss Voigt Hill
#
# Bulk Modulus (GPa) = 54.17069 72.14240 63.15654
# Shear Modulus (GPa) = 1.22617 23.09382 12.15999
#
# Velocity S-wave (km/s) = 0.78718 3.41621 2.47893
# Velocity P-wave (km/s) = 5.31051 7.21235 6.33323
#
# Compressibility (1/GPa) = 0.01846017
#
# Stress axis : x y z
#
# Youngs Moduli (GPa) = 30.95088 105.64744 72.06896
#
# Poissons Ratio (x) = 0.51703 0.78721
# Poissons Ratio (y) = 0.15147 0.20022
# Poissons Ratio (z) = 0.33807 0.29351
#
# Static dielectric constant tensor:
#      x y z
#    x 3.457980 0.000000 0.000000 
#    y 0.000000 3.846830 0.000000 
#    z 0.000000 0.000000 3.660900 
# 
# 
# High freq. dielectric constant tensor:
#      x y z
#    x 1.759890 0.000000 0.000000 
#    y 0.000000 1.787190 0.000000 
#    z 0.000000 0.000000 1.769550 
# 
# From -- ./inp_files/37403.got.cif
#   From: 2010.03.12/outbox.cif.g09.slc.cpg/sg64_19_cif.got.tgz:37403.got - 2010.04.10 20:19:32.
