data_PCOD8261184
_publ_section_title
;
Structure prediction by ZEFSAII (Michael W. Deem and Ramdas Pophale) SiO2 
 PCOD8261184
Probable space group: C M C M
;
_chemical_formula_sum "Si O2"
_cell_formula_units_Z 80
_cell_length_a 11.598140
_cell_length_b 21.717820
_cell_length_c 15.468873
_cell_angle_alpha 90.000000
_cell_angle_beta 90.000000
_cell_angle_gamma 90.000000
_cell_volume 3896.397446
_symmetry_space_group_name_H-M "C M C M"
_symmetry_group_IT_number 63
_symmetry_cell_setting 'orthorhombic'
loop_
_space_group_symop_operation_xyz
x,y,z
-x,-y,1/2+z
x,-y,-z
-x,y,1/2-z
-x,-y,-z
x,y,1/2-z
-x,y,z
x,-y,1/2+z
1/2+x,1/2+y,z
1/2-x,1/2-y,1/2+z
1/2+x,1/2-y,-z
1/2-x,1/2+y,1/2-z
1/2-x,1/2-y,-z
1/2+x,1/2+y,1/2-z
1/2-x,1/2+y,z
1/2+x,1/2-y,1/2+z
loop_
_atom_site_type_symbol
_atom_site_label
_atom_site_fract_x
_atom_site_fract_y
_atom_site_fract_z
Si Si1 0.753180 0.864924 0.093390
Si Si2 0.500000 0.391253 0.346560
Si Si3 0.132672 0.567023 0.750000
Si Si4 0.000000 0.024476 0.403638
Si Si5 0.867025 0.754726 0.849915
Si Si6 0.868073 0.578189 0.250000
Si Si7 0.711319 0.614135 0.403716
O O1 0.890501 0.864561 0.103782
O O2 0.693274 0.907740 0.164376
O O3 0.708023 0.795665 0.100139
O O4 0.730194 0.892670 0.998134
O O5 0.500000 0.365182 0.250000
O O6 0.500000 0.465502 0.341507
O O7 0.145933 0.494636 0.750000
O O8 0.000000 0.588632 0.750000
O O9 0.114132 0.063445 0.384924
O O10 0.000000 0.000000 0.500000
O O11 0.828527 0.757608 0.750000
O O12 0.847048 0.819438 0.895905
O O13 0.000000 0.735915 0.857632
O O14 0.812304 0.606767 0.335083
O O15 0.000000 0.598629 0.250000
#
# Coordination Sequence:
#
# PCOD8261184 Si02
#       7
#    16   8   8   8  16   8  16
#     4  12  24  43  68 101 135 180 224 279 345 409
#     4  12  24  40  66 107 145 178 221 280 353 410
#     4  11  24  44  69  97 128 175 233 277 330 407
#     4  12  24  42  72 108 142 175 231 287 340 418
#     4  11  23  44  69  98 131 178 235 281 336 406
#     4  11  28  46  65  99 138 181 233 281 346 417
#     4  12  25  45  69 101 140 180 228 288 345 408
#
# _framework density 20.531786
#
# number of rings (size 3 to 8) (size 9 to 14) (size 15 to 20)
#    0.000    0.400    6.000    2.400    1.400    1.600 
#    1.800    2.000    0.000    0.000    0.000    0.000 
#    0.000    0.000    0.000    0.000    0.000    0.000 
#
# Total GULP energy -496277.593249 kJ/mol
# GULP energy per Si atom -12406.939831 kJ/mol
# Density = 2.048505 g / cm^3
# Si number density = 20.531786 Si / 1000 Ang^3
#
#
#
# Elastic Constant Matrix: (Units=GPa)
#
#
# Indices 1 2 3 4 5 6 
#
# 1 144.0809 51.2678 61.9917 0.0000 0.0000 0.0000
# 2 51.2678 93.6838 14.7577 0.0000 0.0000 0.0000
# 3 61.9917 14.7577 152.4410 0.0000 0.0000 0.0000
# 4 0.0000 0.0000 0.0000 31.4127 0.0000 0.0000
# 5 0.0000 0.0000 0.0000 0.0000 -43.1043 0.0000
# 6 0.0000 0.0000 0.0000 0.0000 0.0000 40.6906
#
#
#
# Elastic Compliance Matrix: (Units=1/GPa)
#
#
# Indices 1 2 3 4 5 6 
#
# 1 0.010345 -0.005076 -0.003716 0.000000 0.000000 0.000000
# 2 -0.005076 0.013330 0.000774 0.000000 0.000000 0.000000
# 3 -0.003716 0.000774 0.007996 0.000000 0.000000 0.000000
# 4 0.000000 0.000000 0.000000 0.031834 0.000000 0.000000
# 5 0.000000 0.000000 0.000000 0.000000 -0.023200 0.000000
# 6 0.000000 0.000000 0.000000 0.000000 0.000000 0.024576
#
#
# Mechanical properties :
#
#
# Convention : Reuss Voigt Hill
#
# Bulk Modulus (GPa) = 63.95662 71.80446 67.88054
# Shear Modulus (GPa) = 58.05178 23.27906 40.66542
#
# Velocity S-wave (km/s) = 5.32311 3.37086 4.45523
# Velocity P-wave (km/s) = 8.30652 7.08509 7.72000
#
# Compressibility (1/GPa) = 0.01563560
#
# Stress axis : x y z
#
# Youngs Moduli (GPa) = 96.66070 75.01765 125.06220
#
# Poissons Ratio (x) = 0.38080 0.46469
# Poissons Ratio (y) = 0.49067 -0.09677
# Poissons Ratio (z) = 0.35916 -0.05805
#
# Static dielectric constant tensor:
#      x y z
#    x 3.856530 0.000000 0.000000 
#    y 0.000000 3.847310 0.000000 
#    z 0.000000 0.000000 3.973940 
# 
# 
# High freq. dielectric constant tensor:
#      x y z
#    x 1.806980 0.000000 0.000000 
#    y 0.000000 1.809560 0.000000 
#    z 0.000000 0.000000 1.816190 
# 
# From -- ./inp_files/29804.got.cif
#   From: 2010.03.12/outbox.cif.g09.slc.cpg/sg63_15_cif.got.tgz:29804.got - 2010.04.10 19:34:48.
