data_PCOD8261285
_publ_section_title
;
Structure prediction by ZEFSAII (Michael W. Deem and Ramdas Pophale) SiO2 
 PCOD8261285
Probable space group: C M C M
;
_chemical_formula_sum "Si O2"
_cell_formula_units_Z 80
_cell_length_a 29.085013
_cell_length_b 22.606658
_cell_length_c 9.831078
_cell_angle_alpha 90.000000
_cell_angle_beta 90.000000
_cell_angle_gamma 90.000000
_cell_volume 6464.080679
_symmetry_space_group_name_H-M "C M C M"
_symmetry_group_IT_number 63
_symmetry_cell_setting 'orthorhombic'
loop_
_space_group_symop_operation_xyz
x,y,z
-x,-y,1/2+z
x,-y,-z
-x,y,1/2-z
-x,-y,-z
x,y,1/2-z
-x,y,z
x,-y,1/2+z
1/2+x,1/2+y,z
1/2-x,1/2-y,1/2+z
1/2+x,1/2-y,-z
1/2-x,1/2+y,1/2-z
1/2-x,1/2-y,-z
1/2+x,1/2+y,1/2-z
1/2-x,1/2+y,z
1/2+x,1/2-y,1/2+z
loop_
_atom_site_type_symbol
_atom_site_label
_atom_site_fract_x
_atom_site_fract_y
_atom_site_fract_z
Si Si1 0.724261 0.056292 0.090106
Si Si2 0.637822 0.870904 0.589926
Si Si3 0.183372 0.743301 0.401653
Si Si4 0.222585 0.171474 0.399549
Si Si5 0.051938 0.555879 0.092853
O O1 0.722425 0.039653 0.250000
O O2 0.675155 0.081563 0.036969
O O3 0.763799 0.104700 0.060652
O O4 0.737005 0.000000 0.000000
O O5 0.645710 0.866232 0.750000
O O6 0.647067 0.804359 0.534274
O O7 0.586491 0.891544 0.550544
O O8 0.168894 0.763687 0.250000
O O9 0.185510 0.801749 0.495190
O O10 0.232167 0.711264 0.397073
O O11 0.199841 0.172206 0.250000
O O12 0.059531 0.537447 0.250000
O O13 0.000000 0.578559 0.068239
O O14 0.063169 0.500000 0.000000
#
# Coordination Sequence:
#
# PCOD8261285 Si02
#       5
#    16  16  16  16  16
#     4   9  16  24  33  45  63  85 106 131 160 187
#     4   8  14  24  35  47  63  81 104 135 166 190
#     4   8  13  22  35  46  57  77 102 127 156 189
#     4   8  14  23  32  44  62  79  97 126 160 186
#     4   9  16  25  36  48  63  84 108 134 164 195
#
# _framework density 12.376082
#
# number of rings (size 3 to 8) (size 9 to 14) (size 15 to 20)
#    0.000    3.600    0.000    3.000    0.000    0.800 
#    0.000    4.000    0.000    0.000    0.000    0.000 
#    0.000    0.000    0.000    0.000    0.000    1.000 
#
# Total GULP energy -495634.559436 kJ/mol
# GULP energy per Si atom -12390.863986 kJ/mol
# Density = 1.234791 g / cm^3
# Si number density = 12.376082 Si / 1000 Ang^3
#
#
#
# Elastic Constant Matrix: (Units=GPa)
#
#
# Indices 1 2 3 4 5 6 
#
# 1 51.9165 42.7257 29.4666 0.0000 0.0000 0.0000
# 2 42.7257 84.7563 47.8586 0.0000 0.0000 0.0000
# 3 29.4666 47.8586 54.4142 0.0000 0.0000 0.0000
# 4 0.0000 0.0000 0.0000 21.9677 0.0000 0.0000
# 5 0.0000 0.0000 0.0000 0.0000 10.3237 0.0000
# 6 0.0000 0.0000 0.0000 0.0000 0.0000 19.3173
#
#
#
# Elastic Compliance Matrix: (Units=1/GPa)
#
#
# Indices 1 2 3 4 5 6 
#
# 1 0.034087 -0.013430 -0.006647 0.000000 0.000000 0.000000
# 2 -0.013430 0.028731 -0.017997 0.000000 0.000000 0.000000
# 3 -0.006647 -0.017997 0.037805 0.000000 0.000000 0.000000
# 4 0.000000 0.000000 0.000000 0.045521 0.000000 0.000000
# 5 0.000000 0.000000 0.000000 0.000000 0.096864 0.000000
# 6 0.000000 0.000000 0.000000 0.000000 0.000000 0.051767
#
#
# Mechanical properties :
#
#
# Convention : Reuss Voigt Hill
#
# Bulk Modulus (GPa) = 40.85637 47.90986 44.38312
# Shear Modulus (GPa) = 13.18979 15.05748 14.12364
#
# Velocity S-wave (km/s) = 3.26812 3.49185 3.38184
# Velocity P-wave (km/s) = 6.87931 7.41977 7.15465
#
# Compressibility (1/GPa) = 0.02447599
#
# Stress axis : x y z
#
# Youngs Moduli (GPa) = 29.33688 34.80613 26.45119
#
# Poissons Ratio (x) = 0.46744 0.17582
# Poissons Ratio (y) = 0.39399 0.47603
# Poissons Ratio (z) = 0.19500 0.62639
#
# Static dielectric constant tensor:
#      x y z
#    x 2.368740 0.000000 0.000000 
#    y 0.000000 2.553490 0.000000 
#    z 0.000000 0.000000 2.608270 
# 
# 
# High freq. dielectric constant tensor:
#      x y z
#    x 1.428150 0.000000 0.000000 
#    y 0.000000 1.455410 0.000000 
#    z 0.000000 0.000000 1.463890 
# 
# From -- ./inp_files/14550.got.cif
#   From: 2010.03.12/outbox.cif.g09.slc.cpg/sg63_8_cif.got.tgz:14550.got - 2010.04.10 19:34:48.
