data_PCOD8261738
_publ_section_title
;
Structure prediction by ZEFSAII (Michael W. Deem and Ramdas Pophale) SiO2 
 PCOD8261738
Probable space group: C M C A
;
_chemical_formula_sum "Si O2"
_cell_formula_units_Z 112
_cell_length_a 18.170871
_cell_length_b 18.955038
_cell_length_c 18.039214
_cell_angle_alpha 90.000000
_cell_angle_beta 90.000000
_cell_angle_gamma 90.000000
_cell_volume 6213.238366
_symmetry_space_group_name_H-M "C M C A"
_symmetry_group_IT_number 64
_symmetry_cell_setting 'orthorhombic'
loop_
_space_group_symop_operation_xyz
x,y,z
-x,1/2-y,1/2+z
x,-y,-z
-x,1/2+y,1/2-z
-x,-y,-z
x,1/2+y,1/2-z
-x,y,z
x,1/2-y,1/2+z
1/2+x,1/2+y,z
1/2-x,-y,1/2+z
1/2+x,1/2-y,-z
1/2-x,y,1/2-z
1/2-x,1/2-y,-z
1/2+x,y,1/2-z
1/2-x,1/2+y,z
1/2+x,-y,1/2+z
loop_
_atom_site_type_symbol
_atom_site_label
_atom_site_fract_x
_atom_site_fract_y
_atom_site_fract_z
Si Si1 0.350245 0.193940 0.611164
Si Si2 0.324353 0.072657 0.971137
Si Si3 0.084091 0.716095 0.766004
Si Si4 0.287117 0.626335 0.676299
Si Si5 0.162352 0.918346 0.990118
Si Si6 0.583828 0.206703 0.000159
Si Si7 0.082243 0.675030 0.379206
O O1 0.406607 0.206444 0.678279
O O2 0.267205 0.186800 0.642439
O O3 0.370496 0.125219 0.560646
O O4 0.359487 0.262929 0.560908
O O5 0.300247 0.065558 0.884514
O O6 0.250193 0.090606 0.016409
O O7 0.387686 0.129607 0.980462
O O8 0.358655 0.000000 0.000000
O O9 0.134761 0.659618 0.806575
O O10 0.103528 0.795894 0.796418
O O11 0.000000 0.699030 0.787333
O O12 0.250000 0.593049 0.750000
O O13 0.132735 0.887332 0.911951
O O14 0.139053 0.000000 0.000000
O O15 0.500000 0.202660 0.030390
O O16 0.587701 0.254404 0.927827
O O17 0.000000 0.643858 0.379489
#
# Coordination Sequence:
#
# PCOD8261738 Si02
#       7
#    16  16  16  16  16  16  16
#     4   9  19  32  54  78 105 138 174 219 268 315
#     4  10  20  33  53  75 103 141 175 215 267 312
#     4  10  18  31  51  76 105 134 173 219 264 314
#     4   9  18  32  53  78 101 131 177 220 261 311
#     4   9  19  34  53  78 106 135 173 218 266 321
#     4  10  19  32  51  77 105 134 175 219 262 312
#     4   9  18  30  51  77 100 132 169 215 263 307
#
# _framework density 18.026026999999999
#
# number of rings (size 3 to 8) (size 9 to 14) (size 15 to 20)
#    0.000    2.571    1.429    0.429    2.000    2.857 
#    0.000    0.000   12.571    0.000    0.000    0.000 
#    0.000    0.000    0.000    0.000    0.000    0.000 
#
# Total GULP energy -693921.348879 kJ/mol
# GULP energy per Si atom -12391.452659 kJ/mol
# Density = 1.798500 g / cm^3
# Si number density = 18.026027 Si / 1000 Ang^3
#
#
#
# Elastic Constant Matrix: (Units=GPa)
#
#
# Indices 1 2 3 4 5 6 
#
# 1 59.4676 28.8781 26.9952 0.0000 0.0000 0.0000
# 2 28.8781 95.4141 35.7951 0.0000 0.0000 0.0000
# 3 26.9952 35.7951 84.4785 0.0000 0.0000 0.0000
# 4 0.0000 0.0000 0.0000 24.2554 0.0000 0.0000
# 5 0.0000 0.0000 0.0000 0.0000 24.3285 0.0000
# 6 0.0000 0.0000 0.0000 0.0000 0.0000 20.8275
#
#
#
# Elastic Compliance Matrix: (Units=1/GPa)
#
#
# Indices 1 2 3 4 5 6 
#
# 1 0.021253 -0.004619 -0.004834 0.000000 0.000000 0.000000
# 2 -0.004619 0.013465 -0.004230 0.000000 0.000000 0.000000
# 3 -0.004834 -0.004230 0.015174 0.000000 0.000000 0.000000
# 4 0.000000 0.000000 0.000000 0.041228 0.000000 0.000000
# 5 0.000000 0.000000 0.000000 0.000000 0.041104 0.000000
# 6 0.000000 0.000000 0.000000 0.000000 0.000000 0.048013
#
#
# Mechanical properties :
#
#
# Convention : Reuss Voigt Hill
#
# Bulk Modulus (GPa) = 44.39055 46.96634 45.67844
# Shear Modulus (GPa) = 23.24354 23.72839 23.48596
#
# Velocity S-wave (km/s) = 3.59478 3.63208 3.61348
# Velocity P-wave (km/s) = 6.47373 6.61064 6.54254
#
# Compressibility (1/GPa) = 0.02252732
#
# Stress axis : x y z
#
# Youngs Moduli (GPa) = 47.05112 74.26482 65.90085
#
# Poissons Ratio (x) = 0.34302 0.31859
# Poissons Ratio (y) = 0.21733 0.27873
# Poissons Ratio (z) = 0.22747 0.31411
#
# Static dielectric constant tensor:
#      x y z
#    x 3.312210 0.000000 0.000000 
#    y 0.000000 3.082410 0.000000 
#    z 0.000000 0.000000 3.623970 
# 
# 
# High freq. dielectric constant tensor:
#      x y z
#    x 1.700030 0.000000 0.000000 
#    y 0.000000 1.661440 0.000000 
#    z 0.000000 0.000000 1.701360 
# 
# From -- ./inp_files/34519.got.cif
#   From: 2010.03.12/outbox.cif.g09.slc.cpg/sg64_18_cif.got.tgz:34519.got - 2010.04.10 20:19:32.
