data_PCOD8261796
_publ_section_title
;
Structure prediction by ZEFSAII (Michael W. Deem and Ramdas Pophale) SiO2 
 PCOD8261796
Probable space group: C M C A
;
_chemical_formula_sum "Si O2"
_cell_formula_units_Z 104
_cell_length_a 9.484950
_cell_length_b 27.209879
_cell_length_c 20.229283
_cell_angle_alpha 90.000000
_cell_angle_beta 90.000000
_cell_angle_gamma 90.000000
_cell_volume 5220.861189
_symmetry_space_group_name_H-M "C M C A"
_symmetry_group_IT_number 64
_symmetry_cell_setting 'orthorhombic'
loop_
_space_group_symop_operation_xyz
x,y,z
-x,1/2-y,1/2+z
x,-y,-z
-x,1/2+y,1/2-z
-x,-y,-z
x,1/2+y,1/2-z
-x,y,z
x,1/2-y,1/2+z
1/2+x,1/2+y,z
1/2-x,-y,1/2+z
1/2+x,1/2-y,-z
1/2-x,y,1/2-z
1/2-x,1/2-y,-z
1/2+x,y,1/2-z
1/2-x,1/2+y,z
1/2+x,-y,1/2+z
loop_
_atom_site_type_symbol
_atom_site_label
_atom_site_fract_x
_atom_site_fract_y
_atom_site_fract_z
Si Si1 0.250000 0.655062 0.750000
Si Si2 0.342277 0.193453 0.955375
Si Si3 0.650081 0.596992 0.629469
Si Si4 0.336307 0.643313 0.057880
Si Si5 0.835420 0.844623 0.686995
Si Si6 0.659784 0.548428 0.966416
Si Si7 0.153712 0.765310 0.152355
O O1 0.334482 0.618330 0.702831
O O2 0.153012 0.690305 0.705318
O O3 0.500000 0.211448 0.975494
O O4 0.351500 0.140814 0.922447
O O5 0.274251 0.231058 0.903068
O O6 0.239807 0.188606 0.019040
O O7 0.500000 0.569435 0.627376
O O8 0.767178 0.558748 0.604498
O O9 0.500000 0.657140 0.072486
O O10 0.246616 0.634045 0.123826
O O11 0.327580 0.593557 0.016406
O O12 0.750000 0.865444 0.750000
O O13 0.825613 0.785707 0.689877
O O14 0.000000 0.861712 0.687217
O O15 0.500000 0.537211 0.947176
O O16 0.727667 0.500000 0.000000
O O17 0.000000 0.767454 0.117684
#
# Coordination Sequence:
#
# PCOD8261796 Si02
#       7
#     8  16  16  16  16  16  16
#     4  10  18  32  52  78 112 148 184 224 266 320
#     4   9  18  32  51  77 108 141 180 226 272 319
#     4   9  18  30  50  81 112 142 177 219 269 322
#     4  10  20  36  58  81 107 139 178 225 277 326
#     4  11  23  38  55  77 107 146 191 229 268 316
#     4   9  19  37  61  85 108 137 174 219 275 336
#     4  10  20  33  51  75 106 147 189 227 266 314
#
# _framework density 19.920086000000001
#
# number of rings (size 3 to 8) (size 9 to 14) (size 15 to 20)
#    0.000    2.308    0.769    1.846    0.000    7.692 
#    0.000    0.000    1.692    0.000    0.000    0.000 
#    0.000    0.000    0.000    0.000    0.000    0.000 
#
# Total GULP energy -644471.903724 kJ/mol
# GULP energy per Si atom -12393.690456 kJ/mol
# Density = 1.987475 g / cm^3
# Si number density = 19.920086 Si / 1000 Ang^3
#
#
#
# Elastic Constant Matrix: (Units=GPa)
#
#
# Indices 1 2 3 4 5 6 
#
# 1 156.8323 19.8561 50.5794 0.0000 0.0000 0.0000
# 2 19.8561 32.9733 8.9281 0.0000 0.0000 0.0000
# 3 50.5794 8.9281 95.9675 0.0000 0.0000 0.0000
# 4 0.0000 0.0000 0.0000 22.8825 0.0000 0.0000
# 5 0.0000 0.0000 0.0000 0.0000 26.7609 0.0000
# 6 0.0000 0.0000 0.0000 0.0000 0.0000 13.0683
#
#
#
# Elastic Compliance Matrix: (Units=1/GPa)
#
#
# Indices 1 2 3 4 5 6 
#
# 1 0.008128 -0.003831 -0.003927 0.000000 0.000000 0.000000
# 2 -0.003831 0.032917 -0.001043 0.000000 0.000000 0.000000
# 3 -0.003927 -0.001043 0.012587 0.000000 0.000000 0.000000
# 4 0.000000 0.000000 0.000000 0.043701 0.000000 0.000000
# 5 0.000000 0.000000 0.000000 0.000000 0.037368 0.000000
# 6 0.000000 0.000000 0.000000 0.000000 0.000000 0.076521
#
#
# Mechanical properties :
#
#
# Convention : Reuss Voigt Hill
#
# Bulk Modulus (GPa) = 27.75554 49.38891 38.57223
# Shear Modulus (GPa) = 20.76107 26.30299 23.53203
#
# Velocity S-wave (km/s) = 3.23184 3.63771 3.44076
# Velocity P-wave (km/s) = 5.28111 6.51853 5.93217
#
# Compressibility (1/GPa) = 0.03602884
#
# Stress axis : x y z
#
# Youngs Moduli (GPa) = 123.03329 30.37936 79.44610
#
# Poissons Ratio (x) = 0.11639 0.31201
# Poissons Ratio (y) = 0.47135 0.08288
# Poissons Ratio (z) = 0.48320 0.03169
#
# Static dielectric constant tensor:
#      x y z
#    x 3.984360 0.000000 0.000000 
#    y 0.000000 3.269350 0.000000 
#    z 0.000000 0.000000 3.645800 
# 
# 
# High freq. dielectric constant tensor:
#      x y z
#    x 1.789980 0.000000 0.000000 
#    y 0.000000 1.736900 0.000000 
#    z 0.000000 0.000000 1.775260 
# 
# From -- ./inp_files/37409.got.cif
#   From: 2010.03.12/outbox.cif.g09.slc.cpg/sg64_19_cif.got.tgz:37409.got - 2010.04.10 20:19:32.
