data_PCOD8261128
_publ_section_title
;
Structure prediction by ZEFSAII (Michael W. Deem and Ramdas Pophale) SiO2 
 PCOD8261128
Probable space group: C M C M
;
_chemical_formula_sum "Si O2"
_cell_formula_units_Z 48
_cell_length_a 14.653161
_cell_length_b 8.951258
_cell_length_c 15.079277
_cell_angle_alpha 90.000000
_cell_angle_beta 90.000000
_cell_angle_gamma 90.000000
_cell_volume 1977.861676
_symmetry_space_group_name_H-M "C M C M"
_symmetry_group_IT_number 63
_symmetry_cell_setting 'orthorhombic'
loop_
_space_group_symop_operation_xyz
x,y,z
-x,-y,1/2+z
x,-y,-z
-x,y,1/2-z
-x,-y,-z
x,y,1/2-z
-x,y,z
x,-y,1/2+z
1/2+x,1/2+y,z
1/2-x,1/2-y,1/2+z
1/2+x,1/2-y,-z
1/2-x,1/2+y,1/2-z
1/2-x,1/2-y,-z
1/2+x,1/2+y,1/2-z
1/2-x,1/2+y,z
1/2+x,1/2-y,1/2+z
loop_
_atom_site_type_symbol
_atom_site_label
_atom_site_fract_x
_atom_site_fract_y
_atom_site_fract_z
Si Si1 0.835546 0.398972 0.652582
Si Si2 0.500000 0.293867 0.144421
Si Si3 0.000000 0.138291 0.142194
Si Si4 0.313348 0.779133 0.085641
O O1 0.867536 0.451457 0.750000
O O2 0.911814 0.293429 0.606633
O O3 0.743408 0.301660 0.663824
O O4 0.819739 0.543440 0.593329
O O5 0.500000 0.289132 0.250000
O O6 0.500000 0.464929 0.114736
O O7 0.914278 0.210810 0.091618
O O8 0.000000 0.164189 0.250000
O O9 0.250000 0.750000 0.000000
#
# Coordination Sequence:
#
# PCOD8261128 Si02
#       4
#    16   8   8  16
#     4  11  22  42  68  99 138 189 241 289 349 433
#     4   9  21  40  71 106 135 176 246 307 344 407
#     4  11  23  46  75 104 141 196 251 297 355 441
#     4  12  26  43  68 104 143 183 233 299 363 418
#
# _framework density 24.268633000000001
#
# number of rings (size 3 to 8) (size 9 to 14) (size 15 to 20)
#    0.000    1.000    0.000    7.000    0.000    5.333 
#    0.000    8.333    0.000    0.000    0.000    0.000 
#    0.000    0.000    0.000    0.000    0.000    0.000 
#
# Total GULP energy -297451.644793 kJ/mol
# GULP energy per Si atom -12393.818533 kJ/mol
# Density = 2.421340 g / cm^3
# Si number density = 24.268633 Si / 1000 Ang^3
#
#
#
# Elastic Constant Matrix: (Units=GPa)
#
#
# Indices 1 2 3 4 5 6 
#
# 1 226.7831 92.0449 40.8803 0.0000 0.0000 0.0000
# 2 92.0449 187.1846 44.9312 0.0000 0.0000 0.0000
# 3 40.8803 44.9312 102.2252 0.0000 0.0000 0.0000
# 4 0.0000 0.0000 0.0000 36.4991 0.0000 0.0000
# 5 0.0000 0.0000 0.0000 0.0000 32.7207 0.0000
# 6 0.0000 0.0000 0.0000 0.0000 0.0000 48.8351
#
#
#
# Elastic Compliance Matrix: (Units=1/GPa)
#
#
# Indices 1 2 3 4 5 6 
#
# 1 0.005629 -0.002490 -0.001156 0.000000 0.000000 0.000000
# 2 -0.002490 0.007074 -0.002113 0.000000 0.000000 0.000000
# 3 -0.001156 -0.002113 0.011174 0.000000 0.000000 0.000000
# 4 0.000000 0.000000 0.000000 0.027398 0.000000 0.000000
# 5 0.000000 0.000000 0.000000 0.000000 0.030562 0.000000
# 6 0.000000 0.000000 0.000000 0.000000 0.000000 0.020477
#
#
# Mechanical properties :
#
#
# Convention : Reuss Voigt Hill
#
# Bulk Modulus (GPa) = 80.92999 96.87841 88.90420
# Shear Modulus (GPa) = 42.39006 46.16674 44.27840
#
# Velocity S-wave (km/s) = 4.18389 4.36629 4.27606
# Velocity P-wave (km/s) = 7.53392 8.08858 7.81617
#
# Compressibility (1/GPa) = 0.01235636
#
# Stress axis : x y z
#
# Youngs Moduli (GPa) = 177.66190 141.35960 89.49584
#
# Poissons Ratio (x) = 0.35202 0.10349
# Poissons Ratio (y) = 0.44242 0.18915
# Poissons Ratio (z) = 0.20545 0.29876
#
# Static dielectric constant tensor:
#      x y z
#    x 4.843790 0.000000 0.000000 
#    y 0.000000 4.510760 0.000000 
#    z 0.000000 0.000000 4.278460 
# 
# 
# High freq. dielectric constant tensor:
#      x y z
#    x 1.980700 0.000000 0.000000 
#    y 0.000000 1.976890 0.000000 
#    z 0.000000 0.000000 1.965590 
# 
# From -- ./inp_files/43205.got.cif
#   From: 2010.03.12/outbox.cif.g09.slc.cpg/sg63_22_cif.got.tgz:43205.got - 2010.04.10 19:34:48.
