data_PCOD8261375
_publ_section_title
;
Structure prediction by ZEFSAII (Michael W. Deem and Ramdas Pophale) SiO2 
 PCOD8261375
Probable space group: C M C M
;
_chemical_formula_sum "Si O2"
_cell_formula_units_Z 48
_cell_length_a 21.000000
_cell_length_b 9.000000
_cell_length_c 27.000000
_cell_angle_alpha 90.000000
_cell_angle_beta 90.000000
_cell_angle_gamma 90.000000
_cell_volume 5103.000000
_symmetry_space_group_name_H-M "C M C M"
_symmetry_group_IT_number 63
_symmetry_cell_setting 'orthorhombic'
loop_
_space_group_symop_operation_xyz
x,y,z
-x,-y,1/2+z
x,-y,-z
-x,y,1/2-z
-x,-y,-z
x,y,1/2-z
-x,y,z
x,-y,1/2+z
1/2+x,1/2+y,z
1/2-x,1/2-y,1/2+z
1/2+x,1/2-y,-z
1/2-x,1/2+y,1/2-z
1/2-x,1/2-y,-z
1/2+x,1/2+y,1/2-z
1/2-x,1/2+y,z
1/2+x,1/2-y,1/2+z
loop_
_atom_site_type_symbol
_atom_site_label
_atom_site_fract_x
_atom_site_fract_y
_atom_site_fract_z
Si Si1 0.327750 0.166915 0.805832
Si Si2 0.572153 0.130853 0.537364
Si Si3 0.228484 0.042947 0.352066
Si Si4 0.167342 0.252777 0.608115
Si Si5 0.071879 0.521361 0.142730
Si Si6 0.679517 0.678073 0.501952
O O1 0.331158 0.213502 0.750000
O O2 0.315648 0.325692 0.831569
O O3 0.272568 0.043179 0.812610
O O4 0.394850 0.094261 0.820356
O O5 0.500000 0.193731 0.526586
O O6 0.627972 0.258009 0.537761
O O7 0.590449 0.000000 0.500000
O O8 0.573461 0.057491 0.590471
O O9 0.274277 0.127965 0.391258
O O10 0.185332 0.914042 0.375299
O O11 0.109167 0.320166 0.640330
O O12 0.145659 0.232405 0.552095
O O13 0.000000 0.553295 0.160909
O O14 0.685191 0.500000 0.500000
O O15 0.750000 0.750000 0.500000
#
# Coordination Sequence:
#
# PCOD8261375 Si02
#       6
#    16  16  16  16  16  16
#     4  10  20  36  62  87 113 144 183 234 288 347
#     4  10  21  40  59  79 113 157 197 232 281 340
#     4   9  20  35  58  85 118 145 181 227 293 346
#     4  10  20  36  54  81 117 153 186 232 283 335
#     4  10  22  39  60  82 111 152 194 235 280 338
#     4  12  25  33  55  86 120 152 195 240 282 329
#
# _framework density 9.4062319999999993
#
# number of rings (size 3 to 8) (size 9 to 14) (size 15 to 20)
#    0.000    1.833    1.667    2.000    9.333    0.667 
#    0.000    1.667    0.000    0.000    0.000    0.000 
#    0.000    0.000    0.000    0.000    0.000    0.000 
#
# Total GULP energy -594725.469506 kJ/mol
# GULP energy per Si atom -12390.113948 kJ/mol
# Density = 0.938482 g / cm^3
# Si number density = 9.406232 Si / 1000 Ang^3
#
#
#
# Elastic Constant Matrix: (Units=GPa)
#
#
# Indices 1 2 3 4 5 6 
#
# 1 115.4207 51.3629 3.1575 0.0000 0.0000 0.0000
# 2 51.3629 149.2056 9.0469 0.0000 0.0000 0.0000
# 3 3.1575 9.0469 36.4333 0.0000 0.0000 0.0000
# 4 0.0000 0.0000 0.0000 14.1775 0.0000 0.0000
# 5 0.0000 0.0000 0.0000 0.0000 22.8334 0.0000
# 6 0.0000 0.0000 0.0000 0.0000 0.0000 30.7090
#
#
#
# Elastic Compliance Matrix: (Units=1/GPa)
#
#
# Indices 1 2 3 4 5 6 
#
# 1 0.010231 -0.003521 -0.000012 0.000000 0.000000 0.000000
# 2 -0.003521 0.008017 -0.001685 0.000000 0.000000 0.000000
# 3 -0.000012 -0.001685 0.027867 0.000000 0.000000 0.000000
# 4 0.000000 0.000000 0.000000 0.070534 0.000000 0.000000
# 5 0.000000 0.000000 0.000000 0.000000 0.043795 0.000000
# 6 0.000000 0.000000 0.000000 0.000000 0.000000 0.032564
#
#
# Mechanical properties :
#
#
# Convention : Reuss Voigt Hill
#
# Bulk Modulus (GPa) = 28.02951 47.57715 37.80333
# Shear Modulus (GPa) = 23.21924 29.37679 26.29802
#
# Velocity S-wave (km/s) = 3.51700 3.95595 3.74291
# Velocity P-wave (km/s) = 5.60572 6.79788 6.23038
#
# Compressibility (1/GPa) = 0.03567669
#
# Stress axis : x y z
#
# Youngs Moduli (GPa) = 97.73930 124.74210 35.88477
#
# Poissons Ratio (x) = 0.43925 0.00044
# Poissons Ratio (y) = 0.34417 0.06048
# Poissons Ratio (z) = 0.00120 0.21024
#
# Static dielectric constant tensor:
#      x y z
#    x 3.823060 0.000000 0.000000 
#    y 0.000000 3.649050 0.000000 
#    z 0.000000 0.000000 3.348340 
# 
# 
# High freq. dielectric constant tensor:
#      x y z
#    x 1.731810 0.000000 0.000000 
#    y 0.000000 1.748280 0.000000 
#    z 0.000000 0.000000 1.712560 
# 
# From -- ./inp_files/70253.got.cif
#   From: 2010.03.12/outbox.ucp.g09.slc.cvg/sg63_36_cif.got.tgz:70253.got - 2010.05.04 19:38:17.
