data_PCOD8261470
_publ_section_title
;
Structure prediction by ZEFSAII (Michael W. Deem and Ramdas Pophale) SiO2 
 PCOD8261470
Probable space group: C M C A
;
_chemical_formula_sum "Si O2"
_cell_formula_units_Z 128
_cell_length_a 25.826160
_cell_length_b 23.836986
_cell_length_c 11.568627
_cell_angle_alpha 90.000000
_cell_angle_beta 90.000000
_cell_angle_gamma 90.000000
_cell_volume 7121.852869
_symmetry_space_group_name_H-M "C M C A"
_symmetry_group_IT_number 64
_symmetry_cell_setting 'orthorhombic'
loop_
_space_group_symop_operation_xyz
x,y,z
-x,1/2-y,1/2+z
x,-y,-z
-x,1/2+y,1/2-z
-x,-y,-z
x,1/2+y,1/2-z
-x,y,z
x,1/2-y,1/2+z
1/2+x,1/2+y,z
1/2-x,-y,1/2+z
1/2+x,1/2-y,-z
1/2-x,y,1/2-z
1/2-x,1/2-y,-z
1/2+x,y,1/2-z
1/2-x,1/2+y,z
1/2+x,-y,1/2+z
loop_
_atom_site_type_symbol
_atom_site_label
_atom_site_fract_x
_atom_site_fract_y
_atom_site_fract_z
Si Si1 0.304735 0.862473 0.919301
Si Si2 0.308039 0.252769 0.719519
Si Si3 0.369866 0.460977 0.108808
Si Si4 0.876331 0.190324 0.601664
Si Si5 0.618321 0.707929 0.966296
Si Si6 0.309443 0.879624 0.540873
Si Si7 0.939678 0.366363 0.299085
Si Si8 0.806565 0.459462 0.753726
O O1 0.311891 0.818810 0.812692
O O2 0.247751 0.853654 0.975425
O O3 0.315383 0.926351 0.874775
O O4 0.344322 0.852836 0.023740
O O5 0.250000 0.234981 0.750000
O O6 0.340992 0.234579 0.829909
O O7 0.330589 0.218200 0.612026
O O8 0.418392 0.425827 0.155675
O O9 0.350332 0.495355 0.221374
O O10 0.387053 0.500000 0.000000
O O11 0.323561 0.420122 0.067280
O O12 0.906135 0.234921 0.518601
O O13 0.914213 0.152962 0.678572
O O14 0.571285 0.680754 0.895277
O O15 0.643699 0.664938 0.058060
O O16 0.306831 0.912024 0.658800
O O17 0.000000 0.372991 0.277664
O O18 0.750000 0.488995 0.750000
#
# Coordination Sequence:
#
# PCOD8261470 Si02
#       8
#    16  16  16  16  16  16  16  16
#     4  10  18  28  47  74 106 140 164 188 228 285
#     4  10  17  26  44  73 108 140 163 185 222 282
#     4   9  19  35  54  73  95 125 163 210 251 285
#     4  10  20  32  48  73 103 133 162 195 237 289
#     4   9  18  31  49  72  99 130 162 195 238 290
#     4   9  16  29  48  74 105 133 162 193 230 282
#     4  10  22  38  54  72  92 120 164 214 258 294
#     4   9  17  29  48  73 102 134 164 194 233 282
#
# _framework density 17.972852
#
# number of rings (size 3 to 8) (size 9 to 14) (size 15 to 20)
#    0.000    2.500    0.000    3.375    0.000    3.750 
#    0.000    3.125    0.000    1.500    0.000    0.000 
#    0.000    0.000    0.000    0.000    0.000    0.000 
#
# Total GULP energy -792999.668761 kJ/mol
# GULP energy per Si atom -12390.619824 kJ/mol
# Density = 1.793194 g / cm^3
# Si number density = 17.972852 Si / 1000 Ang^3
#
#
#
# Elastic Constant Matrix: (Units=GPa)
#
#
# Indices 1 2 3 4 5 6 
#
# 1 105.0679 49.1099 48.0388 0.0000 0.0000 0.0000
# 2 49.1099 87.8780 37.9730 0.0000 0.0000 0.0000
# 3 48.0388 37.9730 73.2765 0.0000 0.0000 0.0000
# 4 0.0000 0.0000 0.0000 25.0700 0.0000 0.0000
# 5 0.0000 0.0000 0.0000 0.0000 15.0532 0.0000
# 6 0.0000 0.0000 0.0000 0.0000 0.0000 16.3991
#
#
#
# Elastic Compliance Matrix: (Units=1/GPa)
#
#
# Indices 1 2 3 4 5 6 
#
# 1 0.015390 -0.005465 -0.007258 0.000000 0.000000 0.000000
# 2 -0.005465 0.016603 -0.005022 0.000000 0.000000 0.000000
# 3 -0.007258 -0.005022 0.021007 0.000000 0.000000 0.000000
# 4 0.000000 0.000000 0.000000 0.039888 0.000000 0.000000
# 5 0.000000 0.000000 0.000000 0.000000 0.066431 0.000000
# 6 0.000000 0.000000 0.000000 0.000000 0.000000 0.060979
#
#
# Mechanical properties :
#
#
# Convention : Reuss Voigt Hill
#
# Bulk Modulus (GPa) = 57.10076 59.60732 58.35404
# Shear Modulus (GPa) = 19.11139 20.04450 19.57795
#
# Velocity S-wave (km/s) = 3.26444 3.34318 3.30405
# Velocity P-wave (km/s) = 6.78589 6.93828 6.86251
#
# Compressibility (1/GPa) = 0.01751290
#
# Stress axis : x y z
#
# Youngs Moduli (GPa) = 64.97642 60.22974 47.60270
#
# Poissons Ratio (x) = 0.32913 0.34549
# Poissons Ratio (y) = 0.35507 0.23904
# Poissons Ratio (z) = 0.47158 0.30245
#
# Static dielectric constant tensor:
#      x y z
#    x 2.993200 0.000000 0.000000 
#    y 0.000000 3.453920 0.000000 
#    z 0.000000 0.000000 3.438460 
# 
# 
# High freq. dielectric constant tensor:
#      x y z
#    x 1.652210 0.000000 0.000000 
#    y 0.000000 1.701580 0.000000 
#    z 0.000000 0.000000 1.698760 
# 
# From -- ./inp_files/18664.got.cif
#   From: 2010.03.12/outbox.cif.g09.slc.cpg/sg64_10_cif.got.tgz:18664.got - 2010.04.10 20:19:32.
