data_PCOD8261369
_publ_section_title
;
Structure prediction by ZEFSAII (Michael W. Deem and Ramdas Pophale) SiO2 
 PCOD8261369
Probable space group: C M C M
;
_chemical_formula_sum "Si O2"
_cell_formula_units_Z 48
_cell_length_a 18.000000
_cell_length_b 18.000000
_cell_length_c 18.000000
_cell_angle_alpha 90.000000
_cell_angle_beta 90.000000
_cell_angle_gamma 90.000000
_cell_volume 5832.000000
_symmetry_space_group_name_H-M "C M C M"
_symmetry_group_IT_number 63
_symmetry_cell_setting 'orthorhombic'
loop_
_space_group_symop_operation_xyz
x,y,z
-x,-y,1/2+z
x,-y,-z
-x,y,1/2-z
-x,-y,-z
x,y,1/2-z
-x,y,z
x,-y,1/2+z
1/2+x,1/2+y,z
1/2-x,1/2-y,1/2+z
1/2+x,1/2-y,-z
1/2-x,1/2+y,1/2-z
1/2-x,1/2-y,-z
1/2+x,1/2+y,1/2-z
1/2-x,1/2+y,z
1/2+x,1/2-y,1/2+z
loop_
_atom_site_type_symbol
_atom_site_label
_atom_site_fract_x
_atom_site_fract_y
_atom_site_fract_z
Si Si1 0.187124 0.995960 0.917227
Si Si2 0.416090 0.599465 0.662689
Si Si3 0.412259 0.007083 0.662546
Si Si4 0.313247 0.116354 0.918957
Si Si5 0.691461 0.881795 0.907210
Si Si6 0.205863 0.779712 0.338421
O O1 0.224499 0.915814 0.898774
O O2 0.119684 0.020961 0.864062
O O3 0.254141 0.052187 0.908469
O O4 0.154276 0.000000 0.000000
O O5 0.419994 0.594645 0.750000
O O6 0.500000 0.608984 0.630371
O O7 0.365040 0.669361 0.638091
O O8 0.393503 0.012517 0.750000
O O9 0.500000 0.997147 0.649023
O O10 0.370606 0.935374 0.628382
O O11 0.386653 0.084068 0.622258
O O12 0.280784 0.190197 0.878828
O O13 0.328638 0.131296 0.005973
O O14 0.689537 0.803660 0.864787
O O15 0.218238 0.781587 0.250000
#
# Coordination Sequence:
#
# PCOD8261369 Si02
#       6
#    16  16  16  16  16  16
#     4   8  16  30  48  69  90 117 153 191 228 269
#     4   9  18  31  46  65  91 123 153 181 222 278
#     4  10  20  33  50  73 100 129 162 200 243 293
#     4   9  18  33  50  68  95 130 164 193 230 290
#     4  10  19  31  50  75  98 120 155 204 247 280
#     4  10  19  31  49  71  96 126 158 195 239 285
#
# _framework density 8.2304530000000007
#
# number of rings (size 3 to 8) (size 9 to 14) (size 15 to 20)
#    0.000    2.667    0.000    3.000    0.000    7.000 
#    0.000    1.667    0.000    1.000    0.000    2.333 
#    0.000    0.000    0.000    0.000    0.000    0.000 
#
# Total GULP energy -594943.554425 kJ/mol
# GULP energy per Si atom -12394.657384 kJ/mol
# Density = 0.821172 g / cm^3
# Si number density = 8.230453 Si / 1000 Ang^3
#
#
#
# Elastic Constant Matrix: (Units=GPa)
#
#
# Indices 1 2 3 4 5 6 
#
# 1 98.9343 50.5136 41.4832 0.0000 0.0000 0.0000
# 2 50.5136 95.2572 38.2978 0.0000 0.0000 0.0000
# 3 41.4832 38.2978 92.4259 0.0000 0.0000 0.0000
# 4 0.0000 0.0000 0.0000 33.5453 0.0000 0.0000
# 5 0.0000 0.0000 0.0000 0.0000 24.9241 0.0000
# 6 0.0000 0.0000 0.0000 0.0000 0.0000 25.1306
#
#
#
# Elastic Compliance Matrix: (Units=1/GPa)
#
#
# Indices 1 2 3 4 5 6 
#
# 1 0.015077 -0.006329 -0.004144 0.000000 0.000000 0.000000
# 2 -0.006329 0.015253 -0.003480 0.000000 0.000000 0.000000
# 3 -0.004144 -0.003480 0.014121 0.000000 0.000000 0.000000
# 4 0.000000 0.000000 0.000000 0.029810 0.000000 0.000000
# 5 0.000000 0.000000 0.000000 0.000000 0.040122 0.000000
# 6 0.000000 0.000000 0.000000 0.000000 0.000000 0.039792
#
#
# Mechanical properties :
#
#
# Convention : Reuss Voigt Hill
#
# Bulk Modulus (GPa) = 60.44002 60.80075 60.62038
# Shear Modulus (GPa) = 26.65292 27.14152 26.89722
#
# Velocity S-wave (km/s) = 4.02825 4.06501 4.04667
# Velocity P-wave (km/s) = 7.64413 7.68433 7.66426
#
# Compressibility (1/GPa) = 0.01654533
#
# Stress axis : x y z
#
# Youngs Moduli (GPa) = 66.32701 65.56104 70.81405
#
# Poissons Ratio (x) = 0.41492 0.29349
# Poissons Ratio (y) = 0.41977 0.24641
# Poissons Ratio (z) = 0.27489 0.22814
#
# Static dielectric constant tensor:
#      x y z
#    x 3.296000 0.000000 0.000000 
#    y 0.000000 3.244810 0.000000 
#    z 0.000000 0.000000 3.403250 
# 
# 
# High freq. dielectric constant tensor:
#      x y z
#    x 1.627450 0.000000 0.000000 
#    y 0.000000 1.630590 0.000000 
#    z 0.000000 0.000000 1.650420 
# 
# From -- ./inp_files/45767.got.cif
#   From: 2010.03.12/outbox.ucp.g09.slc.cvg/sg63_23_cif.got.tgz:45767.got - 2010.05.04 19:38:17.
