data_PCOD8261762
_publ_section_title
;
Structure prediction by ZEFSAII (Michael W. Deem and Ramdas Pophale) SiO2 
 PCOD8261762
Probable space group: C M C A
;
_chemical_formula_sum "Si O2"
_cell_formula_units_Z 112
_cell_length_a 16.871785
_cell_length_b 20.514542
_cell_length_c 17.424075
_cell_angle_alpha 90.000000
_cell_angle_beta 90.000000
_cell_angle_gamma 90.000000
_cell_volume 6030.767556
_symmetry_space_group_name_H-M "C M C A"
_symmetry_group_IT_number 64
_symmetry_cell_setting 'orthorhombic'
loop_
_space_group_symop_operation_xyz
x,y,z
-x,1/2-y,1/2+z
x,-y,-z
-x,1/2+y,1/2-z
-x,-y,-z
x,1/2+y,1/2-z
-x,y,z
x,1/2-y,1/2+z
1/2+x,1/2+y,z
1/2-x,-y,1/2+z
1/2+x,1/2-y,-z
1/2-x,y,1/2-z
1/2-x,1/2-y,-z
1/2+x,y,1/2-z
1/2-x,1/2+y,z
1/2+x,-y,1/2+z
loop_
_atom_site_type_symbol
_atom_site_label
_atom_site_fract_x
_atom_site_fract_y
_atom_site_fract_z
Si Si1 0.413154 0.001850 0.909897
Si Si2 0.839693 0.802888 0.272155
Si Si3 0.409476 0.674760 0.283533
Si Si4 0.309730 0.377463 0.414270
Si Si5 0.682067 0.925607 0.312213
Si Si6 0.807189 0.380611 0.906620
Si Si7 0.822397 0.070654 0.191538
O O1 0.500000 0.997040 0.870965
O O2 0.359181 0.943002 0.881495
O O3 0.371800 0.068281 0.886443
O O4 0.422003 0.000000 0.000000
O O5 0.750000 0.783884 0.250000
O O6 0.899177 0.743686 0.258806
O O7 0.836620 0.815455 0.364144
O O8 0.871158 0.866194 0.222319
O O9 0.500000 0.667934 0.311964
O O10 0.348133 0.676022 0.355732
O O11 0.391768 0.616733 0.223094
O O12 0.221252 0.402735 0.392941
O O13 0.313180 0.361326 0.504317
O O14 0.750000 0.934322 0.250000
O O15 0.641882 0.997268 0.322731
O O16 0.715566 0.397093 0.885892
O O17 0.750000 0.069601 0.250000
#
# Coordination Sequence:
#
# PCOD8261762 Si02
#       7
#    16  16  16  16  16  16  16
#     4   9  16  25  41  75 116 138 155 200 271 334
#     4   9  19  36  54  73 105 143 185 224 260 321
#     4  11  23  37  50  72 108 150 186 225 272 324
#     4   9  17  30  54  81 105 133 175 221 274 325
#     4   8  15  30  52  78 102 134 172 216 259 321
#     4  10  18  31  54  81 105 133 174 225 278 318
#     4   9  17  31  54  76 104 136 175 222 266 324
#
# _framework density 18.571432999999999
#
# number of rings (size 3 to 8) (size 9 to 14) (size 15 to 20)
#    0.000    3.000    1.429    1.714    2.000    1.143 
#    0.000    7.143    0.000    0.000    0.000    2.000 
#    0.000    0.000    0.000    0.000    0.000    0.000 
#
# Total GULP energy -693752.483296 kJ/mol
# GULP energy per Si atom -12388.437202 kJ/mol
# Density = 1.852916 g / cm^3
# Si number density = 18.571433 Si / 1000 Ang^3
#
#
#
# Elastic Constant Matrix: (Units=GPa)
#
#
# Indices 1 2 3 4 5 6 
#
# 1 38.5517 22.1413 21.4419 0.0000 0.0000 0.0000
# 2 22.1413 111.1467 40.1903 0.0000 0.0000 0.0000
# 3 21.4419 40.1903 96.3450 0.0000 0.0000 0.0000
# 4 0.0000 0.0000 0.0000 21.9186 0.0000 0.0000
# 5 0.0000 0.0000 0.0000 0.0000 15.4079 0.0000
# 6 0.0000 0.0000 0.0000 0.0000 0.0000 15.9027
#
#
#
# Elastic Compliance Matrix: (Units=1/GPa)
#
#
# Indices 1 2 3 4 5 6 
#
# 1 0.031314 -0.004378 -0.005143 0.000000 0.000000 0.000000
# 2 -0.004378 0.011208 -0.003701 0.000000 0.000000 0.000000
# 3 -0.005143 -0.003701 0.013068 0.000000 0.000000 0.000000
# 4 0.000000 0.000000 0.000000 0.045623 0.000000 0.000000
# 5 0.000000 0.000000 0.000000 0.000000 0.064902 0.000000
# 6 0.000000 0.000000 0.000000 0.000000 0.000000 0.062882
#
#
# Mechanical properties :
#
#
# Convention : Reuss Voigt Hill
#
# Bulk Modulus (GPa) = 34.31048 45.95450 40.13249
# Shear Modulus (GPa) = 18.85684 21.46383 20.16034
#
# Velocity S-wave (km/s) = 3.18994 3.40331 3.29835
# Velocity P-wave (km/s) = 5.66415 6.34364 6.01350
#
# Compressibility (1/GPa) = 0.02914561
#
# Stress axis : x y z
#
# Youngs Moduli (GPa) = 31.93450 89.22572 76.52486
#
# Poissons Ratio (x) = 0.39067 0.39354
# Poissons Ratio (y) = 0.13982 0.28320
# Poissons Ratio (z) = 0.16423 0.33020
#
# Static dielectric constant tensor:
#      x y z
#    x 3.327170 0.000000 0.000000 
#    y 0.000000 3.868680 0.000000 
#    z 0.000000 0.000000 3.525400 
# 
# 
# High freq. dielectric constant tensor:
#      x y z
#    x 1.673770 0.000000 0.000000 
#    y 0.000000 1.721830 0.000000 
#    z 0.000000 0.000000 1.708400 
# 
# From -- ./inp_files/33568.got.cif
#   From: 2010.03.12/outbox.cif.g09.slc.cpg/sg64_17_cif.got.tgz:33568.got - 2010.04.10 20:19:32.
