data_PCOD8261970
_publ_section_title
;
Structure prediction by ZEFSAII (Michael W. Deem and Ramdas Pophale) SiO2 
 PCOD8261970
Probable space group: C M C A
;
_chemical_formula_sum "Si O2"
_cell_formula_units_Z 128
_cell_length_a 27.037289
_cell_length_b 11.521834
_cell_length_c 23.091157
_cell_angle_alpha 90.000000
_cell_angle_beta 90.000000
_cell_angle_gamma 90.000000
_cell_volume 7193.337732
_symmetry_space_group_name_H-M "C M C A"
_symmetry_group_IT_number 64
_symmetry_cell_setting 'orthorhombic'
loop_
_space_group_symop_operation_xyz
x,y,z
-x,1/2-y,1/2+z
x,-y,-z
-x,1/2+y,1/2-z
-x,-y,-z
x,1/2+y,1/2-z
-x,y,z
x,1/2-y,1/2+z
1/2+x,1/2+y,z
1/2-x,-y,1/2+z
1/2+x,1/2-y,-z
1/2-x,y,1/2-z
1/2-x,1/2-y,-z
1/2+x,y,1/2-z
1/2-x,1/2+y,z
1/2+x,-y,1/2+z
loop_
_atom_site_type_symbol
_atom_site_label
_atom_site_fract_x
_atom_site_fract_y
_atom_site_fract_z
Si Si1 0.556216 0.466590 0.782149
Si Si2 0.797887 0.045569 0.282530
Si Si3 0.443276 0.918637 0.847902
Si Si4 0.805919 0.773310 0.615419
Si Si5 0.201975 0.659434 0.865801
Si Si6 0.137150 0.190802 0.209331
Si Si7 0.609531 0.686639 0.819450
Si Si8 0.856805 0.525296 0.064518
O O1 0.500000 0.452374 0.799633
O O2 0.562557 0.487313 0.712864
O O3 0.581341 0.347177 0.805523
O O4 0.578559 0.570581 0.819030
O O5 0.750000 0.090189 0.250000
O O6 0.807873 0.130854 0.334802
O O7 0.841467 0.067713 0.235876
O O8 0.790359 0.915486 0.306815
O O9 0.500000 0.927105 0.870540
O O10 0.429612 0.785817 0.835947
O O11 0.405168 0.971680 0.894453
O O12 0.752913 0.712023 0.608062
O O13 0.846962 0.676687 0.632010
O O14 0.825132 0.853058 0.561844
O O15 0.166840 0.766763 0.847261
O O16 0.177743 0.581624 0.915384
O O17 0.136248 0.291545 0.257590
O O18 0.875375 0.500000 0.000000
#
# Coordination Sequence:
#
# PCOD8261970 Si02
#       8
#    16  16  16  16  16  16  16  16
#     4  10  19  30  48  74 107 141 162 187 239 307
#     4  10  19  28  45  73 105 131 162 195 229 292
#     4   9  18  34  51  72  98 126 167 208 248 300
#     4   9  20  33  48  76  98 133 169 201 243 300
#     4  11  21  32  50  72 104 138 165 200 251 292
#     4  10  19  30  43  71 105 136 168 198 229 291
#     4   9  17  29  47  72 106 135 161 191 235 291
#     4  10  22  39  53  71  95 123 174 227 257 288
#
# _framework density 17.794243000000002
#
# number of rings (size 3 to 8) (size 9 to 14) (size 15 to 20)
#    0.000    2.250    1.250    4.125    5.250    1.250 
#    0.000    0.625    0.000    0.000    0.000    0.000 
#    0.000    5.000    0.000    0.000    0.000    0.000 
#
# Total GULP energy -793041.612230 kJ/mol
# GULP energy per Si atom -12391.275191 kJ/mol
# Density = 1.775374 g / cm^3
# Si number density = 17.794243 Si / 1000 Ang^3
#
#
#
# Elastic Constant Matrix: (Units=GPa)
#
#
# Indices 1 2 3 4 5 6 
#
# 1 131.0045 35.8383 29.3415 0.0000 0.0000 0.0000
# 2 35.8383 54.3284 17.3270 0.0000 0.0000 0.0000
# 3 29.3415 17.3270 43.8480 0.0000 0.0000 0.0000
# 4 0.0000 0.0000 0.0000 22.3525 0.0000 0.0000
# 5 0.0000 0.0000 0.0000 0.0000 15.8635 0.0000
# 6 0.0000 0.0000 0.0000 0.0000 0.0000 -33.8716
#
#
#
# Elastic Compliance Matrix: (Units=1/GPa)
#
#
# Indices 1 2 3 4 5 6 
#
# 1 0.010102 -0.005158 -0.004722 0.000000 0.000000 0.000000
# 2 -0.005158 0.023694 -0.005912 0.000000 0.000000 0.000000
# 3 -0.004722 -0.005912 0.028302 0.000000 0.000000 0.000000
# 4 0.000000 0.000000 0.000000 0.044738 0.000000 0.000000
# 5 0.000000 0.000000 0.000000 0.000000 0.063038 0.000000
# 6 0.000000 0.000000 0.000000 0.000000 0.000000 -0.029523
#
#
# Mechanical properties :
#
#
# Convention : Reuss Voigt Hill
#
# Bulk Modulus (GPa) = 32.77004 43.79939 38.28472
# Shear Modulus (GPa) = 27.45676 10.64714 19.05195
#
# Velocity S-wave (km/s) = 3.93238 2.44877 3.27568
# Velocity P-wave (km/s) = 6.25094 5.71516 5.98905
#
# Compressibility (1/GPa) = 0.03051568
#
# Stress axis : x y z
#
# Youngs Moduli (GPa) = 98.99151 42.20390 35.33366
#
# Poissons Ratio (x) = 0.21769 0.16683
# Poissons Ratio (y) = 0.51059 0.20888
# Poissons Ratio (z) = 0.46740 0.24949
#
# Static dielectric constant tensor:
#      x y z
#    x 3.585140 0.000000 0.000000 
#    y 0.000000 3.205780 0.000000 
#    z 0.000000 0.000000 2.793770 
# 
# 
# High freq. dielectric constant tensor:
#      x y z
#    x 1.704540 0.000000 0.000000 
#    y 0.000000 1.682500 0.000000 
#    z 0.000000 0.000000 1.631810 
# 
# From -- ./inp_files/46977.got.cif
#   From: 2010.03.12/outbox.cif.g09.slc.cpg/sg64_24_cif.got.tgz:46977.got - 2010.04.10 20:19:32.
