data_PCOD8261458
_publ_section_title
;
Structure prediction by ZEFSAII (Michael W. Deem and Ramdas Pophale) SiO2 
 PCOD8261458
Probable space group: C M C A
;
_chemical_formula_sum "Si O2"
_cell_formula_units_Z 112
_cell_length_a 18.680199
_cell_length_b 21.703239
_cell_length_c 17.047809
_cell_angle_alpha 90.000000
_cell_angle_beta 90.000000
_cell_angle_gamma 90.000000
_cell_volume 6911.536763
_symmetry_space_group_name_H-M "C M C A"
_symmetry_group_IT_number 64
_symmetry_cell_setting 'orthorhombic'
loop_
_space_group_symop_operation_xyz
x,y,z
-x,1/2-y,1/2+z
x,-y,-z
-x,1/2+y,1/2-z
-x,-y,-z
x,1/2+y,1/2-z
-x,y,z
x,1/2-y,1/2+z
1/2+x,1/2+y,z
1/2-x,-y,1/2+z
1/2+x,1/2-y,-z
1/2-x,y,1/2-z
1/2-x,1/2-y,-z
1/2+x,y,1/2-z
1/2-x,1/2+y,z
1/2+x,-y,1/2+z
loop_
_atom_site_type_symbol
_atom_site_label
_atom_site_fract_x
_atom_site_fract_y
_atom_site_fract_z
Si Si1 0.916065 0.563248 0.960256
Si Si2 0.079468 0.798194 0.038125
Si Si3 0.920136 0.158296 0.407741
Si Si4 0.182027 0.668472 0.666843
Si Si5 0.084813 0.763497 0.867407
Si Si6 0.825898 0.306552 0.774269
Si Si7 0.657579 0.636541 0.663780
O O1 0.873914 0.575613 0.878602
O O2 0.000000 0.561209 0.941089
O O3 0.890137 0.500000 0.000000
O O4 0.894920 0.617828 0.019271
O O5 0.078930 0.729020 0.068797
O O6 0.131011 0.840015 0.091657
O O7 0.000000 0.826414 0.044941
O O8 0.105103 0.798167 0.948100
O O9 0.864160 0.148920 0.337013
O O10 0.000000 0.137702 0.381156
O O11 0.191222 0.739677 0.689970
O O12 0.258913 0.642421 0.642605
O O13 0.148941 0.631959 0.741602
O O14 0.120820 0.802560 0.798900
O O15 0.113680 0.694211 0.869916
O O16 0.000000 0.760558 0.854394
O O17 0.750000 0.336698 0.750000
#
# Coordination Sequence:
#
# PCOD8261458 Si02
#       7
#    16  16  16  16  16  16  16
#     4  10  20  33  50  69  86 112 154 196 231 266
#     4   9  17  27  42  68  97 122 151 179 214 267
#     4   9  17  29  44  63  91 120 145 184 227 262
#     4   9  18  29  43  68  93 126 147 178 218 272
#     4  10  17  26  41  63  92 126 153 176 213 265
#     4  10  17  28  41  65  96 121 151 173 211 272
#     4  10  17  30  45  65  92 119 152 183 227 271
#
# _framework density 16.204789999999999
#
# number of rings (size 3 to 8) (size 9 to 14) (size 15 to 20)
#    0.000    2.429    4.286    0.857    0.000    5.714 
#    0.000    0.000    3.143    0.000    0.000    0.000 
#    0.000    0.571    0.000    0.571    0.000    0.000 
#
# Total GULP energy -694243.898062 kJ/mol
# GULP energy per Si atom -12397.212465 kJ/mol
# Density = 1.616791 g / cm^3
# Si number density = 16.204790 Si / 1000 Ang^3
#
#
#
# Elastic Constant Matrix: (Units=GPa)
#
#
# Indices 1 2 3 4 5 6 
#
# 1 90.5915 20.8031 59.9370 0.0000 0.0000 0.0000
# 2 20.8031 29.6124 22.7469 0.0000 0.0000 0.0000
# 3 59.9370 22.7469 94.3489 0.0000 0.0000 0.0000
# 4 0.0000 0.0000 0.0000 17.6127 0.0000 0.0000
# 5 0.0000 0.0000 0.0000 0.0000 30.4627 0.0000
# 6 0.0000 0.0000 0.0000 0.0000 0.0000 13.2060
#
#
#
# Elastic Compliance Matrix: (Units=1/GPa)
#
#
# Indices 1 2 3 4 5 6 
#
# 1 0.019668 -0.005179 -0.011246 0.000000 0.000000 0.000000
# 2 -0.005179 0.042809 -0.007031 0.000000 0.000000 0.000000
# 3 -0.011246 -0.007031 0.019439 0.000000 0.000000 0.000000
# 4 0.000000 0.000000 0.000000 0.056777 0.000000 0.000000
# 5 0.000000 0.000000 0.000000 0.000000 0.032827 0.000000
# 6 0.000000 0.000000 0.000000 0.000000 0.000000 0.075723
#
#
# Mechanical properties :
#
#
# Convention : Reuss Voigt Hill
#
# Bulk Modulus (GPa) = 28.56831 46.83632 37.70232
# Shear Modulus (GPa) = 16.34932 19.66065 18.00498
#
# Velocity S-wave (km/s) = 3.17979 3.48697 3.33692
# Velocity P-wave (km/s) = 5.58115 6.72142 6.17765
#
# Compressibility (1/GPa) = 0.03500382
#
# Stress axis : x y z
#
# Youngs Moduli (GPa) = 50.84276 23.35977 51.44426
#
# Poissons Ratio (x) = 0.12097 0.57856
# Poissons Ratio (y) = 0.26329 0.36171
# Poissons Ratio (z) = 0.57179 0.16424
#
# Static dielectric constant tensor:
#      x y z
#    x 3.233290 0.000000 0.000000 
#    y 0.000000 2.563780 0.000000 
#    z 0.000000 0.000000 3.307000 
# 
# 
# High freq. dielectric constant tensor:
#      x y z
#    x 1.632480 0.000000 0.000000 
#    y 0.000000 1.552230 0.000000 
#    z 0.000000 0.000000 1.634560 
# 
# From -- ./inp_files/33722.got.cif
#   From: 2010.03.12/outbox.cif.g09.slc.cpg/sg64_17_cif.got.tgz:33722.got - 2010.04.10 20:19:32.
