data_PCOD8261641
_publ_section_title
;
Structure prediction by ZEFSAII (Michael W. Deem and Ramdas Pophale) SiO2 
 PCOD8261641
Probable space group: C M C A
;
_chemical_formula_sum "Si O2"
_cell_formula_units_Z 80
_cell_length_a 9.386062
_cell_length_b 25.282034
_cell_length_c 19.850064
_cell_angle_alpha 90.000000
_cell_angle_beta 90.000000
_cell_angle_gamma 90.000000
_cell_volume 4710.395149
_symmetry_space_group_name_H-M "C M C A"
_symmetry_group_IT_number 64
_symmetry_cell_setting 'orthorhombic'
loop_
_space_group_symop_operation_xyz
x,y,z
-x,1/2-y,1/2+z
x,-y,-z
-x,1/2+y,1/2-z
-x,-y,-z
x,1/2+y,1/2-z
-x,y,z
x,1/2-y,1/2+z
1/2+x,1/2+y,z
1/2-x,-y,1/2+z
1/2+x,1/2-y,-z
1/2-x,y,1/2-z
1/2-x,1/2-y,-z
1/2+x,y,1/2-z
1/2-x,1/2+y,z
1/2+x,-y,1/2+z
loop_
_atom_site_type_symbol
_atom_site_label
_atom_site_fract_x
_atom_site_fract_y
_atom_site_fract_z
Si Si1 0.342350 0.006725 0.920070
Si Si2 0.334778 0.591258 0.091332
Si Si3 0.835428 0.116724 0.540501
Si Si4 0.164300 0.689653 0.317815
Si Si5 0.335180 0.266207 0.434505
O O1 0.500000 0.995813 0.890258
O O2 0.296176 0.068178 0.908580
O O3 0.232827 0.965272 0.887080
O O4 0.341947 0.000000 0.000000
O O5 0.500000 0.582701 0.074602
O O6 0.311908 0.630967 0.153170
O O7 0.260858 0.616244 0.026013
O O8 0.812068 0.171495 0.580129
O O9 0.000000 0.110360 0.517114
O O10 0.250000 0.696755 0.250000
O O11 0.221418 0.733256 0.370769
O O12 0.000000 0.699971 0.301451
O O13 0.500000 0.252339 0.447739
O O14 0.250000 0.250000 0.500000
#
# Coordination Sequence:
#
# PCOD8261641 Si02
#       5
#    16  16  16  16  16
#     4   8  15  27  43  68  97 127 160 189 232 294
#     4  10  18  29  46  71 100 126 159 205 248 289
#     4   9  17  29  48  72  99 130 161 197 245 298
#     4  10  22  36  50  72 101 132 170 209 252 305
#     4  10  19  33  52  75 101 130 167 211 253 299
#
# _framework density 16.983713000000002
#
# number of rings (size 3 to 8) (size 9 to 14) (size 15 to 20)
#    0.000    2.600    2.000    1.800    0.000    6.000 
#    0.000    0.000    0.000    1.200    0.000    5.600 
#    0.000    0.000    0.000    0.000    0.000    0.000 
#
# Total GULP energy -495838.424005 kJ/mol
# GULP energy per Si atom -12395.960600 kJ/mol
# Density = 1.694506 g / cm^3
# Si number density = 16.983713 Si / 1000 Ang^3
#
#
#
# Elastic Constant Matrix: (Units=GPa)
#
#
# Indices 1 2 3 4 5 6 
#
# 1 82.5045 55.4092 51.2920 0.0000 0.0000 0.0000
# 2 55.4092 148.8984 53.8955 0.0000 0.0000 0.0000
# 3 51.2920 53.8955 86.2593 0.0000 0.0000 0.0000
# 4 0.0000 0.0000 0.0000 15.8275 0.0000 0.0000
# 5 0.0000 0.0000 0.0000 0.0000 25.3230 0.0000
# 6 0.0000 0.0000 0.0000 0.0000 0.0000 26.7571
#
#
#
# Elastic Compliance Matrix: (Units=1/GPa)
#
#
# Indices 1 2 3 4 5 6 
#
# 1 0.021156 -0.004289 -0.009900 0.000000 0.000000 0.000000
# 2 -0.004289 0.009548 -0.003415 0.000000 0.000000 0.000000
# 3 -0.009900 -0.003415 0.019614 0.000000 0.000000 0.000000
# 4 0.000000 0.000000 0.000000 0.063181 0.000000 0.000000
# 5 0.000000 0.000000 0.000000 0.000000 0.039490 0.000000
# 6 0.000000 0.000000 0.000000 0.000000 0.000000 0.037373
#
#
# Mechanical properties :
#
#
# Convention : Reuss Voigt Hill
#
# Bulk Modulus (GPa) = 66.18651 70.98394 68.58523
# Shear Modulus (GPa) = 21.68187 24.05253 22.86720
#
# Velocity S-wave (km/s) = 3.57687 3.76734 3.67334
# Velocity P-wave (km/s) = 7.49092 7.79807 7.64603
#
# Compressibility (1/GPa) = 0.01510882
#
# Stress axis : x y z
#
# Youngs Moduli (GPa) = 47.26838 104.72964 50.98509
#
# Poissons Ratio (x) = 0.44922 0.50474
# Poissons Ratio (y) = 0.20275 0.17413
# Poissons Ratio (z) = 0.46795 0.35769
#
# Static dielectric constant tensor:
#      x y z
#    x 3.227880 0.000000 0.000000 
#    y 0.000000 3.980630 0.000000 
#    z 0.000000 0.000000 2.681060 
# 
# 
# High freq. dielectric constant tensor:
#      x y z
#    x 1.656930 0.000000 0.000000 
#    y 0.000000 1.680180 0.000000 
#    z 0.000000 0.000000 1.596130 
# 
# From -- ./inp_files/29822.got.cif
#   From: 2010.03.12/outbox.cif.g09.slc.cpg/sg64_15_cif.got.tgz:29822.got - 2010.04.10 20:19:32.
