data_PCOD8261752
_publ_section_title
;
Structure prediction by ZEFSAII (Michael W. Deem and Ramdas Pophale) SiO2 
 PCOD8261752
Probable space group: C M C A
;
_chemical_formula_sum "Si O2"
_cell_formula_units_Z 80
_cell_length_a 13.630005
_cell_length_b 18.768918
_cell_length_c 19.138569
_cell_angle_alpha 90.000000
_cell_angle_beta 90.000000
_cell_angle_gamma 90.000000
_cell_volume 4896.037261
_symmetry_space_group_name_H-M "C M C A"
_symmetry_group_IT_number 64
_symmetry_cell_setting 'orthorhombic'
loop_
_space_group_symop_operation_xyz
x,y,z
-x,1/2-y,1/2+z
x,-y,-z
-x,1/2+y,1/2-z
-x,-y,-z
x,1/2+y,1/2-z
-x,y,z
x,1/2-y,1/2+z
1/2+x,1/2+y,z
1/2-x,-y,1/2+z
1/2+x,1/2-y,-z
1/2-x,y,1/2-z
1/2-x,1/2-y,-z
1/2+x,y,1/2-z
1/2-x,1/2+y,z
1/2+x,-y,1/2+z
loop_
_atom_site_type_symbol
_atom_site_label
_atom_site_fract_x
_atom_site_fract_y
_atom_site_fract_z
Si Si1 0.744744 0.942728 0.331998
Si Si2 0.885540 0.195082 0.046418
Si Si3 0.887020 0.031838 0.072147
Si Si4 0.246288 0.682565 0.923227
Si Si5 0.111478 0.561893 0.944646
O O1 0.750000 0.951944 0.250000
O O2 0.721209 0.859686 0.352731
O O3 0.848073 0.964469 0.368770
O O4 0.661817 0.995293 0.361129
O O5 0.871881 0.116206 0.076550
O O6 0.819746 0.247836 0.094648
O O7 0.000000 0.217120 0.045956
O O8 0.843333 0.201511 0.967454
O O9 0.000000 0.010158 0.074808
O O10 0.841120 0.000000 0.000000
O O11 0.176247 0.629720 0.969396
O O12 0.000000 0.586238 0.935993
O O13 0.123694 0.500000 0.000000
#
# Coordination Sequence:
#
# PCOD8261752 Si02
#       5
#    16  16  16  16  16
#     4  10  20  33  49  75 108 138 170 207 259 314
#     4  10  18  31  53  77 100 128 169 218 258 294
#     4  10  18  32  54  77 101 129 172 219 254 294
#     4   9  19  31  49  76 103 132 167 209 257 309
#     4   9  17  31  51  73 100 135 172 210 252 302
#
# _framework density 16.339745000000001
#
# number of rings (size 3 to 8) (size 9 to 14) (size 15 to 20)
#    1.200    1.200    2.000    2.400    0.000    0.800 
#    0.000    1.000    0.000    0.000    0.000    2.800 
#    0.000    0.000    0.000    0.000    0.000    0.000 
#
# Total GULP energy -495566.233949 kJ/mol
# GULP energy per Si atom -12389.155849 kJ/mol
# Density = 1.630255 g / cm^3
# Si number density = 16.339745 Si / 1000 Ang^3
#
#
#
# Elastic Constant Matrix: (Units=GPa)
#
#
# Indices 1 2 3 4 5 6 
#
# 1 72.2721 33.9571 25.8201 0.0000 0.0000 0.0000
# 2 33.9571 90.5951 31.6362 0.0000 0.0000 0.0000
# 3 25.8201 31.6362 101.5001 0.0000 0.0000 0.0000
# 4 0.0000 0.0000 0.0000 18.7823 0.0000 0.0000
# 5 0.0000 0.0000 0.0000 0.0000 9.3349 0.0000
# 6 0.0000 0.0000 0.0000 0.0000 0.0000 24.7308
#
#
#
# Elastic Compliance Matrix: (Units=1/GPa)
#
#
# Indices 1 2 3 4 5 6 
#
# 1 0.017425 -0.005592 -0.002690 0.000000 0.000000 0.000000
# 2 -0.005592 0.014181 -0.002997 0.000000 0.000000 0.000000
# 3 -0.002690 -0.002997 0.011471 0.000000 0.000000 0.000000
# 4 0.000000 0.000000 0.000000 0.053242 0.000000 0.000000
# 5 0.000000 0.000000 0.000000 0.000000 0.107124 0.000000
# 6 0.000000 0.000000 0.000000 0.000000 0.000000 0.040435
#
#
# Mechanical properties :
#
#
# Convention : Reuss Voigt Hill
#
# Bulk Modulus (GPa) = 48.73729 49.68825 49.21277
# Shear Modulus (GPa) = 18.29654 22.09986 20.19820
#
# Velocity S-wave (km/s) = 3.34991 3.68165 3.51969
# Velocity P-wave (km/s) = 6.69737 6.96766 6.83385
#
# Compressibility (1/GPa) = 0.02051817
#
# Stress axis : x y z
#
# Youngs Moduli (GPa) = 57.38897 70.51758 87.17865
#
# Poissons Ratio (x) = 0.39434 0.23448
# Poissons Ratio (y) = 0.32092 0.26131
# Poissons Ratio (z) = 0.15436 0.21137
#
# Static dielectric constant tensor:
#      x y z
#    x 3.214870 0.000000 0.000000 
#    y 0.000000 3.152370 0.000000 
#    z 0.000000 0.000000 2.648290 
# 
# 
# High freq. dielectric constant tensor:
#      x y z
#    x 1.639640 0.000000 0.000000 
#    y 0.000000 1.635250 0.000000 
#    z 0.000000 0.000000 1.576560 
# 
# From -- ./inp_files/39515.got.cif
#   From: 2010.03.12/outbox.cif.g09.slc.cpg/sg64_20_cif.got.tgz:39515.got - 2010.04.10 20:19:32.
