data_PCOD8261709
_publ_section_title
;
Structure prediction by ZEFSAII (Michael W. Deem and Ramdas Pophale) SiO2 
 PCOD8261709
Probable space group: C M C A
;
_chemical_formula_sum "Si O2"
_cell_formula_units_Z 104
_cell_length_a 9.492614
_cell_length_b 27.780905
_cell_length_c 21.301775
_cell_angle_alpha 90.000000
_cell_angle_beta 90.000000
_cell_angle_gamma 90.000000
_cell_volume 5617.563676
_symmetry_space_group_name_H-M "C M C A"
_symmetry_group_IT_number 64
_symmetry_cell_setting 'orthorhombic'
loop_
_space_group_symop_operation_xyz
x,y,z
-x,1/2-y,1/2+z
x,-y,-z
-x,1/2+y,1/2-z
-x,-y,-z
x,1/2+y,1/2-z
-x,y,z
x,1/2-y,1/2+z
1/2+x,1/2+y,z
1/2-x,-y,1/2+z
1/2+x,1/2-y,-z
1/2-x,y,1/2-z
1/2-x,1/2-y,-z
1/2+x,y,1/2-z
1/2-x,1/2+y,z
1/2+x,-y,1/2+z
loop_
_atom_site_type_symbol
_atom_site_label
_atom_site_fract_x
_atom_site_fract_y
_atom_site_fract_z
Si Si1 0.664592 0.310155 0.807629
Si Si2 0.836566 0.479637 0.564724
Si Si3 0.250000 0.627553 0.750000
Si Si4 0.343332 0.707116 0.660257
Si Si5 0.834996 0.127818 0.070734
Si Si6 0.330848 0.355947 0.450303
Si Si7 0.159324 0.426524 0.370252
O O1 0.500000 0.309050 0.790573
O O2 0.750000 0.333199 0.750000
O O3 0.731831 0.256363 0.818255
O O4 0.696646 0.343009 0.866861
O O5 0.767790 0.500000 0.500000
O O6 0.777209 0.426661 0.580774
O O7 0.810898 0.516044 0.623508
O O8 0.000000 0.472335 0.552074
O O9 0.349991 0.664025 0.711570
O O10 0.171319 0.592331 0.701243
O O11 0.500000 0.723729 0.645203
O O12 0.279139 0.687523 0.595074
O O13 0.000000 0.130228 0.052802
O O14 0.741845 0.152886 0.016871
O O15 0.500000 0.359616 0.455584
O O16 0.270552 0.404063 0.418402
O O17 0.000000 0.415322 0.393271
#
# Coordination Sequence:
#
# PCOD8261709 Si02
#       7
#    16  16   8  16  16  16  16
#     4  10  21  38  57  78 105 141 181 218 260 315
#     4   9  16  31  55  78 100 134 179 218 257 313
#     4  10  18  30  52  80 108 132 178 218 266 312
#     4   9  18  33  51  75 109 139 166 212 269 318
#     4  10  20  36  57  77 104 143 182 218 261 319
#     4  10  20  33  53  82 113 137 169 222 271 311
#     4  10  19  33  55  79 107 142 179 217 265 322
#
# _framework density 18.513363999999999
#
# number of rings (size 3 to 8) (size 9 to 14) (size 15 to 20)
#    0.000    2.308    2.308    0.923    0.000    1.846 
#    1.385    2.308    0.000    0.000    0.000    0.000 
#    0.000    0.000    0.000    0.000    0.000    0.000 
#
# Total GULP energy -644287.790264 kJ/mol
# GULP energy per Si atom -12390.149813 kJ/mol
# Density = 1.847123 g / cm^3
# Si number density = 18.513364 Si / 1000 Ang^3
#
#
#
# Elastic Constant Matrix: (Units=GPa)
#
#
# Indices 1 2 3 4 5 6 
#
# 1 64.6252 24.8885 50.2794 0.0000 0.0000 0.0000
# 2 24.8885 109.5859 73.3265 0.0000 0.0000 0.0000
# 3 50.2794 73.3265 142.0683 0.0000 0.0000 0.0000
# 4 0.0000 0.0000 0.0000 27.9549 0.0000 0.0000
# 5 0.0000 0.0000 0.0000 0.0000 28.3098 0.0000
# 6 0.0000 0.0000 0.0000 0.0000 0.0000 15.7185
#
#
#
# Elastic Compliance Matrix: (Units=1/GPa)
#
#
# Indices 1 2 3 4 5 6 
#
# 1 0.021361 0.000316 -0.007723 0.000000 0.000000 0.000000
# 2 0.000316 0.013944 -0.007309 0.000000 0.000000 0.000000
# 3 -0.007723 -0.007309 0.013545 0.000000 0.000000 0.000000
# 4 0.000000 0.000000 0.000000 0.035772 0.000000 0.000000
# 5 0.000000 0.000000 0.000000 0.000000 0.035324 0.000000
# 6 0.000000 0.000000 0.000000 0.000000 0.000000 0.063619
#
#
# Mechanical properties :
#
#
# Convention : Reuss Voigt Hill
#
# Bulk Modulus (GPa) = 51.49883 68.14095 59.81989
# Shear Modulus (GPa) = 22.78237 25.58228 24.18233
#
# Velocity S-wave (km/s) = 3.51178 3.72133 3.61807
# Velocity P-wave (km/s) = 6.65740 7.43980 7.05945
#
# Compressibility (1/GPa) = 0.01941792
#
# Stress axis : x y z
#
# Youngs Moduli (GPa) = 46.81507 71.71531 73.83045
#
# Poissons Ratio (x) = -0.02269 0.57019
# Poissons Ratio (y) = -0.01481 0.53962
# Poissons Ratio (z) = 0.36155 0.52417
#
# Static dielectric constant tensor:
#      x y z
#    x 3.147210 0.000000 0.000000 
#    y 0.000000 3.608890 0.000000 
#    z 0.000000 0.000000 3.401890 
# 
# 
# High freq. dielectric constant tensor:
#      x y z
#    x 1.688230 0.000000 0.000000 
#    y 0.000000 1.720010 0.000000 
#    z 0.000000 0.000000 1.716320 
# 
# From -- ./inp_files/37406.got.cif
#   From: 2010.03.12/outbox.cif.g09.slc.cpg/sg64_19_cif.got.tgz:37406.got - 2010.04.10 20:19:32.
