data_PCOD8261137
_publ_section_title
;
Structure prediction by ZEFSAII (Michael W. Deem and Ramdas Pophale) SiO2 
 PCOD8261137
Probable space group: C M C M
;
_chemical_formula_sum "Si O2"
_cell_formula_units_Z 80
_cell_length_a 26.126324
_cell_length_b 18.075082
_cell_length_c 9.168232
_cell_angle_alpha 90.000000
_cell_angle_beta 90.000000
_cell_angle_gamma 90.000000
_cell_volume 4329.564152
_symmetry_space_group_name_H-M "C M C M"
_symmetry_group_IT_number 63
_symmetry_cell_setting 'orthorhombic'
loop_
_space_group_symop_operation_xyz
x,y,z
-x,-y,1/2+z
x,-y,-z
-x,y,1/2-z
-x,-y,-z
x,y,1/2-z
-x,y,z
x,-y,1/2+z
1/2+x,1/2+y,z
1/2-x,1/2-y,1/2+z
1/2+x,1/2-y,-z
1/2-x,1/2+y,1/2-z
1/2-x,1/2-y,-z
1/2+x,1/2+y,1/2-z
1/2-x,1/2+y,z
1/2+x,1/2-y,1/2+z
loop_
_atom_site_type_symbol
_atom_site_label
_atom_site_fract_x
_atom_site_fract_y
_atom_site_fract_z
Si Si1 0.055981 0.692295 0.580151
Si Si2 0.756918 0.424798 0.577507
Si Si3 0.845786 0.315672 0.581030
Si Si4 0.054520 0.157694 0.584959
Si Si5 0.335496 0.357004 0.416481
O O1 0.068123 0.690102 0.750000
O O2 0.103258 0.652711 0.498536
O O3 0.053617 0.776722 0.529875
O O4 0.000000 0.655263 0.547203
O O5 0.773916 0.500000 0.500000
O O6 0.755465 0.436554 0.750000
O O7 0.796898 0.362066 0.528049
O O8 0.700757 0.401001 0.525090
O O9 0.855437 0.328138 0.750000
O O10 0.835309 0.230006 0.543680
O O11 0.058583 0.190848 0.750000
O O12 0.106482 0.110493 0.559411
O O13 0.000000 0.113044 0.569158
O O14 0.317120 0.369406 0.250000
#
# Coordination Sequence:
#
# PCOD8261137 Si02
#       5
#    16  16  16  16  16
#     4   9  16  25  42  72 104 129 156 195 241 285
#     4  11  23  37  52  71  97 130 167 206 249 295
#     4   9  19  34  52  74  99 130 166 201 242 292
#     4   8  14  26  45  70 101 133 161 193 237 288
#     4   9  17  31  52  77 102 128 161 200 242 290
#
# _framework density 18.477611
#
# number of rings (size 3 to 8) (size 9 to 14) (size 15 to 20)
#    0.000    2.800    0.000    3.000    0.000    6.000 
#    0.000    0.000    0.000    1.200    0.000    0.000 
#    0.000    0.000    0.000    0.000    0.000    0.000 
#
# Total GULP energy -495544.373195 kJ/mol
# GULP energy per Si atom -12388.609330 kJ/mol
# Density = 1.843556 g / cm^3
# Si number density = 18.477611 Si / 1000 Ang^3
#
#
#
# Elastic Constant Matrix: (Units=GPa)
#
#
# Indices 1 2 3 4 5 6 
#
# 1 115.5923 8.2999 36.5918 0.0000 0.0000 0.0000
# 2 8.2999 27.9515 15.1996 0.0000 0.0000 0.0000
# 3 36.5918 15.1996 59.6360 0.0000 0.0000 0.0000
# 4 0.0000 0.0000 0.0000 19.2776 0.0000 0.0000
# 5 0.0000 0.0000 0.0000 0.0000 33.2373 0.0000
# 6 0.0000 0.0000 0.0000 0.0000 0.0000 2.6917
#
#
#
# Elastic Compliance Matrix: (Units=1/GPa)
#
#
# Indices 1 2 3 4 5 6 
#
# 1 0.010742 0.000458 -0.006708 0.000000 0.000000 0.000000
# 2 0.000458 0.041552 -0.010871 0.000000 0.000000 0.000000
# 3 -0.006708 -0.010871 0.023655 0.000000 0.000000 0.000000
# 4 0.000000 0.000000 0.000000 0.051874 0.000000 0.000000
# 5 0.000000 0.000000 0.000000 0.000000 0.030087 0.000000
# 6 0.000000 0.000000 0.000000 0.000000 0.000000 0.371508
#
#
# Mechanical properties :
#
#
# Convention : Reuss Voigt Hill
#
# Bulk Modulus (GPa) = 23.97724 35.92915 29.95320
# Shear Modulus (GPa) = 8.65710 20.58057 14.61883
#
# Velocity S-wave (km/s) = 2.16688 3.34100 2.81582
# Velocity P-wave (km/s) = 4.38919 5.86259 5.17856
#
# Compressibility (1/GPa) = 0.04170621
#
# Stress axis : x y z
#
# Youngs Moduli (GPa) = 93.09632 24.06625 42.27453
#
# Poissons Ratio (x) = -0.01102 0.28356
# Poissons Ratio (y) = -0.04263 0.45958
# Poissons Ratio (z) = 0.62445 0.26163
#
# Static dielectric constant tensor:
#      x y z
#    x 4.089020 0.000000 0.000000 
#    y 0.000000 2.922910 0.000000 
#    z 0.000000 0.000000 3.363900 
# 
# 
# High freq. dielectric constant tensor:
#      x y z
#    x 1.747750 0.000000 0.000000 
#    y 0.000000 1.646940 0.000000 
#    z 0.000000 0.000000 1.719590 
# 
# From -- ./inp_files/11963.got.cif
#   From: 2010.03.12/outbox.cif.g09.slc.cpg/sg63_6_cif.got.tgz:11963.got - 2010.04.10 19:34:48.
