data_PCOD8261206
_publ_section_title
;
Structure prediction by ZEFSAII (Michael W. Deem and Ramdas Pophale) SiO2 
 PCOD8261206
Probable space group: C M C M
;
_chemical_formula_sum "Si O2"
_cell_formula_units_Z 88
_cell_length_a 17.760504
_cell_length_b 28.773792
_cell_length_c 8.737290
_cell_angle_alpha 90.000000
_cell_angle_beta 90.000000
_cell_angle_gamma 90.000000
_cell_volume 4465.078888
_symmetry_space_group_name_H-M "C M C M"
_symmetry_group_IT_number 63
_symmetry_cell_setting 'orthorhombic'
loop_
_space_group_symop_operation_xyz
x,y,z
-x,-y,1/2+z
x,-y,-z
-x,y,1/2-z
-x,-y,-z
x,y,1/2-z
-x,y,z
x,-y,1/2+z
1/2+x,1/2+y,z
1/2-x,1/2-y,1/2+z
1/2+x,1/2-y,-z
1/2-x,1/2+y,1/2-z
1/2-x,1/2-y,-z
1/2+x,1/2+y,1/2-z
1/2-x,1/2+y,z
1/2+x,1/2-y,1/2+z
loop_
_atom_site_type_symbol
_atom_site_label
_atom_site_fract_x
_atom_site_fract_y
_atom_site_fract_z
Si Si1 0.359655 0.104052 0.430556
Si Si2 0.089408 0.203165 0.419021
Si Si3 0.000000 0.550868 0.931560
Si Si4 0.412700 0.194543 0.930516
Si Si5 0.083407 0.889673 0.070652
Si Si6 0.722008 0.550682 0.567969
O O1 0.366007 0.096546 0.250000
O O2 0.426406 0.077403 0.514225
O O3 0.363367 0.158428 0.472612
O O4 0.281397 0.084911 0.492181
O O5 0.122416 0.194381 0.250000
O O6 0.115787 0.253820 0.479622
O O7 0.116924 0.160640 0.523726
O O8 0.000000 0.204919 0.412089
O O9 0.000000 0.547988 0.750000
O O10 0.000000 0.500000 0.000000
O O11 0.400572 0.186846 0.750000
O O12 0.500000 0.187132 0.972980
O O13 0.076102 0.889226 0.250000
O O14 0.139578 0.930512 0.018980
O O15 0.000000 0.898429 0.997771
O O16 0.733177 0.500000 0.500000
O O17 0.732977 0.549712 0.750000
#
# Coordination Sequence:
#
# PCOD8261206 Si02
#       6
#    16  16   8  16  16  16
#     4  12  24  38  57  85 116 150 196 240 284 337
#     4   8  15  29  53  85 117 150 187 228 280 337
#     4  12  24  40  60  82 112 150 194 242 289 338
#     4   9  17  32  55  83 117 156 193 233 283 334
#     4   9  19  37  61  88 116 147 186 234 288 347
#     4  11  24  42  61  82 113 151 189 236 296 348
#
# _framework density 19.708499
#
# number of rings (size 3 to 8) (size 9 to 14) (size 15 to 20)
#    0.000    2.000    0.909    4.636    0.000    2.545 
#    0.000    2.727    0.000    0.000    0.000    0.000 
#    0.000    0.000    0.000    0.000    0.000    0.000 
#
# Total GULP energy -545506.848025 kJ/mol
# GULP energy per Si atom -12397.882910 kJ/mol
# Density = 1.966364 g / cm^3
# Si number density = 19.708499 Si / 1000 Ang^3
#
#
#
# Elastic Constant Matrix: (Units=GPa)
#
#
# Indices 1 2 3 4 5 6 
#
# 1 74.4424 25.0485 36.7578 0.0000 0.0000 0.0000
# 2 25.0485 65.4413 20.2294 0.0000 0.0000 0.0000
# 3 36.7578 20.2294 80.7582 0.0000 0.0000 0.0000
# 4 0.0000 0.0000 0.0000 37.2763 0.0000 0.0000
# 5 0.0000 0.0000 0.0000 0.0000 11.0382 0.0000
# 6 0.0000 0.0000 0.0000 0.0000 0.0000 43.0816
#
#
#
# Elastic Compliance Matrix: (Units=1/GPa)
#
#
# Indices 1 2 3 4 5 6 
#
# 1 0.018672 -0.004899 -0.007272 0.000000 0.000000 0.000000
# 2 -0.004899 0.017849 -0.002241 0.000000 0.000000 0.000000
# 3 -0.007272 -0.002241 0.016254 0.000000 0.000000 0.000000
# 4 0.000000 0.000000 0.000000 0.026827 0.000000 0.000000
# 5 0.000000 0.000000 0.000000 0.000000 0.090594 0.000000
# 6 0.000000 0.000000 0.000000 0.000000 0.000000 0.023212
#
#
# Mechanical properties :
#
#
# Convention : Reuss Voigt Hill
#
# Bulk Modulus (GPa) = 41.75185 42.74590 42.24887
# Shear Modulus (GPa) = 21.71882 27.51965 24.61923
#
# Velocity S-wave (km/s) = 3.32324 3.74081 3.53819
# Velocity P-wave (km/s) = 5.99633 6.35566 6.17860
#
# Compressibility (1/GPa) = 0.02395103
#
# Stress axis : x y z
#
# Youngs Moduli (GPa) = 53.55542 56.02590 61.52417
#
# Poissons Ratio (x) = 0.27448 0.44738
# Poissons Ratio (y) = 0.26238 0.13788
# Poissons Ratio (z) = 0.38943 0.12556
#
# Static dielectric constant tensor:
#      x y z
#    x 3.947190 0.000000 0.000000 
#    y 0.000000 3.913620 0.000000 
#    z 0.000000 0.000000 3.584000 
# 
# 
# High freq. dielectric constant tensor:
#      x y z
#    x 1.746830 0.000000 0.000000 
#    y 0.000000 1.783840 0.000000 
#    z 0.000000 0.000000 1.764130 
# 
# From -- ./inp_files/6895.got.cif
#   From: 2010.03.12/outbox.cif.g09.slc.cpg/sg63_4_cif.got.tgz:6895.got - 2010.04.10 19:34:48.
