data_PCOD8261743
_publ_section_title
;
Structure prediction by ZEFSAII (Michael W. Deem and Ramdas Pophale) SiO2 
 PCOD8261743
Probable space group: C M C A
;
_chemical_formula_sum "Si O2"
_cell_formula_units_Z 80
_cell_length_a 9.003662
_cell_length_b 25.164026
_cell_length_c 19.898345
_cell_angle_alpha 90.000000
_cell_angle_beta 90.000000
_cell_angle_gamma 90.000000
_cell_volume 4508.335884
_symmetry_space_group_name_H-M "C M C A"
_symmetry_group_IT_number 64
_symmetry_cell_setting 'orthorhombic'
loop_
_space_group_symop_operation_xyz
x,y,z
-x,1/2-y,1/2+z
x,-y,-z
-x,1/2+y,1/2-z
-x,-y,-z
x,1/2+y,1/2-z
-x,y,z
x,1/2-y,1/2+z
1/2+x,1/2+y,z
1/2-x,-y,1/2+z
1/2+x,1/2-y,-z
1/2-x,y,1/2-z
1/2-x,1/2-y,-z
1/2+x,y,1/2-z
1/2-x,1/2+y,z
1/2+x,-y,1/2+z
loop_
_atom_site_type_symbol
_atom_site_label
_atom_site_fract_x
_atom_site_fract_y
_atom_site_fract_z
Si Si1 0.174175 0.593814 0.603020
Si Si2 0.323671 0.312857 0.320188
Si Si3 0.667300 0.489761 0.578838
Si Si4 0.171686 0.887843 0.948749
Si Si5 0.327049 0.769146 0.566839
O O1 0.260782 0.631276 0.654307
O O2 0.233022 0.534067 0.615556
O O3 0.211639 0.612803 0.527707
O O4 0.000000 0.595982 0.618611
O O5 0.500000 0.317075 0.312774
O O6 0.250000 0.297863 0.250000
O O7 0.274447 0.265997 0.370539
O O8 0.671424 0.500000 0.500000
O O9 0.500000 0.492183 0.607062
O O10 0.734124 0.431344 0.592321
O O11 0.212498 0.830546 0.918054
O O12 0.000000 0.902627 0.939371
O O13 0.500000 0.762494 0.553460
O O14 0.250000 0.750000 0.500000
#
# Coordination Sequence:
#
# PCOD8261743 Si02
#       5
#    16  16  16  16  16
#     4  10  18  31  52  75 104 138 173 217 269 320
#     4  11  23  37  54  77 108 144 182 222 269 324
#     4   9  17  28  45  73 106 136 169 211 258 311
#     4   9  17  30  49  76 106 136 172 217 269 319
#     4  10  20  34  54  79 107 140 179 225 272 323
#
# _framework density 17.744906
#
# number of rings (size 3 to 8) (size 9 to 14) (size 15 to 20)
#    0.000    2.200    2.000    1.800    0.000    4.800 
#    0.000    0.000    0.000    1.200    0.000    5.600 
#    0.000    0.000    0.000    0.000    0.000    0.000 
#
# Total GULP energy -496064.088062 kJ/mol
# GULP energy per Si atom -12401.602202 kJ/mol
# Density = 1.770452 g / cm^3
# Si number density = 17.744906 Si / 1000 Ang^3
#
#
#
# Elastic Constant Matrix: (Units=GPa)
#
#
# Indices 1 2 3 4 5 6 
#
# 1 86.8616 54.7197 46.6422 0.0000 0.0000 0.0000
# 2 54.7197 140.0270 62.0742 0.0000 0.0000 0.0000
# 3 46.6422 62.0742 83.3513 0.0000 0.0000 0.0000
# 4 0.0000 0.0000 0.0000 18.3308 0.0000 0.0000
# 5 0.0000 0.0000 0.0000 0.0000 23.7395 0.0000
# 6 0.0000 0.0000 0.0000 0.0000 0.0000 32.1829
#
#
#
# Elastic Compliance Matrix: (Units=1/GPa)
#
#
# Indices 1 2 3 4 5 6 
#
# 1 0.017698 -0.003771 -0.007095 0.000000 0.000000 0.000000
# 2 -0.003771 0.011464 -0.006428 0.000000 0.000000 0.000000
# 3 -0.007095 -0.006428 0.020755 0.000000 0.000000 0.000000
# 4 0.000000 0.000000 0.000000 0.054553 0.000000 0.000000
# 5 0.000000 0.000000 0.000000 0.000000 0.042124 0.000000
# 6 0.000000 0.000000 0.000000 0.000000 0.000000 0.031072
#
#
# Mechanical properties :
#
#
# Convention : Reuss Voigt Hill
#
# Bulk Modulus (GPa) = 65.23393 70.79022 68.01207
# Shear Modulus (GPa) = 23.00284 24.63757 23.82020
#
# Velocity S-wave (km/s) = 3.60433 3.73021 3.66781
# Velocity P-wave (km/s) = 7.35958 7.65065 7.50653
#
# Compressibility (1/GPa) = 0.01532945
#
# Stress axis : x y z
#
# Youngs Moduli (GPa) = 56.50370 87.22597 48.18110
#
# Poissons Ratio (x) = 0.32889 0.34187
# Poissons Ratio (y) = 0.21305 0.30971
# Poissons Ratio (z) = 0.40092 0.56069
#
# Static dielectric constant tensor:
#      x y z
#    x 3.381750 0.000000 0.000000 
#    y 0.000000 3.053230 0.000000 
#    z 0.000000 0.000000 3.020510 
# 
# 
# High freq. dielectric constant tensor:
#      x y z
#    x 1.696160 0.000000 0.000000 
#    y 0.000000 1.701870 0.000000 
#    z 0.000000 0.000000 1.637460 
# 
# From -- ./inp_files/29787.got.cif
#   From: 2010.03.12/outbox.cif.g09.slc.cpg/sg64_15_cif.got.tgz:29787.got - 2010.04.10 20:19:32.
