data_PCOD8261653
_publ_section_title
;
Structure prediction by ZEFSAII (Michael W. Deem and Ramdas Pophale) SiO2 
 PCOD8261653
Probable space group: C M C A
;
_chemical_formula_sum "Si O2"
_cell_formula_units_Z 80
_cell_length_a 9.214002
_cell_length_b 24.687129
_cell_length_c 20.693410
_cell_angle_alpha 90.000000
_cell_angle_beta 90.000000
_cell_angle_gamma 90.000000
_cell_volume 4707.073190
_symmetry_space_group_name_H-M "C M C A"
_symmetry_group_IT_number 64
_symmetry_cell_setting 'orthorhombic'
loop_
_space_group_symop_operation_xyz
x,y,z
-x,1/2-y,1/2+z
x,-y,-z
-x,1/2+y,1/2-z
-x,-y,-z
x,1/2+y,1/2-z
-x,y,z
x,1/2-y,1/2+z
1/2+x,1/2+y,z
1/2-x,-y,1/2+z
1/2+x,1/2-y,-z
1/2-x,y,1/2-z
1/2-x,1/2-y,-z
1/2+x,y,1/2-z
1/2-x,1/2+y,z
1/2+x,-y,1/2+z
loop_
_atom_site_type_symbol
_atom_site_label
_atom_site_fract_x
_atom_site_fract_y
_atom_site_fract_z
Si Si1 0.829012 0.619621 0.817309
Si Si2 0.331030 0.181773 0.057685
Si Si3 0.332317 0.458893 0.092750
Si Si4 0.332548 0.784402 0.086685
Si Si5 0.167036 0.423345 0.549997
O O1 0.750000 0.627473 0.750000
O O2 0.769102 0.566171 0.852364
O O3 0.790659 0.672325 0.859211
O O4 0.000000 0.612591 0.807078
O O5 0.500000 0.180610 0.072673
O O6 0.261367 0.230526 0.098907
O O7 0.263137 0.124748 0.079685
O O8 0.294269 0.189727 0.982373
O O9 0.500000 0.444941 0.107085
O O10 0.308043 0.523503 0.093520
O O11 0.285446 0.435430 0.023416
O O12 0.500000 0.767703 0.089892
O O13 0.000000 0.405463 0.551669
#
# Coordination Sequence:
#
# PCOD8261653 Si02
#       5
#    16  16  16  16  16
#     4  11  22  36  53  74 102 136 173 211 249 295
#     4  10  18  29  49  76 103 131 165 207 254 302
#     4   9  18  32  50  74 102 135 171 205 249 300
#     4   9  19  33  47  70 102 134 168 205 252 302
#     4   9  17  30  50  75 105 135 163 203 255 305
#
# _framework density 16.995698999999998
#
# number of rings (size 3 to 8) (size 9 to 14) (size 15 to 20)
#    0.000    2.400    2.000    2.400    0.000    3.200 
#    0.000    2.000    0.000    1.200    0.000    5.600 
#    0.000    0.000    0.000    0.000    0.000    0.000 
#
# Total GULP energy -496077.577052 kJ/mol
# GULP energy per Si atom -12401.939426 kJ/mol
# Density = 1.695702 g / cm^3
# Si number density = 16.995699 Si / 1000 Ang^3
#
#
#
# Elastic Constant Matrix: (Units=GPa)
#
#
# Indices 1 2 3 4 5 6 
#
# 1 90.6157 69.7003 40.8736 0.0000 0.0000 0.0000
# 2 69.7003 127.7879 38.3667 0.0000 0.0000 0.0000
# 3 40.8736 38.3667 73.6395 0.0000 0.0000 0.0000
# 4 0.0000 0.0000 0.0000 20.0838 0.0000 0.0000
# 5 0.0000 0.0000 0.0000 0.0000 23.0079 0.0000
# 6 0.0000 0.0000 0.0000 0.0000 0.0000 35.5172
#
#
#
# Elastic Compliance Matrix: (Units=1/GPa)
#
#
# Indices 1 2 3 4 5 6 
#
# 1 0.021648 -0.009721 -0.006951 0.000000 0.000000 0.000000
# 2 -0.009721 0.013641 -0.001712 0.000000 0.000000 0.000000
# 3 -0.006951 -0.001712 0.018330 0.000000 0.000000 0.000000
# 4 0.000000 0.000000 0.000000 0.049791 0.000000 0.000000
# 5 0.000000 0.000000 0.000000 0.000000 0.043463 0.000000
# 6 0.000000 0.000000 0.000000 0.000000 0.000000 0.028155
#
#
# Mechanical properties :
#
#
# Convention : Reuss Voigt Hill
#
# Bulk Modulus (GPa) = 59.34053 65.54714 62.44384
# Shear Modulus (GPa) = 22.99758 25.26195 24.12976
#
# Velocity S-wave (km/s) = 3.68250 3.85953 3.77205
# Velocity P-wave (km/s) = 7.28504 7.64931 7.46940
#
# Compressibility (1/GPa) = 0.01685189
#
# Stress axis : x y z
#
# Youngs Moduli (GPa) = 46.19348 73.30610 54.55593
#
# Poissons Ratio (x) = 0.71258 0.37923
# Poissons Ratio (y) = 0.44903 0.09339
# Poissons Ratio (z) = 0.32110 0.12549
#
# Static dielectric constant tensor:
#      x y z
#    x 3.154310 0.000000 0.000000 
#    y 0.000000 3.238350 0.000000 
#    z 0.000000 0.000000 2.840660 
# 
# 
# High freq. dielectric constant tensor:
#      x y z
#    x 1.661750 0.000000 0.000000 
#    y 0.000000 1.665780 0.000000 
#    z 0.000000 0.000000 1.611480 
# 
# From -- ./inp_files/29767.got.cif
#   From: 2010.03.12/outbox.cif.g09.slc.cpg/sg64_15_cif.got.tgz:29767.got - 2010.04.10 20:19:32.
