data_PCOD8261166
_publ_section_title
;
Structure prediction by ZEFSAII (Michael W. Deem and Ramdas Pophale) SiO2 
 PCOD8261166
Probable space group: C M C M
;
_chemical_formula_sum "Si O2"
_cell_formula_units_Z 104
_cell_length_a 27.530137
_cell_length_b 20.719020
_cell_length_c 9.039749
_cell_angle_alpha 90.000000
_cell_angle_beta 90.000000
_cell_angle_gamma 90.000000
_cell_volume 5156.249861
_symmetry_space_group_name_H-M "C M C M"
_symmetry_group_IT_number 63
_symmetry_cell_setting 'orthorhombic'
loop_
_space_group_symop_operation_xyz
x,y,z
-x,-y,1/2+z
x,-y,-z
-x,y,1/2-z
-x,-y,-z
x,y,1/2-z
-x,y,z
x,-y,1/2+z
1/2+x,1/2+y,z
1/2-x,1/2-y,1/2+z
1/2+x,1/2-y,-z
1/2-x,1/2+y,1/2-z
1/2-x,1/2-y,-z
1/2+x,1/2+y,1/2-z
1/2-x,1/2+y,z
1/2+x,1/2-y,1/2+z
loop_
_atom_site_type_symbol
_atom_site_label
_atom_site_fract_x
_atom_site_fract_y
_atom_site_fract_z
Si Si1 0.134294 0.313924 0.574359
Si Si2 0.447165 0.394455 0.918652
Si Si3 0.209193 0.092937 0.590316
Si Si4 0.629926 0.500000 0.500000
Si Si5 0.796494 0.781185 0.575222
Si Si6 0.943202 0.752808 0.917520
Si Si7 0.180873 0.436816 0.079155
O O1 0.140658 0.315374 0.750000
O O2 0.157391 0.250875 0.499447
O O3 0.078729 0.303468 0.523814
O O4 0.158958 0.376555 0.506737
O O5 0.456947 0.378088 0.750000
O O6 0.500000 0.417057 0.987038
O O7 0.431389 0.324790 0.985583
O O8 0.405634 0.448413 0.924894
O O9 0.210624 0.128851 0.750000
O O10 0.199864 0.142653 0.457536
O O11 0.261091 0.060259 0.562560
O O12 0.166545 0.039447 0.605318
O O13 0.794854 0.769645 0.750000
O O14 0.750000 0.750000 0.500000
O O15 0.922507 0.745481 0.750000
O O16 0.000000 0.740448 0.918970
O O17 0.164573 0.434791 0.250000
O O18 0.159158 0.500000 0.000000
#
# Coordination Sequence:
#
# PCOD8261166 Si02
#       7
#    16  16  16   8  16  16  16
#     4  12  24  39  63  92 123 159 203 252 312 373
#     4   9  19  36  57  82 114 156 205 253 303 360
#     4  11  24  38  55  83 120 160 205 254 303 362
#     4  12  21  34  56  84 120 164 211 256 302 348
#     4  12  24  39  60  84 115 155 204 259 316 371
#     4   9  19  39  66  94 124 160 204 253 310 372
#     4  11  23  41  61  85 122 163 205 246 297 363
#
# _framework density 20.169696999999999
#
# number of rings (size 3 to 8) (size 9 to 14) (size 15 to 20)
#    0.000    1.231    2.308    5.769    0.000    3.385 
#    0.000    0.769    0.000    2.308    0.000    0.000 
#    0.000    0.000    0.000    0.000    0.000    0.000 
#
# Total GULP energy -644360.660038 kJ/mol
# GULP energy per Si atom -12391.551155 kJ/mol
# Density = 2.012379 g / cm^3
# Si number density = 20.169697 Si / 1000 Ang^3
#
#
#
# Elastic Constant Matrix: (Units=GPa)
#
#
# Indices 1 2 3 4 5 6 
#
# 1 97.8228 52.6440 40.4831 0.0000 0.0000 0.0000
# 2 52.6440 87.6229 53.5888 0.0000 0.0000 0.0000
# 3 40.4831 53.5888 147.5354 0.0000 0.0000 0.0000
# 4 0.0000 0.0000 0.0000 32.1182 0.0000 0.0000
# 5 0.0000 0.0000 0.0000 0.0000 24.4969 0.0000
# 6 0.0000 0.0000 0.0000 0.0000 0.0000 37.1690
#
#
#
# Elastic Compliance Matrix: (Units=1/GPa)
#
#
# Indices 1 2 3 4 5 6 
#
# 1 0.015245 -0.008486 -0.001101 0.000000 0.000000 0.000000
# 2 -0.008486 0.019395 -0.004716 0.000000 0.000000 0.000000
# 3 -0.001101 -0.004716 0.008793 0.000000 0.000000 0.000000
# 4 0.000000 0.000000 0.000000 0.031135 0.000000 0.000000
# 5 0.000000 0.000000 0.000000 0.000000 0.040822 0.000000
# 6 0.000000 0.000000 0.000000 0.000000 0.000000 0.026904
#
#
# Mechanical properties :
#
#
# Convention : Reuss Voigt Hill
#
# Bulk Modulus (GPa) = 67.44370 69.60144 68.52257
# Shear Modulus (GPa) = 28.43447 31.17448 29.80448
#
# Velocity S-wave (km/s) = 3.75875 3.93569 3.84824
# Velocity P-wave (km/s) = 7.23522 7.43207 7.33431
#
# Compressibility (1/GPa) = 0.01482718
#
# Stress axis : x y z
#
# Youngs Moduli (GPa) = 65.59582 51.55868 113.72389
#
# Poissons Ratio (x) = 0.43752 0.12519
# Poissons Ratio (y) = 0.55664 0.53637
# Poissons Ratio (z) = 0.07221 0.24317
#
# Static dielectric constant tensor:
#      x y z
#    x 2.367650 0.000000 0.000000 
#    y 0.000000 3.642020 0.000000 
#    z 0.000000 0.000000 3.772220 
# 
# 
# High freq. dielectric constant tensor:
#      x y z
#    x 1.789820 0.000000 0.000000 
#    y 0.000000 1.783200 0.000000 
#    z 0.000000 0.000000 1.778440 
# 
# From -- ./inp_files/12605.got.cif
#   From: 2010.03.12/outbox.cif.g09.slc.cpg/sg63_7_cif.got.tgz:12605.got - 2010.04.10 19:34:48.
