data_PCOD8261760
_publ_section_title
;
Structure prediction by ZEFSAII (Michael W. Deem and Ramdas Pophale) SiO2 
 PCOD8261760
Probable space group: C M C A
;
_chemical_formula_sum "Si O2"
_cell_formula_units_Z 112
_cell_length_a 14.619819
_cell_length_b 27.519009
_cell_length_c 14.642213
_cell_angle_alpha 90.000000
_cell_angle_beta 90.000000
_cell_angle_gamma 90.000000
_cell_volume 5890.898045
_symmetry_space_group_name_H-M "C M C A"
_symmetry_group_IT_number 64
_symmetry_cell_setting 'orthorhombic'
loop_
_space_group_symop_operation_xyz
x,y,z
-x,1/2-y,1/2+z
x,-y,-z
-x,1/2+y,1/2-z
-x,-y,-z
x,1/2+y,1/2-z
-x,y,z
x,1/2-y,1/2+z
1/2+x,1/2+y,z
1/2-x,-y,1/2+z
1/2+x,1/2-y,-z
1/2-x,y,1/2-z
1/2-x,1/2-y,-z
1/2+x,y,1/2-z
1/2-x,1/2+y,z
1/2+x,-y,1/2+z
loop_
_atom_site_type_symbol
_atom_site_label
_atom_site_fract_x
_atom_site_fract_y
_atom_site_fract_z
Si Si1 0.298425 0.047472 0.155808
Si Si2 0.151013 0.021667 0.913962
Si Si3 0.248462 0.282729 0.356449
Si Si4 0.107544 0.234158 0.488616
Si Si5 0.222865 0.394117 0.123262
Si Si6 0.097455 0.461102 0.220742
Si Si7 0.396677 0.623338 0.457565
O O1 0.250000 0.059976 0.250000
O O2 0.332631 0.098533 0.117422
O O3 0.228689 0.019949 0.090236
O O4 0.382922 0.010397 0.166061
O O5 0.196075 0.075384 0.924487
O O6 0.087484 0.023705 0.826223
O O7 0.093488 0.000000 0.000000
O O8 0.250000 0.263564 0.250000
O O9 0.156984 0.267386 0.412047
O O10 0.338071 0.263865 0.413452
O O11 0.243026 0.340916 0.350787
O O12 0.113283 0.180817 0.446015
O O13 0.000000 0.249406 0.503061
O O14 0.180044 0.422087 0.211684
O O15 0.135550 0.392399 0.057253
O O16 0.000000 0.439690 0.188766
O O17 0.500000 0.605928 0.444131
#
# Coordination Sequence:
#
# PCOD8261760 Si02
#       7
#    16  16  16  16  16  16  16
#     4   9  18  31  48  72 102 142 179 216 261 321
#     4  10  18  32  49  71 102 143 177 213 261 319
#     4  10  20  37  61  85 110 153 189 234 294 353
#     4   9  21  38  56  86 119 143 184 241 290 347
#     4  10  19  34  53  79 108 135 180 225 273 329
#     4  10  20  31  47  74 108 138 178 228 266 315
#     4  10  18  31  54  79 105 134 171 222 275 321
#
# _framework density 19.01238
#
# number of rings (size 3 to 8) (size 9 to 14) (size 15 to 20)
#    0.000    2.286    1.429    3.000    0.000    2.000 
#    0.000    4.286    0.000    0.000    0.000    0.000 
#    0.000    0.000    0.000    0.000    0.000    0.000 
#
# Total GULP energy -693787.629428 kJ/mol
# GULP energy per Si atom -12389.064811 kJ/mol
# Density = 1.896911 g / cm^3
# Si number density = 19.012380 Si / 1000 Ang^3
#
#
#
# Elastic Constant Matrix: (Units=GPa)
#
#
# Indices 1 2 3 4 5 6 
#
# 1 104.4664 32.7056 24.0715 0.0000 0.0000 0.0000
# 2 32.7056 65.7573 34.1925 0.0000 0.0000 0.0000
# 3 24.0715 34.1925 95.9140 0.0000 0.0000 0.0000
# 4 0.0000 0.0000 0.0000 23.3841 0.0000 0.0000
# 5 0.0000 0.0000 0.0000 0.0000 10.3508 0.0000
# 6 0.0000 0.0000 0.0000 0.0000 0.0000 21.2260
#
#
#
# Elastic Compliance Matrix: (Units=1/GPa)
#
#
# Indices 1 2 3 4 5 6 
#
# 1 0.011421 -0.005143 -0.001033 0.000000 0.000000 0.000000
# 2 -0.005143 0.020984 -0.006190 0.000000 0.000000 0.000000
# 3 -0.001033 -0.006190 0.012892 0.000000 0.000000 0.000000
# 4 0.000000 0.000000 0.000000 0.042764 0.000000 0.000000
# 5 0.000000 0.000000 0.000000 0.000000 0.096611 0.000000
# 6 0.000000 0.000000 0.000000 0.000000 0.000000 0.047112
#
#
# Mechanical properties :
#
#
# Convention : Reuss Voigt Hill
#
# Bulk Modulus (GPa) = 48.62648 49.78632 49.20640
# Shear Modulus (GPa) = 18.98469 22.67005 20.82737
#
# Velocity S-wave (km/s) = 3.16340 3.45684 3.31337
# Velocity P-wave (km/s) = 6.24296 6.49431 6.36988
#
# Compressibility (1/GPa) = 0.02056492
#
# Stress axis : x y z
#
# Youngs Moduli (GPa) = 87.56074 47.65497 77.56863
#
# Poissons Ratio (x) = 0.24510 0.08010
# Poissons Ratio (y) = 0.45035 0.48014
# Poissons Ratio (z) = 0.09042 0.29498
#
# Static dielectric constant tensor:
#      x y z
#    x 3.411160 0.000000 0.000000 
#    y 0.000000 3.398210 0.000000 
#    z 0.000000 0.000000 3.552740 
# 
# 
# High freq. dielectric constant tensor:
#      x y z
#    x 1.733480 0.000000 0.000000 
#    y 0.000000 1.724310 0.000000 
#    z 0.000000 0.000000 1.745040 
# 
# From -- ./inp_files/24373.got.cif
#   From: 2010.03.12/outbox.cif.g09.slc.cpg/sg64_13_cif.got.tgz:24373.got - 2010.04.10 20:19:32.
