data_PCOD8261935
_publ_section_title
;
Structure prediction by ZEFSAII (Michael W. Deem and Ramdas Pophale) SiO2 
 PCOD8261935
Probable space group: C M C A
;
_chemical_formula_sum "Si O2"
_cell_formula_units_Z 104
_cell_length_a 16.464602
_cell_length_b 21.142695
_cell_length_c 15.130576
_cell_angle_alpha 90.000000
_cell_angle_beta 90.000000
_cell_angle_gamma 90.000000
_cell_volume 5267.045172
_symmetry_space_group_name_H-M "C M C A"
_symmetry_group_IT_number 64
_symmetry_cell_setting 'orthorhombic'
loop_
_space_group_symop_operation_xyz
x,y,z
-x,1/2-y,1/2+z
x,-y,-z
-x,1/2+y,1/2-z
-x,-y,-z
x,1/2+y,1/2-z
-x,y,z
x,1/2-y,1/2+z
1/2+x,1/2+y,z
1/2-x,-y,1/2+z
1/2+x,1/2-y,-z
1/2-x,y,1/2-z
1/2-x,1/2-y,-z
1/2+x,y,1/2-z
1/2-x,1/2+y,z
1/2+x,-y,1/2+z
loop_
_atom_site_type_symbol
_atom_site_label
_atom_site_fract_x
_atom_site_fract_y
_atom_site_fract_z
Si Si1 0.908519 0.908234 0.575801
Si Si2 0.906026 0.681824 0.417963
Si Si3 0.403718 0.810752 0.778499
Si Si4 0.093781 0.830530 0.215950
Si Si5 0.367493 0.174675 0.916167
Si Si6 0.212406 0.500000 0.000000
Si Si7 0.802092 0.619591 0.566555
O O1 0.872808 0.861019 0.650129
O O2 0.911946 0.873028 0.482191
O O3 0.000000 0.931410 0.599166
O O4 0.846203 0.966486 0.571963
O O5 0.872272 0.669765 0.318813
O O6 0.895773 0.755351 0.441871
O O7 0.856238 0.637313 0.482692
O O8 0.000000 0.663121 0.426913
O O9 0.500000 0.807562 0.775432
O O10 0.373024 0.740482 0.803769
O O11 0.104963 0.846176 0.318691
O O12 0.145224 0.878900 0.156188
O O13 0.000000 0.837634 0.189124
O O14 0.270668 0.169754 0.925575
O O15 0.268335 0.548924 0.946625
#
# Coordination Sequence:
#
# PCOD8261935 Si02
#       7
#    16  16  16  16  16   8  16
#     4  10  18  36  60  80 105 145 187 230 279 326
#     4  10  19  35  58  87 115 142 177 222 276 346
#     4   8  17  32  57  88 111 130 169 223 277 333
#     4  10  19  35  59  88 114 141 175 220 279 349
#     4  10  20  34  57  90 118 137 172 230 287 337
#     4  10  25  40  51  74 110 150 196 240 265 306
#     4  11  22  38  54  76 113 154 187 226 278 320
#
# _framework density 19.745417
#
# number of rings (size 3 to 8) (size 9 to 14) (size 15 to 20)
#    0.000    2.154    0.000    4.846    0.000    2.462 
#    0.000   13.846    0.000    3.692    0.000    0.000 
#    0.000    0.000    0.000    0.000    0.000    0.000 
#
# Total GULP energy -644852.758602 kJ/mol
# GULP energy per Si atom -12401.014588 kJ/mol
# Density = 1.970048 g / cm^3
# Si number density = 19.745417 Si / 1000 Ang^3
#
#
#
# Elastic Constant Matrix: (Units=GPa)
#
#
# Indices 1 2 3 4 5 6 
#
# 1 97.3616 43.0493 36.4632 0.0000 0.0000 0.0000
# 2 43.0493 103.1909 56.4257 0.0000 0.0000 0.0000
# 3 36.4632 56.4257 97.6875 0.0000 0.0000 0.0000
# 4 0.0000 0.0000 0.0000 11.7988 0.0000 0.0000
# 5 0.0000 0.0000 0.0000 0.0000 11.1719 0.0000
# 6 0.0000 0.0000 0.0000 0.0000 0.0000 25.3149
#
#
#
# Elastic Compliance Matrix: (Units=1/GPa)
#
#
# Indices 1 2 3 4 5 6 
#
# 1 0.013003 -0.004050 -0.002514 0.000000 0.000000 0.000000
# 2 -0.004050 0.015426 -0.007399 0.000000 0.000000 0.000000
# 3 -0.002514 -0.007399 0.015449 0.000000 0.000000 0.000000
# 4 0.000000 0.000000 0.000000 0.084754 0.000000 0.000000
# 5 0.000000 0.000000 0.000000 0.000000 0.089510 0.000000
# 6 0.000000 0.000000 0.000000 0.000000 0.000000 0.039502
#
#
# Mechanical properties :
#
#
# Convention : Reuss Voigt Hill
#
# Bulk Modulus (GPa) = 62.68665 63.34629 63.01647
# Shear Modulus (GPa) = 17.18874 20.47724 18.83299
#
# Velocity S-wave (km/s) = 2.95365 3.22384 3.09170
# Velocity P-wave (km/s) = 6.59155 6.78297 6.68794
#
# Compressibility (1/GPa) = 0.01595236
#
# Stress axis : x y z
#
# Youngs Moduli (GPa) = 76.90322 64.82599 64.73000
#
# Poissons Ratio (x) = 0.26254 0.16276
# Poissons Ratio (y) = 0.31145 0.47891
# Poissons Ratio (z) = 0.19337 0.47962
#
# Static dielectric constant tensor:
#      x y z
#    x 3.637310 0.000000 0.000000 
#    y 0.000000 3.444730 0.000000 
#    z 0.000000 0.000000 3.720420 
# 
# 
# High freq. dielectric constant tensor:
#      x y z
#    x 1.774140 0.000000 0.000000 
#    y 0.000000 1.741440 0.000000 
#    z 0.000000 0.000000 1.775350 
# 
# From -- ./inp_files/25622.got.cif
#   From: 2010.03.12/outbox.cif.g09.slc.cpg/sg64_13_cif.got.tgz:25622.got - 2010.04.10 20:19:32.
