data_PCOD8261708
_publ_section_title
;
Structure prediction by ZEFSAII (Michael W. Deem and Ramdas Pophale) SiO2 
 PCOD8261708
Probable space group: C M C A
;
_chemical_formula_sum "Si O2"
_cell_formula_units_Z 120
_cell_length_a 13.119362
_cell_length_b 18.563400
_cell_length_c 29.086383
_cell_angle_alpha 90.000000
_cell_angle_beta 90.000000
_cell_angle_gamma 90.000000
_cell_volume 7083.696685
_symmetry_space_group_name_H-M "C M C A"
_symmetry_group_IT_number 64
_symmetry_cell_setting 'orthorhombic'
loop_
_space_group_symop_operation_xyz
x,y,z
-x,1/2-y,1/2+z
x,-y,-z
-x,1/2+y,1/2-z
-x,-y,-z
x,1/2+y,1/2-z
-x,y,z
x,1/2-y,1/2+z
1/2+x,1/2+y,z
1/2-x,-y,1/2+z
1/2+x,1/2-y,-z
1/2-x,y,1/2-z
1/2-x,1/2-y,-z
1/2+x,y,1/2-z
1/2-x,1/2+y,z
1/2+x,-y,1/2+z
loop_
_atom_site_type_symbol
_atom_site_label
_atom_site_fract_x
_atom_site_fract_y
_atom_site_fract_z
Si Si1 0.799600 0.876585 0.418871
Si Si2 0.380695 0.711333 0.316858
Si Si3 0.250000 0.807829 0.250000
Si Si4 0.885381 0.443549 0.832358
Si Si5 0.380863 0.663892 0.488961
Si Si6 0.381901 0.221359 0.584186
Si Si7 0.879118 0.898372 0.320283
Si Si8 0.115917 0.472651 0.935425
O O1 0.851940 0.825898 0.457688
O O2 0.681494 0.853270 0.415229
O O3 0.855518 0.864100 0.370156
O O4 0.808291 0.959456 0.434511
O O5 0.500000 0.714898 0.304727
O O6 0.320122 0.759867 0.281830
O O7 0.336859 0.629339 0.311272
O O8 0.362003 0.737102 0.368555
O O9 0.175391 0.856126 0.280043
O O10 0.833875 0.519586 0.818320
O O11 0.883922 0.432438 0.886939
O O12 0.000000 0.448067 0.814199
O O13 0.500000 0.664493 0.480847
O O14 0.338759 0.729110 0.457543
O O15 0.341905 0.584841 0.472345
O O16 0.500000 0.200321 0.577950
O O17 0.000000 0.896062 0.312781
O O18 0.000000 0.499699 0.946659
#
# Coordination Sequence:
#
# PCOD8261708 Si02
#       8
#    16  16   8  16  16  16  16  16
#     4  11  19  31  49  78 107 132 157 203 264 300
#     4  10  19  35  54  72  97 132 170 207 244 292
#     4  12  22  34  52  76 102 132 168 204 254 302
#     4   8  15  31  53  72  98 130 160 203 250 287
#     4  10  18  30  52  80 106 130 163 205 249 303
#     4  10  20  34  50  72 101 134 173 203 235 298
#     4  10  21  35  51  77 105 128 162 210 260 301
#     4   9  16  28  50  79 105 127 160 205 248 292
#
# _framework density 16.940308000000002
#
# number of rings (size 3 to 8) (size 9 to 14) (size 15 to 20)
#    0.000    2.133    2.667    3.200    0.000    1.600 
#    0.000    0.000    0.000    1.600    0.000    7.467 
#    0.000    0.000    0.000    0.000    0.000    0.000 
#
# Total GULP energy -743562.482210 kJ/mol
# GULP energy per Si atom -12392.708037 kJ/mol
# Density = 1.690175 g / cm^3
# Si number density = 16.940308 Si / 1000 Ang^3
#
#
#
# Elastic Constant Matrix: (Units=GPa)
#
#
# Indices 1 2 3 4 5 6 
#
# 1 63.5954 58.4411 33.7725 0.0000 0.0000 0.0000
# 2 58.4411 105.1954 38.5895 0.0000 0.0000 0.0000
# 3 33.7725 38.5895 76.8634 0.0000 0.0000 0.0000
# 4 0.0000 0.0000 0.0000 26.5569 0.0000 0.0000
# 5 0.0000 0.0000 0.0000 0.0000 32.1253 0.0000
# 6 0.0000 0.0000 0.0000 0.0000 0.0000 10.5316
#
#
#
# Elastic Compliance Matrix: (Units=1/GPa)
#
#
# Indices 1 2 3 4 5 6 
#
# 1 0.034840 -0.016841 -0.006853 0.000000 0.000000 0.000000
# 2 -0.016841 0.019793 -0.002537 0.000000 0.000000 0.000000
# 3 -0.006853 -0.002537 0.017295 0.000000 0.000000 0.000000
# 4 0.000000 0.000000 0.000000 0.037655 0.000000 0.000000
# 5 0.000000 0.000000 0.000000 0.000000 0.031128 0.000000
# 6 0.000000 0.000000 0.000000 0.000000 0.000000 0.094952
#
#
# Mechanical properties :
#
#
# Convention : Reuss Voigt Hill
#
# Bulk Modulus (GPa) = 51.37446 56.36227 53.86836
# Shear Modulus (GPa) = 16.97129 21.49950 19.23540
#
# Velocity S-wave (km/s) = 3.16860 3.56635 3.37335
# Velocity P-wave (km/s) = 6.61659 7.09238 6.85861
#
# Compressibility (1/GPa) = 0.01946492
#
# Stress axis : x y z
#
# Youngs Moduli (GPa) = 28.70249 50.52254 57.82014
#
# Poissons Ratio (x) = 0.85087 0.39624
# Poissons Ratio (y) = 0.48339 0.14671
# Poissons Ratio (z) = 0.19670 0.12819
#
# Static dielectric constant tensor:
#      x y z
#    x 2.918810 0.000000 0.000000 
#    y 0.000000 3.309880 0.000000 
#    z 0.000000 0.000000 3.237910 
# 
# 
# High freq. dielectric constant tensor:
#      x y z
#    x 1.617230 0.000000 0.000000 
#    y 0.000000 1.656530 0.000000 
#    z 0.000000 0.000000 1.659680 
# 
# From -- ./inp_files/53013.got.cif
#   From: 2010.03.12/outbox.cif.g09.slc.cpg/sg64_27_cif.got.tgz:53013.got - 2010.04.10 20:19:32.
