data_PCOD8261918
_publ_section_title
;
Structure prediction by ZEFSAII (Michael W. Deem and Ramdas Pophale) SiO2 
 PCOD8261918
Probable space group: C M C A
;
_chemical_formula_sum "Si O2"
_cell_formula_units_Z 96
_cell_length_a 30.070825
_cell_length_b 7.424550
_cell_length_c 16.917322
_cell_angle_alpha 90.000000
_cell_angle_beta 90.000000
_cell_angle_gamma 90.000000
_cell_volume 3777.000960
_symmetry_space_group_name_H-M "C M C A"
_symmetry_group_IT_number 64
_symmetry_cell_setting 'orthorhombic'
loop_
_space_group_symop_operation_xyz
x,y,z
-x,1/2-y,1/2+z
x,-y,-z
-x,1/2+y,1/2-z
-x,-y,-z
x,1/2+y,1/2-z
-x,y,z
x,1/2-y,1/2+z
1/2+x,1/2+y,z
1/2-x,-y,1/2+z
1/2+x,1/2-y,-z
1/2-x,y,1/2-z
1/2-x,1/2-y,-z
1/2+x,y,1/2-z
1/2-x,1/2+y,z
1/2+x,-y,1/2+z
loop_
_atom_site_type_symbol
_atom_site_label
_atom_site_fract_x
_atom_site_fract_y
_atom_site_fract_z
Si Si1 0.000000 0.297534 0.832274
Si Si2 0.904027 0.694721 0.164600
Si Si3 0.684500 0.889143 0.910227
Si Si4 0.259630 0.429496 0.158644
Si Si5 0.095678 0.383169 0.651466
Si Si6 0.680161 0.833316 0.559169
Si Si7 0.000000 0.379292 0.651535
O O1 0.953082 0.383491 0.862066
O O2 0.000000 0.304460 0.738954
O O3 0.000000 0.091646 0.855389
O O4 0.866548 0.586874 0.116303
O O5 0.897860 0.672653 0.257947
O O6 0.899538 0.903132 0.142817
O O7 0.706900 0.733453 0.856105
O O8 0.711246 0.075390 0.886595
O O9 0.689806 0.842309 0.003170
O O10 0.250000 0.459435 0.250000
O O11 0.281527 0.615708 0.123360
O O12 0.133590 0.289098 0.600574
O O13 0.047576 0.315384 0.615791
O O14 0.675159 0.000000 0.500000
#
# Coordination Sequence:
#
# PCOD8261918 Si02
#       7
#     8  16  16  16  16  16   8
#     4   8  16  30  53  82 113 140 179 223 275 323
#     4  10  19  35  58  85 112 146 184 230 273 328
#     4  11  23  38  58  80 115 149 184 233 287 330
#     4  11  22  38  58  81 106 146 194 234 278 333
#     4  10  18  35  59  83 116 144 187 228 279 330
#     4  10  20  38  55  75 114 151 180 229 284 329
#     4   8  16  28  52  87 110 143 177 227 275 329
#
# _framework density 25.416992
#
# number of rings (size 3 to 8) (size 9 to 14) (size 15 to 20)
#    0.000    2.000    3.333    2.000    0.000    0.000 
#    0.000    1.250    0.000    0.000    0.000    0.000 
#    0.000   13.333    0.000    0.000    0.000    0.000 
#
# Total GULP energy -594830.781227 kJ/mol
# GULP energy per Si atom -12392.307942 kJ/mol
# Density = 2.535914 g / cm^3
# Si number density = 25.416992 Si / 1000 Ang^3
#
#
#
# Elastic Constant Matrix: (Units=GPa)
#
#
# Indices 1 2 3 4 5 6 
#
# 1 223.0384 9.0448 80.4797 0.0000 0.0000 0.0000
# 2 9.0448 67.5923 9.3075 0.0000 0.0000 0.0000
# 3 80.4797 9.3075 144.2589 0.0000 0.0000 0.0000
# 4 0.0000 0.0000 0.0000 16.5970 0.0000 0.0000
# 5 0.0000 0.0000 0.0000 0.0000 26.4255 0.0000
# 6 0.0000 0.0000 0.0000 0.0000 0.0000 20.8022
#
#
#
# Elastic Compliance Matrix: (Units=1/GPa)
#
#
# Indices 1 2 3 4 5 6 
#
# 1 0.005621 -0.000323 -0.003115 0.000000 0.000000 0.000000
# 2 -0.000323 0.014946 -0.000784 0.000000 0.000000 0.000000
# 3 -0.003115 -0.000784 0.008720 0.000000 0.000000 0.000000
# 4 0.000000 0.000000 0.000000 0.060252 0.000000 0.000000
# 5 0.000000 0.000000 0.000000 0.000000 0.037842 0.000000
# 6 0.000000 0.000000 0.000000 0.000000 0.000000 0.048072
#
#
# Mechanical properties :
#
#
# Convention : Reuss Voigt Hill
#
# Bulk Modulus (GPa) = 47.97847 70.28371 59.13109
# Shear Modulus (GPa) = 26.19941 35.16879 30.68410
#
# Velocity S-wave (km/s) = 3.21406 3.72381 3.47829
# Velocity P-wave (km/s) = 5.71762 6.79715 6.28062
#
# Compressibility (1/GPa) = 0.02084268
#
# Stress axis : x y z
#
# Youngs Moduli (GPa) = 177.91857 66.90850 114.67576
#
# Poissons Ratio (x) = 0.02162 0.35719
# Poissons Ratio (y) = 0.05750 0.08990
# Poissons Ratio (z) = 0.55417 0.05246
#
# Static dielectric constant tensor:
#      x y z
#    x 5.504760 0.000000 0.000000 
#    y 0.000000 4.970810 0.000000 
#    z 0.000000 0.000000 4.287980 
# 
# 
# High freq. dielectric constant tensor:
#      x y z
#    x 2.043700 0.000000 0.000000 
#    y 0.000000 2.037600 0.000000 
#    z 0.000000 0.000000 1.989720 
# 
# From -- ./inp_files/28339.got.cif
#   From: 2010.03.12/outbox.cif.g09.slc.cpg/sg64_15_cif.got.tgz:28339.got - 2010.04.10 20:19:32.
