data_PCOD8261342
_publ_section_title
;
Structure prediction by ZEFSAII (Michael W. Deem and Ramdas Pophale) SiO2 
 PCOD8261342
Probable space group: C M C M
;
_chemical_formula_sum "Si O2"
_cell_formula_units_Z 96
_cell_length_a 9.612003
_cell_length_b 19.279779
_cell_length_c 30.725830
_cell_angle_alpha 90.000000
_cell_angle_beta 90.000000
_cell_angle_gamma 90.000000
_cell_volume 5694.027659
_symmetry_space_group_name_H-M "C M C M"
_symmetry_group_IT_number 63
_symmetry_cell_setting 'orthorhombic'
loop_
_space_group_symop_operation_xyz
x,y,z
-x,-y,1/2+z
x,-y,-z
-x,y,1/2-z
-x,-y,-z
x,y,1/2-z
-x,y,z
x,-y,1/2+z
1/2+x,1/2+y,z
1/2-x,1/2-y,1/2+z
1/2+x,1/2-y,-z
1/2-x,1/2+y,1/2-z
1/2-x,1/2-y,-z
1/2+x,1/2+y,1/2-z
1/2-x,1/2+y,z
1/2+x,1/2-y,1/2+z
loop_
_atom_site_type_symbol
_atom_site_label
_atom_site_fract_x
_atom_site_fract_y
_atom_site_fract_z
Si Si1 0.165547 0.074962 0.012713
Si Si2 0.659376 0.652868 0.571306
Si Si3 0.164270 0.098719 0.108691
Si Si4 0.837852 0.748948 0.872710
Si Si5 0.840121 0.956652 0.353600
Si Si6 0.838949 0.642294 0.700356
O O1 0.225923 0.097390 0.059674
O O2 0.000000 0.070439 0.013293
O O3 0.211236 0.131527 0.976754
O O4 0.227584 0.000000 0.000000
O O5 0.500000 0.678247 0.571299
O O6 0.754515 0.715825 0.587299
O O7 0.676896 0.586033 0.602001
O O8 0.206354 0.170620 0.132043
O O9 0.000000 0.090099 0.104969
O O10 0.219001 0.034058 0.137331
O O11 0.800301 0.710443 0.827688
O O12 0.000000 0.742318 0.884114
O O13 0.749698 0.923595 0.315061
O O14 0.000000 0.957688 0.338042
O O15 0.801715 0.659865 0.750000
O O16 0.000000 0.622816 0.694589
#
# Coordination Sequence:
#
# PCOD8261342 Si02
#       6
#    16  16  16  16  16  16
#     4   9  14  23  42  67  92 122 158 190 220 257
#     4   9  16  27  45  67  90 121 159 190 216 256
#     4   9  16  27  44  68  95 121 151 187 225 263
#     4   9  18  31  46  65  92 122 148 182 229 273
#     4   9  16  28  48  71  91 111 146 193 228 254
#     4   9  18  33  50  65  85 117 150 176 218 285
#
# _framework density 16.859770000000001
#
# number of rings (size 3 to 8) (size 9 to 14) (size 15 to 20)
#    0.000    3.000    1.667    0.000    0.000    1.000 
#    0.000    1.667    0.000    4.500    0.000    0.000 
#    0.000    0.000    0.000    0.000    0.000    0.000 
#
# Total GULP energy -595071.598376 kJ/mol
# GULP energy per Si atom -12397.324966 kJ/mol
# Density = 1.682140 g / cm^3
# Si number density = 16.859770 Si / 1000 Ang^3
#
#
#
# Elastic Constant Matrix: (Units=GPa)
#
#
# Indices 1 2 3 4 5 6 
#
# 1 33.3127 34.1899 29.1551 0.0000 0.0000 0.0000
# 2 34.1899 130.0090 53.9349 0.0000 0.0000 0.0000
# 3 29.1551 53.9349 106.2764 0.0000 0.0000 0.0000
# 4 0.0000 0.0000 0.0000 19.5888 0.0000 0.0000
# 5 0.0000 0.0000 0.0000 0.0000 18.8007 0.0000
# 6 0.0000 0.0000 0.0000 0.0000 0.0000 19.0311
#
#
#
# Elastic Compliance Matrix: (Units=1/GPa)
#
#
# Indices 1 2 3 4 5 6 
#
# 1 0.046189 -0.008728 -0.008242 0.000000 0.000000 0.000000
# 2 -0.008728 0.011392 -0.003387 0.000000 0.000000 0.000000
# 3 -0.008242 -0.003387 0.013389 0.000000 0.000000 0.000000
# 4 0.000000 0.000000 0.000000 0.051050 0.000000 0.000000
# 5 0.000000 0.000000 0.000000 0.000000 0.053190 0.000000
# 6 0.000000 0.000000 0.000000 0.000000 0.000000 0.052546
#
#
# Mechanical properties :
#
#
# Convention : Reuss Voigt Hill
#
# Bulk Modulus (GPa) = 33.04987 56.01754 44.53371
# Shear Modulus (GPa) = 17.94975 21.63867 19.79421
#
# Velocity S-wave (km/s) = 3.26644 3.58641 3.43016
# Velocity P-wave (km/s) = 5.81992 7.10264 6.49304
#
# Compressibility (1/GPa) = 0.03025730
#
# Stress axis : x y z
#
# Youngs Moduli (GPa) = 21.64995 87.77950 74.68554
#
# Poissons Ratio (x) = 0.76611 0.61556
# Poissons Ratio (y) = 0.18895 0.25297
# Poissons Ratio (z) = 0.17844 0.29733
#
# Static dielectric constant tensor:
#      x y z
#    x 2.868690 0.000000 0.000000 
#    y 0.000000 3.249530 0.000000 
#    z 0.000000 0.000000 3.152550 
# 
# 
# High freq. dielectric constant tensor:
#      x y z
#    x 1.610950 0.000000 0.000000 
#    y 0.000000 1.649870 0.000000 
#    z 0.000000 0.000000 1.642270 
# 
# From -- ./inp_files/68310.got.cif
#   From: 2010.03.12/outbox.cif.g09.slc.cpg/sg63_35_cif.got.tgz:68310.got - 2010.04.10 19:34:48.
