data_PCOD8261949
_publ_section_title
;
Structure prediction by ZEFSAII (Michael W. Deem and Ramdas Pophale) SiO2 
 PCOD8261949
Probable space group: C M C A
;
_chemical_formula_sum "Si O2"
_cell_formula_units_Z 88
_cell_length_a 14.266419
_cell_length_b 15.219988
_cell_length_c 20.371103
_cell_angle_alpha 90.000000
_cell_angle_beta 90.000000
_cell_angle_gamma 90.000000
_cell_volume 4423.273868
_symmetry_space_group_name_H-M "C M C A"
_symmetry_group_IT_number 64
_symmetry_cell_setting 'orthorhombic'
loop_
_space_group_symop_operation_xyz
x,y,z
-x,1/2-y,1/2+z
x,-y,-z
-x,1/2+y,1/2-z
-x,-y,-z
x,1/2+y,1/2-z
-x,y,z
x,1/2-y,1/2+z
1/2+x,1/2+y,z
1/2-x,-y,1/2+z
1/2+x,1/2-y,-z
1/2-x,y,1/2-z
1/2-x,1/2-y,-z
1/2+x,y,1/2-z
1/2-x,1/2+y,z
1/2+x,-y,1/2+z
loop_
_atom_site_type_symbol
_atom_site_label
_atom_site_fract_x
_atom_site_fract_y
_atom_site_fract_z
Si Si1 0.500000 0.348519 0.050329
Si Si2 0.138661 0.520984 0.612910
Si Si3 0.000000 0.898679 0.442546
Si Si4 0.643666 0.904478 0.246314
Si Si5 0.643748 0.984803 0.880509
Si Si6 0.500000 0.656355 0.411445
Si Si7 0.000000 0.286398 0.184939
Si Si8 0.000000 0.370756 0.597317
O O1 0.405414 0.405927 0.063999
O O2 0.500000 0.262192 0.097889
O O3 0.500000 0.321055 0.973314
O O4 0.111814 0.554914 0.685136
O O5 0.247480 0.497780 0.602221
O O6 0.092804 0.428043 0.599880
O O7 0.000000 0.827007 0.386785
O O8 0.000000 0.852468 0.511119
O O9 0.091265 0.959621 0.436054
O O10 0.750000 0.874399 0.250000
O O11 0.589586 0.815189 0.227689
O O12 0.623459 0.978857 0.192212
O O13 0.596487 0.886881 0.881947
O O14 0.000000 0.184809 0.165305
#
# Coordination Sequence:
#
# PCOD8261949 Si02
#       8
#     8  16   8  16  16   8   8   8
#     4  11  24  40  56  85 132 156 201 251 290 352
#     4  10  21  42  60  85 118 164 197 237 308 363
#     4   9  18  34  59  82 120 151 193 241 296 345
#     4   9  19  39  63  85 115 149 192 248 304 355
#     4   9  19  37  64  85 116 154 197 246 303 357
#     4  11  21  37  56  95 119 150 207 253 282 346
#     4  10  18  37  59  86 112 155 190 243 298 339
#     4  11  23  38  58  82 120 164 201 237 292 368
#
# _framework density 19.894767000000002
#
# number of rings (size 3 to 8) (size 9 to 14) (size 15 to 20)
#    0.000    2.182    0.909    3.818    0.000    2.909 
#   16.364    2.727    0.000    0.000    0.000    0.000 
#    0.000    0.000    0.000    0.000    0.000    0.000 
#
# Total GULP energy -545161.712853 kJ/mol
# GULP energy per Si atom -12390.038928 kJ/mol
# Density = 1.984949 g / cm^3
# Si number density = 19.894767 Si / 1000 Ang^3
#
#
#
# Elastic Constant Matrix: (Units=GPa)
#
#
# Indices 1 2 3 4 5 6 
#
# 1 153.9737 56.3927 36.2101 0.0000 0.0000 0.0000
# 2 56.3927 114.9369 22.1601 0.0000 0.0000 0.0000
# 3 36.2101 22.1601 88.3102 0.0000 0.0000 0.0000
# 4 0.0000 0.0000 0.0000 28.1879 0.0000 0.0000
# 5 0.0000 0.0000 0.0000 0.0000 26.6275 0.0000
# 6 0.0000 0.0000 0.0000 0.0000 0.0000 15.5847
#
#
#
# Elastic Compliance Matrix: (Units=1/GPa)
#
#
# Indices 1 2 3 4 5 6 
#
# 1 0.008427 -0.003645 -0.002541 0.000000 0.000000 0.000000
# 2 -0.003645 0.010719 -0.001195 0.000000 0.000000 0.000000
# 3 -0.002541 -0.001195 0.012665 0.000000 0.000000 0.000000
# 4 0.000000 0.000000 0.000000 0.035476 0.000000 0.000000
# 5 0.000000 0.000000 0.000000 0.000000 0.037555 0.000000
# 6 0.000000 0.000000 0.000000 0.000000 0.000000 0.064165
#
#
# Mechanical properties :
#
#
# Convention : Reuss Voigt Hill
#
# Bulk Modulus (GPa) = 58.65129 65.19407 61.92268
# Shear Modulus (GPa) = 26.39172 30.24390 28.31781
#
# Velocity S-wave (km/s) = 3.64616 3.90320 3.77686
# Velocity P-wave (km/s) = 6.87537 7.29067 7.08606
#
# Compressibility (1/GPa) = 0.01704992
#
# Stress axis : x y z
#
# Youngs Moduli (GPa) = 118.66589 93.29087 78.95486
#
# Poissons Ratio (x) = 0.34002 0.20061
# Poissons Ratio (y) = 0.43251 0.09438
# Poissons Ratio (z) = 0.30150 0.11151
#
# Static dielectric constant tensor:
#      x y z
#    x 3.669260 0.000000 0.000000 
#    y 0.000000 3.546840 0.000000 
#    z 0.000000 0.000000 3.768620 
# 
# 
# High freq. dielectric constant tensor:
#      x y z
#    x 1.777970 0.000000 0.000000 
#    y 0.000000 1.760000 0.000000 
#    z 0.000000 0.000000 1.788160 
# 
# From -- ./inp_files/39127.got.cif
#   From: 2010.03.12/outbox.cif.g09.slc.cpg/sg64_20_cif.got.tgz:39127.got - 2010.04.10 20:19:32.
