data_PCOD8261963
_publ_section_title
;
Structure prediction by ZEFSAII (Michael W. Deem and Ramdas Pophale) SiO2 
 PCOD8261963
Probable space group: C M C A
;
_chemical_formula_sum "Si O2"
_cell_formula_units_Z 72
_cell_length_a 14.218255
_cell_length_b 23.557351
_cell_length_c 9.835253
_cell_angle_alpha 90.000000
_cell_angle_beta 90.000000
_cell_angle_gamma 90.000000
_cell_volume 3294.263147
_symmetry_space_group_name_H-M "C M C A"
_symmetry_group_IT_number 64
_symmetry_cell_setting 'orthorhombic'
loop_
_space_group_symop_operation_xyz
x,y,z
-x,1/2-y,1/2+z
x,-y,-z
-x,1/2+y,1/2-z
-x,-y,-z
x,1/2+y,1/2-z
-x,y,z
x,1/2-y,1/2+z
1/2+x,1/2+y,z
1/2-x,-y,1/2+z
1/2+x,1/2-y,-z
1/2-x,y,1/2-z
1/2-x,1/2-y,-z
1/2+x,y,1/2-z
1/2-x,1/2+y,z
1/2+x,-y,1/2+z
loop_
_atom_site_type_symbol
_atom_site_label
_atom_site_fract_x
_atom_site_fract_y
_atom_site_fract_z
Si Si1 0.809822 0.313788 0.123889
Si Si2 0.894566 0.080837 0.506720
Si Si3 0.680411 0.689478 0.130866
Si Si4 0.238713 0.000000 0.000000
Si Si5 0.395449 0.074610 0.312669
O O1 0.750000 0.337597 0.250000
O O2 0.889994 0.356821 0.073097
O O3 0.860279 0.253098 0.159441
O O4 0.732022 0.306392 0.010448
O O5 0.871203 0.080146 0.346512
O O6 0.000000 0.057350 0.535438
O O7 0.811980 0.043178 0.576067
O O8 0.750000 0.671095 0.250000
O O9 0.604949 0.638520 0.124469
O O10 0.175762 0.032205 0.111346
O O11 0.500000 0.050061 0.333734
#
# Coordination Sequence:
#
# PCOD8261963 Si02
#       5
#    16  16  16   8  16
#     4  10  21  36  67  99 131 171 209 258 316 381
#     4  11  24  43  68  95 128 172 214 263 330 391
#     4  10  18  39  66  96 131 172 212 254 320 381
#     4  12  22  42  64  88 124 166 222 278 312 378
#     4  11  23  41  68  96 125 170 219 265 324 385
#
# _framework density 21.856176999999999
#
# number of rings (size 3 to 8) (size 9 to 14) (size 15 to 20)
#    0.000    1.333    4.444    1.333    0.000    2.667 
#    0.000    1.111    0.000    0.000    0.000    0.000 
#    0.000    0.000    0.000    0.000    0.000    0.000 
#
# Total GULP energy -446018.779079 kJ/mol
# GULP energy per Si atom -12389.410530 kJ/mol
# Density = 2.180643 g / cm^3
# Si number density = 21.856177 Si / 1000 Ang^3
#
#
#
# Elastic Constant Matrix: (Units=GPa)
#
#
# Indices 1 2 3 4 5 6 
#
# 1 132.1652 72.5582 44.3714 0.0000 0.0000 0.0000
# 2 72.5582 147.0483 36.2692 0.0000 0.0000 0.0000
# 3 44.3714 36.2692 100.4346 0.0000 0.0000 0.0000
# 4 0.0000 0.0000 0.0000 33.3121 0.0000 0.0000
# 5 0.0000 0.0000 0.0000 0.0000 19.5765 0.0000
# 6 0.0000 0.0000 0.0000 0.0000 0.0000 16.9101
#
#
#
# Elastic Compliance Matrix: (Units=1/GPa)
#
#
# Indices 1 2 3 4 5 6 
#
# 1 0.011274 -0.004758 -0.003262 0.000000 0.000000 0.000000
# 2 -0.004758 0.009474 -0.001319 0.000000 0.000000 0.000000
# 3 -0.003262 -0.001319 0.011874 0.000000 0.000000 0.000000
# 4 0.000000 0.000000 0.000000 0.030019 0.000000 0.000000
# 5 0.000000 0.000000 0.000000 0.000000 0.051082 0.000000
# 6 0.000000 0.000000 0.000000 0.000000 0.000000 0.059136
#
#
# Mechanical properties :
#
#
# Convention : Reuss Voigt Hill
#
# Bulk Modulus (GPa) = 71.72258 76.22731 73.97495
# Shear Modulus (GPa) = 25.48606 29.05635 27.27121
#
# Velocity S-wave (km/s) = 3.41850 3.65010 3.53619
# Velocity P-wave (km/s) = 6.96193 7.26063 7.11285
#
# Compressibility (1/GPa) = 0.01394261
#
# Stress axis : x y z
#
# Youngs Moduli (GPa) = 88.70137 105.55590 84.21503
#
# Poissons Ratio (x) = 0.50225 0.27474
# Poissons Ratio (y) = 0.42206 0.11108
# Poissons Ratio (z) = 0.28938 0.13923
#
# Static dielectric constant tensor:
#      x y z
#    x 3.713900 0.000000 0.000000 
#    y 0.000000 4.573880 0.000000 
#    z 0.000000 0.000000 3.758140 
# 
# 
# High freq. dielectric constant tensor:
#      x y z
#    x 1.836050 0.000000 0.000000 
#    y 0.000000 1.879950 0.000000 
#    z 0.000000 0.000000 1.848860 
# 
# From -- ./inp_files/5801.got.cif
#   From: 2010.03.12/outbox.cif.g09.slc.cpg/sg64_3_cif.got.tgz:5801.got - 2010.04.10 20:19:32.
