data_PCOD8261384
_publ_section_title
;
Structure prediction by ZEFSAII (Michael W. Deem and Ramdas Pophale) SiO2 
 PCOD8261384
Probable space group: C M C A
;
_chemical_formula_sum "Si O2"
_cell_formula_units_Z 72
_cell_length_a 24.604842
_cell_length_b 34.210672
_cell_length_c 5.262256
_cell_angle_alpha 90.000000
_cell_angle_beta 90.000000
_cell_angle_gamma 90.000000
_cell_volume 4429.494407
_symmetry_space_group_name_H-M "C M C A"
_symmetry_group_IT_number 64
_symmetry_cell_setting 'orthorhombic'
loop_
_space_group_symop_operation_xyz
x,y,z
-x,1/2-y,1/2+z
x,-y,-z
-x,1/2+y,1/2-z
-x,-y,-z
x,1/2+y,1/2-z
-x,y,z
x,1/2-y,1/2+z
1/2+x,1/2+y,z
1/2-x,-y,1/2+z
1/2+x,1/2-y,-z
1/2-x,y,1/2-z
1/2-x,1/2-y,-z
1/2+x,y,1/2-z
1/2-x,1/2+y,z
1/2+x,-y,1/2+z
loop_
_atom_site_type_symbol
_atom_site_label
_atom_site_fract_x
_atom_site_fract_y
_atom_site_fract_z
Si Si1 0.000000 0.226581 0.560116
Si Si2 0.694293 0.078398 0.000051
Si Si3 0.186655 0.954674 0.000026
Si Si4 0.782503 0.830476 0.500045
Si Si5 0.383020 0.224318 0.025298
O O1 0.056708 0.204354 0.498549
O O2 0.000000 0.237104 0.859500
O O3 0.660648 0.066427 0.748212
O O4 0.748685 0.052151 0.000004
O O5 0.660633 0.066410 0.251816
O O6 0.709820 0.123387 0.000375
O O7 0.171968 0.000000 0.000000
O O8 0.750000 0.816899 0.750000
O O9 0.840912 0.810583 0.496800
O O10 0.750000 0.816968 0.250000
O O11 0.375151 0.244260 0.299918
#
# Coordination Sequence:
#
# PCOD8261384 Si02
#       5
#     8  16  16  16  16
#     4   8  16  34  54  68  84 102 145 200 235 256
#     4  10  16  27  36  56  82 114 146 168 217 253
#     4  10  16  25  41  56  75 113 157 181 200 242
#     4  12  21  32  45  62  97 128 147 174 223 276
#     4  10  21  35  51  69  85 116 155 192 226 258
#
# _framework density 16.254677000000001
#
# number of rings (size 3 to 8) (size 9 to 14) (size 15 to 20)
#    0.000    1.778    4.444    4.667    0.000    2.667 
#    0.000    0.000    0.000    0.000    0.000    0.000 
#    0.000    0.000    0.000   11.000    0.000    0.000 
#
# Total GULP energy -446011.503439 kJ/mol
# GULP energy per Si atom -12389.208429 kJ/mol
# Density = 1.621768 g / cm^3
# Si number density = 16.254677 Si / 1000 Ang^3
#
#
#
# Elastic Constant Matrix: (Units=GPa)
#
#
# Indices 1 2 3 4 5 6 
#
# 1 83.1627 35.0643 28.0286 0.0000 0.0000 0.0000
# 2 35.0643 34.9441 19.6668 0.0000 0.0000 0.0000
# 3 28.0286 19.6668 158.7975 0.0000 0.0000 0.0000
# 4 0.0000 0.0000 0.0000 15.8881 0.0000 0.0000
# 5 0.0000 0.0000 0.0000 0.0000 13.8822 0.0000
# 6 0.0000 0.0000 0.0000 0.0000 0.0000 -16.0430
#
#
#
# Elastic Compliance Matrix: (Units=1/GPa)
#
#
# Indices 1 2 3 4 5 6 
#
# 1 0.021047 -0.020455 -0.001182 0.000000 0.000000 0.000000
# 2 -0.020455 0.050640 -0.002661 0.000000 0.000000 0.000000
# 3 -0.001182 -0.002661 0.006836 0.000000 0.000000 0.000000
# 4 0.000000 0.000000 0.000000 0.062940 0.000000 0.000000
# 5 0.000000 0.000000 0.000000 0.000000 0.072035 0.000000
# 6 0.000000 0.000000 0.000000 0.000000 0.000000 -0.062333
#
#
# Mechanical properties :
#
#
# Convention : Reuss Voigt Hill
#
# Bulk Modulus (GPa) = 33.41417 49.15819 41.28618
# Shear Modulus (GPa) = 23.83950 15.68843 19.76397
#
# Velocity S-wave (km/s) = 3.83381 3.11008 3.49075
# Velocity P-wave (km/s) = 6.34025 6.57305 6.45770
#
# Compressibility (1/GPa) = 0.02992742
#
# Stress axis : x y z
#
# Youngs Moduli (GPa) = 47.51223 19.74733 146.29499
#
# Poissons Ratio (x) = 0.40392 0.17287
# Poissons Ratio (y) = 0.97184 0.38934
# Poissons Ratio (z) = 0.05614 0.05255
#
# Static dielectric constant tensor:
#      x y z
#    x 2.770290 0.000000 0.000000 
#    y 0.000000 2.810850 0.000000 
#    z 0.000000 0.000000 7.253050 
# 
# 
# High freq. dielectric constant tensor:
#      x y z
#    x 1.557340 0.000000 0.000000 
#    y 0.000000 1.603640 0.000000 
#    z 0.000000 0.000000 1.671030 
# 
# From -- ./inp_files/2321.got.cif
#   From: 2010.03.12/outbox.cif.g09.slc.cpg/sg64_2_cif.got.tgz:2321.got - 2010.04.10 20:19:32.
