data_PCOD8261181
_publ_section_title
;
Structure prediction by ZEFSAII (Michael W. Deem and Ramdas Pophale) SiO2 
 PCOD8261181
Probable space group: C M C M
;
_chemical_formula_sum "Si O2"
_cell_formula_units_Z 64
_cell_length_a 8.584339
_cell_length_b 23.787929
_cell_length_c 14.957107
_cell_angle_alpha 90.000000
_cell_angle_beta 90.000000
_cell_angle_gamma 90.000000
_cell_volume 3054.295793
_symmetry_space_group_name_H-M "C M C M"
_symmetry_group_IT_number 63
_symmetry_cell_setting 'orthorhombic'
loop_
_space_group_symop_operation_xyz
x,y,z
-x,-y,1/2+z
x,-y,-z
-x,y,1/2-z
-x,-y,-z
x,y,1/2-z
-x,y,z
x,-y,1/2+z
1/2+x,1/2+y,z
1/2-x,1/2-y,1/2+z
1/2+x,1/2-y,-z
1/2-x,1/2+y,1/2-z
1/2-x,1/2-y,-z
1/2+x,1/2+y,1/2-z
1/2-x,1/2+y,z
1/2+x,1/2-y,1/2+z
loop_
_atom_site_type_symbol
_atom_site_label
_atom_site_fract_x
_atom_site_fract_y
_atom_site_fract_z
Si Si1 0.317195 0.174249 0.750000
Si Si2 0.318813 0.551884 0.750000
Si Si3 0.325006 0.366390 0.648449
Si Si4 0.176345 0.522489 0.099010
Si Si5 0.317013 0.248740 0.099049
O O1 0.500000 0.184827 0.750000
O O2 0.282035 0.108346 0.750000
O O3 0.249336 0.201116 0.659582
O O4 0.500000 0.567698 0.750000
O O5 0.281430 0.516023 0.837924
O O6 0.330198 0.387631 0.750000
O O7 0.500000 0.355590 0.612113
O O8 0.242576 0.414598 0.591524
O O9 0.225689 0.309984 0.644050
O O10 0.000000 0.523467 0.136193
O O11 0.182803 0.500000 0.000000
O O12 0.500000 0.256205 0.094613
O O13 0.250000 0.250000 0.000000
#
# Coordination Sequence:
#
# PCOD8261181 Si02
#       5
#     8   8  16  16  16
#     4  12  26  47  70  97 136 176 222 276 332 396
#     4  12  26  45  68  97 134 176 222 272 332 396
#     4  11  23  42  69  99 132 171 220 275 331 391
#     4  11  25  44  68  98 133 174 222 273 331 392
#     4  12  26  45  70 100 134 176 223 273 333 395
#
# _framework density 20.954093
#
# number of rings (size 3 to 8) (size 9 to 14) (size 15 to 20)
#    0.000    0.500    2.500    6.000    3.500    3.000 
#    0.000    0.000    0.000    0.000    0.000    0.000 
#    0.000    0.000    0.000    0.000    0.000    0.000 
#
# Total GULP energy -397028.667122 kJ/mol
# GULP energy per Si atom -12407.145848 kJ/mol
# Density = 2.090640 g / cm^3
# Si number density = 20.954093 Si / 1000 Ang^3
#
#
#
# Elastic Constant Matrix: (Units=GPa)
#
#
# Indices 1 2 3 4 5 6 
#
# 1 163.8693 23.1333 38.3789 0.0000 0.0000 0.0000
# 2 23.1333 110.0572 16.3366 0.0000 0.0000 0.0000
# 3 38.3789 16.3366 93.3212 0.0000 0.0000 0.0000
# 4 0.0000 0.0000 0.0000 28.7297 0.0000 0.0000
# 5 0.0000 0.0000 0.0000 0.0000 21.8190 0.0000
# 6 0.0000 0.0000 0.0000 0.0000 0.0000 41.4756
#
#
#
# Elastic Compliance Matrix: (Units=1/GPa)
#
#
# Indices 1 2 3 4 5 6 
#
# 1 0.006869 -0.001052 -0.002641 0.000000 0.000000 0.000000
# 2 -0.001052 0.009490 -0.001229 0.000000 0.000000 0.000000
# 3 -0.002641 -0.001229 0.012017 0.000000 0.000000 0.000000
# 4 0.000000 0.000000 0.000000 0.034807 0.000000 0.000000
# 5 0.000000 0.000000 0.000000 0.000000 0.045832 0.000000
# 6 0.000000 0.000000 0.000000 0.000000 0.000000 0.024111
#
#
# Mechanical properties :
#
#
# Convention : Reuss Voigt Hill
#
# Bulk Modulus (GPa) = 53.95783 58.10502 56.03142
# Shear Modulus (GPa) = 33.52422 37.69813 35.61117
#
# Velocity S-wave (km/s) = 4.00420 4.24616 4.12695
# Velocity P-wave (km/s) = 6.86910 7.19929 7.03613
#
# Compressibility (1/GPa) = 0.01853299
#
# Stress axis : x y z
#
# Youngs Moduli (GPa) = 145.57217 105.37787 83.21632
#
# Poissons Ratio (x) = 0.11085 0.21977
# Poissons Ratio (y) = 0.15313 0.10224
# Poissons Ratio (z) = 0.38445 0.12947
#
# Static dielectric constant tensor:
#      x y z
#    x 4.107980 0.000000 0.000000 
#    y 0.000000 3.860410 0.000000 
#    z 0.000000 0.000000 4.029250 
# 
# 
# High freq. dielectric constant tensor:
#      x y z
#    x 1.840950 0.000000 0.000000 
#    y 0.000000 1.833140 0.000000 
#    z 0.000000 0.000000 1.826660 
# 
# From -- ./inp_files/27527.got.cif
#   From: 2010.03.12/outbox.cif.g09.slc.cpg/sg63_14_cif.got.tgz:27527.got - 2010.04.10 19:34:48.
