data_PCOD8261677
_publ_section_title
;
Structure prediction by ZEFSAII (Michael W. Deem and Ramdas Pophale) SiO2 
 PCOD8261677
Probable space group: C M C A
;
_chemical_formula_sum "Si O2"
_cell_formula_units_Z 88
_cell_length_a 9.542083
_cell_length_b 23.313000
_cell_length_c 22.471400
_cell_angle_alpha 90.000000
_cell_angle_beta 90.000000
_cell_angle_gamma 90.000000
_cell_volume 4998.865871
_symmetry_space_group_name_H-M "C M C A"
_symmetry_group_IT_number 64
_symmetry_cell_setting 'orthorhombic'
loop_
_space_group_symop_operation_xyz
x,y,z
-x,1/2-y,1/2+z
x,-y,-z
-x,1/2+y,1/2-z
-x,-y,-z
x,1/2+y,1/2-z
-x,y,z
x,1/2-y,1/2+z
1/2+x,1/2+y,z
1/2-x,-y,1/2+z
1/2+x,1/2-y,-z
1/2-x,y,1/2-z
1/2-x,1/2-y,-z
1/2+x,y,1/2-z
1/2-x,1/2+y,z
1/2+x,-y,1/2+z
loop_
_atom_site_type_symbol
_atom_site_label
_atom_site_fract_x
_atom_site_fract_y
_atom_site_fract_z
Si Si1 0.157788 0.426293 0.893236
Si Si2 0.161905 0.999694 0.191087
Si Si3 0.153683 0.090036 0.909508
Si Si4 0.656716 0.199908 0.071262
Si Si5 0.754529 0.500000 0.000000
Si Si6 0.842379 0.803067 0.430238
O O1 0.268010 0.448223 0.844906
O O2 0.209036 0.362149 0.907691
O O3 0.152044 0.464799 0.952971
O O4 0.000000 0.426616 0.867065
O O5 0.250000 0.988346 0.250000
O O6 0.000000 0.015310 0.205241
O O7 0.171916 0.942059 0.152860
O O8 0.272555 0.137671 0.910926
O O9 0.000000 0.119082 0.913321
O O10 0.160301 0.045246 0.964025
O O11 0.500000 0.212286 0.094742
O O12 0.759224 0.248796 0.097237
O O13 0.657995 0.201144 0.000593
O O14 0.000000 0.802282 0.404818
#
# Coordination Sequence:
#
# PCOD8261677 Si02
#       6
#    16  16  16  16   8  16
#     4  10  19  32  53  77 106 138 170 213 257 305
#     4  10  22  38  55  77 102 135 176 214 262 308
#     4  10  20  33  51  75 105 137 169 213 260 309
#     4   9  18  32  47  72 106 142 174 205 250 303
#     4  10  18  30  48  78 106 136 172 206 252 312
#     4  10  19  31  48  74 104 140 177 209 250 303
#
# _framework density 17.603994
#
# number of rings (size 3 to 8) (size 9 to 14) (size 15 to 20)
#    0.000    2.182    1.818    1.636    0.000    5.818 
#    0.000    0.000    0.000    1.091    0.000    5.091 
#    0.000    0.000    0.000    0.000    0.000    0.000 
#
# Total GULP energy -545505.201234 kJ/mol
# GULP energy per Si atom -12397.845483 kJ/mol
# Density = 1.756393 g / cm^3
# Si number density = 17.603994 Si / 1000 Ang^3
#
#
#
# Elastic Constant Matrix: (Units=GPa)
#
#
# Indices 1 2 3 4 5 6 
#
# 1 142.0804 69.3237 34.8360 0.0000 0.0000 0.0000
# 2 69.3237 122.8889 21.9714 0.0000 0.0000 0.0000
# 3 34.8360 21.9714 60.5506 0.0000 0.0000 0.0000
# 4 0.0000 0.0000 0.0000 13.3429 0.0000 0.0000
# 5 0.0000 0.0000 0.0000 0.0000 17.3692 0.0000
# 6 0.0000 0.0000 0.0000 0.0000 0.0000 33.7215
#
#
#
# Elastic Compliance Matrix: (Units=1/GPa)
#
#
# Indices 1 2 3 4 5 6 
#
# 1 0.010629 -0.005243 -0.004213 0.000000 0.000000 0.000000
# 2 -0.005243 0.011288 -0.001080 0.000000 0.000000 0.000000
# 3 -0.004213 -0.001080 0.019331 0.000000 0.000000 0.000000
# 4 0.000000 0.000000 0.000000 0.074946 0.000000 0.000000
# 5 0.000000 0.000000 0.000000 0.000000 0.057573 0.000000
# 6 0.000000 0.000000 0.000000 0.000000 0.000000 0.029655
#
#
# Mechanical properties :
#
#
# Convention : Reuss Voigt Hill
#
# Bulk Modulus (GPa) = 49.56085 64.19800 56.87942
# Shear Modulus (GPa) = 21.62457 26.17931 23.90194
#
# Velocity S-wave (km/s) = 3.50864 3.86051 3.68877
# Velocity P-wave (km/s) = 6.68045 7.51122 7.10798
#
# Compressibility (1/GPa) = 0.02017722
#
# Stress axis : x y z
#
# Youngs Moduli (GPa) = 94.07933 88.58881 51.73155
#
# Poissons Ratio (x) = 0.46447 0.21793
# Poissons Ratio (y) = 0.49326 0.05585
# Poissons Ratio (z) = 0.39634 0.09564
#
# Static dielectric constant tensor:
#      x y z
#    x 3.462400 0.000000 0.000000 
#    y 0.000000 3.323550 0.000000 
#    z 0.000000 0.000000 2.950190 
# 
# 
# High freq. dielectric constant tensor:
#      x y z
#    x 1.693740 0.000000 0.000000 
#    y 0.000000 1.683840 0.000000 
#    z 0.000000 0.000000 1.639710 
# 
# From -- ./inp_files/36762.got.cif
#   From: 2010.03.12/outbox.cif.g09.slc.cpg/sg64_19_cif.got.tgz:36762.got - 2010.04.10 20:19:32.
