data_PCOD8261216
_publ_section_title
;
Structure prediction by ZEFSAII (Michael W. Deem and Ramdas Pophale) SiO2 
 PCOD8261216
Probable space group: C M C M
;
_chemical_formula_sum "Si O2"
_cell_formula_units_Z 64
_cell_length_a 11.571347
_cell_length_b 16.435777
_cell_length_c 15.697655
_cell_angle_alpha 90.000000
_cell_angle_beta 90.000000
_cell_angle_gamma 90.000000
_cell_volume 2985.444057
_symmetry_space_group_name_H-M "C M C M"
_symmetry_group_IT_number 63
_symmetry_cell_setting 'orthorhombic'
loop_
_space_group_symop_operation_xyz
x,y,z
-x,-y,1/2+z
x,-y,-z
-x,y,1/2-z
-x,-y,-z
x,y,1/2-z
-x,y,z
x,-y,1/2+z
1/2+x,1/2+y,z
1/2-x,1/2-y,1/2+z
1/2+x,1/2-y,-z
1/2-x,1/2+y,1/2-z
1/2-x,1/2-y,-z
1/2+x,1/2+y,1/2-z
1/2-x,1/2+y,z
1/2+x,1/2-y,1/2+z
loop_
_atom_site_type_symbol
_atom_site_label
_atom_site_fract_x
_atom_site_fract_y
_atom_site_fract_z
Si Si1 0.372072 0.398410 0.250000
Si Si2 0.000000 0.535353 0.905680
Si Si3 0.719981 0.853479 0.407332
Si Si4 0.129082 0.910307 0.750000
Si Si5 0.000000 0.358870 0.653513
Si Si6 0.750215 0.329815 0.592913
O O1 0.500000 0.361466 0.250000
O O2 0.313838 0.366948 0.335394
O O3 0.375034 0.494242 0.250000
O O4 0.889591 0.590879 0.886683
O O5 0.000000 0.457512 0.844056
O O6 0.000000 0.500000 0.000000
O O7 0.687782 0.757771 0.405767
O O8 0.770988 0.873317 0.501440
O O9 0.196739 0.884666 0.665999
O O10 0.000000 0.873073 0.750000
O O11 0.111507 0.323023 0.605294
O O12 0.000000 0.327363 0.750000
#
# Coordination Sequence:
#
# PCOD8261216 Si02
#       6
#     8   8  16   8   8  16
#     4  11  27  45  67  99 133 185 231 277 335 415
#     4  12  24  44  70 108 136 172 229 293 338 414
#     4  11  26  43  70 100 139 172 231 281 344 405
#     4  11  25  43  65  95 135 175 225 273 341 407
#     4  12  24  42  72 101 136 180 232 281 346 408
#     4  11  24  44  69  99 135 182 220 286 345 409
#
# _framework density 21.437346000000002
#
# number of rings (size 3 to 8) (size 9 to 14) (size 15 to 20)
#    0.000    0.750    3.750    2.250    5.250    1.000 
#    0.000    2.500    0.000    0.000    0.000    0.000 
#    0.000    0.000    0.000    0.000    0.000    0.000 
#
# Total GULP energy -396894.749978 kJ/mol
# GULP energy per Si atom -12402.960937 kJ/mol
# Density = 2.138855 g / cm^3
# Si number density = 21.437346 Si / 1000 Ang^3
#
#
#
# Elastic Constant Matrix: (Units=GPa)
#
#
# Indices 1 2 3 4 5 6 
#
# 1 116.5468 16.6690 53.4114 0.0000 0.0000 0.0000
# 2 16.6690 67.5711 9.2249 0.0000 0.0000 0.0000
# 3 53.4114 9.2249 185.1322 0.0000 0.0000 0.0000
# 4 0.0000 0.0000 0.0000 32.6892 0.0000 0.0000
# 5 0.0000 0.0000 0.0000 0.0000 34.0587 0.0000
# 6 0.0000 0.0000 0.0000 0.0000 0.0000 32.6998
#
#
#
# Elastic Compliance Matrix: (Units=1/GPa)
#
#
# Indices 1 2 3 4 5 6 
#
# 1 0.010182 -0.002125 -0.002832 0.000000 0.000000 0.000000
# 2 -0.002125 0.015344 -0.000151 0.000000 0.000000 0.000000
# 3 -0.002832 -0.000151 0.006226 0.000000 0.000000 0.000000
# 4 0.000000 0.000000 0.000000 0.030591 0.000000 0.000000
# 5 0.000000 0.000000 0.000000 0.000000 0.029361 0.000000
# 6 0.000000 0.000000 0.000000 0.000000 0.000000 0.030581
#
#
# Mechanical properties :
#
#
# Convention : Reuss Voigt Hill
#
# Bulk Modulus (GPa) = 46.43484 58.65120 52.54302
# Shear Modulus (GPa) = 35.79597 39.21919 37.50758
#
# Velocity S-wave (km/s) = 4.09075 4.28188 4.18740
# Velocity P-wave (km/s) = 6.63476 7.20172 6.92404
#
# Compressibility (1/GPa) = 0.02153555
#
# Stress axis : x y z
#
# Youngs Moduli (GPa) = 98.21378 65.17141 160.61612
#
# Poissons Ratio (x) = 0.13850 0.45480
# Poissons Ratio (y) = 0.20872 0.02433
# Poissons Ratio (z) = 0.27810 0.00987
#
# Static dielectric constant tensor:
#      x y z
#    x 4.025450 0.000000 0.000000 
#    y 0.000000 4.034290 0.000000 
#    z 0.000000 0.000000 4.166460 
# 
# 
# High freq. dielectric constant tensor:
#      x y z
#    x 1.836410 0.000000 0.000000 
#    y 0.000000 1.849380 0.000000 
#    z 0.000000 0.000000 1.860790 
# 
# From -- ./inp_files/29244.got.cif
#   From: 2010.03.12/outbox.cif.g09.slc.cpg/sg63_15_cif.got.tgz:29244.got - 2010.04.10 19:34:48.
