data_PCOD8261804
_publ_section_title
;
Structure prediction by ZEFSAII (Michael W. Deem and Ramdas Pophale) SiO2 
 PCOD8261804
Probable space group: C M C A
;
_chemical_formula_sum "Si O2"
_cell_formula_units_Z 80
_cell_length_a 16.334368
_cell_length_b 28.620699
_cell_length_c 8.534424
_cell_angle_alpha 90.000000
_cell_angle_beta 90.000000
_cell_angle_gamma 90.000000
_cell_volume 3989.852009
_symmetry_space_group_name_H-M "C M C A"
_symmetry_group_IT_number 64
_symmetry_cell_setting 'orthorhombic'
loop_
_space_group_symop_operation_xyz
x,y,z
-x,1/2-y,1/2+z
x,-y,-z
-x,1/2+y,1/2-z
-x,-y,-z
x,1/2+y,1/2-z
-x,y,z
x,1/2-y,1/2+z
1/2+x,1/2+y,z
1/2-x,-y,1/2+z
1/2+x,1/2-y,-z
1/2-x,y,1/2-z
1/2-x,1/2-y,-z
1/2+x,y,1/2-z
1/2-x,1/2+y,z
1/2+x,-y,1/2+z
loop_
_atom_site_type_symbol
_atom_site_label
_atom_site_fract_x
_atom_site_fract_y
_atom_site_fract_z
Si Si1 0.256750 0.550070 0.935093
Si Si2 0.902467 0.707927 0.951202
Si Si3 0.596827 0.696199 0.900694
Si Si4 0.093885 0.600514 0.443345
Si Si5 0.172658 0.124868 0.357675
O O1 0.250000 0.551343 0.750000
O O2 0.229708 0.500000 0.000000
O O3 0.350577 0.559461 0.985661
O O4 0.194922 0.587898 0.007847
O O5 0.872233 0.759454 0.000236
O O6 0.860888 0.671774 0.067385
O O7 0.000000 0.702768 0.964389
O O8 0.869788 0.698539 0.776343
O O9 0.500000 0.696764 0.897646
O O10 0.627728 0.649060 0.982904
O O11 0.102966 0.602881 0.255148
O O12 0.000000 0.590482 0.488462
O O13 0.250000 0.136876 0.250000
#
# Coordination Sequence:
#
# PCOD8261804 Si02
#       5
#    16  16  16  16  16
#     4  11  23  42  63  83 112 148 184 228 287 343
#     4  10  18  32  53  77 109 148 189 227 271 329
#     4   9  18  31  52  81 111 146 183 226 276 323
#     4  10  20  37  60  86 115 147 189 234 276 329
#     4  10  21  36  55  81 110 146 185 227 282 334
#
# _framework density 20.050868000000001
#
# number of rings (size 3 to 8) (size 9 to 14) (size 15 to 20)
#    0.000    2.000    0.000    4.800    0.000    3.600 
#    0.000   11.000    0.000    4.200    0.000    0.000 
#    0.000    0.000    0.000    0.000    0.000    0.000 
#
# Total GULP energy -496084.331314 kJ/mol
# GULP energy per Si atom -12402.108283 kJ/mol
# Density = 2.000523 g / cm^3
# Si number density = 20.050868 Si / 1000 Ang^3
#
#
#
# Elastic Constant Matrix: (Units=GPa)
#
#
# Indices 1 2 3 4 5 6 
#
# 1 35.0334 12.2829 9.1406 0.0000 0.0000 0.0000
# 2 12.2829 74.2201 27.2884 0.0000 0.0000 0.0000
# 3 9.1406 27.2884 143.5875 0.0000 0.0000 0.0000
# 4 0.0000 0.0000 0.0000 39.0012 0.0000 0.0000
# 5 0.0000 0.0000 0.0000 0.0000 23.3575 0.0000
# 6 0.0000 0.0000 0.0000 0.0000 0.0000 23.1338
#
#
#
# Elastic Compliance Matrix: (Units=1/GPa)
#
#
# Indices 1 2 3 4 5 6 
#
# 1 0.030450 -0.004652 -0.001054 0.000000 0.000000 0.000000
# 2 -0.004652 0.015196 -0.002592 0.000000 0.000000 0.000000
# 3 -0.001054 -0.002592 0.007524 0.000000 0.000000 0.000000
# 4 0.000000 0.000000 0.000000 0.025640 0.000000 0.000000
# 5 0.000000 0.000000 0.000000 0.000000 0.042813 0.000000
# 6 0.000000 0.000000 0.000000 0.000000 0.000000 0.043227
#
#
# Mechanical properties :
#
#
# Convention : Reuss Voigt Hill
#
# Bulk Modulus (GPa) = 27.34132 38.91832 33.12982
# Shear Modulus (GPa) = 25.82141 30.70709 28.26425
#
# Velocity S-wave (km/s) = 3.59248 3.91763 3.75857
# Velocity P-wave (km/s) = 5.55639 6.31789 5.94933
#
# Compressibility (1/GPa) = 0.03657469
#
# Stress axis : x y z
#
# Youngs Moduli (GPa) = 32.84053 65.80586 132.90636
#
# Poissons Ratio (x) = 0.30610 0.14014
# Poissons Ratio (y) = 0.15276 0.34448
# Poissons Ratio (z) = 0.03463 0.17056
#
# Static dielectric constant tensor:
#      x y z
#    x 3.455680 0.000000 0.000000 
#    y 0.000000 3.668510 0.000000 
#    z 0.000000 0.000000 3.934920 
# 
# 
# High freq. dielectric constant tensor:
#      x y z
#    x 1.765620 0.000000 0.000000 
#    y 0.000000 1.780620 0.000000 
#    z 0.000000 0.000000 1.800010 
# 
# From -- ./inp_files/7010.got.cif
#   From: 2010.03.12/outbox.cif.g09.slc.cpg/sg64_4_cif.got.tgz:7010.got - 2010.04.10 20:19:32.
