data_PCOD8261637
_publ_section_title
;
Structure prediction by ZEFSAII (Michael W. Deem and Ramdas Pophale) SiO2 
 PCOD8261637
Probable space group: C M C A
;
_chemical_formula_sum "Si O2"
_cell_formula_units_Z 96
_cell_length_a 19.319079
_cell_length_b 14.023259
_cell_length_c 20.154395
_cell_angle_alpha 90.000000
_cell_angle_beta 90.000000
_cell_angle_gamma 90.000000
_cell_volume 5460.157114
_symmetry_space_group_name_H-M "C M C A"
_symmetry_group_IT_number 64
_symmetry_cell_setting 'orthorhombic'
loop_
_space_group_symop_operation_xyz
x,y,z
-x,1/2-y,1/2+z
x,-y,-z
-x,1/2+y,1/2-z
-x,-y,-z
x,1/2+y,1/2-z
-x,y,z
x,1/2-y,1/2+z
1/2+x,1/2+y,z
1/2-x,-y,1/2+z
1/2+x,1/2-y,-z
1/2-x,y,1/2-z
1/2-x,1/2-y,-z
1/2+x,y,1/2-z
1/2-x,1/2+y,z
1/2+x,-y,1/2+z
loop_
_atom_site_type_symbol
_atom_site_label
_atom_site_fract_x
_atom_site_fract_y
_atom_site_fract_z
Si Si1 0.352093 0.080309 0.724076
Si Si2 0.288888 0.718778 0.433218
Si Si3 0.780069 0.863434 0.347257
Si Si4 0.078148 0.576073 0.197318
Si Si5 0.347379 0.483353 0.572068
Si Si6 0.921058 0.773114 0.137610
O O1 0.282356 0.072689 0.681859
O O2 0.338505 0.144937 0.790195
O O3 0.410710 0.129494 0.678717
O O4 0.374421 0.973900 0.746702
O O5 0.250000 0.750000 0.500000
O O6 0.244615 0.758839 0.370618
O O7 0.293187 0.604882 0.428434
O O8 0.367297 0.762806 0.424494
O O9 0.805995 0.920526 0.411374
O O10 0.091624 0.531820 0.124533
O O11 0.092996 0.688612 0.191174
O O12 0.000000 0.554031 0.217426
O O13 0.381125 0.500000 0.500000
O O14 0.000000 0.769093 0.110215
#
# Coordination Sequence:
#
# PCOD8261637 Si02
#       6
#    16  16  16  16  16  16
#     4   9  17  30  49  67  96 122 153 190 233 282
#     4  10  18  30  49  68  93 124 159 196 235 275
#     4   9  18  30  45  73  93 118 154 195 234 275
#     4   9  18  30  45  68  94 121 153 188 229 280
#     4  10  18  29  46  66  94 120 152 193 231 275
#     4   9  18  31  48  70  95 126 159 193 234 282
#
# _framework density 17.581911999999999
#
# number of rings (size 3 to 8) (size 9 to 14) (size 15 to 20)
#    0.000    2.667    1.667    0.500    0.000    1.667 
#    0.000    6.667    0.000    0.000    0.000   10.500 
#    0.000    0.000    0.000    0.000    0.000    0.000 
#
# Total GULP energy -594748.378891 kJ/mol
# GULP energy per Si atom -12390.591227 kJ/mol
# Density = 1.754190 g / cm^3
# Si number density = 17.581912 Si / 1000 Ang^3
#
#
#
# Elastic Constant Matrix: (Units=GPa)
#
#
# Indices 1 2 3 4 5 6 
#
# 1 66.5230 8.3896 21.6214 0.0000 0.0000 0.0000
# 2 8.3896 38.3732 2.8736 0.0000 0.0000 0.0000
# 3 21.6214 2.8736 61.5641 0.0000 0.0000 0.0000
# 4 0.0000 0.0000 0.0000 22.1406 0.0000 0.0000
# 5 0.0000 0.0000 0.0000 0.0000 23.5681 0.0000
# 6 0.0000 0.0000 0.0000 0.0000 0.0000 18.6485
#
#
#
# Elastic Compliance Matrix: (Units=1/GPa)
#
#
# Indices 1 2 3 4 5 6 
#
# 1 0.017390 -0.003356 -0.005951 0.000000 0.000000 0.000000
# 2 -0.003356 0.026799 -0.000072 0.000000 0.000000 0.000000
# 3 -0.005951 -0.000072 0.018336 0.000000 0.000000 0.000000
# 4 0.000000 0.000000 0.000000 0.045166 0.000000 0.000000
# 5 0.000000 0.000000 0.000000 0.000000 0.042430 0.000000
# 6 0.000000 0.000000 0.000000 0.000000 0.000000 0.053623
#
#
# Mechanical properties :
#
#
# Convention : Reuss Voigt Hill
#
# Bulk Modulus (GPa) = 22.84823 25.80327 24.32575
# Shear Modulus (GPa) = 21.08885 21.77650 21.43268
#
# Velocity S-wave (km/s) = 3.46708 3.52316 3.49523
# Velocity P-wave (km/s) = 5.38990 5.59089 5.49132
#
# Compressibility (1/GPa) = 0.04376706
#
# Stress axis : x y z
#
# Youngs Moduli (GPa) = 57.50506 37.31473 54.53613
#
# Poissons Ratio (x) = 0.12524 0.32453
# Poissons Ratio (y) = 0.19300 0.00394
# Poissons Ratio (z) = 0.34219 0.00269
#
# Static dielectric constant tensor:
#      x y z
#    x 3.188100 0.000000 0.000000 
#    y 0.000000 3.202560 0.000000 
#    z 0.000000 0.000000 3.195870 
# 
# 
# High freq. dielectric constant tensor:
#      x y z
#    x 1.668350 0.000000 0.000000 
#    y 0.000000 1.669890 0.000000 
#    z 0.000000 0.000000 1.667540 
# 
# From -- ./inp_files/33335.got.cif
#   From: 2010.03.12/outbox.cif.g09.slc.cpg/sg64_17_cif.got.tgz:33335.got - 2010.04.10 20:19:32.
