data_PCOD8261660
_publ_section_title
;
Structure prediction by ZEFSAII (Michael W. Deem and Ramdas Pophale) SiO2 
 PCOD8261660
Probable space group: C M C A
;
_chemical_formula_sum "Si O2"
_cell_formula_units_Z 104
_cell_length_a 17.934817
_cell_length_b 17.426018
_cell_length_c 18.202035
_cell_angle_alpha 90.000000
_cell_angle_beta 90.000000
_cell_angle_gamma 90.000000
_cell_volume 5688.726482
_symmetry_space_group_name_H-M "C M C A"
_symmetry_group_IT_number 64
_symmetry_cell_setting 'orthorhombic'
loop_
_space_group_symop_operation_xyz
x,y,z
-x,1/2-y,1/2+z
x,-y,-z
-x,1/2+y,1/2-z
-x,-y,-z
x,1/2+y,1/2-z
-x,y,z
x,1/2-y,1/2+z
1/2+x,1/2+y,z
1/2-x,-y,1/2+z
1/2+x,1/2-y,-z
1/2-x,y,1/2-z
1/2-x,1/2-y,-z
1/2+x,y,1/2-z
1/2-x,1/2+y,z
1/2+x,-y,1/2+z
loop_
_atom_site_type_symbol
_atom_site_label
_atom_site_fract_x
_atom_site_fract_y
_atom_site_fract_z
Si Si1 0.192492 0.358234 0.515146
Si Si2 0.665898 0.212932 0.066732
Si Si3 0.087178 0.832588 0.864039
Si Si4 0.709513 0.000000 0.000000
Si Si5 0.083905 0.496974 0.111701
Si Si6 0.585087 0.860793 0.797936
Si Si7 0.084072 0.670370 0.924922
O O1 0.247085 0.307910 0.567160
O O2 0.158468 0.304503 0.450166
O O3 0.127203 0.383065 0.572206
O O4 0.235022 0.430317 0.479260
O O5 0.628961 0.192483 0.144324
O O6 0.630241 0.163509 0.000048
O O7 0.118986 0.852251 0.783414
O O8 0.106547 0.743044 0.876283
O O9 0.000000 0.851360 0.869099
O O10 0.653172 0.027497 0.063632
O O11 0.089802 0.548034 0.184861
O O12 0.095821 0.406026 0.124788
O O13 0.000000 0.510175 0.077141
O O14 0.500000 0.831464 0.799374
O O15 0.000000 0.678946 0.951944
#
# Coordination Sequence:
#
# PCOD8261660 Si02
#       7
#    16  16  16   8  16  16  16
#     4  10  21  33  53  73 107 142 174 213 260 312
#     4  10  18  32  50  79 104 135 172 212 257 313
#     4   9  20  37  53  72 103 145 182 213 259 317
#     4  12  19  34  51  78 108 136 168 218 267 322
#     4  10  18  29  51  82 108 130 162 218 276 319
#     4  10  19  33  55  81 107 135 174 220 266 318
#     4   9  16  30  53  78 106 135 166 211 269 317
#
# _framework density 18.281772
#
# number of rings (size 3 to 8) (size 9 to 14) (size 15 to 20)
#    0.000    2.154    3.077    0.692    0.000    3.692 
#    0.000    1.923    0.000    1.846    0.000    0.000 
#    0.000    0.000    0.000    0.000    0.000    0.000 
#
# Total GULP energy -644335.086015 kJ/mol
# GULP energy per Si atom -12391.059346 kJ/mol
# Density = 1.824016 g / cm^3
# Si number density = 18.281772 Si / 1000 Ang^3
#
#
#
# Elastic Constant Matrix: (Units=GPa)
#
#
# Indices 1 2 3 4 5 6 
#
# 1 68.8928 32.6983 36.6648 0.0000 0.0000 0.0000
# 2 32.6983 78.8440 24.1736 0.0000 0.0000 0.0000
# 3 36.6648 24.1736 76.1101 0.0000 0.0000 0.0000
# 4 0.0000 0.0000 0.0000 22.6871 0.0000 0.0000
# 5 0.0000 0.0000 0.0000 0.0000 7.5989 0.0000
# 6 0.0000 0.0000 0.0000 0.0000 0.0000 27.2342
#
#
#
# Elastic Compliance Matrix: (Units=1/GPa)
#
#
# Indices 1 2 3 4 5 6 
#
# 1 0.022221 -0.006574 -0.008617 0.000000 0.000000 0.000000
# 2 -0.006574 0.015996 -0.001914 0.000000 0.000000 0.000000
# 3 -0.008617 -0.001914 0.017898 0.000000 0.000000 0.000000
# 4 0.000000 0.000000 0.000000 0.044078 0.000000 0.000000
# 5 0.000000 0.000000 0.000000 0.000000 0.131597 0.000000
# 6 0.000000 0.000000 0.000000 0.000000 0.000000 0.036719
#
#
# Mechanical properties :
#
#
# Convention : Reuss Voigt Hill
#
# Bulk Modulus (GPa) = 45.64852 45.65780 45.65316
# Shear Modulus (GPa) = 16.12799 20.19140 18.15970
#
# Velocity S-wave (km/s) = 2.97339 3.32694 3.15512
# Velocity P-wave (km/s) = 6.06726 6.30767 6.18864
#
# Compressibility (1/GPa) = 0.02190651
#
# Stress axis : x y z
#
# Youngs Moduli (GPa) = 45.00207 62.51434 55.87300
#
# Poissons Ratio (x) = 0.41095 0.48145
# Poissons Ratio (y) = 0.29583 0.10693
# Poissons Ratio (z) = 0.38777 0.11965
#
# Static dielectric constant tensor:
#      x y z
#    x 3.537300 0.000000 0.000000 
#    y 0.000000 3.374830 0.000000 
#    z 0.000000 0.000000 3.098540 
# 
# 
# High freq. dielectric constant tensor:
#      x y z
#    x 1.716680 0.000000 0.000000 
#    y 0.000000 1.704570 0.000000 
#    z 0.000000 0.000000 1.668060 
# 
# From -- ./inp_files/33432.got.cif
#   From: 2010.03.12/outbox.cif.g09.slc.cpg/sg64_17_cif.got.tgz:33432.got - 2010.04.10 20:19:32.
