data_PCOD8261272
_publ_section_title
;
Structure prediction by ZEFSAII (Michael W. Deem and Ramdas Pophale) SiO2 
 PCOD8261272
Probable space group: C M C M
;
_chemical_formula_sum "Si O2"
_cell_formula_units_Z 80
_cell_length_a 13.388332
_cell_length_b 44.087171
_cell_length_c 9.919718
_cell_angle_alpha 90.000000
_cell_angle_beta 90.000000
_cell_angle_gamma 90.000000
_cell_volume 5855.150077
_symmetry_space_group_name_H-M "C M C M"
_symmetry_group_IT_number 63
_symmetry_cell_setting 'orthorhombic'
loop_
_space_group_symop_operation_xyz
x,y,z
-x,-y,1/2+z
x,-y,-z
-x,y,1/2-z
-x,-y,-z
x,y,1/2-z
-x,y,z
x,-y,1/2+z
1/2+x,1/2+y,z
1/2-x,1/2-y,1/2+z
1/2+x,1/2-y,-z
1/2-x,1/2+y,1/2-z
1/2-x,1/2-y,-z
1/2+x,1/2+y,1/2-z
1/2-x,1/2+y,z
1/2+x,1/2-y,1/2+z
loop_
_atom_site_type_symbol
_atom_site_label
_atom_site_fract_x
_atom_site_fract_y
_atom_site_fract_z
Si Si1 0.616209 0.144851 0.594798
Si Si2 0.118672 0.407410 0.901133
Si Si3 0.884500 0.232795 0.095140
Si Si4 0.728714 0.206036 0.594891
Si Si5 0.618862 0.974710 0.901141
O O1 0.633047 0.136084 0.750000
O O2 0.500000 0.150675 0.564396
O O3 0.660635 0.117398 0.505427
O O4 0.674885 0.175024 0.554553
O O5 0.155645 0.399485 0.750000
O O6 0.156694 0.441053 0.942945
O O7 0.000000 0.407266 0.905465
O O8 0.865186 0.223589 0.250000
O O9 0.849776 0.267118 0.068030
O O10 0.000000 0.230500 0.056880
O O11 0.825172 0.209655 0.999562
O O12 0.763998 0.205834 0.750000
O O13 0.654682 0.982292 0.750000
O O14 0.500000 0.975556 0.908609
O O15 0.665885 0.000000 0.000000
#
# Coordination Sequence:
#
# PCOD8261272 Si02
#       5
#    16  16  16  16  16
#     4   9  16  25  37  52  70  93 120 149 181 216
#     4   8  14  23  32  44  64  88 114 146 181 212
#     4   9  17  29  43  57  74  95 118 146 180 217
#     4   9  17  28  41  57  75  94 118 148 181 216
#     4   8  13  20  29  41  58  81 110 144 178 208
#
# _framework density 13.663185
#
# number of rings (size 3 to 8) (size 9 to 14) (size 15 to 20)
#    0.000    3.400    0.000    1.800    0.000    4.400 
#    0.000    4.000    0.000    3.600    0.000    0.000 
#    0.000    0.000    0.000    0.000    0.000    1.000 
#
# Total GULP energy -495809.111251 kJ/mol
# GULP energy per Si atom -12395.227781 kJ/mol
# Density = 1.363209 g / cm^3
# Si number density = 13.663185 Si / 1000 Ang^3
#
#
#
# Elastic Constant Matrix: (Units=GPa)
#
#
# Indices 1 2 3 4 5 6 
#
# 1 50.2906 32.6772 38.3606 0.0000 0.0000 0.0000
# 2 32.6772 119.6926 76.3839 0.0000 0.0000 0.0000
# 3 38.3606 76.3839 87.8794 0.0000 0.0000 0.0000
# 4 0.0000 0.0000 0.0000 30.2944 0.0000 0.0000
# 5 0.0000 0.0000 0.0000 0.0000 16.4905 0.0000
# 6 0.0000 0.0000 0.0000 0.0000 0.0000 9.9270
#
#
#
# Elastic Compliance Matrix: (Units=1/GPa)
#
#
# Indices 1 2 3 4 5 6 
#
# 1 0.029818 0.000372 -0.013339 0.000000 0.000000 0.000000
# 2 0.000372 0.018766 -0.016474 0.000000 0.000000 0.000000
# 3 -0.013339 -0.016474 0.031521 0.000000 0.000000 0.000000
# 4 0.000000 0.000000 0.000000 0.033009 0.000000 0.000000
# 5 0.000000 0.000000 0.000000 0.000000 0.060641 0.000000
# 6 0.000000 0.000000 0.000000 0.000000 0.000000 0.100735
#
#
# Mechanical properties :
#
#
# Convention : Reuss Voigt Hill
#
# Bulk Modulus (GPa) = 47.11919 61.41178 54.26549
# Shear Modulus (GPa) = 14.68661 18.70512 16.69587
#
# Velocity S-wave (km/s) = 3.28213 3.70404 3.49945
# Velocity P-wave (km/s) = 6.99459 7.95850 7.49206
#
# Compressibility (1/GPa) = 0.02122278
#
# Stress axis : x y z
#
# Youngs Moduli (GPa) = 33.53727 53.28729 31.72485
#
# Poissons Ratio (x) = -0.01984 0.42319
# Poissons Ratio (y) = -0.01249 0.52263
# Poissons Ratio (z) = 0.44737 0.87785
#
# Static dielectric constant tensor:
#      x y z
#    x 2.272740 0.000000 0.000000 
#    y 0.000000 2.902650 0.000000 
#    z 0.000000 0.000000 2.877120 
# 
# 
# High freq. dielectric constant tensor:
#      x y z
#    x 1.457740 0.000000 0.000000 
#    y 0.000000 1.522550 0.000000 
#    z 0.000000 0.000000 1.529310 
# 
# From -- ./inp_files/17844.got.cif
#   From: 2010.03.12/outbox.cif.g09.slc.cpg/sg63_9_cif.got.tgz:17844.got - 2010.04.10 19:34:48.
