data_PCOD8261498
_publ_section_title
;
Structure prediction by ZEFSAII (Michael W. Deem and Ramdas Pophale) SiO2 
 PCOD8261498
Probable space group: C M C A
;
_chemical_formula_sum "Si O2"
_cell_formula_units_Z 96
_cell_length_a 18.432597
_cell_length_b 9.927509
_cell_length_c 27.760140
_cell_angle_alpha 90.000000
_cell_angle_beta 90.000000
_cell_angle_gamma 90.000000
_cell_volume 5079.821706
_symmetry_space_group_name_H-M "C M C A"
_symmetry_group_IT_number 64
_symmetry_cell_setting 'orthorhombic'
loop_
_space_group_symop_operation_xyz
x,y,z
-x,1/2-y,1/2+z
x,-y,-z
-x,1/2+y,1/2-z
-x,-y,-z
x,1/2+y,1/2-z
-x,y,z
x,1/2-y,1/2+z
1/2+x,1/2+y,z
1/2-x,-y,1/2+z
1/2+x,1/2-y,-z
1/2-x,y,1/2-z
1/2-x,1/2-y,-z
1/2+x,y,1/2-z
1/2-x,1/2+y,z
1/2+x,-y,1/2+z
loop_
_atom_site_type_symbol
_atom_site_label
_atom_site_fract_x
_atom_site_fract_y
_atom_site_fract_z
Si Si1 0.718908 0.316571 0.197103
Si Si2 0.790078 0.451550 0.859051
Si Si3 0.920697 0.595467 0.651759
Si Si4 0.081054 0.857673 0.586418
Si Si5 0.669162 0.709231 0.987083
Si Si6 0.339995 0.949229 0.576317
O O1 0.750000 0.331489 0.250000
O O2 0.770067 0.401205 0.160902
O O3 0.715727 0.159987 0.183039
O O4 0.637708 0.379912 0.194258
O O5 0.870540 0.461338 0.882184
O O6 0.736428 0.401957 0.901270
O O7 0.923763 0.721138 0.616308
O O8 0.898285 0.465934 0.619435
O O9 0.000000 0.568893 0.674959
O O10 0.119701 0.829064 0.534753
O O11 0.000000 0.916535 0.578003
O O12 0.674716 0.592252 0.948117
O O13 0.750000 0.750000 0.000000
O O14 0.631725 0.657942 0.036874
#
# Coordination Sequence:
#
# PCOD8261498 Si02
#       6
#    16  16  16  16  16  16
#     4  10  20  34  56  81 100 127 169 215 262 315
#     4  10  19  34  54  76 102 135 170 213 259 308
#     4   8  16  31  50  73 101 130 167 212 257 300
#     4   9  17  30  48  72 101 136 173 205 249 303
#     4  10  17  28  47  74 104 137 180 218 246 296
#     4   9  18  28  48  76  98 138 177 215 254 294
#
# _framework density 18.898301
#
# number of rings (size 3 to 8) (size 9 to 14) (size 15 to 20)
#    0.000    2.667    1.667    1.500    0.000    0.667 
#    0.000    4.167    0.000   16.000    0.000    0.000 
#    0.000    0.000    0.000    0.000    0.000    0.000 
#
# Total GULP energy -594854.053634 kJ/mol
# GULP energy per Si atom -12392.792784 kJ/mol
# Density = 1.885529 g / cm^3
# Si number density = 18.898301 Si / 1000 Ang^3
#
#
#
# Elastic Constant Matrix: (Units=GPa)
#
#
# Indices 1 2 3 4 5 6 
#
# 1 138.2261 1.4100 32.4318 0.0000 0.0000 0.0000
# 2 1.4100 18.5412 -6.2130 0.0000 0.0000 0.0000
# 3 32.4318 -6.2130 75.5719 0.0000 0.0000 0.0000
# 4 0.0000 0.0000 0.0000 16.4316 0.0000 0.0000
# 5 0.0000 0.0000 0.0000 0.0000 26.6049 0.0000
# 6 0.0000 0.0000 0.0000 0.0000 0.0000 17.3146
#
#
#
# Elastic Compliance Matrix: (Units=1/GPa)
#
#
# Indices 1 2 3 4 5 6 
#
# 1 0.008105 -0.001832 -0.003629 0.000000 0.000000 0.000000
# 2 -0.001832 0.055876 0.005380 0.000000 0.000000 0.000000
# 3 -0.003629 0.005380 0.015232 0.000000 0.000000 0.000000
# 4 0.000000 0.000000 0.000000 0.060858 0.000000 0.000000
# 5 0.000000 0.000000 0.000000 0.000000 0.037587 0.000000
# 6 0.000000 0.000000 0.000000 0.000000 0.000000 0.057755
#
#
# Mechanical properties :
#
#
# Convention : Reuss Voigt Hill
#
# Bulk Modulus (GPa) = 12.65007 31.95520 22.30263
# Shear Modulus (GPa) = 19.08941 25.71757 22.40349
#
# Velocity S-wave (km/s) = 3.18167 3.69296 3.44681
# Velocity P-wave (km/s) = 4.49507 5.92703 5.26001
#
# Compressibility (1/GPa) = 0.07905094
#
# Stress axis : x y z
#
# Youngs Moduli (GPa) = 123.38633 17.89672 65.65108
#
# Poissons Ratio (x) = 0.03279 0.23823
# Poissons Ratio (y) = 0.22608 -0.35321
# Poissons Ratio (z) = 0.44774 -0.09629
#
# Static dielectric constant tensor:
#      x y z
#    x 3.853300 0.000000 0.000000 
#    y 0.000000 3.222090 0.000000 
#    z 0.000000 0.000000 3.438060 
# 
# 
# High freq. dielectric constant tensor:
#      x y z
#    x 1.727500 0.000000 0.000000 
#    y 0.000000 1.706270 0.000000 
#    z 0.000000 0.000000 1.723400 
# 
# From -- ./inp_files/50381.got.cif
#   From: 2010.03.12/outbox.cif.g09.slc.cpg/sg64_26_cif.got.tgz:50381.got - 2010.04.10 20:19:32.
