data_PCOD8261995
_publ_section_title
;
Structure prediction by ZEFSAII (Michael W. Deem and Ramdas Pophale) SiO2 
 PCOD8261995
Probable space group: C M C A
;
_chemical_formula_sum "Si O2"
_cell_formula_units_Z 96
_cell_length_a 8.907972
_cell_length_b 22.806890
_cell_length_c 26.560841
_cell_angle_alpha 90.000000
_cell_angle_beta 90.000000
_cell_angle_gamma 90.000000
_cell_volume 5396.183793
_symmetry_space_group_name_H-M "C M C A"
_symmetry_group_IT_number 64
_symmetry_cell_setting 'orthorhombic'
loop_
_space_group_symop_operation_xyz
x,y,z
-x,1/2-y,1/2+z
x,-y,-z
-x,1/2+y,1/2-z
-x,-y,-z
x,1/2+y,1/2-z
-x,y,z
x,1/2-y,1/2+z
1/2+x,1/2+y,z
1/2-x,-y,1/2+z
1/2+x,1/2-y,-z
1/2-x,y,1/2-z
1/2-x,1/2-y,-z
1/2+x,y,1/2-z
1/2-x,1/2+y,z
1/2+x,-y,1/2+z
loop_
_atom_site_type_symbol
_atom_site_label
_atom_site_fract_x
_atom_site_fract_y
_atom_site_fract_z
Si Si1 0.326670 0.689622 0.698044
Si Si2 0.178271 0.005445 0.942433
Si Si3 0.324193 0.673951 0.197320
Si Si4 0.836707 0.009464 0.795742
Si Si5 0.322218 0.421592 0.637306
Si Si6 0.163398 0.608083 0.623738
O O1 0.500000 0.675035 0.704627
O O2 0.250000 0.668122 0.750000
O O3 0.293969 0.757538 0.688800
O O4 0.270712 0.657223 0.647200
O O5 0.230408 0.071019 0.923808
O O6 0.000000 0.999144 0.934846
O O7 0.255892 0.951897 0.912740
O O8 0.227772 0.000000 0.000000
O O9 0.500000 0.659380 0.199171
O O10 0.250000 0.653634 0.250000
O O11 0.247849 0.642471 0.148872
O O12 0.750000 0.040070 0.750000
O O13 0.863973 0.058199 0.836136
O O14 0.000000 0.983182 0.780682
O O15 0.726292 0.958562 0.814142
O O16 0.500000 0.417212 0.631861
O O17 0.000000 0.636258 0.610434
#
# Coordination Sequence:
#
# PCOD8261995 Si02
#       6
#    16  16  16  16  16  16
#     4  10  20  32  49  72 101 137 171 204 240 284
#     4   9  19  37  58  77  98 127 162 203 255 307
#     4  10  20  34  50  71 101 137 173 205 241 287
#     4  10  19  30  44  66  97 131 163 197 241 292
#     4  11  21  32  49  73  99 128 162 203 248 293
#     4   9  18  31  49  72  97 126 160 199 243 293
#
# _framework density 17.79035
#
# number of rings (size 3 to 8) (size 9 to 14) (size 15 to 20)
#    0.000    2.167    0.000    5.000    0.000    7.000 
#    0.000    0.000    0.000    1.000    0.000    0.000 
#    0.000    0.000    0.000    0.000    0.000    0.000 
#
# Total GULP energy -594809.094584 kJ/mol
# GULP energy per Si atom -12391.856137 kJ/mol
# Density = 1.774986 g / cm^3
# Si number density = 17.790350 Si / 1000 Ang^3
#
#
#
# Elastic Constant Matrix: (Units=GPa)
#
#
# Indices 1 2 3 4 5 6 
#
# 1 109.9279 48.8524 58.4621 0.0000 0.0000 0.0000
# 2 48.8524 78.7583 42.1512 0.0000 0.0000 0.0000
# 3 58.4621 42.1512 97.5404 0.0000 0.0000 0.0000
# 4 0.0000 0.0000 0.0000 34.3402 0.0000 0.0000
# 5 0.0000 0.0000 0.0000 0.0000 21.5810 0.0000
# 6 0.0000 0.0000 0.0000 0.0000 0.0000 29.8920
#
#
#
# Elastic Compliance Matrix: (Units=1/GPa)
#
#
# Indices 1 2 3 4 5 6 
#
# 1 0.015221 -0.005930 -0.006560 0.000000 0.000000 0.000000
# 2 -0.005930 0.018828 -0.004582 0.000000 0.000000 0.000000
# 3 -0.006560 -0.004582 0.016164 0.000000 0.000000 0.000000
# 4 0.000000 0.000000 0.000000 0.029120 0.000000 0.000000
# 5 0.000000 0.000000 0.000000 0.000000 0.046337 0.000000
# 6 0.000000 0.000000 0.000000 0.000000 0.000000 0.033454
#
#
# Mechanical properties :
#
#
# Convention : Reuss Voigt Hill
#
# Bulk Modulus (GPa) = 62.23477 65.01757 63.62617
# Shear Modulus (GPa) = 25.17299 26.28002 25.72650
#
# Velocity S-wave (km/s) = 3.76570 3.84761 3.80688
# Velocity P-wave (km/s) = 7.34613 7.50764 7.42733
#
# Compressibility (1/GPa) = 0.01606819
#
# Stress axis : x y z
#
# Youngs Moduli (GPa) = 65.69743 53.11296 61.86542
#
# Poissons Ratio (x) = 0.31498 0.40585
# Poissons Ratio (y) = 0.38962 0.28345
# Poissons Ratio (z) = 0.43099 0.24335
#
# Static dielectric constant tensor:
#      x y z
#    x 3.359370 0.000000 0.000000 
#    y 0.000000 3.462730 0.000000 
#    z 0.000000 0.000000 1.846290 
# 
# 
# High freq. dielectric constant tensor:
#      x y z
#    x 1.698010 0.000000 0.000000 
#    y 0.000000 1.680620 0.000000 
#    z 0.000000 0.000000 1.661850 
# 
# From -- ./inp_files/48334.got.cif
#   From: 2010.03.12/outbox.cif.g09.slc.cpg/sg64_25_cif.got.tgz:48334.got - 2010.04.10 20:19:32.
