data_PCOD8261519
_publ_section_title
;
Structure prediction by ZEFSAII (Michael W. Deem and Ramdas Pophale) SiO2 
 PCOD8261519
Probable space group: C M C A
;
_chemical_formula_sum "Si O2"
_cell_formula_units_Z 88
_cell_length_a 18.317760
_cell_length_b 18.957239
_cell_length_c 12.891836
_cell_angle_alpha 90.000000
_cell_angle_beta 90.000000
_cell_angle_gamma 90.000000
_cell_volume 4476.743607
_symmetry_space_group_name_H-M "C M C A"
_symmetry_group_IT_number 64
_symmetry_cell_setting 'orthorhombic'
loop_
_space_group_symop_operation_xyz
x,y,z
-x,1/2-y,1/2+z
x,-y,-z
-x,1/2+y,1/2-z
-x,-y,-z
x,1/2+y,1/2-z
-x,y,z
x,1/2-y,1/2+z
1/2+x,1/2+y,z
1/2-x,-y,1/2+z
1/2+x,1/2-y,-z
1/2-x,y,1/2-z
1/2-x,1/2-y,-z
1/2+x,y,1/2-z
1/2-x,1/2+y,z
1/2+x,-y,1/2+z
loop_
_atom_site_type_symbol
_atom_site_label
_atom_site_fract_x
_atom_site_fract_y
_atom_site_fract_z
Si Si1 0.174713 0.255632 0.144043
Si Si2 0.250000 0.619895 0.750000
Si Si3 0.419638 0.185426 0.193309
Si Si4 0.777283 0.868577 0.640350
Si Si5 0.918665 0.206384 0.975609
Si Si6 0.683146 0.574439 0.959956
O O1 0.187956 0.331162 0.196476
O O2 0.117193 0.202402 0.197316
O O3 0.252051 0.214345 0.137008
O O4 0.134860 0.262757 0.033390
O O5 0.286238 0.572522 0.841180
O O6 0.500000 0.150772 0.205593
O O7 0.365692 0.130149 0.135643
O O8 0.426331 0.260994 0.137864
O O9 0.750000 0.902847 0.750000
O O10 0.748924 0.908086 0.538859
O O11 0.882254 0.129642 0.969706
O O12 0.000000 0.199902 0.025443
O O13 0.651629 0.500000 0.000000
#
# Coordination Sequence:
#
# PCOD8261519 Si02
#       6
#    16   8  16  16  16  16
#     4  10  17  32  55  83 109 140 177 234 295 344
#     4  12  20  36  58  84 112 148 194 246 294 340
#     4  10  17  29  51  84 114 136 169 225 294 347
#     4   9  18  35  55  81 111 144 183 237 288 339
#     4  10  20  34  55  84 116 145 182 233 293 346
#     4  11  24  37  57  80 114 160 205 237 272 337
#
# _framework density 19.657145
#
# number of rings (size 3 to 8) (size 9 to 14) (size 15 to 20)
#    0.000    1.818    4.545    1.636    1.273    3.273 
#    0.000    0.000    0.000    0.545    0.000    0.000 
#    0.000    0.000    0.000    0.000    0.000    0.000 
#
# Total GULP energy -545157.232283 kJ/mol
# GULP energy per Si atom -12389.937097 kJ/mol
# Density = 1.961240 g / cm^3
# Si number density = 19.657145 Si / 1000 Ang^3
#
#
#
# Elastic Constant Matrix: (Units=GPa)
#
#
# Indices 1 2 3 4 5 6 
#
# 1 136.0867 10.3034 17.9962 0.0000 0.0000 0.0000
# 2 10.3034 53.4955 17.6964 0.0000 0.0000 0.0000
# 3 17.9962 17.6964 84.5972 0.0000 0.0000 0.0000
# 4 0.0000 0.0000 0.0000 25.5058 0.0000 0.0000
# 5 0.0000 0.0000 0.0000 0.0000 23.7732 0.0000
# 6 0.0000 0.0000 0.0000 0.0000 0.0000 13.7102
#
#
#
# Elastic Compliance Matrix: (Units=1/GPa)
#
#
# Indices 1 2 3 4 5 6 
#
# 1 0.007610 -0.000999 -0.001410 0.000000 0.000000 0.000000
# 2 -0.000999 0.020214 -0.004016 0.000000 0.000000 0.000000
# 3 -0.001410 -0.004016 0.012961 0.000000 0.000000 0.000000
# 4 0.000000 0.000000 0.000000 0.039207 0.000000 0.000000
# 5 0.000000 0.000000 0.000000 0.000000 0.042064 0.000000
# 6 0.000000 0.000000 0.000000 0.000000 0.000000 0.072939
#
#
# Mechanical properties :
#
#
# Convention : Reuss Voigt Hill
#
# Bulk Modulus (GPa) = 35.79753 40.68570 38.24161
# Shear Modulus (GPa) = 23.02486 27.81006 25.41746
#
# Velocity S-wave (km/s) = 3.42617 3.76540 3.59979
# Velocity P-wave (km/s) = 5.82254 6.29658 6.06420
#
# Compressibility (1/GPa) = 0.02793489
#
# Stress axis : x y z
#
# Youngs Moduli (GPa) = 131.39977 49.47044 77.15634
#
# Poissons Ratio (x) = 0.04944 0.10878
# Poissons Ratio (y) = 0.13132 0.30985
# Poissons Ratio (z) = 0.18526 0.19867
#
# Static dielectric constant tensor:
#      x y z
#    x 3.729260 0.000000 0.000000 
#    y 0.000000 3.060840 0.000000 
#    z 0.000000 0.000000 3.817820 
# 
# 
# High freq. dielectric constant tensor:
#      x y z
#    x 1.764520 0.000000 0.000000 
#    y 0.000000 1.707410 0.000000 
#    z 0.000000 0.000000 1.786160 
# 
# From -- ./inp_files/25401.got.cif
#   From: 2010.03.12/outbox.cif.g09.slc.cpg/sg64_13_cif.got.tgz:25401.got - 2010.04.10 20:19:32.
