data_PCOD8261333
_publ_section_title
;
Structure prediction by ZEFSAII (Michael W. Deem and Ramdas Pophale) SiO2 
 PCOD8261333
Probable space group: C M C M
;
_chemical_formula_sum "Si O2"
_cell_formula_units_Z 64
_cell_length_a 9.879906
_cell_length_b 41.018112
_cell_length_c 9.217200
_cell_angle_alpha 90.000000
_cell_angle_beta 90.000000
_cell_angle_gamma 90.000000
_cell_volume 3735.317223
_symmetry_space_group_name_H-M "C M C M"
_symmetry_group_IT_number 63
_symmetry_cell_setting 'orthorhombic'
loop_
_space_group_symop_operation_xyz
x,y,z
-x,-y,1/2+z
x,-y,-z
-x,y,1/2-z
-x,-y,-z
x,y,1/2-z
-x,y,z
x,-y,1/2+z
1/2+x,1/2+y,z
1/2-x,1/2-y,1/2+z
1/2+x,1/2-y,-z
1/2-x,1/2+y,1/2-z
1/2-x,1/2-y,-z
1/2+x,1/2+y,1/2-z
1/2-x,1/2+y,z
1/2+x,1/2-y,1/2+z
loop_
_atom_site_type_symbol
_atom_site_label
_atom_site_fract_x
_atom_site_fract_y
_atom_site_fract_z
Si Si1 0.161033 0.031138 0.586124
Si Si2 0.349886 0.847890 0.577596
Si Si3 0.655996 0.775120 0.581098
Si Si4 0.343494 0.404682 0.579946
O O1 0.218010 0.030925 0.750000
O O2 0.209733 0.063671 0.504817
O O3 0.000000 0.029564 0.587251
O O4 0.219906 0.000000 0.500000
O O5 0.350640 0.847521 0.750000
O O6 0.500000 0.857394 0.520983
O O7 0.311185 0.811635 0.523311
O O8 0.241201 0.873953 0.519909
O O9 0.688672 0.772566 0.750000
O O10 0.500000 0.766567 0.549716
O O11 0.750000 0.750000 0.500000
O O12 0.319703 0.410872 0.750000
O O13 0.500000 0.397445 0.546374
#
# Coordination Sequence:
#
# PCOD8261333 Si02
#       4
#    16  16  16  16
#     4   9  16  26  41  62  89 118 145 177 219 262
#     4   8  15  29  47  65  88 119 151 182 220 268
#     4   9  18  32  49  70  95 123 157 195 234 278
#     4   9  16  26  43  67  89 110 143 184 221 260
#
# _framework density 17.133752999999999
#
# number of rings (size 3 to 8) (size 9 to 14) (size 15 to 20)
#    0.000    3.250    0.000    2.250    0.000    4.500 
#    0.000    3.750    0.000    6.000    0.000    0.000 
#    0.000    0.000    0.000    0.000    0.000    0.000 
#
# Total GULP energy -396671.869404 kJ/mol
# GULP energy per Si atom -12395.995919 kJ/mol
# Density = 1.709476 g / cm^3
# Si number density = 17.133753 Si / 1000 Ang^3
#
#
#
# Elastic Constant Matrix: (Units=GPa)
#
#
# Indices 1 2 3 4 5 6 
#
# 1 71.2061 82.0474 38.0015 0.0000 0.0000 0.0000
# 2 82.0474 175.1581 61.9602 0.0000 0.0000 0.0000
# 3 38.0015 61.9602 66.6687 0.0000 0.0000 0.0000
# 4 0.0000 0.0000 0.0000 30.6593 0.0000 0.0000
# 5 0.0000 0.0000 0.0000 0.0000 16.5487 0.0000
# 6 0.0000 0.0000 0.0000 0.0000 0.0000 26.5721
#
#
#
# Elastic Compliance Matrix: (Units=1/GPa)
#
#
# Indices 1 2 3 4 5 6 
#
# 1 0.032287 -0.012832 -0.006478 0.000000 0.000000 0.000000
# 2 -0.012832 0.013606 -0.005330 0.000000 0.000000 0.000000
# 3 -0.006478 -0.005330 0.023645 0.000000 0.000000 0.000000
# 4 0.000000 0.000000 0.000000 0.032617 0.000000 0.000000
# 5 0.000000 0.000000 0.000000 0.000000 0.060428 0.000000
# 6 0.000000 0.000000 0.000000 0.000000 0.000000 0.037633
#
#
# Mechanical properties :
#
#
# Convention : Reuss Voigt Hill
#
# Bulk Modulus (GPa) = 49.36389 75.22791 62.29590
# Shear Modulus (GPa) = 19.51231 23.49094 21.50162
#
# Velocity S-wave (km/s) = 3.37831 3.70676 3.54634
# Velocity P-wave (km/s) = 6.64008 7.89441 7.29426
#
# Compressibility (1/GPa) = 0.02025772
#
# Stress axis : x y z
#
# Youngs Moduli (GPa) = 30.97226 73.49934 42.29145
#
# Poissons Ratio (x) = 0.94318 0.27395
# Poissons Ratio (y) = 0.39745 0.22542
# Poissons Ratio (z) = 0.20062 0.39176
#
# Static dielectric constant tensor:
#      x y z
#    x 3.048390 0.000000 0.000000 
#    y 0.000000 3.776200 0.000000 
#    z 0.000000 0.000000 3.178750 
# 
# 
# High freq. dielectric constant tensor:
#      x y z
#    x 1.631070 0.000000 0.000000 
#    y 0.000000 1.674230 0.000000 
#    z 0.000000 0.000000 1.636990 
# 
# From -- ./inp_files/3092.got.cif
#   From: 2010.03.12/outbox.cif.g09.slc.cpg/sg63_2_cif.got.tgz:3092.got - 2010.04.10 19:34:48.
