data_PCOD8261606
_publ_section_title
;
Structure prediction by ZEFSAII (Michael W. Deem and Ramdas Pophale) SiO2 
 PCOD8261606
Probable space group: C M C A
;
_chemical_formula_sum "Si O2"
_cell_formula_units_Z 96
_cell_length_a 27.427617
_cell_length_b 24.976953
_cell_length_c 8.591552
_cell_angle_alpha 90.000000
_cell_angle_beta 90.000000
_cell_angle_gamma 90.000000
_cell_volume 5885.714014
_symmetry_space_group_name_H-M "C M C A"
_symmetry_group_IT_number 64
_symmetry_cell_setting 'orthorhombic'
loop_
_space_group_symop_operation_xyz
x,y,z
-x,1/2-y,1/2+z
x,-y,-z
-x,1/2+y,1/2-z
-x,-y,-z
x,1/2+y,1/2-z
-x,y,z
x,1/2-y,1/2+z
1/2+x,1/2+y,z
1/2-x,-y,1/2+z
1/2+x,1/2-y,-z
1/2-x,y,1/2-z
1/2-x,1/2-y,-z
1/2+x,y,1/2-z
1/2-x,1/2+y,z
1/2+x,-y,1/2+z
loop_
_atom_site_type_symbol
_atom_site_label
_atom_site_fract_x
_atom_site_fract_y
_atom_site_fract_z
Si Si1 0.806503 0.907351 0.290101
Si Si2 0.698887 0.790066 0.166648
Si Si3 0.878578 0.514715 0.673561
Si Si4 0.857237 0.915671 0.604277
Si Si5 0.946404 0.056726 0.580124
Si Si6 0.302969 0.686278 0.311113
O O1 0.750000 0.910812 0.250000
O O2 0.825207 0.845618 0.273986
O O3 0.833821 0.943676 0.164083
O O4 0.818261 0.928424 0.465814
O O5 0.750000 0.781209 0.250000
O O6 0.671241 0.734852 0.213341
O O7 0.705586 0.792716 0.983950
O O8 0.894259 0.500000 0.500000
O O9 0.860710 0.464282 0.775119
O O10 0.924280 0.545741 0.749181
O O11 0.910025 0.906185 0.521983
O O12 0.840764 0.862997 0.697427
O O13 0.000000 0.083991 0.594070
O O14 0.951718 0.000000 0.500000
O O15 0.250000 0.667047 0.250000
#
# Coordination Sequence:
#
# PCOD8261606 Si02
#       6
#    16  16  16  16  16  16
#     4   9  18  31  44  59  89 130 164 191 221 273
#     4   9  17  28  42  61  84 119 161 190 221 262
#     4  10  20  29  43  70  96 118 152 194 237 290
#     4   9  19  32  45  68  93 121 160 188 228 287
#     4   8  15  32  52  65  86 118 150 190 233 274
#     4  10  18  28  44  64  91 121 152 191 226 267
#
# _framework density 16.310680999999999
#
# number of rings (size 3 to 8) (size 9 to 14) (size 15 to 20)
#    0.000    2.833    0.000    3.500    0.000    7.667 
#    0.000    0.000    0.000    0.000    0.000   10.500 
#    0.000    0.000    0.000    0.000    0.000    0.000 
#
# Total GULP energy -594688.718348 kJ/mol
# GULP energy per Si atom -12389.348299 kJ/mol
# Density = 1.627356 g / cm^3
# Si number density = 16.310681 Si / 1000 Ang^3
#
#
#
# Elastic Constant Matrix: (Units=GPa)
#
#
# Indices 1 2 3 4 5 6 
#
# 1 104.4262 52.3551 38.6950 0.0000 0.0000 0.0000
# 2 52.3551 94.4626 39.0049 0.0000 0.0000 0.0000
# 3 38.6950 39.0049 78.3951 0.0000 0.0000 0.0000
# 4 0.0000 0.0000 0.0000 27.1527 0.0000 0.0000
# 5 0.0000 0.0000 0.0000 0.0000 11.2739 0.0000
# 6 0.0000 0.0000 0.0000 0.0000 0.0000 6.8056
#
#
#
# Elastic Compliance Matrix: (Units=1/GPa)
#
#
# Indices 1 2 3 4 5 6 
#
# 1 0.014139 -0.006236 -0.003876 0.000000 0.000000 0.000000
# 2 -0.006236 0.016074 -0.004919 0.000000 0.000000 0.000000
# 3 -0.003876 -0.004919 0.017117 0.000000 0.000000 0.000000
# 4 0.000000 0.000000 0.000000 0.036829 0.000000 0.000000
# 5 0.000000 0.000000 0.000000 0.000000 0.088700 0.000000
# 6 0.000000 0.000000 0.000000 0.000000 0.000000 0.146938
#
#
# Mechanical properties :
#
#
# Convention : Reuss Voigt Hill
#
# Bulk Modulus (GPa) = 57.91584 59.71045 58.81314
# Shear Modulus (GPa) = 14.06015 18.86168 16.46091
#
# Velocity S-wave (km/s) = 2.93920 3.40428 3.18025
# Velocity P-wave (km/s) = 6.86320 7.22079 7.04427
#
# Compressibility (1/GPa) = 0.01726643
#
# Stress axis : x y z
#
# Youngs Moduli (GPa) = 70.72713 62.21371 58.42220
#
# Poissons Ratio (x) = 0.38795 0.22646
# Poissons Ratio (y) = 0.44104 0.28740
# Poissons Ratio (z) = 0.27415 0.30605
#
# Static dielectric constant tensor:
#      x y z
#    x 3.144130 0.000000 0.000000 
#    y 0.000000 3.374710 0.000000 
#    z 0.000000 0.000000 3.104660 
# 
# 
# High freq. dielectric constant tensor:
#      x y z
#    x 1.591040 0.000000 0.000000 
#    y 0.000000 1.626170 0.000000 
#    z 0.000000 0.000000 1.629890 
# 
# From -- ./inp_files/10662.got.cif
#   From: 2010.03.12/outbox.cif.g09.slc.cpg/sg64_6_cif.got.tgz:10662.got - 2010.04.10 20:19:32.
