data_PCOD8261049
_publ_section_title
;
Structure prediction by ZEFSAII (Michael W. Deem and Ramdas Pophale) SiO2 
 PCOD8261049
Probable space group: C M C M
;
_chemical_formula_sum "Si O2"
_cell_formula_units_Z 112
_cell_length_a 14.689562
_cell_length_b 12.449119
_cell_length_c 27.622478
_cell_angle_alpha 90.000000
_cell_angle_beta 90.000000
_cell_angle_gamma 90.000000
_cell_volume 5051.380708
_symmetry_space_group_name_H-M "C M C M"
_symmetry_group_IT_number 63
_symmetry_cell_setting 'orthorhombic'
loop_
_space_group_symop_operation_xyz
x,y,z
-x,-y,1/2+z
x,-y,-z
-x,y,1/2-z
-x,-y,-z
x,y,1/2-z
-x,y,z
x,-y,1/2+z
1/2+x,1/2+y,z
1/2-x,1/2-y,1/2+z
1/2+x,1/2-y,-z
1/2-x,1/2+y,1/2-z
1/2-x,1/2-y,-z
1/2+x,1/2+y,1/2-z
1/2-x,1/2+y,z
1/2+x,1/2-y,1/2+z
loop_
_atom_site_type_symbol
_atom_site_label
_atom_site_fract_x
_atom_site_fract_y
_atom_site_fract_z
Si Si1 0.838456 0.795550 0.953084
Si Si2 0.715922 0.773485 0.695061
Si Si3 0.105176 0.431377 0.628133
Si Si4 0.098282 0.996803 0.902680
Si Si5 0.260576 0.875198 0.117215
Si Si6 0.899139 0.894198 0.803093
Si Si7 0.151846 0.383437 0.977968
O O1 0.906235 0.883906 0.931228
O O2 0.794829 0.731876 0.908385
O O3 0.759801 0.862153 0.980649
O O4 0.891234 0.711900 0.988608
O O5 0.681878 0.759156 0.750000
O O6 0.650840 0.860105 0.669617
O O7 0.711914 0.659623 0.667336
O O8 0.822035 0.804567 0.692623
O O9 0.155919 0.545098 0.626085
O O10 0.112749 0.373148 0.576042
O O11 0.000000 0.450318 0.641328
O O12 0.114161 0.980684 0.845308
O O13 0.000000 0.053073 0.911944
O O14 0.184016 0.070162 0.917990
O O15 0.890876 0.950391 0.750000
O O16 0.000000 0.840747 0.808524
O O17 0.127811 0.500000 0.000000
#
# Coordination Sequence:
#
# PCOD8261049 Si02
#       7
#    16  16  16  16  16  16  16
#     4  11  21  39  68  95 134 176 217 268 334 398
#     4  11  24  44  69  94 133 180 224 278 344 402
#     4  12  26  44  67  99 140 179 224 281 338 405
#     4  11  22  38  63  93 128 167 214 270 325 391
#     4  12  21  43  63  99 129 172 222 274 332 394
#     4   9  17  33  60  91 122 159 209 268 327 388
#     4  11  21  40  69 100 133 176 223 273 333 400
#
# _framework density 22.172156000000001
#
# number of rings (size 3 to 8) (size 9 to 14) (size 15 to 20)
#    0.000    1.000    7.143    0.000    0.000    4.000 
#    0.000    0.000    0.000    3.857    0.000    0.000 
#    0.000    0.000    0.000    0.000    0.000    0.000 
#
# Total GULP energy -694102.424661 kJ/mol
# GULP energy per Si atom -12394.686155 kJ/mol
# Density = 2.212169 g / cm^3
# Si number density = 22.172156 Si / 1000 Ang^3
#
#
#
# Elastic Constant Matrix: (Units=GPa)
#
#
# Indices 1 2 3 4 5 6 
#
# 1 117.9040 31.9718 5.2561 0.0000 0.0000 0.0000
# 2 31.9718 52.2739 15.4885 0.0000 0.0000 0.0000
# 3 5.2561 15.4885 106.0530 0.0000 0.0000 0.0000
# 4 0.0000 0.0000 0.0000 30.8171 0.0000 0.0000
# 5 0.0000 0.0000 0.0000 0.0000 17.2595 0.0000
# 6 0.0000 0.0000 0.0000 0.0000 0.0000 7.3565
#
#
#
# Elastic Compliance Matrix: (Units=1/GPa)
#
#
# Indices 1 2 3 4 5 6 
#
# 1 0.010186 -0.006355 0.000423 0.000000 0.000000 0.000000
# 2 -0.006355 0.023961 -0.003184 0.000000 0.000000 0.000000
# 3 0.000423 -0.003184 0.009873 0.000000 0.000000 0.000000
# 4 0.000000 0.000000 0.000000 0.032450 0.000000 0.000000
# 5 0.000000 0.000000 0.000000 0.000000 0.057939 0.000000
# 6 0.000000 0.000000 0.000000 0.000000 0.000000 0.135935
#
#
# Mechanical properties :
#
#
# Convention : Reuss Voigt Hill
#
# Bulk Modulus (GPa) = 38.77904 42.40707 40.59305
# Shear Modulus (GPa) = 16.82529 25.98758 21.40644
#
# Velocity S-wave (km/s) = 2.75771 3.42728 3.11056
# Velocity P-wave (km/s) = 5.26003 5.90165 5.59005
#
# Compressibility (1/GPa) = 0.02578713
#
# Stress axis : x y z
#
# Youngs Moduli (GPa) = 98.17418 41.73524 101.28305
#
# Poissons Ratio (x) = 0.26524 -0.04288
# Poissons Ratio (y) = 0.62393 0.32252
# Poissons Ratio (z) = -0.04156 0.13290
#
# Static dielectric constant tensor:
#      x y z
#    x 3.948820 0.000000 0.000000 
#    y 0.000000 3.822090 0.000000 
#    z 0.000000 0.000000 4.301590 
# 
# 
# High freq. dielectric constant tensor:
#      x y z
#    x 1.862830 0.000000 0.000000 
#    y 0.000000 1.856060 0.000000 
#    z 0.000000 0.000000 1.883660 
# 
# From -- ./inp_files/73427.got.cif
#   From: 2010.03.12/outbox.cif.g09.slc.cpg/sg63_37_cif.got.tgz:73427.got - 2010.04.10 19:34:48.
