data_PCOD8261399
_publ_section_title
;
Structure prediction by ZEFSAII (Michael W. Deem and Ramdas Pophale) SiO2 
 PCOD8261399
Probable space group: C M C A
;
_chemical_formula_sum "Si O2"
_cell_formula_units_Z 72
_cell_length_a 9.946087
_cell_length_b 18.427791
_cell_length_c 22.875185
_cell_angle_alpha 90.000000
_cell_angle_beta 90.000000
_cell_angle_gamma 90.000000
_cell_volume 4192.664844
_symmetry_space_group_name_H-M "C M C A"
_symmetry_group_IT_number 64
_symmetry_cell_setting 'orthorhombic'
loop_
_space_group_symop_operation_xyz
x,y,z
-x,1/2-y,1/2+z
x,-y,-z
-x,1/2+y,1/2-z
-x,-y,-z
x,1/2+y,1/2-z
-x,y,z
x,1/2-y,1/2+z
1/2+x,1/2+y,z
1/2-x,-y,1/2+z
1/2+x,1/2-y,-z
1/2-x,y,1/2-z
1/2-x,1/2-y,-z
1/2+x,y,1/2-z
1/2-x,1/2+y,z
1/2+x,-y,1/2+z
loop_
_atom_site_type_symbol
_atom_site_label
_atom_site_fract_x
_atom_site_fract_y
_atom_site_fract_z
Si Si1 0.341023 0.490455 0.932691
Si Si2 0.149941 0.098775 0.357896
Si Si3 0.750000 0.990150 0.750000
Si Si4 0.344980 0.246820 0.198121
Si Si5 0.849481 0.100068 0.839694
O O1 0.500000 0.476918 0.922877
O O2 0.259620 0.422708 0.906410
O O3 0.288560 0.561801 0.897644
O O4 0.304407 0.500000 0.000000
O O5 0.163325 0.185428 0.351434
O O6 0.000000 0.078923 0.380008
O O7 0.168604 0.059825 0.295102
O O8 0.848202 0.043423 0.785987
O O9 0.500000 0.256446 0.219622
O O10 0.250000 0.219826 0.250000
O O11 0.280111 0.322763 0.174599
O O12 0.000000 0.121207 0.855166
#
# Coordination Sequence:
#
# PCOD8261399 Si02
#       5
#    16  16   8  16  16
#     4   9  19  36  55  72  94 130 174 213 248 291
#     4  10  20  31  49  75 102 130 162 203 248 293
#     4  10  16  28  48  70 102 128 162 194 244 298
#     4  10  19  32  47  71 104 133 159 193 244 300
#     4   9  17  29  48  70  96 129 162 200 243 291
#
# _framework density 17.172848999999999
#
# number of rings (size 3 to 8) (size 9 to 14) (size 15 to 20)
#    0.000    2.444    2.222    0.667    0.000    2.222 
#    0.000    1.111    0.000    0.000    0.000    0.000 
#    0.000    0.000    0.000    0.000    0.000    0.000 
#
# Total GULP energy -446137.507200 kJ/mol
# GULP energy per Si atom -12392.708533 kJ/mol
# Density = 1.713376 g / cm^3
# Si number density = 17.172849 Si / 1000 Ang^3
#
#
#
# Elastic Constant Matrix: (Units=GPa)
#
#
# Indices 1 2 3 4 5 6 
#
# 1 64.1902 24.4396 31.0752 0.0000 0.0000 0.0000
# 2 24.4396 98.4901 32.1148 0.0000 0.0000 0.0000
# 3 31.0752 32.1148 102.7144 0.0000 0.0000 0.0000
# 4 0.0000 0.0000 0.0000 16.2388 0.0000 0.0000
# 5 0.0000 0.0000 0.0000 0.0000 24.7185 0.0000
# 6 0.0000 0.0000 0.0000 0.0000 0.0000 20.5985
#
#
#
# Elastic Compliance Matrix: (Units=1/GPa)
#
#
# Indices 1 2 3 4 5 6 
#
# 1 0.019107 -0.003181 -0.004786 0.000000 0.000000 0.000000
# 2 -0.003181 0.011835 -0.002738 0.000000 0.000000 0.000000
# 3 -0.004786 -0.002738 0.012040 0.000000 0.000000 0.000000
# 4 0.000000 0.000000 0.000000 0.061581 0.000000 0.000000
# 5 0.000000 0.000000 0.000000 0.000000 0.040456 0.000000
# 6 0.000000 0.000000 0.000000 0.000000 0.000000 0.048547
#
#
# Mechanical properties :
#
#
# Convention : Reuss Voigt Hill
#
# Bulk Modulus (GPa) = 46.35606 48.96154 47.65880
# Shear Modulus (GPa) = 22.50568 24.16215 23.33392
#
# Velocity S-wave (km/s) = 3.62406 3.75507 3.69015
# Velocity P-wave (km/s) = 6.67564 6.88285 6.78004
#
# Compressibility (1/GPa) = 0.02157215
#
# Stress axis : x y z
#
# Youngs Moduli (GPa) = 52.33775 84.49231 83.05751
#
# Poissons Ratio (x) = 0.26874 0.39752
# Poissons Ratio (y) = 0.16646 0.22743
# Poissons Ratio (z) = 0.25049 0.23136
#
# Static dielectric constant tensor:
#      x y z
#    x 3.075330 0.000000 0.000000 
#    y 0.000000 3.422080 0.000000 
#    z 0.000000 0.000000 3.038050 
# 
# 
# High freq. dielectric constant tensor:
#      x y z
#    x 1.650560 0.000000 0.000000 
#    y 0.000000 1.671870 0.000000 
#    z 0.000000 0.000000 1.638070 
# 
# From -- ./inp_files/30654.got.cif
#   From: 2010.03.12/outbox.cif.g09.slc.cpg/sg64_16_cif.got.tgz:30654.got - 2010.04.10 20:19:32.
