data_PCOD8261531
_publ_section_title
;
Structure prediction by ZEFSAII (Michael W. Deem and Ramdas Pophale) SiO2 
 PCOD8261531
Probable space group: C M C A
;
_chemical_formula_sum "Si O2"
_cell_formula_units_Z 88
_cell_length_a 15.480443
_cell_length_b 17.503224
_cell_length_c 17.127445
_cell_angle_alpha 90.000000
_cell_angle_beta 90.000000
_cell_angle_gamma 90.000000
_cell_volume 4640.812444
_symmetry_space_group_name_H-M "C M C A"
_symmetry_group_IT_number 64
_symmetry_cell_setting 'orthorhombic'
loop_
_space_group_symop_operation_xyz
x,y,z
-x,1/2-y,1/2+z
x,-y,-z
-x,1/2+y,1/2-z
-x,-y,-z
x,1/2+y,1/2-z
-x,y,z
x,1/2-y,1/2+z
1/2+x,1/2+y,z
1/2-x,-y,1/2+z
1/2+x,1/2-y,-z
1/2-x,y,1/2-z
1/2-x,1/2-y,-z
1/2+x,y,1/2-z
1/2-x,1/2+y,z
1/2+x,-y,1/2+z
loop_
_atom_site_type_symbol
_atom_site_label
_atom_site_fract_x
_atom_site_fract_y
_atom_site_fract_z
Si Si1 0.597595 0.974362 0.088777
Si Si2 0.904182 0.114438 0.125493
Si Si3 0.846348 0.500000 0.500000
Si Si4 0.729363 0.136831 0.944570
Si Si5 0.900670 0.110651 0.303645
Si Si6 0.729882 0.204320 0.106604
O O1 0.500000 0.956438 0.110022
O O2 0.648548 0.895920 0.104056
O O3 0.633346 0.040253 0.144904
O O4 0.611549 0.000000 0.000000
O O5 0.892831 0.085592 0.214084
O O6 0.829675 0.176640 0.110816
O O7 0.000000 0.151922 0.115540
O O8 0.901320 0.041663 0.067537
O O9 0.791753 0.565141 0.542728
O O10 0.773683 0.203567 0.893783
O O11 0.692861 0.171776 0.025381
O O12 0.833513 0.179074 0.323099
O O13 0.000000 0.133410 0.325134
#
# Coordination Sequence:
#
# PCOD8261531 Si02
#       6
#    16  16   8  16  16  16
#     4  10  17  30  55  83 110 143 184 232 279 323
#     4  10  21  37  57  79 110 150 188 228 276 337
#     4  10  19  38  59  78 108 146 189 230 276 334
#     4  10  19  33  54  80 110 142 182 226 272 332
#     4  10  20  36  57  81 109 145 189 233 280 331
#     4  10  20  34  53  80 110 144 182 224 276 336
#
# _framework density 18.962197
#
# number of rings (size 3 to 8) (size 9 to 14) (size 15 to 20)
#    0.000    2.000    2.727    1.909    0.000    0.727 
#    0.000   11.818    0.000    4.364    0.000    0.000 
#    0.000    0.000    0.000    0.000    0.000    0.000 
#
# Total GULP energy -545385.949175 kJ/mol
# GULP energy per Si atom -12395.135209 kJ/mol
# Density = 1.891904 g / cm^3
# Si number density = 18.962197 Si / 1000 Ang^3
#
#
#
# Elastic Constant Matrix: (Units=GPa)
#
#
# Indices 1 2 3 4 5 6 
#
# 1 94.2758 62.1184 31.1679 0.0000 0.0000 0.0000
# 2 62.1184 129.3986 42.7440 0.0000 0.0000 0.0000
# 3 31.1679 42.7440 89.2480 0.0000 0.0000 0.0000
# 4 0.0000 0.0000 0.0000 21.4644 0.0000 0.0000
# 5 0.0000 0.0000 0.0000 0.0000 25.3091 0.0000
# 6 0.0000 0.0000 0.0000 0.0000 0.0000 17.5007
#
#
#
# Elastic Compliance Matrix: (Units=1/GPa)
#
#
# Indices 1 2 3 4 5 6 
#
# 1 0.015887 -0.006883 -0.002252 0.000000 0.000000 0.000000
# 2 -0.006883 0.012162 -0.003421 0.000000 0.000000 0.000000
# 3 -0.002252 -0.003421 0.013630 0.000000 0.000000 0.000000
# 4 0.000000 0.000000 0.000000 0.046589 0.000000 0.000000
# 5 0.000000 0.000000 0.000000 0.000000 0.039511 0.000000
# 6 0.000000 0.000000 0.000000 0.000000 0.000000 0.057141
#
#
# Mechanical properties :
#
#
# Convention : Reuss Voigt Hill
#
# Bulk Modulus (GPa) = 60.36024 64.99811 62.67917
# Shear Modulus (GPa) = 23.19616 24.64766 23.92191
#
# Velocity S-wave (km/s) = 3.50134 3.60923 3.55570
# Velocity P-wave (km/s) = 6.94600 7.19172 7.06993
#
# Compressibility (1/GPa) = 0.01656720
#
# Stress axis : x y z
#
# Youngs Moduli (GPa) = 62.94629 82.22169 73.36932
#
# Poissons Ratio (x) = 0.56590 0.16521
# Poissons Ratio (y) = 0.43323 0.25102
# Poissons Ratio (z) = 0.14174 0.28131
#
# Static dielectric constant tensor:
#      x y z
#    x 3.636770 0.000000 0.000000 
#    y 0.000000 3.519110 0.000000 
#    z 0.000000 0.000000 3.447940 
# 
# 
# High freq. dielectric constant tensor:
#      x y z
#    x 1.740790 0.000000 0.000000 
#    y 0.000000 1.720780 0.000000 
#    z 0.000000 0.000000 1.727190 
# 
# From -- ./inp_files/32162.got.cif
#   From: 2010.03.12/outbox.cif.g09.slc.cpg/sg64_17_cif.got.tgz:32162.got - 2010.04.10 20:19:32.
