data_PCOD8261895
_publ_section_title
;
Structure prediction by ZEFSAII (Michael W. Deem and Ramdas Pophale) SiO2 
 PCOD8261895
Probable space group: C M C A
;
_chemical_formula_sum "Si O2"
_cell_formula_units_Z 128
_cell_length_a 18.884786
_cell_length_b 15.388942
_cell_length_c 22.188458
_cell_angle_alpha 90.000000
_cell_angle_beta 90.000000
_cell_angle_gamma 90.000000
_cell_volume 6448.340357
_symmetry_space_group_name_H-M "C M C A"
_symmetry_group_IT_number 64
_symmetry_cell_setting 'orthorhombic'
loop_
_space_group_symop_operation_xyz
x,y,z
-x,1/2-y,1/2+z
x,-y,-z
-x,1/2+y,1/2-z
-x,-y,-z
x,1/2+y,1/2-z
-x,y,z
x,1/2-y,1/2+z
1/2+x,1/2+y,z
1/2-x,-y,1/2+z
1/2+x,1/2-y,-z
1/2-x,y,1/2-z
1/2-x,1/2-y,-z
1/2+x,y,1/2-z
1/2-x,1/2+y,z
1/2+x,-y,1/2+z
loop_
_atom_site_type_symbol
_atom_site_label
_atom_site_fract_x
_atom_site_fract_y
_atom_site_fract_z
Si Si1 0.422923 0.097129 0.643981
Si Si2 0.924002 0.898892 0.823078
Si Si3 0.299125 0.669025 0.513885
Si Si4 0.084161 0.880042 0.278990
Si Si5 0.691194 0.036901 0.562443
Si Si6 0.174311 0.950984 0.725038
Si Si7 0.142067 0.248714 0.621552
Si Si8 0.766421 0.626042 0.111671
O O1 0.500000 0.131926 0.621905
O O2 0.403712 0.142282 0.707998
O O3 0.362324 0.107005 0.593535
O O4 0.427460 0.994150 0.650753
O O5 0.861314 0.888324 0.774629
O O6 0.910800 0.830665 0.877401
O O7 0.000000 0.876575 0.792911
O O8 0.250000 0.750000 0.500000
O O9 0.261143 0.591956 0.549895
O O10 0.364839 0.697767 0.557153
O O11 0.317882 0.632823 0.447230
O O12 0.123144 0.810484 0.320966
O O13 0.000000 0.886291 0.293100
O O14 0.121417 0.971636 0.292009
O O15 0.658290 0.000000 0.500000
O O16 0.711536 0.955451 0.605229
O O17 0.250000 0.985633 0.750000
O O18 0.182163 0.890586 0.667075
O O19 0.222712 0.285270 0.624443
#
# Coordination Sequence:
#
# PCOD8261895 Si02
#       8
#    16  16  16  16  16  16  16  16
#     4   9  18  35  54  78 109 151 198 238 284 351
#     4  10  20  35  57  80 115 154 190 239 289 348
#     4   9  21  35  54  82 115 150 186 246 303 340
#     4  10  22  37  57  83 118 157 193 244 303 356
#     4  10  18  34  57  80 113 152 191 242 300 349
#     4  11  19  36  57  84 114 147 203 240 288 359
#     4  11  19  36  57  81 113 148 196 230 303 356
#     4  10  19  35  55  87 116 142 189 250 287 350
#
# _framework density 19.850068
#
# number of rings (size 3 to 8) (size 9 to 14) (size 15 to 20)
#    0.000    2.000    2.500    3.000    0.000    0.250 
#    9.000    0.000    0.000    3.750    0.000    0.000 
#    0.000    0.000    0.000    0.000    0.000    0.000 
#
# Total GULP energy -792869.407021 kJ/mol
# GULP energy per Si atom -12388.584485 kJ/mol
# Density = 1.980489 g / cm^3
# Si number density = 19.850068 Si / 1000 Ang^3
#
#
#
# Elastic Constant Matrix: (Units=GPa)
#
#
# Indices 1 2 3 4 5 6 
#
# 1 83.8082 21.0830 44.2996 0.0000 0.0000 0.0000
# 2 21.0830 58.9425 27.0533 0.0000 0.0000 0.0000
# 3 44.2996 27.0533 89.7463 0.0000 0.0000 0.0000
# 4 0.0000 0.0000 0.0000 31.0669 0.0000 0.0000
# 5 0.0000 0.0000 0.0000 0.0000 22.6278 0.0000
# 6 0.0000 0.0000 0.0000 0.0000 0.0000 9.1735
#
#
#
# Elastic Compliance Matrix: (Units=1/GPa)
#
#
# Indices 1 2 3 4 5 6 
#
# 1 0.016457 -0.002505 -0.007368 0.000000 0.000000 0.000000
# 2 -0.002505 0.020071 -0.004814 0.000000 0.000000 0.000000
# 3 -0.007368 -0.004814 0.016231 0.000000 0.000000 0.000000
# 4 0.000000 0.000000 0.000000 0.032189 0.000000 0.000000
# 5 0.000000 0.000000 0.000000 0.000000 0.044194 0.000000
# 6 0.000000 0.000000 0.000000 0.000000 0.000000 0.109009
#
#
# Mechanical properties :
#
#
# Convention : Reuss Voigt Hill
#
# Bulk Modulus (GPa) = 42.76252 46.37432 44.56842
# Shear Modulus (GPa) = 18.16079 21.91105 20.03592
#
# Velocity S-wave (km/s) = 3.02801 3.32599 3.18049
# Velocity P-wave (km/s) = 5.81504 6.17759 5.99905
#
# Compressibility (1/GPa) = 0.02338497
#
# Stress axis : x y z
#
# Youngs Moduli (GPa) = 60.76526 49.82304 61.61170
#
# Poissons Ratio (x) = 0.12478 0.45397
# Poissons Ratio (y) = 0.15219 0.29660
# Poissons Ratio (z) = 0.44773 0.23985
#
# Static dielectric constant tensor:
#      x y z
#    x 3.681060 0.000000 0.000000 
#    y 0.000000 3.670650 0.000000 
#    z 0.000000 0.000000 4.018280 
# 
# 
# High freq. dielectric constant tensor:
#      x y z
#    x 1.746070 0.000000 0.000000 
#    y 0.000000 1.766100 0.000000 
#    z 0.000000 0.000000 1.776210 
# 
# From -- ./inp_files/41167.got.cif
#   From: 2010.03.12/outbox.cif.g09.slc.cpg/sg64_21_cif.got.tgz:41167.got - 2010.04.10 20:19:32.
