data_PCOD8261467
_publ_section_title
;
Structure prediction by ZEFSAII (Michael W. Deem and Ramdas Pophale) SiO2 
 PCOD8261467
Probable space group: C M C A
;
_chemical_formula_sum "Si O2"
_cell_formula_units_Z 80
_cell_length_a 8.828335
_cell_length_b 18.671172
_cell_length_c 26.115619
_cell_angle_alpha 90.000000
_cell_angle_beta 90.000000
_cell_angle_gamma 90.000000
_cell_volume 4304.777492
_symmetry_space_group_name_H-M "C M C A"
_symmetry_group_IT_number 64
_symmetry_cell_setting 'orthorhombic'
loop_
_space_group_symop_operation_xyz
x,y,z
-x,1/2-y,1/2+z
x,-y,-z
-x,1/2+y,1/2-z
-x,-y,-z
x,1/2+y,1/2-z
-x,y,z
x,1/2-y,1/2+z
1/2+x,1/2+y,z
1/2-x,-y,1/2+z
1/2+x,1/2-y,-z
1/2-x,y,1/2-z
1/2-x,1/2-y,-z
1/2+x,y,1/2-z
1/2-x,1/2+y,z
1/2+x,-y,1/2+z
loop_
_atom_site_type_symbol
_atom_site_label
_atom_site_fract_x
_atom_site_fract_y
_atom_site_fract_z
Si Si1 0.321278 0.329404 0.800771
Si Si2 0.827022 0.665759 0.589244
Si Si3 0.675670 0.825081 0.297913
Si Si4 0.821108 0.580162 0.999127
Si Si5 0.178965 0.830944 0.595790
O O1 0.500000 0.338399 0.799225
O O2 0.250000 0.367181 0.750000
O O3 0.272361 0.247032 0.800877
O O4 0.257225 0.363551 0.853331
O O5 0.807937 0.635393 0.647413
O O6 0.722912 0.618469 0.553295
O O7 0.774923 0.748397 0.586465
O O8 0.000000 0.658702 0.570957
O O9 0.500000 0.807061 0.287271
O O10 0.750000 0.869669 0.250000
O O11 0.758337 0.623889 0.047802
O O12 0.000000 0.577637 0.002131
O O13 0.753026 0.500000 0.000000
O O14 0.000000 0.837503 0.603284
#
# Coordination Sequence:
#
# PCOD8261467 Si02
#       5
#    16  16  16  16  16
#     4  10  17  26  44  71 100 128 158 193 239 287
#     4   9  18  31  49  73  99 128 161 200 240 280
#     4   9  16  27  44  70 101 129 158 194 239 285
#     4  10  21  35  51  71  96 128 163 201 246 291
#     4   9  18  33  50  71 100 128 161 202 238 282
#
# _framework density 18.584002999999999
#
# number of rings (size 3 to 8) (size 9 to 14) (size 15 to 20)
#    0.000    2.600    0.000    5.400    0.000    5.200 
#    0.000    0.000    0.000    1.200    0.000    2.800 
#    0.000    0.000    0.000    0.000    0.000    0.000 
#
# Total GULP energy -495730.687710 kJ/mol
# GULP energy per Si atom -12393.267193 kJ/mol
# Density = 1.854171 g / cm^3
# Si number density = 18.584003 Si / 1000 Ang^3
#
#
#
# Elastic Constant Matrix: (Units=GPa)
#
#
# Indices 1 2 3 4 5 6 
#
# 1 65.4405 19.7552 47.4869 0.0000 0.0000 0.0000
# 2 19.7552 61.5945 53.5144 0.0000 0.0000 0.0000
# 3 47.4869 53.5144 176.2954 0.0000 0.0000 0.0000
# 4 0.0000 0.0000 0.0000 1.4823 0.0000 0.0000
# 5 0.0000 0.0000 0.0000 0.0000 38.7218 0.0000
# 6 0.0000 0.0000 0.0000 0.0000 0.0000 11.7520
#
#
#
# Elastic Compliance Matrix: (Units=1/GPa)
#
#
# Indices 1 2 3 4 5 6 
#
# 1 0.019223 -0.002264 -0.004491 0.000000 0.000000 0.000000
# 2 -0.002264 0.022317 -0.006165 0.000000 0.000000 0.000000
# 3 -0.004491 -0.006165 0.008753 0.000000 0.000000 0.000000
# 4 0.000000 0.000000 0.000000 0.674649 0.000000 0.000000
# 5 0.000000 0.000000 0.000000 0.000000 0.025825 0.000000
# 6 0.000000 0.000000 0.000000 0.000000 0.000000 0.085092
#
#
# Mechanical properties :
#
#
# Convention : Reuss Voigt Hill
#
# Bulk Modulus (GPa) = 40.89103 60.53815 50.71459
# Shear Modulus (GPa) = 5.74812 22.56280 14.15546
#
# Velocity S-wave (km/s) = 1.76061 3.48817 2.76289
# Velocity P-wave (km/s) = 5.11704 6.99065 6.12590
#
# Compressibility (1/GPa) = 0.02445524
#
# Stress axis : x y z
#
# Youngs Moduli (GPa) = 52.02051 44.80851 114.24399
#
# Poissons Ratio (x) = 0.10144 0.51304
# Poissons Ratio (y) = 0.11776 0.70427
# Poissons Ratio (z) = 0.23361 0.27623
#
# Static dielectric constant tensor:
#      x y z
#    x 3.325570 0.000000 0.000000 
#    y 0.000000 3.003680 0.000000 
#    z 0.000000 0.000000 4.279610 
# 
# 
# High freq. dielectric constant tensor:
#      x y z
#    x 1.718270 0.000000 0.000000 
#    y 0.000000 1.653880 0.000000 
#    z 0.000000 0.000000 1.751850 
# 
# From -- ./inp_files/47862.got.cif
#   From: 2010.03.12/outbox.cif.g09.slc.cpg/sg64_24_cif.got.tgz:47862.got - 2010.04.10 20:19:32.
