data_PCOD8261360
_publ_section_title
;
Structure prediction by ZEFSAII (Michael W. Deem and Ramdas Pophale) SiO2 
 PCOD8261360
Probable space group: C M C M
;
_chemical_formula_sum "Si O2"
_cell_formula_units_Z 96
_cell_length_a 9.638255
_cell_length_b 23.476075
_cell_length_c 23.606834
_cell_angle_alpha 90.000000
_cell_angle_beta 90.000000
_cell_angle_gamma 90.000000
_cell_volume 5341.480493
_symmetry_space_group_name_H-M "C M C M"
_symmetry_group_IT_number 63
_symmetry_cell_setting 'orthorhombic'
loop_
_space_group_symop_operation_xyz
x,y,z
-x,-y,1/2+z
x,-y,-z
-x,y,1/2-z
-x,-y,-z
x,y,1/2-z
-x,y,z
x,-y,1/2+z
1/2+x,1/2+y,z
1/2-x,1/2-y,1/2+z
1/2+x,1/2-y,-z
1/2-x,1/2+y,1/2-z
1/2-x,1/2-y,-z
1/2+x,1/2+y,1/2-z
1/2-x,1/2+y,z
1/2+x,1/2-y,1/2+z
loop_
_atom_site_type_symbol
_atom_site_label
_atom_site_fract_x
_atom_site_fract_y
_atom_site_fract_z
Si Si1 0.338659 0.646166 0.907096
Si Si2 0.654108 0.847908 0.812573
Si Si3 0.160132 0.130768 0.469006
Si Si4 0.662399 0.559558 0.137483
Si Si5 0.338821 0.226957 0.416748
Si Si6 0.665325 0.439481 0.185279
O O1 0.500000 0.653583 0.894140
O O2 0.275902 0.709302 0.915440
O O3 0.274038 0.612241 0.853355
O O4 0.314981 0.611222 0.965908
O O5 0.668278 0.822447 0.750000
O O6 0.500000 0.872972 0.823683
O O7 0.763198 0.898313 0.819418
O O8 0.683514 0.795445 0.853451
O O9 0.200726 0.078423 0.427184
O O10 0.251015 0.187316 0.458860
O O11 0.000000 0.148086 0.459508
O O12 0.500000 0.564767 0.148566
O O13 0.715014 0.496446 0.152657
O O14 0.500000 0.225602 0.435880
O O15 0.723238 0.436256 0.250000
O O16 0.500000 0.437736 0.186808
#
# Coordination Sequence:
#
# PCOD8261360 Si02
#       6
#    16  16  16  16  16  16
#     4   9  17  28  43  64  89 117 147 179 216 259
#     4   9  17  28  43  64  88 114 145 182 222 260
#     4   9  17  29  46  68  91 114 143 180 221 261
#     4   9  17  29  46  67  89 114 145 181 220 260
#     4   9  17  29  45  65  89 116 146 180 218 260
#     4   9  17  28  43  65  91 117 146 181 219 257
#
# _framework density 17.972545
#
# number of rings (size 3 to 8) (size 9 to 14) (size 15 to 20)
#    0.000    3.000    0.000    1.000    0.000    2.333 
#    0.000    6.667    0.000    2.000    0.000    4.667 
#    0.000    0.000    0.000    0.000    0.000    0.000 
#
# Total GULP energy -594815.918553 kJ/mol
# GULP energy per Si atom -12391.998303 kJ/mol
# Density = 1.793164 g / cm^3
# Si number density = 17.972545 Si / 1000 Ang^3
#
#
#
# Elastic Constant Matrix: (Units=GPa)
#
#
# Indices 1 2 3 4 5 6 
#
# 1 24.1825 18.8137 20.5255 0.0000 0.0000 0.0000
# 2 18.8137 97.9587 64.6199 0.0000 0.0000 0.0000
# 3 20.5255 64.6199 130.8002 0.0000 0.0000 0.0000
# 4 0.0000 0.0000 0.0000 19.0653 0.0000 0.0000
# 5 0.0000 0.0000 0.0000 0.0000 14.9031 0.0000
# 6 0.0000 0.0000 0.0000 0.0000 0.0000 15.6936
#
#
#
# Elastic Compliance Matrix: (Units=1/GPa)
#
#
# Indices 1 2 3 4 5 6 
#
# 1 0.050448 -0.006626 -0.004643 0.000000 0.000000 0.000000
# 2 -0.006626 0.016014 -0.006872 0.000000 0.000000 0.000000
# 3 -0.004643 -0.006872 0.011769 0.000000 0.000000 0.000000
# 4 0.000000 0.000000 0.000000 0.052451 0.000000 0.000000
# 5 0.000000 0.000000 0.000000 0.000000 0.067100 0.000000
# 6 0.000000 0.000000 0.000000 0.000000 0.000000 0.063720
#
#
# Mechanical properties :
#
#
# Convention : Reuss Voigt Hill
#
# Bulk Modulus (GPa) = 23.83837 51.20664 37.52250
# Shear Modulus (GPa) = 16.03764 19.86457 17.95111
#
# Velocity S-wave (km/s) = 2.99045 3.32817 3.16382
# Velocity P-wave (km/s) = 5.02158 6.58198 5.85400
#
# Compressibility (1/GPa) = 0.04194918
#
# Stress axis : x y z
#
# Youngs Moduli (GPa) = 19.82241 62.44540 84.97142
#
# Poissons Ratio (x) = 0.41378 0.39451
# Poissons Ratio (y) = 0.13135 0.58390
# Poissons Ratio (z) = 0.09203 0.42910
#
# Static dielectric constant tensor:
#      x y z
#    x 3.032740 0.000000 0.000000 
#    y 0.000000 3.379160 0.000000 
#    z 0.000000 0.000000 3.569970 
# 
# 
# High freq. dielectric constant tensor:
#      x y z
#    x 1.651120 0.000000 0.000000 
#    y 0.000000 1.684800 0.000000 
#    z 0.000000 0.000000 1.710120 
# 
# From -- ./inp_files/59833.got.cif
#   From: 2010.03.12/outbox.cif.g09.slc.cpg/sg63_30_cif.got.tgz:59833.got - 2010.04.10 19:34:48.
