data_PCOD8261936
_publ_section_title
;
Structure prediction by ZEFSAII (Michael W. Deem and Ramdas Pophale) SiO2 
 PCOD8261936
Probable space group: C M C A
;
_chemical_formula_sum "Si O2"
_cell_formula_units_Z 88
_cell_length_a 15.035647
_cell_length_b 30.516055
_cell_length_c 9.376887
_cell_angle_alpha 90.000000
_cell_angle_beta 90.000000
_cell_angle_gamma 90.000000
_cell_volume 4302.384223
_symmetry_space_group_name_H-M "C M C A"
_symmetry_group_IT_number 64
_symmetry_cell_setting 'orthorhombic'
loop_
_space_group_symop_operation_xyz
x,y,z
-x,1/2-y,1/2+z
x,-y,-z
-x,1/2+y,1/2-z
-x,-y,-z
x,1/2+y,1/2-z
-x,y,z
x,1/2-y,1/2+z
1/2+x,1/2+y,z
1/2-x,-y,1/2+z
1/2+x,1/2-y,-z
1/2-x,y,1/2-z
1/2-x,1/2-y,-z
1/2+x,y,1/2-z
1/2-x,1/2+y,z
1/2+x,-y,1/2+z
loop_
_atom_site_type_symbol
_atom_site_label
_atom_site_fract_x
_atom_site_fract_y
_atom_site_fract_z
Si Si1 0.500000 0.109224 0.485769
Si Si2 0.640867 0.333526 0.114564
Si Si3 0.500000 0.690164 0.485779
Si Si4 0.000000 0.267883 0.290996
Si Si5 0.500000 0.052318 0.220241
Si Si6 0.671610 0.141408 0.925208
Si Si7 0.000000 0.542245 0.742454
Si Si8 0.356221 0.047980 0.982920
O O1 0.412319 0.138581 0.499186
O O2 0.500000 0.092714 0.325780
O O3 0.500000 0.071800 0.604117
O O4 0.590365 0.287849 0.141575
O O5 0.640880 0.360840 0.261471
O O6 0.742198 0.326727 0.058756
O O7 0.500000 0.717014 0.336825
O O8 0.500000 0.724089 0.620237
O O9 0.412191 0.659561 0.484873
O O10 0.500000 0.007728 0.312086
O O11 0.413730 0.053757 0.123294
O O12 0.703361 0.092215 0.974096
O O13 0.914021 0.549807 0.840071
O O14 0.306525 0.000000 0.000000
#
# Coordination Sequence:
#
# PCOD8261936 Si02
#       8
#     8  16   8   8   8  16   8  16
#     4  11  17  33  51  74 107 146 172 231 274 326
#     4   9  20  34  59  80 111 139 192 228 261 327
#     4  10  20  36  64  81 114 135 184 224 277 346
#     4   9  20  39  56  91 106 143 174 227 282 327
#     4   9  19  27  47  78 110 139 179 232 280 318
#     4  10  18  36  60  85 101 152 193 224 262 327
#     4   9  15  29  51  74  98 142 193 227 263 320
#     4   9  17  32  53  78 109 145 192 232 263 318
#
# _framework density 20.453775
#
# number of rings (size 3 to 8) (size 9 to 14) (size 15 to 20)
#    0.000    2.545    1.818    3.000    0.000    0.727 
#    6.545    2.727    0.000    0.000    0.000    0.000 
#    0.000    0.000    0.000    0.000    0.000    0.000 
#
# Total GULP energy -545093.350302 kJ/mol
# GULP energy per Si atom -12388.485234 kJ/mol
# Density = 2.040722 g / cm^3
# Si number density = 20.453775 Si / 1000 Ang^3
#
#
#
# Elastic Constant Matrix: (Units=GPa)
#
#
# Indices 1 2 3 4 5 6 
#
# 1 93.3098 20.5695 -1.4696 0.0000 0.0000 0.0000
# 2 20.5695 87.7190 14.3899 0.0000 0.0000 0.0000
# 3 -1.4696 14.3899 51.0407 0.0000 0.0000 0.0000
# 4 0.0000 0.0000 0.0000 38.9315 0.0000 0.0000
# 5 0.0000 0.0000 0.0000 0.0000 8.7817 0.0000
# 6 0.0000 0.0000 0.0000 0.0000 0.0000 15.4445
#
#
#
# Elastic Compliance Matrix: (Units=1/GPa)
#
#
# Indices 1 2 3 4 5 6 
#
# 1 0.011363 -0.002850 0.001131 0.000000 0.000000 0.000000
# 2 -0.002850 0.012668 -0.003653 0.000000 0.000000 0.000000
# 3 0.001131 -0.003653 0.020655 0.000000 0.000000 0.000000
# 4 0.000000 0.000000 0.000000 0.025686 0.000000 0.000000
# 5 0.000000 0.000000 0.000000 0.000000 0.113873 0.000000
# 6 0.000000 0.000000 0.000000 0.000000 0.000000 0.064748
#
#
# Mechanical properties :
#
#
# Convention : Reuss Voigt Hill
#
# Bulk Modulus (GPa) = 29.46386 33.22768 31.34577
# Shear Modulus (GPa) = 18.44666 25.87018 22.15842
#
# Velocity S-wave (km/s) = 3.00637 3.56028 3.29499
# Velocity P-wave (km/s) = 5.14659 5.76032 5.46208
#
# Compressibility (1/GPa) = 0.03393988
#
# Stress axis : x y z
#
# Youngs Moduli (GPa) = 88.00438 78.94097 48.41499
#
# Poissons Ratio (x) = 0.22499 -0.05474
# Poissons Ratio (y) = 0.25082 0.17688
# Poissons Ratio (z) = -0.09950 0.28841
#
# Static dielectric constant tensor:
#      x y z
#    x 3.558430 0.000000 0.000000 
#    y 0.000000 3.775670 0.000000 
#    z 0.000000 0.000000 3.393440 
# 
# 
# High freq. dielectric constant tensor:
#      x y z
#    x 1.774450 0.000000 0.000000 
#    y 0.000000 1.799320 0.000000 
#    z 0.000000 0.000000 1.776600 
# 
# From -- ./inp_files/7367.got.cif
#   From: 2010.03.12/outbox.cif.g09.slc.cpg/sg64_4_cif.got.tgz:7367.got - 2010.04.10 20:19:32.
