data_PCOD8261739
_publ_section_title
;
Structure prediction by ZEFSAII (Michael W. Deem and Ramdas Pophale) SiO2 
 PCOD8261739
Probable space group: C M C A
;
_chemical_formula_sum "Si O2"
_cell_formula_units_Z 80
_cell_length_a 8.655745
_cell_length_b 25.411250
_cell_length_c 19.615076
_cell_angle_alpha 90.000000
_cell_angle_beta 90.000000
_cell_angle_gamma 90.000000
_cell_volume 4314.400699
_symmetry_space_group_name_H-M "C M C A"
_symmetry_group_IT_number 64
_symmetry_cell_setting 'orthorhombic'
loop_
_space_group_symop_operation_xyz
x,y,z
-x,1/2-y,1/2+z
x,-y,-z
-x,1/2+y,1/2-z
-x,-y,-z
x,1/2+y,1/2-z
-x,y,z
x,1/2-y,1/2+z
1/2+x,1/2+y,z
1/2-x,-y,1/2+z
1/2+x,1/2-y,-z
1/2-x,y,1/2-z
1/2-x,1/2-y,-z
1/2+x,y,1/2-z
1/2-x,1/2+y,z
1/2+x,-y,1/2+z
loop_
_atom_site_type_symbol
_atom_site_label
_atom_site_fract_x
_atom_site_fract_y
_atom_site_fract_z
Si Si1 0.816913 0.997314 0.174405
Si Si2 0.678033 0.689629 0.923922
Si Si3 0.821116 0.310318 0.933880
Si Si4 0.681747 0.896444 0.824439
Si Si5 0.319026 0.108649 0.824386
O O1 0.750000 0.997014 0.250000
O O2 0.754391 0.943660 0.139894
O O3 0.000000 0.997650 0.173595
O O4 0.752934 0.050891 0.140277
O O5 0.500000 0.675945 0.910186
O O6 0.714102 0.750878 0.911061
O O7 0.784222 0.658186 0.871665
O O8 0.719634 0.673816 0.001040
O O9 0.772792 0.347502 0.871640
O O10 0.000000 0.317228 0.953787
O O11 0.500000 0.903921 0.817508
O O12 0.750000 0.885440 0.750000
O O13 0.500000 0.100221 0.816800
O O14 0.250000 0.119406 0.750000
#
# Coordination Sequence:
#
# PCOD8261739 Si02
#       5
#    16  16  16  16  16
#     4  10  18  31  51  76 105 136 171 210 258 309
#     4  10  20  36  56  78 105 138 176 216 261 312
#     4   9  20  37  55  76 105 141 176 213 260 312
#     4  10  19  33  53  78 107 137 173 213 256 306
#     4  11  21  35  55  79 107 138 174 215 260 308
#
# _framework density 18.542553000000002
#
# number of rings (size 3 to 8) (size 9 to 14) (size 15 to 20)
#    0.000    2.000    0.000    7.200    0.000    3.200 
#    0.000    3.000    0.000    6.000    0.000    0.000 
#    0.000    0.000    0.000    0.000    0.000    0.000 
#
# Total GULP energy -496004.849316 kJ/mol
# GULP energy per Si atom -12400.121233 kJ/mol
# Density = 1.850035 g / cm^3
# Si number density = 18.542553 Si / 1000 Ang^3
#
#
#
# Elastic Constant Matrix: (Units=GPa)
#
#
# Indices 1 2 3 4 5 6 
#
# 1 127.1949 56.2057 41.1384 0.0000 0.0000 0.0000
# 2 56.2057 130.1514 67.3658 0.0000 0.0000 0.0000
# 3 41.1384 67.3658 74.6111 0.0000 0.0000 0.0000
# 4 0.0000 0.0000 0.0000 4.8768 0.0000 0.0000
# 5 0.0000 0.0000 0.0000 0.0000 29.3768 0.0000
# 6 0.0000 0.0000 0.0000 0.0000 0.0000 32.2752
#
#
#
# Elastic Compliance Matrix: (Units=1/GPa)
#
#
# Indices 1 2 3 4 5 6 
#
# 1 0.010073 -0.002770 -0.003053 0.000000 0.000000 0.000000
# 2 -0.002770 0.015186 -0.012184 0.000000 0.000000 0.000000
# 3 -0.003053 -0.012184 0.026087 0.000000 0.000000 0.000000
# 4 0.000000 0.000000 0.000000 0.205053 0.000000 0.000000
# 5 0.000000 0.000000 0.000000 0.000000 0.034041 0.000000
# 6 0.000000 0.000000 0.000000 0.000000 0.000000 0.030984
#
#
# Mechanical properties :
#
#
# Convention : Reuss Voigt Hill
#
# Bulk Modulus (GPa) = 65.22241 73.48634 69.35438
# Shear Modulus (GPa) = 13.79127 24.45559 19.12343
#
# Velocity S-wave (km/s) = 2.73016 3.63559 3.21491
# Velocity P-wave (km/s) = 6.72229 7.57236 7.15995
#
# Compressibility (1/GPa) = 0.01533215
#
# Stress axis : x y z
#
# Youngs Moduli (GPa) = 99.27111 65.85066 38.33294
#
# Poissons Ratio (x) = 0.18239 0.11705
# Poissons Ratio (y) = 0.27496 0.46705
# Poissons Ratio (z) = 0.30311 0.80233
#
# Static dielectric constant tensor:
#      x y z
#    x 3.492310 0.000000 0.000000 
#    y 0.000000 4.050360 0.000000 
#    z 0.000000 0.000000 3.133890 
# 
# 
# High freq. dielectric constant tensor:
#      x y z
#    x 1.735960 0.000000 0.000000 
#    y 0.000000 1.736150 0.000000 
#    z 0.000000 0.000000 1.686560 
# 
# From -- ./inp_files/29745.got.cif
#   From: 2010.03.12/outbox.cif.g09.slc.cpg/sg64_15_cif.got.tgz:29745.got - 2010.04.10 20:19:32.
