data_PCOD8261551
_publ_section_title
;
Structure prediction by ZEFSAII (Michael W. Deem and Ramdas Pophale) SiO2 
 PCOD8261551
Probable space group: C M C A
;
_chemical_formula_sum "Si O2"
_cell_formula_units_Z 96
_cell_length_a 22.404440
_cell_length_b 15.411453
_cell_length_c 14.353332
_cell_angle_alpha 90.000000
_cell_angle_beta 90.000000
_cell_angle_gamma 90.000000
_cell_volume 4955.989867
_symmetry_space_group_name_H-M "C M C A"
_symmetry_group_IT_number 64
_symmetry_cell_setting 'orthorhombic'
loop_
_space_group_symop_operation_xyz
x,y,z
-x,1/2-y,1/2+z
x,-y,-z
-x,1/2+y,1/2-z
-x,-y,-z
x,1/2+y,1/2-z
-x,y,z
x,1/2-y,1/2+z
1/2+x,1/2+y,z
1/2-x,-y,1/2+z
1/2+x,1/2-y,-z
1/2-x,y,1/2-z
1/2-x,1/2-y,-z
1/2+x,y,1/2-z
1/2-x,1/2+y,z
1/2+x,-y,1/2+z
loop_
_atom_site_type_symbol
_atom_site_label
_atom_site_fract_x
_atom_site_fract_y
_atom_site_fract_z
Si Si1 0.872429 0.853187 0.913781
Si Si2 0.257629 0.227302 0.358689
Si Si3 0.500000 0.959512 0.345953
Si Si4 0.622848 0.509386 0.773855
Si Si5 0.800130 0.899850 0.085664
Si Si6 0.000000 0.867454 0.968257
Si Si7 0.282258 0.960112 0.849887
O O1 0.828317 0.775169 0.884106
O O2 0.873584 0.919578 0.829182
O O3 0.938903 0.817133 0.939047
O O4 0.845715 0.908448 0.999858
O O5 0.250000 0.246128 0.250000
O O6 0.227148 0.303544 0.416852
O O7 0.226122 0.136777 0.391087
O O8 0.500000 0.879855 0.419483
O O9 0.444670 0.956283 0.274515
O O10 0.500000 0.043041 0.411889
O O11 0.662857 0.584938 0.819790
O O12 0.648539 0.487685 0.670061
O O13 0.747294 0.971284 0.079372
O O14 0.250000 0.962339 0.750000
#
# Coordination Sequence:
#
# PCOD8261551 Si02
#       7
#    16  16   8  16  16   8  16
#     4  11  19  33  51  77 108 130 171 210 262 317
#     4  11  20  33  50  73 107 140 170 213 257 310
#     4   9  16  26  52  74 100 135 169 209 261 307
#     4  10  17  32  50  75 105 136 166 210 264 312
#     4  11  20  30  52  76 103 137 171 211 259 309
#     4   9  18  28  48  76 102 135 157 217 265 301
#     4   9  18  32  48  69 104 143 162 209 257 300
#
# _framework density 19.370498999999999
#
# number of rings (size 3 to 8) (size 9 to 14) (size 15 to 20)
#    0.000    1.833    6.667    2.500    0.000    0.000 
#    0.000    0.000    0.000    7.000    0.000    0.000 
#    0.000    2.667    0.000    0.000    0.000    0.000 
#
# Total GULP energy -594864.971092 kJ/mol
# GULP energy per Si atom -12393.020231 kJ/mol
# Density = 1.932641 g / cm^3
# Si number density = 19.370499 Si / 1000 Ang^3
#
#
#
# Elastic Constant Matrix: (Units=GPa)
#
#
# Indices 1 2 3 4 5 6 
#
# 1 172.1065 28.0584 34.3080 0.0000 0.0000 0.0000
# 2 28.0584 68.9393 5.4721 0.0000 0.0000 0.0000
# 3 34.3080 5.4721 33.8579 0.0000 0.0000 0.0000
# 4 0.0000 0.0000 0.0000 12.1401 0.0000 0.0000
# 5 0.0000 0.0000 0.0000 0.0000 29.2053 0.0000
# 6 0.0000 0.0000 0.0000 0.0000 0.0000 20.8199
#
#
#
# Elastic Compliance Matrix: (Units=1/GPa)
#
#
# Indices 1 2 3 4 5 6 
#
# 1 0.007699 -0.002547 -0.007389 0.000000 0.000000 0.000000
# 2 -0.002547 0.015537 0.000070 0.000000 0.000000 0.000000
# 3 -0.007389 0.000070 0.037011 0.000000 0.000000 0.000000
# 4 0.000000 0.000000 0.000000 0.082372 0.000000 0.000000
# 5 0.000000 0.000000 0.000000 0.000000 0.034240 0.000000
# 6 0.000000 0.000000 0.000000 0.000000 0.000000 0.048031
#
#
# Mechanical properties :
#
#
# Convention : Reuss Voigt Hill
#
# Bulk Modulus (GPa) = 24.68302 45.62007 35.15155
# Shear Modulus (GPa) = 19.37031 26.23742 22.80387
#
# Velocity S-wave (km/s) = 3.16569 3.68435 3.43483
# Velocity P-wave (km/s) = 5.11199 6.45769 5.82383
#
# Compressibility (1/GPa) = 0.04051368
#
# Stress axis : x y z
#
# Youngs Moduli (GPa) = 129.89457 64.36440 27.01870
#
# Poissons Ratio (x) = 0.16392 0.19965
# Poissons Ratio (y) = 0.33082 -0.00188
# Poissons Ratio (z) = 0.95983 -0.00448
#
# Static dielectric constant tensor:
#      x y z
#    x 4.071890 0.000000 0.000000 
#    y 0.000000 3.265870 0.000000 
#    z 0.000000 0.000000 3.422010 
# 
# 
# High freq. dielectric constant tensor:
#      x y z
#    x 1.748430 0.000000 0.000000 
#    y 0.000000 1.719870 0.000000 
#    z 0.000000 0.000000 1.733120 
# 
# From -- ./inp_files/27337.got.cif
#   From: 2010.03.12/outbox.cif.g09.slc.cpg/sg64_14_cif.got.tgz:27337.got - 2010.04.10 20:19:32.
