data_PCOD8261747
_publ_section_title
;
Structure prediction by ZEFSAII (Michael W. Deem and Ramdas Pophale) SiO2 
 PCOD8261747
Probable space group: C M C A
;
_chemical_formula_sum "Si O2"
_cell_formula_units_Z 80
_cell_length_a 13.844529
_cell_length_b 24.161618
_cell_length_c 12.604910
_cell_angle_alpha 90.000000
_cell_angle_beta 90.000000
_cell_angle_gamma 90.000000
_cell_volume 4216.420811
_symmetry_space_group_name_H-M "C M C A"
_symmetry_group_IT_number 64
_symmetry_cell_setting 'orthorhombic'
loop_
_space_group_symop_operation_xyz
x,y,z
-x,1/2-y,1/2+z
x,-y,-z
-x,1/2+y,1/2-z
-x,-y,-z
x,1/2+y,1/2-z
-x,y,z
x,1/2-y,1/2+z
1/2+x,1/2+y,z
1/2-x,-y,1/2+z
1/2+x,1/2-y,-z
1/2-x,y,1/2-z
1/2-x,1/2-y,-z
1/2+x,y,1/2-z
1/2-x,1/2+y,z
1/2+x,-y,1/2+z
loop_
_atom_site_type_symbol
_atom_site_label
_atom_site_fract_x
_atom_site_fract_y
_atom_site_fract_z
Si Si1 0.742105 0.303077 0.072178
Si Si2 0.890778 0.054954 0.646247
Si Si3 0.388355 0.494601 0.849716
Si Si4 0.390480 0.827114 0.234862
Si Si5 0.714073 0.076579 0.507086
O O1 0.661911 0.300327 0.164034
O O2 0.847214 0.304397 0.125299
O O3 0.716691 0.357089 0.001999
O O4 0.750000 0.250000 0.000000
O O5 0.875559 0.106883 0.726194
O O6 0.819184 0.054435 0.546093
O O7 0.000000 0.054556 0.601007
O O8 0.870621 0.002716 0.723625
O O9 0.500000 0.478756 0.870559
O O10 0.365663 0.551918 0.912168
O O11 0.315598 0.446446 0.891010
O O12 0.500000 0.808138 0.242427
#
# Coordination Sequence:
#
# PCOD8261747 Si02
#       5
#    16  16  16  16  16
#     4  10  20  33  54  81 107 138 182 223 271 319
#     4   9  17  32  55  78 103 138 181 221 261 315
#     4  10  19  31  53  84 109 136 180 223 264 321
#     4   9  18  34  55  79 104 136 182 226 264 314
#     4  10  18  31  52  79 107 138 176 224 270 308
#
# _framework density 18.973438000000002
#
# number of rings (size 3 to 8) (size 9 to 14) (size 15 to 20)
#    0.000    2.400    2.000    1.800    0.000    1.600 
#    0.000    2.000   17.600    2.400    0.000    0.000 
#    0.000    0.000    0.000    0.000    0.000    0.000 
#
# Total GULP energy -495598.678736 kJ/mol
# GULP energy per Si atom -12389.966968 kJ/mol
# Density = 1.893025 g / cm^3
# Si number density = 18.973438 Si / 1000 Ang^3
#
#
#
# Elastic Constant Matrix: (Units=GPa)
#
#
# Indices 1 2 3 4 5 6 
#
# 1 130.5112 51.8068 55.2823 0.0000 0.0000 0.0000
# 2 51.8068 123.6078 55.6924 0.0000 0.0000 0.0000
# 3 55.2823 55.6924 69.1447 0.0000 0.0000 0.0000
# 4 0.0000 0.0000 0.0000 35.6641 0.0000 0.0000
# 5 0.0000 0.0000 0.0000 0.0000 27.3807 0.0000
# 6 0.0000 0.0000 0.0000 0.0000 0.0000 19.9026
#
#
#
# Elastic Compliance Matrix: (Units=1/GPa)
#
#
# Indices 1 2 3 4 5 6 
#
# 1 0.011677 -0.001079 -0.008466 0.000000 0.000000 0.000000
# 2 -0.001079 0.012798 -0.009445 0.000000 0.000000 0.000000
# 3 -0.008466 -0.009445 0.028839 0.000000 0.000000 0.000000
# 4 0.000000 0.000000 0.000000 0.028039 0.000000 0.000000
# 5 0.000000 0.000000 0.000000 0.000000 0.036522 0.000000
# 6 0.000000 0.000000 0.000000 0.000000 0.000000 0.050245
#
#
# Mechanical properties :
#
#
# Convention : Reuss Voigt Hill
#
# Bulk Modulus (GPa) = 65.22313 72.09183 68.65748
# Shear Modulus (GPa) = 23.67278 27.28829 25.48054
#
# Velocity S-wave (km/s) = 3.53608 3.79652 3.66862
# Velocity P-wave (km/s) = 7.15000 7.56946 7.36272
#
# Compressibility (1/GPa) = 0.01533198
#
# Stress axis : x y z
#
# Youngs Moduli (GPa) = 85.63913 78.13657 34.67517
#
# Poissons Ratio (x) = 0.08434 0.29358
# Poissons Ratio (y) = 0.09244 0.32751
# Poissons Ratio (z) = 0.72506 0.73801
#
# Static dielectric constant tensor:
#      x y z
#    x 3.781080 0.000000 0.000000 
#    y 0.000000 3.244110 0.000000 
#    z 0.000000 0.000000 3.269050 
# 
# 
# High freq. dielectric constant tensor:
#      x y z
#    x 1.752320 0.000000 0.000000 
#    y 0.000000 1.700450 0.000000 
#    z 0.000000 0.000000 1.719860 
# 
# From -- ./inp_files/14715.got.cif
#   From: 2010.03.12/outbox.cif.g09.slc.cpg/sg64_8_cif.got.tgz:14715.got - 2010.04.10 20:19:32.
