data_PCOD8261278
_publ_section_title
;
Structure prediction by ZEFSAII (Michael W. Deem and Ramdas Pophale) SiO2 
 PCOD8261278
Probable space group: C M C M
;
_chemical_formula_sum "Si O2"
_cell_formula_units_Z 80
_cell_length_a 14.549387
_cell_length_b 39.119068
_cell_length_c 9.682064
_cell_angle_alpha 90.000000
_cell_angle_beta 90.000000
_cell_angle_gamma 90.000000
_cell_volume 5510.628630
_symmetry_space_group_name_H-M "C M C M"
_symmetry_group_IT_number 63
_symmetry_cell_setting 'orthorhombic'
loop_
_space_group_symop_operation_xyz
x,y,z
-x,-y,1/2+z
x,-y,-z
-x,y,1/2-z
-x,-y,-z
x,y,1/2-z
-x,y,z
x,-y,1/2+z
1/2+x,1/2+y,z
1/2-x,1/2-y,1/2+z
1/2+x,1/2-y,-z
1/2-x,1/2+y,1/2-z
1/2-x,1/2-y,-z
1/2+x,1/2+y,1/2-z
1/2-x,1/2+y,z
1/2+x,1/2-y,1/2+z
loop_
_atom_site_type_symbol
_atom_site_label
_atom_site_fract_x
_atom_site_fract_y
_atom_site_fract_z
Si Si1 0.603118 0.298507 0.910136
Si Si2 0.284658 0.167908 0.088261
Si Si3 0.390654 0.029643 0.403578
Si Si4 0.603072 0.895220 0.914862
Si Si5 0.606283 0.766807 0.591503
O O1 0.610855 0.287825 0.750000
O O2 0.500000 0.311406 0.945909
O O3 0.675564 0.328852 0.944218
O O4 0.630806 0.265840 0.999642
O O5 0.304212 0.166287 0.250000
O O6 0.326906 0.133208 0.023056
O O7 0.336426 0.201386 0.030791
O O8 0.349772 0.024578 0.250000
O O9 0.500000 0.026966 0.397497
O O10 0.364082 0.067094 0.464259
O O11 0.348397 0.000000 0.500000
O O12 0.602336 0.895463 0.750000
O O13 0.500000 0.887077 0.968882
O O14 0.632731 0.758503 0.750000
O O15 0.500000 0.776664 0.578534
#
# Coordination Sequence:
#
# PCOD8261278 Si02
#       5
#    16  16  16  16  16
#     4   9  17  27  37  50  69  92 116 143 177 213
#     4   9  15  23  36  52  70  91 115 145 177 204
#     4   8  13  21  34  51  70  92 114 134 159 194
#     4   8  13  21  34  53  73  91 115 145 171 196
#     4   9  16  25  38  54  68  86 116 149 176 204
#
# _framework density 14.517398999999999
#
# number of rings (size 3 to 8) (size 9 to 14) (size 15 to 20)
#    0.000    3.400    0.000    2.400    0.000    2.400 
#    0.000    0.000    0.000    2.400    0.000    5.600 
#    0.000    0.800    0.000    0.600    0.000    1.200 
#
# Total GULP energy -495655.060067 kJ/mol
# GULP energy per Si atom -12391.376502 kJ/mol
# Density = 1.448436 g / cm^3
# Si number density = 14.517399 Si / 1000 Ang^3
#
#
#
# Elastic Constant Matrix: (Units=GPa)
#
#
# Indices 1 2 3 4 5 6 
#
# 1 71.6074 64.1054 17.8420 0.0000 0.0000 0.0000
# 2 64.1054 125.5216 33.0064 0.0000 0.0000 0.0000
# 3 17.8420 33.0064 30.3547 0.0000 0.0000 0.0000
# 4 0.0000 0.0000 0.0000 17.3344 0.0000 0.0000
# 5 0.0000 0.0000 0.0000 0.0000 9.4273 0.0000
# 6 0.0000 0.0000 0.0000 0.0000 0.0000 15.9907
#
#
#
# Elastic Compliance Matrix: (Units=1/GPa)
#
#
# Indices 1 2 3 4 5 6 
#
# 1 0.025758 -0.012847 -0.001171 0.000000 0.000000 0.000000
# 2 -0.012847 0.017564 -0.011547 0.000000 0.000000 0.000000
# 3 -0.001171 -0.011547 0.046188 0.000000 0.000000 0.000000
# 4 0.000000 0.000000 0.000000 0.057689 0.000000 0.000000
# 5 0.000000 0.000000 0.000000 0.000000 0.106075 0.000000
# 6 0.000000 0.000000 0.000000 0.000000 0.000000 0.062536
#
#
# Mechanical properties :
#
#
# Convention : Reuss Voigt Hill
#
# Bulk Modulus (GPa) = 26.05531 50.82126 38.43828
# Shear Modulus (GPa) = 13.16713 16.05248 14.60980
#
# Velocity S-wave (km/s) = 3.01489 3.32888 3.17577
# Velocity P-wave (km/s) = 5.48690 7.06104 6.32315
#
# Compressibility (1/GPa) = 0.03837990
#
# Stress axis : x y z
#
# Youngs Moduli (GPa) = 38.82326 56.93368 21.65057
#
# Poissons Ratio (x) = 0.73142 0.02535
# Poissons Ratio (y) = 0.49876 0.25001
# Poissons Ratio (z) = 0.04545 0.65744
#
# Static dielectric constant tensor:
#      x y z
#    x 2.785840 0.000000 0.000000 
#    y 0.000000 3.039370 0.000000 
#    z 0.000000 0.000000 2.640910 
# 
# 
# High freq. dielectric constant tensor:
#      x y z
#    x 1.531170 0.000000 0.000000 
#    y 0.000000 1.545720 0.000000 
#    z 0.000000 0.000000 1.519840 
# 
# From -- ./inp_files/19663.got.cif
#   From: 2010.03.12/outbox.cif.g09.slc.cpg/sg63_10_cif.got.tgz:19663.got - 2010.04.10 19:34:48.
