data_PCOD8261548
_publ_section_title
;
Structure prediction by ZEFSAII (Michael W. Deem and Ramdas Pophale) SiO2 
 PCOD8261548
Probable space group: C M C A
;
_chemical_formula_sum "Si O2"
_cell_formula_units_Z 128
_cell_length_a 19.067427
_cell_length_b 19.051588
_cell_length_c 21.589912
_cell_angle_alpha 90.000000
_cell_angle_beta 90.000000
_cell_angle_gamma 90.000000
_cell_volume 7842.854275
_symmetry_space_group_name_H-M "C M C A"
_symmetry_group_IT_number 64
_symmetry_cell_setting 'orthorhombic'
loop_
_space_group_symop_operation_xyz
x,y,z
-x,1/2-y,1/2+z
x,-y,-z
-x,1/2+y,1/2-z
-x,-y,-z
x,1/2+y,1/2-z
-x,y,z
x,1/2-y,1/2+z
1/2+x,1/2+y,z
1/2-x,-y,1/2+z
1/2+x,1/2-y,-z
1/2-x,y,1/2-z
1/2-x,1/2-y,-z
1/2+x,y,1/2-z
1/2-x,1/2+y,z
1/2+x,-y,1/2+z
loop_
_atom_site_type_symbol
_atom_site_label
_atom_site_fract_x
_atom_site_fract_y
_atom_site_fract_z
Si Si1 0.920120 0.868525 0.925023
Si Si2 0.332777 0.361885 0.691038
Si Si3 0.079822 0.761947 0.166295
Si Si4 0.815416 0.806887 0.828234
Si Si5 0.420298 0.510864 0.856042
Si Si6 0.168688 0.509214 0.765466
Si Si7 0.419549 0.135003 0.562578
Si Si8 0.671863 0.335931 0.270442
O O1 0.870626 0.824631 0.880559
O O2 0.918859 0.948719 0.905208
O O3 0.000000 0.838737 0.921658
O O4 0.886828 0.861744 0.993962
O O5 0.397872 0.319522 0.662263
O O6 0.263292 0.332953 0.655647
O O7 0.332444 0.343640 0.763574
O O8 0.345043 0.446050 0.684860
O O9 0.088880 0.790595 0.096589
O O10 0.125232 0.807775 0.213952
O O11 0.000000 0.767290 0.189128
O O12 0.823622 0.722267 0.824193
O O13 0.500000 0.526898 0.834054
O O14 0.374447 0.492488 0.796542
O O15 0.385507 0.576493 0.892337
O O16 0.250000 0.505049 0.750000
O O17 0.145272 0.586137 0.792155
O O18 0.500000 0.112414 0.553346
O O19 0.750000 0.350186 0.250000
#
# Coordination Sequence:
#
# PCOD8261548 Si02
#       8
#    16  16  16  16  16  16  16  16
#     4  10  19  30  49  71  97 132 168 204 248 295
#     4  10  18  32  48  69 103 128 161 202 244 289
#     4  10  19  32  51  70  95 131 165 199 243 295
#     4  10  17  32  47  70  99 126 158 206 244 286
#     4  10  18  29  45  70 103 132 163 201 244 302
#     4  11  19  30  49  74  96 137 164 193 246 298
#     4   9  18  32  46  69 100 130 163 203 249 295
#     4  10  19  31  50  70  99 131 160 197 248 297
#
# _framework density 16.320588999999998
#
# number of rings (size 3 to 8) (size 9 to 14) (size 15 to 20)
#    0.000    2.000    6.250    0.375    0.000    4.000 
#    0.000    0.625    0.000    0.000    0.000    0.875 
#    0.000    3.000    0.000    0.000    0.000    0.250 
#
# Total GULP energy -793022.090763 kJ/mol
# GULP energy per Si atom -12390.970168 kJ/mol
# Density = 1.628344 g / cm^3
# Si number density = 16.320589 Si / 1000 Ang^3
#
#
#
# Elastic Constant Matrix: (Units=GPa)
#
#
# Indices 1 2 3 4 5 6 
#
# 1 74.0304 30.6631 42.1756 0.0000 0.0000 0.0000
# 2 30.6631 133.5095 33.0171 0.0000 0.0000 0.0000
# 3 42.1756 33.0171 54.6485 0.0000 0.0000 0.0000
# 4 0.0000 0.0000 0.0000 12.1868 0.0000 0.0000
# 5 0.0000 0.0000 0.0000 0.0000 10.5669 0.0000
# 6 0.0000 0.0000 0.0000 0.0000 0.0000 29.0843
#
#
#
# Elastic Compliance Matrix: (Units=1/GPa)
#
#
# Indices 1 2 3 4 5 6 
#
# 1 0.024246 -0.001106 -0.018043 0.000000 0.000000 0.000000
# 2 -0.001106 0.008856 -0.004497 0.000000 0.000000 0.000000
# 3 -0.018043 -0.004497 0.034941 0.000000 0.000000 0.000000
# 4 0.000000 0.000000 0.000000 0.082056 0.000000 0.000000
# 5 0.000000 0.000000 0.000000 0.000000 0.094635 0.000000
# 6 0.000000 0.000000 0.000000 0.000000 0.000000 0.034383
#
#
# Mechanical properties :
#
#
# Convention : Reuss Voigt Hill
#
# Bulk Modulus (GPa) = 48.19396 52.65557 50.42476
# Shear Modulus (GPa) = 15.00029 20.78977 17.89503
#
# Velocity S-wave (km/s) = 3.03496 3.57296 3.31489
# Velocity P-wave (km/s) = 6.47109 7.02529 6.75387
#
# Compressibility (1/GPa) = 0.02074949
#
# Stress axis : x y z
#
# Youngs Moduli (GPa) = 41.24456 112.91412 28.61981
#
# Poissons Ratio (x) = 0.12492 0.51640
# Poissons Ratio (y) = 0.04563 0.12870
# Poissons Ratio (z) = 0.74419 0.50776
#
# Static dielectric constant tensor:
#      x y z
#    x 3.098870 0.000000 0.000000 
#    y 0.000000 3.538550 0.000000 
#    z 0.000000 0.000000 2.829140 
# 
# 
# High freq. dielectric constant tensor:
#      x y z
#    x 1.617740 0.000000 0.000000 
#    y 0.000000 1.640300 0.000000 
#    z 0.000000 0.000000 1.585350 
# 
# From -- ./inp_files/40576.got.cif
#   From: 2010.03.12/outbox.cif.g09.slc.cpg/sg64_21_cif.got.tgz:40576.got - 2010.04.10 20:19:32.
