data_PCOD8261982
_publ_section_title
;
Structure prediction by ZEFSAII (Michael W. Deem and Ramdas Pophale) SiO2 
 PCOD8261982
Probable space group: C M C A
;
_chemical_formula_sum "Si O2"
_cell_formula_units_Z 80
_cell_length_a 8.767671
_cell_length_b 25.495109
_cell_length_c 21.119550
_cell_angle_alpha 90.000000
_cell_angle_beta 90.000000
_cell_angle_gamma 90.000000
_cell_volume 4720.910622
_symmetry_space_group_name_H-M "C M C A"
_symmetry_group_IT_number 64
_symmetry_cell_setting 'orthorhombic'
loop_
_space_group_symop_operation_xyz
x,y,z
-x,1/2-y,1/2+z
x,-y,-z
-x,1/2+y,1/2-z
-x,-y,-z
x,1/2+y,1/2-z
-x,y,z
x,1/2-y,1/2+z
1/2+x,1/2+y,z
1/2-x,-y,1/2+z
1/2+x,1/2-y,-z
1/2-x,y,1/2-z
1/2-x,1/2-y,-z
1/2+x,y,1/2-z
1/2-x,1/2+y,z
1/2+x,-y,1/2+z
loop_
_atom_site_type_symbol
_atom_site_label
_atom_site_fract_x
_atom_site_fract_y
_atom_site_fract_z
Si Si1 0.676442 0.292000 0.411011
Si Si2 0.819955 0.871095 0.181221
Si Si3 0.679168 0.067963 0.449941
Si Si4 0.181128 0.959178 0.088684
Si Si5 0.677180 0.681809 0.042094
O O1 0.500000 0.304388 0.398757
O O2 0.774837 0.318438 0.356124
O O3 0.709054 0.229179 0.409199
O O4 0.721293 0.313234 0.479748
O O5 0.750000 0.869951 0.250000
O O6 0.753199 0.922349 0.144468
O O7 0.000000 0.872910 0.187279
O O8 0.500000 0.059902 0.453649
O O9 0.742302 0.062646 0.521529
O O10 0.720614 0.126187 0.424142
O O11 0.739828 0.020105 0.405312
O O12 0.000000 0.955419 0.092110
O O13 0.500000 0.681790 0.020786
#
# Coordination Sequence:
#
# PCOD8261982 Si02
#       5
#    16  16  16  16  16
#     4  10  19  29  44  70  99 127 159 192 233 280
#     4  11  21  34  50  68  93 126 160 196 233 276
#     4   8  12  23  45  72  94 116 149 191 232 277
#     4   8  14  24  44  70  93 117 153 191 229 274
#     4   9  16  28  48  71  97 125 155 194 235 279
#
# _framework density 16.945884
#
# number of rings (size 3 to 8) (size 9 to 14) (size 15 to 20)
#    0.000    2.800    2.000    2.400    0.000    0.800 
#    0.000    0.000    0.000    4.800    0.000    2.800 
#    0.000    0.000    0.000    0.000    0.000    0.000 
#
# Total GULP energy -495550.740679 kJ/mol
# GULP energy per Si atom -12388.768517 kJ/mol
# Density = 1.690731 g / cm^3
# Si number density = 16.945884 Si / 1000 Ang^3
#
#
#
# Elastic Constant Matrix: (Units=GPa)
#
#
# Indices 1 2 3 4 5 6 
#
# 1 36.6857 27.3373 22.6024 0.0000 0.0000 0.0000
# 2 27.3373 174.8229 58.8593 0.0000 0.0000 0.0000
# 3 22.6024 58.8593 86.6174 0.0000 0.0000 0.0000
# 4 0.0000 0.0000 0.0000 16.1999 0.0000 0.0000
# 5 0.0000 0.0000 0.0000 0.0000 19.9554 0.0000
# 6 0.0000 0.0000 0.0000 0.0000 0.0000 16.2171
#
#
#
# Elastic Compliance Matrix: (Units=1/GPa)
#
#
# Indices 1 2 3 4 5 6 
#
# 1 0.033643 -0.002989 -0.006748 0.000000 0.000000 0.000000
# 2 -0.002989 0.007683 -0.004441 0.000000 0.000000 0.000000
# 3 -0.006748 -0.004441 0.016323 0.000000 0.000000 0.000000
# 4 0.000000 0.000000 0.000000 0.061729 0.000000 0.000000
# 5 0.000000 0.000000 0.000000 0.000000 0.050112 0.000000
# 6 0.000000 0.000000 0.000000 0.000000 0.000000 0.061663
#
#
# Mechanical properties :
#
#
# Convention : Reuss Voigt Hill
#
# Bulk Modulus (GPa) = 34.13639 57.30265 45.71952
# Shear Modulus (GPa) = 18.56853 23.09628 20.83240
#
# Velocity S-wave (km/s) = 3.31381 3.69581 3.51001
# Velocity P-wave (km/s) = 5.90168 7.21807 6.59281
#
# Compressibility (1/GPa) = 0.02929426
#
# Stress axis : x y z
#
# Youngs Moduli (GPa) = 29.72355 130.16583 61.26182
#
# Poissons Ratio (x) = 0.38906 0.41339
# Poissons Ratio (y) = 0.08884 0.27204
# Poissons Ratio (z) = 0.20057 0.57801
#
# Static dielectric constant tensor:
#      x y z
#    x 2.906320 0.000000 0.000000 
#    y 0.000000 3.802710 0.000000 
#    z 0.000000 0.000000 2.867290 
# 
# 
# High freq. dielectric constant tensor:
#      x y z
#    x 1.624250 0.000000 0.000000 
#    y 0.000000 1.679130 0.000000 
#    z 0.000000 0.000000 1.601870 
# 
# From -- ./inp_files/29788.got.cif
#   From: 2010.03.12/outbox.cif.g09.slc.cpg/sg64_15_cif.got.tgz:29788.got - 2010.04.10 20:19:32.
