data_PCOD8261812
_publ_section_title
;
Structure prediction by ZEFSAII (Michael W. Deem and Ramdas Pophale) SiO2 
 PCOD8261812
Probable space group: C M C A
;
_chemical_formula_sum "Si O2"
_cell_formula_units_Z 64
_cell_length_a 8.549962
_cell_length_b 20.870384
_cell_length_c 19.193264
_cell_angle_alpha 90.000000
_cell_angle_beta 90.000000
_cell_angle_gamma 90.000000
_cell_volume 3424.865032
_symmetry_space_group_name_H-M "C M C A"
_symmetry_group_IT_number 64
_symmetry_cell_setting 'orthorhombic'
loop_
_space_group_symop_operation_xyz
x,y,z
-x,1/2-y,1/2+z
x,-y,-z
-x,1/2+y,1/2-z
-x,-y,-z
x,1/2+y,1/2-z
-x,y,z
x,1/2-y,1/2+z
1/2+x,1/2+y,z
1/2-x,-y,1/2+z
1/2+x,1/2-y,-z
1/2-x,y,1/2-z
1/2-x,1/2-y,-z
1/2+x,y,1/2-z
1/2-x,1/2+y,z
1/2+x,-y,1/2+z
loop_
_atom_site_type_symbol
_atom_site_label
_atom_site_fract_x
_atom_site_fract_y
_atom_site_fract_z
Si Si1 0.817436 0.997978 0.321718
Si Si2 0.814293 0.812303 0.537033
Si Si3 0.317111 0.438111 0.462587
Si Si4 0.684832 0.136911 0.324941
O O1 0.750000 0.969778 0.250000
O O2 0.784545 0.944189 0.380026
O O3 0.000000 0.013302 0.313944
O O4 0.734678 0.064297 0.342132
O O5 0.750000 0.750000 0.500000
O O6 0.745830 0.872719 0.493096
O O7 0.753393 0.816099 0.616206
O O8 0.000000 0.810524 0.537076
O O9 0.240723 0.500000 0.500000
O O10 0.500000 0.437612 0.479395
O O11 0.500000 0.142446 0.324153
O O12 0.750000 0.158834 0.250000
#
# Coordination Sequence:
#
# PCOD8261812 Si02
#       4
#    16  16  16  16
#     4  10  18  32  54  82 112 145 184 230 283 334
#     4  11  22  39  59  83 115 151 193 235 283 340
#     4   9  17  33  57  80 107 147 186 227 279 333
#     4  11  21  35  56  84 113 147 187 232 283 336
#
# _framework density 18.686869000000002
#
# number of rings (size 3 to 8) (size 9 to 14) (size 15 to 20)
#    0.000    1.750    2.500    5.250    0.000    0.000 
#    0.000    7.500    0.000    3.000    0.000    0.000 
#    0.000    0.000    0.000    0.000    0.000    0.000 
#
# Total GULP energy -396786.741851 kJ/mol
# GULP energy per Si atom -12399.585683 kJ/mol
# Density = 1.864434 g / cm^3
# Si number density = 18.686869 Si / 1000 Ang^3
#
#
#
# Elastic Constant Matrix: (Units=GPa)
#
#
# Indices 1 2 3 4 5 6 
#
# 1 101.2331 37.4394 52.5266 0.0000 0.0000 0.0000
# 2 37.4394 124.2634 83.8951 0.0000 0.0000 0.0000
# 3 52.5266 83.8951 157.2182 0.0000 0.0000 0.0000
# 4 0.0000 0.0000 0.0000 407.2916 0.0000 0.0000
# 5 0.0000 0.0000 0.0000 0.0000 31.7333 0.0000
# 6 0.0000 0.0000 0.0000 0.0000 0.0000 19.2202
#
#
#
# Elastic Compliance Matrix: (Units=1/GPa)
#
#
# Indices 1 2 3 4 5 6 
#
# 1 0.012111 -0.001434 -0.003281 0.000000 0.000000 0.000000
# 2 -0.001434 0.012749 -0.006324 0.000000 0.000000 0.000000
# 3 -0.003281 -0.006324 0.010832 0.000000 0.000000 0.000000
# 4 0.000000 0.000000 0.000000 0.002455 0.000000 0.000000
# 5 0.000000 0.000000 0.000000 0.000000 0.031513 0.000000
# 6 0.000000 0.000000 0.000000 0.000000 0.000000 0.052029
#
#
# Mechanical properties :
#
#
# Convention : Reuss Voigt Hill
#
# Bulk Modulus (GPa) = 73.45682 81.15965 77.30823
# Shear Modulus (GPa) = 33.71451 105.57259 69.64355
#
# Velocity S-wave (km/s) = 4.25217 7.52451 6.11143
# Velocity P-wave (km/s) = 7.96885 10.90948 9.55299
#
# Compressibility (1/GPa) = 0.01361344
#
# Stress axis : x y z
#
# Youngs Moduli (GPa) = 82.57005 78.43694 92.32238
#
# Poissons Ratio (x) = 0.11245 0.30293
# Poissons Ratio (y) = 0.11837 0.58387
# Poissons Ratio (z) = 0.27093 0.49605
#
# Static dielectric constant tensor:
#      x y z
#    x 3.343970 0.000000 0.000000 
#    y 0.000000 3.442880 0.000000 
#    z 0.000000 0.000000 3.503690 
# 
# 
# High freq. dielectric constant tensor:
#      x y z
#    x 1.718770 0.000000 0.000000 
#    y 0.000000 1.694910 0.000000 
#    z 0.000000 0.000000 1.744770 
# 
# From -- ./inp_files/29256.got.cif
#   From: 2010.03.12/outbox.cif.g09.slc.cpg/sg64_15_cif.got.tgz:29256.got - 2010.04.10 20:19:32.
