data_PCOD8261225
_publ_section_title
;
Structure prediction by ZEFSAII (Michael W. Deem and Ramdas Pophale) SiO2 
 PCOD8261225
Probable space group: C M C M
;
_chemical_formula_sum "Si O2"
_cell_formula_units_Z 32
_cell_length_a 14.033869
_cell_length_b 9.639128
_cell_length_c 11.916894
_cell_angle_alpha 90.000000
_cell_angle_beta 90.000000
_cell_angle_gamma 90.000000
_cell_volume 1612.049013
_symmetry_space_group_name_H-M "C M C M"
_symmetry_group_IT_number 63
_symmetry_cell_setting 'orthorhombic'
loop_
_space_group_symop_operation_xyz
x,y,z
-x,-y,1/2+z
x,-y,-z
-x,y,1/2-z
-x,-y,-z
x,y,1/2-z
-x,y,z
x,-y,1/2+z
1/2+x,1/2+y,z
1/2-x,1/2-y,1/2+z
1/2+x,1/2-y,-z
1/2-x,1/2+y,1/2-z
1/2-x,1/2-y,-z
1/2+x,1/2+y,1/2-z
1/2-x,1/2+y,z
1/2+x,1/2-y,1/2+z
loop_
_atom_site_type_symbol
_atom_site_label
_atom_site_fract_x
_atom_site_fract_y
_atom_site_fract_z
Si Si1 0.841930 0.493746 0.750000
Si Si2 0.500000 0.357446 0.565232
Si Si3 0.500000 0.141558 0.131607
Si Si4 0.846287 0.813810 0.750000
O O1 0.905565 0.457070 0.638740
O O2 0.814519 0.654354 0.750000
O O3 0.746137 0.407241 0.750000
O O4 0.500000 0.500000 0.500000
O O5 0.500000 0.231904 0.478065
O O6 0.405742 0.347819 0.639140
O O7 0.500000 0.231938 0.250000
#
# Coordination Sequence:
#
# PCOD8261225 Si02
#       4
#     8   8   8   8
#     4   9  23  42  69  93 133 162 218 262 310 394
#     4  11  25  41  69  91 135 165 215 266 311 384
#     4   8  21  44  62  89 128 173 204 258 325 366
#     4  11  25  42  65 101 123 170 214 260 326 366
#
# _framework density 19.850512999999999
#
# number of rings (size 3 to 8) (size 9 to 14) (size 15 to 20)
#    1.500    0.500    0.000    3.000   10.500    6.000 
#    0.000    0.000    0.000    0.000    0.000    0.000 
#    0.000    0.000    0.000    0.000    0.000    0.000 
#
# Total GULP energy -198227.231260 kJ/mol
# GULP energy per Si atom -12389.201954 kJ/mol
# Density = 1.980533 g / cm^3
# Si number density = 19.850513 Si / 1000 Ang^3
#
#
#
# Elastic Constant Matrix: (Units=GPa)
#
#
# Indices 1 2 3 4 5 6 
#
# 1 185.4274 94.9834 52.4318 0.0000 0.0000 0.0000
# 2 94.9834 180.2389 67.4458 0.0000 0.0000 0.0000
# 3 52.4318 67.4458 116.9594 0.0000 0.0000 0.0000
# 4 0.0000 0.0000 0.0000 35.0068 0.0000 0.0000
# 5 0.0000 0.0000 0.0000 0.0000 15.7843 0.0000
# 6 0.0000 0.0000 0.0000 0.0000 0.0000 34.2643
#
#
#
# Elastic Compliance Matrix: (Units=1/GPa)
#
#
# Indices 1 2 3 4 5 6 
#
# 1 0.007561 -0.003463 -0.001392 0.000000 0.000000 0.000000
# 2 -0.003463 0.008661 -0.003442 0.000000 0.000000 0.000000
# 3 -0.001392 -0.003442 0.011159 0.000000 0.000000 0.000000
# 4 0.000000 0.000000 0.000000 0.028566 0.000000 0.000000
# 5 0.000000 0.000000 0.000000 0.000000 0.063354 0.000000
# 6 0.000000 0.000000 0.000000 0.000000 0.000000 0.029185
#
#
# Mechanical properties :
#
#
# Convention : Reuss Voigt Hill
#
# Bulk Modulus (GPa) = 92.71492 101.37197 97.04345
# Shear Modulus (GPa) = 29.64256 34.86207 32.25232
#
# Velocity S-wave (km/s) = 3.86850 4.19529 4.03520
# Velocity P-wave (km/s) = 8.17078 8.63978 8.40855
#
# Compressibility (1/GPa) = 0.01078575
#
# Stress axis : x y z
#
# Youngs Moduli (GPa) = 132.26271 115.45478 89.61404
#
# Poissons Ratio (x) = 0.39987 0.12476
# Poissons Ratio (y) = 0.45808 0.30846
# Poissons Ratio (z) = 0.18413 0.39740
#
# Static dielectric constant tensor:
#      x y z
#    x 3.594300 0.000000 0.000000 
#    y 0.000000 3.549580 0.000000 
#    z 0.000000 0.000000 3.569580 
# 
# 
# High freq. dielectric constant tensor:
#      x y z
#    x 1.778500 0.000000 0.000000 
#    y 0.000000 1.776810 0.000000 
#    z 0.000000 0.000000 1.770730 
# 
# From -- ./inp_files/16482.got.cif
#   From: 2010.03.12/outbox.cif.g09.slc.cpg/sg63_9_cif.got.tgz:16482.got - 2010.04.10 19:34:48.
