data_PCOD8261318
_publ_section_title
;
Structure prediction by ZEFSAII (Michael W. Deem and Ramdas Pophale) SiO2 
 PCOD8261318
Probable space group: C M C M
;
_chemical_formula_sum "Si O2"
_cell_formula_units_Z 96
_cell_length_a 9.412251
_cell_length_b 25.155866
_cell_length_c 25.208343
_cell_angle_alpha 90.000000
_cell_angle_beta 90.000000
_cell_angle_gamma 90.000000
_cell_volume 5968.663188
_symmetry_space_group_name_H-M "C M C M"
_symmetry_group_IT_number 63
_symmetry_cell_setting 'orthorhombic'
loop_
_space_group_symop_operation_xyz
x,y,z
-x,-y,1/2+z
x,-y,-z
-x,y,1/2-z
-x,-y,-z
x,y,1/2-z
-x,y,z
x,-y,1/2+z
1/2+x,1/2+y,z
1/2-x,1/2-y,1/2+z
1/2+x,1/2-y,-z
1/2-x,1/2+y,1/2-z
1/2-x,1/2-y,-z
1/2+x,1/2+y,1/2-z
1/2-x,1/2+y,z
1/2+x,1/2-y,1/2+z
loop_
_atom_site_type_symbol
_atom_site_label
_atom_site_fract_x
_atom_site_fract_y
_atom_site_fract_z
Si Si1 0.660698 0.063129 0.998760
Si Si2 0.665080 0.357999 0.310266
Si Si3 0.833672 0.064155 0.100449
Si Si4 0.164315 0.058768 0.601894
Si Si5 0.842480 0.740825 0.813034
Si Si6 0.169032 0.857371 0.691094
O O1 0.500000 0.085568 0.999241
O O2 0.746286 0.084570 0.049586
O O3 0.740716 0.082179 0.945712
O O4 0.661051 0.000000 0.000000
O O5 0.713657 0.370272 0.250000
O O6 0.500000 0.344847 0.312728
O O7 0.703940 0.409422 0.344951
O O8 0.742869 0.306289 0.334427
O O9 0.777396 0.097747 0.150591
O O10 0.000000 0.073684 0.089247
O O11 0.801863 0.002756 0.113289
O O12 0.000000 0.066256 0.585911
O O13 0.848733 0.739255 0.750000
O O14 0.781490 0.798935 0.829460
O O15 0.000000 0.732041 0.836819
O O16 0.230861 0.869680 0.750000
O O17 0.000000 0.857154 0.694357
#
# Coordination Sequence:
#
# PCOD8261318 Si02
#       6
#    16  16  16  16  16  16
#     4   9  17  29  44  61  83 112 145 178 209 245
#     4   9  17  28  42  63  90 115 139 171 210 249
#     4   9  16  27  45  66  87 112 140 172 211 252
#     4   9  17  28  43  64  88 113 141 172 208 252
#     4   8  14  26  43  61  82 111 146 176 201 239
#     4   8  14  25  43  67  90 111 139 174 209 248
#
# _framework density 16.084004
#
# number of rings (size 3 to 8) (size 9 to 14) (size 15 to 20)
#    0.000    3.333    0.000    1.500    0.000    3.333 
#    0.000    4.167    0.000    2.500    0.000    4.667 
#    0.000    0.000    0.000    0.000    0.000    0.000 
#
# Total GULP energy -594964.567871 kJ/mol
# GULP energy per Si atom -12395.095164 kJ/mol
# Density = 1.604740 g / cm^3
# Si number density = 16.084004 Si / 1000 Ang^3
#
#
#
# Elastic Constant Matrix: (Units=GPa)
#
#
# Indices 1 2 3 4 5 6 
#
# 1 59.9601 40.2293 48.2621 0.0000 0.0000 0.0000
# 2 40.2293 90.8062 61.5564 0.0000 0.0000 0.0000
# 3 48.2621 61.5564 106.0796 0.0000 0.0000 0.0000
# 4 0.0000 0.0000 0.0000 5.7610 0.0000 0.0000
# 5 0.0000 0.0000 0.0000 0.0000 15.2333 0.0000
# 6 0.0000 0.0000 0.0000 0.0000 0.0000 18.8677
#
#
#
# Elastic Compliance Matrix: (Units=1/GPa)
#
#
# Indices 1 2 3 4 5 6 
#
# 1 0.028336 -0.006288 -0.009243 0.000000 0.000000 0.000000
# 2 -0.006288 0.019549 -0.008483 0.000000 0.000000 0.000000
# 3 -0.009243 -0.008483 0.018555 0.000000 0.000000 0.000000
# 4 0.000000 0.000000 0.000000 0.173582 0.000000 0.000000
# 5 0.000000 0.000000 0.000000 0.000000 0.065646 0.000000
# 6 0.000000 0.000000 0.000000 0.000000 0.000000 0.053001
#
#
# Mechanical properties :
#
#
# Convention : Reuss Voigt Hill
#
# Bulk Modulus (GPa) = 54.31364 61.88241 58.09803
# Shear Modulus (GPa) = 12.11141 15.09226 13.60183
#
# Velocity S-wave (km/s) = 2.74708 3.06656 2.91120
# Velocity P-wave (km/s) = 6.62601 7.14817 6.89204
#
# Compressibility (1/GPa) = 0.01841158
#
# Stress axis : x y z
#
# Youngs Moduli (GPa) = 35.29036 51.15427 53.89436
#
# Poissons Ratio (x) = 0.32165 0.49816
# Poissons Ratio (y) = 0.22190 0.45719
# Poissons Ratio (z) = 0.32620 0.43395
#
# Static dielectric constant tensor:
#      x y z
#    x 3.036680 0.000000 0.000000 
#    y 0.000000 3.089310 0.000000 
#    z 0.000000 0.000000 3.072680 
# 
# 
# High freq. dielectric constant tensor:
#      x y z
#    x 1.602170 0.000000 0.000000 
#    y 0.000000 1.602340 0.000000 
#    z 0.000000 0.000000 1.603180 
# 
# From -- ./inp_files/60215.got.cif
#   From: 2010.03.12/outbox.cif.g09.slc.cpg/sg63_31_cif.got.tgz:60215.got - 2010.04.10 19:34:48.
