data_PCOD8261187
_publ_section_title
;
Structure prediction by ZEFSAII (Michael W. Deem and Ramdas Pophale) SiO2 
 PCOD8261187
Probable space group: C M C M
;
_chemical_formula_sum "Si O2"
_cell_formula_units_Z 56
_cell_length_a 9.735913
_cell_length_b 11.412937
_cell_length_c 19.020934
_cell_angle_alpha 90.000000
_cell_angle_beta 90.000000
_cell_angle_gamma 90.000000
_cell_volume 2113.517961
_symmetry_space_group_name_H-M "C M C M"
_symmetry_group_IT_number 63
_symmetry_cell_setting 'orthorhombic'
loop_
_space_group_symop_operation_xyz
x,y,z
-x,-y,1/2+z
x,-y,-z
-x,y,1/2-z
-x,-y,-z
x,y,1/2-z
-x,y,z
x,-y,1/2+z
1/2+x,1/2+y,z
1/2-x,1/2-y,1/2+z
1/2+x,1/2-y,-z
1/2-x,1/2+y,1/2-z
1/2-x,1/2-y,-z
1/2+x,1/2+y,1/2-z
1/2-x,1/2+y,z
1/2+x,1/2-y,1/2+z
loop_
_atom_site_type_symbol
_atom_site_label
_atom_site_fract_x
_atom_site_fract_y
_atom_site_fract_z
Si Si1 0.000000 0.117746 0.750000
Si Si2 0.295581 0.087543 0.399394
Si Si3 0.000000 0.245100 0.970983
Si Si4 0.500000 0.109256 0.599562
Si Si5 0.789233 0.321246 0.750000
Si Si6 0.000000 0.001062 0.400865
Si Si7 0.000000 0.284561 0.250000
O O1 0.136273 0.195932 0.750000
O O2 0.000000 0.039863 0.820010
O O3 0.365965 0.965891 0.422241
O O4 0.133716 0.080853 0.415821
O O5 0.361612 0.198703 0.438391
O O6 0.329903 0.103061 0.317229
O O7 0.000000 0.106805 0.955881
O O8 0.000000 0.271563 0.054449
O O9 0.500000 0.135572 0.681469
O O10 0.627788 0.301565 0.750000
#
# Coordination Sequence:
#
# PCOD8261187 Si02
#       7
#     4  16   8   8   8   8   4
#     4  12  20  40  70 102 144 196 236 298 358 404
#     4  11  23  45  71 106 142 193 236 294 357 425
#     4  11  26  50  70 104 149 188 238 294 360 434
#     4  11  25  49  72  99 141 189 238 291 359 437
#     4  12  22  42  72 105 145 181 242 300 342 425
#     4  12  24  43  73 107 147 192 240 299 359 417
#     4  12  26  44  70 108 132 186 240 296 358 422
#
# _framework density 26.496106999999999
#
# number of rings (size 3 to 8) (size 9 to 14) (size 15 to 20)
#    0.000    0.571    2.857    6.857    0.000    1.143 
#    5.143    2.857    0.000    0.000    0.000    0.000 
#    0.000    0.000    0.000    0.000    0.000    0.000 
#
# Total GULP energy -347401.835143 kJ/mol
# GULP energy per Si atom -12407.208398 kJ/mol
# Density = 2.643580 g / cm^3
# Si number density = 26.496107 Si / 1000 Ang^3
#
#
#
# Elastic Constant Matrix: (Units=GPa)
#
#
# Indices 1 2 3 4 5 6 
#
# 1 199.8093 50.5743 33.3219 0.0000 0.0000 0.0000
# 2 50.5743 97.8144 17.2980 0.0000 0.0000 0.0000
# 3 33.3219 17.2980 94.6609 0.0000 0.0000 0.0000
# 4 0.0000 0.0000 0.0000 14.6215 0.0000 0.0000
# 5 0.0000 0.0000 0.0000 0.0000 31.8996 0.0000
# 6 0.0000 0.0000 0.0000 0.0000 0.0000 28.8568
#
#
#
# Elastic Compliance Matrix: (Units=1/GPa)
#
#
# Indices 1 2 3 4 5 6 
#
# 1 0.005982 -0.002811 -0.001592 0.000000 0.000000 0.000000
# 2 -0.002811 0.011886 -0.001182 0.000000 0.000000 0.000000
# 3 -0.001592 -0.001182 0.011340 0.000000 0.000000 0.000000
# 4 0.000000 0.000000 0.000000 0.068393 0.000000 0.000000
# 5 0.000000 0.000000 0.000000 0.000000 0.031348 0.000000
# 6 0.000000 0.000000 0.000000 0.000000 0.000000 0.034654
#
#
# Mechanical properties :
#
#
# Convention : Reuss Voigt Hill
#
# Bulk Modulus (GPa) = 55.44139 66.07476 60.75808
# Shear Modulus (GPa) = 27.65683 34.48159 31.06921
#
# Velocity S-wave (km/s) = 3.23431 3.61138 3.42803
# Velocity P-wave (km/s) = 5.90910 6.51008 6.21685
#
# Compressibility (1/GPa) = 0.01803707
#
# Stress axis : x y z
#
# Youngs Moduli (GPa) = 167.17239 84.13162 88.17968
#
# Poissons Ratio (x) = 0.23652 0.14038
# Poissons Ratio (y) = 0.46998 0.10426
# Poissons Ratio (z) = 0.26613 0.09948
#
# Static dielectric constant tensor:
#      x y z
#    x 4.955280 0.000000 0.000000 
#    y 0.000000 4.487200 0.000000 
#    z 0.000000 0.000000 5.166870 
# 
# 
# High freq. dielectric constant tensor:
#      x y z
#    x 2.074790 0.000000 0.000000 
#    y 0.000000 2.062060 0.000000 
#    z 0.000000 0.000000 2.085390 
# 
# From -- ./inp_files/50207.got.cif
#   From: 2010.03.12/outbox.cif.g09.slc.cpg/sg63_26_cif.got.tgz:50207.got - 2010.04.10 19:34:48.
