data_PCOD8261785
_publ_section_title
;
Structure prediction by ZEFSAII (Michael W. Deem and Ramdas Pophale) SiO2 
 PCOD8261785
Probable space group: C M C A
;
_chemical_formula_sum "Si O2"
_cell_formula_units_Z 72
_cell_length_a 21.625800
_cell_length_b 18.128565
_cell_length_c 10.449061
_cell_angle_alpha 90.000000
_cell_angle_beta 90.000000
_cell_angle_gamma 90.000000
_cell_volume 4096.499204
_symmetry_space_group_name_H-M "C M C A"
_symmetry_group_IT_number 64
_symmetry_cell_setting 'orthorhombic'
loop_
_space_group_symop_operation_xyz
x,y,z
-x,1/2-y,1/2+z
x,-y,-z
-x,1/2+y,1/2-z
-x,-y,-z
x,1/2+y,1/2-z
-x,y,z
x,1/2-y,1/2+z
1/2+x,1/2+y,z
1/2-x,-y,1/2+z
1/2+x,1/2-y,-z
1/2-x,y,1/2-z
1/2-x,1/2-y,-z
1/2+x,y,1/2-z
1/2-x,1/2+y,z
1/2+x,-y,1/2+z
loop_
_atom_site_type_symbol
_atom_site_label
_atom_site_fract_x
_atom_site_fract_y
_atom_site_fract_z
Si Si1 0.325940 0.402869 0.604102
Si Si2 0.250000 0.787494 0.750000
Si Si3 0.626752 0.796383 0.216399
Si Si4 0.072192 0.792868 0.555760
Si Si5 0.812496 0.941184 0.320486
O O1 0.277269 0.340072 0.641068
O O2 0.394563 0.368947 0.595431
O O3 0.300892 0.430181 0.469671
O O4 0.330005 0.472408 0.702369
O O5 0.304919 0.737317 0.694442
O O6 0.593779 0.771119 0.346632
O O7 0.633363 0.885503 0.226356
O O8 0.587845 0.771805 0.091212
O O9 0.000000 0.805798 0.570470
O O10 0.750000 0.920504 0.250000
#
# Coordination Sequence:
#
# PCOD8261785 Si02
#       5
#    16   8  16  16  16
#     4   9  20  32  51  76 107 138 170 210 269 311
#     4  10  18  32  50  84 106 134 162 218 278 316
#     4  10  21  32  57  79 107 134 177 220 267 307
#     4  10  21  38  54  75 106 145 182 215 252 309
#     4  10  18  32  50  79 107 132 168 213 265 322
#
# _framework density 17.575983999999998
#
# number of rings (size 3 to 8) (size 9 to 14) (size 15 to 20)
#    0.000    2.222    2.222    0.667    3.111    2.667 
#    0.000   10.000    0.000    0.000    0.000    4.667 
#    0.000    0.000    0.000    0.000    0.000    0.000 
#
# Total GULP energy -446208.858413 kJ/mol
# GULP energy per Si atom -12394.690511 kJ/mol
# Density = 1.753598 g / cm^3
# Si number density = 17.575984 Si / 1000 Ang^3
#
#
#
# Elastic Constant Matrix: (Units=GPa)
#
#
# Indices 1 2 3 4 5 6 
#
# 1 115.8571 27.0381 31.0209 0.0000 0.0000 0.0000
# 2 27.0381 85.5751 23.7159 0.0000 0.0000 0.0000
# 3 31.0209 23.7159 68.1525 0.0000 0.0000 0.0000
# 4 0.0000 0.0000 0.0000 25.2970 0.0000 0.0000
# 5 0.0000 0.0000 0.0000 0.0000 25.8889 0.0000
# 6 0.0000 0.0000 0.0000 0.0000 0.0000 13.3754
#
#
#
# Elastic Compliance Matrix: (Units=1/GPa)
#
#
# Indices 1 2 3 4 5 6 
#
# 1 0.010170 -0.002137 -0.003886 0.000000 0.000000 0.000000
# 2 -0.002137 0.013382 -0.003684 0.000000 0.000000 0.000000
# 3 -0.003886 -0.003684 0.017724 0.000000 0.000000 0.000000
# 4 0.000000 0.000000 0.000000 0.039530 0.000000 0.000000
# 5 0.000000 0.000000 0.000000 0.000000 0.038627 0.000000
# 6 0.000000 0.000000 0.000000 0.000000 0.000000 0.074764
#
#
# Mechanical properties :
#
#
# Convention : Reuss Voigt Hill
#
# Bulk Modulus (GPa) = 45.73956 48.12605 46.93281
# Shear Modulus (GPa) = 22.63498 25.43293 24.03395
#
# Velocity S-wave (km/s) = 3.59254 3.80811 3.70189
# Velocity P-wave (km/s) = 6.57942 6.83935 6.71065
#
# Compressibility (1/GPa) = 0.02186291
#
# Stress axis : x y z
#
# Youngs Moduli (GPa) = 98.32502 74.72900 56.42173
#
# Poissons Ratio (x) = 0.15966 0.21924
# Poissons Ratio (y) = 0.21007 0.20786
# Poissons Ratio (z) = 0.38207 0.27531
#
# Static dielectric constant tensor:
#      x y z
#    x 3.104410 0.000000 0.000000 
#    y 0.000000 3.685790 0.000000 
#    z 0.000000 0.000000 3.292430 
# 
# 
# High freq. dielectric constant tensor:
#      x y z
#    x 1.661920 0.000000 0.000000 
#    y 0.000000 1.690060 0.000000 
#    z 0.000000 0.000000 1.675480 
# 
# From -- ./inp_files/9141.got.cif
#   From: 2010.03.12/outbox.cif.g09.slc.cpg/sg64_5_cif.got.tgz:9141.got - 2010.04.10 20:19:32.
