data_PCOD8261091
_publ_section_title
;
Structure prediction by ZEFSAII (Michael W. Deem and Ramdas Pophale) SiO2 
 PCOD8261091
Probable space group: C M C M
;
_chemical_formula_sum "Si O2"
_cell_formula_units_Z 80
_cell_length_a 16.964388
_cell_length_b 11.548436
_cell_length_c 21.341999
_cell_angle_alpha 90.000000
_cell_angle_beta 90.000000
_cell_angle_gamma 90.000000
_cell_volume 4181.156890
_symmetry_space_group_name_H-M "C M C M"
_symmetry_group_IT_number 63
_symmetry_cell_setting 'orthorhombic'
loop_
_space_group_symop_operation_xyz
x,y,z
-x,-y,1/2+z
x,-y,-z
-x,y,1/2-z
-x,-y,-z
x,y,1/2-z
-x,y,z
x,-y,1/2+z
1/2+x,1/2+y,z
1/2-x,1/2-y,1/2+z
1/2+x,1/2-y,-z
1/2-x,1/2+y,1/2-z
1/2-x,1/2-y,-z
1/2+x,1/2+y,1/2-z
1/2-x,1/2+y,z
1/2+x,1/2-y,1/2+z
loop_
_atom_site_type_symbol
_atom_site_label
_atom_site_fract_x
_atom_site_fract_y
_atom_site_fract_z
Si Si1 0.336889 0.919909 0.056373
Si Si2 0.406873 0.972485 0.820661
Si Si3 0.844187 0.057825 0.579322
Si Si4 0.090976 0.170767 0.460896
Si Si5 0.588334 0.709436 0.678131
O O1 0.243457 0.931310 0.053560
O O2 0.361492 0.789167 0.044065
O O3 0.365938 0.952777 0.125745
O O4 0.372276 0.000000 0.000000
O O5 0.381002 0.011442 0.750000
O O6 0.500000 0.986019 0.826944
O O7 0.381452 0.839963 0.831751
O O8 0.902558 0.122386 0.531214
O O9 0.851961 0.120900 0.645551
O O10 0.870032 0.923574 0.586084
O O11 0.000000 0.191789 0.443235
O O12 0.588888 0.675159 0.750000
O O13 0.500000 0.696045 0.650944
#
# Coordination Sequence:
#
# PCOD8261091 Si02
#       5
#    16  16  16  16  16
#     4  12  24  37  61  90 122 154 201 250 299 355
#     4   9  20  39  61  86 119 157 196 243 299 357
#     4  11  22  37  59  82 122 156 190 245 307 350
#     4  11  23  39  59  86 117 158 198 238 295 357
#     4   9  18  35  61  86 110 151 204 245 287 357
#
# _framework density 19.133461
#
# number of rings (size 3 to 8) (size 9 to 14) (size 15 to 20)
#    0.000    1.600    2.000    6.000    2.800    4.000 
#    0.000    1.000    0.000    3.600    0.000    0.000 
#    0.000    0.000    0.000    0.000    0.000    0.000 
#
# Total GULP energy -495969.753883 kJ/mol
# GULP energy per Si atom -12399.243847 kJ/mol
# Density = 1.908991 g / cm^3
# Si number density = 19.133461 Si / 1000 Ang^3
#
#
#
# Elastic Constant Matrix: (Units=GPa)
#
#
# Indices 1 2 3 4 5 6 
#
# 1 73.0519 32.8088 12.7653 0.0000 0.0000 0.0000
# 2 32.8088 129.3918 47.3547 0.0000 0.0000 0.0000
# 3 12.7653 47.3547 89.1627 0.0000 0.0000 0.0000
# 4 0.0000 0.0000 0.0000 29.3810 0.0000 0.0000
# 5 0.0000 0.0000 0.0000 0.0000 18.4527 0.0000
# 6 0.0000 0.0000 0.0000 0.0000 0.0000 -14.5718
#
#
#
# Elastic Compliance Matrix: (Units=1/GPa)
#
#
# Indices 1 2 3 4 5 6 
#
# 1 0.015450 -0.003858 -0.000163 0.000000 0.000000 0.000000
# 2 -0.003858 0.010556 -0.005054 0.000000 0.000000 0.000000
# 3 -0.000163 -0.005054 0.013923 0.000000 0.000000 0.000000
# 4 0.000000 0.000000 0.000000 0.034036 0.000000 0.000000
# 5 0.000000 0.000000 0.000000 0.000000 0.054193 0.000000
# 6 0.000000 0.000000 0.000000 0.000000 0.000000 -0.068626
#
#
# Mechanical properties :
#
#
# Convention : Reuss Voigt Hill
#
# Bulk Modulus (GPa) = 45.91517 53.05156 49.48337
# Shear Modulus (GPa) = 58.86347 19.89755 39.38051
#
# Velocity S-wave (km/s) = 5.55261 3.22830 4.54166
# Velocity P-wave (km/s) = 8.07205 6.45625 7.30894
#
# Compressibility (1/GPa) = 0.02177929
#
# Stress axis : x y z
#
# Youngs Moduli (GPa) = 64.72490 94.72915 71.82298
#
# Poissons Ratio (x) = 0.36545 0.01171
# Poissons Ratio (y) = 0.24970 0.36301
# Poissons Ratio (z) = 0.01055 0.47878
#
# Static dielectric constant tensor:
#      x y z
#    x 3.390510 0.000000 0.000000 
#    y 0.000000 3.569870 0.000000 
#    z 0.000000 0.000000 3.529360 
# 
# 
# High freq. dielectric constant tensor:
#      x y z
#    x 1.739020 0.000000 0.000000 
#    y 0.000000 1.745820 0.000000 
#    z 0.000000 0.000000 1.740840 
# 
# From -- ./inp_files/62571.got.cif
#   From: 2010.03.12/outbox.cif.g09.slc.cpg/sg63_32_cif.got.tgz:62571.got - 2010.04.10 19:34:48.
