data_PCOD8261083
_publ_section_title
;
Structure prediction by ZEFSAII (Michael W. Deem and Ramdas Pophale) SiO2 
 PCOD8261083
Probable space group: C M C M
;
_chemical_formula_sum "Si O2"
_cell_formula_units_Z 96
_cell_length_a 20.103353
_cell_length_b 27.517302
_cell_length_c 8.733799
_cell_angle_alpha 90.000000
_cell_angle_beta 90.000000
_cell_angle_gamma 90.000000
_cell_volume 4831.450581
_symmetry_space_group_name_H-M "C M C M"
_symmetry_group_IT_number 63
_symmetry_cell_setting 'orthorhombic'
loop_
_space_group_symop_operation_xyz
x,y,z
-x,-y,1/2+z
x,-y,-z
-x,y,1/2-z
-x,-y,-z
x,y,1/2-z
-x,y,z
x,-y,1/2+z
1/2+x,1/2+y,z
1/2-x,1/2-y,1/2+z
1/2+x,1/2-y,-z
1/2-x,1/2+y,1/2-z
1/2-x,1/2-y,-z
1/2+x,1/2+y,1/2-z
1/2-x,1/2+y,z
1/2+x,1/2-y,1/2+z
loop_
_atom_site_type_symbol
_atom_site_label
_atom_site_fract_x
_atom_site_fract_y
_atom_site_fract_z
Si Si1 0.076689 0.236896 0.928501
Si Si2 0.817134 0.051892 0.932797
Si Si3 0.300451 0.890749 0.930698
Si Si4 0.302260 0.212976 0.930178
Si Si5 0.426034 0.050424 0.070645
Si Si6 0.073313 0.872551 0.068355
O O1 0.093542 0.243099 0.750000
O O2 0.092024 0.182001 0.984380
O O3 0.000000 0.250365 0.960373
O O4 0.122687 0.273418 0.023315
O O5 0.813595 0.049977 0.750000
O O6 0.872857 0.089548 0.993793
O O7 0.746930 0.067835 0.001461
O O8 0.837211 0.000000 0.000000
O O9 0.289659 0.886311 0.750000
O O10 0.375727 0.906365 0.973058
O O11 0.283854 0.840092 0.009588
O O12 0.294300 0.213261 0.750000
O O13 0.250000 0.250000 0.000000
O O14 0.426834 0.042282 0.250000
O O15 0.500000 0.064196 0.010050
O O16 0.400897 0.000000 0.000000
O O17 0.071138 0.873168 0.250000
O O18 0.000000 0.886516 0.004571
#
# Coordination Sequence:
#
# PCOD8261083 Si02
#       6
#    16  16  16  16  16  16
#     4   9  18  36  62  88 115 150 192 238 289 342
#     4  11  22  36  56  82 114 150 189 234 283 337
#     4  11  23  39  59  83 112 146 188 237 289 344
#     4  12  25  40  59  84 116 152 193 240 291 347
#     4   9  19  36  58  83 111 145 184 226 274 329
#     4   8  16  33  57  82 108 143 186 229 275 328
#
# _framework density 19.869810000000001
#
# number of rings (size 3 to 8) (size 9 to 14) (size 15 to 20)
#    0.000    2.000    0.000    5.000    0.000    5.333 
#    0.000    2.500    0.000    3.500    0.000    0.000 
#    0.000    0.000    0.000    0.000    0.000    0.000 
#
# Total GULP energy -595287.111162 kJ/mol
# GULP energy per Si atom -12401.814816 kJ/mol
# Density = 1.982459 g / cm^3
# Si number density = 19.869810 Si / 1000 Ang^3
#
#
#
# Elastic Constant Matrix: (Units=GPa)
#
#
# Indices 1 2 3 4 5 6 
#
# 1 81.1959 21.2923 29.7761 0.0000 0.0000 0.0000
# 2 21.2923 73.0803 24.9121 0.0000 0.0000 0.0000
# 3 29.7761 24.9121 80.4962 0.0000 0.0000 0.0000
# 4 0.0000 0.0000 0.0000 35.0111 0.0000 0.0000
# 5 0.0000 0.0000 0.0000 0.0000 24.9329 0.0000
# 6 0.0000 0.0000 0.0000 0.0000 0.0000 20.3848
#
#
#
# Elastic Compliance Matrix: (Units=1/GPa)
#
#
# Indices 1 2 3 4 5 6 
#
# 1 0.014717 -0.002719 -0.004602 0.000000 0.000000 0.000000
# 2 -0.002719 0.015800 -0.003884 0.000000 0.000000 0.000000
# 3 -0.004602 -0.003884 0.015327 0.000000 0.000000 0.000000
# 4 0.000000 0.000000 0.000000 0.028562 0.000000 0.000000
# 5 0.000000 0.000000 0.000000 0.000000 0.040108 0.000000
# 6 0.000000 0.000000 0.000000 0.000000 0.000000 0.049056
#
#
# Mechanical properties :
#
#
# Convention : Reuss Voigt Hill
#
# Bulk Modulus (GPa) = 42.67424 42.97038 42.82231
# Shear Modulus (GPa) = 25.80093 26.65189 26.22641
#
# Velocity S-wave (km/s) = 3.60738 3.66639 3.63700
# Velocity P-wave (km/s) = 6.23494 6.29254 6.26381
#
# Compressibility (1/GPa) = 0.02343334
#
# Stress axis : x y z
#
# Youngs Moduli (GPa) = 67.95029 63.29220 65.24255
#
# Poissons Ratio (x) = 0.17208 0.30027
# Poissons Ratio (y) = 0.18475 0.25340
# Poissons Ratio (z) = 0.31273 0.24583
#
# Static dielectric constant tensor:
#      x y z
#    x 4.010490 0.000000 0.000000 
#    y 0.000000 3.719270 0.000000 
#    z 0.000000 0.000000 3.434470 
# 
# 
# High freq. dielectric constant tensor:
#      x y z
#    x 1.789390 0.000000 0.000000 
#    y 0.000000 1.776260 0.000000 
#    z 0.000000 0.000000 1.758810 
# 
# From -- ./inp_files/8616.got.cif
#   From: 2010.03.12/outbox.cif.g09.slc.cpg/sg63_5_cif.got.tgz:8616.got - 2010.04.10 19:34:48.
