data_PCOD8261490
_publ_section_title
;
Structure prediction by ZEFSAII (Michael W. Deem and Ramdas Pophale) SiO2 
 PCOD8261490
Probable space group: C M C A
;
_chemical_formula_sum "Si O2"
_cell_formula_units_Z 88
_cell_length_a 13.376222
_cell_length_b 17.948530
_cell_length_c 22.577106
_cell_angle_alpha 90.000000
_cell_angle_beta 90.000000
_cell_angle_gamma 90.000000
_cell_volume 5420.391122
_symmetry_space_group_name_H-M "C M C A"
_symmetry_group_IT_number 64
_symmetry_cell_setting 'orthorhombic'
loop_
_space_group_symop_operation_xyz
x,y,z
-x,1/2-y,1/2+z
x,-y,-z
-x,1/2+y,1/2-z
-x,-y,-z
x,1/2+y,1/2-z
-x,y,z
x,1/2-y,1/2+z
1/2+x,1/2+y,z
1/2-x,-y,1/2+z
1/2+x,1/2-y,-z
1/2-x,y,1/2-z
1/2-x,1/2-y,-z
1/2+x,y,1/2-z
1/2-x,1/2+y,z
1/2+x,-y,1/2+z
loop_
_atom_site_type_symbol
_atom_site_label
_atom_site_fract_x
_atom_site_fract_y
_atom_site_fract_z
Si Si1 0.618229 0.496575 0.065840
Si Si2 0.750000 0.967246 0.750000
Si Si3 0.281346 0.767104 0.184231
Si Si4 0.112908 0.863018 0.146451
Si Si5 0.118658 0.381513 0.658830
Si Si6 0.111306 0.087322 0.719205
O O1 0.500000 0.491057 0.062461
O O2 0.656109 0.422441 0.099287
O O3 0.648082 0.571602 0.100689
O O4 0.665390 0.500000 0.000000
O O5 0.829036 0.916852 0.784258
O O6 0.814134 0.019126 0.704555
O O7 0.250000 0.741066 0.250000
O O8 0.182583 0.789598 0.146766
O O9 0.339535 0.701845 0.150181
O O10 0.353909 0.838203 0.186545
O O11 0.115579 0.902589 0.210109
O O12 0.000000 0.837598 0.131030
O O13 0.000000 0.380283 0.670122
O O14 0.000000 0.067795 0.697620
#
# Coordination Sequence:
#
# PCOD8261490 Si02
#       6
#    16   8  16  16  16  16
#     4   9  17  31  51  71  93 126 165 204 242 277
#     4  12  18  30  46  68  96 128 158 194 238 290
#     4  10  18  31  44  68 100 130 156 191 239 296
#     4   9  16  29  48  67  92 126 162 196 231 280
#     4  11  21  32  46  71 102 126 158 205 243 282
#     4  10  17  28  45  65  92 128 157 186 233 286
#
# _framework density 16.234991000000001
#
# number of rings (size 3 to 8) (size 9 to 14) (size 15 to 20)
#    0.000    2.000    5.455    1.091    0.000    0.727 
#    0.000    0.909    0.000    0.000    0.000    0.000 
#    0.000   26.909    0.000    0.000    0.000    0.000 
#
# Total GULP energy -545443.436377 kJ/mol
# GULP energy per Si atom -12396.441736 kJ/mol
# Density = 1.619804 g / cm^3
# Si number density = 16.234991 Si / 1000 Ang^3
#
#
#
# Elastic Constant Matrix: (Units=GPa)
#
#
# Indices 1 2 3 4 5 6 
#
# 1 105.4791 56.4532 25.9391 0.0000 0.0000 0.0000
# 2 56.4532 116.5013 46.5983 0.0000 0.0000 0.0000
# 3 25.9391 46.5983 71.5552 0.0000 0.0000 0.0000
# 4 0.0000 0.0000 0.0000 14.8075 0.0000 0.0000
# 5 0.0000 0.0000 0.0000 0.0000 10.8999 0.0000
# 6 0.0000 0.0000 0.0000 0.0000 0.0000 29.1405
#
#
#
# Elastic Compliance Matrix: (Units=1/GPa)
#
#
# Indices 1 2 3 4 5 6 
#
# 1 0.012835 -0.005894 -0.000815 0.000000 0.000000 0.000000
# 2 -0.005894 0.014313 -0.007185 0.000000 0.000000 0.000000
# 3 -0.000815 -0.007185 0.018949 0.000000 0.000000 0.000000
# 4 0.000000 0.000000 0.000000 0.067533 0.000000 0.000000
# 5 0.000000 0.000000 0.000000 0.000000 0.091744 0.000000
# 6 0.000000 0.000000 0.000000 0.000000 0.000000 0.034317
#
#
# Mechanical properties :
#
#
# Convention : Reuss Voigt Hill
#
# Bulk Modulus (GPa) = 54.60976 61.27967 57.94472
# Shear Modulus (GPa) = 18.27606 21.93923 20.10765
#
# Velocity S-wave (km/s) = 3.35882 3.68007 3.52310
# Velocity P-wave (km/s) = 6.98228 7.47560 7.23315
#
# Compressibility (1/GPa) = 0.01831175
#
# Stress axis : x y z
#
# Youngs Moduli (GPa) = 77.91028 69.86544 52.77236
#
# Poissons Ratio (x) = 0.41177 0.04299
# Poissons Ratio (y) = 0.45918 0.37915
# Poissons Ratio (z) = 0.06347 0.50195
#
# Static dielectric constant tensor:
#      x y z
#    x 3.273890 0.000000 0.000000 
#    y 0.000000 3.097590 0.000000 
#    z 0.000000 0.000000 2.928020 
# 
# 
# High freq. dielectric constant tensor:
#      x y z
#    x 1.625340 0.000000 0.000000 
#    y 0.000000 1.625700 0.000000 
#    z 0.000000 0.000000 1.575440 
# 
# From -- ./inp_files/39416.got.cif
#   From: 2010.03.12/outbox.cif.g09.slc.cpg/sg64_20_cif.got.tgz:39416.got - 2010.04.10 20:19:32.
