data_PCOD8261440
_publ_section_title
;
Structure prediction by ZEFSAII (Michael W. Deem and Ramdas Pophale) SiO2 
 PCOD8261440
Probable space group: C M C A
;
_chemical_formula_sum "Si O2"
_cell_formula_units_Z 96
_cell_length_a 18.700425
_cell_length_b 16.312396
_cell_length_c 18.758985
_cell_angle_alpha 90.000000
_cell_angle_beta 90.000000
_cell_angle_gamma 90.000000
_cell_volume 5722.404700
_symmetry_space_group_name_H-M "C M C A"
_symmetry_group_IT_number 64
_symmetry_cell_setting 'orthorhombic'
loop_
_space_group_symop_operation_xyz
x,y,z
-x,1/2-y,1/2+z
x,-y,-z
-x,1/2+y,1/2-z
-x,-y,-z
x,1/2+y,1/2-z
-x,y,z
x,1/2-y,1/2+z
1/2+x,1/2+y,z
1/2-x,-y,1/2+z
1/2+x,1/2-y,-z
1/2-x,y,1/2-z
1/2-x,1/2-y,-z
1/2+x,y,1/2-z
1/2-x,1/2+y,z
1/2+x,-y,1/2+z
loop_
_atom_site_type_symbol
_atom_site_label
_atom_site_fract_x
_atom_site_fract_y
_atom_site_fract_z
Si Si1 0.673139 0.048535 0.217199
Si Si2 0.291944 0.012983 0.924937
Si Si3 0.175957 0.629753 0.424267
Si Si4 0.174016 0.864133 0.083786
Si Si5 0.221492 0.777269 0.676922
Si Si6 0.416164 0.990906 0.649790
O O1 0.750000 0.022907 0.250000
O O2 0.657592 0.001740 0.142826
O O3 0.673153 0.145459 0.201014
O O4 0.611471 0.018849 0.269488
O O5 0.228495 0.947195 0.927982
O O6 0.255262 0.101583 0.916092
O O7 0.334703 0.000000 0.000000
O O8 0.157199 0.664376 0.502637
O O9 0.211479 0.698013 0.373547
O O10 0.103073 0.593823 0.390604
O O11 0.170635 0.785402 0.135033
O O12 0.116741 0.929884 0.110965
O O13 0.250000 0.735585 0.750000
O O14 0.500000 0.003368 0.651059
#
# Coordination Sequence:
#
# PCOD8261440 Si02
#       6
#    16  16  16  16  16  16
#     4  10  16  33  51  69 103 136 175 211 250 304
#     4   8  15  27  48  74  99 126 166 218 256 288
#     4   9  17  33  48  75 106 133 168 208 258 313
#     4  10  19  28  51  79 103 131 168 215 259 300
#     4  10  18  30  52  76 102 132 169 216 259 297
#     4  11  21  34  53  78 106 139 172 211 261 314
#
# _framework density 16.776164000000001
#
# number of rings (size 3 to 8) (size 9 to 14) (size 15 to 20)
#    0.000    2.333    6.667    2.000    2.333    1.333 
#    0.000    0.833    0.000    0.500    0.000    0.000 
#    0.000    0.000    0.000    0.000    0.000    0.000 
#
# Total GULP energy -594850.871026 kJ/mol
# GULP energy per Si atom -12392.726480 kJ/mol
# Density = 1.673798 g / cm^3
# Si number density = 16.776164 Si / 1000 Ang^3
#
#
#
# Elastic Constant Matrix: (Units=GPa)
#
#
# Indices 1 2 3 4 5 6 
#
# 1 65.2527 28.0686 42.1990 0.0000 0.0000 0.0000
# 2 28.0686 40.7584 33.7690 0.0000 0.0000 0.0000
# 3 42.1990 33.7690 167.1889 0.0000 0.0000 0.0000
# 4 0.0000 0.0000 0.0000 31.0411 0.0000 0.0000
# 5 0.0000 0.0000 0.0000 0.0000 15.4829 0.0000
# 6 0.0000 0.0000 0.0000 0.0000 0.0000 11.6108
#
#
#
# Elastic Compliance Matrix: (Units=1/GPa)
#
#
# Indices 1 2 3 4 5 6 
#
# 1 0.023071 -0.013287 -0.003139 0.000000 0.000000 0.000000
# 2 -0.013287 0.037118 -0.004143 0.000000 0.000000 0.000000
# 3 -0.003139 -0.004143 0.007611 0.000000 0.000000 0.000000
# 4 0.000000 0.000000 0.000000 0.032215 0.000000 0.000000
# 5 0.000000 0.000000 0.000000 0.000000 0.064587 0.000000
# 6 0.000000 0.000000 0.000000 0.000000 0.000000 0.086127
#
#
# Mechanical properties :
#
#
# Convention : Reuss Voigt Hill
#
# Bulk Modulus (GPa) = 37.50979 53.47480 45.49229
# Shear Modulus (GPa) = 16.62485 22.90450 19.76468
#
# Velocity S-wave (km/s) = 3.15140 3.69901 3.43613
# Velocity P-wave (km/s) = 5.97070 7.08436 6.55124
#
# Compressibility (1/GPa) = 0.02665971
#
# Stress axis : x y z
#
# Youngs Moduli (GPa) = 43.34511 26.94127 131.39623
#
# Poissons Ratio (x) = 0.35796 0.41251
# Poissons Ratio (y) = 0.57591 0.54444
# Poissons Ratio (z) = 0.13608 0.11163
#
# Static dielectric constant tensor:
#      x y z
#    x 2.569060 0.000000 0.000000 
#    y 0.000000 3.037470 0.000000 
#    z 0.000000 0.000000 3.917670 
# 
# 
# High freq. dielectric constant tensor:
#      x y z
#    x 1.573530 0.000000 0.000000 
#    y 0.000000 1.630830 0.000000 
#    z 0.000000 0.000000 1.680500 
# 
# From -- ./inp_files/34421.got.cif
#   From: 2010.03.12/outbox.cif.g09.slc.cpg/sg64_18_cif.got.tgz:34421.got - 2010.04.10 20:19:32.
