data_PCOD8261115
_publ_section_title
;
Structure prediction by ZEFSAII (Michael W. Deem and Ramdas Pophale) SiO2 
 PCOD8261115
Probable space group: C M C M
;
_chemical_formula_sum "Si O2"
_cell_formula_units_Z 64
_cell_length_a 13.905227
_cell_length_b 30.443310
_cell_length_c 7.438097
_cell_angle_alpha 90.000000
_cell_angle_beta 90.000000
_cell_angle_gamma 90.000000
_cell_volume 3148.703673
_symmetry_space_group_name_H-M "C M C M"
_symmetry_group_IT_number 63
_symmetry_cell_setting 'orthorhombic'
loop_
_space_group_symop_operation_xyz
x,y,z
-x,-y,1/2+z
x,-y,-z
-x,y,1/2-z
-x,-y,-z
x,y,1/2-z
-x,y,z
x,-y,1/2+z
1/2+x,1/2+y,z
1/2-x,1/2-y,1/2+z
1/2+x,1/2-y,-z
1/2-x,1/2+y,1/2-z
1/2-x,1/2-y,-z
1/2+x,1/2+y,1/2-z
1/2-x,1/2+y,z
1/2+x,1/2-y,1/2+z
loop_
_atom_site_type_symbol
_atom_site_label
_atom_site_fract_x
_atom_site_fract_y
_atom_site_fract_z
Si Si1 0.736990 0.952909 0.960264
Si Si2 0.607078 0.872363 0.961742
Si Si3 0.392193 0.561636 0.750000
Si Si4 0.105322 0.164752 0.750000
Si Si5 0.742616 0.699103 0.042079
O O1 0.760649 0.946456 0.750000
O O2 0.667220 0.914306 0.033321
O O3 0.836478 0.953312 0.070642
O O4 0.686133 0.000000 0.000000
O O5 0.597808 0.876403 0.750000
O O6 0.500000 0.872051 0.047951
O O7 0.660592 0.827032 0.015981
O O8 0.500000 0.541186 0.750000
O O9 0.400030 0.613279 0.750000
O O10 0.154632 0.180386 0.568320
O O11 0.000000 0.186140 0.750000
O O12 0.720373 0.690667 0.250000
O O13 0.750000 0.750000 0.000000
#
# Coordination Sequence:
#
# PCOD8261115 Si02
#       5
#    16  16   8   8  16
#     4  11  22  40  64  90 127 163 202 257 314 372
#     4   9  20  39  63  91 123 162 207 254 309 369
#     4  11  24  42  64  89 120 164 216 258 309 368
#     4  11  24  42  64  91 126 164 212 264 311 368
#     4  11  22  40  66  91 129 167 206 259 314 371
#
# _framework density 20.325824000000001
#
# number of rings (size 3 to 8) (size 9 to 14) (size 15 to 20)
#    0.000    1.500    5.000    0.000    0.000    3.000 
#    0.000    5.000    0.000    0.000    0.000    0.000 
#    0.000    0.000    0.000    0.000    0.000    0.000 
#
# Total GULP energy -396742.972047 kJ/mol
# GULP energy per Si atom -12398.217876 kJ/mol
# Density = 2.027956 g / cm^3
# Si number density = 20.325824 Si / 1000 Ang^3
#
#
#
# Elastic Constant Matrix: (Units=GPa)
#
#
# Indices 1 2 3 4 5 6 
#
# 1 171.2522 68.7179 53.5941 0.0000 0.0000 0.0000
# 2 68.7179 151.6567 19.9746 0.0000 0.0000 0.0000
# 3 53.5941 19.9746 111.1297 0.0000 0.0000 0.0000
# 4 0.0000 0.0000 0.0000 23.7319 0.0000 0.0000
# 5 0.0000 0.0000 0.0000 0.0000 26.2406 0.0000
# 6 0.0000 0.0000 0.0000 0.0000 0.0000 15.3615
#
#
#
# Elastic Compliance Matrix: (Units=1/GPa)
#
#
# Indices 1 2 3 4 5 6 
#
# 1 0.008208 -0.003275 -0.003370 0.000000 0.000000 0.000000
# 2 -0.003275 0.008061 0.000131 0.000000 0.000000 0.000000
# 3 -0.003370 0.000131 0.010600 0.000000 0.000000 0.000000
# 4 0.000000 0.000000 0.000000 0.042137 0.000000 0.000000
# 5 0.000000 0.000000 0.000000 0.000000 0.038109 0.000000
# 6 0.000000 0.000000 0.000000 0.000000 0.000000 0.065098
#
#
# Mechanical properties :
#
#
# Convention : Reuss Voigt Hill
#
# Bulk Modulus (GPa) = 72.25341 79.84577 76.04959
# Shear Modulus (GPa) = 26.33582 32.51695 29.42638
#
# Velocity S-wave (km/s) = 3.60346 4.00407 3.80904
# Velocity P-wave (km/s) = 7.27585 7.79391 7.53933
#
# Compressibility (1/GPa) = 0.01384018
#
# Stress axis : x y z
#
# Youngs Moduli (GPa) = 121.82823 124.05764 94.33834
#
# Poissons Ratio (x) = 0.40635 0.31791
# Poissons Ratio (y) = 0.39904 -0.01234
# Poissons Ratio (z) = 0.41054 -0.01622
#
# Static dielectric constant tensor:
#      x y z
#    x 2.491260 0.000000 0.000000 
#    y 0.000000 0.039160 0.000000 
#    z 0.000000 0.000000 3.671580 
# 
# 
# High freq. dielectric constant tensor:
#      x y z
#    x 1.782890 0.000000 0.000000 
#    y 0.000000 1.808820 0.000000 
#    z 0.000000 0.000000 1.798220 
# 
# From -- ./inp_files/3129.got.cif
#   From: 2010.03.12/outbox.cif.g09.slc.cpg/sg63_2_cif.got.tgz:3129.got - 2010.04.10 19:34:48.
