data_PCOD8261826
_publ_section_title
;
Structure prediction by ZEFSAII (Michael W. Deem and Ramdas Pophale) SiO2 
 PCOD8261826
Probable space group: C M C A
;
_chemical_formula_sum "Si O2"
_cell_formula_units_Z 112
_cell_length_a 18.308866
_cell_length_b 24.124257
_cell_length_c 12.395645
_cell_angle_alpha 90.000000
_cell_angle_beta 90.000000
_cell_angle_gamma 90.000000
_cell_volume 5475.005030
_symmetry_space_group_name_H-M "C M C A"
_symmetry_group_IT_number 64
_symmetry_cell_setting 'orthorhombic'
loop_
_space_group_symop_operation_xyz
x,y,z
-x,1/2-y,1/2+z
x,-y,-z
-x,1/2+y,1/2-z
-x,-y,-z
x,1/2+y,1/2-z
-x,y,z
x,1/2-y,1/2+z
1/2+x,1/2+y,z
1/2-x,-y,1/2+z
1/2+x,1/2-y,-z
1/2-x,y,1/2-z
1/2-x,1/2-y,-z
1/2+x,y,1/2-z
1/2-x,1/2+y,z
1/2+x,-y,1/2+z
loop_
_atom_site_type_symbol
_atom_site_label
_atom_site_fract_x
_atom_site_fract_y
_atom_site_fract_z
Si Si1 0.335802 0.768059 0.753864
Si Si2 0.319405 0.844427 0.177740
Si Si3 0.679107 0.651801 0.435167
Si Si4 0.416469 0.941206 0.460743
Si Si5 0.661025 0.628288 0.126288
Si Si6 0.417987 0.555874 0.706821
Si Si7 0.413614 0.069233 0.177500
O O1 0.250000 0.756498 0.750000
O O2 0.367039 0.705868 0.732341
O O3 0.353617 0.794752 0.870359
O O4 0.363502 0.809276 0.659070
O O5 0.250000 0.860642 0.250000
O O6 0.366352 0.898703 0.155437
O O7 0.299144 0.827880 0.054585
O O8 0.750915 0.627848 0.375021
O O9 0.617819 0.603311 0.425213
O O10 0.500000 0.935181 0.499575
O O11 0.370555 0.890088 0.510477
O O12 0.408263 0.939690 0.334119
O O13 0.384298 0.000000 0.500000
O O14 0.629184 0.586330 0.214530
O O15 0.500000 0.570232 0.672616
O O16 0.397377 0.495655 0.660579
O O17 0.500000 0.080132 0.191425
#
# Coordination Sequence:
#
# PCOD8261826 Si02
#       7
#    16  16  16  16  16  16  16
#     4   8  19  37  59  82 114 150 191 238 287 351
#     4  11  23  39  59  86 116 152 192 242 299 347
#     4  10  22  38  59  89 116 147 196 243 289 351
#     4  10  18  32  56  86 116 153 195 235 291 348
#     4  10  18  35  59  88 117 150 192 244 289 335
#     4  10  22  38  55  81 119 156 195 241 288 348
#     4  10  20  38  60  82 116 161 198 233 287 356
#
# _framework density 20.456602
#
# number of rings (size 3 to 8) (size 9 to 14) (size 15 to 20)
#    0.000    2.143    1.429    2.571    0.000    8.571 
#    2.571    5.000    0.000    0.000    0.000    0.000 
#    0.000    0.000    0.000    0.000    0.000    0.000 
#
# Total GULP energy -694043.343269 kJ/mol
# GULP energy per Si atom -12393.631130 kJ/mol
# Density = 2.041004 g / cm^3
# Si number density = 20.456602 Si / 1000 Ang^3
#
#
#
# Elastic Constant Matrix: (Units=GPa)
#
#
# Indices 1 2 3 4 5 6 
#
# 1 60.9334 45.4531 25.2188 0.0000 0.0000 0.0000
# 2 45.4531 121.6309 36.8186 0.0000 0.0000 0.0000
# 3 25.2188 36.8186 88.4351 0.0000 0.0000 0.0000
# 4 0.0000 0.0000 0.0000 22.2053 0.0000 0.0000
# 5 0.0000 0.0000 0.0000 0.0000 23.5308 0.0000
# 6 0.0000 0.0000 0.0000 0.0000 0.0000 13.4403
#
#
#
# Elastic Compliance Matrix: (Units=1/GPa)
#
#
# Indices 1 2 3 4 5 6 
#
# 1 0.023669 -0.007783 -0.003509 0.000000 0.000000 0.000000
# 2 -0.007783 0.011966 -0.002763 0.000000 0.000000 0.000000
# 3 -0.003509 -0.002763 0.013459 0.000000 0.000000 0.000000
# 4 0.000000 0.000000 0.000000 0.045034 0.000000 0.000000
# 5 0.000000 0.000000 0.000000 0.000000 0.042498 0.000000
# 6 0.000000 0.000000 0.000000 0.000000 0.000000 0.074403
#
#
# Mechanical properties :
#
#
# Convention : Reuss Voigt Hill
#
# Bulk Modulus (GPa) = 47.65401 53.99783 50.82592
# Shear Modulus (GPa) = 20.31415 22.73587 21.52501
#
# Velocity S-wave (km/s) = 3.15467 3.33741 3.24733
# Velocity P-wave (km/s) = 6.05103 6.42687 6.24178
#
# Compressibility (1/GPa) = 0.02098459
#
# Stress axis : x y z
#
# Youngs Moduli (GPa) = 42.24858 83.56820 74.30161
#
# Poissons Ratio (x) = 0.65040 0.26076
# Poissons Ratio (y) = 0.32881 0.20526
# Poissons Ratio (z) = 0.14827 0.23086
#
# Static dielectric constant tensor:
#      x y z
#    x 3.584450 0.000000 0.000000 
#    y 0.000000 3.974560 0.000000 
#    z 0.000000 0.000000 3.689120 
# 
# 
# High freq. dielectric constant tensor:
#      x y z
#    x 1.769780 0.000000 0.000000 
#    y 0.000000 1.804250 0.000000 
#    z 0.000000 0.000000 1.802260 
# 
# From -- ./inp_files/17580.got.cif
#   From: 2010.03.12/outbox.cif.g09.slc.cpg/sg64_9_cif.got.tgz:17580.got - 2010.04.10 20:19:32.
