data_PCOD8261308
_publ_section_title
;
Structure prediction by ZEFSAII (Michael W. Deem and Ramdas Pophale) SiO2 
 PCOD8261308
Probable space group: C M C M
;
_chemical_formula_sum "Si O2"
_cell_formula_units_Z 112
_cell_length_a 9.906255
_cell_length_b 34.808577
_cell_length_c 21.780298
_cell_angle_alpha 90.000000
_cell_angle_beta 90.000000
_cell_angle_gamma 90.000000
_cell_volume 7510.339855
_symmetry_space_group_name_H-M "C M C M"
_symmetry_group_IT_number 63
_symmetry_cell_setting 'orthorhombic'
loop_
_space_group_symop_operation_xyz
x,y,z
-x,-y,1/2+z
x,-y,-z
-x,y,1/2-z
-x,-y,-z
x,y,1/2-z
-x,y,z
x,-y,1/2+z
1/2+x,1/2+y,z
1/2-x,1/2-y,1/2+z
1/2+x,1/2-y,-z
1/2-x,1/2+y,1/2-z
1/2-x,1/2-y,-z
1/2+x,1/2+y,1/2-z
1/2-x,1/2+y,z
1/2+x,1/2-y,1/2+z
loop_
_atom_site_type_symbol
_atom_site_label
_atom_site_fract_x
_atom_site_fract_y
_atom_site_fract_z
Si Si1 0.848249 0.032666 0.414906
Si Si2 0.839566 0.329246 0.818975
Si Si3 0.843663 0.597993 0.105804
Si Si4 0.846276 0.385114 0.464329
Si Si5 0.348823 0.449166 0.057896
Si Si6 0.653982 0.797859 0.046187
Si Si7 0.155970 0.734505 0.087662
O O1 0.742683 0.059766 0.379273
O O2 0.840993 0.041749 0.486420
O O3 0.000000 0.040354 0.390471
O O4 0.809032 0.987852 0.404767
O O5 0.782161 0.326225 0.750000
O O6 0.788330 0.368696 0.849548
O O7 0.790079 0.292340 0.857305
O O8 0.000000 0.329795 0.820153
O O9 0.000000 0.588241 0.118060
O O10 0.820232 0.612518 0.036859
O O11 0.753190 0.414649 0.426210
O O12 0.811766 0.342301 0.441941
O O13 0.000000 0.395896 0.449226
O O14 0.500000 0.436240 0.075900
O O15 0.500000 0.788455 0.064739
O O16 0.753998 0.772867 0.088102
O O17 0.676911 0.789111 0.974697
O O18 0.000000 0.746356 0.096609
#
# Coordination Sequence:
#
# PCOD8261308 Si02
#       7
#    16  16  16  16  16  16  16
#     4   8  14  24  35  49  73 103 129 155 186 221
#     4   9  16  27  43  60  79 104 135 171 205 233
#     4   9  15  24  38  55  74  99 133 165 191 226
#     4   9  15  23  36  54  78 103 128 160 194 230
#     4   8  14  23  34  50  74 102 130 155 182 221
#     4   9  16  26  39  56  80 105 129 163 202 240
#     4   9  16  27  41  57  76 101 135 167 197 238
#
# _framework density 14.912773
#
# number of rings (size 3 to 8) (size 9 to 14) (size 15 to 20)
#    0.000    3.286    1.429    0.857    0.000    1.143 
#    0.000    3.571    0.000    1.714    0.000    0.000 
#    0.000    1.143    0.000    2.571    0.000    4.000 
#
# Total GULP energy -694114.496552 kJ/mol
# GULP energy per Si atom -12394.901724 kJ/mol
# Density = 1.487883 g / cm^3
# Si number density = 14.912773 Si / 1000 Ang^3
#
#
#
# Elastic Constant Matrix: (Units=GPa)
#
#
# Indices 1 2 3 4 5 6 
#
# 1 80.0201 79.7491 27.1270 0.0000 0.0000 0.0000
# 2 79.7491 141.0109 41.0872 0.0000 0.0000 0.0000
# 3 27.1270 41.0872 42.7604 0.0000 0.0000 0.0000
# 4 0.0000 0.0000 0.0000 12.8618 0.0000 0.0000
# 5 0.0000 0.0000 0.0000 0.0000 8.0996 0.0000
# 6 0.0000 0.0000 0.0000 0.0000 0.0000 32.8235
#
#
#
# Elastic Compliance Matrix: (Units=1/GPa)
#
#
# Indices 1 2 3 4 5 6 
#
# 1 0.029048 -0.015359 -0.003670 0.000000 0.000000 0.000000
# 2 -0.015359 0.017970 -0.007523 0.000000 0.000000 0.000000
# 3 -0.003670 -0.007523 0.032943 0.000000 0.000000 0.000000
# 4 0.000000 0.000000 0.000000 0.077749 0.000000 0.000000
# 5 0.000000 0.000000 0.000000 0.000000 0.123462 0.000000
# 6 0.000000 0.000000 0.000000 0.000000 0.000000 0.030466
#
#
# Mechanical properties :
#
#
# Convention : Reuss Voigt Hill
#
# Bulk Modulus (GPa) = 37.23437 62.19090 49.71263
# Shear Modulus (GPa) = 13.37990 18.47885 15.92938
#
# Velocity S-wave (km/s) = 2.99860 3.52395 3.27183
# Velocity P-wave (km/s) = 6.08367 7.63880 6.90515
#
# Compressibility (1/GPa) = 0.02685691
#
# Stress axis : x y z
#
# Youngs Moduli (GPa) = 34.42623 55.64874 30.35515
#
# Poissons Ratio (x) = 0.85469 0.11141
# Poissons Ratio (y) = 0.52874 0.22837
# Poissons Ratio (z) = 0.12635 0.41866
#
# Static dielectric constant tensor:
#      x y z
#    x 2.899900 0.000000 0.000000 
#    y 0.000000 3.111760 0.000000 
#    z 0.000000 0.000000 2.491950 
# 
# 
# High freq. dielectric constant tensor:
#      x y z
#    x 1.562350 0.000000 0.000000 
#    y 0.000000 1.579340 0.000000 
#    z 0.000000 0.000000 1.507550 
# 
# From -- ./inp_files/62090.got.cif
#   From: 2010.03.12/outbox.cif.g09.slc.cpg/sg63_32_cif.got.tgz:62090.got - 2010.04.10 19:34:48.
