data_PCOD8261228
_publ_section_title
;
Structure prediction by ZEFSAII (Michael W. Deem and Ramdas Pophale) SiO2 
 PCOD8261228
Probable space group: C M C M
;
_chemical_formula_sum "Si O2"
_cell_formula_units_Z 64
_cell_length_a 7.735288
_cell_length_b 28.091713
_cell_length_c 13.726284
_cell_angle_alpha 90.000000
_cell_angle_beta 90.000000
_cell_angle_gamma 90.000000
_cell_volume 2982.687067
_symmetry_space_group_name_H-M "C M C M"
_symmetry_group_IT_number 63
_symmetry_cell_setting 'orthorhombic'
loop_
_space_group_symop_operation_xyz
x,y,z
-x,-y,1/2+z
x,-y,-z
-x,y,1/2-z
-x,-y,-z
x,y,1/2-z
-x,y,z
x,-y,1/2+z
1/2+x,1/2+y,z
1/2-x,1/2-y,1/2+z
1/2+x,1/2-y,-z
1/2-x,1/2+y,1/2-z
1/2-x,1/2-y,-z
1/2+x,1/2+y,1/2-z
1/2-x,1/2+y,z
1/2+x,1/2-y,1/2+z
loop_
_atom_site_type_symbol
_atom_site_label
_atom_site_fract_x
_atom_site_fract_y
_atom_site_fract_z
Si Si1 0.808578 0.728313 0.134140
Si Si2 0.500000 0.899948 0.364532
Si Si3 0.193845 0.946674 0.024184
Si Si4 0.000000 0.707578 0.866860
Si Si5 0.797583 0.621133 0.361295
O O1 0.817738 0.732887 0.250000
O O2 0.671269 0.766170 0.091089
O O3 0.749211 0.674888 0.107650
O O4 0.000000 0.738793 0.090535
O O5 0.500000 0.898862 0.250000
O O6 0.673435 0.925961 0.397715
O O7 0.500000 0.846166 0.406635
O O8 0.000000 0.946078 0.068572
O O9 0.191887 0.915729 0.926047
O O10 0.252732 0.000000 0.000000
O O11 0.000000 0.709828 0.750000
O O12 0.744608 0.611824 0.250000
O O13 0.000000 0.611944 0.377636
#
# Coordination Sequence:
#
# PCOD8261228 Si02
#       5
#    16   8  16   8  16
#     4   8  15  29  52  85 121 154 192 244 302 361
#     4  11  25  45  66  88 123 172 218 256 298 362
#     4  11  25  44  65  91 126 162 205 263 318 371
#     4   9  18  33  57  86 117 162 208 242 296 364
#     4   9  18  35  64  96 125 158 198 252 320 381
#
# _framework density 21.457160999999999
#
# number of rings (size 3 to 8) (size 9 to 14) (size 15 to 20)
#    0.000    2.500    1.250    1.875    1.750    3.000 
#    0.000    6.250    0.000    0.000    0.000    0.000 
#    0.000    0.000    0.000    0.000    0.000    0.000 
#
# Total GULP energy -396857.629484 kJ/mol
# GULP energy per Si atom -12401.800921 kJ/mol
# Density = 2.140832 g / cm^3
# Si number density = 21.457161 Si / 1000 Ang^3
#
#
#
# Elastic Constant Matrix: (Units=GPa)
#
#
# Indices 1 2 3 4 5 6 
#
# 1 127.3727 86.4703 31.3298 0.0000 0.0000 0.0000
# 2 86.4703 176.2460 37.3797 0.0000 0.0000 0.0000
# 3 31.3298 37.3797 42.5553 0.0000 0.0000 0.0000
# 4 0.0000 0.0000 0.0000 31.3346 0.0000 0.0000
# 5 0.0000 0.0000 0.0000 0.0000 14.7031 0.0000
# 6 0.0000 0.0000 0.0000 0.0000 0.0000 36.7690
#
#
#
# Elastic Compliance Matrix: (Units=1/GPa)
#
#
# Indices 1 2 3 4 5 6 
#
# 1 0.012488 -0.005133 -0.004685 0.000000 0.000000 0.000000
# 2 -0.005133 0.009083 -0.004199 0.000000 0.000000 0.000000
# 3 -0.004685 -0.004199 0.030636 0.000000 0.000000 0.000000
# 4 0.000000 0.000000 0.000000 0.031914 0.000000 0.000000
# 5 0.000000 0.000000 0.000000 0.000000 0.068013 0.000000
# 6 0.000000 0.000000 0.000000 0.000000 0.000000 0.027197
#
#
# Mechanical properties :
#
#
# Convention : Reuss Voigt Hill
#
# Bulk Modulus (GPa) = 41.36886 72.94819 57.15853
# Shear Modulus (GPa) = 23.21011 29.29428 26.25220
#
# Velocity S-wave (km/s) = 3.29248 3.69893 3.50161
# Velocity P-wave (km/s) = 5.81167 7.23282 6.56084
#
# Compressibility (1/GPa) = 0.02417277
#
# Stress axis : x y z
#
# Youngs Moduli (GPa) = 80.07500 110.09544 32.64099
#
# Poissons Ratio (x) = 0.56517 0.15292
# Poissons Ratio (y) = 0.41106 0.13706
# Poissons Ratio (z) = 0.37515 0.46230
#
# Static dielectric constant tensor:
#      x y z
#    x 4.043860 0.000000 0.000000 
#    y 0.000000 3.962610 0.000000 
#    z 0.000000 0.000000 3.647000 
# 
# 
# High freq. dielectric constant tensor:
#      x y z
#    x 1.846500 0.000000 0.000000 
#    y 0.000000 1.842100 0.000000 
#    z 0.000000 0.000000 1.837710 
# 
# From -- ./inp_files/27559.got.cif
#   From: 2010.03.12/outbox.cif.g09.slc.cpg/sg63_14_cif.got.tgz:27559.got - 2010.04.10 19:34:48.
