data_PCOD8261636
_publ_section_title
;
Structure prediction by ZEFSAII (Michael W. Deem and Ramdas Pophale) SiO2 
 PCOD8261636
Probable space group: C M C A
;
_chemical_formula_sum "Si O2"
_cell_formula_units_Z 96
_cell_length_a 8.979440
_cell_length_b 20.618516
_cell_length_c 29.835942
_cell_angle_alpha 90.000000
_cell_angle_beta 90.000000
_cell_angle_gamma 90.000000
_cell_volume 5523.907674
_symmetry_space_group_name_H-M "C M C A"
_symmetry_group_IT_number 64
_symmetry_cell_setting 'orthorhombic'
loop_
_space_group_symop_operation_xyz
x,y,z
-x,1/2-y,1/2+z
x,-y,-z
-x,1/2+y,1/2-z
-x,-y,-z
x,1/2+y,1/2-z
-x,y,z
x,1/2-y,1/2+z
1/2+x,1/2+y,z
1/2-x,-y,1/2+z
1/2+x,1/2-y,-z
1/2-x,y,1/2-z
1/2-x,1/2-y,-z
1/2+x,y,1/2-z
1/2-x,1/2+y,z
1/2+x,-y,1/2+z
loop_
_atom_site_type_symbol
_atom_site_label
_atom_site_fract_x
_atom_site_fract_y
_atom_site_fract_z
Si Si1 0.833079 0.107691 0.793825
Si Si2 0.176852 0.434491 0.021582
Si Si3 0.168736 0.237851 0.293909
Si Si4 0.825762 0.263066 0.616204
Si Si5 0.173395 0.111438 0.616740
Si Si6 0.677061 0.693935 0.471142
O O1 0.750000 0.079605 0.750000
O O2 0.830613 0.184893 0.792394
O O3 0.756238 0.083534 0.839602
O O4 0.000000 0.080499 0.793066
O O5 0.233149 0.426341 0.072826
O O6 0.000000 0.437237 0.022374
O O7 0.244153 0.500000 0.000000
O O8 0.229479 0.374336 0.991588
O O9 0.250000 0.209669 0.250000
O O10 0.261890 0.213061 0.336374
O O11 0.000000 0.211453 0.296133
O O12 0.794061 0.187176 0.608761
O O13 0.737542 0.303650 0.579165
O O14 0.000000 0.278744 0.613591
O O15 0.000000 0.099792 0.625029
O O16 0.500000 0.702191 0.472120
O O17 0.750000 0.750000 0.500000
#
# Coordination Sequence:
#
# PCOD8261636 Si02
#       6
#    16  16  16  16  16  16
#     4   9  16  25  39  62  91 123 155 192 236 284
#     4   9  18  33  51  71  96 129 168 205 244 292
#     4   9  16  26  40  63  94 129 160 196 242 293
#     4  10  18  29  45  69  96 127 163 203 245 290
#     4   9  16  28  45  66  92 124 159 196 238 283
#     4  11  20  32  50  73  97 127 164 204 246 292
#
# _framework density 17.379003000000001
#
# number of rings (size 3 to 8) (size 9 to 14) (size 15 to 20)
#    0.000    2.500    1.667    2.000    0.000    4.667 
#    0.000    0.000    0.000    4.500    0.000    1.167 
#    0.000    5.333    0.000    0.000    0.000    0.000 
#
# Total GULP energy -595151.614831 kJ/mol
# GULP energy per Si atom -12398.991976 kJ/mol
# Density = 1.733945 g / cm^3
# Si number density = 17.379003 Si / 1000 Ang^3
#
#
#
# Elastic Constant Matrix: (Units=GPa)
#
#
# Indices 1 2 3 4 5 6 
#
# 1 94.0782 31.9073 66.1331 0.0000 0.0000 0.0000
# 2 31.9073 64.8672 54.2058 0.0000 0.0000 0.0000
# 3 66.1331 54.2058 189.1899 0.0000 0.0000 0.0000
# 4 0.0000 0.0000 0.0000 15.0443 0.0000 0.0000
# 5 0.0000 0.0000 0.0000 0.0000 38.0214 0.0000
# 6 0.0000 0.0000 0.0000 0.0000 0.0000 9.8097
#
#
#
# Elastic Compliance Matrix: (Units=1/GPa)
#
#
# Indices 1 2 3 4 5 6 
#
# 1 0.014802 -0.003888 -0.004060 0.000000 0.000000 0.000000
# 2 -0.003888 0.021290 -0.004741 0.000000 0.000000 0.000000
# 3 -0.004060 -0.004741 0.008063 0.000000 0.000000 0.000000
# 4 0.000000 0.000000 0.000000 0.066470 0.000000 0.000000
# 5 0.000000 0.000000 0.000000 0.000000 0.026301 0.000000
# 6 0.000000 0.000000 0.000000 0.000000 0.000000 0.101940
#
#
# Mechanical properties :
#
#
# Convention : Reuss Voigt Hill
#
# Bulk Modulus (GPa) = 53.25547 72.51420 62.88484
# Shear Modulus (GPa) = 18.48397 25.63436 22.05917
#
# Velocity S-wave (km/s) = 3.26480 3.84476 3.56659
# Velocity P-wave (km/s) = 6.70238 7.84381 7.29546
#
# Compressibility (1/GPa) = 0.01877741
#
# Stress axis : x y z
#
# Youngs Moduli (GPa) = 67.55669 46.96980 124.01809
#
# Poissons Ratio (x) = 0.18262 0.50355
# Poissons Ratio (y) = 0.26267 0.58795
# Poissons Ratio (z) = 0.27430 0.22268
#
# Static dielectric constant tensor:
#      x y z
#    x 3.245850 0.000000 0.000000 
#    y 0.000000 2.842460 0.000000 
#    z 0.000000 0.000000 3.608120 
# 
# 
# High freq. dielectric constant tensor:
#      x y z
#    x 1.669350 0.000000 0.000000 
#    y 0.000000 1.603110 0.000000 
#    z 0.000000 0.000000 1.694440 
# 
# From -- ./inp_files/48390.got.cif
#   From: 2010.03.12/outbox.cif.g09.slc.cpg/sg64_25_cif.got.tgz:48390.got - 2010.04.10 20:19:32.
