data_PCOD8261680
_publ_section_title
;
Structure prediction by ZEFSAII (Michael W. Deem and Ramdas Pophale) SiO2 
 PCOD8261680
Probable space group: C M C A
;
_chemical_formula_sum "Si O2"
_cell_formula_units_Z 96
_cell_length_a 8.981019
_cell_length_b 20.396848
_cell_length_c 29.602576
_cell_angle_alpha 90.000000
_cell_angle_beta 90.000000
_cell_angle_gamma 90.000000
_cell_volume 5422.732474
_symmetry_space_group_name_H-M "C M C A"
_symmetry_group_IT_number 64
_symmetry_cell_setting 'orthorhombic'
loop_
_space_group_symop_operation_xyz
x,y,z
-x,1/2-y,1/2+z
x,-y,-z
-x,1/2+y,1/2-z
-x,-y,-z
x,1/2+y,1/2-z
-x,y,z
x,1/2-y,1/2+z
1/2+x,1/2+y,z
1/2-x,-y,1/2+z
1/2+x,1/2-y,-z
1/2-x,y,1/2-z
1/2-x,1/2-y,-z
1/2+x,y,1/2-z
1/2-x,1/2+y,z
1/2+x,-y,1/2+z
loop_
_atom_site_type_symbol
_atom_site_label
_atom_site_fract_x
_atom_site_fract_y
_atom_site_fract_z
Si Si1 0.833262 0.145187 0.705977
Si Si2 0.169027 0.010977 0.294281
Si Si3 0.173478 0.435399 0.971184
Si Si4 0.674704 0.685731 0.980753
Si Si5 0.671911 0.638714 0.883095
Si Si6 0.323981 0.988382 0.614891
O O1 0.750000 0.173924 0.750000
O O2 0.758824 0.169594 0.659379
O O3 0.000000 0.172584 0.707064
O O4 0.829241 0.067146 0.707344
O O5 0.250000 0.039646 0.250000
O O6 0.262222 0.036166 0.337089
O O7 0.000000 0.037291 0.296620
O O8 0.255129 0.376564 0.995578
O O9 0.244537 0.443827 0.922139
O O10 0.000000 0.419022 0.966199
O O11 0.202367 0.500000 0.000000
O O12 0.500000 0.686822 0.990923
O O13 0.750000 0.750000 0.000000
O O14 0.705650 0.682302 0.927072
O O15 0.500000 0.639210 0.869530
O O16 0.721471 0.564077 0.893271
O O17 0.500000 0.977846 0.612582
#
# Coordination Sequence:
#
# PCOD8261680 Si02
#       6
#    16  16  16  16  16  16
#     4   9  16  25  41  65  96 130 166 207 254 306
#     4   9  16  26  40  64  98 134 169 208 258 312
#     4  11  22  35  54  79 106 137 177 221 263 313
#     4  11  23  39  56  77 106 142 180 222 269 319
#     4   9  18  31  48  70 100 135 171 211 260 310
#     4  10  18  30  49  73 101 135 174 216 264 314
#
# _framework density 17.703251999999999
#
# number of rings (size 3 to 8) (size 9 to 14) (size 15 to 20)
#    0.000    2.167    1.667    2.500    0.000    6.667 
#    0.000    0.000    0.000    0.000    0.000    1.167 
#    0.000    5.333    0.000    0.000    0.000    0.000 
#
# Total GULP energy -595252.722522 kJ/mol
# GULP energy per Si atom -12401.098386 kJ/mol
# Density = 1.766296 g / cm^3
# Si number density = 17.703252 Si / 1000 Ang^3
#
#
#
# Elastic Constant Matrix: (Units=GPa)
#
#
# Indices 1 2 3 4 5 6 
#
# 1 133.0105 49.8477 88.9198 0.0000 0.0000 0.0000
# 2 49.8477 48.3219 39.3790 0.0000 0.0000 0.0000
# 3 88.9198 39.3790 152.1938 0.0000 0.0000 0.0000
# 4 0.0000 0.0000 0.0000 13.0273 0.0000 0.0000
# 5 0.0000 0.0000 0.0000 0.0000 40.1479 0.0000
# 6 0.0000 0.0000 0.0000 0.0000 0.0000 21.3079
#
#
#
# Elastic Compliance Matrix: (Units=1/GPa)
#
#
# Indices 1 2 3 4 5 6 
#
# 1 0.016086 -0.011322 -0.006469 0.000000 0.000000 0.000000
# 2 -0.011322 0.034193 -0.002232 0.000000 0.000000 0.000000
# 3 -0.006469 -0.002232 0.010927 0.000000 0.000000 0.000000
# 4 0.000000 0.000000 0.000000 0.076762 0.000000 0.000000
# 5 0.000000 0.000000 0.000000 0.000000 0.024908 0.000000
# 6 0.000000 0.000000 0.000000 0.000000 0.000000 0.046931
#
#
# Mechanical properties :
#
#
# Convention : Reuss Voigt Hill
#
# Bulk Modulus (GPa) = 47.25798 76.64659 61.95228
# Shear Modulus (GPa) = 19.46229 25.25527 22.35878
#
# Velocity S-wave (km/s) = 3.31926 3.78112 3.55769
# Velocity P-wave (km/s) = 6.43758 7.90264 7.20743
#
# Compressibility (1/GPa) = 0.02116045
#
# Stress axis : x y z
#
# Youngs Moduli (GPa) = 62.16679 29.24546 91.51255
#
# Poissons Ratio (x) = 0.33112 0.59196
# Poissons Ratio (y) = 0.70386 0.20428
# Poissons Ratio (z) = 0.40213 0.06528
#
# Static dielectric constant tensor:
#      x y z
#    x 3.463700 0.000000 0.000000 
#    y 0.000000 2.653530 0.000000 
#    z 0.000000 0.000000 3.486180 
# 
# 
# High freq. dielectric constant tensor:
#      x y z
#    x 1.702710 0.000000 0.000000 
#    y 0.000000 1.616950 0.000000 
#    z 0.000000 0.000000 1.704460 
# 
# From -- ./inp_files/48038.got.cif
#   From: 2010.03.12/outbox.cif.g09.slc.cpg/sg64_25_cif.got.tgz:48038.got - 2010.04.10 20:19:32.
