data_PCOD8261162
_publ_section_title
;
Structure prediction by ZEFSAII (Michael W. Deem and Ramdas Pophale) SiO2 
 PCOD8261162
Probable space group: C M C M
;
_chemical_formula_sum "Si O2"
_cell_formula_units_Z 64
_cell_length_a 24.542031
_cell_length_b 4.884876
_cell_length_c 24.658858
_cell_angle_alpha 90.000000
_cell_angle_beta 90.000000
_cell_angle_gamma 90.000000
_cell_volume 2956.221723
_symmetry_space_group_name_H-M "C M C M"
_symmetry_group_IT_number 63
_symmetry_cell_setting 'orthorhombic'
loop_
_space_group_symop_operation_xyz
x,y,z
-x,-y,1/2+z
x,-y,-z
-x,y,1/2-z
-x,-y,-z
x,y,1/2-z
-x,y,z
x,-y,1/2+z
1/2+x,1/2+y,z
1/2-x,1/2-y,1/2+z
1/2+x,1/2-y,-z
1/2-x,1/2+y,1/2-z
1/2-x,1/2-y,-z
1/2+x,1/2+y,1/2-z
1/2-x,1/2+y,z
1/2+x,1/2-y,1/2+z
loop_
_atom_site_type_symbol
_atom_site_label
_atom_site_fract_x
_atom_site_fract_y
_atom_site_fract_z
Si Si1 0.109278 0.023513 0.812088
Si Si2 0.286680 0.343268 0.630346
Si Si3 0.634907 0.749236 0.463682
Si Si4 0.937665 0.460213 0.369390
O O1 0.102850 0.113162 0.750000
O O2 0.170049 0.910407 0.822640
O O3 0.066622 0.782162 0.825303
O O4 0.097861 0.282065 0.850340
O O5 0.233993 0.533698 0.636512
O O6 0.315310 0.369239 0.571834
O O7 0.612483 0.500000 0.500000
O O8 0.585441 0.854283 0.426482
O O9 0.656344 0.000000 0.500000
O O10 0.000000 0.550211 0.376385
#
# Coordination Sequence:
#
# PCOD8261162 Si02
#       4
#    16  16  16  16
#     4  11  24  42  64  92 125 160 204 256 307 367
#     4  11  23  40  62  90 123 160 204 251 301 361
#     4  11  23  40  62  91 127 164 207 255 305 365
#     4  11  24  42  64  92 125 161 205 255 307 368
#
# _framework density 21.649256000000001
#
# number of rings (size 3 to 8) (size 9 to 14) (size 15 to 20)
#    0.000    1.000    0.000    9.000    0.000    8.000 
#    0.000    0.000    0.000    0.000    0.000    0.000 
#    0.000    0.000    0.000    0.000    0.000    0.000 
#
# Total GULP energy -396972.269249 kJ/mol
# GULP energy per Si atom -12405.383414 kJ/mol
# Density = 2.159998 g / cm^3
# Si number density = 21.649256 Si / 1000 Ang^3
#
#
#
# Elastic Constant Matrix: (Units=GPa)
#
#
# Indices 1 2 3 4 5 6 
#
# 1 100.6068 21.7379 20.6502 0.0000 0.0000 0.0000
# 2 21.7379 115.9026 29.2035 0.0000 0.0000 0.0000
# 3 20.6502 29.2035 74.6682 0.0000 0.0000 0.0000
# 4 0.0000 0.0000 0.0000 38.6683 0.0000 0.0000
# 5 0.0000 0.0000 0.0000 0.0000 12.0013 0.0000
# 6 0.0000 0.0000 0.0000 0.0000 0.0000 35.1093
#
#
#
# Elastic Compliance Matrix: (Units=1/GPa)
#
#
# Indices 1 2 3 4 5 6 
#
# 1 0.010740 -0.001404 -0.002421 0.000000 0.000000 0.000000
# 2 -0.001404 0.009755 -0.003427 0.000000 0.000000 0.000000
# 3 -0.002421 -0.003427 0.015402 0.000000 0.000000 0.000000
# 4 0.000000 0.000000 0.000000 0.025861 0.000000 0.000000
# 5 0.000000 0.000000 0.000000 0.000000 0.083324 0.000000
# 6 0.000000 0.000000 0.000000 0.000000 0.000000 0.028482
#
#
# Mechanical properties :
#
#
# Convention : Reuss Voigt Hill
#
# Bulk Modulus (GPa) = 46.74446 48.26231 47.50338
# Shear Modulus (GPa) = 25.61475 31.79486 28.70480
#
# Velocity S-wave (km/s) = 3.44346 3.83643 3.64524
# Velocity P-wave (km/s) = 6.11951 6.47808 6.30135
#
# Compressibility (1/GPa) = 0.02139291
#
# Stress axis : x y z
#
# Youngs Moduli (GPa) = 93.10948 102.51410 64.92500
#
# Poissons Ratio (x) = 0.14396 0.15718
# Poissons Ratio (y) = 0.13076 0.22249
# Poissons Ratio (z) = 0.22542 0.35130
#
# Static dielectric constant tensor:
#      x y z
#    x 3.716960 0.000000 0.000000 
#    y 0.000000 4.076300 0.000000 
#    z 0.000000 0.000000 3.836800 
# 
# 
# High freq. dielectric constant tensor:
#      x y z
#    x 1.842200 0.000000 0.000000 
#    y 0.000000 1.871600 0.000000 
#    z 0.000000 0.000000 1.846350 
# 
# From -- ./inp_files/64840.got.cif
#   From: 2010.03.12/outbox.cif.g09.slc.cpg/sg63_33_cif.got.tgz:64840.got - 2010.04.10 19:34:48.
