data_PCOD8261553
_publ_section_title
;
Structure prediction by ZEFSAII (Michael W. Deem and Ramdas Pophale) SiO2 
 PCOD8261553
Probable space group: C M C A
;
_chemical_formula_sum "Si O2"
_cell_formula_units_Z 88
_cell_length_a 32.702730
_cell_length_b 26.130413
_cell_length_c 4.923145
_cell_angle_alpha 90.000000
_cell_angle_beta 90.000000
_cell_angle_gamma 90.000000
_cell_volume 4207.003854
_symmetry_space_group_name_H-M "C M C A"
_symmetry_group_IT_number 64
_symmetry_cell_setting 'orthorhombic'
loop_
_space_group_symop_operation_xyz
x,y,z
-x,1/2-y,1/2+z
x,-y,-z
-x,1/2+y,1/2-z
-x,-y,-z
x,1/2+y,1/2-z
-x,y,z
x,1/2-y,1/2+z
1/2+x,1/2+y,z
1/2-x,-y,1/2+z
1/2+x,1/2-y,-z
1/2-x,y,1/2-z
1/2-x,1/2-y,-z
1/2+x,y,1/2-z
1/2-x,1/2+y,z
1/2+x,-y,1/2+z
loop_
_atom_site_type_symbol
_atom_site_label
_atom_site_fract_x
_atom_site_fract_y
_atom_site_fract_z
Si Si1 0.000000 0.780669 0.249584
Si Si2 0.939320 0.860074 0.451147
Si Si3 0.701804 0.282677 0.279390
Si Si4 0.366071 0.446878 0.883529
Si Si5 0.649518 0.119927 0.891434
Si Si6 0.044651 0.423052 0.561214
O O1 0.958974 0.809694 0.330208
O O2 0.000000 0.728987 0.428260
O O3 0.891128 0.849954 0.481048
O O4 0.957447 0.872898 0.747012
O O5 0.949067 0.907546 0.251203
O O6 0.686863 0.238957 0.490506
O O7 0.750000 0.289446 0.250000
O O8 0.685484 0.338499 0.370365
O O9 0.343981 0.427579 0.604979
O O10 0.415464 0.455387 0.838864
O O11 0.347472 0.500000 0.000000
O O12 0.356813 0.402266 0.093587
O O13 0.000000 0.451435 0.585996
#
# Coordination Sequence:
#
# PCOD8261553 Si02
#       6
#     8  16  16  16  16  16
#     4  12  22  30  44  66  95 134 181 230 278 326
#     4  10  20  33  47  69  99 142 185 224 276 339
#     4  10  21  38  63  93 119 143 183 236 288 348
#     4  10  21  35  55  85 114 151 198 236 283 343
#     4  10  21  37  59  81 115 155 183 235 294 340
#     4  10  17  32  53  67  99 141 184 238 283 321
#
# _framework density 20.917498999999999
#
# number of rings (size 3 to 8) (size 9 to 14) (size 15 to 20)
#    0.000    1.818    1.818    2.727    0.000    1.818 
#    0.000    0.000    0.000    8.727    0.000    0.000 
#    0.000    0.000    0.000    0.000    0.000    0.000 
#
# Total GULP energy -545134.591892 kJ/mol
# GULP energy per Si atom -12389.422543 kJ/mol
# Density = 2.086989 g / cm^3
# Si number density = 20.917499 Si / 1000 Ang^3
#
#
#
# Elastic Constant Matrix: (Units=GPa)
#
#
# Indices 1 2 3 4 5 6 
#
# 1 57.9537 33.4590 24.4309 0.0000 0.0000 0.0000
# 2 33.4590 79.8009 10.8293 0.0000 0.0000 0.0000
# 3 24.4309 10.8293 88.8283 0.0000 0.0000 0.0000
# 4 0.0000 0.0000 0.0000 36.5804 0.0000 0.0000
# 5 0.0000 0.0000 0.0000 0.0000 17.0827 0.0000
# 6 0.0000 0.0000 0.0000 0.0000 0.0000 2.9235
#
#
#
# Elastic Compliance Matrix: (Units=1/GPa)
#
#
# Indices 1 2 3 4 5 6 
#
# 1 0.025383 -0.009858 -0.005779 0.000000 0.000000 0.000000
# 2 -0.009858 0.016571 0.000691 0.000000 0.000000 0.000000
# 3 -0.005779 0.000691 0.012763 0.000000 0.000000 0.000000
# 4 0.000000 0.000000 0.000000 0.027337 0.000000 0.000000
# 5 0.000000 0.000000 0.000000 0.000000 0.058539 0.000000
# 6 0.000000 0.000000 0.000000 0.000000 0.000000 0.342056
#
#
# Mechanical properties :
#
#
# Convention : Reuss Voigt Hill
#
# Bulk Modulus (GPa) = 40.28394 40.44678 40.36536
# Shear Modulus (GPa) = 9.60031 21.84156 15.72094
#
# Velocity S-wave (km/s) = 2.14466 3.23488 2.74445
# Velocity P-wave (km/s) = 5.04312 5.77329 5.42051
#
# Compressibility (1/GPa) = 0.02482379
#
# Stress axis : x y z
#
# Youngs Moduli (GPa) = 39.39616 60.34697 78.35181
#
# Poissons Ratio (x) = 0.59493 0.45283
# Poissons Ratio (y) = 0.38838 -0.05416
# Poissons Ratio (z) = 0.22769 -0.04171
#
# Static dielectric constant tensor:
#      x y z
#    x 3.647980 0.000000 0.000000 
#    y 0.000000 3.412740 0.000000 
#    z 0.000000 0.000000 4.102960 
# 
# 
# High freq. dielectric constant tensor:
#      x y z
#    x 1.787550 0.000000 0.000000 
#    y 0.000000 1.794550 0.000000 
#    z 0.000000 0.000000 1.842450 
# 
# From -- ./inp_files/3306.got.cif
#   From: 2010.03.12/outbox.cif.g09.slc.cpg/sg64_2_cif.got.tgz:3306.got - 2010.04.10 20:19:32.
