data_PCOD8261016
_publ_section_title
;
Structure prediction by ZEFSAII (Michael W. Deem and Ramdas Pophale) SiO2 
 PCOD8261016
Probable space group: C M C M
;
_chemical_formula_sum "Si O2"
_cell_formula_units_Z 96
_cell_length_a 8.480790
_cell_length_b 25.279413
_cell_length_c 23.328484
_cell_angle_alpha 90.000000
_cell_angle_beta 90.000000
_cell_angle_gamma 90.000000
_cell_volume 5001.379524
_symmetry_space_group_name_H-M "C M C M"
_symmetry_group_IT_number 63
_symmetry_cell_setting 'orthorhombic'
loop_
_space_group_symop_operation_xyz
x,y,z
-x,-y,1/2+z
x,-y,-z
-x,y,1/2-z
-x,-y,-z
x,y,1/2-z
-x,y,z
x,-y,1/2+z
1/2+x,1/2+y,z
1/2-x,1/2-y,1/2+z
1/2+x,1/2-y,-z
1/2-x,1/2+y,1/2-z
1/2-x,1/2-y,-z
1/2+x,1/2+y,1/2-z
1/2-x,1/2+y,z
1/2+x,1/2-y,1/2+z
loop_
_atom_site_type_symbol
_atom_site_label
_atom_site_fract_x
_atom_site_fract_y
_atom_site_fract_z
Si Si1 0.319066 0.908396 0.125153
Si Si2 0.316470 0.560556 0.507374
Si Si3 0.687182 0.191506 0.313421
Si Si4 0.817491 0.810093 0.183192
Si Si5 0.815973 0.402908 0.608575
Si Si6 0.182093 0.993252 0.816172
O O1 0.500000 0.922878 0.135955
O O2 0.281487 0.912992 0.058121
O O3 0.287084 0.848701 0.144869
O O4 0.210735 0.947301 0.162500
O O5 0.261431 0.500000 0.500000
O O6 0.500000 0.563520 0.522557
O O7 0.281517 0.592729 0.449749
O O8 0.755566 0.178409 0.250000
O O9 0.500000 0.188418 0.310162
O O10 0.738059 0.250485 0.331994
O O11 0.751209 0.148762 0.358710
O O12 0.788771 0.821808 0.250000
O O13 0.000000 0.818186 0.167437
O O14 0.791209 0.453998 0.648044
O O15 0.000000 0.397816 0.594166
O O16 0.229209 0.988786 0.750000
O O17 0.000000 0.978776 0.826510
#
# Coordination Sequence:
#
# PCOD8261016 Si02
#       6
#    16  16  16  16  16  16
#     4  12  24  37  57  84 113 144 188 240 287 330
#     4  11  23  40  60  79 109 153 195 231 278 343
#     4   8  16  33  58  87 117 150 185 224 277 337
#     4   9  18  36  61  85 114 153 190 224 273 339
#     4  11  21  35  59  88 116 144 186 238 285 331
#     4  11  23  37  54  80 115 152 187 224 276 342
#
# _framework density 19.194704000000002
#
# number of rings (size 3 to 8) (size 9 to 14) (size 15 to 20)
#    0.000    1.667    1.667    5.000    0.000    5.000 
#    0.000    2.500    0.000    2.000    0.000    0.000 
#    0.000    0.000    0.000    0.000    0.000    0.000 
#
# Total GULP energy -595406.975396 kJ/mol
# GULP energy per Si atom -12404.311987 kJ/mol
# Density = 1.915102 g / cm^3
# Si number density = 19.194704 Si / 1000 Ang^3
#
#
#
# Elastic Constant Matrix: (Units=GPa)
#
#
# Indices 1 2 3 4 5 6 
#
# 1 43.3560 20.0569 27.6311 0.0000 0.0000 0.0000
# 2 20.0569 112.6379 45.8337 0.0000 0.0000 0.0000
# 3 27.6311 45.8337 102.6617 0.0000 0.0000 0.0000
# 4 0.0000 0.0000 0.0000 28.5169 0.0000 0.0000
# 5 0.0000 0.0000 0.0000 0.0000 24.6715 0.0000
# 6 0.0000 0.0000 0.0000 0.0000 0.0000 22.5412
#
#
#
# Elastic Compliance Matrix: (Units=1/GPa)
#
#
# Indices 1 2 3 4 5 6 
#
# 1 0.028351 -0.002375 -0.006570 0.000000 0.000000 0.000000
# 2 -0.002375 0.011048 -0.004293 0.000000 0.000000 0.000000
# 3 -0.006570 -0.004293 0.013426 0.000000 0.000000 0.000000
# 4 0.000000 0.000000 0.000000 0.035067 0.000000 0.000000
# 5 0.000000 0.000000 0.000000 0.000000 0.040533 0.000000
# 6 0.000000 0.000000 0.000000 0.000000 0.000000 0.044363
#
#
# Mechanical properties :
#
#
# Convention : Reuss Voigt Hill
#
# Bulk Modulus (GPa) = 37.95366 49.52210 43.73788
# Shear Modulus (GPa) = 24.03311 26.15484 25.09398
#
# Velocity S-wave (km/s) = 3.54230 3.69536 3.61964
# Velocity P-wave (km/s) = 6.04536 6.63803 6.34862
#
# Compressibility (1/GPa) = 0.02634792
#
# Stress axis : x y z
#
# Youngs Moduli (GPa) = 35.27242 90.51567 74.48340
#
# Poissons Ratio (x) = 0.21495 0.48938
# Poissons Ratio (y) = 0.08376 0.31977
# Poissons Ratio (z) = 0.23175 0.38860
#
# Static dielectric constant tensor:
#      x y z
#    x 3.288350 0.000000 0.000000 
#    y 0.000000 3.601780 0.000000 
#    z 0.000000 0.000000 3.587550 
# 
# 
# High freq. dielectric constant tensor:
#      x y z
#    x 1.734970 0.000000 0.000000 
#    y 0.000000 1.746530 0.000000 
#    z 0.000000 0.000000 1.747680 
# 
# From -- ./inp_files/59881.got.cif
#   From: 2010.03.12/outbox.cif.g09.slc.cpg/sg63_30_cif.got.tgz:59881.got - 2010.04.10 19:34:48.
