data_PCOD8261147
_publ_section_title
;
Structure prediction by ZEFSAII (Michael W. Deem and Ramdas Pophale) SiO2 
 PCOD8261147
Probable space group: C M C M
;
_chemical_formula_sum "Si O2"
_cell_formula_units_Z 112
_cell_length_a 31.454276
_cell_length_b 11.676971
_cell_length_c 14.981293
_cell_angle_alpha 90.000000
_cell_angle_beta 90.000000
_cell_angle_gamma 90.000000
_cell_volume 5502.489124
_symmetry_space_group_name_H-M "C M C M"
_symmetry_group_IT_number 63
_symmetry_cell_setting 'orthorhombic'
loop_
_space_group_symop_operation_xyz
x,y,z
-x,-y,1/2+z
x,-y,-z
-x,y,1/2-z
-x,-y,-z
x,y,1/2-z
-x,y,z
x,-y,1/2+z
1/2+x,1/2+y,z
1/2-x,1/2-y,1/2+z
1/2+x,1/2-y,-z
1/2-x,1/2+y,1/2-z
1/2-x,1/2-y,-z
1/2+x,1/2+y,1/2-z
1/2-x,1/2+y,z
1/2+x,1/2-y,1/2+z
loop_
_atom_site_type_symbol
_atom_site_label
_atom_site_fract_x
_atom_site_fract_y
_atom_site_fract_z
Si Si1 0.171770 0.065844 0.408146
Si Si2 0.833126 0.488073 0.149105
Si Si3 0.822743 0.826749 0.347926
Si Si4 0.741046 0.853161 0.643367
Si Si5 0.049009 0.633614 0.511328
Si Si6 0.882432 0.274901 0.143506
Si Si7 0.601437 0.811996 0.648179
O O1 0.214968 0.139105 0.410639
O O2 0.132584 0.146275 0.380566
O O3 0.162364 0.000000 0.500000
O O4 0.179617 0.963139 0.338385
O O5 0.820479 0.465869 0.250000
O O6 0.791059 0.546943 0.107638
O O7 0.845989 0.364192 0.108721
O O8 0.874662 0.566984 0.140472
O O9 0.826613 0.769496 0.250000
O O10 0.779980 0.768668 0.387068
O O11 0.866550 0.784694 0.393598
O O12 0.750046 0.858235 0.750000
O O13 0.059176 0.500000 0.500000
O O14 0.074310 0.693188 0.592558
O O15 0.060791 0.690930 0.416274
O O16 0.000000 0.656609 0.532235
O O17 0.890233 0.285609 0.250000
O O18 0.586322 0.787773 0.750000
#
# Coordination Sequence:
#
# PCOD8261147 Si02
#       7
#    16  16  16  16  16  16  16
#     4  12  25  38  54  85 124 162 214 266 318 370
#     4   8  16  33  57  83 114 159 208 248 302 373
#     4   9  19  37  59  80 110 158 210 251 302 367
#     4   9  19  36  57  81 113 155 205 261 310 363
#     4  11  23  38  61  96 129 157 194 253 322 386
#     4  11  23  41  64  89 123 172 216 259 318 384
#     4   9  17  36  61  87 121 163 202 246 308 379
#
# _framework density 20.354424000000002
#
# number of rings (size 3 to 8) (size 9 to 14) (size 15 to 20)
#    0.000    2.143    1.429    3.857    2.000    1.143 
#    5.143    1.429    0.000    3.857    0.000    4.000 
#    0.000    0.000    0.000    0.000    0.000    0.000 
#
# Total GULP energy -693797.413914 kJ/mol
# GULP energy per Si atom -12389.239534 kJ/mol
# Density = 2.030810 g / cm^3
# Si number density = 20.354424 Si / 1000 Ang^3
#
#
#
# Elastic Constant Matrix: (Units=GPa)
#
#
# Indices 1 2 3 4 5 6 
#
# 1 115.5607 54.1703 45.5073 0.0000 0.0000 0.0000
# 2 54.1703 123.0474 24.7579 0.0000 0.0000 0.0000
# 3 45.5073 24.7579 84.2466 0.0000 0.0000 0.0000
# 4 0.0000 0.0000 0.0000 25.4580 0.0000 0.0000
# 5 0.0000 0.0000 0.0000 0.0000 26.6885 0.0000
# 6 0.0000 0.0000 0.0000 0.0000 0.0000 24.3428
#
#
#
# Elastic Compliance Matrix: (Units=1/GPa)
#
#
# Indices 1 2 3 4 5 6 
#
# 1 0.013054 -0.004600 -0.005700 0.000000 0.000000 0.000000
# 2 -0.004600 0.010259 -0.000530 0.000000 0.000000 0.000000
# 3 -0.005700 -0.000530 0.015104 0.000000 0.000000 0.000000
# 4 0.000000 0.000000 0.000000 0.039280 0.000000 0.000000
# 5 0.000000 0.000000 0.000000 0.000000 0.037469 0.000000
# 6 0.000000 0.000000 0.000000 0.000000 0.000000 0.041080
#
#
# Mechanical properties :
#
#
# Convention : Reuss Voigt Hill
#
# Bulk Modulus (GPa) = 59.67305 63.52507 61.59906
# Shear Modulus (GPa) = 27.24903 28.52580 27.88742
#
# Velocity S-wave (km/s) = 3.66283 3.74766 3.70549
# Velocity P-wave (km/s) = 6.87525 7.07134 6.97398
#
# Compressibility (1/GPa) = 0.01675798
#
# Stress axis : x y z
#
# Youngs Moduli (GPa) = 76.60267 97.47761 66.20580
#
# Poissons Ratio (x) = 0.44842 0.37735
# Poissons Ratio (y) = 0.35239 0.03508
# Poissons Ratio (z) = 0.43661 0.05165
#
# Static dielectric constant tensor:
#      x y z
#    x 3.406110 0.000000 0.000000 
#    y 0.000000 3.890040 0.000000 
#    z 0.000000 0.000000 3.600160 
# 
# 
# High freq. dielectric constant tensor:
#      x y z
#    x 1.764490 0.000000 0.000000 
#    y 0.000000 1.792790 0.000000 
#    z 0.000000 0.000000 1.790700 
# 
# From -- ./inp_files/38532.got.cif
#   From: 2010.03.12/outbox.cif.g09.slc.cpg/sg63_20_cif.got.tgz:38532.got - 2010.04.10 19:34:48.
