data_PCOD8261987
_publ_section_title
;
Structure prediction by ZEFSAII (Michael W. Deem and Ramdas Pophale) SiO2 
 PCOD8261987
Probable space group: C M C A
;
_chemical_formula_sum "Si O2"
_cell_formula_units_Z 96
_cell_length_a 8.956197
_cell_length_b 20.366277
_cell_length_c 29.618283
_cell_angle_alpha 90.000000
_cell_angle_beta 90.000000
_cell_angle_gamma 90.000000
_cell_volume 5402.504813
_symmetry_space_group_name_H-M "C M C A"
_symmetry_group_IT_number 64
_symmetry_cell_setting 'orthorhombic'
loop_
_space_group_symop_operation_xyz
x,y,z
-x,1/2-y,1/2+z
x,-y,-z
-x,1/2+y,1/2-z
-x,-y,-z
x,1/2+y,1/2-z
-x,y,z
x,1/2-y,1/2+z
1/2+x,1/2+y,z
1/2-x,-y,1/2+z
1/2+x,1/2-y,-z
1/2-x,y,1/2-z
1/2-x,1/2-y,-z
1/2+x,y,1/2-z
1/2-x,1/2+y,z
1/2+x,-y,1/2+z
loop_
_atom_site_type_symbol
_atom_site_label
_atom_site_fract_x
_atom_site_fract_y
_atom_site_fract_z
Si Si1 0.831024 0.142746 0.705386
Si Si2 0.167361 0.013488 0.293810
Si Si3 0.173300 0.439954 0.969383
Si Si4 0.675454 0.810170 0.025177
Si Si5 0.676664 0.639486 0.886488
Si Si6 0.325112 0.987863 0.616025
O O1 0.750000 0.171436 0.750000
O O2 0.740937 0.165629 0.661053
O O3 0.000000 0.169965 0.703224
O O4 0.831867 0.064679 0.707970
O O5 0.250000 0.042514 0.250000
O O6 0.251606 0.038460 0.338175
O O7 0.000000 0.041238 0.294550
O O8 0.267597 0.441061 0.923619
O O9 0.000000 0.447247 0.956956
O O10 0.227942 0.500000 0.000000
O O11 0.209745 0.373569 0.995251
O O12 0.500000 0.798355 0.031252
O O13 0.748950 0.817956 0.074170
O O14 0.750000 0.750000 0.000000
O O15 0.500000 0.650012 0.886893
O O16 0.720456 0.563288 0.893743
O O17 0.500000 0.980567 0.621480
#
# Coordination Sequence:
#
# PCOD8261987 Si02
#       6
#    16  16  16  16  16  16
#     4   9  16  26  42  66  97 132 168 208 255 305
#     4   9  16  26  41  63  97 134 168 206 254 308
#     4  10  20  35  54  75 101 134 173 213 257 306
#     4  11  23  38  55  75 103 138 175 217 263 313
#     4  10  19  31  48  72 102 135 171 211 258 308
#     4  10  19  29  47  74 102 132 170 214 258 305
#
# _framework density 17.769535000000001
#
# number of rings (size 3 to 8) (size 9 to 14) (size 15 to 20)
#    0.000    2.167    1.667    2.500    0.000    7.000 
#    0.000    0.000    0.000    0.000    0.000    1.167 
#    0.000    8.000    0.000    0.000    0.000    0.000 
#
# Total GULP energy -595307.061304 kJ/mol
# GULP energy per Si atom -12402.230444 kJ/mol
# Density = 1.772909 g / cm^3
# Si number density = 17.769535 Si / 1000 Ang^3
#
#
#
# Elastic Constant Matrix: (Units=GPa)
#
#
# Indices 1 2 3 4 5 6 
#
# 1 119.9417 36.3979 84.5127 0.0000 0.0000 0.0000
# 2 36.3979 51.1231 40.2073 0.0000 0.0000 0.0000
# 3 84.5127 40.2073 177.3821 0.0000 0.0000 0.0000
# 4 0.0000 0.0000 0.0000 16.1359 0.0000 0.0000
# 5 0.0000 0.0000 0.0000 0.0000 43.0415 0.0000
# 6 0.0000 0.0000 0.0000 0.0000 0.0000 18.2648
#
#
#
# Elastic Compliance Matrix: (Units=1/GPa)
#
#
# Indices 1 2 3 4 5 6 
#
# 1 0.013774 -0.005653 -0.005281 0.000000 0.000000 0.000000
# 2 -0.005653 0.026124 -0.003228 0.000000 0.000000 0.000000
# 3 -0.005281 -0.003228 0.008885 0.000000 0.000000 0.000000
# 4 0.000000 0.000000 0.000000 0.061974 0.000000 0.000000
# 5 0.000000 0.000000 0.000000 0.000000 0.023233 0.000000
# 6 0.000000 0.000000 0.000000 0.000000 0.000000 0.054750
#
#
# Mechanical properties :
#
#
# Convention : Reuss Voigt Hill
#
# Bulk Modulus (GPa) = 48.87852 74.52030 61.69941
# Shear Modulus (GPa) = 22.33279 27.97704 25.15492
#
# Velocity S-wave (km/s) = 3.54899 3.97222 3.76655
# Velocity P-wave (km/s) = 6.66036 7.94143 7.32894
#
# Compressibility (1/GPa) = 0.02045888
#
# Stress axis : x y z
#
# Youngs Moduli (GPa) = 72.59990 38.27837 112.54307
#
# Poissons Ratio (x) = 0.21639 0.59436
# Poissons Ratio (y) = 0.41042 0.36331
# Poissons Ratio (z) = 0.38341 0.12357
#
# Static dielectric constant tensor:
#      x y z
#    x 3.418220 0.000000 0.000000 
#    y 0.000000 2.692330 0.000000 
#    z 0.000000 0.000000 3.473820 
# 
# 
# High freq. dielectric constant tensor:
#      x y z
#    x 1.704340 0.000000 0.000000 
#    y 0.000000 1.619500 0.000000 
#    z 0.000000 0.000000 1.706810 
# 
# From -- ./inp_files/48037.got.cif
#   From: 2010.03.12/outbox.cif.g09.slc.cpg/sg64_25_cif.got.tgz:48037.got - 2010.04.10 20:19:32.
