data_PCOD8261097
_publ_section_title
;
Structure prediction by ZEFSAII (Michael W. Deem and Ramdas Pophale) SiO2 
 PCOD8261097
Probable space group: C M C M
;
_chemical_formula_sum "Si O2"
_cell_formula_units_Z 80
_cell_length_a 26.206544
_cell_length_b 9.095127
_cell_length_c 16.530498
_cell_angle_alpha 90.000000
_cell_angle_beta 90.000000
_cell_angle_gamma 90.000000
_cell_volume 3940.074712
_symmetry_space_group_name_H-M "C M C M"
_symmetry_group_IT_number 63
_symmetry_cell_setting 'orthorhombic'
loop_
_space_group_symop_operation_xyz
x,y,z
-x,-y,1/2+z
x,-y,-z
-x,y,1/2-z
-x,-y,-z
x,y,1/2-z
-x,y,z
x,-y,1/2+z
1/2+x,1/2+y,z
1/2-x,1/2-y,1/2+z
1/2+x,1/2-y,-z
1/2-x,1/2+y,1/2-z
1/2-x,1/2-y,-z
1/2+x,1/2+y,1/2-z
1/2-x,1/2+y,z
1/2+x,1/2-y,1/2+z
loop_
_atom_site_type_symbol
_atom_site_label
_atom_site_fract_x
_atom_site_fract_y
_atom_site_fract_z
Si Si1 0.500000 0.872155 0.345047
Si Si2 0.000000 0.035850 0.154822
Si Si3 0.889607 0.379538 0.153856
Si Si4 0.703455 0.351858 0.156680
Si Si5 0.292387 0.966403 0.591131
Si Si6 0.890494 0.958900 0.846322
O O1 0.500000 0.882561 0.250000
O O2 0.500000 0.704139 0.370855
O O3 0.554072 0.940536 0.374539
O O4 0.945424 0.974144 0.121649
O O5 0.000000 0.013951 0.250000
O O6 0.882378 0.395800 0.250000
O O7 0.849522 0.479863 0.107602
O O8 0.882443 0.209972 0.126405
O O9 0.694463 0.309047 0.250000
O O10 0.711093 0.207047 0.104195
O O11 0.753540 0.452390 0.151211
O O12 0.655063 0.440479 0.119993
O O13 0.275895 0.000000 0.500000
O O14 0.890066 0.961198 0.750000
#
# Coordination Sequence:
#
# PCOD8261097 Si02
#       6
#     8   8  16  16  16  16
#     4   7  12  24  50  81 105 134 179 225 266 315
#     4   7  10  22  45  79 112 132 158 211 270 311
#     4   9  16  32  56  81 107 141 183 226 269 323
#     4  11  22  38  58  80 104 139 184 227 270 326
#     4  12  25  39  54  78 110 144 179 225 282 336
#     4   8  15  28  53  83 108 133 170 218 266 312
#
# _framework density 20.304182999999998
#
# number of rings (size 3 to 8) (size 9 to 14) (size 15 to 20)
#    0.000    2.600    0.000    6.000    0.000    1.600 
#    0.000    1.500    0.000    3.600    0.000    4.900 
#    0.000    0.000    0.000    0.000    0.000    0.000 
#
# Total GULP energy -495574.948218 kJ/mol
# GULP energy per Si atom -12389.373705 kJ/mol
# Density = 2.025797 g / cm^3
# Si number density = 20.304183 Si / 1000 Ang^3
#
#
#
# Elastic Constant Matrix: (Units=GPa)
#
#
# Indices 1 2 3 4 5 6 
#
# 1 169.1387 47.9505 2.7793 0.0000 0.0000 0.0000
# 2 47.9505 80.3966 1.3515 0.0000 0.0000 0.0000
# 3 2.7793 1.3515 30.5187 0.0000 0.0000 0.0000
# 4 0.0000 0.0000 0.0000 18.3817 0.0000 0.0000
# 5 0.0000 0.0000 0.0000 0.0000 5.2276 0.0000
# 6 0.0000 0.0000 0.0000 0.0000 0.0000 33.2179
#
#
#
# Elastic Compliance Matrix: (Units=1/GPa)
#
#
# Indices 1 2 3 4 5 6 
#
# 1 0.007122 -0.004240 -0.000461 0.000000 0.000000 0.000000
# 2 -0.004240 0.014972 -0.000277 0.000000 0.000000 0.000000
# 3 -0.000461 -0.000277 0.032821 0.000000 0.000000 0.000000
# 4 0.000000 0.000000 0.000000 0.054402 0.000000 0.000000
# 5 0.000000 0.000000 0.000000 0.000000 0.191292 0.000000
# 6 0.000000 0.000000 0.000000 0.000000 0.000000 0.030104
#
#
# Mechanical properties :
#
#
# Convention : Reuss Voigt Hill
#
# Bulk Modulus (GPa) = 22.24226 42.69073 32.46650
# Shear Modulus (GPa) = 14.05859 26.56361 20.31110
#
# Velocity S-wave (km/s) = 2.63420 3.62094 3.16625
# Velocity P-wave (km/s) = 4.49781 6.20910 5.42140
#
# Compressibility (1/GPa) = 0.04495946
#
# Stress axis : x y z
#
# Youngs Moduli (GPa) = 140.41222 66.79227 30.46823
#
# Poissons Ratio (x) = 0.28319 0.01404
# Poissons Ratio (y) = 0.59534 0.00844
# Poissons Ratio (z) = 0.06470 0.01850
#
# Static dielectric constant tensor:
#      x y z
#    x 4.475500 0.000000 0.000000 
#    y 0.000000 3.424190 0.000000 
#    z 0.000000 0.000000 3.133010 
# 
# 
# High freq. dielectric constant tensor:
#      x y z
#    x 1.826210 0.000000 0.000000 
#    y 0.000000 1.765070 0.000000 
#    z 0.000000 0.000000 1.743260 
# 
# From -- ./inp_files/58009.got.cif
#   From: 2010.03.12/outbox.cif.g09.slc.cpg/sg63_30_cif.got.tgz:58009.got - 2010.04.10 19:34:48.
