data_PCOD8261060
_publ_section_title
;
Structure prediction by ZEFSAII (Michael W. Deem and Ramdas Pophale) SiO2 
 PCOD8261060
Probable space group: C M C M
;
_chemical_formula_sum "Si O2"
_cell_formula_units_Z 96
_cell_length_a 28.828688
_cell_length_b 25.426270
_cell_length_c 9.343618
_cell_angle_alpha 90.000000
_cell_angle_beta 90.000000
_cell_angle_gamma 90.000000
_cell_volume 6848.928101
_symmetry_space_group_name_H-M "C M C M"
_symmetry_group_IT_number 63
_symmetry_cell_setting 'orthorhombic'
loop_
_space_group_symop_operation_xyz
x,y,z
-x,-y,1/2+z
x,-y,-z
-x,y,1/2-z
-x,-y,-z
x,y,1/2-z
-x,y,z
x,-y,1/2+z
1/2+x,1/2+y,z
1/2-x,1/2-y,1/2+z
1/2+x,1/2-y,-z
1/2-x,1/2+y,1/2-z
1/2-x,1/2-y,-z
1/2+x,1/2+y,1/2-z
1/2-x,1/2+y,z
1/2+x,1/2-y,1/2+z
loop_
_atom_site_type_symbol
_atom_site_label
_atom_site_fract_x
_atom_site_fract_y
_atom_site_fract_z
Si Si1 0.856165 0.947562 0.582169
Si Si2 0.145480 0.256161 0.586172
Si Si3 0.809461 0.143070 0.911425
Si Si4 0.448687 0.713135 0.583699
Si Si5 0.223256 0.705523 0.914744
Si Si6 0.051573 0.891965 0.914527
O O1 0.846702 0.954685 0.750000
O O2 0.824582 0.900072 0.525782
O O3 0.910428 0.936231 0.549497
O O4 0.841473 0.000000 0.500000
O O5 0.154112 0.272613 0.750000
O O6 0.163920 0.197368 0.557440
O O7 0.090516 0.256667 0.546988
O O8 0.172064 0.298709 0.486208
O O9 0.820870 0.123834 0.750000
O O10 0.753707 0.152267 0.927494
O O11 0.446063 0.698897 0.750000
O O12 0.500000 0.734618 0.541568
O O13 0.436917 0.659547 0.503874
O O14 0.217948 0.722443 0.750000
O O15 0.250000 0.750000 0.000000
O O16 0.055078 0.875054 0.750000
O O17 0.000000 0.913861 0.951221
#
# Coordination Sequence:
#
# PCOD8261060 Si02
#       6
#    16  16  16  16  16  16
#     4  11  22  32  44  58  73  98 128 163 206 247
#     4   9  16  26  41  61  82 102 126 159 193 231
#     4   9  17  30  43  57  77  97 123 161 197 234
#     4   9  16  26  41  59  79 105 133 160 195 234
#     4   9  17  27  41  60  79 100 123 153 193 234
#     4   9  18  31  43  56  73  94 126 167 207 243
#
# _framework density 14.016793
#
# number of rings (size 3 to 8) (size 9 to 14) (size 15 to 20)
#    0.000    2.667    1.667    2.000    0.000    5.000 
#    0.000    0.000    0.000    0.000    0.000    0.000 
#    0.000    0.000    0.000    0.000    0.000    0.833 
#
# Total GULP energy -594861.466806 kJ/mol
# GULP energy per Si atom -12392.947225 kJ/mol
# Density = 1.398489 g / cm^3
# Si number density = 14.016793 Si / 1000 Ang^3
#
#
#
# Elastic Constant Matrix: (Units=GPa)
#
#
# Indices 1 2 3 4 5 6 
#
# 1 84.4889 30.8572 44.3997 0.0000 0.0000 0.0000
# 2 30.8572 31.0463 28.4615 0.0000 0.0000 0.0000
# 3 44.3997 28.4615 74.4869 0.0000 0.0000 0.0000
# 4 0.0000 0.0000 0.0000 19.4609 0.0000 0.0000
# 5 0.0000 0.0000 0.0000 0.0000 22.5185 0.0000
# 6 0.0000 0.0000 0.0000 0.0000 0.0000 15.0056
#
#
#
# Elastic Compliance Matrix: (Units=1/GPa)
#
#
# Indices 1 2 3 4 5 6 
#
# 1 0.020637 -0.014213 -0.006871 0.000000 0.000000 0.000000
# 2 -0.014213 0.059365 -0.014211 0.000000 0.000000 0.000000
# 3 -0.006871 -0.014211 0.022951 0.000000 0.000000 0.000000
# 4 0.000000 0.000000 0.000000 0.051385 0.000000 0.000000
# 5 0.000000 0.000000 0.000000 0.000000 0.044408 0.000000
# 6 0.000000 0.000000 0.000000 0.000000 0.000000 0.066642
#
#
# Mechanical properties :
#
#
# Convention : Reuss Voigt Hill
#
# Bulk Modulus (GPa) = 30.89963 44.16210 37.53087
# Shear Modulus (GPa) = 14.41899 17.15056 15.78477
#
# Velocity S-wave (km/s) = 3.21081 3.50175 3.35943
# Velocity P-wave (km/s) = 5.98651 6.92277 6.47159
#
# Compressibility (1/GPa) = 0.03236285
#
# Stress axis : x y z
#
# Youngs Moduli (GPa) = 48.45587 16.84506 43.57175
#
# Poissons Ratio (x) = 0.23942 0.29936
# Poissons Ratio (y) = 0.68871 0.61921
# Poissons Ratio (z) = 0.33292 0.23939
#
# Static dielectric constant tensor:
#      x y z
#    x 3.339000 0.000000 0.000000 
#    y 0.000000 2.367360 0.000000 
#    z 0.000000 0.000000 2.997340 
# 
# 
# High freq. dielectric constant tensor:
#      x y z
#    x 1.539160 0.000000 0.000000 
#    y 0.000000 1.469520 0.000000 
#    z 0.000000 0.000000 1.547900 
# 
# From -- ./inp_files/13003.got.cif
#   From: 2010.03.12/outbox.cif.g09.slc.cpg/sg63_7_cif.got.tgz:13003.got - 2010.04.10 19:34:48.
