data_PCOD8261965
_publ_section_title
;
Structure prediction by ZEFSAII (Michael W. Deem and Ramdas Pophale) SiO2 
 PCOD8261965
Probable space group: C M C A
;
_chemical_formula_sum "Si O2"
_cell_formula_units_Z 72
_cell_length_a 25.466985
_cell_length_b 10.599154
_cell_length_c 13.076500
_cell_angle_alpha 90.000000
_cell_angle_beta 90.000000
_cell_angle_gamma 90.000000
_cell_volume 3529.719977
_symmetry_space_group_name_H-M "C M C A"
_symmetry_group_IT_number 64
_symmetry_cell_setting 'orthorhombic'
loop_
_space_group_symop_operation_xyz
x,y,z
-x,1/2-y,1/2+z
x,-y,-z
-x,1/2+y,1/2-z
-x,-y,-z
x,1/2+y,1/2-z
-x,y,z
x,1/2-y,1/2+z
1/2+x,1/2+y,z
1/2-x,-y,1/2+z
1/2+x,1/2-y,-z
1/2-x,y,1/2-z
1/2-x,1/2-y,-z
1/2+x,y,1/2-z
1/2-x,1/2+y,z
1/2+x,-y,1/2+z
loop_
_atom_site_type_symbol
_atom_site_label
_atom_site_fract_x
_atom_site_fract_y
_atom_site_fract_z
Si Si1 0.500000 0.841732 0.188461
Si Si2 0.762325 0.683261 0.133521
Si Si3 0.672893 0.646327 0.987994
Si Si4 0.914932 0.686088 0.975627
Si Si5 0.500000 0.371014 0.641771
Si Si6 0.825761 0.500000 0.000000
O O1 0.500000 0.756993 0.290894
O O2 0.500000 0.995640 0.205257
O O3 0.448885 0.799969 0.126032
O O4 0.750000 0.658622 0.250000
O O5 0.802401 0.801847 0.118731
O O6 0.789474 0.557268 0.088725
O O7 0.707536 0.714034 0.076543
O O8 0.610676 0.678577 0.995417
O O9 0.679748 0.500000 0.000000
O O10 0.948750 0.629391 0.069453
O O11 0.864094 0.603070 0.950225
#
# Coordination Sequence:
#
# PCOD8261965 Si02
#       6
#     8  16  16  16   8   8
#     4  11  23  43  68  96 124 163 227 271 332 404
#     4  10  22  40  63  93 130 176 220 270 325 386
#     4  10  22  41  59  94 134 170 222 271 324 392
#     4  10  21  42  67  87 128 177 207 266 334 391
#     4  11  23  43  68 100 126 169 219 277 340 403
#     4  10  18  41  68  90 124 175 220 260 326 400
#
# _framework density 20.398219000000001
#
# number of rings (size 3 to 8) (size 9 to 14) (size 15 to 20)
#    0.000    1.778    3.333    0.667    0.000    6.222 
#    4.000    2.222    0.000    0.000    0.000    0.000 
#    0.000    0.000    0.000    0.000    0.000    0.000 
#
# Total GULP energy -446148.320594 kJ/mol
# GULP energy per Si atom -12393.008905 kJ/mol
# Density = 2.035179 g / cm^3
# Si number density = 20.398219 Si / 1000 Ang^3
#
#
#
# Elastic Constant Matrix: (Units=GPa)
#
#
# Indices 1 2 3 4 5 6 
#
# 1 126.3843 42.0085 42.7302 0.0000 0.0000 0.0000
# 2 42.0085 128.8877 43.4207 0.0000 0.0000 0.0000
# 3 42.7302 43.4207 108.0261 0.0000 0.0000 0.0000
# 4 0.0000 0.0000 0.0000 20.5370 0.0000 0.0000
# 5 0.0000 0.0000 0.0000 0.0000 16.5228 0.0000
# 6 0.0000 0.0000 0.0000 0.0000 0.0000 1.0991
#
#
#
# Elastic Compliance Matrix: (Units=1/GPa)
#
#
# Indices 1 2 3 4 5 6 
#
# 1 0.009620 -0.002144 -0.002944 0.000000 0.000000 0.000000
# 2 -0.002144 0.009452 -0.002951 0.000000 0.000000 0.000000
# 3 -0.002944 -0.002951 0.011608 0.000000 0.000000 0.000000
# 4 0.000000 0.000000 0.000000 0.048693 0.000000 0.000000
# 5 0.000000 0.000000 0.000000 0.000000 0.060522 0.000000
# 6 0.000000 0.000000 0.000000 0.000000 0.000000 0.909839
#
#
# Mechanical properties :
#
#
# Convention : Reuss Voigt Hill
#
# Bulk Modulus (GPa) = 68.48205 68.84634 68.66419
# Shear Modulus (GPa) = 4.66994 23.30769 13.98881
#
# Velocity S-wave (km/s) = 1.51471 3.38395 2.62159
# Velocity P-wave (km/s) = 6.05843 7.00661 6.54970
#
# Compressibility (1/GPa) = 0.01460237
#
# Stress axis : x y z
#
# Youngs Moduli (GPa) = 103.94801 105.80213 86.15097
#
# Poissons Ratio (x) = 0.22682 0.25359
# Poissons Ratio (y) = 0.22285 0.25423
# Poissons Ratio (z) = 0.30598 0.31222
#
# Static dielectric constant tensor:
#      x y z
#    x 4.117810 0.000000 0.000000 
#    y 0.000000 3.944050 0.000000 
#    z 0.000000 0.000000 3.335500 
# 
# 
# High freq. dielectric constant tensor:
#      x y z
#    x 1.817620 0.000000 0.000000 
#    y 0.000000 1.805940 0.000000 
#    z 0.000000 0.000000 1.758880 
# 
# From -- ./inp_files/18937.got.cif
#   From: 2010.03.12/outbox.cif.g09.slc.cpg/sg64_10_cif.got.tgz:18937.got - 2010.04.10 20:19:32.
