data_PCOD8261445
_publ_section_title
;
Structure prediction by ZEFSAII (Michael W. Deem and Ramdas Pophale) SiO2 
 PCOD8261445
Probable space group: C M C A
;
_chemical_formula_sum "Si O2"
_cell_formula_units_Z 64
_cell_length_a 17.799027
_cell_length_b 11.662371
_cell_length_c 14.924240
_cell_angle_alpha 90.000000
_cell_angle_beta 90.000000
_cell_angle_gamma 90.000000
_cell_volume 3097.956671
_symmetry_space_group_name_H-M "C M C A"
_symmetry_group_IT_number 64
_symmetry_cell_setting 'orthorhombic'
loop_
_space_group_symop_operation_xyz
x,y,z
-x,1/2-y,1/2+z
x,-y,-z
-x,1/2+y,1/2-z
-x,-y,-z
x,1/2+y,1/2-z
-x,y,z
x,1/2-y,1/2+z
1/2+x,1/2+y,z
1/2-x,-y,1/2+z
1/2+x,1/2-y,-z
1/2-x,y,1/2-z
1/2-x,1/2-y,-z
1/2+x,y,1/2-z
1/2-x,1/2+y,z
1/2+x,-y,1/2+z
loop_
_atom_site_type_symbol
_atom_site_label
_atom_site_fract_x
_atom_site_fract_y
_atom_site_fract_z
Si Si1 0.250000 0.587711 0.250000
Si Si2 0.120149 0.736963 0.329369
Si Si3 0.000000 0.065933 0.153577
Si Si4 0.000000 0.315057 0.311193
Si Si5 0.000000 0.077555 0.366370
Si Si6 0.842513 0.467679 0.095191
O O1 0.189773 0.673058 0.288642
O O2 0.211697 0.508347 0.174924
O O3 0.148672 0.830400 0.400307
O O4 0.071996 0.637945 0.379832
O O5 0.073377 0.805161 0.252505
O O6 0.000000 0.062438 0.260539
O O7 0.000000 0.931437 0.128059
O O8 0.000000 0.214295 0.385354
O O9 0.925329 0.022678 0.406015
O O10 0.804588 0.500000 0.000000
#
# Coordination Sequence:
#
# PCOD8261445 Si02
#       6
#     8  16   8   8   8  16
#     4  12  22  40  62  94 124 180 210 256 336 386
#     4  10  20  35  60  88 122 162 214 256 313 385
#     4  10  17  34  64  91 117 162 217 252 319 384
#     4  10  16  34  61  91 119 161 211 259 304 398
#     4  10  18  36  61  95 119 161 211 261 324 374
#     4  12  24  40  65  97 130 167 219 275 321 386
#
# _framework density 20.658778000000002
#
# number of rings (size 3 to 8) (size 9 to 14) (size 15 to 20)
#    0.000    1.500    7.500    1.875    0.000    1.000 
#    0.000    0.000    0.000    1.500    0.000    0.875 
#    0.000    0.000    0.000    0.000    0.000    0.000 
#
# Total GULP energy -396616.523402 kJ/mol
# GULP energy per Si atom -12394.266356 kJ/mol
# Density = 2.061176 g / cm^3
# Si number density = 20.658778 Si / 1000 Ang^3
#
#
#
# Elastic Constant Matrix: (Units=GPa)
#
#
# Indices 1 2 3 4 5 6 
#
# 1 119.9697 38.3607 27.2618 0.0000 0.0000 0.0000
# 2 38.3607 155.2138 26.5242 0.0000 0.0000 0.0000
# 3 27.2618 26.5242 69.1705 0.0000 0.0000 0.0000
# 4 0.0000 0.0000 0.0000 17.6449 0.0000 0.0000
# 5 0.0000 0.0000 0.0000 0.0000 9.5017 0.0000
# 6 0.0000 0.0000 0.0000 0.0000 0.0000 7.4199
#
#
#
# Elastic Compliance Matrix: (Units=1/GPa)
#
#
# Indices 1 2 3 4 5 6 
#
# 1 0.009629 -0.001853 -0.003085 0.000000 0.000000 0.000000
# 2 -0.001853 0.007251 -0.002050 0.000000 0.000000 0.000000
# 3 -0.003085 -0.002050 0.016459 0.000000 0.000000 0.000000
# 4 0.000000 0.000000 0.000000 0.056674 0.000000 0.000000
# 5 0.000000 0.000000 0.000000 0.000000 0.105244 0.000000
# 6 0.000000 0.000000 0.000000 0.000000 0.000000 0.134772
#
#
# Mechanical properties :
#
#
# Convention : Reuss Voigt Hill
#
# Bulk Modulus (GPa) = 51.64285 58.73861 55.19073
# Shear Modulus (GPa) = 14.26703 23.72712 18.99707
#
# Velocity S-wave (km/s) = 2.63078 3.39267 3.03572
# Velocity P-wave (km/s) = 5.85494 6.62128 6.24987
#
# Compressibility (1/GPa) = 0.01936377
#
# Stress axis : x y z
#
# Youngs Moduli (GPa) = 103.85575 137.91266 60.75729
#
# Poissons Ratio (x) = 0.25550 0.18741
# Poissons Ratio (y) = 0.19240 0.12457
# Poissons Ratio (z) = 0.32034 0.28276
#
# Static dielectric constant tensor:
#      x y z
#    x 3.880140 0.000000 0.000000 
#    y 0.000000 4.641920 0.000000 
#    z 0.000000 0.000000 3.382770 
# 
# 
# High freq. dielectric constant tensor:
#      x y z
#    x 1.809650 0.000000 0.000000 
#    y 0.000000 1.832150 0.000000 
#    z 0.000000 0.000000 1.761580 
# 
# From -- ./inp_files/24943.got.cif
#   From: 2010.03.12/outbox.cif.g09.slc.cpg/sg64_13_cif.got.tgz:24943.got - 2010.04.10 20:19:32.
