data_PCOD8261792
_publ_section_title
;
Structure prediction by ZEFSAII (Michael W. Deem and Ramdas Pophale) SiO2 
 PCOD8261792
Probable space group: C M C A
;
_chemical_formula_sum "Si O2"
_cell_formula_units_Z 96
_cell_length_a 16.439529
_cell_length_b 18.636983
_cell_length_c 16.567502
_cell_angle_alpha 90.000000
_cell_angle_beta 90.000000
_cell_angle_gamma 90.000000
_cell_volume 5076.004652
_symmetry_space_group_name_H-M "C M C A"
_symmetry_group_IT_number 64
_symmetry_cell_setting 'orthorhombic'
loop_
_space_group_symop_operation_xyz
x,y,z
-x,1/2-y,1/2+z
x,-y,-z
-x,1/2+y,1/2-z
-x,-y,-z
x,1/2+y,1/2-z
-x,y,z
x,1/2-y,1/2+z
1/2+x,1/2+y,z
1/2-x,-y,1/2+z
1/2+x,1/2-y,-z
1/2-x,y,1/2-z
1/2-x,1/2-y,-z
1/2+x,y,1/2-z
1/2-x,1/2+y,z
1/2+x,-y,1/2+z
loop_
_atom_site_type_symbol
_atom_site_label
_atom_site_fract_x
_atom_site_fract_y
_atom_site_fract_z
Si Si1 0.904452 0.083180 0.737705
Si Si2 0.350163 0.701864 0.845726
Si Si3 0.905171 0.575426 0.218114
Si Si4 0.905138 0.213297 0.198902
Si Si5 0.407198 0.333791 0.565922
Si Si6 0.830265 0.678763 0.899981
O O1 0.886069 0.123002 0.823206
O O2 0.860268 0.119427 0.662534
O O3 0.000000 0.084447 0.721530
O O4 0.867880 0.002122 0.739358
O O5 0.346484 0.743912 0.760679
O O6 0.404972 0.750554 0.905008
O O7 0.264619 0.692417 0.889426
O O8 0.887054 0.628484 0.293952
O O9 0.872880 0.613013 0.135928
O O10 0.000000 0.565385 0.206127
O O11 0.879747 0.245629 0.112340
O O12 0.000000 0.229326 0.219012
O O13 0.500000 0.352101 0.542787
O O14 0.348836 0.347811 0.490048
#
# Coordination Sequence:
#
# PCOD8261792 Si02
#       6
#    16  16  16  16  16  16
#     4  10  18  32  52  74  97 131 169 205 244 292
#     4  10  19  32  48  71 102 131 161 201 245 295
#     4   8  17  31  51  74  97 125 167 209 243 285
#     4   9  16  31  51  72  95 130 173 210 243 291
#     4  10  19  34  53  75  99 130 166 206 250 297
#     4  11  20  30  48  76 103 129 162 207 254 296
#
# _framework density 18.912512
#
# number of rings (size 3 to 8) (size 9 to 14) (size 15 to 20)
#    0.000    2.333    0.000    7.500    0.000    0.667 
#    0.000    9.167    0.000    3.000    0.000    4.667 
#    0.000    0.000    0.000    0.333    0.000    0.000 
#
# Total GULP energy -594718.057429 kJ/mol
# GULP energy per Si atom -12389.959530 kJ/mol
# Density = 1.886947 g / cm^3
# Si number density = 18.912512 Si / 1000 Ang^3
#
#
#
# Elastic Constant Matrix: (Units=GPa)
#
#
# Indices 1 2 3 4 5 6 
#
# 1 53.1405 17.5813 0.2679 0.0000 0.0000 0.0000
# 2 17.5813 141.9511 27.9874 0.0000 0.0000 0.0000
# 3 0.2679 27.9874 33.6315 0.0000 0.0000 0.0000
# 4 0.0000 0.0000 0.0000 19.0058 0.0000 0.0000
# 5 0.0000 0.0000 0.0000 0.0000 2.6244 0.0000
# 6 0.0000 0.0000 0.0000 0.0000 0.0000 2.2278
#
#
#
# Elastic Compliance Matrix: (Units=1/GPa)
#
#
# Indices 1 2 3 4 5 6 
#
# 1 0.019763 -0.002891 0.002248 0.000000 0.000000 0.000000
# 2 -0.002891 0.008850 -0.007342 0.000000 0.000000 0.000000
# 3 0.002248 -0.007342 0.035826 0.000000 0.000000 0.000000
# 4 0.000000 0.000000 0.000000 0.052616 0.000000 0.000000
# 5 0.000000 0.000000 0.000000 0.000000 0.381046 0.000000
# 6 0.000000 0.000000 0.000000 0.000000 0.000000 0.448880
#
#
# Mechanical properties :
#
#
# Convention : Reuss Voigt Hill
#
# Bulk Modulus (GPa) = 20.63122 35.59959 28.11541
# Shear Modulus (GPa) = 5.10670 16.96401 11.03535
#
# Velocity S-wave (km/s) = 1.64500 2.99820 2.41818
# Velocity P-wave (km/s) = 3.81320 5.55426 4.76394
#
# Compressibility (1/GPa) = 0.04847022
#
# Stress axis : x y z
#
# Youngs Moduli (GPa) = 50.59908 112.99034 27.91271
#
# Poissons Ratio (x) = 0.32666 -0.06276
# Poissons Ratio (y) = 0.14629 0.20494
# Poissons Ratio (z) = -0.11377 0.82958
#
# Static dielectric constant tensor:
#      x y z
#    x 3.265740 0.000000 0.000000 
#    y 0.000000 3.975570 0.000000 
#    z 0.000000 0.000000 3.388580 
# 
# 
# High freq. dielectric constant tensor:
#      x y z
#    x 1.723220 0.000000 0.000000 
#    y 0.000000 1.733410 0.000000 
#    z 0.000000 0.000000 1.709180 
# 
# From -- ./inp_files/33281.got.cif
#   From: 2010.03.12/outbox.cif.g09.slc.cpg/sg64_17_cif.got.tgz:33281.got - 2010.04.10 20:19:32.
