data_PCOD8261361
_publ_section_title
;
Structure prediction by ZEFSAII (Michael W. Deem and Ramdas Pophale) SiO2 
 PCOD8261361
Probable space group: C M C M
;
_chemical_formula_sum "Si O2"
_cell_formula_units_Z 96
_cell_length_a 26.037660
_cell_length_b 13.016632
_cell_length_c 16.946044
_cell_angle_alpha 90.000000
_cell_angle_beta 90.000000
_cell_angle_gamma 90.000000
_cell_volume 5743.397942
_symmetry_space_group_name_H-M "C M C M"
_symmetry_group_IT_number 63
_symmetry_cell_setting 'orthorhombic'
loop_
_space_group_symop_operation_xyz
x,y,z
-x,-y,1/2+z
x,-y,-z
-x,y,1/2-z
-x,-y,-z
x,y,1/2-z
-x,y,z
x,-y,1/2+z
1/2+x,1/2+y,z
1/2-x,1/2-y,1/2+z
1/2+x,1/2-y,-z
1/2-x,1/2+y,1/2-z
1/2-x,1/2-y,-z
1/2+x,1/2+y,1/2-z
1/2-x,1/2+y,z
1/2+x,1/2-y,1/2+z
loop_
_atom_site_type_symbol
_atom_site_label
_atom_site_fract_x
_atom_site_fract_y
_atom_site_fract_z
Si Si1 0.058689 0.217406 0.981246
Si Si2 0.132270 0.924292 0.929063
Si Si3 0.689858 0.776100 0.838868
Si Si4 0.396068 0.612075 0.661226
Si Si5 0.857775 0.618181 0.016368
Si Si6 0.786554 0.753141 0.925098
O O1 0.061085 0.155641 0.898329
O O2 0.087238 0.326584 0.974619
O O3 0.000000 0.237845 0.003964
O O4 0.084669 0.149181 0.049378
O O5 0.183574 0.859989 0.913052
O O6 0.116185 0.991914 0.853426
O O7 0.145749 0.000000 0.000000
O O8 0.682094 0.818540 0.750000
O O9 0.656119 0.675074 0.854266
O O10 0.674178 0.863872 0.902261
O O11 0.749359 0.740785 0.849564
O O12 0.416614 0.625439 0.750000
O O13 0.868006 0.500000 0.000000
O O14 0.827650 0.662269 0.939530
O O15 0.750000 0.750000 0.000000
#
# Coordination Sequence:
#
# PCOD8261361 Si02
#       6
#    16  16  16  16  16  16
#     4   9  18  32  49  69  91 116 151 194 234 274
#     4   9  17  29  45  65  90 119 148 184 227 271
#     4   9  18  31  46  68  97 124 154 192 227 266
#     4   9  18  31  46  68  96 120 146 186 235 282
#     4   9  18  32  49  68  93 125 158 192 229 270
#     4   9  17  28  43  65  93 124 155 184 219 264
#
# _framework density 16.714842999999998
#
# number of rings (size 3 to 8) (size 9 to 14) (size 15 to 20)
#    0.000    3.000    0.000    3.000    0.000    9.667 
#    0.000    2.500    0.000    1.000    0.000    0.000 
#    0.000    0.000    0.000    0.000    0.000    0.000 
#
# Total GULP energy -594906.426845 kJ/mol
# GULP energy per Si atom -12393.883893 kJ/mol
# Density = 1.667680 g / cm^3
# Si number density = 16.714843 Si / 1000 Ang^3
#
#
#
# Elastic Constant Matrix: (Units=GPa)
#
#
# Indices 1 2 3 4 5 6 
#
# 1 99.9427 32.1561 22.0197 0.0000 0.0000 0.0000
# 2 32.1561 107.7768 28.6463 0.0000 0.0000 0.0000
# 3 22.0197 28.6463 65.7379 0.0000 0.0000 0.0000
# 4 0.0000 0.0000 0.0000 18.7452 0.0000 0.0000
# 5 0.0000 0.0000 0.0000 0.0000 15.4483 0.0000
# 6 0.0000 0.0000 0.0000 0.0000 0.0000 12.6440
#
#
#
# Elastic Compliance Matrix: (Units=1/GPa)
#
#
# Indices 1 2 3 4 5 6 
#
# 1 0.011465 -0.002714 -0.002657 0.000000 0.000000 0.000000
# 2 -0.002714 0.011136 -0.003944 0.000000 0.000000 0.000000
# 3 -0.002657 -0.003944 0.017821 0.000000 0.000000 0.000000
# 4 0.000000 0.000000 0.000000 0.053347 0.000000 0.000000
# 5 0.000000 0.000000 0.000000 0.000000 0.064732 0.000000
# 6 0.000000 0.000000 0.000000 0.000000 0.000000 0.079089
#
#
# Mechanical properties :
#
#
# Convention : Reuss Voigt Hill
#
# Bulk Modulus (GPa) = 45.89079 48.78905 47.33992
# Shear Modulus (GPa) = 18.97650 22.07652 20.52651
#
# Velocity S-wave (km/s) = 3.37309 3.63819 3.50814
# Velocity P-wave (km/s) = 6.53338 6.84843 6.69276
#
# Compressibility (1/GPa) = 0.02179086
#
# Stress axis : x y z
#
# Youngs Moduli (GPa) = 87.22572 89.79520 56.11487
#
# Poissons Ratio (x) = 0.24372 0.14912
# Poissons Ratio (y) = 0.23675 0.22130
# Poissons Ratio (z) = 0.23180 0.35413
#
# Static dielectric constant tensor:
#      x y z
#    x 3.146510 0.000000 0.000000 
#    y 0.000000 3.039120 0.000000 
#    z 0.000000 0.000000 3.102910 
# 
# 
# High freq. dielectric constant tensor:
#      x y z
#    x 1.637950 0.000000 0.000000 
#    y 0.000000 1.631350 0.000000 
#    z 0.000000 0.000000 1.625890 
# 
# From -- ./inp_files/47960.got.cif
#   From: 2010.03.12/outbox.cif.g09.slc.cpg/sg63_24_cif.got.tgz:47960.got - 2010.04.10 19:34:48.
