data_PCOD8261089
_publ_section_title
;
Structure prediction by ZEFSAII (Michael W. Deem and Ramdas Pophale) SiO2 
 PCOD8261089
Probable space group: C M C M
;
_chemical_formula_sum "Si O2"
_cell_formula_units_Z 80
_cell_length_a 8.783041
_cell_length_b 27.619092
_cell_length_c 18.265453
_cell_angle_alpha 90.000000
_cell_angle_beta 90.000000
_cell_angle_gamma 90.000000
_cell_volume 4430.826601
_symmetry_space_group_name_H-M "C M C M"
_symmetry_group_IT_number 63
_symmetry_cell_setting 'orthorhombic'
loop_
_space_group_symop_operation_xyz
x,y,z
-x,-y,1/2+z
x,-y,-z
-x,y,1/2-z
-x,-y,-z
x,y,1/2-z
-x,y,z
x,-y,1/2+z
1/2+x,1/2+y,z
1/2-x,1/2-y,1/2+z
1/2+x,1/2-y,-z
1/2-x,1/2+y,1/2-z
1/2-x,1/2-y,-z
1/2+x,1/2+y,1/2-z
1/2-x,1/2+y,z
1/2+x,1/2-y,1/2+z
loop_
_atom_site_type_symbol
_atom_site_label
_atom_site_fract_x
_atom_site_fract_y
_atom_site_fract_z
Si Si1 0.178845 0.107948 0.538534
Si Si2 0.820652 0.700954 0.471530
Si Si3 0.818587 0.958330 0.167863
Si Si4 0.678631 0.659335 0.332480
Si Si5 0.321949 0.558498 0.391325
O O1 0.267712 0.157370 0.523878
O O2 0.234014 0.085800 0.615815
O O3 0.217758 0.068085 0.476308
O O4 0.000000 0.119924 0.537699
O O5 0.750000 0.750000 0.500000
O O6 0.768099 0.693889 0.387768
O O7 0.000000 0.704821 0.474351
O O8 0.758231 0.948637 0.250000
O O9 0.000000 0.961352 0.166542
O O10 0.746565 0.008756 0.137677
O O11 0.714360 0.676143 0.250000
O O12 0.500000 0.662879 0.350923
O O13 0.735230 0.604032 0.343197
O O14 0.500000 0.552615 0.380324
#
# Coordination Sequence:
#
# PCOD8261089 Si02
#       5
#    16  16  16  16  16
#     4   9  17  30  48  71  99 131 167 207 251 298
#     4  11  22  37  56  74  95 127 168 212 257 305
#     4   9  15  23  41  72 105 134 167 206 242 281
#     4   9  17  31  53  81 109 132 158 199 250 299
#     4   8  13  23  43  72 103 133 164 198 238 287
#
# _framework density 18.055322
#
# number of rings (size 3 to 8) (size 9 to 14) (size 15 to 20)
#    0.000    2.800    0.000    4.200    0.000    5.200 
#    0.000    1.000    0.000   13.800    0.000    0.000 
#    0.000    0.000    0.000    0.000    0.000    0.000 
#
# Total GULP energy -495836.703377 kJ/mol
# GULP energy per Si atom -12395.917584 kJ/mol
# Density = 1.801423 g / cm^3
# Si number density = 18.055322 Si / 1000 Ang^3
#
#
#
# Elastic Constant Matrix: (Units=GPa)
#
#
# Indices 1 2 3 4 5 6 
#
# 1 67.3563 48.5030 46.2772 0.0000 0.0000 0.0000
# 2 48.5030 120.3347 83.3245 0.0000 0.0000 0.0000
# 3 46.2772 83.3245 152.3996 0.0000 0.0000 0.0000
# 4 0.0000 0.0000 0.0000 -275.2483 0.0000 0.0000
# 5 0.0000 0.0000 0.0000 0.0000 17.5506 0.0000
# 6 0.0000 0.0000 0.0000 0.0000 0.0000 19.9907
#
#
#
# Elastic Compliance Matrix: (Units=1/GPa)
#
#
# Indices 1 2 3 4 5 6 
#
# 1 0.021689 -0.006730 -0.002907 0.000000 0.000000 0.000000
# 2 -0.006730 0.015461 -0.006410 0.000000 0.000000 0.000000
# 3 -0.002907 -0.006410 0.010949 0.000000 0.000000 0.000000
# 4 0.000000 0.000000 0.000000 -0.003633 0.000000 0.000000
# 5 0.000000 0.000000 0.000000 0.000000 0.056978 0.000000
# 6 0.000000 0.000000 0.000000 0.000000 0.000000 0.050023
#
#
# Mechanical properties :
#
#
# Convention : Reuss Voigt Hill
#
# Bulk Modulus (GPa) = 62.47231 77.36667 69.91949
# Shear Modulus (GPa) = 26.46965 -36.74233 -5.13634
#
# Velocity S-wave (km/s) = 3.83303 -4.51598 -1.68848
# Velocity P-wave (km/s) = 7.36649 3.96872 5.91675
#
# Compressibility (1/GPa) = 0.01600709
#
# Stress axis : x y z
#
# Youngs Moduli (GPa) = 46.10544 64.67869 91.33297
#
# Poissons Ratio (x) = 0.43526 0.26548
# Poissons Ratio (y) = 0.31027 0.58543
# Poissons Ratio (z) = 0.13402 0.41458
#
# Static dielectric constant tensor:
#      x y z
#    x 2.883570 0.000000 0.000000 
#    y 0.000000 3.320850 0.000000 
#    z 0.000000 0.000000 3.417520 
# 
# 
# High freq. dielectric constant tensor:
#      x y z
#    x 1.650360 0.000000 0.000000 
#    y 0.000000 1.691640 0.000000 
#    z 0.000000 0.000000 1.705990 
# 
# From -- ./inp_files/40415.got.cif
#   From: 2010.03.12/outbox.cif.g09.slc.cpg/sg63_21_cif.got.tgz:40415.got - 2010.04.10 19:34:48.
