data_PCOD8261383
_publ_section_title
;
Structure prediction by ZEFSAII (Michael W. Deem and Ramdas Pophale) SiO2 
 PCOD8261383
Probable space group: C M C A
;
_chemical_formula_sum "Si O2"
_cell_formula_units_Z 88
_cell_length_a 18.049897
_cell_length_b 14.527729
_cell_length_c 18.540273
_cell_angle_alpha 90.000000
_cell_angle_beta 90.000000
_cell_angle_gamma 90.000000
_cell_volume 4861.704771
_symmetry_space_group_name_H-M "C M C A"
_symmetry_group_IT_number 64
_symmetry_cell_setting 'orthorhombic'
loop_
_space_group_symop_operation_xyz
x,y,z
-x,1/2-y,1/2+z
x,-y,-z
-x,1/2+y,1/2-z
-x,-y,-z
x,1/2+y,1/2-z
-x,y,z
x,1/2-y,1/2+z
1/2+x,1/2+y,z
1/2-x,-y,1/2+z
1/2+x,1/2-y,-z
1/2-x,y,1/2-z
1/2-x,1/2-y,-z
1/2+x,y,1/2-z
1/2-x,1/2+y,z
1/2+x,-y,1/2+z
loop_
_atom_site_type_symbol
_atom_site_label
_atom_site_fract_x
_atom_site_fract_y
_atom_site_fract_z
Si Si1 0.262360 0.765753 0.584175
Si Si2 0.416581 0.482917 0.772607
Si Si3 0.802777 0.917249 0.137657
Si Si4 0.128476 0.500000 0.500000
Si Si5 0.919668 0.655726 0.401294
Si Si6 0.706646 0.079343 0.181282
O O1 0.250000 0.750000 0.500000
O O2 0.226860 0.686646 0.633855
O O3 0.351391 0.773155 0.594410
O O4 0.219942 0.857973 0.610714
O O5 0.500000 0.514575 0.755011
O O6 0.373619 0.570322 0.808583
O O7 0.412854 0.398108 0.827018
O O8 0.379284 0.440923 0.700120
O O9 0.737178 0.977909 0.168390
O O10 0.819555 0.950931 0.057583
O O11 0.079346 0.419698 0.534835
O O12 0.000000 0.707178 0.405304
O O13 0.750000 0.123616 0.250000
#
# Coordination Sequence:
#
# PCOD8261383 Si02
#       6
#    16  16  16   8  16  16
#     4  12  21  35  58  88 121 156 197 241 292 365
#     4   9  19  38  58  81 112 149 193 247 298 335
#     4  10  19  32  56  83 110 148 195 235 282 358
#     4  10  15  34  54  84 111 144 188 236 295 340
#     4  10  19  33  56  84 114 147 188 244 299 342
#     4  10  19  37  55  79 114 155 196 239 296 348
#
# _framework density 18.100646000000001
#
# number of rings (size 3 to 8) (size 9 to 14) (size 15 to 20)
#    0.000    1.818    7.273    0.273    0.000    2.909 
#    0.000    2.727    0.000    0.000    0.000    3.818 
#    0.000    0.000    0.000    0.000    0.000    0.000 
#
# Total GULP energy -545188.142325 kJ/mol
# GULP energy per Si atom -12390.639598 kJ/mol
# Density = 1.805945 g / cm^3
# Si number density = 18.100646 Si / 1000 Ang^3
#
#
#
# Elastic Constant Matrix: (Units=GPa)
#
#
# Indices 1 2 3 4 5 6 
#
# 1 172.3592 53.6845 45.0638 0.0000 0.0000 0.0000
# 2 53.6845 76.0354 19.6494 0.0000 0.0000 0.0000
# 3 45.0638 19.6494 70.1328 0.0000 0.0000 0.0000
# 4 0.0000 0.0000 0.0000 22.8494 0.0000 0.0000
# 5 0.0000 0.0000 0.0000 0.0000 12.8300 0.0000
# 6 0.0000 0.0000 0.0000 0.0000 0.0000 32.2974
#
#
#
# Elastic Compliance Matrix: (Units=1/GPa)
#
#
# Indices 1 2 3 4 5 6 
#
# 1 0.008368 -0.004871 -0.004012 0.000000 0.000000 0.000000
# 2 -0.004871 0.017014 -0.001637 0.000000 0.000000 0.000000
# 3 -0.004012 -0.001637 0.017295 0.000000 0.000000 0.000000
# 4 0.000000 0.000000 0.000000 0.043765 0.000000 0.000000
# 5 0.000000 0.000000 0.000000 0.000000 0.077943 0.000000
# 6 0.000000 0.000000 0.000000 0.000000 0.000000 0.030962
#
#
# Mechanical properties :
#
#
# Convention : Reuss Voigt Hill
#
# Bulk Modulus (GPa) = 46.21733 61.70254 53.95994
# Shear Modulus (GPa) = 22.36136 26.93735 24.64935
#
# Velocity S-wave (km/s) = 3.51862 3.86190 3.69425
# Velocity P-wave (km/s) = 6.48819 7.35176 6.93343
#
# Compressibility (1/GPa) = 0.02163690
#
# Stress axis : x y z
#
# Youngs Moduli (GPa) = 119.50123 58.77432 57.81949
#
# Poissons Ratio (x) = 0.28632 0.23198
# Poissons Ratio (y) = 0.58215 0.09464
# Poissons Ratio (z) = 0.47945 0.09620
#
# Static dielectric constant tensor:
#      x y z
#    x 3.587010 0.000000 0.000000 
#    y 0.000000 3.173860 0.000000 
#    z 0.000000 0.000000 3.694540 
# 
# 
# High freq. dielectric constant tensor:
#      x y z
#    x 1.699040 0.000000 0.000000 
#    y 0.000000 1.671270 0.000000 
#    z 0.000000 0.000000 1.702520 
# 
# From -- ./inp_files/33102.got.cif
#   From: 2010.03.12/outbox.cif.g09.slc.cpg/sg64_17_cif.got.tgz:33102.got - 2010.04.10 20:19:32.
