data_PCOD8261904
_publ_section_title
;
Structure prediction by ZEFSAII (Michael W. Deem and Ramdas Pophale) SiO2 
 PCOD8261904
Probable space group: C M C A
;
_chemical_formula_sum "Si O2"
_cell_formula_units_Z 112
_cell_length_a 17.067374
_cell_length_b 12.859098
_cell_length_c 22.464592
_cell_angle_alpha 90.000000
_cell_angle_beta 90.000000
_cell_angle_gamma 90.000000
_cell_volume 4930.327254
_symmetry_space_group_name_H-M "C M C A"
_symmetry_group_IT_number 64
_symmetry_cell_setting 'orthorhombic'
loop_
_space_group_symop_operation_xyz
x,y,z
-x,1/2-y,1/2+z
x,-y,-z
-x,1/2+y,1/2-z
-x,-y,-z
x,1/2+y,1/2-z
-x,y,z
x,1/2-y,1/2+z
1/2+x,1/2+y,z
1/2-x,-y,1/2+z
1/2+x,1/2-y,-z
1/2-x,y,1/2-z
1/2-x,1/2-y,-z
1/2+x,y,1/2-z
1/2-x,1/2+y,z
1/2+x,-y,1/2+z
loop_
_atom_site_type_symbol
_atom_site_label
_atom_site_fract_x
_atom_site_fract_y
_atom_site_fract_z
Si Si1 0.209058 0.171523 0.583900
Si Si2 0.283787 0.886225 0.954436
Si Si3 0.881473 0.523408 0.435635
Si Si4 0.914057 0.201710 0.144482
Si Si5 0.352926 0.868714 0.343526
Si Si6 0.591513 0.137582 0.143577
Si Si7 0.158650 0.051873 0.241017
O O1 0.254578 0.270438 0.558220
O O2 0.193440 0.099227 0.525073
O O3 0.129103 0.196689 0.618911
O O4 0.262933 0.122605 0.635185
O O5 0.213338 0.963485 0.936790
O O6 0.360367 0.904197 0.913513
O O7 0.916139 0.500000 0.500000
O O8 0.923859 0.625309 0.411724
O O9 0.903854 0.424565 0.394980
O O10 0.865888 0.142645 0.195347
O O11 0.000000 0.233904 0.168085
O O12 0.383742 0.752665 0.334267
O O13 0.360316 0.936169 0.283221
O O14 0.500000 0.134254 0.127701
O O15 0.610445 0.061102 0.198120
O O16 0.250000 0.069854 0.250000
#
# Coordination Sequence:
#
# PCOD8261904 Si02
#       7
#    16  16  16  16  16  16  16
#     4   9  17  34  59  88 122 158 209 261 305 375
#     4   9  18  35  58  87 123 163 211 258 305 366
#     4  10  18  34  60  89 121 164 216 269 306 362
#     4  10  22  36  56  89 129 164 196 262 338 381
#     4  10  21  37  65  97 119 161 226 271 316 378
#     4  11  24  40  62  93 132 174 208 260 335 401
#     4  11  23  43  65  88 120 167 225 277 314 377
#
# _framework density 22.716545
#
# number of rings (size 3 to 8) (size 9 to 14) (size 15 to 20)
#    0.000    2.000    1.429    3.857    2.000    5.429 
#    0.000    0.000    0.000    6.429    0.000    0.000 
#    0.000    0.000    0.000    0.000    0.000    0.000 
#
# Total GULP energy -694188.419585 kJ/mol
# GULP energy per Si atom -12396.221778 kJ/mol
# Density = 2.266484 g / cm^3
# Si number density = 22.716545 Si / 1000 Ang^3
#
#
#
# Elastic Constant Matrix: (Units=GPa)
#
#
# Indices 1 2 3 4 5 6 
#
# 1 124.6173 5.0929 41.5253 0.0000 0.0000 0.0000
# 2 5.0929 39.9840 23.7805 0.0000 0.0000 0.0000
# 3 41.5253 23.7805 124.5809 0.0000 0.0000 0.0000
# 4 0.0000 0.0000 0.0000 36.4847 0.0000 0.0000
# 5 0.0000 0.0000 0.0000 0.0000 17.9242 0.0000
# 6 0.0000 0.0000 0.0000 0.0000 0.0000 11.2851
#
#
#
# Elastic Compliance Matrix: (Units=1/GPa)
#
#
# Indices 1 2 3 4 5 6 
#
# 1 0.009046 0.000723 -0.003153 0.000000 0.000000 0.000000
# 2 0.000723 0.028271 -0.005638 0.000000 0.000000 0.000000
# 3 -0.003153 -0.005638 0.010154 0.000000 0.000000 0.000000
# 4 0.000000 0.000000 0.000000 0.027409 0.000000 0.000000
# 5 0.000000 0.000000 0.000000 0.000000 0.055791 0.000000
# 6 0.000000 0.000000 0.000000 0.000000 0.000000 0.088613
#
#
# Mechanical properties :
#
#
# Convention : Reuss Voigt Hill
#
# Bulk Modulus (GPa) = 31.91259 47.77549 39.84404
# Shear Modulus (GPa) = 20.33656 27.72436 24.03046
#
# Velocity S-wave (km/s) = 2.99529 3.49728 3.25597
# Velocity P-wave (km/s) = 5.10304 6.11431 5.63142
#
# Compressibility (1/GPa) = 0.03133560
#
# Stress axis : x y z
#
# Youngs Moduli (GPa) = 110.54954 35.37216 98.48299
#
# Poissons Ratio (x) = -0.02558 0.31053
# Poissons Ratio (y) = -0.07995 0.55520
# Poissons Ratio (z) = 0.34858 0.19941
#
# Static dielectric constant tensor:
#      x y z
#    x 3.866040 0.000000 0.000000 
#    y 0.000000 4.089960 0.000000 
#    z 0.000000 0.000000 4.278410 
# 
# 
# High freq. dielectric constant tensor:
#      x y z
#    x 1.874440 0.000000 0.000000 
#    y 0.000000 1.893880 0.000000 
#    z 0.000000 0.000000 1.903870 
# 
# From -- ./inp_files/45233.got.cif
#   From: 2010.03.12/outbox.cif.g09.slc.cpg/sg64_23_cif.got.tgz:45233.got - 2010.04.10 20:19:32.
