data_PCOD8261853
_publ_section_title
;
Structure prediction by ZEFSAII (Michael W. Deem and Ramdas Pophale) SiO2 
 PCOD8261853
Probable space group: C M C A
;
_chemical_formula_sum "Si O2"
_cell_formula_units_Z 96
_cell_length_a 22.792835
_cell_length_b 7.850914
_cell_length_c 27.271101
_cell_angle_alpha 90.000000
_cell_angle_beta 90.000000
_cell_angle_gamma 90.000000
_cell_volume 4880.015916
_symmetry_space_group_name_H-M "C M C A"
_symmetry_group_IT_number 64
_symmetry_cell_setting 'orthorhombic'
loop_
_space_group_symop_operation_xyz
x,y,z
-x,1/2-y,1/2+z
x,-y,-z
-x,1/2+y,1/2-z
-x,-y,-z
x,1/2+y,1/2-z
-x,y,z
x,1/2-y,1/2+z
1/2+x,1/2+y,z
1/2-x,-y,1/2+z
1/2+x,1/2-y,-z
1/2-x,y,1/2-z
1/2-x,1/2-y,-z
1/2+x,y,1/2-z
1/2-x,1/2+y,z
1/2+x,-y,1/2+z
loop_
_atom_site_type_symbol
_atom_site_label
_atom_site_fract_x
_atom_site_fract_y
_atom_site_fract_z
Si Si1 0.432471 0.010652 0.341327
Si Si2 0.431989 0.305448 0.012371
Si Si3 0.932854 0.173277 0.592417
Si Si4 0.325501 0.934396 0.719031
Si Si5 0.714172 0.208326 0.184127
Si Si6 0.380634 0.317310 0.610212
O O1 0.500000 0.020713 0.325502
O O2 0.416787 0.142944 0.384704
O O3 0.394065 0.072896 0.294932
O O4 0.417955 0.816989 0.357211
O O5 0.500000 0.289500 0.030242
O O6 0.387461 0.239548 0.053904
O O7 0.417556 0.500000 0.000000
O O8 0.420301 0.186526 0.965507
O O9 0.000000 0.132721 0.602276
O O10 0.899628 0.013717 0.616472
O O11 0.318668 0.916852 0.777369
O O12 0.284901 0.807279 0.686131
O O13 0.298245 0.109851 0.704523
O O14 0.686973 0.185905 0.129413
#
# Coordination Sequence:
#
# PCOD8261853 Si02
#       6
#    16  16  16  16  16  16
#     4  10  21  37  56  85 120 151 186 241 296 345
#     4  10  18  33  55  81 120 161 198 240 287 350
#     4  10  20  32  56  83 115 159 192 235 286 342
#     4  10  21  39  60  85 113 150 198 236 290 356
#     4  10  22  37  64  86 111 153 195 250 286 347
#     4  11  21  34  57  88 117 147 198 242 288 340
#
# _framework density 19.672066000000001
#
# number of rings (size 3 to 8) (size 9 to 14) (size 15 to 20)
#    0.000    1.833    1.667    4.000    4.667    1.333 
#    0.000    5.000    0.000    1.000    4.333    0.000 
#    0.000    0.000    0.000    0.000    0.000    0.000 
#
# Total GULP energy -594743.656192 kJ/mol
# GULP energy per Si atom -12390.492837 kJ/mol
# Density = 1.962729 g / cm^3
# Si number density = 19.672066 Si / 1000 Ang^3
#
#
#
# Elastic Constant Matrix: (Units=GPa)
#
#
# Indices 1 2 3 4 5 6 
#
# 1 95.6733 28.5210 37.3166 0.0000 0.0000 0.0000
# 2 28.5210 82.0900 15.8226 0.0000 0.0000 0.0000
# 3 37.3166 15.8226 67.4747 0.0000 0.0000 0.0000
# 4 0.0000 0.0000 0.0000 28.1926 0.0000 0.0000
# 5 0.0000 0.0000 0.0000 0.0000 40.7579 0.0000
# 6 0.0000 0.0000 0.0000 0.0000 0.0000 -98.8490
#
#
#
# Elastic Compliance Matrix: (Units=1/GPa)
#
#
# Indices 1 2 3 4 5 6 
#
# 1 0.014276 -0.003601 -0.007051 0.000000 0.000000 0.000000
# 2 -0.003601 0.013667 -0.001213 0.000000 0.000000 0.000000
# 3 -0.007051 -0.001213 0.019004 0.000000 0.000000 0.000000
# 4 0.000000 0.000000 0.000000 0.035470 0.000000 0.000000
# 5 0.000000 0.000000 0.000000 0.000000 0.024535 0.000000
# 6 0.000000 0.000000 0.000000 0.000000 0.000000 -0.010116
#
#
# Mechanical properties :
#
#
# Convention : Reuss Voigt Hill
#
# Bulk Modulus (GPa) = 43.07231 45.39539 44.23385
# Shear Modulus (GPa) = 38.96976 4.92549 21.94763
#
# Velocity S-wave (km/s) = 4.45564 1.58406 3.34380
# Velocity P-wave (km/s) = 6.95794 5.14508 6.11902
#
# Compressibility (1/GPa) = 0.02321677
#
# Stress axis : x y z
#
# Youngs Moduli (GPa) = 70.04873 73.17053 52.61973
#
# Poissons Ratio (x) = 0.26348 0.37101
# Poissons Ratio (y) = 0.25224 0.06385
# Poissons Ratio (z) = 0.49390 0.08878
#
# Static dielectric constant tensor:
#      x y z
#    x 8.233710 0.000000 0.000000 
#    y 0.000000 3.932160 0.000000 
#    z 0.000000 0.000000 3.346470 
# 
# 
# High freq. dielectric constant tensor:
#      x y z
#    x 1.738650 0.000000 0.000000 
#    y 0.000000 1.792180 0.000000 
#    z 0.000000 0.000000 1.749960 
# 
# From -- ./inp_files/50956.got.cif
#   From: 2010.03.12/outbox.cif.g09.slc.cpg/sg64_26_cif.got.tgz:50956.got - 2010.04.10 20:19:32.
