data_PCOD8261331
_publ_section_title
;
Structure prediction by ZEFSAII (Michael W. Deem and Ramdas Pophale) SiO2 
 PCOD8261331
Probable space group: C M C M
;
_chemical_formula_sum "Si O2"
_cell_formula_units_Z 80
_cell_length_a 9.200394
_cell_length_b 20.024481
_cell_length_c 25.425992
_cell_angle_alpha 90.000000
_cell_angle_beta 90.000000
_cell_angle_gamma 90.000000
_cell_volume 4684.309704
_symmetry_space_group_name_H-M "C M C M"
_symmetry_group_IT_number 63
_symmetry_cell_setting 'orthorhombic'
loop_
_space_group_symop_operation_xyz
x,y,z
-x,-y,1/2+z
x,-y,-z
-x,y,1/2-z
-x,-y,-z
x,y,1/2-z
-x,y,z
x,-y,1/2+z
1/2+x,1/2+y,z
1/2-x,1/2-y,1/2+z
1/2+x,1/2-y,-z
1/2-x,1/2+y,1/2-z
1/2-x,1/2-y,-z
1/2+x,1/2+y,1/2-z
1/2-x,1/2+y,z
1/2+x,1/2-y,1/2+z
loop_
_atom_site_type_symbol
_atom_site_label
_atom_site_fract_x
_atom_site_fract_y
_atom_site_fract_z
Si Si1 0.828629 0.931394 0.189861
Si Si2 0.332083 0.677384 0.610645
Si Si3 0.171445 0.672178 0.104503
Si Si4 0.331525 0.064998 0.190147
Si Si5 0.330736 0.680526 0.005085
O O1 0.787894 0.914483 0.250000
O O2 0.761598 0.872530 0.153416
O O3 0.000000 0.938955 0.181962
O O4 0.757789 0.000659 0.171764
O O5 0.500000 0.683939 0.624930
O O6 0.268122 0.752650 0.615018
O O7 0.310964 0.645597 0.552096
O O8 0.213172 0.627688 0.154486
O O9 0.000000 0.672428 0.092816
O O10 0.253196 0.641230 0.053087
O O11 0.293521 0.084653 0.250000
O O12 0.500000 0.047449 0.183583
O O13 0.500000 0.690946 0.017959
O O14 0.250000 0.750000 0.000000
#
# Coordination Sequence:
#
# PCOD8261331 Si02
#       5
#    16  16  16  16  16
#     4   9  17  30  48  67  88 116 149 185 224 267
#     4   8  15  28  46  68  90 113 146 185 222 261
#     4   9  17  30  48  69  92 118 152 190 224 266
#     4   9  18  32  48  66  91 122 151 183 228 275
#     4   9  16  28  46  67  93 122 150 184 227 272
#
# _framework density 17.078289999999999
#
# number of rings (size 3 to 8) (size 9 to 14) (size 15 to 20)
#    0.000    3.200    0.000    1.800    0.000    1.600 
#    0.000   10.000    0.000    6.000    0.000    5.600 
#    0.000    0.000    0.000    0.000    0.000    0.000 
#
# Total GULP energy -495683.531196 kJ/mol
# GULP energy per Si atom -12392.088280 kJ/mol
# Density = 1.703942 g / cm^3
# Si number density = 17.078290 Si / 1000 Ang^3
#
#
#
# Elastic Constant Matrix: (Units=GPa)
#
#
# Indices 1 2 3 4 5 6 
#
# 1 43.6278 30.2122 41.5312 0.0000 0.0000 0.0000
# 2 30.2122 99.1319 80.3162 0.0000 0.0000 0.0000
# 3 41.5312 80.3162 129.5387 0.0000 0.0000 0.0000
# 4 0.0000 0.0000 0.0000 17.2461 0.0000 0.0000
# 5 0.0000 0.0000 0.0000 0.0000 26.6124 0.0000
# 6 0.0000 0.0000 0.0000 0.0000 0.0000 21.7573
#
#
#
# Elastic Compliance Matrix: (Units=1/GPa)
#
#
# Indices 1 2 3 4 5 6 
#
# 1 0.033435 -0.003024 -0.008844 0.000000 0.000000 0.000000
# 2 -0.003024 0.020543 -0.011768 0.000000 0.000000 0.000000
# 3 -0.008844 -0.011768 0.017851 0.000000 0.000000 0.000000
# 4 0.000000 0.000000 0.000000 0.057984 0.000000 0.000000
# 5 0.000000 0.000000 0.000000 0.000000 0.037576 0.000000
# 6 0.000000 0.000000 0.000000 0.000000 0.000000 0.045962
#
#
# Mechanical properties :
#
#
# Convention : Reuss Voigt Hill
#
# Bulk Modulus (GPa) = 40.72137 64.04639 52.38388
# Shear Modulus (GPa) = 18.60050 21.13908 19.86979
#
# Velocity S-wave (km/s) = 3.30378 3.52202 3.41464
# Velocity P-wave (km/s) = 6.20072 7.35680 6.80336
#
# Compressibility (1/GPa) = 0.02455713
#
# Stress axis : x y z
#
# Youngs Moduli (GPa) = 29.90893 48.67765 56.01779
#
# Poissons Ratio (x) = 0.14721 0.49545
# Poissons Ratio (y) = 0.09045 0.65920
# Poissons Ratio (z) = 0.26453 0.57282
#
# Static dielectric constant tensor:
#      x y z
#    x 3.131100 0.000000 0.000000 
#    y 0.000000 3.166330 0.000000 
#    z 0.000000 0.000000 3.850710 
# 
# 
# High freq. dielectric constant tensor:
#      x y z
#    x 1.640240 0.000000 0.000000 
#    y 0.000000 1.631750 0.000000 
#    z 0.000000 0.000000 1.671660 
# 
# From -- ./inp_files/66554.got.cif
#   From: 2010.03.12/outbox.cif.g09.slc.cpg/sg63_34_cif.got.tgz:66554.got - 2010.04.10 19:34:48.
