data_PCOD8261617
_publ_section_title
;
Structure prediction by ZEFSAII (Michael W. Deem and Ramdas Pophale) SiO2 
 PCOD8261617
Probable space group: C M C A
;
_chemical_formula_sum "Si O2"
_cell_formula_units_Z 96
_cell_length_a 22.813094
_cell_length_b 19.731514
_cell_length_c 11.830489
_cell_angle_alpha 90.000000
_cell_angle_beta 90.000000
_cell_angle_gamma 90.000000
_cell_volume 5325.339450
_symmetry_space_group_name_H-M "C M C A"
_symmetry_group_IT_number 64
_symmetry_cell_setting 'orthorhombic'
loop_
_space_group_symop_operation_xyz
x,y,z
-x,1/2-y,1/2+z
x,-y,-z
-x,1/2+y,1/2-z
-x,-y,-z
x,1/2+y,1/2-z
-x,y,z
x,1/2-y,1/2+z
1/2+x,1/2+y,z
1/2-x,-y,1/2+z
1/2+x,1/2-y,-z
1/2-x,y,1/2-z
1/2-x,1/2-y,-z
1/2+x,y,1/2-z
1/2-x,1/2+y,z
1/2+x,-y,1/2+z
loop_
_atom_site_type_symbol
_atom_site_label
_atom_site_fract_x
_atom_site_fract_y
_atom_site_fract_z
Si Si1 0.300974 0.214552 0.831549
Si Si2 0.310093 0.554673 0.315202
Si Si3 0.933528 0.578013 0.529981
Si Si4 0.249790 0.888113 0.484221
Si Si5 0.333569 0.418275 0.206684
Si Si6 0.643229 0.852614 0.640631
O O1 0.250000 0.244685 0.750000
O O2 0.274030 0.186611 0.949828
O O3 0.331566 0.150385 0.775795
O O4 0.350411 0.271437 0.850077
O O5 0.250000 0.563523 0.250000
O O6 0.300155 0.568756 0.449549
O O7 0.337859 0.480635 0.293744
O O8 0.354491 0.611419 0.263575
O O9 0.925762 0.500000 0.500000
O O10 0.892561 0.590671 0.636621
O O11 0.916184 0.626069 0.423837
O O12 0.000000 0.595728 0.563059
O O13 0.274409 0.927199 0.371768
O O14 0.304028 0.880660 0.566119
#
# Coordination Sequence:
#
# PCOD8261617 Si02
#       6
#    16  16  16  16  16  16
#     4  10  19  32  48  76 113 148 166 196 252 327
#     4  10  18  28  46  72 105 136 170 210 244 300
#     4  10  20  37  58  75  93 127 178 233 269 291
#     4   9  19  30  47  73 111 144 171 195 253 315
#     4  10  20  33  49  77 107 135 176 211 258 307
#     4  10  19  31  51  75 103 132 175 212 254 303
#
# _framework density 18.02702
#
# number of rings (size 3 to 8) (size 9 to 14) (size 15 to 20)
#    0.000    2.167    1.667    3.500    0.000    6.000 
#    0.000    0.833    0.000    0.000    0.000    3.500 
#    0.000    0.000    0.000    0.000    0.000    0.000 
#
# Total GULP energy -594963.212413 kJ/mol
# GULP energy per Si atom -12395.066925 kJ/mol
# Density = 1.798599 g / cm^3
# Si number density = 18.027020 Si / 1000 Ang^3
#
#
#
# Elastic Constant Matrix: (Units=GPa)
#
#
# Indices 1 2 3 4 5 6 
#
# 1 54.4456 21.2328 5.8699 0.0000 0.0000 0.0000
# 2 21.2328 104.4582 25.1631 0.0000 0.0000 0.0000
# 3 5.8699 25.1631 59.1715 0.0000 0.0000 0.0000
# 4 0.0000 0.0000 0.0000 7.5312 0.0000 0.0000
# 5 0.0000 0.0000 0.0000 0.0000 3.8831 0.0000
# 6 0.0000 0.0000 0.0000 0.0000 0.0000 -4.2793
#
#
#
# Elastic Compliance Matrix: (Units=1/GPa)
#
#
# Indices 1 2 3 4 5 6 
#
# 1 0.019953 -0.003987 -0.000284 0.000000 0.000000 0.000000
# 2 -0.003987 0.011463 -0.004479 0.000000 0.000000 0.000000
# 3 -0.000284 -0.004479 0.018833 0.000000 0.000000 0.000000
# 4 0.000000 0.000000 0.000000 0.132780 0.000000 0.000000
# 5 0.000000 0.000000 0.000000 0.000000 0.257525 0.000000
# 6 0.000000 0.000000 0.000000 0.000000 0.000000 -0.233684
#
#
# Mechanical properties :
#
#
# Convention : Reuss Voigt Hill
#
# Bulk Modulus (GPa) = 30.53622 35.84523 33.19072
# Shear Modulus (GPa) = 21.25080 12.48098 16.86589
#
# Velocity S-wave (km/s) = 3.43713 2.63411 3.06206
# Velocity P-wave (km/s) = 5.72082 5.40173 5.56356
#
# Compressibility (1/GPa) = 0.03274800
#
# Stress axis : x y z
#
# Youngs Moduli (GPa) = 50.11898 87.23978 53.09852
#
# Poissons Ratio (x) = 0.34785 0.01506
# Poissons Ratio (y) = 0.19984 0.23783
# Poissons Ratio (z) = 0.01422 0.39075
#
# Static dielectric constant tensor:
#      x y z
#    x 3.062230 0.000000 0.000000 
#    y 0.000000 3.264470 0.000000 
#    z 0.000000 0.000000 3.812160 
# 
# 
# High freq. dielectric constant tensor:
#      x y z
#    x 1.638030 0.000000 0.000000 
#    y 0.000000 1.707230 0.000000 
#    z 0.000000 0.000000 1.702670 
# 
# From -- ./inp_files/18470.got.cif
#   From: 2010.03.12/outbox.cif.g09.slc.cpg/sg64_10_cif.got.tgz:18470.got - 2010.04.10 20:19:32.
