data_PCOD8261377
_publ_section_title
;
Structure prediction by ZEFSAII (Michael W. Deem and Ramdas Pophale) SiO2 
 PCOD8261377
Probable space group: C M C M
;
_chemical_formula_sum "Si O2"
_cell_formula_units_Z 44
_cell_length_a 15.000000
_cell_length_b 12.000000
_cell_length_c 24.000000
_cell_angle_alpha 90.000000
_cell_angle_beta 90.000000
_cell_angle_gamma 90.000000
_cell_volume 4320.000000
_symmetry_space_group_name_H-M "C M C M"
_symmetry_group_IT_number 63
_symmetry_cell_setting 'orthorhombic'
loop_
_space_group_symop_operation_xyz
x,y,z
-x,-y,1/2+z
x,-y,-z
-x,y,1/2-z
-x,-y,-z
x,y,1/2-z
-x,y,z
x,-y,1/2+z
1/2+x,1/2+y,z
1/2-x,1/2-y,1/2+z
1/2+x,1/2-y,-z
1/2-x,1/2+y,1/2-z
1/2-x,1/2-y,-z
1/2+x,1/2+y,1/2-z
1/2-x,1/2+y,z
1/2+x,1/2-y,1/2+z
loop_
_atom_site_type_symbol
_atom_site_label
_atom_site_fract_x
_atom_site_fract_y
_atom_site_fract_z
Si Si1 0.644473 0.637462 0.626480
Si Si2 0.000000 0.292299 0.816898
Si Si3 0.650528 0.290428 0.000249
Si Si4 0.500000 0.881663 0.028354
Si Si5 0.827269 0.688990 0.685250
Si Si6 0.601798 0.612181 0.386156
Si Si7 0.000000 0.554668 0.656224
O O1 0.587246 0.728805 0.660124
O O2 0.631674 0.656293 0.560386
O O3 0.745689 0.640633 0.648679
O O4 0.609756 0.512713 0.637193
O O5 0.000000 0.420234 0.838250
O O6 0.000000 0.289634 0.750000
O O7 0.750000 0.250000 0.000000
O O8 0.587504 0.184745 0.990122
O O9 0.639372 0.378339 0.949439
O O10 0.500000 0.903108 0.093524
O O11 0.500000 0.000000 0.000000
O O12 0.799801 0.706461 0.750000
O O13 0.849183 0.807972 0.657791
O O14 0.910481 0.603496 0.684334
O O15 0.500000 0.651098 0.388187
#
# Coordination Sequence:
#
# PCOD8261377 Si02
#       7
#    16   8  16   8  16  16   8
#     4  12  27  46  72 104 143 185 229 292 359 418
#     4  12  28  48  68 101 142 188 236 286 351 415
#     4  12  23  45  71 107 142 178 232 290 352 428
#     4  12  24  41  73 102 142 182 229 286 353 427
#     4  12  26  47  72 101 137 188 243 289 345 415
#     4  12  25  48  74 106 142 185 238 293 354 423
#     4  12  24  49  71 102 139 186 240 295 346 416
#
# _framework density 10.185185000000001
#
# number of rings (size 3 to 8) (size 9 to 14) (size 15 to 20)
#    0.000    0.000    6.364    3.545    2.545    5.091 
#    0.000    0.000    0.000    0.000    0.000    0.000 
#    0.000    0.000    0.000    0.000    0.000    0.000 
#
# Total GULP energy -545729.304937 kJ/mol
# GULP energy per Si atom -12402.938749 kJ/mol
# Density = 1.016200 g / cm^3
# Si number density = 10.185185 Si / 1000 Ang^3
#
#
#
# Elastic Constant Matrix: (Units=GPa)
#
#
# Indices 1 2 3 4 5 6 
#
# 1 133.5499 42.7607 32.7580 0.0000 0.0000 0.0000
# 2 42.7607 152.6664 43.9154 0.0000 0.0000 0.0000
# 3 32.7580 43.9154 159.8951 0.0000 0.0000 0.0000
# 4 0.0000 0.0000 0.0000 35.2055 0.0000 0.0000
# 5 0.0000 0.0000 0.0000 0.0000 41.0404 0.0000
# 6 0.0000 0.0000 0.0000 0.0000 0.0000 34.4108
#
#
#
# Elastic Compliance Matrix: (Units=1/GPa)
#
#
# Indices 1 2 3 4 5 6 
#
# 1 0.008422 -0.002022 -0.001170 0.000000 0.000000 0.000000
# 2 -0.002022 0.007598 -0.001672 0.000000 0.000000 0.000000
# 3 -0.001170 -0.001672 0.006953 0.000000 0.000000 0.000000
# 4 0.000000 0.000000 0.000000 0.028405 0.000000 0.000000
# 5 0.000000 0.000000 0.000000 0.000000 0.024366 0.000000
# 6 0.000000 0.000000 0.000000 0.000000 0.000000 0.029061
#
#
# Mechanical properties :
#
#
# Convention : Reuss Voigt Hill
#
# Bulk Modulus (GPa) = 75.50877 76.10886 75.80881
# Shear Modulus (GPa) = 42.03478 43.90984 42.97231
#
# Velocity S-wave (km/s) = 4.54753 4.64785 4.59797
# Velocity P-wave (km/s) = 8.04499 8.13923 8.09224
#
# Compressibility (1/GPa) = 0.01324350
#
# Stress axis : x y z
#
# Youngs Moduli (GPa) = 118.73101 131.61729 143.82009
#
# Poissons Ratio (x) = 0.26619 0.16827
# Poissons Ratio (y) = 0.24013 0.24052
# Poissons Ratio (z) = 0.13892 0.22012
#
# Static dielectric constant tensor:
#      x y z
#    x 3.978580 0.000000 0.000000 
#    y 0.000000 3.907770 0.000000 
#    z 0.000000 0.000000 4.224320 
# 
# 
# High freq. dielectric constant tensor:
#      x y z
#    x 1.817950 0.000000 0.000000 
#    y 0.000000 1.815510 0.000000 
#    z 0.000000 0.000000 1.825980 
# 
# From -- ./inp_files/62704.got.cif
#   From: 2010.03.12/outbox.ucp.g09.slc.cvg/sg63_32_cif.got.tgz:62704.got - 2010.05.04 19:38:17.
