data_PCOD8261948
_publ_section_title
;
Structure prediction by ZEFSAII (Michael W. Deem and Ramdas Pophale) SiO2 
 PCOD8261948
Probable space group: C M C A
;
_chemical_formula_sum "Si O2"
_cell_formula_units_Z 64
_cell_length_a 19.821077
_cell_length_b 12.979993
_cell_length_c 12.571919
_cell_angle_alpha 90.000000
_cell_angle_beta 90.000000
_cell_angle_gamma 90.000000
_cell_volume 3234.471145
_symmetry_space_group_name_H-M "C M C A"
_symmetry_group_IT_number 64
_symmetry_cell_setting 'orthorhombic'
loop_
_space_group_symop_operation_xyz
x,y,z
-x,1/2-y,1/2+z
x,-y,-z
-x,1/2+y,1/2-z
-x,-y,-z
x,1/2+y,1/2-z
-x,y,z
x,1/2-y,1/2+z
1/2+x,1/2+y,z
1/2-x,-y,1/2+z
1/2+x,1/2-y,-z
1/2-x,y,1/2-z
1/2-x,1/2-y,-z
1/2+x,y,1/2-z
1/2-x,1/2+y,z
1/2+x,-y,1/2+z
loop_
_atom_site_type_symbol
_atom_site_label
_atom_site_fract_x
_atom_site_fract_y
_atom_site_fract_z
Si Si1 0.268968 0.383290 0.003625
Si Si2 0.668641 0.275703 0.367442
Si Si3 0.423351 0.961249 0.119644
Si Si4 0.684208 0.609786 0.304857
O O1 0.329799 0.311260 0.961540
O O2 0.203856 0.367772 0.926407
O O3 0.295341 0.500000 0.000000
O O4 0.236229 0.348225 0.116677
O O5 0.601244 0.343255 0.373690
O O6 0.668694 0.217772 0.254211
O O7 0.500000 0.965978 0.159968
O O8 0.379297 0.032634 0.198937
O O9 0.416562 0.000000 0.000000
O O10 0.750000 0.556926 0.250000
#
# Coordination Sequence:
#
# PCOD8261948 Si02
#       4
#    16  16  16  16
#     4  10  18  37  58  88 123 150 199 259 309 359
#     4  10  20  34  59  86 117 157 196 253 304 357
#     4  11  22  41  64  84 124 170 210 250 307 385
#     4  10  20  34  58  94 114 153 205 258 304 358
#
# _framework density 19.786853000000001
#
# number of rings (size 3 to 8) (size 9 to 14) (size 15 to 20)
#    0.000    1.750    5.000    0.000    0.000    4.000 
#    4.500    0.000    0.000    0.750    0.000    0.000 
#    0.000    0.000    0.000    0.000    0.000    0.000 
#
# Total GULP energy -396449.555645 kJ/mol
# GULP energy per Si atom -12389.048614 kJ/mol
# Density = 1.974182 g / cm^3
# Si number density = 19.786853 Si / 1000 Ang^3
#
#
#
# Elastic Constant Matrix: (Units=GPa)
#
#
# Indices 1 2 3 4 5 6 
#
# 1 143.7282 70.0566 33.7223 0.0000 0.0000 0.0000
# 2 70.0566 162.6935 34.6744 0.0000 0.0000 0.0000
# 3 33.7223 34.6744 49.0806 0.0000 0.0000 0.0000
# 4 0.0000 0.0000 0.0000 35.1112 0.0000 0.0000
# 5 0.0000 0.0000 0.0000 0.0000 19.8406 0.0000
# 6 0.0000 0.0000 0.0000 0.0000 0.0000 33.5242
#
#
#
# Elastic Compliance Matrix: (Units=1/GPa)
#
#
# Indices 1 2 3 4 5 6 
#
# 1 0.009516 -0.003183 -0.004289 0.000000 0.000000 0.000000
# 2 -0.003183 0.008301 -0.003677 0.000000 0.000000 0.000000
# 3 -0.004289 -0.003677 0.025919 0.000000 0.000000 0.000000
# 4 0.000000 0.000000 0.000000 0.028481 0.000000 0.000000
# 5 0.000000 0.000000 0.000000 0.000000 0.050402 0.000000
# 6 0.000000 0.000000 0.000000 0.000000 0.000000 0.029829
#
#
# Mechanical properties :
#
#
# Convention : Reuss Voigt Hill
#
# Bulk Modulus (GPa) = 46.64875 70.26765 58.45820
# Shear Modulus (GPa) = 27.48873 32.16511 29.82692
#
# Velocity S-wave (km/s) = 3.73130 4.03622 3.88675
# Velocity P-wave (km/s) = 6.49540 7.57039 7.05341
#
# Compressibility (1/GPa) = 0.02143680
#
# Stress axis : x y z
#
# Youngs Moduli (GPa) = 105.09167 120.46715 38.58110
#
# Poissons Ratio (x) = 0.38349 0.16547
# Poissons Ratio (y) = 0.33454 0.14187
# Poissons Ratio (z) = 0.45073 0.44299
#
# Static dielectric constant tensor:
#      x y z
#    x 3.392110 0.000000 0.000000 
#    y 0.000000 3.854610 0.000000 
#    z 0.000000 0.000000 3.672970 
# 
# 
# High freq. dielectric constant tensor:
#      x y z
#    x 1.720160 0.000000 0.000000 
#    y 0.000000 1.789530 0.000000 
#    z 0.000000 0.000000 1.764320 
# 
# From -- ./inp_files/16884.got.cif
#   From: 2010.03.12/outbox.cif.g09.slc.cpg/sg64_9_cif.got.tgz:16884.got - 2010.04.10 20:19:32.
