data_PCOD8261806
_publ_section_title
;
Structure prediction by ZEFSAII (Michael W. Deem and Ramdas Pophale) SiO2 
 PCOD8261806
Probable space group: C M C A
;
_chemical_formula_sum "Si O2"
_cell_formula_units_Z 88
_cell_length_a 26.258112
_cell_length_b 32.814273
_cell_length_c 5.254134
_cell_angle_alpha 90.000000
_cell_angle_beta 90.000000
_cell_angle_gamma 90.000000
_cell_volume 4527.176515
_symmetry_space_group_name_H-M "C M C A"
_symmetry_group_IT_number 64
_symmetry_cell_setting 'orthorhombic'
loop_
_space_group_symop_operation_xyz
x,y,z
-x,1/2-y,1/2+z
x,-y,-z
-x,1/2+y,1/2-z
-x,-y,-z
x,1/2+y,1/2-z
-x,y,z
x,1/2-y,1/2+z
1/2+x,1/2+y,z
1/2-x,-y,1/2+z
1/2+x,1/2-y,-z
1/2-x,y,1/2-z
1/2-x,1/2-y,-z
1/2+x,y,1/2-z
1/2-x,1/2+y,z
1/2+x,-y,1/2+z
loop_
_atom_site_type_symbol
_atom_site_label
_atom_site_fract_x
_atom_site_fract_y
_atom_site_fract_z
Si Si1 0.109822 0.723421 0.227585
Si Si2 0.099820 0.951862 0.252711
Si Si3 0.191452 0.153434 0.262297
Si Si4 0.000000 0.725159 0.313566
Si Si5 0.307707 0.898165 0.262706
Si Si6 0.441837 0.959338 0.747566
O O1 0.115252 0.757559 0.446604
O O2 0.154630 0.691536 0.267724
O O3 0.053587 0.701761 0.256493
O O4 0.158484 0.938796 0.258521
O O5 0.071064 0.933364 0.500564
O O6 0.094162 0.000706 0.250123
O O7 0.071940 0.933233 0.002748
O O8 0.250000 0.168668 0.250000
O O9 0.179936 0.132185 0.531339
O O10 0.180365 0.122997 0.030617
O O11 0.000000 0.737235 0.611606
O O12 0.250000 0.913571 0.250000
O O13 0.500000 0.973799 0.744794
#
# Coordination Sequence:
#
# PCOD8261806 Si02
#       6
#    16  16  16   8  16  16
#     4  10  19  33  56  80 102 134 172 219 265 313
#     4  10  18  32  54  77 100 140 176 212 254 314
#     4  10  21  36  54  76 107 142 174 218 268 315
#     4   8  16  30  50  72  96 130 160 194 256 312
#     4  10  21  37  54  73 104 147 179 209 262 320
#     4  10  19  33  55  80 107 136 173 215 272 314
#
# _framework density 19.438162999999999
#
# number of rings (size 3 to 8) (size 9 to 14) (size 15 to 20)
#    0.000    2.182    0.000    4.909    0.000    0.727 
#    0.000    3.636   16.000    0.000    0.000    0.000 
#    0.000    0.000    0.000    0.000    0.000    0.000 
#
# Total GULP energy -545161.135636 kJ/mol
# GULP energy per Si atom -12390.025810 kJ/mol
# Density = 1.939392 g / cm^3
# Si number density = 19.438163 Si / 1000 Ang^3
#
#
#
# Elastic Constant Matrix: (Units=GPa)
#
#
# Indices 1 2 3 4 5 6 
#
# 1 160.0220 63.4529 37.1000 0.0000 0.0000 0.0000
# 2 63.4529 39.8009 6.7925 0.0000 0.0000 0.0000
# 3 37.1000 6.7925 157.1047 0.0000 0.0000 0.0000
# 4 0.0000 0.0000 0.0000 10.7423 0.0000 0.0000
# 5 0.0000 0.0000 0.0000 0.0000 22.9592 0.0000
# 6 0.0000 0.0000 0.0000 0.0000 0.0000 -17.7646
#
#
#
# Elastic Compliance Matrix: (Units=1/GPa)
#
#
# Indices 1 2 3 4 5 6 
#
# 1 0.018370 -0.028759 -0.003095 0.000000 0.000000 0.000000
# 2 -0.028759 0.070334 0.003750 0.000000 0.000000 0.000000
# 3 -0.003095 0.003750 0.006934 0.000000 0.000000 0.000000
# 4 0.000000 0.000000 0.000000 0.093090 0.000000 0.000000
# 5 0.000000 0.000000 0.000000 0.000000 0.043556 0.000000
# 6 0.000000 0.000000 0.000000 0.000000 0.000000 -0.056292
#
#
# Mechanical properties :
#
#
# Convention : Reuss Voigt Hill
#
# Bulk Modulus (GPa) = 25.36020 63.51314 44.43667
# Shear Modulus (GPa) = 20.37975 19.82618 20.10296
#
# Velocity S-wave (km/s) = 3.24147 3.19715 3.21939
# Velocity P-wave (km/s) = 5.20427 6.80988 6.06048
#
# Compressibility (1/GPa) = 0.03943187
#
# Stress axis : x y z
#
# Youngs Moduli (GPa) = 54.43599 14.21792 144.22021
#
# Poissons Ratio (x) = 0.40889 0.44632
# Poissons Ratio (y) = 1.56551 -0.54089
# Poissons Ratio (z) = 0.16846 -0.05332
#
# Static dielectric constant tensor:
#      x y z
#    x 3.792590 0.000000 0.000000 
#    y 0.000000 2.837110 0.000000 
#    z 0.000000 0.000000 5.409470 
# 
# 
# High freq. dielectric constant tensor:
#      x y z
#    x 1.769200 0.000000 0.000000 
#    y 0.000000 1.684580 0.000000 
#    z 0.000000 0.000000 1.801590 
# 
# From -- ./inp_files/2417.got.cif
#   From: 2010.03.12/outbox.cif.g09.slc.cpg/sg64_2_cif.got.tgz:2417.got - 2010.04.10 20:19:32.
