data_PCOD8261704
_publ_section_title
;
Structure prediction by ZEFSAII (Michael W. Deem and Ramdas Pophale) SiO2 
 PCOD8261704
Probable space group: C M C A
;
_chemical_formula_sum "Si O2"
_cell_formula_units_Z 104
_cell_length_a 26.401654
_cell_length_b 22.092125
_cell_length_c 8.847233
_cell_angle_alpha 90.000000
_cell_angle_beta 90.000000
_cell_angle_gamma 90.000000
_cell_volume 5160.313563
_symmetry_space_group_name_H-M "C M C A"
_symmetry_group_IT_number 64
_symmetry_cell_setting 'orthorhombic'
loop_
_space_group_symop_operation_xyz
x,y,z
-x,1/2-y,1/2+z
x,-y,-z
-x,1/2+y,1/2-z
-x,-y,-z
x,1/2+y,1/2-z
-x,y,z
x,1/2-y,1/2+z
1/2+x,1/2+y,z
1/2-x,-y,1/2+z
1/2+x,1/2-y,-z
1/2-x,y,1/2-z
1/2-x,1/2-y,-z
1/2+x,y,1/2-z
1/2-x,1/2+y,z
1/2+x,-y,1/2+z
loop_
_atom_site_type_symbol
_atom_site_label
_atom_site_fract_x
_atom_site_fract_y
_atom_site_fract_z
Si Si1 0.892680 0.555659 0.675357
Si Si2 0.606060 0.678638 0.687644
Si Si3 0.339721 0.241685 0.555359
Si Si4 0.803527 0.668502 0.288808
Si Si5 0.000000 0.403041 0.762180
Si Si6 0.000000 0.462087 0.242172
Si Si7 0.500000 0.154119 0.932809
Si Si8 0.388423 0.421814 0.839111
O O1 0.879101 0.607126 0.799100
O O2 0.877403 0.488385 0.733489
O O3 0.870307 0.573623 0.513023
O O4 0.952955 0.551493 0.648640
O O5 0.614598 0.709571 0.851619
O O6 0.639725 0.708248 0.559218
O O7 0.548021 0.687932 0.638794
O O8 0.307630 0.191853 0.462077
O O9 0.303816 0.274264 0.675754
O O10 0.750000 0.635631 0.250000
O O11 0.850910 0.624479 0.253951
O O12 0.000000 0.348492 0.884720
O O13 0.946569 0.397409 0.670725
O O14 0.000000 0.470911 0.829394
O O15 0.000000 0.417054 0.101608
#
# Coordination Sequence:
#
# PCOD8261704 Si02
#       8
#    16  16  16  16   8   8   8  16
#     4   9  17  33  56  83 117 156 188 237 286 349
#     4  10  20  37  57  83 117 152 195 236 291 343
#     4  10  22  39  60  81 109 151 196 248 284 342
#     4  11  22  40  63  86 112 148 196 244 293 346
#     4  10  18  30  51  88 117 152 191 230 282 345
#     4   8  16  28  49  79 112 154 195 222 269 334
#     4  10  19  30  50  79 121 154 186 234 288 340
#     4  10  19  33  59  85 120 153 191 237 294 354
#
# _framework density 20.153815000000002
#
# number of rings (size 3 to 8) (size 9 to 14) (size 15 to 20)
#    0.000    2.154    1.538    2.077    0.000    2.462 
#    0.000    5.385    6.769    0.000    0.000    0.000 
#    0.000    0.000    0.000    0.000    0.000    0.000 
#
# Total GULP energy -644241.633389 kJ/mol
# GULP energy per Si atom -12389.262181 kJ/mol
# Density = 2.010794 g / cm^3
# Si number density = 20.153815 Si / 1000 Ang^3
#
#
#
# Elastic Constant Matrix: (Units=GPa)
#
#
# Indices 1 2 3 4 5 6 
#
# 1 104.8301 33.5117 26.0589 0.0000 0.0000 0.0000
# 2 33.5117 79.6244 26.3281 0.0000 0.0000 0.0000
# 3 26.0589 26.3281 84.3623 0.0000 0.0000 0.0000
# 4 0.0000 0.0000 0.0000 32.0604 0.0000 0.0000
# 5 0.0000 0.0000 0.0000 0.0000 21.0114 0.0000
# 6 0.0000 0.0000 0.0000 0.0000 0.0000 19.3377
#
#
#
# Elastic Compliance Matrix: (Units=1/GPa)
#
#
# Indices 1 2 3 4 5 6 
#
# 1 0.011395 -0.004050 -0.002256 0.000000 0.000000 0.000000
# 2 -0.004050 0.015443 -0.003569 0.000000 0.000000 0.000000
# 3 -0.002256 -0.003569 0.013664 0.000000 0.000000 0.000000
# 4 0.000000 0.000000 0.000000 0.031191 0.000000 0.000000
# 5 0.000000 0.000000 0.000000 0.000000 0.047593 0.000000
# 6 0.000000 0.000000 0.000000 0.000000 0.000000 0.051713
#
#
# Mechanical properties :
#
#
# Convention : Reuss Voigt Hill
#
# Bulk Modulus (GPa) = 48.18445 48.95714 48.57080
# Shear Modulus (GPa) = 25.29523 26.67642 25.98582
#
# Velocity S-wave (km/s) = 3.54659 3.64213 3.59468
# Velocity P-wave (km/s) = 6.38211 6.48316 6.43283
#
# Compressibility (1/GPa) = 0.02075358
#
# Stress axis : x y z
#
# Youngs Moduli (GPa) = 87.76065 64.75248 73.18398
#
# Poissons Ratio (x) = 0.26223 0.16509
# Poissons Ratio (y) = 0.35541 0.26117
# Poissons Ratio (z) = 0.19797 0.23108
#
# Static dielectric constant tensor:
#      x y z
#    x 3.439770 0.000000 0.000000 
#    y 0.000000 3.760930 0.000000 
#    z 0.000000 0.000000 3.534180 
# 
# 
# High freq. dielectric constant tensor:
#      x y z
#    x 1.756550 0.000000 0.000000 
#    y 0.000000 1.785080 0.000000 
#    z 0.000000 0.000000 1.779360 
# 
# From -- ./inp_files/11287.got.cif
#   From: 2010.03.12/outbox.cif.g09.slc.cpg/sg64_6_cif.got.tgz:11287.got - 2010.04.10 20:19:32.
