data_PCOD8261304
_publ_section_title
;
Structure prediction by ZEFSAII (Michael W. Deem and Ramdas Pophale) SiO2 
 PCOD8261304
Probable space group: C M C M
;
_chemical_formula_sum "Si O2"
_cell_formula_units_Z 112
_cell_length_a 9.658381
_cell_length_b 28.274725
_cell_length_c 24.191130
_cell_angle_alpha 90.000000
_cell_angle_beta 90.000000
_cell_angle_gamma 90.000000
_cell_volume 6606.308923
_symmetry_space_group_name_H-M "C M C M"
_symmetry_group_IT_number 63
_symmetry_cell_setting 'orthorhombic'
loop_
_space_group_symop_operation_xyz
x,y,z
-x,-y,1/2+z
x,-y,-z
-x,y,1/2-z
-x,-y,-z
x,y,1/2-z
-x,y,z
x,-y,1/2+z
1/2+x,1/2+y,z
1/2-x,1/2-y,1/2+z
1/2+x,1/2-y,-z
1/2-x,1/2+y,1/2-z
1/2-x,1/2-y,-z
1/2+x,1/2+y,1/2-z
1/2-x,1/2+y,z
1/2+x,1/2-y,1/2+z
loop_
_atom_site_type_symbol
_atom_site_label
_atom_site_fract_x
_atom_site_fract_y
_atom_site_fract_z
Si Si1 0.164508 0.750473 0.188556
Si Si2 0.338528 0.112102 0.530567
Si Si3 0.664257 0.917683 0.911754
Si Si4 0.659705 0.334210 0.386560
Si Si5 0.664722 0.855754 0.811635
Si Si6 0.657220 0.424918 0.313040
Si Si7 0.660874 0.023163 0.894571
O O1 0.219910 0.764048 0.250000
O O2 0.219416 0.786398 0.141612
O O3 0.213762 0.697444 0.173684
O O4 0.000000 0.753793 0.189569
O O5 0.500000 0.125154 0.535493
O O6 0.287304 0.109148 0.467243
O O7 0.251008 0.153488 0.559767
O O8 0.308586 0.060894 0.557367
O O9 0.500000 0.916637 0.909628
O O10 0.726713 0.891269 0.857755
O O11 0.714547 0.971916 0.914137
O O12 0.500000 0.328887 0.405089
O O13 0.678050 0.374461 0.341059
O O14 0.717503 0.870076 0.750000
O O15 0.500000 0.857708 0.812347
O O16 0.700890 0.418786 0.250000
O O17 0.500000 0.442592 0.319518
O O18 0.756227 0.463986 0.339476
O O19 0.500000 0.021968 0.878902
#
# Coordination Sequence:
#
# PCOD8261304 Si02
#       7
#    16  16  16  16  16  16  16
#     4   8  13  23  41  63  85 109 137 171 211 251
#     4   9  17  29  43  61  87 115 142 172 208 251
#     4   9  16  27  43  60  82 114 144 172 211 252
#     4   9  16  27  44  64  85 110 140 172 206 247
#     4   8  14  24  39  62  87 106 133 176 216 248
#     4   9  17  28  41  60  87 114 138 168 210 256
#     4   9  17  28  43  62  83 111 147 180 207 243
#
# _framework density 16.953492000000001
#
# number of rings (size 3 to 8) (size 9 to 14) (size 15 to 20)
#    0.000    3.286    0.000    1.714    0.000    4.286 
#    0.000    2.857    0.000    4.714    0.000    1.000 
#    0.000    2.286    0.000    0.000    0.000    0.000 
#
# Total GULP energy -694113.303501 kJ/mol
# GULP energy per Si atom -12394.880420 kJ/mol
# Density = 1.691491 g / cm^3
# Si number density = 16.953492 Si / 1000 Ang^3
#
#
#
# Elastic Constant Matrix: (Units=GPa)
#
#
# Indices 1 2 3 4 5 6 
#
# 1 26.4915 16.9300 27.7482 0.0000 0.0000 0.0000
# 2 16.9300 81.2047 49.8842 0.0000 0.0000 0.0000
# 3 27.7482 49.8842 123.9840 0.0000 0.0000 0.0000
# 4 0.0000 0.0000 0.0000 27.3794 0.0000 0.0000
# 5 0.0000 0.0000 0.0000 0.0000 21.4084 0.0000
# 6 0.0000 0.0000 0.0000 0.0000 0.0000 12.0596
#
#
#
# Elastic Compliance Matrix: (Units=1/GPa)
#
#
# Indices 1 2 3 4 5 6 
#
# 1 0.050665 -0.004778 -0.009417 0.000000 0.000000 0.000000
# 2 -0.004778 0.016808 -0.005693 0.000000 0.000000 0.000000
# 3 -0.009417 -0.005693 0.012464 0.000000 0.000000 0.000000
# 4 0.000000 0.000000 0.000000 0.036524 0.000000 0.000000
# 5 0.000000 0.000000 0.000000 0.000000 0.046711 0.000000
# 6 0.000000 0.000000 0.000000 0.000000 0.000000 0.082921
#
#
# Mechanical properties :
#
#
# Convention : Reuss Voigt Hill
#
# Bulk Modulus (GPa) = 24.90005 46.75613 35.82809
# Shear Modulus (GPa) = 16.70812 21.31066 19.00939
#
# Velocity S-wave (km/s) = 3.14272 3.54928 3.35217
# Velocity P-wave (km/s) = 5.28091 6.66599 6.01346
#
# Compressibility (1/GPa) = 0.04016056
#
# Stress axis : x y z
#
# Youngs Moduli (GPa) = 19.73751 59.49499 80.23331
#
# Poissons Ratio (x) = 0.28429 0.75552
# Poissons Ratio (y) = 0.09431 0.45679
# Poissons Ratio (z) = 0.18586 0.33872
#
# Static dielectric constant tensor:
#      x y z
#    x 2.780590 0.000000 0.000000 
#    y 0.000000 3.313030 0.000000 
#    z 0.000000 0.000000 3.373860 
# 
# 
# High freq. dielectric constant tensor:
#      x y z
#    x 1.600890 0.000000 0.000000 
#    y 0.000000 1.649770 0.000000 
#    z 0.000000 0.000000 1.657470 
# 
# From -- ./inp_files/53198.got.cif
#   From: 2010.03.12/outbox.cif.g09.slc.cpg/sg63_27_cif.got.tgz:53198.got - 2010.04.10 19:34:48.
