data_PCOD8261748
_publ_section_title
;
Structure prediction by ZEFSAII (Michael W. Deem and Ramdas Pophale) SiO2 
 PCOD8261748
Probable space group: C M C A
;
_chemical_formula_sum "Si O2"
_cell_formula_units_Z 128
_cell_length_a 19.828396
_cell_length_b 16.527383
_cell_length_c 22.009647
_cell_angle_alpha 90.000000
_cell_angle_beta 90.000000
_cell_angle_gamma 90.000000
_cell_volume 7212.814322
_symmetry_space_group_name_H-M "C M C A"
_symmetry_group_IT_number 64
_symmetry_cell_setting 'orthorhombic'
loop_
_space_group_symop_operation_xyz
x,y,z
-x,1/2-y,1/2+z
x,-y,-z
-x,1/2+y,1/2-z
-x,-y,-z
x,1/2+y,1/2-z
-x,y,z
x,1/2-y,1/2+z
1/2+x,1/2+y,z
1/2-x,-y,1/2+z
1/2+x,1/2-y,-z
1/2-x,y,1/2-z
1/2-x,1/2-y,-z
1/2+x,y,1/2-z
1/2-x,1/2+y,z
1/2+x,-y,1/2+z
loop_
_atom_site_type_symbol
_atom_site_label
_atom_site_fract_x
_atom_site_fract_y
_atom_site_fract_z
Si Si1 0.813164 0.267796 0.416601
Si Si2 0.681236 0.869958 0.826370
Si Si3 0.688593 0.083251 0.668148
Si Si4 0.922529 0.174865 0.228151
Si Si5 0.833425 0.727786 0.449067
Si Si6 0.661858 0.945936 0.197226
Si Si7 0.074750 0.318856 0.139212
Si Si8 0.172904 0.407206 0.642719
O O1 0.828805 0.178481 0.389667
O O2 0.835722 0.337998 0.369144
O O3 0.852597 0.278103 0.479916
O O4 0.734678 0.277074 0.434195
O O5 0.633875 0.819915 0.780576
O O6 0.763068 0.874988 0.815512
O O7 0.655171 0.961470 0.824134
O O8 0.647590 0.067557 0.730900
O O9 0.766830 0.094777 0.682917
O O10 0.678941 0.002206 0.627955
O O11 0.921277 0.262749 0.198448
O O12 0.896178 0.109031 0.179367
O O13 0.000000 0.153029 0.248579
O O14 0.892740 0.777394 0.418727
O O15 0.828292 0.637367 0.421936
O O16 0.606729 0.903822 0.156129
O O17 0.000000 0.337922 0.118667
#
# Coordination Sequence:
#
# PCOD8261748 Si02
#       8
#    16  16  16  16  16  16  16  16
#     4  10  19  33  55  78 105 135 176 231 265 307
#     4  10  19  33  53  77 107 142 174 220 272 318
#     4  10  18  31  52  82 110 131 171 223 271 318
#     4  10  19  32  52  77 106 139 176 215 267 325
#     4   9  19  35  52  77 104 139 183 217 266 308
#     4  10  19  32  49  80 109 137 171 212 271 324
#     4  10  20  35  54  75 105 146 184 215 258 326
#     4   9  18  33  53  78 108 141 175 217 267 321
#
# _framework density 17.746193999999999
#
# number of rings (size 3 to 8) (size 9 to 14) (size 15 to 20)
#    0.000    2.250    2.500    1.125    0.000    1.000 
#    0.000    1.250    0.000    2.250    0.000    3.500 
#    0.000    0.000    0.000    0.000    0.000    0.000 
#
# Total GULP energy -793044.144346 kJ/mol
# GULP energy per Si atom -12391.314755 kJ/mol
# Density = 1.770580 g / cm^3
# Si number density = 17.746194 Si / 1000 Ang^3
#
#
#
# Elastic Constant Matrix: (Units=GPa)
#
#
# Indices 1 2 3 4 5 6 
#
# 1 72.5453 32.9492 29.6498 0.0000 0.0000 0.0000
# 2 32.9492 105.3417 62.2976 0.0000 0.0000 0.0000
# 3 29.6498 62.2976 103.5974 0.0000 0.0000 0.0000
# 4 0.0000 0.0000 0.0000 20.2178 0.0000 0.0000
# 5 0.0000 0.0000 0.0000 0.0000 16.4000 0.0000
# 6 0.0000 0.0000 0.0000 0.0000 0.0000 15.7788
#
#
#
# Elastic Compliance Matrix: (Units=1/GPa)
#
#
# Indices 1 2 3 4 5 6 
#
# 1 0.016477 -0.003670 -0.002509 0.000000 0.000000 0.000000
# 2 -0.003670 0.015549 -0.008300 0.000000 0.000000 0.000000
# 3 -0.002509 -0.008300 0.015362 0.000000 0.000000 0.000000
# 4 0.000000 0.000000 0.000000 0.049461 0.000000 0.000000
# 5 0.000000 0.000000 0.000000 0.000000 0.060976 0.000000
# 6 0.000000 0.000000 0.000000 0.000000 0.000000 0.063376
#
#
# Mechanical properties :
#
#
# Convention : Reuss Voigt Hill
#
# Bulk Modulus (GPa) = 54.25848 59.03084 56.64466
# Shear Modulus (GPa) = 19.50820 20.91852 20.21336
#
# Velocity S-wave (km/s) = 3.31915 3.43703 3.37861
# Velocity P-wave (km/s) = 6.73276 7.00622 6.87085
#
# Compressibility (1/GPa) = 0.01843030
#
# Stress axis : x y z
#
# Youngs Moduli (GPa) = 60.69175 64.31095 65.09563
#
# Poissons Ratio (x) = 0.23602 0.16331
# Poissons Ratio (y) = 0.22274 0.54031
# Poissons Ratio (z) = 0.15226 0.53379
#
# Static dielectric constant tensor:
#      x y z
#    x 3.216190 0.000000 0.000000 
#    y 0.000000 3.243760 0.000000 
#    z 0.000000 0.000000 3.229180 
# 
# 
# High freq. dielectric constant tensor:
#      x y z
#    x 1.662430 0.000000 0.000000 
#    y 0.000000 1.687950 0.000000 
#    z 0.000000 0.000000 1.668990 
# 
# From -- ./inp_files/46007.got.cif
#   From: 2010.03.12/outbox.cif.g09.slc.cpg/sg64_24_cif.got.tgz:46007.got - 2010.04.10 20:19:32.
