data_PCOD8261186
_publ_section_title
;
Structure prediction by ZEFSAII (Michael W. Deem and Ramdas Pophale) SiO2 
 PCOD8261186
Probable space group: C M C M
;
_chemical_formula_sum "Si O2"
_cell_formula_units_Z 64
_cell_length_a 22.048023
_cell_length_b 8.183122
_cell_length_c 14.253248
_cell_angle_alpha 90.000000
_cell_angle_beta 90.000000
_cell_angle_gamma 90.000000
_cell_volume 2571.594694
_symmetry_space_group_name_H-M "C M C M"
_symmetry_group_IT_number 63
_symmetry_cell_setting 'orthorhombic'
loop_
_space_group_symop_operation_xyz
x,y,z
-x,-y,1/2+z
x,-y,-z
-x,y,1/2-z
-x,-y,-z
x,y,1/2-z
-x,y,z
x,-y,1/2+z
1/2+x,1/2+y,z
1/2-x,1/2-y,1/2+z
1/2+x,1/2-y,-z
1/2-x,1/2+y,1/2-z
1/2-x,1/2-y,-z
1/2+x,1/2+y,1/2-z
1/2-x,1/2+y,z
1/2+x,1/2-y,1/2+z
loop_
_atom_site_type_symbol
_atom_site_label
_atom_site_fract_x
_atom_site_fract_y
_atom_site_fract_z
Si Si1 0.729813 0.762776 0.894435
Si Si2 0.112544 0.431839 0.640231
Si Si3 0.342324 0.562806 0.149953
Si Si4 0.569748 0.250540 0.966567
O O1 0.684979 0.917713 0.876204
O O2 0.693856 0.603399 0.864855
O O3 0.792226 0.793067 0.839368
O O4 0.750000 0.750000 0.000000
O O5 0.095191 0.408808 0.750000
O O6 0.088075 0.603423 0.602800
O O7 0.081710 0.289864 0.575989
O O8 0.376939 0.554216 0.250000
O O9 0.390167 0.594586 0.066499
O O10 0.500000 0.295627 0.952397
#
# Coordination Sequence:
#
# PCOD8261186 Si02
#       4
#    16  16  16  16
#     4  12  25  45  73 107 145 182 231 300 369 427
#     4  11  23  44  73 106 142 187 243 300 363 430
#     4  12  25  44  72 107 146 187 238 295 361 433
#     4  11  26  46  72 105 145 196 245 297 357 424
#
# _framework density 24.887281000000002
#
# number of rings (size 3 to 8) (size 9 to 14) (size 15 to 20)
#    0.000    0.500    2.500    6.750    3.500    3.500 
#    0.000    3.750    0.000    6.000    0.000    0.000 
#    0.000    0.000    0.000    0.000    0.000    0.000 
#
# Total GULP energy -396677.159052 kJ/mol
# GULP energy per Si atom -12396.161220 kJ/mol
# Density = 2.483064 g / cm^3
# Si number density = 24.887281 Si / 1000 Ang^3
#
#
#
# Elastic Constant Matrix: (Units=GPa)
#
#
# Indices 1 2 3 4 5 6 
#
# 1 154.8375 4.5134 38.5088 0.0000 0.0000 0.0000
# 2 4.5134 39.2978 32.0154 0.0000 0.0000 0.0000
# 3 38.5088 32.0154 208.0920 0.0000 0.0000 0.0000
# 4 0.0000 0.0000 0.0000 -4.5433 0.0000 0.0000
# 5 0.0000 0.0000 0.0000 0.0000 13.5377 0.0000
# 6 0.0000 0.0000 0.0000 0.0000 0.0000 28.1408
#
#
#
# Elastic Compliance Matrix: (Units=1/GPa)
#
#
# Indices 1 2 3 4 5 6 
#
# 1 0.006773 0.000278 -0.001296 0.000000 0.000000 0.000000
# 2 0.000278 0.029105 -0.004529 0.000000 0.000000 0.000000
# 3 -0.001296 -0.004529 0.005742 0.000000 0.000000 0.000000
# 4 0.000000 0.000000 0.000000 -0.220106 0.000000 0.000000
# 5 0.000000 0.000000 0.000000 0.000000 0.073868 0.000000
# 6 0.000000 0.000000 0.000000 0.000000 0.000000 0.035536
#
#
# Mechanical properties :
#
#
# Convention : Reuss Voigt Hill
#
# Bulk Modulus (GPa) = 32.76004 61.36695 47.06349
# Shear Modulus (GPa) = -104.57363 29.23968 -37.66697
#
# Velocity S-wave (km/s) = -6.48923 3.43138 -3.89460
# Velocity P-wave (km/s) = 6.55400 6.35693 1.12789
#
# Compressibility (1/GPa) = 0.03052499
#
# Stress axis : x y z
#
# Youngs Moduli (GPa) = 147.65320 34.35869 174.14757
#
# Poissons Ratio (x) = -0.00955 0.22571
# Poissons Ratio (y) = -0.04106 0.78876
# Poissons Ratio (z) = 0.19137 0.15562
#
# Static dielectric constant tensor:
#      x y z
#    x 4.606330 0.000000 0.000000 
#    y 0.000000 4.594990 0.000000 
#    z 0.000000 0.000000 5.130150 
# 
# 
# High freq. dielectric constant tensor:
#      x y z
#    x 1.977810 0.000000 0.000000 
#    y 0.000000 1.993810 0.000000 
#    z 0.000000 0.000000 2.006820 
# 
# From -- ./inp_files/36199.got.cif
#   From: 2010.03.12/outbox.cif.g09.slc.cpg/sg63_19_cif.got.tgz:36199.got - 2010.04.10 19:34:48.
