data_PCOD8261605
_publ_section_title
;
Structure prediction by ZEFSAII (Michael W. Deem and Ramdas Pophale) SiO2 
 PCOD8261605
Probable space group: C M C A
;
_chemical_formula_sum "Si O2"
_cell_formula_units_Z 128
_cell_length_a 9.306438
_cell_length_b 29.340414
_cell_length_c 28.143253
_cell_angle_alpha 90.000000
_cell_angle_beta 90.000000
_cell_angle_gamma 90.000000
_cell_volume 7684.648737
_symmetry_space_group_name_H-M "C M C A"
_symmetry_group_IT_number 64
_symmetry_cell_setting 'orthorhombic'
loop_
_space_group_symop_operation_xyz
x,y,z
-x,1/2-y,1/2+z
x,-y,-z
-x,1/2+y,1/2-z
-x,-y,-z
x,1/2+y,1/2-z
-x,y,z
x,1/2-y,1/2+z
1/2+x,1/2+y,z
1/2-x,-y,1/2+z
1/2+x,1/2-y,-z
1/2-x,y,1/2-z
1/2-x,1/2-y,-z
1/2+x,y,1/2-z
1/2-x,1/2+y,z
1/2+x,-y,1/2+z
loop_
_atom_site_type_symbol
_atom_site_label
_atom_site_fract_x
_atom_site_fract_y
_atom_site_fract_z
Si Si1 0.329987 0.178285 0.079905
Si Si2 0.829637 0.923481 0.576080
Si Si3 0.170465 0.761081 0.386492
Si Si4 0.671211 0.422958 0.470625
Si Si5 0.332709 0.321636 0.297232
Si Si6 0.828941 0.016512 0.614223
Si Si7 0.830086 0.678138 0.972086
Si Si8 0.168327 0.573753 0.797188
O O1 0.500000 0.183916 0.086939
O O2 0.278163 0.126705 0.092551
O O3 0.246855 0.211928 0.115556
O O4 0.282849 0.190222 0.025780
O O5 0.772132 0.935687 0.523268
O O6 0.000000 0.921927 0.573191
O O7 0.778324 0.963468 0.612042
O O8 0.217705 0.789930 0.340580
O O9 0.231000 0.786304 0.433688
O O10 0.000000 0.754512 0.388054
O O11 0.500000 0.424916 0.469699
O O12 0.735055 0.457650 0.431854
O O13 0.725406 0.372118 0.457993
O O14 0.500000 0.315441 0.286827
O O15 0.250000 0.306204 0.250000
O O16 0.297251 0.373928 0.310771
O O17 0.770914 0.040921 0.661486
O O18 0.000000 0.019991 0.613523
O O19 0.000000 0.678164 0.969012
O O20 0.250000 0.558761 0.750000
O O21 0.000000 0.566627 0.788836
#
# Coordination Sequence:
#
# PCOD8261605 Si02
#       8
#    16  16  16  16  16  16  16  16
#     4   9  17  28  41  60  88 118 144 171 205 241
#     4   8  14  23  36  58  87 114 139 170 205 239
#     4  10  18  28  44  63  83 110 144 176 207 247
#     4   8  12  19  34  59  89 113 134 166 207 246
#     4   9  18  31  46  65  87 109 134 169 213 256
#     4   9  14  21  38  62  85 110 139 169 204 246
#     4   8  14  24  38  59  88 116 139 168 206 247
#     4   9  17  29  45  65  88 110 133 165 207 253
#
# _framework density 16.656583999999999
#
# number of rings (size 3 to 8) (size 9 to 14) (size 15 to 20)
#    0.000    3.250    0.000    3.000    0.000    5.000 
#    0.000    0.000    0.000    1.500    0.000    7.000 
#    0.000    5.000    0.000    0.000    0.000    0.000 
#
# Total GULP energy -793134.473504 kJ/mol
# GULP energy per Si atom -12392.726149 kJ/mol
# Density = 1.661867 g / cm^3
# Si number density = 16.656584 Si / 1000 Ang^3
#
#
#
# Elastic Constant Matrix: (Units=GPa)
#
#
# Indices 1 2 3 4 5 6 
#
# 1 17.0368 26.6715 26.1180 0.0000 0.0000 0.0000
# 2 26.6715 136.0559 82.8039 0.0000 0.0000 0.0000
# 3 26.1180 82.8039 105.9588 0.0000 0.0000 0.0000
# 4 0.0000 0.0000 0.0000 30.1928 0.0000 0.0000
# 5 0.0000 0.0000 0.0000 0.0000 18.0403 0.0000
# 6 0.0000 0.0000 0.0000 0.0000 0.0000 14.9750
#
#
#
# Elastic Compliance Matrix: (Units=1/GPa)
#
#
# Indices 1 2 3 4 5 6 
#
# 1 0.099507 -0.008732 -0.017704 0.000000 0.000000 0.000000
# 2 -0.008732 0.014782 -0.009400 0.000000 0.000000 0.000000
# 3 -0.017704 -0.009400 0.021147 0.000000 0.000000 0.000000
# 4 0.000000 0.000000 0.000000 0.033120 0.000000 0.000000
# 5 0.000000 0.000000 0.000000 0.000000 0.055432 0.000000
# 6 0.000000 0.000000 0.000000 0.000000 0.000000 0.066778
#
#
# Mechanical properties :
#
#
# Convention : Reuss Voigt Hill
#
# Bulk Modulus (GPa) = 15.68248 58.91535 37.29891
# Shear Modulus (GPa) = 13.03126 20.87215 16.95171
#
# Velocity S-wave (km/s) = 2.80008 3.54374 3.19363
# Velocity P-wave (km/s) = 4.45977 7.22437 6.00338
#
# Compressibility (1/GPa) = 0.06376544
#
# Stress axis : x y z
#
# Youngs Moduli (GPa) = 10.04953 67.64848 47.28804
#
# Poissons Ratio (x) = 0.59071 0.83718
# Poissons Ratio (y) = 0.08775 0.44449
# Poissons Ratio (z) = 0.17792 0.63587
#
# Static dielectric constant tensor:
#      x y z
#    x 2.586570 0.000000 0.000000 
#    y 0.000000 3.370880 0.000000 
#    z 0.000000 0.000000 3.143190 
# 
# 
# High freq. dielectric constant tensor:
#      x y z
#    x 1.584050 0.000000 0.000000 
#    y 0.000000 1.648640 0.000000 
#    z 0.000000 0.000000 1.626700 
# 
# From -- ./inp_files/44683.got.cif
#   From: 2010.03.12/outbox.cif.g09.slc.cpg/sg64_23_cif.got.tgz:44683.got - 2010.04.10 20:19:32.
