data_PCOD8261185
_publ_section_title
;
Structure prediction by ZEFSAII (Michael W. Deem and Ramdas Pophale) SiO2 
 PCOD8261185
Probable space group: C M C M
;
_chemical_formula_sum "Si O2"
_cell_formula_units_Z 64
_cell_length_a 19.883836
_cell_length_b 9.389719
_cell_length_c 16.971723
_cell_angle_alpha 90.000000
_cell_angle_beta 90.000000
_cell_angle_gamma 90.000000
_cell_volume 3168.682337
_symmetry_space_group_name_H-M "C M C M"
_symmetry_group_IT_number 63
_symmetry_cell_setting 'orthorhombic'
loop_
_space_group_symop_operation_xyz
x,y,z
-x,-y,1/2+z
x,-y,-z
-x,y,1/2-z
-x,-y,-z
x,y,1/2-z
-x,y,z
x,-y,1/2+z
1/2+x,1/2+y,z
1/2-x,1/2-y,1/2+z
1/2+x,1/2-y,-z
1/2-x,1/2+y,1/2-z
1/2-x,1/2-y,-z
1/2+x,1/2+y,1/2-z
1/2-x,1/2+y,z
1/2+x,1/2-y,1/2+z
loop_
_atom_site_type_symbol
_atom_site_label
_atom_site_fract_x
_atom_site_fract_y
_atom_site_fract_z
Si Si1 0.885433 0.022834 0.590113
Si Si2 0.500000 0.285457 0.157961
Si Si3 0.881955 0.285878 0.342488
Si Si4 0.000000 0.472990 0.407991
Si Si5 0.738972 0.879851 0.057107
O O1 0.932588 0.145686 0.623487
O O2 0.808154 0.070215 0.597251
O O3 0.906104 0.000000 0.500000
O O4 0.896418 0.878597 0.638750
O O5 0.500000 0.310616 0.250000
O O6 0.500000 0.119245 0.139594
O O7 0.887062 0.311145 0.250000
O O8 0.935012 0.382921 0.386642
O O9 0.809103 0.335727 0.371824
O O10 0.000000 0.500000 0.500000
O O11 0.750000 0.750000 0.000000
O O12 0.707400 0.000000 0.000000
#
# Coordination Sequence:
#
# PCOD8261185 Si02
#       5
#    16   8  16   8  16
#     4  11  23  44  70  94 133 179 226 261 331 405
#     4  12  26  42  64 100 134 168 218 278 334 384
#     4  12  25  43  68 102 136 174 221 283 340 390
#     4  12  27  46  71  94 134 176 228 272 335 404
#     4  11  23  45  69  97 131 177 229 268 325 408
#
# _framework density 20.197669000000001
#
# number of rings (size 3 to 8) (size 9 to 14) (size 15 to 20)
#    0.000    0.500    5.000    5.250    3.500    2.000 
#    0.000    0.000    0.000    0.000    0.000    0.000 
#    0.000    0.000    0.000    0.000    0.000    0.000 
#
# Total GULP energy -396960.945088 kJ/mol
# GULP energy per Si atom -12405.029534 kJ/mol
# Density = 2.015170 g / cm^3
# Si number density = 20.197669 Si / 1000 Ang^3
#
#
#
# Elastic Constant Matrix: (Units=GPa)
#
#
# Indices 1 2 3 4 5 6 
#
# 1 113.0054 49.3000 49.2550 0.0000 0.0000 0.0000
# 2 49.3000 132.2548 22.3250 0.0000 0.0000 0.0000
# 3 49.2550 22.3250 133.0973 0.0000 0.0000 0.0000
# 4 0.0000 0.0000 0.0000 40.3656 0.0000 0.0000
# 5 0.0000 0.0000 0.0000 0.0000 -0.0883 0.0000
# 6 0.0000 0.0000 0.0000 0.0000 0.0000 34.6563
#
#
#
# Elastic Compliance Matrix: (Units=1/GPa)
#
#
# Indices 1 2 3 4 5 6 
#
# 1 0.012244 -0.003910 -0.003875 0.000000 0.000000 0.000000
# 2 -0.003910 0.009030 -0.000068 0.000000 0.000000 0.000000
# 3 -0.003875 -0.000068 0.008959 0.000000 0.000000 0.000000
# 4 0.000000 0.000000 0.000000 0.024774 0.000000 0.000000
# 5 0.000000 0.000000 0.000000 0.000000-11.326026 0.000000
# 6 0.000000 0.000000 0.000000 0.000000 0.000000 0.028855
#
#
# Mechanical properties :
#
#
# Convention : Reuss Voigt Hill
#
# Bulk Modulus (GPa) = 68.83750 68.90193 68.86971
# Shear Modulus (GPa) = -0.44557 32.15189 15.85316
#
# Velocity S-wave (km/s) = -0.47019 3.99414 2.80465
# Velocity P-wave (km/s) = 5.81903 7.44706 6.68281
#
# Compressibility (1/GPa) = 0.01452697
#
# Stress axis : x y z
#
# Youngs Moduli (GPa) = 81.67260 110.74076 111.62247
#
# Poissons Ratio (x) = 0.43300 0.43257
# Poissons Ratio (y) = 0.31934 0.00756
# Poissons Ratio (z) = 0.31650 0.00750
#
# Static dielectric constant tensor:
#      x y z
#    x 4.539890 0.000000 0.000000 
#    y 0.000000 3.665240 0.000000 
#    z 0.000000 0.000000 3.678850 
# 
# 
# High freq. dielectric constant tensor:
#      x y z
#    x 1.800450 0.000000 0.000000 
#    y 0.000000 1.812200 0.000000 
#    z 0.000000 0.000000 1.794560 
# 
# From -- ./inp_files/46554.got.cif
#   From: 2010.03.12/outbox.cif.g09.slc.cpg/sg63_24_cif.got.tgz:46554.got - 2010.04.10 19:34:48.
