data_PCOD8261211
_publ_section_title
;
Structure prediction by ZEFSAII (Michael W. Deem and Ramdas Pophale) SiO2 
 PCOD8261211
Probable space group: C M C M
;
_chemical_formula_sum "Si O2"
_cell_formula_units_Z 96
_cell_length_a 18.827791
_cell_length_b 9.214190
_cell_length_c 28.022106
_cell_angle_alpha 90.000000
_cell_angle_beta 90.000000
_cell_angle_gamma 90.000000
_cell_volume 4861.354631
_symmetry_space_group_name_H-M "C M C M"
_symmetry_group_IT_number 63
_symmetry_cell_setting 'orthorhombic'
loop_
_space_group_symop_operation_xyz
x,y,z
-x,-y,1/2+z
x,-y,-z
-x,y,1/2-z
-x,-y,-z
x,y,1/2-z
-x,y,z
x,-y,1/2+z
1/2+x,1/2+y,z
1/2-x,1/2-y,1/2+z
1/2+x,1/2-y,-z
1/2-x,1/2+y,1/2-z
1/2-x,1/2-y,-z
1/2+x,1/2+y,1/2-z
1/2-x,1/2+y,z
1/2+x,1/2-y,1/2+z
loop_
_atom_site_type_symbol
_atom_site_label
_atom_site_fract_x
_atom_site_fract_y
_atom_site_fract_z
Si Si1 0.674012 0.962162 0.128738
Si Si2 0.421583 0.789106 0.305871
Si Si3 0.320394 0.703644 0.620766
Si Si4 0.416473 0.539679 0.695333
Si Si5 0.081047 0.622752 0.960565
Si Si6 0.177635 0.833329 0.012089
O O1 0.634255 0.905599 0.175482
O O2 0.746658 0.878010 0.123577
O O3 0.623250 0.934553 0.084470
O O4 0.691875 0.130064 0.134379
O O5 0.424940 0.807764 0.250000
O O6 0.500000 0.819055 0.327465
O O7 0.397799 0.625598 0.318877
O O8 0.376855 0.642523 0.658246
O O9 0.347655 0.687250 0.566602
O O10 0.392199 0.571701 0.750000
O O11 0.500000 0.568519 0.690631
O O12 0.000000 0.654612 0.946282
O O13 0.087261 0.500000 0.000000
O O14 0.114701 0.772681 0.979072
O O15 0.250000 0.750000 0.000000
O O16 0.190884 0.000000 0.000000
#
# Coordination Sequence:
#
# PCOD8261211 Si02
#       6
#    16  16  16  16  16  16
#     4  12  24  40  62  93 124 165 209 261 309 374
#     4   9  20  41  67  92 124 166 206 253 318 383
#     4  12  25  39  65  94 124 169 216 258 322 378
#     4   9  21  43  67  94 129 164 205 264 325 381
#     4  11  24  43  64  91 128 165 205 257 316 371
#     4  12  24  42  66  91 129 171 214 262 315 377
#
# _framework density 19.747582999999999
#
# number of rings (size 3 to 8) (size 9 to 14) (size 15 to 20)
#    0.000    1.167    3.333    4.000    2.333    3.667 
#    0.000    1.667    0.000    0.000    0.000    0.000 
#    0.000    0.000    0.000    0.000    0.000    0.000 
#
# Total GULP energy -595330.755491 kJ/mol
# GULP energy per Si atom -12402.724073 kJ/mol
# Density = 1.970264 g / cm^3
# Si number density = 19.747583 Si / 1000 Ang^3
#
#
#
# Elastic Constant Matrix: (Units=GPa)
#
#
# Indices 1 2 3 4 5 6 
#
# 1 100.1386 55.9195 32.0555 0.0000 0.0000 0.0000
# 2 55.9195 151.8493 35.7989 0.0000 0.0000 0.0000
# 3 32.0555 35.7989 67.2238 0.0000 0.0000 0.0000
# 4 0.0000 0.0000 0.0000 32.2074 0.0000 0.0000
# 5 0.0000 0.0000 0.0000 0.0000 57.9174 0.0000
# 6 0.0000 0.0000 0.0000 0.0000 0.0000 15.3737
#
#
#
# Elastic Compliance Matrix: (Units=1/GPa)
#
#
# Indices 1 2 3 4 5 6 
#
# 1 0.013608 -0.003981 -0.004369 0.000000 0.000000 0.000000
# 2 -0.003981 0.008696 -0.002732 0.000000 0.000000 0.000000
# 3 -0.004369 -0.002732 0.018414 0.000000 0.000000 0.000000
# 4 0.000000 0.000000 0.000000 0.031049 0.000000 0.000000
# 5 0.000000 0.000000 0.000000 0.000000 0.017266 0.000000
# 6 0.000000 0.000000 0.000000 0.000000 0.000000 0.065046
#
#
# Mechanical properties :
#
#
# Convention : Reuss Voigt Hill
#
# Bulk Modulus (GPa) = 53.89973 62.97327 58.43650
# Shear Modulus (GPa) = 27.40819 34.12889 30.76854
#
# Velocity S-wave (km/s) = 3.72953 4.16174 3.95155
# Velocity P-wave (km/s) = 6.77491 7.41969 7.10462
#
# Compressibility (1/GPa) = 0.01855297
#
# Stress axis : x y z
#
# Youngs Moduli (GPa) = 73.48703 114.99879 54.30659
#
# Poissons Ratio (x) = 0.45784 0.23725
# Poissons Ratio (y) = 0.29257 0.14838
# Poissons Ratio (z) = 0.32104 0.31422
#
# Static dielectric constant tensor:
#      x y z
#    x 3.828490 0.000000 0.000000 
#    y 0.000000 3.986580 0.000000 
#    z 0.000000 0.000000 4.208780 
# 
# 
# High freq. dielectric constant tensor:
#      x y z
#    x 1.774550 0.000000 0.000000 
#    y 0.000000 1.775950 0.000000 
#    z 0.000000 0.000000 1.779340 
# 
# From -- ./inp_files/70281.got.cif
#   From: 2010.03.12/outbox.cif.g09.slc.cpg/sg63_36_cif.got.tgz:70281.got - 2010.04.10 19:34:48.
