data_PCOD8261975
_publ_section_title
;
Structure prediction by ZEFSAII (Michael W. Deem and Ramdas Pophale) SiO2 
 PCOD8261975
Probable space group: C M C A
;
_chemical_formula_sum "Si O2"
_cell_formula_units_Z 96
_cell_length_a 8.943773
_cell_length_b 27.535036
_cell_length_c 23.926142
_cell_angle_alpha 90.000000
_cell_angle_beta 90.000000
_cell_angle_gamma 90.000000
_cell_volume 5892.221880
_symmetry_space_group_name_H-M "C M C A"
_symmetry_group_IT_number 64
_symmetry_cell_setting 'orthorhombic'
loop_
_space_group_symop_operation_xyz
x,y,z
-x,1/2-y,1/2+z
x,-y,-z
-x,1/2+y,1/2-z
-x,-y,-z
x,1/2+y,1/2-z
-x,y,z
x,1/2-y,1/2+z
1/2+x,1/2+y,z
1/2-x,-y,1/2+z
1/2+x,1/2-y,-z
1/2-x,y,1/2-z
1/2-x,1/2-y,-z
1/2+x,y,1/2-z
1/2-x,1/2+y,z
1/2+x,-y,1/2+z
loop_
_atom_site_type_symbol
_atom_site_label
_atom_site_fract_x
_atom_site_fract_y
_atom_site_fract_z
Si Si1 0.823103 0.071541 0.026666
Si Si2 0.177892 0.022093 0.915088
Si Si3 0.674434 0.820999 0.517098
Si Si4 0.825547 0.727126 0.914832
Si Si5 0.324124 0.687321 0.807525
Si Si6 0.675795 0.924461 0.306896
O O1 0.772049 0.126472 0.040099
O O2 0.000000 0.068229 0.024539
O O3 0.767537 0.033648 0.074428
O O4 0.761513 0.055244 0.966017
O O5 0.242874 0.042746 0.857031
O O6 0.000000 0.025326 0.912538
O O7 0.500000 0.821077 0.500530
O O8 0.766143 0.810088 0.461184
O O9 0.707914 0.782061 0.565301
O O10 0.739895 0.720152 0.857033
O O11 0.000000 0.717656 0.905755
O O12 0.500000 0.695277 0.803303
O O13 0.250000 0.705112 0.750000
O O14 0.281970 0.631356 0.819295
O O15 0.500000 0.930815 0.300508
O O16 0.750000 0.943049 0.250000
#
# Coordination Sequence:
#
# PCOD8261975 Si02
#       6
#    16  16  16  16  16  16
#     4   8  13  23  41  64  86 108 138 176 213 250
#     4   8  13  22  40  65  87 107 136 173 211 251
#     4   9  17  29  45  65  89 117 148 181 216 254
#     4  10  19  29  43  65  91 118 148 180 216 258
#     4  10  19  31  47  66  89 115 144 179 218 260
#     4   9  17  28  43  64  87 111 138 170 210 255
#
# _framework density 16.292666000000001
#
# number of rings (size 3 to 8) (size 9 to 14) (size 15 to 20)
#    0.000    3.000    0.000    3.000    0.000    4.000 
#    0.000    0.000    0.000    2.000    0.000    5.833 
#    0.000    0.000    0.000    0.000    0.000    0.000 
#
# Total GULP energy -594999.495169 kJ/mol
# GULP energy per Si atom -12395.822816 kJ/mol
# Density = 1.625558 g / cm^3
# Si number density = 16.292666 Si / 1000 Ang^3
#
#
#
# Elastic Constant Matrix: (Units=GPa)
#
#
# Indices 1 2 3 4 5 6 
#
# 1 41.9400 27.4065 39.5822 0.0000 0.0000 0.0000
# 2 27.4065 114.3744 66.3076 0.0000 0.0000 0.0000
# 3 39.5822 66.3076 138.2041 0.0000 0.0000 0.0000
# 4 0.0000 0.0000 0.0000 26.3189 0.0000 0.0000
# 5 0.0000 0.0000 0.0000 0.0000 27.4376 0.0000
# 6 0.0000 0.0000 0.0000 0.0000 0.0000 13.3495
#
#
#
# Elastic Compliance Matrix: (Units=1/GPa)
#
#
# Indices 1 2 3 4 5 6 
#
# 1 0.033618 -0.003427 -0.007984 0.000000 0.000000 0.000000
# 2 -0.003427 0.012462 -0.004997 0.000000 0.000000 0.000000
# 3 -0.007984 -0.004997 0.011920 0.000000 0.000000 0.000000
# 4 0.000000 0.000000 0.000000 0.037995 0.000000 0.000000
# 5 0.000000 0.000000 0.000000 0.000000 0.036446 0.000000
# 6 0.000000 0.000000 0.000000 0.000000 0.000000 0.074909
#
#
# Mechanical properties :
#
#
# Convention : Reuss Voigt Hill
#
# Bulk Modulus (GPa) = 39.70936 62.34568 51.02752
# Shear Modulus (GPa) = 20.11568 24.16934 22.14251
#
# Velocity S-wave (km/s) = 3.51757 3.85574 3.69053
# Velocity P-wave (km/s) = 6.39712 7.62702 7.03898
#
# Compressibility (1/GPa) = 0.02518298
#
# Stress axis : x y z
#
# Youngs Moduli (GPa) = 29.74565 80.24701 83.89223
#
# Poissons Ratio (x) = 0.27499 0.66982
# Poissons Ratio (y) = 0.10193 0.41924
# Poissons Ratio (z) = 0.23750 0.40102
#
# Static dielectric constant tensor:
#      x y z
#    x 2.828610 0.000000 0.000000 
#    y 0.000000 3.281170 0.000000 
#    z 0.000000 0.000000 3.124020 
# 
# 
# High freq. dielectric constant tensor:
#      x y z
#    x 1.601170 0.000000 0.000000 
#    y 0.000000 1.620240 0.000000 
#    z 0.000000 0.000000 1.619500 
# 
# From -- ./inp_files/43233.got.cif
#   From: 2010.03.12/outbox.cif.g09.slc.cpg/sg64_22_cif.got.tgz:43233.got - 2010.04.10 20:19:32.
