data_PCOD8261522
_publ_section_title
;
Structure prediction by ZEFSAII (Michael W. Deem and Ramdas Pophale) SiO2 
 PCOD8261522
Probable space group: C M C A
;
_chemical_formula_sum "Si O2"
_cell_formula_units_Z 128
_cell_length_a 17.881884
_cell_length_b 19.956097
_cell_length_c 21.518611
_cell_angle_alpha 90.000000
_cell_angle_beta 90.000000
_cell_angle_gamma 90.000000
_cell_volume 7678.972534
_symmetry_space_group_name_H-M "C M C A"
_symmetry_group_IT_number 64
_symmetry_cell_setting 'orthorhombic'
loop_
_space_group_symop_operation_xyz
x,y,z
-x,1/2-y,1/2+z
x,-y,-z
-x,1/2+y,1/2-z
-x,-y,-z
x,1/2+y,1/2-z
-x,y,z
x,1/2-y,1/2+z
1/2+x,1/2+y,z
1/2-x,-y,1/2+z
1/2+x,1/2-y,-z
1/2-x,y,1/2-z
1/2-x,1/2-y,-z
1/2+x,y,1/2-z
1/2-x,1/2+y,z
1/2+x,-y,1/2+z
loop_
_atom_site_type_symbol
_atom_site_label
_atom_site_fract_x
_atom_site_fract_y
_atom_site_fract_z
Si Si1 0.582615 0.139724 0.770357
Si Si2 0.585944 0.804756 0.539999
Si Si3 0.168839 0.306285 0.414164
Si Si4 0.413345 0.925585 0.351560
Si Si5 0.082615 0.769125 0.684110
Si Si6 0.824929 0.158594 0.222123
Si Si7 0.828507 0.218134 0.635718
Si Si8 0.084085 0.922769 0.871542
O O1 0.500000 0.124159 0.797571
O O2 0.607879 0.080203 0.722482
O O3 0.579582 0.205503 0.728523
O O4 0.638872 0.152467 0.828117
O O5 0.500000 0.791702 0.519065
O O6 0.645339 0.795180 0.485182
O O7 0.606650 0.751323 0.593640
O O8 0.594152 0.881166 0.564710
O O9 0.138247 0.377617 0.392115
O O10 0.133500 0.245313 0.375545
O O11 0.258516 0.304852 0.406196
O O12 0.500000 0.903306 0.359372
O O13 0.400050 0.998775 0.380340
O O14 0.116301 0.830516 0.722532
O O15 0.000000 0.789080 0.661165
O O16 0.750000 0.127550 0.250000
O O17 0.803298 0.227468 0.186772
O O18 0.857202 0.102552 0.177931
O O19 0.000000 0.911460 0.846219
#
# Coordination Sequence:
#
# PCOD8261522 Si02
#       8
#    16  16  16  16  16  16  16  16
#     4   8  15  28  47  68  93 123 156 192 235 287
#     4  10  20  33  50  69  95 131 165 195 235 285
#     4  11  19  30  46  71  99 126 158 202 238 282
#     4   9  18  32  49  71  97 125 160 198 232 281
#     4   9  16  26  44  67  92 122 156 193 236 287
#     4  10  17  30  46  68  93 124 152 195 244 289
#     4  10  19  30  47  69  99 124 155 195 244 284
#     4   9  19  34  49  68  95 127 162 196 232 282
#
# _framework density 16.668896
#
# number of rings (size 3 to 8) (size 9 to 14) (size 15 to 20)
#    0.000    2.500    1.250    3.000    0.000    3.500 
#    2.250    1.875    0.000    0.000    0.000    0.000 
#    0.000    0.000    0.000   13.125    0.000    0.500 
#
# Total GULP energy -793322.570961 kJ/mol
# GULP energy per Si atom -12395.665171 kJ/mol
# Density = 1.663096 g / cm^3
# Si number density = 16.668896 Si / 1000 Ang^3
#
#
#
# Elastic Constant Matrix: (Units=GPa)
#
#
# Indices 1 2 3 4 5 6 
#
# 1 77.0467 11.9846 25.1245 0.0000 0.0000 0.0000
# 2 11.9846 40.3702 12.2794 0.0000 0.0000 0.0000
# 3 25.1245 12.2794 70.3938 0.0000 0.0000 0.0000
# 4 0.0000 0.0000 0.0000 13.7869 0.0000 0.0000
# 5 0.0000 0.0000 0.0000 0.0000 33.6310 0.0000
# 6 0.0000 0.0000 0.0000 0.0000 0.0000 16.3960
#
#
#
# Elastic Compliance Matrix: (Units=1/GPa)
#
#
# Indices 1 2 3 4 5 6 
#
# 1 0.015022 -0.002987 -0.004841 0.000000 0.000000 0.000000
# 2 -0.002987 0.026753 -0.003601 0.000000 0.000000 0.000000
# 3 -0.004841 -0.003601 0.016562 0.000000 0.000000 0.000000
# 4 0.000000 0.000000 0.000000 0.072533 0.000000 0.000000
# 5 0.000000 0.000000 0.000000 0.000000 0.029735 0.000000
# 6 0.000000 0.000000 0.000000 0.000000 0.000000 0.060991
#
#
# Mechanical properties :
#
#
# Convention : Reuss Voigt Hill
#
# Bulk Modulus (GPa) = 28.18503 31.84310 30.01407
# Shear Modulus (GPa) = 19.51009 21.99091 20.75050
#
# Velocity S-wave (km/s) = 3.42489 3.63613 3.53209
# Velocity P-wave (km/s) = 5.70836 6.06410 5.88892
#
# Compressibility (1/GPa) = 0.03547983
#
# Stress axis : x y z
#
# Youngs Moduli (GPa) = 66.56771 37.37934 60.38092
#
# Poissons Ratio (x) = 0.11166 0.29228
# Poissons Ratio (y) = 0.19886 0.21740
# Poissons Ratio (z) = 0.32223 0.13459
#
# Static dielectric constant tensor:
#      x y z
#    x 3.184320 0.000000 0.000000 
#    y 0.000000 2.895980 0.000000 
#    z 0.000000 0.000000 3.075370 
# 
# 
# High freq. dielectric constant tensor:
#      x y z
#    x 1.647740 0.000000 0.000000 
#    y 0.000000 1.604410 0.000000 
#    z 0.000000 0.000000 1.631420 
# 
# From -- ./inp_files/33780.got.cif
#   From: 2010.03.12/outbox.cif.g09.slc.cpg/sg64_17_cif.got.tgz:33780.got - 2010.04.10 20:19:32.
