data_PCOD8261180
_publ_section_title
;
Structure prediction by ZEFSAII (Michael W. Deem and Ramdas Pophale) SiO2 
 PCOD8261180
Probable space group: C M C M
;
_chemical_formula_sum "Si O2"
_cell_formula_units_Z 48
_cell_length_a 7.479056
_cell_length_b 18.520721
_cell_length_c 16.896342
_cell_angle_alpha 90.000000
_cell_angle_beta 90.000000
_cell_angle_gamma 90.000000
_cell_volume 2340.439214
_symmetry_space_group_name_H-M "C M C M"
_symmetry_group_IT_number 63
_symmetry_cell_setting 'orthorhombic'
loop_
_space_group_symop_operation_xyz
x,y,z
-x,-y,1/2+z
x,-y,-z
-x,y,1/2-z
-x,-y,-z
x,y,1/2-z
-x,y,z
x,-y,1/2+z
1/2+x,1/2+y,z
1/2-x,1/2-y,1/2+z
1/2+x,1/2-y,-z
1/2-x,1/2+y,1/2-z
1/2-x,1/2-y,-z
1/2+x,1/2+y,1/2-z
1/2-x,1/2+y,z
1/2+x,1/2-y,1/2+z
loop_
_atom_site_type_symbol
_atom_site_label
_atom_site_fract_x
_atom_site_fract_y
_atom_site_fract_z
Si Si1 0.000000 0.830624 0.160448
Si Si2 0.294490 0.917160 0.658589
Si Si3 0.203982 0.765573 0.590071
Si Si4 0.500000 0.483678 0.091901
O O1 0.174688 0.782197 0.147294
O O2 0.000000 0.859143 0.250000
O O3 0.000000 0.897682 0.101089
O O4 0.259066 0.898080 0.750000
O O5 0.500000 0.937740 0.643430
O O6 0.237995 0.849605 0.605622
O O7 0.177427 0.985448 0.633029
O O8 0.250000 0.750000 0.500000
O O9 0.000000 0.745425 0.608117
O O10 0.500000 0.500000 0.000000
#
# Coordination Sequence:
#
# PCOD8261180 Si02
#       4
#     8  16  16   8
#     4  12  26  42  64 104 142 168 220 290 336 382
#     4  11  23  42  69  97 128 174 227 269 321 400
#     4  12  23  41  69  99 133 176 223 272 331 397
#     4  12  26  44  68  96 135 178 219 274 338 396
#
# _framework density 20.508970999999999
#
# number of rings (size 3 to 8) (size 9 to 14) (size 15 to 20)
#    0.000    0.333    5.000    4.500    0.000    4.000 
#    0.000    0.000    0.000    0.000    0.000    0.000 
#    0.000    0.000    0.000    0.000    0.000    0.000 
#
# Total GULP energy -297812.779988 kJ/mol
# GULP energy per Si atom -12408.865833 kJ/mol
# Density = 2.046229 g / cm^3
# Si number density = 20.508971 Si / 1000 Ang^3
#
#
#
# Elastic Constant Matrix: (Units=GPa)
#
#
# Indices 1 2 3 4 5 6 
#
# 1 187.5728 41.4881 32.9933 0.0000 0.0000 0.0000
# 2 41.4881 82.8831 -9.9839 0.0000 0.0000 0.0000
# 3 32.9933 -9.9839 86.6189 0.0000 0.0000 0.0000
# 4 0.0000 0.0000 0.0000 40.3351 0.0000 0.0000
# 5 0.0000 0.0000 0.0000 0.0000 15.3434 0.0000
# 6 0.0000 0.0000 0.0000 0.0000 0.0000 15.7021
#
#
#
# Elastic Compliance Matrix: (Units=1/GPa)
#
#
# Indices 1 2 3 4 5 6 
#
# 1 0.006671 -0.003697 -0.002967 0.000000 0.000000 0.000000
# 2 -0.003697 0.014283 0.003054 0.000000 0.000000 0.000000
# 3 -0.002967 0.003054 0.013027 0.000000 0.000000 0.000000
# 4 0.000000 0.000000 0.000000 0.024792 0.000000 0.000000
# 5 0.000000 0.000000 0.000000 0.000000 0.065175 0.000000
# 6 0.000000 0.000000 0.000000 0.000000 0.000000 0.063686
#
#
# Mechanical properties :
#
#
# Convention : Reuss Voigt Hill
#
# Bulk Modulus (GPa) = 37.36511 54.00774 45.68642
# Shear Modulus (GPa) = 24.53707 33.78127 29.15917
#
# Velocity S-wave (km/s) = 3.46266 4.06291 3.77474
# Velocity P-wave (km/s) = 5.85194 6.95705 6.42828
#
# Compressibility (1/GPa) = 0.02676294
#
# Stress axis : x y z
#
# Youngs Moduli (GPa) = 149.90816 70.01114 76.76363
#
# Poissons Ratio (x) = 0.25880 0.22776
# Poissons Ratio (y) = 0.55414 -0.23446
# Poissons Ratio (z) = 0.44477 -0.21384
#
# Static dielectric constant tensor:
#      x y z
#    x 4.151490 0.000000 0.000000 
#    y 0.000000 2.877850 0.000000 
#    z 0.000000 0.000000 3.828900 
# 
# 
# High freq. dielectric constant tensor:
#      x y z
#    x 1.821660 0.000000 0.000000 
#    y 0.000000 1.800050 0.000000 
#    z 0.000000 0.000000 1.815410 
# 
# From -- ./inp_files/26966.got.cif
#   From: 2010.03.12/outbox.cif.g09.slc.cpg/sg63_14_cif.got.tgz:26966.got - 2010.04.10 19:34:48.
