data_PCOD8261638
_publ_section_title
;
Structure prediction by ZEFSAII (Michael W. Deem and Ramdas Pophale) SiO2 
 PCOD8261638
Probable space group: C M C A
;
_chemical_formula_sum "Si O2"
_cell_formula_units_Z 96
_cell_length_a 9.168582
_cell_length_b 20.586420
_cell_length_c 29.485852
_cell_angle_alpha 90.000000
_cell_angle_beta 90.000000
_cell_angle_gamma 90.000000
_cell_volume 5565.403845
_symmetry_space_group_name_H-M "C M C A"
_symmetry_group_IT_number 64
_symmetry_cell_setting 'orthorhombic'
loop_
_space_group_symop_operation_xyz
x,y,z
-x,1/2-y,1/2+z
x,-y,-z
-x,1/2+y,1/2-z
-x,-y,-z
x,1/2+y,1/2-z
-x,y,z
x,1/2-y,1/2+z
1/2+x,1/2+y,z
1/2-x,-y,1/2+z
1/2+x,1/2-y,-z
1/2-x,y,1/2-z
1/2-x,1/2-y,-z
1/2+x,y,1/2-z
1/2-x,1/2+y,z
1/2+x,-y,1/2+z
loop_
_atom_site_type_symbol
_atom_site_label
_atom_site_fract_x
_atom_site_fract_y
_atom_site_fract_z
Si Si1 0.668225 0.192838 0.524332
Si Si2 0.167145 0.756666 0.120084
Si Si3 0.828795 0.935350 0.973182
Si Si4 0.666096 0.104378 0.294139
Si Si5 0.672059 0.393155 0.614932
Si Si6 0.663130 0.740972 0.707146
O O1 0.500000 0.204494 0.513972
O O2 0.750000 0.250000 0.500000
O O3 0.699050 0.196043 0.577997
O O4 0.720277 0.123681 0.505596
O O5 0.208239 0.682759 0.106845
O O6 0.263345 0.783990 0.161055
O O7 0.000000 0.758999 0.135931
O O8 0.000000 0.932676 0.961513
O O9 0.738806 0.933504 0.926640
O O10 0.786661 0.000000 0.000000
O O11 0.500000 0.077844 0.295105
O O12 0.750000 0.076400 0.250000
O O13 0.752071 0.081529 0.338995
O O14 0.665477 0.181687 0.291758
O O15 0.500000 0.405994 0.618299
O O16 0.500000 0.713504 0.709131
O O17 0.750000 0.712395 0.750000
#
# Coordination Sequence:
#
# PCOD8261638 Si02
#       6
#    16  16  16  16  16  16
#     4  10  19  32  50  71  96 126 163 203 243 287
#     4   9  17  28  43  66  93 122 157 198 240 283
#     4  10  21  35  50  70  98 132 167 204 249 299
#     4   9  16  26  41  64  94 126 159 196 240 290
#     4  10  18  29  46  68  95 127 162 201 245 290
#     4   9  16  25  39  61  91 125 155 189 234 285
#
# _framework density 17.249423
#
# number of rings (size 3 to 8) (size 9 to 14) (size 15 to 20)
#    0.000    2.500    1.667    1.500    0.000    5.667 
#    0.000    0.000    0.000    0.000    0.000    1.167 
#    0.000    5.333    0.000    0.000    0.000    0.000 
#
# Total GULP energy -595208.114756 kJ/mol
# GULP energy per Si atom -12400.169057 kJ/mol
# Density = 1.721016 g / cm^3
# Si number density = 17.249423 Si / 1000 Ang^3
#
#
#
# Elastic Constant Matrix: (Units=GPa)
#
#
# Indices 1 2 3 4 5 6 
#
# 1 109.3684 32.7177 83.4827 0.0000 0.0000 0.0000
# 2 32.7177 61.6118 49.1209 0.0000 0.0000 0.0000
# 3 83.4827 49.1209 159.4154 0.0000 0.0000 0.0000
# 4 0.0000 0.0000 0.0000 12.8404 0.0000 0.0000
# 5 0.0000 0.0000 0.0000 0.0000 39.7911 0.0000
# 6 0.0000 0.0000 0.0000 0.0000 0.0000 11.9290
#
#
#
# Elastic Compliance Matrix: (Units=1/GPa)
#
#
# Indices 1 2 3 4 5 6 
#
# 1 0.015480 -0.002330 -0.007389 0.000000 0.000000 0.000000
# 2 -0.002330 0.021867 -0.005518 0.000000 0.000000 0.000000
# 3 -0.007389 -0.005518 0.011843 0.000000 0.000000 0.000000
# 4 0.000000 0.000000 0.000000 0.077879 0.000000 0.000000
# 5 0.000000 0.000000 0.000000 0.000000 0.025131 0.000000
# 6 0.000000 0.000000 0.000000 0.000000 0.000000 0.083829
#
#
# Mechanical properties :
#
#
# Convention : Reuss Voigt Hill
#
# Bulk Modulus (GPa) = 53.42728 73.44869 63.43798
# Shear Modulus (GPa) = 18.33235 23.91705 21.12470
#
# Velocity S-wave (km/s) = 3.26357 3.72767 3.50331
# Velocity P-wave (km/s) = 6.72620 7.82305 7.29527
#
# Compressibility (1/GPa) = 0.01871703
#
# Stress axis : x y z
#
# Youngs Moduli (GPa) = 64.59767 45.73100 84.44069
#
# Poissons Ratio (x) = 0.10653 0.62393
# Poissons Ratio (y) = 0.15049 0.46594
# Poissons Ratio (z) = 0.47731 0.25234
#
# Static dielectric constant tensor:
#      x y z
#    x 3.332650 0.000000 0.000000 
#    y 0.000000 2.795970 0.000000 
#    z 0.000000 0.000000 3.203660 
# 
# 
# High freq. dielectric constant tensor:
#      x y z
#    x 1.675550 0.000000 0.000000 
#    y 0.000000 1.598370 0.000000 
#    z 0.000000 0.000000 1.682980 
# 
# From -- ./inp_files/48051.got.cif
#   From: 2010.03.12/outbox.cif.g09.slc.cpg/sg64_25_cif.got.tgz:48051.got - 2010.04.10 20:19:32.
