data_PCOD8261880
_publ_section_title
;
Structure prediction by ZEFSAII (Michael W. Deem and Ramdas Pophale) SiO2 
 PCOD8261880
Probable space group: C M C A
;
_chemical_formula_sum "Si O2"
_cell_formula_units_Z 96
_cell_length_a 26.209562
_cell_length_b 21.391348
_cell_length_c 10.110262
_cell_angle_alpha 90.000000
_cell_angle_beta 90.000000
_cell_angle_gamma 90.000000
_cell_volume 5668.397874
_symmetry_space_group_name_H-M "C M C A"
_symmetry_group_IT_number 64
_symmetry_cell_setting 'orthorhombic'
loop_
_space_group_symop_operation_xyz
x,y,z
-x,1/2-y,1/2+z
x,-y,-z
-x,1/2+y,1/2-z
-x,-y,-z
x,1/2+y,1/2-z
-x,y,z
x,1/2-y,1/2+z
1/2+x,1/2+y,z
1/2-x,-y,1/2+z
1/2+x,1/2-y,-z
1/2-x,y,1/2-z
1/2-x,1/2-y,-z
1/2+x,y,1/2-z
1/2-x,1/2+y,z
1/2+x,-y,1/2+z
loop_
_atom_site_type_symbol
_atom_site_label
_atom_site_fract_x
_atom_site_fract_y
_atom_site_fract_z
Si Si1 0.163529 0.644366 0.715477
Si Si2 0.348180 0.866792 0.987116
Si Si3 0.057460 0.683193 0.683432
Si Si4 0.694845 0.500000 0.500000
Si Si5 0.750000 0.450019 0.250000
Si Si6 0.215657 0.763461 0.624052
Si Si7 0.943547 0.292808 0.018638
O O1 0.103121 0.630482 0.681664
O O2 0.203881 0.589672 0.681819
O O3 0.175822 0.706893 0.635312
O O4 0.171155 0.656815 0.870579
O O5 0.341625 0.940966 0.972915
O O6 0.314062 0.829113 0.882929
O O7 0.407235 0.848688 0.968649
O O8 0.067387 0.729263 0.560808
O O9 0.062649 0.720171 0.823635
O O10 0.000000 0.653509 0.672550
O O11 0.729278 0.492039 0.369599
O O12 0.250000 0.768342 0.750000
O O13 0.250000 0.750000 0.500000
O O14 0.000000 0.317056 0.985946
#
# Coordination Sequence:
#
# PCOD8261880 Si02
#       7
#    16  16  16   8   8  16  16
#     4  10  18  34  51  72 104 133 154 205 263 296
#     4  10  20  34  51  70 101 134 165 205 244 296
#     4   9  17  29  48  74 102 129 159 197 250 308
#     4  10  22  38  49  68  99 138 174 202 240 286
#     4  10  20  38  52  70 100 134 166 212 244 300
#     4  12  20  30  47  75 100 126 159 201 255 308
#     4   9  17  30  49  74 101 129 160 200 248 297
#
# _framework density 16.936001999999998
#
# number of rings (size 3 to 8) (size 9 to 14) (size 15 to 20)
#    0.000    2.000    4.167    1.000    1.167    0.000 
#    0.000    0.417    0.000    1.000    0.000    0.583 
#    0.000    0.000    0.000    2.167    0.000    0.000 
#
# Total GULP energy -594742.630558 kJ/mol
# GULP energy per Si atom -12390.471470 kJ/mol
# Density = 1.689746 g / cm^3
# Si number density = 16.936002 Si / 1000 Ang^3
#
#
#
# Elastic Constant Matrix: (Units=GPa)
#
#
# Indices 1 2 3 4 5 6 
#
# 1 109.3280 38.5124 25.0705 0.0000 0.0000 0.0000
# 2 38.5124 74.8247 19.1481 0.0000 0.0000 0.0000
# 3 25.0705 19.1481 58.2853 0.0000 0.0000 0.0000
# 4 0.0000 0.0000 0.0000 24.4504 0.0000 0.0000
# 5 0.0000 0.0000 0.0000 0.0000 18.3695 0.0000
# 6 0.0000 0.0000 0.0000 0.0000 0.0000 24.3290
#
#
#
# Elastic Compliance Matrix: (Units=1/GPa)
#
#
# Indices 1 2 3 4 5 6 
#
# 1 0.011741 -0.005187 -0.003346 0.000000 0.000000 0.000000
# 2 -0.005187 0.016883 -0.003315 0.000000 0.000000 0.000000
# 3 -0.003346 -0.003315 0.019686 0.000000 0.000000 0.000000
# 4 0.000000 0.000000 0.000000 0.040899 0.000000 0.000000
# 5 0.000000 0.000000 0.000000 0.000000 0.054438 0.000000
# 6 0.000000 0.000000 0.000000 0.000000 0.000000 0.041103
#
#
# Mechanical properties :
#
#
# Convention : Reuss Voigt Hill
#
# Bulk Modulus (GPa) = 40.62983 45.32221 42.97602
# Shear Modulus (GPa) = 23.07857 24.07691 23.57774
#
# Velocity S-wave (km/s) = 3.69547 3.77456 3.73522
# Velocity P-wave (km/s) = 6.50008 6.76870 6.63575
#
# Compressibility (1/GPa) = 0.02461246
#
# Stress axis : x y z
#
# Youngs Moduli (GPa) = 85.16932 59.23229 50.79877
#
# Poissons Ratio (x) = 0.30723 0.16999
# Poissons Ratio (y) = 0.44177 0.16841
# Poissons Ratio (z) = 0.28500 0.19637
#
# Static dielectric constant tensor:
#      x y z
#    x 3.576190 0.000000 0.000000 
#    y 0.000000 2.890640 0.000000 
#    z 0.000000 0.000000 3.199150 
# 
# 
# High freq. dielectric constant tensor:
#      x y z
#    x 1.675200 0.000000 0.000000 
#    y 0.000000 1.607130 0.000000 
#    z 0.000000 0.000000 1.653850 
# 
# From -- ./inp_files/10552.got.cif
#   From: 2010.03.12/outbox.cif.g09.slc.cpg/sg64_6_cif.got.tgz:10552.got - 2010.04.10 20:19:32.
