data_PCOD8261938
_publ_section_title
;
Structure prediction by ZEFSAII (Michael W. Deem and Ramdas Pophale) SiO2 
 PCOD8261938
Probable space group: C M C A
;
_chemical_formula_sum "Si O2"
_cell_formula_units_Z 88
_cell_length_a 28.873846
_cell_length_b 11.854059
_cell_length_c 12.242525
_cell_angle_alpha 90.000000
_cell_angle_beta 90.000000
_cell_angle_gamma 90.000000
_cell_volume 4190.276872
_symmetry_space_group_name_H-M "C M C A"
_symmetry_group_IT_number 64
_symmetry_cell_setting 'orthorhombic'
loop_
_space_group_symop_operation_xyz
x,y,z
-x,1/2-y,1/2+z
x,-y,-z
-x,1/2+y,1/2-z
-x,-y,-z
x,1/2+y,1/2-z
-x,y,z
x,1/2-y,1/2+z
1/2+x,1/2+y,z
1/2-x,-y,1/2+z
1/2+x,1/2-y,-z
1/2-x,y,1/2-z
1/2-x,1/2-y,-z
1/2+x,y,1/2-z
1/2-x,1/2+y,z
1/2+x,-y,1/2+z
loop_
_atom_site_type_symbol
_atom_site_label
_atom_site_fract_x
_atom_site_fract_y
_atom_site_fract_z
Si Si1 0.054226 0.827286 0.967449
Si Si2 0.095353 0.087851 0.586435
Si Si3 0.715180 0.098765 0.428045
Si Si4 0.554484 0.962978 0.321217
Si Si5 0.197680 0.349290 0.061080
Si Si6 0.750000 0.036181 0.750000
O O1 0.078759 0.712063 0.939910
O O2 0.000000 0.808282 0.959882
O O3 0.068867 0.918485 0.875947
O O4 0.067169 0.866332 0.090375
O O5 0.083252 0.054246 0.710407
O O6 0.150108 0.083470 0.564878
O O7 0.072599 0.000000 0.500000
O O8 0.770170 0.115249 0.458401
O O9 0.687311 0.214696 0.441200
O O10 0.713274 0.048603 0.306381
O O11 0.691632 0.000000 0.500000
O O12 0.500000 0.959651 0.293251
O O13 0.226149 0.377443 0.168664
#
# Coordination Sequence:
#
# PCOD8261938 Si02
#       6
#    16  16  16  16  16   8
#     4   9  21  44  67  90 128 171 210 253 312 385
#     4  12  25  39  62 101 131 160 208 272 321 371
#     4   9  19  39  60  81 111 163 203 244 305 372
#     4   9  21  44  67  90 126 171 211 254 313 378
#     4  10  22  40  58  87 126 154 205 262 305 371
#     4  10  18  36  62  82 108 162 202 244 310 360
#
# _framework density 21.001000000000001
#
# number of rings (size 3 to 8) (size 9 to 14) (size 15 to 20)
#    0.000    2.182    0.000    3.818    2.545    2.909 
#   16.364    0.000    0.000    0.000    0.000    0.000 
#    0.000    0.000    0.000    0.000    0.000    0.000 
#
# Total GULP energy -545381.401048 kJ/mol
# GULP energy per Si atom -12395.031842 kJ/mol
# Density = 2.095320 g / cm^3
# Si number density = 21.001000 Si / 1000 Ang^3
#
#
#
# Elastic Constant Matrix: (Units=GPa)
#
#
# Indices 1 2 3 4 5 6 
#
# 1 51.8402 28.8058 36.6534 0.0000 0.0000 0.0000
# 2 28.8058 119.6144 45.3495 0.0000 0.0000 0.0000
# 3 36.6534 45.3495 132.0598 0.0000 0.0000 0.0000
# 4 0.0000 0.0000 0.0000 27.1710 0.0000 0.0000
# 5 0.0000 0.0000 0.0000 0.0000 18.8205 0.0000
# 6 0.0000 0.0000 0.0000 0.0000 0.0000 27.1761
#
#
#
# Elastic Compliance Matrix: (Units=1/GPa)
#
#
# Indices 1 2 3 4 5 6 
#
# 1 0.025550 -0.003983 -0.005724 0.000000 0.000000 0.000000
# 2 -0.003983 0.010232 -0.002408 0.000000 0.000000 0.000000
# 3 -0.005724 -0.002408 0.009988 0.000000 0.000000 0.000000
# 4 0.000000 0.000000 0.000000 0.036804 0.000000 0.000000
# 5 0.000000 0.000000 0.000000 0.000000 0.053134 0.000000
# 6 0.000000 0.000000 0.000000 0.000000 0.000000 0.036797
#
#
# Mechanical properties :
#
#
# Convention : Reuss Voigt Hill
#
# Bulk Modulus (GPa) = 46.42421 58.34798 52.38609
# Shear Modulus (GPa) = 24.51994 27.48056 26.00025
#
# Velocity S-wave (km/s) = 3.42067 3.62129 3.52241
# Velocity P-wave (km/s) = 6.14451 6.73266 6.44530
#
# Compressibility (1/GPa) = 0.02154049
#
# Stress axis : x y z
#
# Youngs Moduli (GPa) = 39.13853 97.72802 100.12021
#
# Poissons Ratio (x) = 0.38925 0.57306
# Poissons Ratio (y) = 0.15589 0.24112
# Poissons Ratio (z) = 0.22402 0.23536
#
# Static dielectric constant tensor:
#      x y z
#    x 3.513920 0.000000 0.000000 
#    y 0.000000 3.545940 0.000000 
#    z 0.000000 0.000000 3.915520 
# 
# 
# High freq. dielectric constant tensor:
#      x y z
#    x 1.795680 0.000000 0.000000 
#    y 0.000000 1.843080 0.000000 
#    z 0.000000 0.000000 1.827560 
# 
# From -- ./inp_files/19677.got.cif
#   From: 2010.03.12/outbox.cif.g09.slc.cpg/sg64_10_cif.got.tgz:19677.got - 2010.04.10 20:19:32.
