data_PCOD8261068
_publ_section_title
;
Structure prediction by ZEFSAII (Michael W. Deem and Ramdas Pophale) SiO2 
 PCOD8261068
Probable space group: C M C M
;
_chemical_formula_sum "Si O2"
_cell_formula_units_Z 64
_cell_length_a 14.351384
_cell_length_b 14.255763
_cell_length_c 17.369679
_cell_angle_alpha 90.000000
_cell_angle_beta 90.000000
_cell_angle_gamma 90.000000
_cell_volume 3553.661394
_symmetry_space_group_name_H-M "C M C M"
_symmetry_group_IT_number 63
_symmetry_cell_setting 'orthorhombic'
loop_
_space_group_symop_operation_xyz
x,y,z
-x,-y,1/2+z
x,-y,-z
-x,y,1/2-z
-x,-y,-z
x,y,1/2-z
-x,y,z
x,-y,1/2+z
1/2+x,1/2+y,z
1/2-x,1/2-y,1/2+z
1/2+x,1/2-y,-z
1/2-x,1/2+y,1/2-z
1/2-x,1/2-y,-z
1/2+x,1/2+y,1/2-z
1/2-x,1/2+y,z
1/2+x,1/2-y,1/2+z
loop_
_atom_site_type_symbol
_atom_site_label
_atom_site_fract_x
_atom_site_fract_y
_atom_site_fract_z
Si Si1 0.000000 0.779293 0.340917
Si Si2 0.146696 0.134659 0.341171
Si Si3 0.000000 0.012669 0.841958
Si Si4 0.500000 0.787833 0.159332
Si Si5 0.500000 0.990753 0.409508
Si Si6 0.644714 0.872221 0.841549
O O1 0.000000 0.882961 0.378395
O O2 0.091614 0.722547 0.367557
O O3 0.000000 0.790186 0.250000
O O4 0.152226 0.130557 0.250000
O O5 0.250899 0.134120 0.375580
O O6 0.091765 0.228872 0.364818
O O7 0.091668 0.042709 0.371234
O O8 0.000000 0.015923 0.750000
O O9 0.500000 0.810131 0.250000
O O10 0.500000 0.882022 0.111163
O O11 0.500000 0.000000 0.500000
O O12 0.406773 0.037324 0.375589
O O13 0.643411 0.882818 0.750000
#
# Coordination Sequence:
#
# PCOD8261068 Si02
#       6
#     8  16   8   8   8  16
#     4   8  14  23  38  61  91 118 141 175 226 276
#     4   8  15  27  47  73  97 118 149 193 242 289
#     4   8  13  23  40  69 100 117 137 184 241 291
#     4   9  17  32  52  74  97 124 157 198 244 292
#     4  11  22  34  47  68  98 135 171 203 239 283
#     4   9  17  31  49  71  95 121 156 200 241 283
#
# _framework density 18.009595000000001
#
# number of rings (size 3 to 8) (size 9 to 14) (size 15 to 20)
#    0.000    3.250    0.000    3.375    0.000    2.000 
#    0.000    8.750    0.000    0.000    0.000    8.750 
#    0.000    0.000    0.000    0.000    0.000    0.000 
#
# Total GULP energy -396627.478759 kJ/mol
# GULP energy per Si atom -12394.608711 kJ/mol
# Density = 1.796860 g / cm^3
# Si number density = 18.009595 Si / 1000 Ang^3
#
#
#
# Elastic Constant Matrix: (Units=GPa)
#
#
# Indices 1 2 3 4 5 6 
#
# 1 194.8480 87.5533 20.4343 0.0000 0.0000 0.0000
# 2 87.5533 161.1317 19.0007 0.0000 0.0000 0.0000
# 3 20.4343 19.0007 26.7612 0.0000 0.0000 0.0000
# 4 0.0000 0.0000 0.0000 5.1523 0.0000 0.0000
# 5 0.0000 0.0000 0.0000 0.0000 3.3028 0.0000
# 6 0.0000 0.0000 0.0000 0.0000 0.0000 14.3256
#
#
#
# Elastic Compliance Matrix: (Units=1/GPa)
#
#
# Indices 1 2 3 4 5 6 
#
# 1 0.006988 -0.003457 -0.002881 0.000000 0.000000 0.000000
# 2 -0.003457 0.008484 -0.003384 0.000000 0.000000 0.000000
# 3 -0.002881 -0.003384 0.041970 0.000000 0.000000 0.000000
# 4 0.000000 0.000000 0.000000 0.194090 0.000000 0.000000
# 5 0.000000 0.000000 0.000000 0.000000 0.302772 0.000000
# 6 0.000000 0.000000 0.000000 0.000000 0.000000 0.069805
#
#
# Mechanical properties :
#
#
# Convention : Reuss Voigt Hill
#
# Bulk Modulus (GPa) = 26.31749 70.74637 48.53193
# Shear Modulus (GPa) = 7.61943 21.60632 14.61287
#
# Velocity S-wave (km/s) = 2.05911 3.46744 2.85159
# Velocity P-wave (km/s) = 4.50533 7.44303 6.15210
#
# Compressibility (1/GPa) = 0.03799755
#
# Stress axis : x y z
#
# Youngs Moduli (GPa) = 143.10631 117.87427 23.82658
#
# Poissons Ratio (x) = 0.40751 0.06865
# Poissons Ratio (y) = 0.49475 0.08062
# Poissons Ratio (z) = 0.41230 0.39884
#
# Static dielectric constant tensor:
#      x y z
#    x 4.027140 0.000000 0.000000 
#    y 0.000000 3.526950 0.000000 
#    z 0.000000 0.000000 2.714890 
# 
# 
# High freq. dielectric constant tensor:
#      x y z
#    x 1.705210 0.000000 0.000000 
#    y 0.000000 1.704570 0.000000 
#    z 0.000000 0.000000 1.635950 
# 
# From -- ./inp_files/43721.got.cif
#   From: 2010.03.12/outbox.cif.g09.slc.cpg/sg63_22_cif.got.tgz:43721.got - 2010.04.10 19:34:48.
