data_PCOD8261141
_publ_section_title
;
Structure prediction by ZEFSAII (Michael W. Deem and Ramdas Pophale) SiO2 
 PCOD8261141
Probable space group: C M C M
;
_chemical_formula_sum "Si O2"
_cell_formula_units_Z 48
_cell_length_a 9.128448
_cell_length_b 18.157577
_cell_length_c 15.317627
_cell_angle_alpha 90.000000
_cell_angle_beta 90.000000
_cell_angle_gamma 90.000000
_cell_volume 2538.904295
_symmetry_space_group_name_H-M "C M C M"
_symmetry_group_IT_number 63
_symmetry_cell_setting 'orthorhombic'
loop_
_space_group_symop_operation_xyz
x,y,z
-x,-y,1/2+z
x,-y,-z
-x,y,1/2-z
-x,-y,-z
x,y,1/2-z
-x,y,z
x,-y,1/2+z
1/2+x,1/2+y,z
1/2-x,1/2-y,1/2+z
1/2+x,1/2-y,-z
1/2-x,1/2+y,1/2-z
1/2-x,1/2-y,-z
1/2+x,1/2+y,1/2-z
1/2-x,1/2+y,z
1/2+x,1/2-y,1/2+z
loop_
_atom_site_type_symbol
_atom_site_label
_atom_site_fract_x
_atom_site_fract_y
_atom_site_fract_z
Si Si1 0.826604 0.452171 0.250000
Si Si2 0.161639 0.338223 0.847487
Si Si3 0.668949 0.698990 0.750000
Si Si4 0.668442 0.466945 0.905317
O O1 0.782505 0.366596 0.250000
O O2 0.764340 0.487587 0.162381
O O3 0.000000 0.458772 0.250000
O O4 0.162858 0.374477 0.750000
O O5 0.196474 0.250733 0.836152
O O6 0.279746 0.381326 0.906357
O O7 0.000000 0.348275 0.888998
O O8 0.500000 0.670817 0.750000
O O9 0.500000 0.470734 0.876934
O O10 0.694271 0.500000 0.000000
#
# Coordination Sequence:
#
# PCOD8261141 Si02
#       4
#     8  16   8  16
#     4  12  23  36  57  85 113 145 185 230 277 326
#     4   8  16  33  57  81 106 141 180 221 275 324
#     4   8  17  34  57  81 109 145 181 224 279 330
#     4  11  23  37  57  84 113 148 187 228 275 328
#
# _framework density 18.905794
#
# number of rings (size 3 to 8) (size 9 to 14) (size 15 to 20)
#    1.000    1.333    1.667    2.500    0.000    4.000 
#    0.000    1.667    0.000    0.000    0.000    0.000 
#    0.000    0.000    0.000    0.000    0.000    0.000 
#
# Total GULP energy -297365.257600 kJ/mol
# GULP energy per Si atom -12390.219067 kJ/mol
# Density = 1.886276 g / cm^3
# Si number density = 18.905794 Si / 1000 Ang^3
#
#
#
# Elastic Constant Matrix: (Units=GPa)
#
#
# Indices 1 2 3 4 5 6 
#
# 1 148.1374 61.3448 58.1107 0.0000 0.0000 0.0000
# 2 61.3448 87.7454 32.6527 0.0000 0.0000 0.0000
# 3 58.1107 32.6527 58.0110 0.0000 0.0000 0.0000
# 4 0.0000 0.0000 0.0000 11.6128 0.0000 0.0000
# 5 0.0000 0.0000 0.0000 0.0000 21.3386 0.0000
# 6 0.0000 0.0000 0.0000 0.0000 0.0000 37.2463
#
#
#
# Elastic Compliance Matrix: (Units=1/GPa)
#
#
# Indices 1 2 3 4 5 6 
#
# 1 0.012803 -0.005285 -0.009850 0.000000 0.000000 0.000000
# 2 -0.005285 0.016598 -0.004048 0.000000 0.000000 0.000000
# 3 -0.009850 -0.004048 0.029384 0.000000 0.000000 0.000000
# 4 0.000000 0.000000 0.000000 0.086112 0.000000 0.000000
# 5 0.000000 0.000000 0.000000 0.000000 0.046864 0.000000
# 6 0.000000 0.000000 0.000000 0.000000 0.000000 0.026848
#
#
# Mechanical properties :
#
#
# Convention : Reuss Voigt Hill
#
# Bulk Modulus (GPa) = 48.97707 66.45667 57.71687
# Shear Modulus (GPa) = 18.95503 23.49191 21.22347
#
# Velocity S-wave (km/s) = 3.16983 3.52885 3.35414
# Velocity P-wave (km/s) = 6.27369 7.19941 6.75243
#
# Compressibility (1/GPa) = 0.02041772
#
# Stress axis : x y z
#
# Youngs Moduli (GPa) = 78.10515 60.24738 34.03240
#
# Poissons Ratio (x) = 0.31844 0.33523
# Poissons Ratio (y) = 0.41282 0.13777
# Poissons Ratio (z) = 0.76935 0.24389
#
# Static dielectric constant tensor:
#      x y z
#    x 3.453470 0.000000 0.000000 
#    y 0.000000 3.541560 0.000000 
#    z 0.000000 0.000000 3.094820 
# 
# 
# High freq. dielectric constant tensor:
#      x y z
#    x 1.737660 0.000000 0.000000 
#    y 0.000000 1.740310 0.000000 
#    z 0.000000 0.000000 1.696120 
# 
# From -- ./inp_files/27056.got.cif
#   From: 2010.03.12/outbox.cif.g09.slc.cpg/sg63_14_cif.got.tgz:27056.got - 2010.04.10 19:34:48.
