data_PCOD8261069
_publ_section_title
;
Structure prediction by ZEFSAII (Michael W. Deem and Ramdas Pophale) SiO2 
 PCOD8261069
Probable space group: C M C M
;
_chemical_formula_sum "Si O2"
_cell_formula_units_Z 96
_cell_length_a 8.976026
_cell_length_b 22.944356
_cell_length_c 27.266305
_cell_angle_alpha 90.000000
_cell_angle_beta 90.000000
_cell_angle_gamma 90.000000
_cell_volume 5615.471957
_symmetry_space_group_name_H-M "C M C M"
_symmetry_group_IT_number 63
_symmetry_cell_setting 'orthorhombic'
loop_
_space_group_symop_operation_xyz
x,y,z
-x,-y,1/2+z
x,-y,-z
-x,y,1/2-z
-x,-y,-z
x,y,1/2-z
-x,y,z
x,-y,1/2+z
1/2+x,1/2+y,z
1/2-x,1/2-y,1/2+z
1/2+x,1/2-y,-z
1/2-x,1/2+y,1/2-z
1/2-x,1/2-y,-z
1/2+x,1/2+y,1/2-z
1/2-x,1/2+y,z
1/2+x,1/2-y,1/2+z
loop_
_atom_site_type_symbol
_atom_site_label
_atom_site_fract_x
_atom_site_fract_y
_atom_site_fract_z
Si Si1 0.323073 0.713487 0.455523
Si Si2 0.824933 0.529571 0.932683
Si Si3 0.666801 0.395160 0.250000
Si Si4 0.324985 0.103338 0.844840
Si Si5 0.824810 0.409072 0.530520
Si Si6 0.330730 0.256641 0.250000
Si Si7 0.325160 0.237297 0.849785
O O1 0.500000 0.719507 0.461079
O O2 0.250000 0.750000 0.500000
O O3 0.273344 0.646825 0.458023
O O4 0.271681 0.734646 0.401285
O O5 0.755079 0.562338 0.886499
O O6 0.791181 0.460309 0.929890
O O7 0.000000 0.538999 0.934431
O O8 0.764380 0.562875 0.980307
O O9 0.500000 0.418161 0.250000
O O10 0.750072 0.421288 0.203638
O O11 0.677644 0.325814 0.250000
O O12 0.500000 0.096201 0.839610
O O13 0.281042 0.169845 0.855306
O O14 0.000000 0.392247 0.529230
O O15 0.500000 0.233551 0.250000
O O16 0.252871 0.234945 0.300964
O O17 0.500000 0.246071 0.841798
#
# Coordination Sequence:
#
# PCOD8261069 Si02
#       7
#    16  16   8  16  16   8  16
#     4  11  22  34  49  72 101 132 163 199 242 290
#     4   8  15  29  51  72  92 122 158 191 228 278
#     4   9  17  27  39  64  97 120 141 184 240 279
#     4   9  15  27  47  68  88 118 157 189 221 273
#     4   9  17  32  51  71  95 124 157 194 234 279
#     4   9  17  29  47  70  95 122 157 198 240 283
#     4   9  18  31  48  69  96 128 160 194 237 287
#
# _framework density 17.095624999999998
#
# number of rings (size 3 to 8) (size 9 to 14) (size 15 to 20)
#    0.000    2.833    0.000    3.000    0.000    6.000 
#    0.000    6.667    0.000    1.000    0.000    1.167 
#    0.000    0.000    0.000    0.000    0.000    0.000 
#
# Total GULP energy -594777.826430 kJ/mol
# GULP energy per Si atom -12391.204717 kJ/mol
# Density = 1.705672 g / cm^3
# Si number density = 17.095625 Si / 1000 Ang^3
#
#
#
# Elastic Constant Matrix: (Units=GPa)
#
#
# Indices 1 2 3 4 5 6 
#
# 1 48.7098 32.0052 45.3274 0.0000 0.0000 0.0000
# 2 32.0052 86.4232 60.7630 0.0000 0.0000 0.0000
# 3 45.3274 60.7630 149.7395 0.0000 0.0000 0.0000
# 4 0.0000 0.0000 0.0000 26.6749 0.0000 0.0000
# 5 0.0000 0.0000 0.0000 0.0000 21.1261 0.0000
# 6 0.0000 0.0000 0.0000 0.0000 0.0000 22.8747
#
#
#
# Elastic Compliance Matrix: (Units=1/GPa)
#
#
# Indices 1 2 3 4 5 6 
#
# 1 0.031261 -0.006889 -0.006667 0.000000 0.000000 0.000000
# 2 -0.006889 0.017708 -0.005100 0.000000 0.000000 0.000000
# 3 -0.006667 -0.005100 0.010766 0.000000 0.000000 0.000000
# 4 0.000000 0.000000 0.000000 0.037488 0.000000 0.000000
# 5 0.000000 0.000000 0.000000 0.000000 0.047335 0.000000
# 6 0.000000 0.000000 0.000000 0.000000 0.000000 0.043716
#
#
# Mechanical properties :
#
#
# Convention : Reuss Voigt Hill
#
# Bulk Modulus (GPa) = 44.60029 62.34040 53.47035
# Shear Modulus (GPa) = 21.45350 23.92028 22.68689
#
# Velocity S-wave (km/s) = 3.54632 3.74465 3.64683
# Velocity P-wave (km/s) = 6.55086 7.43246 7.00554
#
# Compressibility (1/GPa) = 0.02242138
#
# Stress axis : x y z
#
# Youngs Moduli (GPa) = 31.98919 56.47073 92.88294
#
# Poissons Ratio (x) = 0.38903 0.61928
# Poissons Ratio (y) = 0.22038 0.47375
# Poissons Ratio (z) = 0.21328 0.28803
#
# Static dielectric constant tensor:
#      x y z
#    x 3.027410 0.000000 0.000000 
#    y 0.000000 3.067700 0.000000 
#    z 0.000000 0.000000 3.706610 
# 
# 
# High freq. dielectric constant tensor:
#      x y z
#    x 1.642770 0.000000 0.000000 
#    y 0.000000 1.633160 0.000000 
#    z 0.000000 0.000000 1.669660 
# 
# From -- ./inp_files/67315.got.cif
#   From: 2010.03.12/outbox.cif.g09.slc.cpg/sg63_34_cif.got.tgz:67315.got - 2010.04.10 19:34:48.
