data_PCOD8261131
_publ_section_title
;
Structure prediction by ZEFSAII (Michael W. Deem and Ramdas Pophale) SiO2 
 PCOD8261131
Probable space group: C M C M
;
_chemical_formula_sum "Si O2"
_cell_formula_units_Z 80
_cell_length_a 13.735628
_cell_length_b 18.349996
_cell_length_c 17.464428
_cell_angle_alpha 90.000000
_cell_angle_beta 90.000000
_cell_angle_gamma 90.000000
_cell_volume 4401.886703
_symmetry_space_group_name_H-M "C M C M"
_symmetry_group_IT_number 63
_symmetry_cell_setting 'orthorhombic'
loop_
_space_group_symop_operation_xyz
x,y,z
-x,-y,1/2+z
x,-y,-z
-x,y,1/2-z
-x,-y,-z
x,y,1/2-z
-x,y,z
x,-y,1/2+z
1/2+x,1/2+y,z
1/2-x,1/2-y,1/2+z
1/2+x,1/2-y,-z
1/2-x,1/2+y,1/2-z
1/2-x,1/2-y,-z
1/2+x,1/2+y,1/2-z
1/2-x,1/2+y,z
1/2+x,1/2-y,1/2+z
loop_
_atom_site_type_symbol
_atom_site_label
_atom_site_fract_x
_atom_site_fract_y
_atom_site_fract_z
Si Si1 0.611679 0.495387 0.162386
Si Si2 0.201975 0.852677 0.102774
Si Si3 0.893002 0.276705 0.405268
Si Si4 0.202380 0.128760 0.077546
Si Si5 0.606866 0.795262 0.585770
O O1 0.617999 0.520881 0.250000
O O2 0.500000 0.489123 0.135084
O O3 0.663878 0.417810 0.154676
O O4 0.667407 0.552347 0.109544
O O5 0.313731 0.834017 0.126717
O O6 0.137303 0.781864 0.122416
O O7 0.194100 0.874067 0.013880
O O8 0.863044 0.193501 0.386905
O O9 0.895139 0.284204 0.495693
O O10 0.000000 0.292676 0.369724
O O11 0.314183 0.142194 0.104562
O O12 0.500000 0.818435 0.616698
#
# Coordination Sequence:
#
# PCOD8261131 Si02
#       5
#    16  16  16  16  16
#     4  11  23  35  46  65  96 128 155 191 238 279
#     4   9  17  30  51  75  95 121 157 192 229 276
#     4   8  14  27  49  76 100 119 148 194 238 273
#     4   9  17  30  51  75  95 121 157 192 229 276
#     4   8  14  27  49  76 100 119 148 194 238 273
#
# _framework density 18.174025
#
# number of rings (size 3 to 8) (size 9 to 14) (size 15 to 20)
#    0.000    3.000    0.000    4.200    0.000    3.200 
#    0.000    5.000    0.000    9.600    0.000    0.000 
#    0.000    0.000    0.000    0.000    0.000    0.000 
#
# Total GULP energy -495777.218468 kJ/mol
# GULP energy per Si atom -12394.430462 kJ/mol
# Density = 1.813266 g / cm^3
# Si number density = 18.174025 Si / 1000 Ang^3
#
#
#
# Elastic Constant Matrix: (Units=GPa)
#
#
# Indices 1 2 3 4 5 6 
#
# 1 166.7372 44.9372 12.5006 0.0000 0.0000 0.0000
# 2 44.9372 72.9951 7.1470 0.0000 0.0000 0.0000
# 3 12.5006 7.1470 22.1379 0.0000 0.0000 0.0000
# 4 0.0000 0.0000 0.0000 8.8749 0.0000 0.0000
# 5 0.0000 0.0000 0.0000 0.0000 14.5848 0.0000
# 6 0.0000 0.0000 0.0000 0.0000 0.0000 24.7386
#
#
#
# Elastic Compliance Matrix: (Units=1/GPa)
#
#
# Indices 1 2 3 4 5 6 
#
# 1 0.007352 -0.004254 -0.002778 0.000000 0.000000 0.000000
# 2 -0.004254 0.016608 -0.002960 0.000000 0.000000 0.000000
# 3 -0.002778 -0.002960 0.047696 0.000000 0.000000 0.000000
# 4 0.000000 0.000000 0.000000 0.112678 0.000000 0.000000
# 5 0.000000 0.000000 0.000000 0.000000 0.068565 0.000000
# 6 0.000000 0.000000 0.000000 0.000000 0.000000 0.040423
#
#
# Mechanical properties :
#
#
# Convention : Reuss Voigt Hill
#
# Bulk Modulus (GPa) = 19.35274 43.44886 31.40080
# Shear Modulus (GPa) = 15.12725 22.79201 18.95963
#
# Velocity S-wave (km/s) = 2.88819 3.54517 3.23341
# Velocity P-wave (km/s) = 4.66839 6.38096 5.59064
#
# Compressibility (1/GPa) = 0.05167228
#
# Stress axis : x y z
#
# Youngs Moduli (GPa) = 136.01201 60.21086 20.96624
#
# Poissons Ratio (x) = 0.25615 0.05825
# Poissons Ratio (y) = 0.57862 0.06205
# Poissons Ratio (z) = 0.37787 0.17820
#
# Static dielectric constant tensor:
#      x y z
#    x 4.068390 0.000000 0.000000 
#    y 0.000000 3.154920 0.000000 
#    z 0.000000 0.000000 2.854490 
# 
# 
# High freq. dielectric constant tensor:
#      x y z
#    x 1.720110 0.000000 0.000000 
#    y 0.000000 1.689530 0.000000 
#    z 0.000000 0.000000 1.657620 
# 
# From -- ./inp_files/43931.got.cif
#   From: 2010.03.12/outbox.cif.g09.slc.cpg/sg63_22_cif.got.tgz:43931.got - 2010.04.10 19:34:48.
