data_PCOD8261239
_publ_section_title
;
Structure prediction by ZEFSAII (Michael W. Deem and Ramdas Pophale) SiO2 
 PCOD8261239
Probable space group: C M C M
;
_chemical_formula_sum "Si O2"
_cell_formula_units_Z 80
_cell_length_a 9.560808
_cell_length_b 15.807944
_cell_length_c 30.454007
_cell_angle_alpha 90.000000
_cell_angle_beta 90.000000
_cell_angle_gamma 90.000000
_cell_volume 4602.718651
_symmetry_space_group_name_H-M "C M C M"
_symmetry_group_IT_number 63
_symmetry_cell_setting 'orthorhombic'
loop_
_space_group_symop_operation_xyz
x,y,z
-x,-y,1/2+z
x,-y,-z
-x,y,1/2-z
-x,-y,-z
x,y,1/2-z
-x,y,z
x,-y,1/2+z
1/2+x,1/2+y,z
1/2-x,1/2-y,1/2+z
1/2+x,1/2-y,-z
1/2-x,1/2+y,1/2-z
1/2-x,1/2-y,-z
1/2+x,1/2+y,1/2-z
1/2-x,1/2+y,z
1/2+x,1/2-y,1/2+z
loop_
_atom_site_type_symbol
_atom_site_label
_atom_site_fract_x
_atom_site_fract_y
_atom_site_fract_z
Si Si1 0.000000 0.673328 0.203311
Si Si2 0.500000 0.142427 0.461052
Si Si3 0.000000 0.500716 0.895833
Si Si4 0.732517 0.087853 0.158774
Si Si5 0.271712 0.763255 0.592454
Si Si6 0.000000 0.006060 0.803146
Si Si7 0.500000 0.174779 0.938543
Si Si8 0.000000 0.826063 0.360251
O O1 0.861699 0.616011 0.199968
O O2 0.000000 0.720486 0.250000
O O3 0.000000 0.736477 0.163503
O O4 0.500000 0.047442 0.442335
O O5 0.363297 0.190786 0.444268
O O6 0.500000 0.136088 0.513111
O O7 0.141316 0.477345 0.869865
O O8 0.000000 0.600477 0.902879
O O9 0.774342 0.170095 0.130113
O O10 0.866536 0.043633 0.179395
O O11 0.134660 0.732208 0.568128
O O12 0.357814 0.680776 0.610918
O O13 0.000000 0.014987 0.750000
O O14 0.000000 0.097879 0.825959
#
# Coordination Sequence:
#
# PCOD8261239 Si02
#       8
#     8   8   8  16  16   8   8   8
#     4   9  16  32  52  66  84 123 162 192 226 278
#     4   9  19  34  48  72 100 125 154 195 237 280
#     4   9  19  34  51  68  94 131 161 186 230 287
#     4   9  19  34  48  66  96 127 157 187 232 291
#     4   9  19  34  51  68  94 131 161 186 230 287
#     4  12  21  30  48  78 100 116 151 207 246 267
#     4  12  18  28  52  78  94 116 160 207 232 259
#     4   9  19  34  48  66  96 127 157 187 232 291
#
# _framework density 17.381031
#
# number of rings (size 3 to 8) (size 9 to 14) (size 15 to 20)
#    0.000    2.400    0.000    6.000    0.000    0.000 
#    0.000    0.000    0.000    0.000    0.000   21.000 
#    0.000    0.000    0.000    0.000    0.000    0.000 
#
# Total GULP energy -495758.079215 kJ/mol
# GULP energy per Si atom -12393.951980 kJ/mol
# Density = 1.734147 g / cm^3
# Si number density = 17.381031 Si / 1000 Ang^3
#
#
#
# Elastic Constant Matrix: (Units=GPa)
#
#
# Indices 1 2 3 4 5 6 
#
# 1 117.7824 33.9797 27.8266 0.0000 0.0000 0.0000
# 2 33.9797 61.2320 8.2035 0.0000 0.0000 0.0000
# 3 27.8266 8.2035 74.1505 0.0000 0.0000 0.0000
# 4 0.0000 0.0000 0.0000 22.9778 0.0000 0.0000
# 5 0.0000 0.0000 0.0000 0.0000-1242.1819 0.0000
# 6 0.0000 0.0000 0.0000 0.0000 0.0000 14.5709
#
#
#
# Elastic Compliance Matrix: (Units=1/GPa)
#
#
# Indices 1 2 3 4 5 6 
#
# 1 0.010928 -0.005598 -0.003482 0.000000 0.000000 0.000000
# 2 -0.005598 0.019444 -0.000051 0.000000 0.000000 0.000000
# 3 -0.003482 -0.000051 0.014798 0.000000 0.000000 0.000000
# 4 0.000000 0.000000 0.000000 0.043520 0.000000 0.000000
# 5 0.000000 0.000000 0.000000 0.000000 -0.000805 0.000000
# 6 0.000000 0.000000 0.000000 0.000000 0.000000 0.068630
#
#
# Mechanical properties :
#
#
# Convention : Reuss Voigt Hill
#
# Bulk Modulus (GPa) = 37.15989 43.68718 40.42354
# Shear Modulus (GPa) = 27.21157 -228.71631 -100.75237
#
# Velocity S-wave (km/s) = 3.96105 -11.48370 -7.62186
# Velocity P-wave (km/s) = 6.50737 12.27372 7.35861
#
# Compressibility (1/GPa) = 0.02691073
#
# Stress axis : x y z
#
# Youngs Moduli (GPa) = 91.51064 51.42851 67.57568
#
# Poissons Ratio (x) = 0.28788 0.23527
# Poissons Ratio (y) = 0.51225 0.00342
# Poissons Ratio (z) = 0.31860 0.00260
#
# Static dielectric constant tensor:
#      x y z
#    x 3.270850 0.000000 0.000000 
#    y 0.000000 3.069620 0.000000 
#    z 0.000000 0.000000 3.190360 
# 
# 
# High freq. dielectric constant tensor:
#      x y z
#    x 1.678340 0.000000 0.000000 
#    y 0.000000 1.663460 0.000000 
#    z 0.000000 0.000000 1.670920 
# 
# From -- ./inp_files/71649.got.cif
#   From: 2010.03.12/outbox.cif.g09.slc.cpg/sg63_36_cif.got.tgz:71649.got - 2010.04.10 19:34:48.
