data_PCOD8261462
_publ_section_title
;
Structure prediction by ZEFSAII (Michael W. Deem and Ramdas Pophale) SiO2 
 PCOD8261462
Probable space group: C M C A
;
_chemical_formula_sum "Si O2"
_cell_formula_units_Z 80
_cell_length_a 8.768588
_cell_length_b 18.753245
_cell_length_c 26.359424
_cell_angle_alpha 90.000000
_cell_angle_beta 90.000000
_cell_angle_gamma 90.000000
_cell_volume 4334.529951
_symmetry_space_group_name_H-M "C M C A"
_symmetry_group_IT_number 64
_symmetry_cell_setting 'orthorhombic'
loop_
_space_group_symop_operation_xyz
x,y,z
-x,1/2-y,1/2+z
x,-y,-z
-x,1/2+y,1/2-z
-x,-y,-z
x,1/2+y,1/2-z
-x,y,z
x,1/2-y,1/2+z
1/2+x,1/2+y,z
1/2-x,-y,1/2+z
1/2+x,1/2-y,-z
1/2-x,y,1/2-z
1/2-x,1/2-y,-z
1/2+x,y,1/2-z
1/2-x,1/2+y,z
1/2+x,-y,1/2+z
loop_
_atom_site_type_symbol
_atom_site_label
_atom_site_fract_x
_atom_site_fract_y
_atom_site_fract_z
Si Si1 0.320084 0.417818 0.300392
Si Si2 0.821797 0.926803 0.798225
Si Si3 0.319561 0.083258 0.597114
Si Si4 0.822619 0.422549 0.590711
Si Si5 0.180519 0.827516 0.999534
O O1 0.500000 0.410102 0.298832
O O2 0.250000 0.379847 0.250000
O O3 0.268309 0.499477 0.300355
O O4 0.256219 0.382979 0.352289
O O5 0.750000 0.883069 0.750000
O O6 0.795183 0.888914 0.852801
O O7 0.000000 0.941268 0.789189
O O8 0.500000 0.081741 0.605387
O O9 0.269315 0.131807 0.550274
O O10 0.256478 0.002944 0.587206
O O11 0.749290 0.370862 0.548526
O O12 0.000000 0.428331 0.578286
O O13 0.000000 0.821052 0.995539
O O14 0.250000 0.750000 0.000000
#
# Coordination Sequence:
#
# PCOD8261462 Si02
#       5
#    16  16  16  16  16
#     4  10  17  26  43  69 100 127 153 190 236 284
#     4   9  15  25  43  68  97 125 155 191 233 280
#     4   9  17  31  51  72  94 124 163 201 235 278
#     4   8  15  29  50  72  93 124 163 197 231 276
#     4  10  20  34  51  70  95 126 161 201 244 289
#
# _framework density 18.456443
#
# number of rings (size 3 to 8) (size 9 to 14) (size 15 to 20)
#    0.000    2.800    0.000    5.400    0.000    3.200 
#    0.000    5.000    0.000    7.200    0.000    5.600 
#    0.000    0.000    0.000    0.000    0.000    0.000 
#
# Total GULP energy -495600.405670 kJ/mol
# GULP energy per Si atom -12390.010142 kJ/mol
# Density = 1.841443 g / cm^3
# Si number density = 18.456443 Si / 1000 Ang^3
#
#
#
# Elastic Constant Matrix: (Units=GPa)
#
#
# Indices 1 2 3 4 5 6 
#
# 1 66.9991 21.3802 60.8865 0.0000 0.0000 0.0000
# 2 21.3802 72.6226 70.2207 0.0000 0.0000 0.0000
# 3 60.8865 70.2207 219.0043 0.0000 0.0000 0.0000
# 4 0.0000 0.0000 0.0000 3.8058 0.0000 0.0000
# 5 0.0000 0.0000 0.0000 0.0000 30.8419 0.0000
# 6 0.0000 0.0000 0.0000 0.0000 0.0000 18.3033
#
#
#
# Elastic Compliance Matrix: (Units=1/GPa)
#
#
# Indices 1 2 3 4 5 6 
#
# 1 0.019999 -0.000741 -0.005322 0.000000 0.000000 0.000000
# 2 -0.000741 0.019985 -0.006202 0.000000 0.000000 0.000000
# 3 -0.005322 -0.006202 0.008034 0.000000 0.000000 0.000000
# 4 0.000000 0.000000 0.000000 0.262760 0.000000 0.000000
# 5 0.000000 0.000000 0.000000 0.000000 0.032423 0.000000
# 6 0.000000 0.000000 0.000000 0.000000 0.000000 0.054635
#
#
# Mechanical properties :
#
#
# Convention : Reuss Voigt Hill
#
# Bulk Modulus (GPa) = 42.57673 73.73343 58.15508
# Shear Modulus (GPa) = 11.62262 24.33278 17.97770
#
# Velocity S-wave (km/s) = 2.51217 3.63490 3.12438
# Velocity P-wave (km/s) = 5.61547 7.59298 6.67783
#
# Compressibility (1/GPa) = 0.02348701
#
# Stress axis : x y z
#
# Youngs Moduli (GPa) = 50.00287 50.03839 124.46698
#
# Poissons Ratio (x) = 0.03710 0.66244
# Poissons Ratio (y) = 0.03708 0.77190
# Poissons Ratio (z) = 0.26613 0.31032
#
# Static dielectric constant tensor:
#      x y z
#    x 3.226530 0.000000 0.000000 
#    y 0.000000 2.936190 0.000000 
#    z 0.000000 0.000000 4.502790 
# 
# 
# High freq. dielectric constant tensor:
#      x y z
#    x 1.696110 0.000000 0.000000 
#    y 0.000000 1.649350 0.000000 
#    z 0.000000 0.000000 1.752000 
# 
# From -- ./inp_files/47804.got.cif
#   From: 2010.03.12/outbox.cif.g09.slc.cpg/sg64_24_cif.got.tgz:47804.got - 2010.04.10 20:19:32.
