data_PCOD8261647
_publ_section_title
;
Structure prediction by ZEFSAII (Michael W. Deem and Ramdas Pophale) SiO2 
 PCOD8261647
Probable space group: C M C A
;
_chemical_formula_sum "Si O2"
_cell_formula_units_Z 128
_cell_length_a 22.706541
_cell_length_b 18.302132
_cell_length_c 17.827103
_cell_angle_alpha 90.000000
_cell_angle_beta 90.000000
_cell_angle_gamma 90.000000
_cell_volume 7408.553783
_symmetry_space_group_name_H-M "C M C A"
_symmetry_group_IT_number 64
_symmetry_cell_setting 'orthorhombic'
loop_
_space_group_symop_operation_xyz
x,y,z
-x,1/2-y,1/2+z
x,-y,-z
-x,1/2+y,1/2-z
-x,-y,-z
x,1/2+y,1/2-z
-x,y,z
x,1/2-y,1/2+z
1/2+x,1/2+y,z
1/2-x,-y,1/2+z
1/2+x,1/2-y,-z
1/2-x,y,1/2-z
1/2-x,1/2-y,-z
1/2+x,y,1/2-z
1/2-x,1/2+y,z
1/2+x,-y,1/2+z
loop_
_atom_site_type_symbol
_atom_site_label
_atom_site_fract_x
_atom_site_fract_y
_atom_site_fract_z
Si Si1 0.565795 0.837949 0.049032
Si Si2 0.710304 0.380164 0.851814
Si Si3 0.781926 0.191199 0.895771
Si Si4 0.066640 0.119742 0.375966
Si Si5 0.762525 0.026087 0.913791
Si Si6 0.824413 0.685346 0.193310
Si Si7 0.627762 0.978398 0.086155
Si Si8 0.168706 0.263108 0.547182
O O1 0.500000 0.822387 0.077321
O O2 0.593239 0.902865 0.098528
O O3 0.602909 0.764595 0.061974
O O4 0.566787 0.859198 0.962385
O O5 0.704065 0.467612 0.859858
O O6 0.780071 0.361223 0.860158
O O7 0.684284 0.344364 0.776968
O O8 0.675290 0.344504 0.920638
O O9 0.792925 0.104239 0.897691
O O10 0.804700 0.229040 0.817827
O O11 0.713190 0.206769 0.911750
O O12 0.819883 0.233274 0.958744
O O13 0.107633 0.175564 0.329577
O O14 0.000000 0.122328 0.343900
O O15 0.094000 0.039118 0.364701
O O16 0.694921 0.030419 0.887609
O O17 0.768358 0.000000 0.000000
O O18 0.626014 0.000000 0.000000
#
# Coordination Sequence:
#
# PCOD8261647 Si02
#       8
#    16  16  16  16  16  16  16  16
#     4  10  18  29  47  77 109 136 177 227 269 314
#     4  10  21  34  52  75 114 140 174 226 274 312
#     4  10  19  30  54  76 108 140 180 219 267 321
#     4  10  18  30  50  73 103 145 180 211 265 328
#     4  11  18  30  53  85 106 140 177 220 271 328
#     4  10  20  36  49  76 110 143 174 223 265 323
#     4   9  17  26  44  74 109 134 169 215 268 322
#     4  10  18  31  50  78 100 143 179 220 265 314
#
# _framework density 17.277325999999999
#
# number of rings (size 3 to 8) (size 9 to 14) (size 15 to 20)
#    0.000    2.000    5.000    0.375    0.000    1.500 
#    0.000    6.875    0.000    0.000    0.000    4.375 
#    0.000    0.000    0.000    0.000    0.000    0.000 
#
# Total GULP energy -793265.805665 kJ/mol
# GULP energy per Si atom -12394.778214 kJ/mol
# Density = 1.723800 g / cm^3
# Si number density = 17.277326 Si / 1000 Ang^3
#
#
#
# Elastic Constant Matrix: (Units=GPa)
#
#
# Indices 1 2 3 4 5 6 
#
# 1 91.1278 42.6423 22.3968 0.0000 0.0000 0.0000
# 2 42.6423 117.9396 27.3419 0.0000 0.0000 0.0000
# 3 22.3968 27.3419 49.5601 0.0000 0.0000 0.0000
# 4 0.0000 0.0000 0.0000 19.2749 0.0000 0.0000
# 5 0.0000 0.0000 0.0000 0.0000 12.9286 0.0000
# 6 0.0000 0.0000 0.0000 0.0000 0.0000 24.1703
#
#
#
# Elastic Compliance Matrix: (Units=1/GPa)
#
#
# Indices 1 2 3 4 5 6 
#
# 1 0.013872 -0.004085 -0.004015 0.000000 0.000000 0.000000
# 2 -0.004085 0.010925 -0.004181 0.000000 0.000000 0.000000
# 3 -0.004015 -0.004181 0.024299 0.000000 0.000000 0.000000
# 4 0.000000 0.000000 0.000000 0.051881 0.000000 0.000000
# 5 0.000000 0.000000 0.000000 0.000000 0.077348 0.000000
# 6 0.000000 0.000000 0.000000 0.000000 0.000000 0.041373
#
#
# Mechanical properties :
#
#
# Convention : Reuss Voigt Hill
#
# Bulk Modulus (GPa) = 40.76129 49.26550 45.01340
# Shear Modulus (GPa) = 19.80681 22.35786 21.08233
#
# Velocity S-wave (km/s) = 3.38953 3.60120 3.49697
# Velocity P-wave (km/s) = 6.24197 6.77259 6.51269
#
# Compressibility (1/GPa) = 0.02453308
#
# Stress axis : x y z
#
# Youngs Moduli (GPa) = 72.08858 91.53214 41.15401
#
# Poissons Ratio (x) = 0.37387 0.16525
# Poissons Ratio (y) = 0.29445 0.17208
# Poissons Ratio (z) = 0.28946 0.38273
#
# Static dielectric constant tensor:
#      x y z
#    x 3.173060 0.000000 0.000000 
#    y 0.000000 3.228290 0.000000 
#    z 0.000000 0.000000 2.866380 
# 
# 
# High freq. dielectric constant tensor:
#      x y z
#    x 1.644080 0.000000 0.000000 
#    y 0.000000 1.666960 0.000000 
#    z 0.000000 0.000000 1.631360 
# 
# From -- ./inp_files/41654.got.cif
#   From: 2010.03.12/outbox.cif.g09.slc.cpg/sg64_21_cif.got.tgz:41654.got - 2010.04.10 20:19:32.
