data_PCOD8261808
_publ_section_title
;
Structure prediction by ZEFSAII (Michael W. Deem and Ramdas Pophale) SiO2 
 PCOD8261808
Probable space group: C M C A
;
_chemical_formula_sum "Si O2"
_cell_formula_units_Z 96
_cell_length_a 20.853695
_cell_length_b 15.112973
_cell_length_c 15.079717
_cell_angle_alpha 90.000000
_cell_angle_beta 90.000000
_cell_angle_gamma 90.000000
_cell_volume 4752.543658
_symmetry_space_group_name_H-M "C M C A"
_symmetry_group_IT_number 64
_symmetry_cell_setting 'orthorhombic'
loop_
_space_group_symop_operation_xyz
x,y,z
-x,1/2-y,1/2+z
x,-y,-z
-x,1/2+y,1/2-z
-x,-y,-z
x,1/2+y,1/2-z
-x,y,z
x,1/2-y,1/2+z
1/2+x,1/2+y,z
1/2-x,-y,1/2+z
1/2+x,1/2-y,-z
1/2-x,y,1/2-z
1/2-x,1/2-y,-z
1/2+x,y,1/2-z
1/2-x,1/2+y,z
1/2+x,-y,1/2+z
loop_
_atom_site_type_symbol
_atom_site_label
_atom_site_fract_x
_atom_site_fract_y
_atom_site_fract_z
Si Si1 0.308104 0.164745 0.810669
Si Si2 0.694359 0.322772 0.501100
Si Si3 0.429347 0.288947 0.015381
Si Si4 0.770879 0.132377 0.156985
Si Si5 0.427851 0.608540 0.804653
Si Si6 0.105134 0.552335 0.409954
O O1 0.250000 0.129320 0.750000
O O2 0.301171 0.121122 0.909156
O O3 0.301921 0.270749 0.824697
O O4 0.376548 0.137927 0.769236
O O5 0.750000 0.250000 0.500000
O O6 0.622456 0.286772 0.502880
O O7 0.708569 0.373920 0.592388
O O8 0.500000 0.246010 0.022124
O O9 0.411221 0.338963 0.105903
O O10 0.429552 0.354163 0.929620
O O11 0.750000 0.090312 0.250000
O O12 0.821182 0.068119 0.111852
O O13 0.500000 0.629660 0.770271
O O14 0.425260 0.503543 0.828695
O O15 0.098731 0.500000 0.500000
#
# Coordination Sequence:
#
# PCOD8261808 Si02
#       6
#    16  16  16  16  16  16
#     4  10  20  33  57  80 110 146 185 231 281 332
#     4  10  18  34  57  80 110 141 185 238 283 329
#     4  10  18  32  54  80 110 147 186 231 288 336
#     4  10  20  36  56  85 111 143 191 237 286 337
#     4  10  21  35  52  82 116 147 186 232 280 337
#     4  10  20  34  54  79 115 151 183 233 289 341
#
# _framework density 20.19971
#
# number of rings (size 3 to 8) (size 9 to 14) (size 15 to 20)
#    0.000    2.000    3.333    3.500    2.333    3.333 
#    0.000    0.000    0.000    1.000    0.000    1.167 
#    0.000    0.000    0.000    0.000    0.000    0.000 
#
# Total GULP energy -594687.172143 kJ/mol
# GULP energy per Si atom -12389.316086 kJ/mol
# Density = 2.015373 g / cm^3
# Si number density = 20.199710 Si / 1000 Ang^3
#
#
#
# Elastic Constant Matrix: (Units=GPa)
#
#
# Indices 1 2 3 4 5 6 
#
# 1 139.8828 21.0121 59.0616 0.0000 0.0000 0.0000
# 2 21.0121 18.7268 10.3510 0.0000 0.0000 0.0000
# 3 59.0616 10.3510 134.4128 0.0000 0.0000 0.0000
# 4 0.0000 0.0000 0.0000 6.9285 0.0000 0.0000
# 5 0.0000 0.0000 0.0000 0.0000 35.5561 0.0000
# 6 0.0000 0.0000 0.0000 0.0000 0.0000 15.9408
#
#
#
# Elastic Compliance Matrix: (Units=1/GPa)
#
#
# Indices 1 2 3 4 5 6 
#
# 1 0.010120 -0.009293 -0.003731 0.000000 0.000000 0.000000
# 2 -0.009293 0.064306 -0.000869 0.000000 0.000000 0.000000
# 3 -0.003731 -0.000869 0.009146 0.000000 0.000000 0.000000
# 4 0.000000 0.000000 0.000000 0.144331 0.000000 0.000000
# 5 0.000000 0.000000 0.000000 0.000000 0.028125 0.000000
# 6 0.000000 0.000000 0.000000 0.000000 0.000000 0.062732
#
#
# Mechanical properties :
#
#
# Convention : Reuss Voigt Hill
#
# Bulk Modulus (GPa) = 17.92536 52.65242 35.28889
# Shear Modulus (GPa) = 13.69334 25.19160 19.44247
#
# Velocity S-wave (km/s) = 2.60647 3.53530 3.10580
# Velocity P-wave (km/s) = 4.23693 6.54118 5.51083
#
# Compressibility (1/GPa) = 0.05578689
#
# Stress axis : x y z
#
# Youngs Moduli (GPa) = 98.81314 15.55059 109.33512
#
# Poissons Ratio (x) = 0.14451 0.40795
# Poissons Ratio (y) = 0.91824 0.09500
# Poissons Ratio (z) = 0.36869 0.01351
#
# Static dielectric constant tensor:
#      x y z
#    x 3.685200 0.000000 0.000000 
#    y 0.000000 3.346300 0.000000 
#    z 0.000000 0.000000 4.464470 
# 
# 
# High freq. dielectric constant tensor:
#      x y z
#    x 1.791660 0.000000 0.000000 
#    y 0.000000 1.738850 0.000000 
#    z 0.000000 0.000000 1.794660 
# 
# From -- ./inp_files/33259.got.cif
#   From: 2010.03.12/outbox.cif.g09.slc.cpg/sg64_17_cif.got.tgz:33259.got - 2010.04.10 20:19:32.
