data_PCOD8261370
_publ_section_title
;
Structure prediction by ZEFSAII (Michael W. Deem and Ramdas Pophale) SiO2 
 PCOD8261370
Probable space group: C M C M
;
_chemical_formula_sum "Si O2"
_cell_formula_units_Z 48
_cell_length_a 9.000000
_cell_length_b 21.000000
_cell_length_c 27.000000
_cell_angle_alpha 90.000000
_cell_angle_beta 90.000000
_cell_angle_gamma 90.000000
_cell_volume 5103.000000
_symmetry_space_group_name_H-M "C M C M"
_symmetry_group_IT_number 63
_symmetry_cell_setting 'orthorhombic'
loop_
_space_group_symop_operation_xyz
x,y,z
-x,-y,1/2+z
x,-y,-z
-x,y,1/2-z
-x,-y,-z
x,y,1/2-z
-x,y,z
x,-y,1/2+z
1/2+x,1/2+y,z
1/2-x,1/2-y,1/2+z
1/2+x,1/2-y,-z
1/2-x,1/2+y,1/2-z
1/2-x,1/2-y,-z
1/2+x,1/2+y,1/2-z
1/2-x,1/2+y,z
1/2+x,1/2-y,1/2+z
loop_
_atom_site_type_symbol
_atom_site_label
_atom_site_fract_x
_atom_site_fract_y
_atom_site_fract_z
Si Si1 0.829206 0.685233 0.551397
Si Si2 0.327662 0.889033 0.142969
Si Si3 0.823001 0.735984 0.805241
Si Si4 0.826495 0.314424 0.939633
Si Si5 0.670744 0.014552 0.307391
Si Si6 0.324399 0.633367 0.352352
O O1 0.802093 0.621836 0.584258
O O2 0.786595 0.667174 0.495835
O O3 0.732667 0.743642 0.572105
O O4 0.000000 0.707837 0.555828
O O5 0.500000 0.892456 0.157532
O O6 0.256410 0.827307 0.169456
O O7 0.258394 0.955600 0.161385
O O8 0.762585 0.736211 0.750000
O O9 0.763888 0.800329 0.830227
O O10 0.000000 0.735618 0.808201
O O11 0.744131 0.368492 0.907463
O O12 0.000000 0.316632 0.928673
O O13 0.685516 0.996934 0.250000
O O14 0.500000 0.027786 0.322150
O O15 0.766269 0.076427 0.318790
O O16 0.500000 0.629049 0.354485
#
# Coordination Sequence:
#
# PCOD8261370 Si02
#       6
#    16  16  16  16  16  16
#     4   9  17  32  54  81 109 140 177 219 269 329
#     4   9  16  31  54  79 105 135 175 218 264 318
#     4   9  16  27  49  78 100 125 172 224 259 300
#     4  10  19  31  52  81 111 139 175 224 276 320
#     4  10  21  36  55  79 108 140 174 218 270 320
#     4  11  21  35  54  76 107 145 184 221 262 319
#
# _framework density 9.4062319999999993
#
# number of rings (size 3 to 8) (size 9 to 14) (size 15 to 20)
#    0.000    2.333    1.667    2.000    0.000    3.667 
#    0.000    1.667    0.000    5.000    0.000    0.000 
#    0.000    0.000    0.000    0.000    0.000    0.000 
#
# Total GULP energy -595028.532124 kJ/mol
# GULP energy per Si atom -12396.427753 kJ/mol
# Density = 0.938482 g / cm^3
# Si number density = 9.406232 Si / 1000 Ang^3
#
#
#
# Elastic Constant Matrix: (Units=GPa)
#
#
# Indices 1 2 3 4 5 6 
#
# 1 40.5203 23.5752 15.5622 0.0000 0.0000 0.0000
# 2 23.5752 89.8043 27.7834 0.0000 0.0000 0.0000
# 3 15.5622 27.7834 74.4058 0.0000 0.0000 0.0000
# 4 0.0000 0.0000 0.0000 32.4884 0.0000 0.0000
# 5 0.0000 0.0000 0.0000 0.0000 18.9969 0.0000
# 6 0.0000 0.0000 0.0000 0.0000 0.0000 23.3452
#
#
#
# Elastic Compliance Matrix: (Units=1/GPa)
#
#
# Indices 1 2 3 4 5 6 
#
# 1 0.030037 -0.006718 -0.003774 0.000000 0.000000 0.000000
# 2 -0.006718 0.014092 -0.003857 0.000000 0.000000 0.000000
# 3 -0.003774 -0.003857 0.015669 0.000000 0.000000 0.000000
# 4 0.000000 0.000000 0.000000 0.030780 0.000000 0.000000
# 5 0.000000 0.000000 0.000000 0.000000 0.052640 0.000000
# 6 0.000000 0.000000 0.000000 0.000000 0.000000 0.042835
#
#
# Mechanical properties :
#
#
# Convention : Reuss Voigt Hill
#
# Bulk Modulus (GPa) = 32.15318 37.61912 34.88615
# Shear Modulus (GPa) = 22.21055 24.15339 23.18197
#
# Velocity S-wave (km/s) = 3.43976 3.58705 3.51417
# Velocity P-wave (km/s) = 5.73624 6.09887 5.92033
#
# Compressibility (1/GPa) = 0.03110112
#
# Stress axis : x y z
#
# Youngs Moduli (GPa) = 33.29251 70.96182 63.81877
#
# Poissons Ratio (x) = 0.47669 0.24085
# Poissons Ratio (y) = 0.22365 0.24615
# Poissons Ratio (z) = 0.12564 0.27370
#
# Static dielectric constant tensor:
#      x y z
#    x 3.099490 0.000000 0.000000 
#    y 0.000000 3.399420 0.000000 
#    z 0.000000 0.000000 3.607440 
# 
# 
# High freq. dielectric constant tensor:
#      x y z
#    x 1.691980 0.000000 0.000000 
#    y 0.000000 1.714380 0.000000 
#    z 0.000000 0.000000 1.738920 
# 
# From -- ./inp_files/66874.got.cif
#   From: 2010.03.12/outbox.ucp.g09.slc.cvg/sg63_34_cif.got.tgz:66874.got - 2010.05.04 19:38:17.
