data_PCOD8261050
_publ_section_title
;
Structure prediction by ZEFSAII (Michael W. Deem and Ramdas Pophale) SiO2 
 PCOD8261050
Probable space group: C M C M
;
_chemical_formula_sum "Si O2"
_cell_formula_units_Z 80
_cell_length_a 18.919260
_cell_length_b 7.484487
_cell_length_c 28.066653
_cell_angle_alpha 90.000000
_cell_angle_beta 90.000000
_cell_angle_gamma 90.000000
_cell_volume 3974.264883
_symmetry_space_group_name_H-M "C M C M"
_symmetry_group_IT_number 63
_symmetry_cell_setting 'orthorhombic'
loop_
_space_group_symop_operation_xyz
x,y,z
-x,-y,1/2+z
x,-y,-z
-x,y,1/2-z
-x,-y,-z
x,y,1/2-z
-x,y,z
x,-y,1/2+z
1/2+x,1/2+y,z
1/2-x,1/2-y,1/2+z
1/2+x,1/2-y,-z
1/2-x,1/2+y,1/2-z
1/2-x,1/2-y,-z
1/2+x,1/2+y,1/2-z
1/2-x,1/2+y,z
1/2+x,1/2-y,1/2+z
loop_
_atom_site_type_symbol
_atom_site_label
_atom_site_fract_x
_atom_site_fract_y
_atom_site_fract_z
Si Si1 0.219199 0.069728 0.697907
Si Si2 0.172756 0.122895 0.900710
Si Si3 0.681906 0.004767 0.055566
Si Si4 0.080557 0.220323 0.099918
Si Si5 0.638047 0.204347 0.698029
O O1 0.201366 0.155931 0.750000
O O2 0.181895 0.177861 0.654837
O O3 0.304544 0.046378 0.691187
O O4 0.190926 0.870496 0.695490
O O5 0.153246 0.299272 0.930285
O O6 0.245533 0.032807 0.917376
O O7 0.110355 0.979073 0.907051
O O8 0.623338 0.857626 0.067376
O O9 0.698125 0.000000 0.000000
O O10 0.082170 0.285241 0.155269
O O11 0.000000 0.220541 0.082759
O O12 0.599320 0.193454 0.750000
#
# Coordination Sequence:
#
# PCOD8261050 Si02
#       5
#    16  16  16  16  16
#     4   9  16  29  54  90 117 146 194 247 293 352
#     4  11  21  40  66  92 121 160 203 255 306 363
#     4  12  24  40  68  93 117 156 214 261 305 362
#     4  11  25  41  59  90 129 162 200 253 311 369
#     4   9  17  31  55  85 118 155 196 243 302 363
#
# _framework density 20.129508999999999
#
# number of rings (size 3 to 8) (size 9 to 14) (size 15 to 20)
#    0.000    1.600    4.000    1.800    0.000    1.600 
#    0.000    1.000    0.000    0.000    0.000    2.800 
#    0.000    0.000    0.000    0.000    0.000    0.000 
#
# Total GULP energy -495770.554935 kJ/mol
# GULP energy per Si atom -12394.263873 kJ/mol
# Density = 2.008369 g / cm^3
# Si number density = 20.129509 Si / 1000 Ang^3
#
#
#
# Elastic Constant Matrix: (Units=GPa)
#
#
# Indices 1 2 3 4 5 6 
#
# 1 84.7328 9.7102 16.3248 0.0000 0.0000 0.0000
# 2 9.7102 58.5166 28.3026 0.0000 0.0000 0.0000
# 3 16.3248 28.3026 107.3278 0.0000 0.0000 0.0000
# 4 0.0000 0.0000 0.0000 28.3382 0.0000 0.0000
# 5 0.0000 0.0000 0.0000 0.0000 9.7664 0.0000
# 6 0.0000 0.0000 0.0000 0.0000 0.0000 23.1835
#
#
#
# Elastic Compliance Matrix: (Units=1/GPa)
#
#
# Indices 1 2 3 4 5 6 
#
# 1 0.012243 -0.001296 -0.001520 0.000000 0.000000 0.000000
# 2 -0.001296 0.019725 -0.005004 0.000000 0.000000 0.000000
# 3 -0.001520 -0.005004 0.010868 0.000000 0.000000 0.000000
# 4 0.000000 0.000000 0.000000 0.035288 0.000000 0.000000
# 5 0.000000 0.000000 0.000000 0.000000 0.102392 0.000000
# 6 0.000000 0.000000 0.000000 0.000000 0.000000 0.043134
#
#
# Mechanical properties :
#
#
# Convention : Reuss Voigt Hill
#
# Bulk Modulus (GPa) = 36.77258 39.91696 38.34477
# Shear Modulus (GPa) = 20.13235 25.34028 22.73632
#
# Velocity S-wave (km/s) = 3.16593 3.55189 3.36445
# Velocity P-wave (km/s) = 5.62777 6.05759 5.84663
#
# Compressibility (1/GPa) = 0.02719418
#
# Stress axis : x y z
#
# Youngs Moduli (GPa) = 81.67748 50.69794 92.01204
#
# Poissons Ratio (x) = 0.06572 0.13989
# Poissons Ratio (y) = 0.10588 0.46045
# Poissons Ratio (z) = 0.12418 0.25371
#
# Static dielectric constant tensor:
#      x y z
#    x 3.211570 0.000000 0.000000 
#    y 0.000000 3.705040 0.000000 
#    z 0.000000 0.000000 4.070940 
# 
# 
# High freq. dielectric constant tensor:
#      x y z
#    x 1.738070 0.000000 0.000000 
#    y 0.000000 1.787590 0.000000 
#    z 0.000000 0.000000 1.805220 
# 
# From -- ./inp_files/69720.got.cif
#   From: 2010.03.12/outbox.cif.g09.slc.cpg/sg63_35_cif.got.tgz:69720.got - 2010.04.10 19:34:48.
