data_PCOD8261850
_publ_section_title
;
Structure prediction by ZEFSAII (Michael W. Deem and Ramdas Pophale) SiO2 
 PCOD8261850
Probable space group: C M C A
;
_chemical_formula_sum "Si O2"
_cell_formula_units_Z 96
_cell_length_a 16.848459
_cell_length_b 18.036587
_cell_length_c 17.145964
_cell_angle_alpha 90.000000
_cell_angle_beta 90.000000
_cell_angle_gamma 90.000000
_cell_volume 5210.464651
_symmetry_space_group_name_H-M "C M C A"
_symmetry_group_IT_number 64
_symmetry_cell_setting 'orthorhombic'
loop_
_space_group_symop_operation_xyz
x,y,z
-x,1/2-y,1/2+z
x,-y,-z
-x,1/2+y,1/2-z
-x,-y,-z
x,1/2+y,1/2-z
-x,y,z
x,1/2-y,1/2+z
1/2+x,1/2+y,z
1/2-x,-y,1/2+z
1/2+x,1/2-y,-z
1/2-x,y,1/2-z
1/2-x,1/2-y,-z
1/2+x,y,1/2-z
1/2-x,1/2+y,z
1/2+x,-y,1/2+z
loop_
_atom_site_type_symbol
_atom_site_label
_atom_site_fract_x
_atom_site_fract_y
_atom_site_fract_z
Si Si1 0.911622 0.653123 0.370985
Si Si2 0.910959 0.701355 0.549025
Si Si3 0.233477 0.047871 0.161036
Si Si4 0.202298 0.738428 0.825675
Si Si5 0.734431 0.387680 0.094869
Si Si6 0.196826 0.666540 0.065482
O O1 0.909601 0.670179 0.462137
O O2 0.851561 0.587276 0.349789
O O3 0.886495 0.728036 0.322659
O O4 0.000000 0.630522 0.344342
O O5 0.853286 0.649490 0.601070
O O6 0.885101 0.788624 0.553030
O O7 0.000000 0.696622 0.583325
O O8 0.250000 0.027425 0.250000
O O9 0.305210 0.101166 0.130705
O O10 0.229834 0.974254 0.109664
O O11 0.250000 0.765898 0.750000
O O12 0.209204 0.650016 0.838148
O O13 0.238687 0.773048 0.905899
O O14 0.773571 0.373805 0.011733
#
# Coordination Sequence:
#
# PCOD8261850 Si02
#       6
#    16  16  16  16  16  16
#     4  10  19  34  56  81 109 137 175 225 275 319
#     4  10  19  33  57  87 109 132 179 235 276 313
#     4  11  23  36  54  80 111 147 183 220 268 326
#     4  10  18  33  55  80 109 140 180 222 265 318
#     4  11  19  35  55  81 110 142 184 223 264 322
#     4  10  18  35  55  78 106 141 185 219 260 324
#
# _framework density 18.424461000000001
#
# number of rings (size 3 to 8) (size 9 to 14) (size 15 to 20)
#    0.000    1.667    5.000    4.000    0.000    0.667 
#    0.000    9.167    0.000    7.000    0.000    0.000 
#    0.000    0.000    0.000    0.000    0.000    0.000 
#
# Total GULP energy -594776.728683 kJ/mol
# GULP energy per Si atom -12391.181848 kJ/mol
# Density = 1.838253 g / cm^3
# Si number density = 18.424461 Si / 1000 Ang^3
#
#
#
# Elastic Constant Matrix: (Units=GPa)
#
#
# Indices 1 2 3 4 5 6 
#
# 1 64.9505 46.2618 15.8588 0.0000 0.0000 0.0000
# 2 46.2618 105.7404 19.6885 0.0000 0.0000 0.0000
# 3 15.8588 19.6885 64.7065 0.0000 0.0000 0.0000
# 4 0.0000 0.0000 0.0000 27.5171 0.0000 0.0000
# 5 0.0000 0.0000 0.0000 0.0000 18.4630 0.0000
# 6 0.0000 0.0000 0.0000 0.0000 0.0000 19.7572
#
#
#
# Elastic Compliance Matrix: (Units=1/GPa)
#
#
# Indices 1 2 3 4 5 6 
#
# 1 0.022805 -0.009473 -0.002707 0.000000 0.000000 0.000000
# 2 -0.009473 0.013960 -0.001926 0.000000 0.000000 0.000000
# 3 -0.002707 -0.001926 0.016704 0.000000 0.000000 0.000000
# 4 0.000000 0.000000 0.000000 0.036341 0.000000 0.000000
# 5 0.000000 0.000000 0.000000 0.000000 0.054162 0.000000
# 6 0.000000 0.000000 0.000000 0.000000 0.000000 0.050615
#
#
# Mechanical properties :
#
#
# Convention : Reuss Voigt Hill
#
# Bulk Modulus (GPa) = 39.59297 44.33507 41.96402
# Shear Modulus (GPa) = 21.62468 23.38667 22.50567
#
# Velocity S-wave (km/s) = 3.42964 3.56663 3.49880
# Velocity P-wave (km/s) = 6.10076 6.40910 6.25683
#
# Compressibility (1/GPa) = 0.02525701
#
# Stress axis : x y z
#
# Youngs Moduli (GPa) = 43.85081 71.63190 59.86661
#
# Poissons Ratio (x) = 0.67858 0.16204
# Poissons Ratio (y) = 0.41540 0.11530
# Poissons Ratio (z) = 0.11869 0.13796
#
# Static dielectric constant tensor:
#      x y z
#    x 3.628820 0.000000 0.000000 
#    y 0.000000 3.520620 0.000000 
#    z 0.000000 0.000000 3.353060 
# 
# 
# High freq. dielectric constant tensor:
#      x y z
#    x 1.684470 0.000000 0.000000 
#    y 0.000000 1.713380 0.000000 
#    z 0.000000 0.000000 1.716170 
# 
# From -- ./inp_files/33274.got.cif
#   From: 2010.03.12/outbox.cif.g09.slc.cpg/sg64_17_cif.got.tgz:33274.got - 2010.04.10 20:19:32.
