data_PCOD8261537
_publ_section_title
;
Structure prediction by ZEFSAII (Michael W. Deem and Ramdas Pophale) SiO2 
 PCOD8261537
Probable space group: C M C A
;
_chemical_formula_sum "Si O2"
_cell_formula_units_Z 128
_cell_length_a 20.852372
_cell_length_b 19.879505
_cell_length_c 17.784142
_cell_angle_alpha 90.000000
_cell_angle_beta 90.000000
_cell_angle_gamma 90.000000
_cell_volume 7372.146342
_symmetry_space_group_name_H-M "C M C A"
_symmetry_group_IT_number 64
_symmetry_cell_setting 'orthorhombic'
loop_
_space_group_symop_operation_xyz
x,y,z
-x,1/2-y,1/2+z
x,-y,-z
-x,1/2+y,1/2-z
-x,-y,-z
x,1/2+y,1/2-z
-x,y,z
x,1/2-y,1/2+z
1/2+x,1/2+y,z
1/2-x,-y,1/2+z
1/2+x,1/2-y,-z
1/2-x,y,1/2-z
1/2-x,1/2-y,-z
1/2+x,y,1/2-z
1/2-x,1/2+y,z
1/2+x,-y,1/2+z
loop_
_atom_site_type_symbol
_atom_site_label
_atom_site_fract_x
_atom_site_fract_y
_atom_site_fract_z
Si Si1 0.694415 0.095915 0.808220
Si Si2 0.069921 0.928009 0.230326
Si Si3 0.688737 0.254194 0.797301
Si Si4 0.428773 0.729751 0.795038
Si Si5 0.299183 0.300277 0.961940
Si Si6 0.405281 0.048766 0.567859
Si Si7 0.429576 0.798165 0.461186
Si Si8 0.762192 0.935819 0.042145
O O1 0.750000 0.075196 0.750000
O O2 0.629434 0.054817 0.785661
O O3 0.685816 0.175362 0.811298
O O4 0.711466 0.078820 0.893292
O O5 0.080181 0.849688 0.213571
O O6 0.069604 0.970080 0.151621
O O7 0.000000 0.940884 0.268836
O O8 0.750000 0.275497 0.750000
O O9 0.623069 0.272585 0.752704
O O10 0.697898 0.296615 0.872607
O O11 0.500000 0.752570 0.769409
O O12 0.418365 0.742509 0.883616
O O13 0.250000 0.250000 0.000000
O O14 0.371032 0.278820 0.985494
O O15 0.276346 0.374307 0.985626
O O16 0.430992 0.121995 0.548864
O O17 0.329375 0.044377 0.579001
O O18 0.428959 0.000000 0.500000
O O19 0.500000 0.777596 0.494160
O O20 0.732874 0.000000 0.000000
#
# Coordination Sequence:
#
# PCOD8261537 Si02
#       8
#    16  16  16  16  16  16  16  16
#     4  10  17  31  52  73  97 133 169 208 253 303
#     4   9  16  25  43  72 100 126 167 215 249 293
#     4  10  19  29  50  75  97 128 171 211 250 297
#     4   8  15  28  44  67 100 132 160 202 254 298
#     4  11  20  33  52  77 103 133 174 214 256 309
#     4   9  16  27  46  73 103 135 166 201 255 314
#     4   9  18  30  46  71 105 136 166 207 257 310
#     4  10  20  34  52  76 105 134 169 214 263 308
#
# _framework density 17.362649999999999
#
# number of rings (size 3 to 8) (size 9 to 14) (size 15 to 20)
#    0.000    2.500    2.500    1.875    3.500    1.500 
#    0.000    0.625    0.000    0.375    0.000    0.000 
#    0.000    0.000    0.000    0.000    0.000    0.000 
#
# Total GULP energy -792901.891587 kJ/mol
# GULP energy per Si atom -12389.092056 kJ/mol
# Density = 1.732313 g / cm^3
# Si number density = 17.362650 Si / 1000 Ang^3
#
#
#
# Elastic Constant Matrix: (Units=GPa)
#
#
# Indices 1 2 3 4 5 6 
#
# 1 146.4553 29.3722 76.7827 0.0000 0.0000 0.0000
# 2 29.3722 33.4510 31.9118 0.0000 0.0000 0.0000
# 3 76.7827 31.9118 124.5762 0.0000 0.0000 0.0000
# 4 0.0000 0.0000 0.0000 19.7361 0.0000 0.0000
# 5 0.0000 0.0000 0.0000 0.0000 22.7784 0.0000
# 6 0.0000 0.0000 0.0000 0.0000 0.0000 4.5691
#
#
#
# Elastic Compliance Matrix: (Units=1/GPa)
#
#
# Indices 1 2 3 4 5 6 
#
# 1 0.010482 -0.004024 -0.005430 0.000000 0.000000 0.000000
# 2 -0.004024 0.041107 -0.008050 0.000000 0.000000 0.000000
# 3 -0.005430 -0.008050 0.013436 0.000000 0.000000 0.000000
# 4 0.000000 0.000000 0.000000 0.050669 0.000000 0.000000
# 5 0.000000 0.000000 0.000000 0.000000 0.043901 0.000000
# 6 0.000000 0.000000 0.000000 0.000000 0.000000 0.218861
#
#
# Mechanical properties :
#
#
# Convention : Reuss Voigt Hill
#
# Bulk Modulus (GPa) = 33.31356 64.51287 48.91322
# Shear Modulus (GPa) = 11.80726 20.51111 16.15918
#
# Velocity S-wave (km/s) = 2.61058 3.44078 3.05403
# Velocity P-wave (km/s) = 5.32122 7.28163 6.37721
#
# Compressibility (1/GPa) = 0.03001780
#
# Stress axis : x y z
#
# Youngs Moduli (GPa) = 95.40522 24.32662 74.42751
#
# Poissons Ratio (x) = 0.09788 0.40411
# Poissons Ratio (y) = 0.38389 0.59915
# Poissons Ratio (z) = 0.51801 0.19583
#
# Static dielectric constant tensor:
#      x y z
#    x 4.879280 0.000000 0.000000 
#    y 0.000000 2.815190 0.000000 
#    z 0.000000 0.000000 3.377740 
# 
# 
# High freq. dielectric constant tensor:
#      x y z
#    x 1.687990 0.000000 0.000000 
#    y 0.000000 1.612990 0.000000 
#    z 0.000000 0.000000 1.663710 
# 
# From -- ./inp_files/34694.got.cif
#   From: 2010.03.12/outbox.cif.g09.slc.cpg/sg64_18_cif.got.tgz:34694.got - 2010.04.10 20:19:32.
