data_PCOD8261301
_publ_section_title
;
Structure prediction by ZEFSAII (Michael W. Deem and Ramdas Pophale) SiO2 
 PCOD8261301
Probable space group: C M C M
;
_chemical_formula_sum "Si O2"
_cell_formula_units_Z 112
_cell_length_a 13.571222
_cell_length_b 28.860229
_cell_length_c 19.446763
_cell_angle_alpha 90.000000
_cell_angle_beta 90.000000
_cell_angle_gamma 90.000000
_cell_volume 7616.685947
_symmetry_space_group_name_H-M "C M C M"
_symmetry_group_IT_number 63
_symmetry_cell_setting 'orthorhombic'
loop_
_space_group_symop_operation_xyz
x,y,z
-x,-y,1/2+z
x,-y,-z
-x,y,1/2-z
-x,-y,-z
x,y,1/2-z
-x,y,z
x,-y,1/2+z
1/2+x,1/2+y,z
1/2-x,1/2-y,1/2+z
1/2+x,1/2-y,-z
1/2-x,1/2+y,1/2-z
1/2-x,1/2-y,-z
1/2+x,1/2+y,1/2-z
1/2-x,1/2+y,z
1/2+x,1/2-y,1/2+z
loop_
_atom_site_type_symbol
_atom_site_label
_atom_site_fract_x
_atom_site_fract_y
_atom_site_fract_z
Si Si1 0.272070 0.135406 0.669946
Si Si2 0.613500 0.042427 0.829435
Si Si3 0.614316 0.406885 0.922478
Si Si4 0.617273 0.675278 0.173423
Si Si5 0.771437 0.000839 0.420718
Si Si6 0.890645 0.277022 0.331557
Si Si7 0.613042 0.408742 0.418772
O O1 0.244786 0.138995 0.750000
O O2 0.349815 0.094446 0.656145
O O3 0.319047 0.182812 0.640756
O O4 0.172090 0.127272 0.628130
O O5 0.628326 0.029180 0.750000
O O6 0.500000 0.039374 0.851438
O O7 0.674452 0.005750 0.874594
O O8 0.500000 0.417302 0.906059
O O9 0.655729 0.363526 0.879105
O O10 0.677714 0.451112 0.900209
O O11 0.628566 0.394720 0.002168
O O12 0.657648 0.664034 0.250000
O O13 0.500000 0.676416 0.175082
O O14 0.653163 0.726346 0.148780
O O15 0.738603 0.000000 0.500000
O O16 0.850837 0.960923 0.405545
O O17 0.899022 0.281075 0.250000
O O18 0.000000 0.283920 0.363402
O O19 0.500000 0.405854 0.396619
#
# Coordination Sequence:
#
# PCOD8261301 Si02
#       7
#    16  16  16  16  16  16  16
#     4   9  16  26  41  59  78 102 131 160 193 234
#     4   9  17  28  41  59  82 103 125 158 198 236
#     4   9  16  27  42  58  80 108 133 161 198 235
#     4   8  14  24  39  60  81  99 124 159 197 236
#     4   9  17  28  42  59  78 105 139 165 190 231
#     4   8  13  23  40  60  80 100 123 155 197 242
#     4   9  17  28  40  56  80 108 136 164 194 231
#
# _framework density 14.704558
#
# number of rings (size 3 to 8) (size 9 to 14) (size 15 to 20)
#    0.000    3.286    0.000    1.714    0.000    4.571 
#    0.000    0.714    0.000    2.571    0.000    1.000 
#    0.000    1.143    0.000    0.000    0.000    0.000 
#
# Total GULP energy -694244.681238 kJ/mol
# GULP energy per Si atom -12397.226451 kJ/mol
# Density = 1.467109 g / cm^3
# Si number density = 14.704558 Si / 1000 Ang^3
#
#
#
# Elastic Constant Matrix: (Units=GPa)
#
#
# Indices 1 2 3 4 5 6 
#
# 1 96.3842 57.9073 48.7567 0.0000 0.0000 0.0000
# 2 57.9073 117.6603 52.4059 0.0000 0.0000 0.0000
# 3 48.7567 52.4059 56.2284 0.0000 0.0000 0.0000
# 4 0.0000 0.0000 0.0000 21.7747 0.0000 0.0000
# 5 0.0000 0.0000 0.0000 0.0000 22.0312 0.0000
# 6 0.0000 0.0000 0.0000 0.0000 0.0000 20.4777
#
#
#
# Elastic Compliance Matrix: (Units=1/GPa)
#
#
# Indices 1 2 3 4 5 6 
#
# 1 0.019287 -0.003494 -0.013468 0.000000 0.000000 0.000000
# 2 -0.003494 0.015164 -0.011104 0.000000 0.000000 0.000000
# 3 -0.013468 -0.011104 0.039812 0.000000 0.000000 0.000000
# 4 0.000000 0.000000 0.000000 0.045925 0.000000 0.000000
# 5 0.000000 0.000000 0.000000 0.000000 0.045390 0.000000
# 6 0.000000 0.000000 0.000000 0.000000 0.000000 0.048834
#
#
# Mechanical properties :
#
#
# Convention : Reuss Voigt Hill
#
# Bulk Modulus (GPa) = 55.15072 65.37919 60.26496
# Shear Modulus (GPa) = 18.07748 20.27022 19.17385
#
# Velocity S-wave (km/s) = 3.51005 3.71684 3.61493
# Velocity P-wave (km/s) = 7.34946 7.93588 7.64830
#
# Compressibility (1/GPa) = 0.01813213
#
# Stress axis : x y z
#
# Youngs Moduli (GPa) = 51.84839 65.94521 25.11798
#
# Poissons Ratio (x) = 0.23038 0.33829
# Poissons Ratio (y) = 0.18113 0.27891
# Poissons Ratio (z) = 0.69830 0.73225
#
# Static dielectric constant tensor:
#      x y z
#    x 2.718040 0.000000 0.000000 
#    y 0.000000 3.008170 0.000000 
#    z 0.000000 0.000000 2.776270 
# 
# 
# High freq. dielectric constant tensor:
#      x y z
#    x 1.540000 0.000000 0.000000 
#    y 0.000000 1.561740 0.000000 
#    z 0.000000 0.000000 1.547000 
# 
# From -- ./inp_files/53344.got.cif
#   From: 2010.03.12/outbox.cif.g09.slc.cpg/sg63_27_cif.got.tgz:53344.got - 2010.04.10 19:34:48.
