data_PCOD8261556
_publ_section_title
;
Structure prediction by ZEFSAII (Michael W. Deem and Ramdas Pophale) SiO2 
 PCOD8261556
Probable space group: C M C A
;
_chemical_formula_sum "Si O2"
_cell_formula_units_Z 88
_cell_length_a 19.749758
_cell_length_b 14.749733
_cell_length_c 15.091329
_cell_angle_alpha 90.000000
_cell_angle_beta 90.000000
_cell_angle_gamma 90.000000
_cell_volume 4396.159331
_symmetry_space_group_name_H-M "C M C A"
_symmetry_group_IT_number 64
_symmetry_cell_setting 'orthorhombic'
loop_
_space_group_symop_operation_xyz
x,y,z
-x,1/2-y,1/2+z
x,-y,-z
-x,1/2+y,1/2-z
-x,-y,-z
x,1/2+y,1/2-z
-x,y,z
x,1/2-y,1/2+z
1/2+x,1/2+y,z
1/2-x,-y,1/2+z
1/2+x,1/2-y,-z
1/2-x,y,1/2-z
1/2-x,1/2-y,-z
1/2+x,y,1/2-z
1/2-x,1/2+y,z
1/2+x,-y,1/2+z
loop_
_atom_site_type_symbol
_atom_site_label
_atom_site_fract_x
_atom_site_fract_y
_atom_site_fract_z
Si Si1 0.500000 0.658728 0.637401
Si Si2 0.361785 0.147580 0.382332
Si Si3 0.733408 0.401031 0.031456
Si Si4 0.355281 0.352443 0.359466
Si Si5 0.500000 0.337547 0.969398
Si Si6 0.644008 0.041301 0.689729
Si Si7 0.500000 0.880608 0.329574
O O1 0.429728 0.605223 0.617215
O O2 0.500000 0.737879 0.567382
O O3 0.500000 0.686733 0.743384
O O4 0.301009 0.156121 0.453195
O O5 0.367407 0.245471 0.333758
O O6 0.431132 0.115797 0.432755
O O7 0.343277 0.067650 0.312413
O O8 0.804009 0.354559 0.058777
O O9 0.680966 0.405546 0.111623
O O10 0.753431 0.500000 0.000000
O O11 0.326192 0.413347 0.279290
O O12 0.500000 0.330058 0.076109
O O13 0.564393 0.054928 0.678876
#
# Coordination Sequence:
#
# PCOD8261556 Si02
#       7
#     8  16  16  16   8  16   8
#     4   8  20  34  55  84 116 147 196 227 281 342
#     4  10  20  34  57  87 112 144 189 230 284 340
#     4  10  20  35  56  81 111 145 189 233 275 341
#     4  10  20  38  55  79 117 150 181 237 281 334
#     4  10  17  32  59  87 118 146 182 240 289 331
#     4  10  20  34  56  86 114 143 186 233 284 335
#     4  10  17  32  59  87 116 150 182 239 290 332
#
# _framework density 20.017472999999999
#
# number of rings (size 3 to 8) (size 9 to 14) (size 15 to 20)
#    0.000    2.182    1.818    1.636    0.000    0.727 
#    0.000    9.545    4.000    0.000    0.000    0.000 
#    0.000    0.000    0.000    0.000    0.000    0.000 
#
# Total GULP energy -545104.287866 kJ/mol
# GULP energy per Si atom -12388.733815 kJ/mol
# Density = 1.997191 g / cm^3
# Si number density = 20.017473 Si / 1000 Ang^3
#
#
#
# Elastic Constant Matrix: (Units=GPa)
#
#
# Indices 1 2 3 4 5 6 
#
# 1 110.3406 40.0296 42.0672 0.0000 0.0000 0.0000
# 2 40.0296 64.4040 40.0084 0.0000 0.0000 0.0000
# 3 42.0672 40.0084 85.8469 0.0000 0.0000 0.0000
# 4 0.0000 0.0000 0.0000 29.9318 0.0000 0.0000
# 5 0.0000 0.0000 0.0000 0.0000 26.0464 0.0000
# 6 0.0000 0.0000 0.0000 0.0000 0.0000 20.7560
#
#
#
# Elastic Compliance Matrix: (Units=1/GPa)
#
#
# Indices 1 2 3 4 5 6 
#
# 1 0.012405 -0.005537 -0.003498 0.000000 0.000000 0.000000
# 2 -0.005537 0.024326 -0.008623 0.000000 0.000000 0.000000
# 3 -0.003498 -0.008623 0.017382 0.000000 0.000000 0.000000
# 4 0.000000 0.000000 0.000000 0.033409 0.000000 0.000000
# 5 0.000000 0.000000 0.000000 0.000000 0.038393 0.000000
# 6 0.000000 0.000000 0.000000 0.000000 0.000000 0.048179
#
#
# Mechanical properties :
#
#
# Convention : Reuss Voigt Hill
#
# Bulk Modulus (GPa) = 53.20627 56.08912 54.64769
# Shear Modulus (GPa) = 23.18283 24.57925 23.88104
#
# Velocity S-wave (km/s) = 3.40682 3.50793 3.45774
# Velocity P-wave (km/s) = 6.48944 6.66996 6.58032
#
# Compressibility (1/GPa) = 0.01879478
#
# Stress axis : x y z
#
# Youngs Moduli (GPa) = 80.60997 41.10909 57.53138
#
# Poissons Ratio (x) = 0.22763 0.20127
# Poissons Ratio (y) = 0.44636 0.49611
# Poissons Ratio (z) = 0.28201 0.35450
#
# Static dielectric constant tensor:
#      x y z
#    x 4.111370 0.000000 0.000000 
#    y 0.000000 3.297370 0.000000 
#    z 0.000000 0.000000 3.624110 
# 
# 
# High freq. dielectric constant tensor:
#      x y z
#    x 1.805520 0.000000 0.000000 
#    y 0.000000 1.752260 0.000000 
#    z 0.000000 0.000000 1.763010 
# 
# From -- ./inp_files/25469.got.cif
#   From: 2010.03.12/outbox.cif.g09.slc.cpg/sg64_13_cif.got.tgz:25469.got - 2010.04.10 20:19:32.
