data_PCOD8261800
_publ_section_title
;
Structure prediction by ZEFSAII (Michael W. Deem and Ramdas Pophale) SiO2 
 PCOD8261800
Probable space group: C M C A
;
_chemical_formula_sum "Si O2"
_cell_formula_units_Z 112
_cell_length_a 16.198161
_cell_length_b 23.697696
_cell_length_c 15.318938
_cell_angle_alpha 90.000000
_cell_angle_beta 90.000000
_cell_angle_gamma 90.000000
_cell_volume 5880.313679
_symmetry_space_group_name_H-M "C M C A"
_symmetry_group_IT_number 64
_symmetry_cell_setting 'orthorhombic'
loop_
_space_group_symop_operation_xyz
x,y,z
-x,1/2-y,1/2+z
x,-y,-z
-x,1/2+y,1/2-z
-x,-y,-z
x,1/2+y,1/2-z
-x,y,z
x,1/2-y,1/2+z
1/2+x,1/2+y,z
1/2-x,-y,1/2+z
1/2+x,1/2-y,-z
1/2-x,y,1/2-z
1/2-x,1/2-y,-z
1/2+x,y,1/2-z
1/2-x,1/2+y,z
1/2+x,-y,1/2+z
loop_
_atom_site_type_symbol
_atom_site_label
_atom_site_fract_x
_atom_site_fract_y
_atom_site_fract_z
Si Si1 0.656660 0.592731 0.228163
Si Si2 0.245966 0.542880 0.935335
Si Si3 0.685375 0.296595 0.679141
Si Si4 0.406980 0.988821 0.168097
Si Si5 0.200834 0.359659 0.550817
Si Si6 0.904774 0.693465 0.595406
Si Si7 0.833902 0.401320 0.288692
O O1 0.750000 0.575853 0.250000
O O2 0.634325 0.651722 0.276921
O O3 0.600957 0.542457 0.266390
O O4 0.650182 0.602673 0.122871
O O5 0.157571 0.513572 0.912233
O O6 0.302113 0.547512 0.849819
O O7 0.292029 0.500000 0.000000
O O8 0.243460 0.603191 0.984179
O O9 0.750000 0.271309 0.750000
O O10 0.735747 0.318333 0.596511
O O11 0.623774 0.249953 0.643642
O O12 0.500000 0.989277 0.130926
O O13 0.392000 0.929689 0.217207
O O14 0.139231 0.320059 0.496028
O O15 0.890319 0.642880 0.662303
O O16 0.000000 0.699868 0.573453
O O17 0.750000 0.372552 0.250000
#
# Coordination Sequence:
#
# PCOD8261800 Si02
#       7
#    16  16  16  16  16  16  16
#     4   9  18  36  58  76  97 138 187 219 248 306
#     4  10  18  32  53  75  99 133 174 213 253 306
#     4   9  19  37  59  76  98 140 186 216 254 320
#     4  11  21  32  50  78 111 138 166 212 266 317
#     4   9  19  35  56  76 101 138 180 218 257 316
#     4  11  21  33  52  80 109 131 166 224 277 310
#     4   9  19  35  54  71  96 138 178 209 250 310
#
# _framework density 19.046603000000001
#
# number of rings (size 3 to 8) (size 9 to 14) (size 15 to 20)
#    0.000    2.571    0.000    5.143    0.000    1.429 
#    0.000    2.857    0.000    4.714    0.000    0.000 
#    0.000    0.000    0.000    0.000    0.000    0.000 
#
# Total GULP energy -693960.480947 kJ/mol
# GULP energy per Si atom -12392.151445 kJ/mol
# Density = 1.900325 g / cm^3
# Si number density = 19.046603 Si / 1000 Ang^3
#
#
#
# Elastic Constant Matrix: (Units=GPa)
#
#
# Indices 1 2 3 4 5 6 
#
# 1 63.2479 26.4117 10.6415 0.0000 0.0000 0.0000
# 2 26.4117 63.3478 18.4406 0.0000 0.0000 0.0000
# 3 10.6415 18.4406 82.6022 0.0000 0.0000 0.0000
# 4 0.0000 0.0000 0.0000 22.4782 0.0000 0.0000
# 5 0.0000 0.0000 0.0000 0.0000 13.2740 0.0000
# 6 0.0000 0.0000 0.0000 0.0000 0.0000 13.8725
#
#
#
# Elastic Compliance Matrix: (Units=1/GPa)
#
#
# Indices 1 2 3 4 5 6 
#
# 1 0.019185 -0.007785 -0.000734 0.000000 0.000000 0.000000
# 2 -0.007785 0.020042 -0.003471 0.000000 0.000000 0.000000
# 3 -0.000734 -0.003471 0.012976 0.000000 0.000000 0.000000
# 4 0.000000 0.000000 0.000000 0.044488 0.000000 0.000000
# 5 0.000000 0.000000 0.000000 0.000000 0.075335 0.000000
# 6 0.000000 0.000000 0.000000 0.000000 0.000000 0.072085
#
#
# Mechanical properties :
#
#
# Convention : Reuss Voigt Hill
#
# Bulk Modulus (GPa) = 35.43251 35.57615 35.50433
# Shear Modulus (GPa) = 18.01806 20.17189 19.09497
#
# Velocity S-wave (km/s) = 3.07905 3.25788 3.16973
# Velocity P-wave (km/s) = 5.59322 5.73330 5.66370
#
# Compressibility (1/GPa) = 0.02822267
#
# Stress axis : x y z
#
# Youngs Moduli (GPa) = 52.12318 49.89429 77.06721
#
# Poissons Ratio (x) = 0.38845 0.05653
# Poissons Ratio (y) = 0.40580 0.26753
# Poissons Ratio (z) = 0.03823 0.17320
#
# Static dielectric constant tensor:
#      x y z
#    x 3.148550 0.000000 0.000000 
#    y 0.000000 3.439040 0.000000 
#    z 0.000000 0.000000 3.759250 
# 
# 
# High freq. dielectric constant tensor:
#      x y z
#    x 1.704570 0.000000 0.000000 
#    y 0.000000 1.740340 0.000000 
#    z 0.000000 0.000000 1.755350 
# 
# From -- ./inp_files/24420.got.cif
#   From: 2010.03.12/outbox.cif.g09.slc.cpg/sg64_13_cif.got.tgz:24420.got - 2010.04.10 20:19:32.
