data_PCOD8261621
_publ_section_title
;
Structure prediction by ZEFSAII (Michael W. Deem and Ramdas Pophale) SiO2 
 PCOD8261621
Probable space group: C M C A
;
_chemical_formula_sum "Si O2"
_cell_formula_units_Z 80
_cell_length_a 9.078230
_cell_length_b 18.828295
_cell_length_c 26.024598
_cell_angle_alpha 90.000000
_cell_angle_beta 90.000000
_cell_angle_gamma 90.000000
_cell_volume 4448.321882
_symmetry_space_group_name_H-M "C M C A"
_symmetry_group_IT_number 64
_symmetry_cell_setting 'orthorhombic'
loop_
_space_group_symop_operation_xyz
x,y,z
-x,1/2-y,1/2+z
x,-y,-z
-x,1/2+y,1/2-z
-x,-y,-z
x,1/2+y,1/2-z
-x,y,z
x,1/2-y,1/2+z
1/2+x,1/2+y,z
1/2-x,-y,1/2+z
1/2+x,1/2-y,-z
1/2-x,y,1/2-z
1/2-x,1/2-y,-z
1/2+x,y,1/2-z
1/2-x,1/2+y,z
1/2+x,-y,1/2+z
loop_
_atom_site_type_symbol
_atom_site_label
_atom_site_fract_x
_atom_site_fract_y
_atom_site_fract_z
Si Si1 0.334339 0.335563 0.299292
Si Si2 0.661502 0.833181 0.702252
Si Si3 0.176375 0.321590 0.590045
Si Si4 0.674475 0.826926 0.402645
Si Si5 0.173551 0.578946 0.500961
O O1 0.500000 0.366877 0.302237
O O2 0.250000 0.368178 0.250000
O O3 0.342146 0.251336 0.293806
O O4 0.243715 0.356458 0.350046
O O5 0.500000 0.865991 0.707570
O O6 0.750000 0.866582 0.750000
O O7 0.725759 0.852706 0.645884
O O8 0.255007 0.247013 0.579637
O O9 0.234621 0.375822 0.547076
O O10 0.000000 0.309122 0.589039
O O11 0.500000 0.817225 0.395787
O O12 0.715819 0.884149 0.445798
O O13 0.243249 0.500000 0.500000
O O14 0.000000 0.574008 0.494227
#
# Coordination Sequence:
#
# PCOD8261621 Si02
#       5
#    16  16  16  16  16
#     4   9  16  27  44  68  98 126 154 190 232 279
#     4   8  14  23  38  62  89 115 142 178 224 269
#     4   9  17  30  48  69  93 122 157 198 240 280
#     4  10  18  28  47  73  97 123 157 196 238 284
#     4   9  18  32  49  68  91 123 164 204 241 284
#
# _framework density 17.984309
#
# number of rings (size 3 to 8) (size 9 to 14) (size 15 to 20)
#    0.000    3.000    0.000    3.000    0.000    4.800 
#    0.000    1.000    0.000    6.600    0.000    2.800 
#    0.000    0.000    0.000    0.000    0.000    0.000 
#
# Total GULP energy -495774.187545 kJ/mol
# GULP energy per Si atom -12394.354689 kJ/mol
# Density = 1.794338 g / cm^3
# Si number density = 17.984309 Si / 1000 Ang^3
#
#
#
# Elastic Constant Matrix: (Units=GPa)
#
#
# Indices 1 2 3 4 5 6 
#
# 1 74.4509 33.1908 59.5419 0.0000 0.0000 0.0000
# 2 33.1908 76.8098 68.8258 0.0000 0.0000 0.0000
# 3 59.5419 68.8258 174.5551 0.0000 0.0000 0.0000
# 4 0.0000 0.0000 0.0000 2.2638 0.0000 0.0000
# 5 0.0000 0.0000 0.0000 0.0000 27.9221 0.0000
# 6 0.0000 0.0000 0.0000 0.0000 0.0000 10.6765
#
#
#
# Elastic Compliance Matrix: (Units=1/GPa)
#
#
# Indices 1 2 3 4 5 6 
#
# 1 0.019142 -0.003743 -0.005053 0.000000 0.000000 0.000000
# 2 -0.003743 0.020864 -0.006950 0.000000 0.000000 0.000000
# 3 -0.005053 -0.006950 0.010193 0.000000 0.000000 0.000000
# 4 0.000000 0.000000 0.000000 0.441741 0.000000 0.000000
# 5 0.000000 0.000000 0.000000 0.000000 0.035814 0.000000
# 6 0.000000 0.000000 0.000000 0.000000 0.000000 0.093663
#
#
# Mechanical properties :
#
#
# Convention : Reuss Voigt Hill
#
# Bulk Modulus (GPa) = 53.45927 72.10366 62.78147
# Shear Modulus (GPa) = 7.58558 19.12296 13.35427
#
# Velocity S-wave (km/s) = 2.05598 3.26439 2.72794
# Velocity P-wave (km/s) = 5.95198 7.37481 6.70127
#
# Compressibility (1/GPa) = 0.01870583
#
# Stress axis : x y z
#
# Youngs Moduli (GPa) = 52.24109 47.92941 98.10840
#
# Poissons Ratio (x) = 0.17942 0.49579
# Poissons Ratio (y) = 0.19556 0.68182
# Poissons Ratio (z) = 0.26400 0.33309
#
# Static dielectric constant tensor:
#      x y z
#    x 3.310710 0.000000 0.000000 
#    y 0.000000 2.969040 0.000000 
#    z 0.000000 0.000000 3.691620 
# 
# 
# High freq. dielectric constant tensor:
#      x y z
#    x 1.681680 0.000000 0.000000 
#    y 0.000000 1.639270 0.000000 
#    z 0.000000 0.000000 1.720190 
# 
# From -- ./inp_files/47890.got.cif
#   From: 2010.03.12/outbox.cif.g09.slc.cpg/sg64_24_cif.got.tgz:47890.got - 2010.04.10 20:19:32.
