data_PCOD8261144
_publ_section_title
;
Structure prediction by ZEFSAII (Michael W. Deem and Ramdas Pophale) SiO2 
 PCOD8261144
Probable space group: C M C M
;
_chemical_formula_sum "Si O2"
_cell_formula_units_Z 84
_cell_length_a 18.484110
_cell_length_b 21.968763
_cell_length_c 11.715269
_cell_angle_alpha 90.000000
_cell_angle_beta 90.000000
_cell_angle_gamma 90.000000
_cell_volume 4757.254802
_symmetry_space_group_name_H-M "C M C M"
_symmetry_group_IT_number 63
_symmetry_cell_setting 'orthorhombic'
loop_
_space_group_symop_operation_xyz
x,y,z
-x,-y,1/2+z
x,-y,-z
-x,y,1/2-z
-x,-y,-z
x,y,1/2-z
-x,y,z
x,-y,1/2+z
1/2+x,1/2+y,z
1/2-x,1/2-y,1/2+z
1/2+x,1/2-y,-z
1/2-x,1/2+y,1/2-z
1/2-x,1/2-y,-z
1/2+x,1/2+y,1/2-z
1/2-x,1/2+y,z
1/2+x,1/2-y,1/2+z
loop_
_atom_site_type_symbol
_atom_site_label
_atom_site_fract_x
_atom_site_fract_y
_atom_site_fract_z
Si Si1 0.264092 0.832856 0.886450
Si Si2 0.360132 0.736135 0.015737
Si Si3 0.375893 0.084556 0.750000
Si Si4 0.500000 0.746950 0.882279
Si Si5 0.848534 0.571317 0.513216
Si Si6 0.500000 0.013207 0.250000
Si Si7 0.000000 0.387763 0.943234
Si Si8 0.080507 0.285184 0.250000
O O1 0.256098 0.829170 0.750000
O O2 0.187829 0.823114 0.951939
O O3 0.318418 0.781334 0.930681
O O4 0.295482 0.899265 0.919518
O O5 0.376576 0.766781 0.136819
O O6 0.431709 0.717122 0.947035
O O7 0.321390 0.084066 0.641811
O O8 0.427556 0.142741 0.750000
O O9 0.426787 0.025092 0.750000
O O10 0.500000 0.727483 0.750000
O O11 0.500000 0.820350 0.889806
O O12 0.854592 0.500000 0.500000
O O13 0.927511 0.603659 0.515966
O O14 0.500000 0.057645 0.355652
O O15 0.000000 0.256228 0.250000
#
# Coordination Sequence:
#
# PCOD8261144 Si02
#       8
#    16  16   8   8  16   4   8   8
#     4  11  24  40  57  80 117 155 195 241 293 350
#     4  11  23  38  58  84 110 151 194 240 296 345
#     4  12  22  34  47  79 112 153 201 238 279 325
#     4  12  22  37  61  89 116 151 194 241 291 340
#     4  12  25  37  54  80 113 159 203 241 284 336
#     4  12  22  32  52  72 128 160 204 244 270 312
#     4  12  22  36  51  84 115 158 209 236 272 330
#     4  12  20  36  56  79 116 143 193 247 287 343
#
# _framework density 17.657242
#
# number of rings (size 3 to 8) (size 9 to 14) (size 15 to 20)
#    0.000    0.381    8.571    1.429    2.667    0.000 
#    1.714    0.000    0.000    0.000    0.000    0.667 
#    0.000    0.000    0.000    0.000    0.000    0.000 
#
# Total GULP energy -520574.725102 kJ/mol
# GULP energy per Si atom -12394.636312 kJ/mol
# Density = 1.761705 g / cm^3
# Si number density = 17.657242 Si / 1000 Ang^3
#
#
#
# Elastic Constant Matrix: (Units=GPa)
#
#
# Indices 1 2 3 4 5 6 
#
# 1 104.5774 35.3073 47.4905 0.0000 0.0000 0.0000
# 2 35.3073 44.9406 22.8584 0.0000 0.0000 0.0000
# 3 47.4905 22.8584 140.8972 0.0000 0.0000 0.0000
# 4 0.0000 0.0000 0.0000 25.7133 0.0000 0.0000
# 5 0.0000 0.0000 0.0000 0.0000 22.7371 0.0000
# 6 0.0000 0.0000 0.0000 0.0000 0.0000 10.5634
#
#
#
# Elastic Compliance Matrix: (Units=1/GPa)
#
#
# Indices 1 2 3 4 5 6 
#
# 1 0.014267 -0.009551 -0.003259 0.000000 0.000000 0.000000
# 2 -0.009551 0.030647 -0.001753 0.000000 0.000000 0.000000
# 3 -0.003259 -0.001753 0.008480 0.000000 0.000000 0.000000
# 4 0.000000 0.000000 0.000000 0.038890 0.000000 0.000000
# 5 0.000000 0.000000 0.000000 0.000000 0.043981 0.000000
# 6 0.000000 0.000000 0.000000 0.000000 0.000000 0.094667
#
#
# Mechanical properties :
#
#
# Convention : Reuss Voigt Hill
#
# Bulk Modulus (GPa) = 41.20649 55.74754 48.47701
# Shear Modulus (GPa) = 18.64646 24.12002 21.38324
#
# Velocity S-wave (km/s) = 3.25318 3.69997 3.48374
# Velocity P-wave (km/s) = 6.12359 7.06354 6.61030
#
# Compressibility (1/GPa) = 0.02426802
#
# Stress axis : x y z
#
# Youngs Moduli (GPa) = 70.09177 32.62986 117.92036
#
# Poissons Ratio (x) = 0.31165 0.38434
# Poissons Ratio (y) = 0.66945 0.20668
# Poissons Ratio (z) = 0.22845 0.05719
#
# Static dielectric constant tensor:
#      x y z
#    x 3.364580 0.000000 0.000000 
#    y 0.000000 3.096700 0.000000 
#    z 0.000000 0.000000 3.610560 
# 
# 
# High freq. dielectric constant tensor:
#      x y z
#    x 1.658730 0.000000 0.000000 
#    y 0.000000 1.647530 0.000000 
#    z 0.000000 0.000000 1.715120 
# 
# From -- ./inp_files/21100.got.cif
#   From: 2010.03.12/outbox.cif.g09.slc.cpg/sg63_11_cif.got.tgz:21100.got - 2010.04.10 19:34:48.
