data_PCOD8261797
_publ_section_title
;
Structure prediction by ZEFSAII (Michael W. Deem and Ramdas Pophale) SiO2 
 PCOD8261797
Probable space group: C M C A
;
_chemical_formula_sum "Si O2"
_cell_formula_units_Z 96
_cell_length_a 8.554030
_cell_length_b 23.901429
_cell_length_c 25.081284
_cell_angle_alpha 90.000000
_cell_angle_beta 90.000000
_cell_angle_gamma 90.000000
_cell_volume 5127.957319
_symmetry_space_group_name_H-M "C M C A"
_symmetry_group_IT_number 64
_symmetry_cell_setting 'orthorhombic'
loop_
_space_group_symop_operation_xyz
x,y,z
-x,1/2-y,1/2+z
x,-y,-z
-x,1/2+y,1/2-z
-x,-y,-z
x,1/2+y,1/2-z
-x,y,z
x,1/2-y,1/2+z
1/2+x,1/2+y,z
1/2-x,-y,1/2+z
1/2+x,1/2-y,-z
1/2-x,y,1/2-z
1/2-x,1/2-y,-z
1/2+x,y,1/2-z
1/2-x,1/2+y,z
1/2+x,-y,1/2+z
loop_
_atom_site_type_symbol
_atom_site_label
_atom_site_fract_x
_atom_site_fract_y
_atom_site_fract_z
Si Si1 0.185514 0.188107 0.000625
Si Si2 0.819726 0.386478 0.906439
Si Si3 0.683259 0.938876 0.692294
Si Si4 0.815477 0.440653 0.191891
Si Si5 0.184515 0.113899 0.902595
Si Si6 0.330605 0.505593 0.060427
O O1 0.241425 0.158872 0.054869
O O2 0.000000 0.187236 0.000616
O O3 0.250000 0.250000 0.000000
O O4 0.247884 0.158394 0.946119
O O5 0.738526 0.389763 0.848155
O O6 0.799919 0.447470 0.931971
O O7 0.000000 0.370746 0.899777
O O8 0.500000 0.939275 0.698049
O O9 0.750000 0.925014 0.750000
O O10 0.741551 0.000055 0.671028
O O11 0.750000 0.427245 0.250000
O O12 0.767997 0.386444 0.155493
O O13 0.000000 0.448158 0.194349
O O14 0.000000 0.121026 0.895338
O O15 0.237673 0.053420 0.922418
O O16 0.500000 0.520604 0.088958
O O17 0.373825 0.500000 0.000000
#
# Coordination Sequence:
#
# PCOD8261797 Si02
#       6
#    16  16  16  16  16  16
#     4  11  24  43  62  83 111 148 191 239 290 339
#     4  12  23  35  55  84 116 151 189 231 279 337
#     4  11  21  35  54  80 117 155 190 229 278 336
#     4  11  21  33  52  81 117 153 190 228 274 335
#     4  10  20  35  57  81 114 152 186 228 283 338
#     4  10  18  32  52  78 112 150 184 223 281 340
#
# _framework density 18.720904999999998
#
# number of rings (size 3 to 8) (size 9 to 14) (size 15 to 20)
#    0.000    1.167    3.333    6.000    0.000    1.667 
#    0.000    0.000    0.000    1.000    0.000    2.333 
#    0.000    0.000    0.000    0.000    0.000    0.000 
#
# Total GULP energy -594842.085756 kJ/mol
# GULP energy per Si atom -12392.543453 kJ/mol
# Density = 1.867830 g / cm^3
# Si number density = 18.720905 Si / 1000 Ang^3
#
#
#
# Elastic Constant Matrix: (Units=GPa)
#
#
# Indices 1 2 3 4 5 6 
#
# 1 123.8838 37.2705 51.6256 0.0000 0.0000 0.0000
# 2 37.2705 102.2517 64.6508 0.0000 0.0000 0.0000
# 3 51.6256 64.6508 138.2803 0.0000 0.0000 0.0000
# 4 0.0000 0.0000 0.0000 16.2280 0.0000 0.0000
# 5 0.0000 0.0000 0.0000 0.0000 29.8867 0.0000
# 6 0.0000 0.0000 0.0000 0.0000 0.0000 26.0504
#
#
#
# Elastic Compliance Matrix: (Units=1/GPa)
#
#
# Indices 1 2 3 4 5 6 
#
# 1 0.009783 -0.001784 -0.002818 0.000000 0.000000 0.000000
# 2 -0.001784 0.014209 -0.005977 0.000000 0.000000 0.000000
# 3 -0.002818 -0.005977 0.011079 0.000000 0.000000 0.000000
# 4 0.000000 0.000000 0.000000 0.061622 0.000000 0.000000
# 5 0.000000 0.000000 0.000000 0.000000 0.033460 0.000000
# 6 0.000000 0.000000 0.000000 0.000000 0.000000 0.038387
#
#
# Mechanical properties :
#
#
# Convention : Reuss Voigt Hill
#
# Bulk Modulus (GPa) = 71.88193 74.61218 73.24705
# Shear Modulus (GPa) = 25.72858 28.49096 27.10977
#
# Velocity S-wave (km/s) = 3.71121 3.90536 3.80952
# Velocity P-wave (km/s) = 7.53950 7.76385 7.65250
#
# Compressibility (1/GPa) = 0.01391170
#
# Stress axis : x y z
#
# Youngs Moduli (GPa) = 102.21496 70.37631 90.26474
#
# Poissons Ratio (x) = 0.12555 0.25440
# Poissons Ratio (y) = 0.18235 0.53954
# Poissons Ratio (z) = 0.28809 0.42066
#
# Static dielectric constant tensor:
#      x y z
#    x 3.431310 0.000000 0.000000 
#    y 0.000000 3.149850 0.000000 
#    z 0.000000 0.000000 3.909080 
# 
# 
# High freq. dielectric constant tensor:
#      x y z
#    x 1.734990 0.000000 0.000000 
#    y 0.000000 1.676520 0.000000 
#    z 0.000000 0.000000 1.752610 
# 
# From -- ./inp_files/48367.got.cif
#   From: 2010.03.12/outbox.cif.g09.slc.cpg/sg64_25_cif.got.tgz:48367.got - 2010.04.10 20:19:32.
