data_PCOD8261189
_publ_section_title
;
Structure prediction by ZEFSAII (Michael W. Deem and Ramdas Pophale) SiO2 
 PCOD8261189
Probable space group: C M C M
;
_chemical_formula_sum "Si O2"
_cell_formula_units_Z 80
_cell_length_a 7.743158
_cell_length_b 29.092316
_cell_length_c 19.024851
_cell_angle_alpha 90.000000
_cell_angle_beta 90.000000
_cell_angle_gamma 90.000000
_cell_volume 4285.659683
_symmetry_space_group_name_H-M "C M C M"
_symmetry_group_IT_number 63
_symmetry_cell_setting 'orthorhombic'
loop_
_space_group_symop_operation_xyz
x,y,z
-x,-y,1/2+z
x,-y,-z
-x,y,1/2-z
-x,-y,-z
x,y,1/2-z
-x,y,z
x,-y,1/2+z
1/2+x,1/2+y,z
1/2-x,1/2-y,1/2+z
1/2+x,1/2-y,-z
1/2-x,1/2+y,1/2-z
1/2-x,1/2-y,-z
1/2+x,1/2+y,1/2-z
1/2-x,1/2+y,z
1/2+x,1/2-y,1/2+z
loop_
_atom_site_type_symbol
_atom_site_label
_atom_site_fract_x
_atom_site_fract_y
_atom_site_fract_z
Si Si1 0.500000 0.296763 0.666199
Si Si2 0.202250 0.547793 0.088628
Si Si3 0.800899 0.443124 0.428646
Si Si4 0.000000 0.099024 0.166831
Si Si5 0.302935 0.634688 0.826120
Si Si6 0.693192 0.265630 0.166431
O O1 0.500000 0.294986 0.750000
O O2 0.500000 0.348908 0.638799
O O3 0.672444 0.271970 0.636317
O O4 0.239791 0.493881 0.099980
O O5 0.324138 0.575198 0.141215
O O6 0.000000 0.558719 0.103229
O O7 0.255654 0.561462 0.009527
O O8 0.705076 0.405948 0.381939
O O9 0.000000 0.432091 0.421659
O O10 0.000000 0.096559 0.250000
O O11 0.217994 0.620933 0.750000
O O12 0.500000 0.645878 0.811498
O O13 0.230586 0.683650 0.854506
O O14 0.686130 0.262389 0.250000
O O15 0.500000 0.256132 0.135451
#
# Coordination Sequence:
#
# PCOD8261189 Si02
#       6
#     8  16  16   8  16  16
#     4   9  18  32  51  75 101 135 182 222 257 317
#     4   9  21  40  56  77 109 143 188 227 257 320
#     4   9  19  35  56  79 104 148 188 211 262 326
#     4  11  24  37  57  85 104 139 188 228 282 317
#     4   9  18  29  47  83 116 137 169 215 273 326
#     4   8  15  29  47  71 105 137 167 211 264 318
#
# _framework density 18.666905
#
# number of rings (size 3 to 8) (size 9 to 14) (size 15 to 20)
#    0.000    3.000    0.000    2.400    4.200    3.200 
#    0.000    4.000    0.000    1.200    0.000    0.000 
#    0.000    0.000    0.000    0.000    0.000    0.000 
#
# Total GULP energy -495655.728051 kJ/mol
# GULP energy per Si atom -12391.393201 kJ/mol
# Density = 1.862442 g / cm^3
# Si number density = 18.666905 Si / 1000 Ang^3
#
#
#
# Elastic Constant Matrix: (Units=GPa)
#
#
# Indices 1 2 3 4 5 6 
#
# 1 95.1727 64.7808 32.3195 0.0000 0.0000 0.0000
# 2 64.7808 132.5704 48.7872 0.0000 0.0000 0.0000
# 3 32.3195 48.7872 53.5969 0.0000 0.0000 0.0000
# 4 0.0000 0.0000 0.0000 -1.8154 0.0000 0.0000
# 5 0.0000 0.0000 0.0000 0.0000 24.1727 0.0000
# 6 0.0000 0.0000 0.0000 0.0000 0.0000 30.6645
#
#
#
# Elastic Compliance Matrix: (Units=1/GPa)
#
#
# Indices 1 2 3 4 5 6 
#
# 1 0.016260 -0.006522 -0.003868 0.000000 0.000000 0.000000
# 2 -0.006522 0.013959 -0.008773 0.000000 0.000000 0.000000
# 3 -0.003868 -0.008773 0.028976 0.000000 0.000000 0.000000
# 4 0.000000 0.000000 0.000000 -0.550856 0.000000 0.000000
# 5 0.000000 0.000000 0.000000 0.000000 0.041369 0.000000
# 6 0.000000 0.000000 0.000000 0.000000 0.000000 0.032611
#
#
# Mechanical properties :
#
#
# Convention : Reuss Voigt Hill
#
# Bulk Modulus (GPa) = 47.92000 63.67944 55.79972
# Shear Modulus (GPa) = -13.42653 19.63455 3.10401
#
# Velocity S-wave (km/s) = -2.68483 3.24672 1.29091
# Velocity P-wave (km/s) = 4.01444 6.94569 5.67267
#
# Compressibility (1/GPa) = 0.02086811
#
# Stress axis : x y z
#
# Youngs Moduli (GPa) = 61.50017 71.63934 34.51076
#
# Poissons Ratio (x) = 0.46723 0.13350
# Poissons Ratio (y) = 0.40110 0.30278
# Poissons Ratio (z) = 0.23790 0.62852
#
# Static dielectric constant tensor:
#      x y z
#    x 3.491890 0.000000 0.000000 
#    y 0.000000 3.568160 0.000000 
#    z 0.000000 0.000000 3.125220 
# 
# 
# High freq. dielectric constant tensor:
#      x y z
#    x 1.729830 0.000000 0.000000 
#    y 0.000000 1.728910 0.000000 
#    z 0.000000 0.000000 1.683430 
# 
# From -- ./inp_files/40618.got.cif
#   From: 2010.03.12/outbox.cif.g09.slc.cpg/sg63_21_cif.got.tgz:40618.got - 2010.04.10 19:34:48.
