data_PCOD8261358
_publ_section_title
;
Structure prediction by ZEFSAII (Michael W. Deem and Ramdas Pophale) SiO2 
 PCOD8261358
Probable space group: C M C M
;
_chemical_formula_sum "Si O2"
_cell_formula_units_Z 80
_cell_length_a 13.432163
_cell_length_b 32.657859
_cell_length_c 10.367699
_cell_angle_alpha 90.000000
_cell_angle_beta 90.000000
_cell_angle_gamma 90.000000
_cell_volume 4547.953787
_symmetry_space_group_name_H-M "C M C M"
_symmetry_group_IT_number 63
_symmetry_cell_setting 'orthorhombic'
loop_
_space_group_symop_operation_xyz
x,y,z
-x,-y,1/2+z
x,-y,-z
-x,y,1/2-z
-x,-y,-z
x,y,1/2-z
-x,y,z
x,-y,1/2+z
1/2+x,1/2+y,z
1/2-x,1/2-y,1/2+z
1/2+x,1/2-y,-z
1/2-x,1/2+y,1/2-z
1/2-x,1/2-y,-z
1/2+x,1/2+y,1/2-z
1/2-x,1/2+y,z
1/2+x,1/2-y,1/2+z
loop_
_atom_site_type_symbol
_atom_site_label
_atom_site_fract_x
_atom_site_fract_y
_atom_site_fract_z
Si Si1 0.116091 0.533194 0.603378
Si Si2 0.386904 0.359644 0.893850
Si Si3 0.263314 0.114707 0.899678
Si Si4 0.110184 0.777941 0.465917
Si Si5 0.819766 0.702195 0.888920
O O1 0.154845 0.500000 0.500000
O O2 0.138345 0.518229 0.750000
O O3 0.171175 0.575229 0.572673
O O4 0.000000 0.541540 0.583812
O O5 0.343499 0.367799 0.750000
O O6 0.500000 0.374934 0.901315
O O7 0.380708 0.310725 0.917939
O O8 0.329751 0.385792 0.002744
O O9 0.226887 0.116315 0.750000
O O10 0.329813 0.154875 0.932584
O O11 0.122196 0.731380 0.513948
O O12 0.201666 0.787205 0.371246
O O13 0.000000 0.781665 0.400395
O O14 0.870096 0.708006 0.750000
#
# Coordination Sequence:
#
# PCOD8261358 Si02
#       5
#    16  16  16  16  16
#     4   9  18  33  52  73  96 121 150 184 224 274
#     4   9  17  29  46  68  93 123 159 194 226 264
#     4   9  18  31  47  69  95 121 150 188 232 273
#     4   9  17  28  42  61  87 121 158 192 225 262
#     4   9  17  28  42  62  88 118 153 190 227 267
#
# _framework density 17.590330000000002
#
# number of rings (size 3 to 8) (size 9 to 14) (size 15 to 20)
#    0.000    3.000    0.000    0.600    0.000    3.600 
#    0.000    6.000    0.000    0.600    0.000    2.800 
#    0.000    0.000    0.000    0.000    0.000    0.000 
#
# Total GULP energy -495600.375464 kJ/mol
# GULP energy per Si atom -12390.009387 kJ/mol
# Density = 1.755029 g / cm^3
# Si number density = 17.590330 Si / 1000 Ang^3
#
#
#
# Elastic Constant Matrix: (Units=GPa)
#
#
# Indices 1 2 3 4 5 6 
#
# 1 53.3038 33.9015 25.3464 0.0000 0.0000 0.0000
# 2 33.9015 120.0015 55.0568 0.0000 0.0000 0.0000
# 3 25.3464 55.0568 98.5985 0.0000 0.0000 0.0000
# 4 0.0000 0.0000 0.0000 19.1881 0.0000 0.0000
# 5 0.0000 0.0000 0.0000 0.0000 16.2060 0.0000
# 6 0.0000 0.0000 0.0000 0.0000 0.0000 25.1542
#
#
#
# Elastic Compliance Matrix: (Units=1/GPa)
#
#
# Indices 1 2 3 4 5 6 
#
# 1 0.023574 -0.005216 -0.003148 0.000000 0.000000 0.000000
# 2 -0.005216 0.012357 -0.005560 0.000000 0.000000 0.000000
# 3 -0.003148 -0.005560 0.014056 0.000000 0.000000 0.000000
# 4 0.000000 0.000000 0.000000 0.052116 0.000000 0.000000
# 5 0.000000 0.000000 0.000000 0.000000 0.061705 0.000000
# 6 0.000000 0.000000 0.000000 0.000000 0.000000 0.039755
#
#
# Mechanical properties :
#
#
# Convention : Reuss Voigt Hill
#
# Bulk Modulus (GPa) = 45.16403 55.61257 50.38830
# Shear Modulus (GPa) = 20.93890 22.61628 21.77759
#
# Velocity S-wave (km/s) = 3.45391 3.58959 3.52240
# Velocity P-wave (km/s) = 6.45269 6.99030 6.72687
#
# Compressibility (1/GPa) = 0.02214151
#
# Stress axis : x y z
#
# Youngs Moduli (GPa) = 42.41880 80.92284 71.14543
#
# Poissons Ratio (x) = 0.42208 0.22395
# Poissons Ratio (y) = 0.22125 0.39553
# Poissons Ratio (z) = 0.13352 0.44989
#
# Static dielectric constant tensor:
#      x y z
#    x 3.169970 0.000000 0.000000 
#    y 0.000000 3.145250 0.000000 
#    z 0.000000 0.000000 3.242110 
# 
# 
# High freq. dielectric constant tensor:
#      x y z
#    x 1.665280 0.000000 0.000000 
#    y 0.000000 1.662730 0.000000 
#    z 0.000000 0.000000 1.674490 
# 
# From -- ./inp_files/17837.got.cif
#   From: 2010.03.12/outbox.cif.g09.slc.cpg/sg63_9_cif.got.tgz:17837.got - 2010.04.10 19:34:48.
