data_PCOD8261865
_publ_section_title
;
Structure prediction by ZEFSAII (Michael W. Deem and Ramdas Pophale) SiO2 
 PCOD8261865
Probable space group: C M C A
;
_chemical_formula_sum "Si O2"
_cell_formula_units_Z 80
_cell_length_a 15.829580
_cell_length_b 17.493128
_cell_length_c 15.491129
_cell_angle_alpha 90.000000
_cell_angle_beta 90.000000
_cell_angle_gamma 90.000000
_cell_volume 4289.631013
_symmetry_space_group_name_H-M "C M C A"
_symmetry_group_IT_number 64
_symmetry_cell_setting 'orthorhombic'
loop_
_space_group_symop_operation_xyz
x,y,z
-x,1/2-y,1/2+z
x,-y,-z
-x,1/2+y,1/2-z
-x,-y,-z
x,1/2+y,1/2-z
-x,y,z
x,1/2-y,1/2+z
1/2+x,1/2+y,z
1/2-x,-y,1/2+z
1/2+x,1/2-y,-z
1/2-x,y,1/2-z
1/2-x,1/2-y,-z
1/2+x,y,1/2-z
1/2-x,1/2+y,z
1/2+x,-y,1/2+z
loop_
_atom_site_type_symbol
_atom_site_label
_atom_site_fract_x
_atom_site_fract_y
_atom_site_fract_z
Si Si1 0.401346 0.054660 0.894942
Si Si2 0.402733 0.748205 0.375246
Si Si3 0.823783 0.094371 0.426657
Si Si4 0.401053 0.211595 0.814659
Si Si5 0.819918 0.693217 0.465125
O O1 0.500000 0.032856 0.883617
O O2 0.374258 0.125344 0.836068
O O3 0.340063 0.982584 0.870359
O O4 0.384557 0.082656 0.991778
O O5 0.500000 0.727215 0.374186
O O6 0.352251 0.669381 0.377178
O O7 0.373207 0.783346 0.284648
O O8 0.387219 0.806677 0.455819
O O9 0.724170 0.109436 0.450680
O O10 0.500000 0.224212 0.828757
O O11 0.356808 0.274854 0.875296
O O12 0.750000 0.750000 0.500000
#
# Coordination Sequence:
#
# PCOD8261865 Si02
#       5
#    16  16  16  16  16
#     4  10  18  33  57  83 108 138 187 239 278 320
#     4  10  19  33  56  82 110 150 188 227 275 328
#     4  10  19  31  54  82 110 140 173 233 290 325
#     4  10  20  34  57  83 108 146 193 234 269 324
#     4  10  19  32  51  78 116 143 176 224 277 338
#
# _framework density 18.649623999999999
#
# number of rings (size 3 to 8) (size 9 to 14) (size 15 to 20)
#    0.000    2.000    4.000    3.000    0.000    3.200 
#    0.000    0.000   17.600    0.000    0.000    5.600 
#    0.000    0.000    0.000    0.000    0.000    0.000 
#
# Total GULP energy -495545.492597 kJ/mol
# GULP energy per Si atom -12388.637315 kJ/mol
# Density = 1.860718 g / cm^3
# Si number density = 18.649624 Si / 1000 Ang^3
#
#
#
# Elastic Constant Matrix: (Units=GPa)
#
#
# Indices 1 2 3 4 5 6 
#
# 1 46.3774 37.0626 29.0023 0.0000 0.0000 0.0000
# 2 37.0626 114.4911 41.2608 0.0000 0.0000 0.0000
# 3 29.0023 41.2608 101.0309 0.0000 0.0000 0.0000
# 4 0.0000 0.0000 0.0000 27.8629 0.0000 0.0000
# 5 0.0000 0.0000 0.0000 0.0000 16.6286 0.0000
# 6 0.0000 0.0000 0.0000 0.0000 0.0000 39.4147
#
#
#
# Elastic Compliance Matrix: (Units=1/GPa)
#
#
# Indices 1 2 3 4 5 6 
#
# 1 0.031707 -0.008189 -0.005758 0.000000 0.000000 0.000000
# 2 -0.008189 0.012357 -0.002696 0.000000 0.000000 0.000000
# 3 -0.005758 -0.002696 0.012652 0.000000 0.000000 0.000000
# 4 0.000000 0.000000 0.000000 0.035890 0.000000 0.000000
# 5 0.000000 0.000000 0.000000 0.000000 0.060137 0.000000
# 6 0.000000 0.000000 0.000000 0.000000 0.000000 0.025371
#
#
# Mechanical properties :
#
#
# Convention : Reuss Voigt Hill
#
# Bulk Modulus (GPa) = 42.67890 52.95009 47.81450
# Shear Modulus (GPa) = 22.80930 27.08617 24.94774
#
# Velocity S-wave (km/s) = 3.50100 3.81513 3.66144
# Velocity P-wave (km/s) = 6.26713 6.91814 6.60067
#
# Compressibility (1/GPa) = 0.02343078
#
# Stress axis : x y z
#
# Youngs Moduli (GPa) = 31.53868 80.92741 79.04125
#
# Poissons Ratio (x) = 0.66273 0.45508
# Poissons Ratio (y) = 0.25828 0.21307
# Poissons Ratio (z) = 0.18158 0.21815
#
# Static dielectric constant tensor:
#      x y z
#    x 3.973450 0.000000 0.000000 
#    y 0.000000 3.983600 0.000000 
#    z 0.000000 0.000000 3.681570 
# 
# 
# High freq. dielectric constant tensor:
#      x y z
#    x 1.721210 0.000000 0.000000 
#    y 0.000000 1.707090 0.000000 
#    z 0.000000 0.000000 1.714510 
# 
# From -- ./inp_files/25308.got.cif
#   From: 2010.03.12/outbox.cif.g09.slc.cpg/sg64_13_cif.got.tgz:25308.got - 2010.04.10 20:19:32.
