data_PCOD8261644
_publ_section_title
;
Structure prediction by ZEFSAII (Michael W. Deem and Ramdas Pophale) SiO2 
 PCOD8261644
Probable space group: C M C A
;
_chemical_formula_sum "Si O2"
_cell_formula_units_Z 96
_cell_length_a 9.234586
_cell_length_b 27.547532
_cell_length_c 21.058206
_cell_angle_alpha 90.000000
_cell_angle_beta 90.000000
_cell_angle_gamma 90.000000
_cell_volume 5356.998148
_symmetry_space_group_name_H-M "C M C A"
_symmetry_group_IT_number 64
_symmetry_cell_setting 'orthorhombic'
loop_
_space_group_symop_operation_xyz
x,y,z
-x,1/2-y,1/2+z
x,-y,-z
-x,1/2+y,1/2-z
-x,-y,-z
x,1/2+y,1/2-z
-x,y,z
x,1/2-y,1/2+z
1/2+x,1/2+y,z
1/2-x,-y,1/2+z
1/2+x,1/2-y,-z
1/2-x,y,1/2-z
1/2-x,1/2-y,-z
1/2+x,y,1/2-z
1/2-x,1/2+y,z
1/2+x,-y,1/2+z
loop_
_atom_site_type_symbol
_atom_site_label
_atom_site_fract_x
_atom_site_fract_y
_atom_site_fract_z
Si Si1 0.171750 0.284377 0.050621
Si Si2 0.839778 0.105324 0.541461
Si Si3 0.661114 0.928964 0.899526
Si Si4 0.664951 0.251197 0.311628
Si Si5 0.662654 0.517633 0.927689
Si Si6 0.166234 0.636724 0.311203
O O1 0.218383 0.339726 0.036815
O O2 0.224913 0.272917 0.122337
O O3 0.000000 0.276047 0.043633
O O4 0.250000 0.250000 0.000000
O O5 0.852916 0.081376 0.473219
O O6 0.730086 0.071497 0.581145
O O7 0.000000 0.105339 0.573376
O O8 0.500000 0.930386 0.869017
O O9 0.757992 0.885902 0.872130
O O10 0.739930 0.980335 0.887042
O O11 0.500000 0.266896 0.301470
O O12 0.750000 0.271359 0.250000
O O13 0.682707 0.193897 0.317001
O O14 0.500000 0.518752 0.900047
O O15 0.659377 0.500000 0.000000
O O16 0.250000 0.616538 0.250000
O O17 0.000000 0.620396 0.307731
#
# Coordination Sequence:
#
# PCOD8261644 Si02
#       6
#    16  16  16  16  16  16
#     4  10  20  33  50  75 104 132 165 208 254 297
#     4   9  18  31  47  69  98 128 158 196 243 292
#     4  10  18  29  47  70  96 125 155 191 240 293
#     4   9  19  34  51  71  98 133 170 205 243 292
#     4   9  17  29  46  68  93 122 156 193 234 285
#     4  10  19  31  47  68  94 124 159 197 237 284
#
# _framework density 17.920483999999998
#
# number of rings (size 3 to 8) (size 9 to 14) (size 15 to 20)
#    0.000    2.500    0.000    2.500    0.000    4.667 
#    0.000    0.000    0.000    1.000    0.000    4.667 
#    0.000    0.000    0.000    0.000    0.000    0.000 
#
# Total GULP energy -595079.713885 kJ/mol
# GULP energy per Si atom -12397.494039 kJ/mol
# Density = 1.787970 g / cm^3
# Si number density = 17.920484 Si / 1000 Ang^3
#
#
#
# Elastic Constant Matrix: (Units=GPa)
#
#
# Indices 1 2 3 4 5 6 
#
# 1 120.1859 53.9130 32.3286 0.0000 0.0000 0.0000
# 2 53.9130 80.6265 31.6049 0.0000 0.0000 0.0000
# 3 32.3286 31.6049 60.6224 0.0000 0.0000 0.0000
# 4 0.0000 0.0000 0.0000 17.0278 0.0000 0.0000
# 5 0.0000 0.0000 0.0000 0.0000 27.4945 0.0000
# 6 0.0000 0.0000 0.0000 0.0000 0.0000 28.1866
#
#
#
# Elastic Compliance Matrix: (Units=1/GPa)
#
#
# Indices 1 2 3 4 5 6 
#
# 1 0.012264 -0.007085 -0.002847 0.000000 0.000000 0.000000
# 2 -0.007085 0.019682 -0.006483 0.000000 0.000000 0.000000
# 3 -0.002847 -0.006483 0.021393 0.000000 0.000000 0.000000
# 4 0.000000 0.000000 0.000000 0.058728 0.000000 0.000000
# 5 0.000000 0.000000 0.000000 0.000000 0.036371 0.000000
# 6 0.000000 0.000000 0.000000 0.000000 0.000000 0.035478
#
#
# Mechanical properties :
#
#
# Convention : Reuss Voigt Hill
#
# Bulk Modulus (GPa) = 48.75477 55.23643 51.99560
# Shear Modulus (GPa) = 22.36329 24.11432 23.23881
#
# Velocity S-wave (km/s) = 3.53642 3.67226 3.60498
# Velocity P-wave (km/s) = 6.62874 6.99075 6.81216
#
# Compressibility (1/GPa) = 0.02051082
#
# Stress axis : x y z
#
# Youngs Moduli (GPa) = 81.53712 50.80900 46.74385
#
# Poissons Ratio (x) = 0.35998 0.13306
# Poissons Ratio (y) = 0.57769 0.30302
# Poissons Ratio (z) = 0.23210 0.32937
#
# Static dielectric constant tensor:
#      x y z
#    x 3.578900 0.000000 0.000000 
#    y 0.000000 3.277450 0.000000 
#    z 0.000000 0.000000 3.097650 
# 
# 
# High freq. dielectric constant tensor:
#      x y z
#    x 1.703570 0.000000 0.000000 
#    y 0.000000 1.688870 0.000000 
#    z 0.000000 0.000000 1.658330 
# 
# From -- ./inp_files/36937.got.cif
#   From: 2010.03.12/outbox.cif.g09.slc.cpg/sg64_19_cif.got.tgz:36937.got - 2010.04.10 20:19:32.
