data_PCOD8261579
_publ_section_title
;
Structure prediction by ZEFSAII (Michael W. Deem and Ramdas Pophale) SiO2 
 PCOD8261579
Probable space group: C M C A
;
_chemical_formula_sum "Si O2"
_cell_formula_units_Z 112
_cell_length_a 15.432673
_cell_length_b 22.850425
_cell_length_c 15.231288
_cell_angle_alpha 90.000000
_cell_angle_beta 90.000000
_cell_angle_gamma 90.000000
_cell_volume 5371.209180
_symmetry_space_group_name_H-M "C M C A"
_symmetry_group_IT_number 64
_symmetry_cell_setting 'orthorhombic'
loop_
_space_group_symop_operation_xyz
x,y,z
-x,1/2-y,1/2+z
x,-y,-z
-x,1/2+y,1/2-z
-x,-y,-z
x,1/2+y,1/2-z
-x,y,z
x,1/2-y,1/2+z
1/2+x,1/2+y,z
1/2-x,-y,1/2+z
1/2+x,1/2-y,-z
1/2-x,y,1/2-z
1/2-x,1/2-y,-z
1/2+x,y,1/2-z
1/2-x,1/2+y,z
1/2+x,-y,1/2+z
loop_
_atom_site_type_symbol
_atom_site_label
_atom_site_fract_x
_atom_site_fract_y
_atom_site_fract_z
Si Si1 0.099549 0.173533 0.111698
Si Si2 0.352062 0.749119 0.754169
Si Si3 0.403098 0.850860 0.881908
Si Si4 0.190506 0.869066 0.175213
Si Si5 0.847432 0.572831 0.267311
Si Si6 0.251391 0.681448 0.508113
Si Si7 0.598731 0.021437 0.593727
O O1 0.106567 0.237969 0.157154
O O2 0.149183 0.133416 0.181441
O O3 0.000000 0.155764 0.093368
O O4 0.154381 0.164005 0.023854
O O5 0.250000 0.761098 0.750000
O O6 0.395843 0.792075 0.824623
O O7 0.370753 0.681743 0.782744
O O8 0.500000 0.851882 0.923136
O O9 0.392532 0.911396 0.825856
O O10 0.330072 0.849526 0.957087
O O11 0.250000 0.898674 0.250000
O O12 0.257740 0.837508 0.108872
O O13 0.139746 0.918231 0.123790
O O14 0.750000 0.551868 0.250000
O O15 0.895001 0.524543 0.326425
O O16 0.250000 0.750000 0.500000
O O17 0.500000 0.035297 0.574322
O O18 0.640624 0.000000 0.500000
#
# Coordination Sequence:
#
# PCOD8261579 Si02
#       7
#    16  16  16  16  16  16  16
#     4  11  21  36  63  98 128 165 214 263 321 382
#     4  10  17  37  60  88 132 170 204 255 318 384
#     4  11  21  36  63  97 129 169 216 265 320 379
#     4  11  24  42  64  87 127 175 211 258 334 391
#     4  11  20  39  67  93 127 163 212 272 325 381
#     4  12  22  41  61  92 135 169 216 266 317 391
#     4  11  25  43  64  95 127 163 220 279 327 392
#
# _framework density 20.851915999999999
#
# number of rings (size 3 to 8) (size 9 to 14) (size 15 to 20)
#    0.000    1.000    4.286    5.571    0.000    3.429 
#    0.000    0.714    0.000    0.000    0.000    3.000 
#    0.000    0.000    0.000    0.000    0.000    0.000 
#
# Total GULP energy -693995.759316 kJ/mol
# GULP energy per Si atom -12392.781416 kJ/mol
# Density = 2.080446 g / cm^3
# Si number density = 20.851916 Si / 1000 Ang^3
#
#
#
# Elastic Constant Matrix: (Units=GPa)
#
#
# Indices 1 2 3 4 5 6 
#
# 1 111.7023 20.0064 39.1719 0.0000 0.0000 0.0000
# 2 20.0064 99.2643 38.7728 0.0000 0.0000 0.0000
# 3 39.1719 38.7728 101.4221 0.0000 0.0000 0.0000
# 4 0.0000 0.0000 0.0000 32.7157 0.0000 0.0000
# 5 0.0000 0.0000 0.0000 0.0000 21.0280 0.0000
# 6 0.0000 0.0000 0.0000 0.0000 0.0000 16.5681
#
#
#
# Elastic Compliance Matrix: (Units=1/GPa)
#
#
# Indices 1 2 3 4 5 6 
#
# 1 0.010387 -0.000619 -0.003775 0.000000 0.000000 0.000000
# 2 -0.000619 0.011879 -0.004302 0.000000 0.000000 0.000000
# 3 -0.003775 -0.004302 0.012963 0.000000 0.000000 0.000000
# 4 0.000000 0.000000 0.000000 0.030566 0.000000 0.000000
# 5 0.000000 0.000000 0.000000 0.000000 0.047556 0.000000
# 6 0.000000 0.000000 0.000000 0.000000 0.000000 0.060357
#
#
# Mechanical properties :
#
#
# Convention : Reuss Voigt Hill
#
# Bulk Modulus (GPa) = 56.06566 56.47678 56.27122
# Shear Modulus (GPa) = 25.37475 28.35819 26.86647
#
# Velocity S-wave (km/s) = 3.49220 3.69179 3.59338
# Velocity P-wave (km/s) = 6.57316 6.73171 6.65291
#
# Compressibility (1/GPa) = 0.01783623
#
# Stress axis : x y z
#
# Youngs Moduli (GPa) = 96.27329 84.17962 77.14501
#
# Poissons Ratio (x) = 0.05210 0.29124
# Poissons Ratio (y) = 0.05958 0.33190
# Poissons Ratio (z) = 0.36345 0.36217
#
# Static dielectric constant tensor:
#      x y z
#    x 3.729460 0.000000 0.000000 
#    y 0.000000 3.782280 0.000000 
#    z 0.000000 0.000000 6.699590 
# 
# 
# High freq. dielectric constant tensor:
#      x y z
#    x 1.805310 0.000000 0.000000 
#    y 0.000000 1.801510 0.000000 
#    z 0.000000 0.000000 1.819800 
# 
# From -- ./inp_files/24186.got.cif
#   From: 2010.03.12/outbox.cif.g09.slc.cpg/sg64_13_cif.got.tgz:24186.got - 2010.04.10 20:19:32.
