data_PCOD8261983
_publ_section_title
;
Structure prediction by ZEFSAII (Michael W. Deem and Ramdas Pophale) SiO2 
 PCOD8261983
Probable space group: C M C A
;
_chemical_formula_sum "Si O2"
_cell_formula_units_Z 88
_cell_length_a 15.250018
_cell_length_b 15.585141
_cell_length_c 23.241341
_cell_angle_alpha 90.000000
_cell_angle_beta 90.000000
_cell_angle_gamma 90.000000
_cell_volume 5523.855062
_symmetry_space_group_name_H-M "C M C A"
_symmetry_group_IT_number 64
_symmetry_cell_setting 'orthorhombic'
loop_
_space_group_symop_operation_xyz
x,y,z
-x,1/2-y,1/2+z
x,-y,-z
-x,1/2+y,1/2-z
-x,-y,-z
x,1/2+y,1/2-z
-x,y,z
x,1/2-y,1/2+z
1/2+x,1/2+y,z
1/2-x,-y,1/2+z
1/2+x,1/2-y,-z
1/2-x,y,1/2-z
1/2-x,1/2-y,-z
1/2+x,y,1/2-z
1/2-x,1/2+y,z
1/2+x,-y,1/2+z
loop_
_atom_site_type_symbol
_atom_site_label
_atom_site_fract_x
_atom_site_fract_y
_atom_site_fract_z
Si Si1 0.896435 0.596380 0.496807
Si Si2 0.098017 0.176804 0.120359
Si Si3 0.398603 0.837497 0.380973
Si Si4 0.250000 0.069431 0.250000
Si Si5 0.094788 0.496754 0.690777
Si Si6 0.743882 0.267072 0.685911
O O1 0.855269 0.500000 0.500000
O O2 0.862421 0.649388 0.441592
O O3 0.871825 0.653268 0.552366
O O4 0.000000 0.585457 0.490789
O O5 0.164862 0.244661 0.150400
O O6 0.000000 0.218296 0.115265
O O7 0.090351 0.092908 0.158752
O O8 0.500000 0.809027 0.373889
O O9 0.380696 0.930320 0.354384
O O10 0.337933 0.768065 0.349790
O O11 0.271118 0.130302 0.194851
O O12 0.167466 0.007114 0.240413
O O13 0.000000 0.516428 0.719209
O O14 0.750000 0.223399 0.750000
#
# Coordination Sequence:
#
# PCOD8261983 Si02
#       6
#    16  16  16   8  16  16
#     4   9  15  26  46  70  90 110 144 187 225 259
#     4   9  16  30  49  66  88 118 149 177 218 267
#     4  10  19  29  45  69  93 113 142 189 228 256
#     4   8  18  30  44  60  90 120 150 178 204 268
#     4   9  16  28  47  65  83 116 149 180 220 254
#     4   9  20  31  41  68  93 122 145 175 222 263
#
# _framework density 15.930903000000001
#
# number of rings (size 3 to 8) (size 9 to 14) (size 15 to 20)
#    0.545    2.364    1.818    0.000    1.273    2.182 
#    0.000    0.000    0.000    0.000    0.000    0.000 
#    0.000    1.455    0.000    0.000    0.000    0.000 
#
# Total GULP energy -545130.573002 kJ/mol
# GULP energy per Si atom -12389.331205 kJ/mol
# Density = 1.589464 g / cm^3
# Si number density = 15.930903 Si / 1000 Ang^3
#
#
#
# Elastic Constant Matrix: (Units=GPa)
#
#
# Indices 1 2 3 4 5 6 
#
# 1 97.1392 28.2076 58.0291 0.0000 0.0000 0.0000
# 2 28.2076 22.9295 17.5603 0.0000 0.0000 0.0000
# 3 58.0291 17.5603 98.0773 0.0000 0.0000 0.0000
# 4 0.0000 0.0000 0.0000 11.7100 0.0000 0.0000
# 5 0.0000 0.0000 0.0000 0.0000 21.5915 0.0000
# 6 0.0000 0.0000 0.0000 0.0000 0.0000 7.3737
#
#
#
# Elastic Compliance Matrix: (Units=1/GPa)
#
#
# Indices 1 2 3 4 5 6 
#
# 1 0.021386 -0.019259 -0.009205 0.000000 0.000000 0.000000
# 2 -0.019259 0.067886 -0.000760 0.000000 0.000000 0.000000
# 3 -0.009205 -0.000760 0.015778 0.000000 0.000000 0.000000
# 4 0.000000 0.000000 0.000000 0.085397 0.000000 0.000000
# 5 0.000000 0.000000 0.000000 0.000000 0.046314 0.000000
# 6 0.000000 0.000000 0.000000 0.000000 0.000000 0.135617
#
#
# Mechanical properties :
#
#
# Convention : Reuss Voigt Hill
#
# Bulk Modulus (GPa) = 21.45798 47.30445 34.38121
# Shear Modulus (GPa) = 11.20167 15.75831 13.47999
#
# Velocity S-wave (km/s) = 2.65456 3.14851 2.91203
# Velocity P-wave (km/s) = 4.78479 6.55557 5.73889
#
# Compressibility (1/GPa) = 0.04660272
#
# Stress axis : x y z
#
# Youngs Moduli (GPa) = 46.75945 14.73050 63.37767
#
# Poissons Ratio (x) = 0.28370 0.58340
# Poissons Ratio (y) = 0.90055 0.04814
# Poissons Ratio (z) = 0.43043 0.01119
#
# Static dielectric constant tensor:
#      x y z
#    x 3.179670 0.000000 0.000000 
#    y 0.000000 2.692740 0.000000 
#    z 0.000000 0.000000 3.163290 
# 
# 
# High freq. dielectric constant tensor:
#      x y z
#    x 1.598180 0.000000 0.000000 
#    y 0.000000 1.576870 0.000000 
#    z 0.000000 0.000000 1.609510 
# 
# From -- ./inp_files/45352.got.cif
#   From: 2010.03.12/outbox.cif.g09.slc.cpg/sg64_23_cif.got.tgz:45352.got - 2010.04.10 20:19:32.
