data_PCOD8261515
_publ_section_title
;
Structure prediction by ZEFSAII (Michael W. Deem and Ramdas Pophale) SiO2 
 PCOD8261515
Probable space group: C M C A
;
_chemical_formula_sum "Si O2"
_cell_formula_units_Z 96
_cell_length_a 17.452774
_cell_length_b 23.782271
_cell_length_c 13.041814
_cell_angle_alpha 90.000000
_cell_angle_beta 90.000000
_cell_angle_gamma 90.000000
_cell_volume 5413.221407
_symmetry_space_group_name_H-M "C M C A"
_symmetry_group_IT_number 64
_symmetry_cell_setting 'orthorhombic'
loop_
_space_group_symop_operation_xyz
x,y,z
-x,1/2-y,1/2+z
x,-y,-z
-x,1/2+y,1/2-z
-x,-y,-z
x,1/2+y,1/2-z
-x,y,z
x,1/2-y,1/2+z
1/2+x,1/2+y,z
1/2-x,-y,1/2+z
1/2+x,1/2-y,-z
1/2-x,y,1/2-z
1/2-x,1/2-y,-z
1/2+x,y,1/2-z
1/2-x,1/2+y,z
1/2+x,-y,1/2+z
loop_
_atom_site_type_symbol
_atom_site_label
_atom_site_fract_x
_atom_site_fract_y
_atom_site_fract_z
Si Si1 0.831010 0.871423 0.498481
Si Si2 0.587804 0.274452 0.385521
Si Si3 0.666375 0.061457 0.789286
Si Si4 0.807949 0.801239 0.988704
Si Si5 0.914275 0.534454 0.104875
Si Si6 0.589455 0.339243 0.177480
O O1 0.883713 0.817467 0.473710
O O2 0.824347 0.907023 0.395848
O O3 0.745113 0.855086 0.535646
O O4 0.868104 0.907569 0.589758
O O5 0.500000 0.261759 0.407340
O O6 0.634185 0.215553 0.396763
O O7 0.601711 0.298000 0.272974
O O8 0.750000 0.046718 0.750000
O O9 0.618679 0.098683 0.708064
O O10 0.622533 0.002622 0.804791
O O11 0.750000 0.750000 0.000000
O O12 0.858811 0.813223 0.088852
O O13 0.000000 0.550188 0.138424
O O14 0.915133 0.500000 0.000000
O O15 0.500000 0.342749 0.145722
#
# Coordination Sequence:
#
# PCOD8261515 Si02
#       6
#    16  16  16  16  16  16
#     4   9  17  29  47  71 101 133 166 208 258 303
#     4   9  18  30  49  74 105 140 174 210 253 300
#     4  10  17  29  50  75 102 126 167 215 259 305
#     4  10  19  30  49  75 104 141 175 210 254 308
#     4   9  17  29  48  74 100 125 158 205 261 308
#     4  10  19  32  51  77 106 136 172 216 259 306
#
# _framework density 17.734356999999999
#
# number of rings (size 3 to 8) (size 9 to 14) (size 15 to 20)
#    0.000    2.500    1.667    1.500    0.000    4.000 
#    0.000    0.000    7.333    0.000    0.000    4.667 
#    0.000    0.000    0.000    0.000    0.000    0.000 
#
# Total GULP energy -594917.845143 kJ/mol
# GULP energy per Si atom -12394.121774 kJ/mol
# Density = 1.769399 g / cm^3
# Si number density = 17.734357 Si / 1000 Ang^3
#
#
#
# Elastic Constant Matrix: (Units=GPa)
#
#
# Indices 1 2 3 4 5 6 
#
# 1 174.7530 70.0302 52.3777 0.0000 0.0000 0.0000
# 2 70.0302 77.0477 32.5372 0.0000 0.0000 0.0000
# 3 52.3777 32.5372 41.5860 0.0000 0.0000 0.0000
# 4 0.0000 0.0000 0.0000 24.8822 0.0000 0.0000
# 5 0.0000 0.0000 0.0000 0.0000 29.6895 0.0000
# 6 0.0000 0.0000 0.0000 0.0000 0.0000 35.0302
#
#
#
# Elastic Compliance Matrix: (Units=1/GPa)
#
#
# Indices 1 2 3 4 5 6 
#
# 1 0.010819 -0.006092 -0.008861 0.000000 0.000000 0.000000
# 2 -0.006092 0.022814 -0.010177 0.000000 0.000000 0.000000
# 3 -0.008861 -0.010177 0.043169 0.000000 0.000000 0.000000
# 4 0.000000 0.000000 0.000000 0.040189 0.000000 0.000000
# 5 0.000000 0.000000 0.000000 0.000000 0.033682 0.000000
# 6 0.000000 0.000000 0.000000 0.000000 0.000000 0.028547
#
#
# Mechanical properties :
#
#
# Convention : Reuss Voigt Hill
#
# Bulk Modulus (GPa) = 37.67430 67.03076 52.35253
# Shear Modulus (GPa) = 20.97962 27.14982 24.06472
#
# Velocity S-wave (km/s) = 3.44320 3.91694 3.68768
# Velocity P-wave (km/s) = 6.09075 7.63778 6.90771
#
# Compressibility (1/GPa) = 0.02654330
#
# Stress axis : x y z
#
# Youngs Moduli (GPa) = 92.42603 43.83297 23.16497
#
# Poissons Ratio (x) = 0.26704 0.20525
# Poissons Ratio (y) = 0.56308 0.23574
# Poissons Ratio (z) = 0.81894 0.44607
#
# Static dielectric constant tensor:
#      x y z
#    x 3.675640 0.000000 0.000000 
#    y 0.000000 3.443420 0.000000 
#    z 0.000000 0.000000 3.000840 
# 
# 
# High freq. dielectric constant tensor:
#      x y z
#    x 1.708760 0.000000 0.000000 
#    y 0.000000 1.673240 0.000000 
#    z 0.000000 0.000000 1.645430 
# 
# From -- ./inp_files/16169.got.cif
#   From: 2010.03.12/outbox.cif.g09.slc.cpg/sg64_9_cif.got.tgz:16169.got - 2010.04.10 20:19:32.
