data_PCOD8261505
_publ_section_title
;
Structure prediction by ZEFSAII (Michael W. Deem and Ramdas Pophale) SiO2 
 PCOD8261505
Probable space group: C M C A
;
_chemical_formula_sum "Si O2"
_cell_formula_units_Z 112
_cell_length_a 18.321232
_cell_length_b 17.354593
_cell_length_c 22.424784
_cell_angle_alpha 90.000000
_cell_angle_beta 90.000000
_cell_angle_gamma 90.000000
_cell_volume 7130.128811
_symmetry_space_group_name_H-M "C M C A"
_symmetry_group_IT_number 64
_symmetry_cell_setting 'orthorhombic'
loop_
_space_group_symop_operation_xyz
x,y,z
-x,1/2-y,1/2+z
x,-y,-z
-x,1/2+y,1/2-z
-x,-y,-z
x,1/2+y,1/2-z
-x,y,z
x,1/2-y,1/2+z
1/2+x,1/2+y,z
1/2-x,-y,1/2+z
1/2+x,1/2-y,-z
1/2-x,y,1/2-z
1/2-x,1/2-y,-z
1/2+x,y,1/2-z
1/2-x,1/2+y,z
1/2+x,-y,1/2+z
loop_
_atom_site_type_symbol
_atom_site_label
_atom_site_fract_x
_atom_site_fract_y
_atom_site_fract_z
Si Si1 0.913176 0.500684 0.433360
Si Si2 0.839757 0.224880 0.318764
Si Si3 0.085919 0.424223 0.785262
Si Si4 0.084196 0.866608 0.848243
Si Si5 0.169690 0.073809 0.727072
Si Si6 0.181096 0.764196 0.318584
Si Si7 0.414244 0.127064 0.656935
O O1 0.880081 0.500000 0.500000
O O2 0.883862 0.575557 0.398053
O O3 0.887579 0.423667 0.399145
O O4 0.000000 0.503906 0.435395
O O5 0.877098 0.141715 0.326144
O O6 0.832597 0.246002 0.250008
O O7 0.757764 0.231780 0.344140
O O8 0.891215 0.284736 0.354188
O O9 0.098734 0.405615 0.715770
O O10 0.129125 0.501613 0.803259
O O11 0.000000 0.431479 0.799976
O O12 0.120852 0.782621 0.855904
O O13 0.000000 0.851040 0.858514
O O14 0.250000 0.050804 0.750000
O O15 0.175162 0.142566 0.677436
O O16 0.121566 0.097499 0.782960
O O17 0.500000 0.119925 0.666074
#
# Coordination Sequence:
#
# PCOD8261505 Si02
#       7
#    16  16  16  16  16  16  16
#     4   9  17  29  46  69  90 112 151 196 236 274
#     4   9  17  29  41  62  89 120 154 176 219 276
#     4  10  19  27  41  63  89 120 153 184 216 264
#     4   9  17  28  43  62  86 118 149 184 231 271
#     4  11  19  28  41  65  93 123 155 180 218 275
#     4   9  17  29  40  62  89 121 151 180 219 270
#     4  10  17  29  46  62  90 122 150 189 229 270
#
# _framework density 15.707991
#
# number of rings (size 3 to 8) (size 9 to 14) (size 15 to 20)
#    0.000    2.429    4.286    0.857    4.000    4.000 
#    0.000    0.000    0.000    0.857    0.000    0.000 
#    0.000    0.000    0.000    8.571    0.000    0.571 
#
# Total GULP energy -694018.296017 kJ/mol
# GULP energy per Si atom -12393.183857 kJ/mol
# Density = 1.567224 g / cm^3
# Si number density = 15.707991 Si / 1000 Ang^3
#
#
#
# Elastic Constant Matrix: (Units=GPa)
#
#
# Indices 1 2 3 4 5 6 
#
# 1 91.9284 65.0078 21.6586 0.0000 0.0000 0.0000
# 2 65.0078 150.0201 32.6511 0.0000 0.0000 0.0000
# 3 21.6586 32.6511 42.0043 0.0000 0.0000 0.0000
# 4 0.0000 0.0000 0.0000 11.9921 0.0000 0.0000
# 5 0.0000 0.0000 0.0000 0.0000 5.7644 0.0000
# 6 0.0000 0.0000 0.0000 0.0000 0.0000 31.6041
#
#
#
# Elastic Compliance Matrix: (Units=1/GPa)
#
#
# Indices 1 2 3 4 5 6 
#
# 1 0.016092 -0.006219 -0.003463 0.000000 0.000000 0.000000
# 2 -0.006219 0.010427 -0.004898 0.000000 0.000000 0.000000
# 3 -0.003463 -0.004898 0.029400 0.000000 0.000000 0.000000
# 4 0.000000 0.000000 0.000000 0.083388 0.000000 0.000000
# 5 0.000000 0.000000 0.000000 0.000000 0.173478 0.000000
# 6 0.000000 0.000000 0.000000 0.000000 0.000000 0.031641
#
#
# Mechanical properties :
#
#
# Convention : Reuss Voigt Hill
#
# Bulk Modulus (GPa) = 37.37207 58.06530 47.71868
# Shear Modulus (GPa) = 13.07163 20.84780 16.95972
#
# Velocity S-wave (km/s) = 2.88786 3.64704 3.28942
# Velocity P-wave (km/s) = 5.91295 7.40137 6.69863
#
# Compressibility (1/GPa) = 0.02675795
#
# Stress axis : x y z
#
# Youngs Moduli (GPa) = 62.14259 95.90593 34.01333
#
# Poissons Ratio (x) = 0.59648 0.11779
# Poissons Ratio (y) = 0.38649 0.16660
# Poissons Ratio (z) = 0.21520 0.46977
#
# Static dielectric constant tensor:
#      x y z
#    x 3.121930 0.000000 0.000000 
#    y 0.000000 3.481900 0.000000 
#    z 0.000000 0.000000 2.620530 
# 
# 
# High freq. dielectric constant tensor:
#      x y z
#    x 1.604670 0.000000 0.000000 
#    y 0.000000 1.617190 0.000000 
#    z 0.000000 0.000000 1.529620 
# 
# From -- ./inp_files/40419.got.cif
#   From: 2010.03.12/outbox.cif.g09.slc.cpg/sg64_21_cif.got.tgz:40419.got - 2010.04.10 20:19:32.
