data_PCOD8261786
_publ_section_title
;
Structure prediction by ZEFSAII (Michael W. Deem and Ramdas Pophale) SiO2 
 PCOD8261786
Probable space group: C M C A
;
_chemical_formula_sum "Si O2"
_cell_formula_units_Z 96
_cell_length_a 16.584799
_cell_length_b 19.569045
_cell_length_c 18.414080
_cell_angle_alpha 90.000000
_cell_angle_beta 90.000000
_cell_angle_gamma 90.000000
_cell_volume 5976.265320
_symmetry_space_group_name_H-M "C M C A"
_symmetry_group_IT_number 64
_symmetry_cell_setting 'orthorhombic'
loop_
_space_group_symop_operation_xyz
x,y,z
-x,1/2-y,1/2+z
x,-y,-z
-x,1/2+y,1/2-z
-x,-y,-z
x,1/2+y,1/2-z
-x,y,z
x,1/2-y,1/2+z
1/2+x,1/2+y,z
1/2-x,-y,1/2+z
1/2+x,1/2-y,-z
1/2-x,y,1/2-z
1/2-x,1/2-y,-z
1/2+x,y,1/2-z
1/2-x,1/2+y,z
1/2+x,-y,1/2+z
loop_
_atom_site_type_symbol
_atom_site_label
_atom_site_fract_x
_atom_site_fract_y
_atom_site_fract_z
Si Si1 0.592144 0.050900 0.853704
Si Si2 0.091679 0.246086 0.331043
Si Si3 0.591666 0.098517 0.122304
Si Si4 0.330115 0.678826 0.705707
Si Si5 0.234248 0.704263 0.570058
Si Si6 0.198679 0.926418 0.488179
O O1 0.500000 0.072368 0.853608
O O2 0.635886 0.102086 0.798801
O O3 0.624253 0.060833 0.934649
O O4 0.605312 0.971224 0.831187
O O5 0.104595 0.164366 0.326759
O O6 0.108801 0.273004 0.249863
O O7 0.148873 0.279696 0.392367
O O8 0.000000 0.264344 0.352825
O O9 0.500000 0.097740 0.090543
O O10 0.658586 0.105185 0.059911
O O11 0.250000 0.670072 0.750000
O O12 0.308502 0.712830 0.627528
O O13 0.250000 0.750000 0.500000
O O14 0.234476 0.625238 0.543725
O O15 0.241993 0.000000 0.500000
#
# Coordination Sequence:
#
# PCOD8261786 Si02
#       6
#    16  16  16  16  16  16
#     4   9  16  27  45  68  93 119 151 197 245 286
#     4  10  19  32  49  70  99 131 159 193 238 286
#     4   9  16  26  44  71  98 121 151 193 243 288
#     4   9  19  32  46  65  93 125 161 195 232 283
#     4  10  18  32  51  72  97 124 161 201 235 281
#     4   9  16  27  46  71  98 121 152 197 243 282
#
# _framework density 16.063544
#
# number of rings (size 3 to 8) (size 9 to 14) (size 15 to 20)
#    0.000    2.667    1.667    1.000    0.000    2.000 
#    0.000    3.333    3.667    0.500    0.000    0.000 
#    0.000    0.000    0.000    0.000    0.000    0.000 
#
# Total GULP energy -594831.013953 kJ/mol
# GULP energy per Si atom -12392.312791 kJ/mol
# Density = 1.602698 g / cm^3
# Si number density = 16.063544 Si / 1000 Ang^3
#
#
#
# Elastic Constant Matrix: (Units=GPa)
#
#
# Indices 1 2 3 4 5 6 
#
# 1 65.5183 48.0802 26.4630 0.0000 0.0000 0.0000
# 2 48.0802 128.8673 56.4872 0.0000 0.0000 0.0000
# 3 26.4630 56.4872 80.4669 0.0000 0.0000 0.0000
# 4 0.0000 0.0000 0.0000 29.6930 0.0000 0.0000
# 5 0.0000 0.0000 0.0000 0.0000 8.3718 0.0000
# 6 0.0000 0.0000 0.0000 0.0000 0.0000 24.9248
#
#
#
# Elastic Compliance Matrix: (Units=1/GPa)
#
#
# Indices 1 2 3 4 5 6 
#
# 1 0.021250 -0.007028 -0.002055 0.000000 0.000000 0.000000
# 2 -0.007028 0.013533 -0.007189 0.000000 0.000000 0.000000
# 3 -0.002055 -0.007189 0.018150 0.000000 0.000000 0.000000
# 4 0.000000 0.000000 0.000000 0.033678 0.000000 0.000000
# 5 0.000000 0.000000 0.000000 0.000000 0.119448 0.000000
# 6 0.000000 0.000000 0.000000 0.000000 0.000000 0.040121
#
#
# Mechanical properties :
#
#
# Convention : Reuss Voigt Hill
#
# Bulk Modulus (GPa) = 49.04430 59.65703 54.35067
# Shear Modulus (GPa) = 17.51189 22.18607 19.84898
#
# Velocity S-wave (km/s) = 3.30534 3.72041 3.51900
# Velocity P-wave (km/s) = 6.72047 7.46150 7.10066
#
# Compressibility (1/GPa) = 0.02038973
#
# Stress axis : x y z
#
# Youngs Moduli (GPa) = 47.05857 73.89304 55.09646
#
# Poissons Ratio (x) = 0.51928 0.11323
# Poissons Ratio (y) = 0.33070 0.39609
# Poissons Ratio (z) = 0.09672 0.53122
#
# Static dielectric constant tensor:
#      x y z
#    x 2.963770 0.000000 0.000000 
#    y 0.000000 3.360170 0.000000 
#    z 0.000000 0.000000 3.200190 
# 
# 
# High freq. dielectric constant tensor:
#      x y z
#    x 1.601750 0.000000 0.000000 
#    y 0.000000 1.629580 0.000000 
#    z 0.000000 0.000000 1.600360 
# 
# From -- ./inp_files/33256.got.cif
#   From: 2010.03.12/outbox.cif.g09.slc.cpg/sg64_17_cif.got.tgz:33256.got - 2010.04.10 20:19:32.
