data_PCOD8261674
_publ_section_title
;
Structure prediction by ZEFSAII (Michael W. Deem and Ramdas Pophale) SiO2 
 PCOD8261674
Probable space group: C M C A
;
_chemical_formula_sum "Si O2"
_cell_formula_units_Z 96
_cell_length_a 8.743386
_cell_length_b 19.416501
_cell_length_c 31.009446
_cell_angle_alpha 90.000000
_cell_angle_beta 90.000000
_cell_angle_gamma 90.000000
_cell_volume 5264.348463
_symmetry_space_group_name_H-M "C M C A"
_symmetry_group_IT_number 64
_symmetry_cell_setting 'orthorhombic'
loop_
_space_group_symop_operation_xyz
x,y,z
-x,1/2-y,1/2+z
x,-y,-z
-x,1/2+y,1/2-z
-x,-y,-z
x,1/2+y,1/2-z
-x,y,z
x,1/2-y,1/2+z
1/2+x,1/2+y,z
1/2-x,-y,1/2+z
1/2+x,1/2-y,-z
1/2-x,y,1/2-z
1/2-x,1/2-y,-z
1/2+x,y,1/2-z
1/2-x,1/2+y,z
1/2+x,-y,1/2+z
loop_
_atom_site_type_symbol
_atom_site_label
_atom_site_fract_x
_atom_site_fract_y
_atom_site_fract_z
Si Si1 0.821908 0.248762 0.132340
Si Si2 0.181356 0.855437 0.796714
Si Si3 0.820202 0.539426 0.141947
Si Si4 0.181580 0.604527 0.892028
Si Si5 0.677917 0.129966 0.430038
Si Si6 0.820190 0.077734 0.512037
O O1 0.754481 0.206620 0.173157
O O2 0.747842 0.324815 0.127712
O O3 0.791228 0.206349 0.088482
O O4 0.000000 0.257561 0.140812
O O5 0.250000 0.844901 0.750000
O O6 0.233731 0.927929 0.817219
O O7 0.000000 0.855574 0.794219
O O8 0.771928 0.459120 0.138675
O O9 0.774683 0.574875 0.097110
O O10 0.000000 0.547943 0.148959
O O11 0.244320 0.593554 0.940399
O O12 0.000000 0.609481 0.895342
O O13 0.500000 0.110762 0.425815
O O14 0.733390 0.128746 0.479260
O O15 0.000000 0.091277 0.508239
O O16 0.777581 0.000000 0.500000
#
# Coordination Sequence:
#
# PCOD8261674 Si02
#       6
#    16  16  16  16  16  16
#     4   8  17  33  51  73 102 135 168 206 257 308
#     4  10  20  36  58  81 103 129 164 204 250 308
#     4  10  18  32  55  78 101 132 170 209 252 299
#     4   9  17  31  51  73 102 138 173 212 257 303
#     4  10  19  31  48  72 103 138 175 215 256 298
#     4  10  18  30  48  73 100 136 184 222 254 298
#
# _framework density 18.235875
#
# number of rings (size 3 to 8) (size 9 to 14) (size 15 to 20)
#    0.000    2.500    1.667    2.500    0.000    1.000 
#    0.000    0.833    0.000   19.000    0.000    0.000 
#    0.000    0.000    0.000    0.000    0.000    0.000 
#
# Total GULP energy -595081.027329 kJ/mol
# GULP energy per Si atom -12397.521403 kJ/mol
# Density = 1.819437 g / cm^3
# Si number density = 18.235875 Si / 1000 Ang^3
#
#
#
# Elastic Constant Matrix: (Units=GPa)
#
#
# Indices 1 2 3 4 5 6 
#
# 1 45.7640 31.7126 28.5401 0.0000 0.0000 0.0000
# 2 31.7126 150.4737 71.4614 0.0000 0.0000 0.0000
# 3 28.5401 71.4614 134.4392 0.0000 0.0000 0.0000
# 4 0.0000 0.0000 0.0000 19.7588 0.0000 0.0000
# 5 0.0000 0.0000 0.0000 0.0000 28.4760 0.0000
# 6 0.0000 0.0000 0.0000 0.0000 0.0000 16.6471
#
#
#
# Elastic Compliance Matrix: (Units=1/GPa)
#
#
# Indices 1 2 3 4 5 6 
#
# 1 0.026829 -0.003945 -0.003598 0.000000 0.000000 0.000000
# 2 -0.003945 0.009470 -0.004196 0.000000 0.000000 0.000000
# 3 -0.003598 -0.004196 0.010433 0.000000 0.000000 0.000000
# 4 0.000000 0.000000 0.000000 0.050610 0.000000 0.000000
# 5 0.000000 0.000000 0.000000 0.000000 0.035117 0.000000
# 6 0.000000 0.000000 0.000000 0.000000 0.000000 0.060070
#
#
# Mechanical properties :
#
#
# Convention : Reuss Voigt Hill
#
# Bulk Modulus (GPa) = 43.00713 66.01169 54.50941
# Shear Modulus (GPa) = 22.34529 26.24059 24.29294
#
# Velocity S-wave (km/s) = 3.50429 3.79747 3.65382
# Velocity P-wave (km/s) = 6.32522 7.45017 6.91063
#
# Compressibility (1/GPa) = 0.02325196
#
# Stress axis : x y z
#
# Youngs Moduli (GPa) = 37.27264 105.59649 95.85225
#
# Poissons Ratio (x) = 0.41662 0.34492
# Poissons Ratio (y) = 0.14706 0.40222
# Poissons Ratio (z) = 0.13412 0.44311
#
# Static dielectric constant tensor:
#      x y z
#    x 3.095860 0.000000 0.000000 
#    y 0.000000 3.654580 0.000000 
#    z 0.000000 0.000000 3.409350 
# 
# 
# High freq. dielectric constant tensor:
#      x y z
#    x 1.682400 0.000000 0.000000 
#    y 0.000000 1.706170 0.000000 
#    z 0.000000 0.000000 1.698170 
# 
# From -- ./inp_files/48159.got.cif
#   From: 2010.03.12/outbox.cif.g09.slc.cpg/sg64_25_cif.got.tgz:48159.got - 2010.04.10 20:19:32.
