data_PCOD8261283
_publ_section_title
;
Structure prediction by ZEFSAII (Michael W. Deem and Ramdas Pophale) SiO2 
 PCOD8261283
Probable space group: C M C M
;
_chemical_formula_sum "Si O2"
_cell_formula_units_Z 96
_cell_length_a 29.782735
_cell_length_b 20.537687
_cell_length_c 9.899532
_cell_angle_alpha 90.000000
_cell_angle_beta 90.000000
_cell_angle_gamma 90.000000
_cell_volume 6055.231785
_symmetry_space_group_name_H-M "C M C M"
_symmetry_group_IT_number 63
_symmetry_cell_setting 'orthorhombic'
loop_
_space_group_symop_operation_xyz
x,y,z
-x,-y,1/2+z
x,-y,-z
-x,y,1/2-z
-x,-y,-z
x,y,1/2-z
-x,y,z
x,-y,1/2+z
1/2+x,1/2+y,z
1/2-x,1/2-y,1/2+z
1/2+x,1/2-y,-z
1/2-x,1/2+y,1/2-z
1/2-x,1/2-y,-z
1/2+x,1/2+y,1/2-z
1/2-x,1/2+y,z
1/2+x,1/2-y,1/2+z
loop_
_atom_site_type_symbol
_atom_site_label
_atom_site_fract_x
_atom_site_fract_y
_atom_site_fract_z
Si Si1 0.946668 0.946201 0.399853
Si Si2 0.116055 0.554141 0.099439
Si Si3 0.050015 0.802039 0.411042
Si Si4 0.722794 0.054294 0.399203
Si Si5 0.880666 0.302700 0.910503
Si Si6 0.221151 0.298197 0.909707
O O1 0.926525 0.957525 0.250000
O O2 0.000000 0.952647 0.392852
O O3 0.925690 0.000000 0.500000
O O4 0.934207 0.874329 0.454986
O O5 0.096321 0.543150 0.250000
O O6 0.169434 0.548862 0.105021
O O7 0.103357 0.625577 0.041951
O O8 0.095195 0.500000 0.000000
O O9 0.049102 0.798832 0.250000
O O10 0.085117 0.750276 0.472594
O O11 0.000000 0.786733 0.467026
O O12 0.742110 0.039543 0.250000
O O13 0.736223 0.127624 0.442799
O O14 0.743336 0.000000 0.500000
O O15 0.881610 0.301984 0.750000
O O16 0.830165 0.287260 0.957337
O O17 0.227117 0.283571 0.750000
O O18 0.250000 0.250000 0.000000
#
# Coordination Sequence:
#
# PCOD8261283 Si02
#       6
#    16  16  16  16  16  16
#     4   8  13  21  35  56  78  98 124 160 196 227
#     4   8  13  22  37  56  77 100 127 161 197 229
#     4   8  13  22  39  62  82 101 131 167 196 228
#     4   8  14  24  38  57  78  99 128 166 201 232
#     4   8  14  25  40  58  81 107 133 163 199 235
#     4   9  17  28  42  61  84 108 134 165 201 241
#
# _framework density 15.854058999999999
#
# number of rings (size 3 to 8) (size 9 to 14) (size 15 to 20)
#    0.000    3.833    0.000    3.000    0.000    0.667 
#    0.000    2.500    0.000    3.500    0.000    4.667 
#    0.000    0.000    0.000    0.000    0.000    0.000 
#
# Total GULP energy -594716.249994 kJ/mol
# GULP energy per Si atom -12389.921875 kJ/mol
# Density = 1.581797 g / cm^3
# Si number density = 15.854059 Si / 1000 Ang^3
#
#
#
# Elastic Constant Matrix: (Units=GPa)
#
#
# Indices 1 2 3 4 5 6 
#
# 1 44.5637 54.9953 25.5954 0.0000 0.0000 0.0000
# 2 54.9953 164.2439 68.0331 0.0000 0.0000 0.0000
# 3 25.5954 68.0331 61.3088 0.0000 0.0000 0.0000
# 4 0.0000 0.0000 0.0000 29.3222 0.0000 0.0000
# 5 0.0000 0.0000 0.0000 0.0000 8.0321 0.0000
# 6 0.0000 0.0000 0.0000 0.0000 0.0000 23.4229
#
#
#
# Elastic Compliance Matrix: (Units=1/GPa)
#
#
# Indices 1 2 3 4 5 6 
#
# 1 0.038595 -0.011565 -0.003280 0.000000 0.000000 0.000000
# 2 -0.011565 0.014733 -0.011521 0.000000 0.000000 0.000000
# 3 -0.003280 -0.011521 0.030465 0.000000 0.000000 0.000000
# 4 0.000000 0.000000 0.000000 0.034104 0.000000 0.000000
# 5 0.000000 0.000000 0.000000 0.000000 0.124500 0.000000
# 6 0.000000 0.000000 0.000000 0.000000 0.000000 0.042693
#
#
# Mechanical properties :
#
#
# Convention : Reuss Voigt Hill
#
# Bulk Modulus (GPa) = 32.19341 63.04045 47.61693
# Shear Modulus (GPa) = 14.36061 20.25495 17.30778
#
# Velocity S-wave (km/s) = 3.01292 3.57821 3.30766
# Velocity P-wave (km/s) = 5.69682 7.54459 6.68485
#
# Compressibility (1/GPa) = 0.03106226
#
# Stress axis : x y z
#
# Youngs Moduli (GPa) = 25.90985 67.87493 32.82502
#
# Poissons Ratio (x) = 0.78495 0.10766
# Poissons Ratio (y) = 0.29964 0.37817
# Poissons Ratio (z) = 0.08498 0.78198
#
# Static dielectric constant tensor:
#      x y z
#    x 2.718140 0.000000 0.000000 
#    y 0.000000 3.417110 0.000000 
#    z 0.000000 0.000000 2.996500 
# 
# 
# High freq. dielectric constant tensor:
#      x y z
#    x 1.554490 0.000000 0.000000 
#    y 0.000000 1.623440 0.000000 
#    z 0.000000 0.000000 1.577600 
# 
# From -- ./inp_files/23936.got.cif
#   From: 2010.03.12/outbox.cif.g09.slc.cpg/sg63_12_cif.got.tgz:23936.got - 2010.04.10 19:34:48.
