data_PCOD8261098
_publ_section_title
;
Structure prediction by ZEFSAII (Michael W. Deem and Ramdas Pophale) SiO2 
 PCOD8261098
Probable space group: C M C M
;
_chemical_formula_sum "Si O2"
_cell_formula_units_Z 96
_cell_length_a 12.032995
_cell_length_b 15.178005
_cell_length_c 28.281050
_cell_angle_alpha 90.000000
_cell_angle_beta 90.000000
_cell_angle_gamma 90.000000
_cell_volume 5165.162121
_symmetry_space_group_name_H-M "C M C M"
_symmetry_group_IT_number 63
_symmetry_cell_setting 'orthorhombic'
loop_
_space_group_symop_operation_xyz
x,y,z
-x,-y,1/2+z
x,-y,-z
-x,y,1/2-z
-x,-y,-z
x,y,1/2-z
-x,y,z
x,-y,1/2+z
1/2+x,1/2+y,z
1/2-x,1/2-y,1/2+z
1/2+x,1/2-y,-z
1/2-x,1/2+y,1/2-z
1/2-x,1/2-y,-z
1/2+x,1/2+y,1/2-z
1/2-x,1/2+y,z
1/2+x,1/2-y,1/2+z
loop_
_atom_site_type_symbol
_atom_site_label
_atom_site_fract_x
_atom_site_fract_y
_atom_site_fract_z
Si Si1 0.632043 0.899659 0.945247
Si Si2 0.500000 0.757452 0.802045
Si Si3 0.500000 0.448262 0.301704
Si Si4 0.131614 0.676794 0.646355
Si Si5 0.260175 0.482809 0.306489
Si Si6 0.869825 0.597580 0.549147
Si Si7 0.788068 0.667768 0.350616
O O1 0.500000 0.890628 0.936350
O O2 0.698929 0.843054 0.906924
O O3 0.675747 0.999985 0.939788
O O4 0.668806 0.866366 0.997737
O O5 0.500000 0.802788 0.750000
O O6 0.500000 0.654735 0.795167
O O7 0.607121 0.781200 0.831438
O O8 0.500000 0.493599 0.250000
O O9 0.385843 0.476361 0.327903
O O10 0.183799 0.597672 0.676476
O O11 0.163570 0.663217 0.591171
O O12 0.180229 0.772204 0.660863
O O13 0.000000 0.677279 0.655288
O O14 0.261462 0.478860 0.250000
O O15 0.212303 0.574716 0.324257
O O16 0.000000 0.584979 0.545732
#
# Coordination Sequence:
#
# PCOD8261098 Si02
#       7
#    16   8   8  16  16  16  16
#     4   9  16  31  58  87 111 147 198 242 283 340
#     4  11  22  38  58  84 115 147 201 253 278 326
#     4   9  20  42  62  77 108 154 196 236 287 341
#     4  11  24  40  58  88 123 154 190 239 295 352
#     4  11  24  41  61  84 114 155 195 237 288 344
#     4   8  16  33  55  82 117 149 188 241 290 339
#     4  12  23  36  61  90 116 153 195 240 292 344
#
# _framework density 18.586057
#
# number of rings (size 3 to 8) (size 9 to 14) (size 15 to 20)
#    0.000    1.833    4.167    1.500    2.333    1.667 
#    0.000    0.000    0.000    0.000    0.000    2.333 
#    0.000    0.000    0.000    0.000    0.000    0.000 
#
# Total GULP energy -594901.067568 kJ/mol
# GULP energy per Si atom -12393.772241 kJ/mol
# Density = 1.854375 g / cm^3
# Si number density = 18.586057 Si / 1000 Ang^3
#
#
#
# Elastic Constant Matrix: (Units=GPa)
#
#
# Indices 1 2 3 4 5 6 
#
# 1 83.7012 17.6466 22.7906 0.0000 0.0000 0.0000
# 2 17.6466 70.2054 20.6653 0.0000 0.0000 0.0000
# 3 22.7906 20.6653 88.7919 0.0000 0.0000 0.0000
# 4 0.0000 0.0000 0.0000 17.2942 0.0000 0.0000
# 5 0.0000 0.0000 0.0000 0.0000 21.8589 0.0000
# 6 0.0000 0.0000 0.0000 0.0000 0.0000 -7.7901
#
#
#
# Elastic Compliance Matrix: (Units=1/GPa)
#
#
# Indices 1 2 3 4 5 6 
#
# 1 0.013241 -0.002499 -0.002817 0.000000 0.000000 0.000000
# 2 -0.002499 0.015763 -0.003027 0.000000 0.000000 0.000000
# 3 -0.002817 -0.003027 0.012690 0.000000 0.000000 0.000000
# 4 0.000000 0.000000 0.000000 0.057823 0.000000 0.000000
# 5 0.000000 0.000000 0.000000 0.000000 0.045748 0.000000
# 6 0.000000 0.000000 0.000000 0.000000 0.000000 -0.128369
#
#
# Mechanical properties :
#
#
# Convention : Reuss Voigt Hill
#
# Bulk Modulus (GPa) = 39.98794 40.54484 40.26639
# Shear Modulus (GPa) = 119.27795 18.37901 68.82848
#
# Velocity S-wave (km/s) = 8.01969 3.14803 6.09202
# Velocity P-wave (km/s) = 10.35932 5.92245 8.43774
#
# Compressibility (1/GPa) = 0.02500754
#
# Stress axis : x y z
#
# Youngs Moduli (GPa) = 75.52206 63.43905 78.80276
#
# Poissons Ratio (x) = 0.15854 0.22199
# Poissons Ratio (y) = 0.18873 0.23856
# Poissons Ratio (z) = 0.21275 0.19205
#
# Static dielectric constant tensor:
#      x y z
#    x 3.321450 0.000000 0.000000 
#    y 0.000000 3.313570 0.000000 
#    z 0.000000 0.000000 3.780200 
# 
# 
# High freq. dielectric constant tensor:
#      x y z
#    x 1.704680 0.000000 0.000000 
#    y 0.000000 1.714490 0.000000 
#    z 0.000000 0.000000 1.727180 
# 
# From -- ./inp_files/72810.got.cif
#   From: 2010.03.12/outbox.cif.g09.slc.cpg/sg63_37_cif.got.tgz:72810.got - 2010.04.10 19:34:48.
