data_PCOD8261816
_publ_section_title
;
Structure prediction by ZEFSAII (Michael W. Deem and Ramdas Pophale) SiO2 
 PCOD8261816
Probable space group: C M C A
;
_chemical_formula_sum "Si O2"
_cell_formula_units_Z 112
_cell_length_a 19.270140
_cell_length_b 19.131129
_cell_length_c 17.091601
_cell_angle_alpha 90.000000
_cell_angle_beta 90.000000
_cell_angle_gamma 90.000000
_cell_volume 6300.981663
_symmetry_space_group_name_H-M "C M C A"
_symmetry_group_IT_number 64
_symmetry_cell_setting 'orthorhombic'
loop_
_space_group_symop_operation_xyz
x,y,z
-x,1/2-y,1/2+z
x,-y,-z
-x,1/2+y,1/2-z
-x,-y,-z
x,1/2+y,1/2-z
-x,y,z
x,1/2-y,1/2+z
1/2+x,1/2+y,z
1/2-x,-y,1/2+z
1/2+x,1/2-y,-z
1/2-x,y,1/2-z
1/2-x,1/2-y,-z
1/2+x,y,1/2-z
1/2-x,1/2+y,z
1/2+x,-y,1/2+z
loop_
_atom_site_type_symbol
_atom_site_label
_atom_site_fract_x
_atom_site_fract_y
_atom_site_fract_z
Si Si1 0.688604 0.357719 0.199390
Si Si2 0.579078 0.653070 0.603899
Si Si3 0.418874 0.049643 0.761830
Si Si4 0.661930 0.767892 0.688220
Si Si5 0.077972 0.824787 0.569891
Si Si6 0.920839 0.890688 0.732740
Si Si7 0.216776 0.244846 0.915903
O O1 0.750000 0.393724 0.250000
O O2 0.622952 0.409016 0.194253
O O3 0.669034 0.282293 0.236988
O O4 0.715503 0.336888 0.112552
O O5 0.500000 0.669525 0.624289
O O6 0.602847 0.586042 0.655535
O O7 0.619410 0.724493 0.623125
O O8 0.589777 0.634862 0.512362
O O9 0.500000 0.057230 0.744956
O O10 0.394844 0.969805 0.756602
O O11 0.625359 0.839288 0.714668
O O12 0.735657 0.787729 0.647217
O O13 0.085024 0.879534 0.639941
O O14 0.136729 0.767200 0.582024
O O15 0.000000 0.790841 0.570993
O O16 0.000000 0.881171 0.760889
O O17 0.250000 0.250000 0.000000
#
# Coordination Sequence:
#
# PCOD8261816 Si02
#       7
#    16  16  16  16  16  16  16
#     4   9  19  34  52  78 104 136 178 219 266 318
#     4   9  17  31  52  78 107 142 177 216 271 322
#     4   9  19  35  55  78 108 146 181 218 268 325
#     4  10  18  32  55  77 108 138 172 227 271 316
#     4  10  20  33  51  79 109 137 179 224 269 319
#     4  10  20  34  54  82 110 140 181 223 264 320
#     4  11  20  34  55  79 107 138 177 225 273 318
#
# _framework density 17.775009000000001
#
# number of rings (size 3 to 8) (size 9 to 14) (size 15 to 20)
#    0.000    2.286    2.857    0.429    0.000    1.714 
#    2.571    2.857    0.000    0.857    0.000    2.000 
#    0.000    0.000    0.000    0.000    0.000    0.000 
#
# Total GULP energy -693890.416281 kJ/mol
# GULP energy per Si atom -12390.900291 kJ/mol
# Density = 1.773455 g / cm^3
# Si number density = 17.775009 Si / 1000 Ang^3
#
#
#
# Elastic Constant Matrix: (Units=GPa)
#
#
# Indices 1 2 3 4 5 6 
#
# 1 99.2395 57.6053 36.4321 0.0000 0.0000 0.0000
# 2 57.6053 108.0113 46.5141 0.0000 0.0000 0.0000
# 3 36.4321 46.5141 87.7195 0.0000 0.0000 0.0000
# 4 0.0000 0.0000 0.0000 16.3610 0.0000 0.0000
# 5 0.0000 0.0000 0.0000 0.0000 29.3405 0.0000
# 6 0.0000 0.0000 0.0000 0.0000 0.0000 27.6096
#
#
#
# Elastic Compliance Matrix: (Units=1/GPa)
#
#
# Indices 1 2 3 4 5 6 
#
# 1 0.015033 -0.006906 -0.002582 0.000000 0.000000 0.000000
# 2 -0.006906 0.015170 -0.005176 0.000000 0.000000 0.000000
# 3 -0.002582 -0.005176 0.015217 0.000000 0.000000 0.000000
# 4 0.000000 0.000000 0.000000 0.061121 0.000000 0.000000
# 5 0.000000 0.000000 0.000000 0.000000 0.034083 0.000000
# 6 0.000000 0.000000 0.000000 0.000000 0.000000 0.036219
#
#
# Mechanical properties :
#
#
# Convention : Reuss Voigt Hill
#
# Bulk Modulus (GPa) = 62.13839 64.00816 63.07328
# Shear Modulus (GPa) = 23.63683 24.95680 24.29681
#
# Velocity S-wave (km/s) = 3.65057 3.75112 3.70118
# Velocity P-wave (km/s) = 7.26657 7.40605 7.33664
#
# Compressibility (1/GPa) = 0.01609311
#
# Stress axis : x y z
#
# Youngs Moduli (GPa) = 66.52060 65.91831 65.71630
#
# Poissons Ratio (x) = 0.45521 0.16966
# Poissons Ratio (y) = 0.45937 0.34015
# Poissons Ratio (z) = 0.17174 0.34120
#
# Static dielectric constant tensor:
#      x y z
#    x 3.607970 0.000000 0.000000 
#    y 0.000000 3.015410 0.000000 
#    z 0.000000 0.000000 3.385730 
# 
# 
# High freq. dielectric constant tensor:
#      x y z
#    x 1.707420 0.000000 0.000000 
#    y 0.000000 1.646530 0.000000 
#    z 0.000000 0.000000 1.680610 
# 
# From -- ./inp_files/34516.got.cif
#   From: 2010.03.12/outbox.cif.g09.slc.cpg/sg64_18_cif.got.tgz:34516.got - 2010.04.10 20:19:32.
