data_PCOD8261843
_publ_section_title
;
Structure prediction by ZEFSAII (Michael W. Deem and Ramdas Pophale) SiO2 
 PCOD8261843
Probable space group: C M C A
;
_chemical_formula_sum "Si O2"
_cell_formula_units_Z 112
_cell_length_a 15.903057
_cell_length_b 22.416745
_cell_length_c 17.426775
_cell_angle_alpha 90.000000
_cell_angle_beta 90.000000
_cell_angle_gamma 90.000000
_cell_volume 6212.554206
_symmetry_space_group_name_H-M "C M C A"
_symmetry_group_IT_number 64
_symmetry_cell_setting 'orthorhombic'
loop_
_space_group_symop_operation_xyz
x,y,z
-x,1/2-y,1/2+z
x,-y,-z
-x,1/2+y,1/2-z
-x,-y,-z
x,1/2+y,1/2-z
-x,y,z
x,1/2-y,1/2+z
1/2+x,1/2+y,z
1/2-x,-y,1/2+z
1/2+x,1/2-y,-z
1/2-x,y,1/2-z
1/2-x,1/2-y,-z
1/2+x,y,1/2-z
1/2-x,1/2+y,z
1/2+x,-y,1/2+z
loop_
_atom_site_type_symbol
_atom_site_label
_atom_site_fract_x
_atom_site_fract_y
_atom_site_fract_z
Si Si1 0.841036 0.525485 0.278924
Si Si2 0.906618 0.853833 0.734923
Si Si3 0.249328 0.032332 0.424201
Si Si4 0.902540 0.463675 0.141746
Si Si5 0.812624 0.160993 0.418668
Si Si6 0.901308 0.332840 0.079281
Si Si7 0.300031 0.741802 0.177823
O O1 0.750000 0.548594 0.250000
O O2 0.906297 0.578959 0.267016
O O3 0.823913 0.510169 0.367411
O O4 0.876493 0.467960 0.232182
O O5 0.880626 0.854410 0.646094
O O6 0.846882 0.815243 0.788202
O O7 0.000000 0.827819 0.740816
O O8 0.247870 0.103931 0.432530
O O9 0.278795 0.000000 0.500000
O O10 0.154758 0.011858 0.402022
O O11 0.881848 0.399087 0.108749
O O12 0.000000 0.480320 0.129015
O O13 0.859157 0.178357 0.497148
O O14 0.759669 0.218396 0.390742
O O15 0.864047 0.289273 0.143392
O O16 0.000000 0.320598 0.072306
O O17 0.250000 0.771393 0.250000
#
# Coordination Sequence:
#
# PCOD8261843 Si02
#       7
#    16  16  16  16  16  16  16
#     4  10  18  33  52  78 110 141 183 219 263 334
#     4  11  19  32  57  83 107 140 183 236 277 314
#     4  11  20  34  54  83 114 141 180 226 276 331
#     4  10  21  33  54  84 114 144 174 218 280 334
#     4  11  20  36  55  86 110 143 186 234 277 329
#     4  11  23  38  55  83 118 149 181 228 284 333
#     4  10  22  39  58  79 109 147 197 226 265 329
#
# _framework density 18.028010999999999
#
# number of rings (size 3 to 8) (size 9 to 14) (size 15 to 20)
#    0.000    1.429    5.714    2.143    0.000    2.571 
#    0.000    0.000    0.000    1.714    0.000    0.000 
#    0.000    0.000    0.000    0.000    0.000    0.000 
#
# Total GULP energy -694278.671600 kJ/mol
# GULP energy per Si atom -12397.833421 kJ/mol
# Density = 1.798698 g / cm^3
# Si number density = 18.028011 Si / 1000 Ang^3
#
#
#
# Elastic Constant Matrix: (Units=GPa)
#
#
# Indices 1 2 3 4 5 6 
#
# 1 56.1792 15.2643 31.7968 0.0000 0.0000 0.0000
# 2 15.2643 53.7392 29.5197 0.0000 0.0000 0.0000
# 3 31.7968 29.5197 123.1839 0.0000 0.0000 0.0000
# 4 0.0000 0.0000 0.0000 24.6123 0.0000 0.0000
# 5 0.0000 0.0000 0.0000 0.0000 22.8577 0.0000
# 6 0.0000 0.0000 0.0000 0.0000 0.0000 23.1555
#
#
#
# Elastic Compliance Matrix: (Units=1/GPa)
#
#
# Indices 1 2 3 4 5 6 
#
# 1 0.021404 -0.003506 -0.004685 0.000000 0.000000 0.000000
# 2 -0.003506 0.022004 -0.004368 0.000000 0.000000 0.000000
# 3 -0.004685 -0.004368 0.010374 0.000000 0.000000 0.000000
# 4 0.000000 0.000000 0.000000 0.040630 0.000000 0.000000
# 5 0.000000 0.000000 0.000000 0.000000 0.043749 0.000000
# 6 0.000000 0.000000 0.000000 0.000000 0.000000 0.043186
#
#
# Mechanical properties :
#
#
# Convention : Reuss Voigt Hill
#
# Bulk Modulus (GPa) = 34.88699 42.91822 38.90261
# Shear Modulus (GPa) = 23.14601 24.55986 23.85293
#
# Velocity S-wave (km/s) = 3.58703 3.69496 3.64140
# Velocity P-wave (km/s) = 6.04560 6.48550 6.26941
#
# Compressibility (1/GPa) = 0.02866398
#
# Stress axis : x y z
#
# Youngs Moduli (GPa) = 46.71931 45.44694 96.39573
#
# Poissons Ratio (x) = 0.15936 0.45159
# Poissons Ratio (y) = 0.16382 0.42104
# Poissons Ratio (z) = 0.21887 0.19851
#
# Static dielectric constant tensor:
#      x y z
#    x 3.260130 0.000000 0.000000 
#    y 0.000000 3.160010 0.000000 
#    z 0.000000 0.000000 3.633620 
# 
# 
# High freq. dielectric constant tensor:
#      x y z
#    x 1.689640 0.000000 0.000000 
#    y 0.000000 1.682980 0.000000 
#    z 0.000000 0.000000 1.705960 
# 
# From -- ./inp_files/33604.got.cif
#   From: 2010.03.12/outbox.cif.g09.slc.cpg/sg64_17_cif.got.tgz:33604.got - 2010.04.10 20:19:32.
