data_PCOD8261535
_publ_section_title
;
Structure prediction by ZEFSAII (Michael W. Deem and Ramdas Pophale) SiO2 
 PCOD8261535
Probable space group: C M C A
;
_chemical_formula_sum "Si O2"
_cell_formula_units_Z 128
_cell_length_a 23.938559
_cell_length_b 22.290028
_cell_length_c 12.176127
_cell_angle_alpha 90.000000
_cell_angle_beta 90.000000
_cell_angle_gamma 90.000000
_cell_volume 6497.073613
_symmetry_space_group_name_H-M "C M C A"
_symmetry_group_IT_number 64
_symmetry_cell_setting 'orthorhombic'
loop_
_space_group_symop_operation_xyz
x,y,z
-x,1/2-y,1/2+z
x,-y,-z
-x,1/2+y,1/2-z
-x,-y,-z
x,1/2+y,1/2-z
-x,y,z
x,1/2-y,1/2+z
1/2+x,1/2+y,z
1/2-x,-y,1/2+z
1/2+x,1/2-y,-z
1/2-x,y,1/2-z
1/2-x,1/2-y,-z
1/2+x,y,1/2-z
1/2-x,1/2+y,z
1/2+x,-y,1/2+z
loop_
_atom_site_type_symbol
_atom_site_label
_atom_site_fract_x
_atom_site_fract_y
_atom_site_fract_z
Si Si1 0.191245 0.801437 0.291237
Si Si2 0.346397 0.328415 0.522267
Si Si3 0.142173 0.043742 0.407819
Si Si4 0.434312 0.589724 0.975878
Si Si5 0.880816 0.489055 0.654212
Si Si6 0.276098 0.681313 0.100026
Si Si7 0.765661 0.951697 0.865555
Si Si8 0.633776 0.702129 0.928009
O O1 0.250000 0.829645 0.250000
O O2 0.168437 0.839254 0.394550
O O3 0.199974 0.731192 0.318482
O O4 0.142539 0.806017 0.201446
O O5 0.376860 0.387434 0.571258
O O6 0.289781 0.310077 0.585446
O O7 0.385700 0.270002 0.540337
O O8 0.123775 0.023458 0.285521
O O9 0.209198 0.044373 0.436496
O O10 0.114944 0.000000 0.500000
O O11 0.500000 0.587524 0.961977
O O12 0.407289 0.553600 0.872846
O O13 0.414263 0.658194 0.971491
O O14 0.418144 0.561401 0.093845
O O15 0.819424 0.489543 0.595534
O O16 0.288001 0.616258 0.151508
O O17 0.306567 0.686504 0.983111
O O18 0.750000 0.980246 0.750000
#
# Coordination Sequence:
#
# PCOD8261535 Si02
#       8
#    16  16  16  16  16  16  16  16
#     4  11  18  29  51  86 126 169 204 237 295 368
#     4  10  21  33  54  87 135 170 205 232 291 391
#     4  10  23  36  55  95 139 171 196 231 303 397
#     4  11  25  44  68  91 112 150 224 290 322 348
#     4  10  21  40  66  86 117 167 209 259 315 363
#     4  10  17  31  49  83 127 163 202 235 285 371
#     4   9  18  31  52  84 126 169 194 235 284 367
#     4  11  21  33  57  89 119 160 202 264 315 355
#
# _framework density 19.701177999999999
#
# number of rings (size 3 to 8) (size 9 to 14) (size 15 to 20)
#    0.000    1.750    3.750    1.875    7.000    0.000 
#    0.000    0.000    0.000    9.000    0.000    0.000 
#    0.000    0.000    0.000    0.000    0.000    0.000 
#
# Total GULP energy -793119.162139 kJ/mol
# GULP energy per Si atom -12392.486908 kJ/mol
# Density = 1.965634 g / cm^3
# Si number density = 19.701178 Si / 1000 Ang^3
#
#
#
# Elastic Constant Matrix: (Units=GPa)
#
#
# Indices 1 2 3 4 5 6 
#
# 1 52.8690 45.2751 13.6247 0.0000 0.0000 0.0000
# 2 45.2751 120.6542 42.7930 0.0000 0.0000 0.0000
# 3 13.6247 42.7930 116.2577 0.0000 0.0000 0.0000
# 4 0.0000 0.0000 0.0000 23.8778 0.0000 0.0000
# 5 0.0000 0.0000 0.0000 0.0000 15.6929 0.0000
# 6 0.0000 0.0000 0.0000 0.0000 0.0000 12.8454
#
#
#
# Elastic Compliance Matrix: (Units=1/GPa)
#
#
# Indices 1 2 3 4 5 6 
#
# 1 0.027917 -0.010714 0.000672 0.000000 0.000000 0.000000
# 2 -0.010714 0.013645 -0.003767 0.000000 0.000000 0.000000
# 3 0.000672 -0.003767 0.009909 0.000000 0.000000 0.000000
# 4 0.000000 0.000000 0.000000 0.041880 0.000000 0.000000
# 5 0.000000 0.000000 0.000000 0.000000 0.063723 0.000000
# 6 0.000000 0.000000 0.000000 0.000000 0.000000 0.077849
#
#
# Mechanical properties :
#
#
# Convention : Reuss Voigt Hill
#
# Bulk Modulus (GPa) = 41.92347 54.79629 48.35988
# Shear Modulus (GPa) = 18.48493 23.02242 20.75368
#
# Velocity S-wave (km/s) = 3.06643 3.42216 3.24917
# Velocity P-wave (km/s) = 5.81921 6.59462 6.21901
#
# Compressibility (1/GPa) = 0.02385299
#
# Stress axis : x y z
#
# Youngs Moduli (GPa) = 35.82109 73.28959 100.91505
#
# Poissons Ratio (x) = 0.78522 -0.06782
# Poissons Ratio (y) = 0.38379 0.38012
# Poissons Ratio (z) = -0.02407 0.27606
#
# Static dielectric constant tensor:
#      x y z
#    x 3.138130 0.000000 0.000000 
#    y 0.000000 3.696450 0.000000 
#    z 0.000000 0.000000 3.617050 
# 
# 
# High freq. dielectric constant tensor:
#      x y z
#    x 1.702430 0.000000 0.000000 
#    y 0.000000 1.771790 0.000000 
#    z 0.000000 0.000000 1.777820 
# 
# From -- ./inp_files/18667.got.cif
#   From: 2010.03.12/outbox.cif.g09.slc.cpg/sg64_10_cif.got.tgz:18667.got - 2010.04.10 20:19:32.
