data_PCOD8261666
_publ_section_title
;
Structure prediction by ZEFSAII (Michael W. Deem and Ramdas Pophale) SiO2 
 PCOD8261666
Probable space group: C M C A
;
_chemical_formula_sum "Si O2"
_cell_formula_units_Z 104
_cell_length_a 18.111697
_cell_length_b 9.139576
_cell_length_c 29.302010
_cell_angle_alpha 90.000000
_cell_angle_beta 90.000000
_cell_angle_gamma 90.000000
_cell_volume 4850.456397
_symmetry_space_group_name_H-M "C M C A"
_symmetry_group_IT_number 64
_symmetry_cell_setting 'orthorhombic'
loop_
_space_group_symop_operation_xyz
x,y,z
-x,1/2-y,1/2+z
x,-y,-z
-x,1/2+y,1/2-z
-x,-y,-z
x,1/2+y,1/2-z
-x,y,z
x,1/2-y,1/2+z
1/2+x,1/2+y,z
1/2-x,-y,1/2+z
1/2+x,1/2-y,-z
1/2-x,y,1/2-z
1/2-x,1/2-y,-z
1/2+x,y,1/2-z
1/2-x,1/2+y,z
1/2+x,-y,1/2+z
loop_
_atom_site_type_symbol
_atom_site_label
_atom_site_fract_x
_atom_site_fract_y
_atom_site_fract_z
Si Si1 0.583097 0.442153 0.295743
Si Si2 0.864461 0.500000 0.500000
Si Si3 0.860343 0.190481 0.922898
Si Si4 0.133710 0.493871 0.109360
Si Si5 0.798498 0.028090 0.142180
Si Si6 0.169799 0.660121 0.264484
Si Si7 0.696681 0.757335 0.564885
O O1 0.500000 0.448373 0.276255
O O2 0.577046 0.450874 0.350925
O O3 0.619214 0.291601 0.280481
O O4 0.629871 0.579039 0.277184
O O5 0.908038 0.599713 0.538150
O O6 0.817139 0.615789 0.471196
O O7 0.891873 0.350527 0.911944
O O8 0.778892 0.200792 0.945384
O O9 0.853688 0.098551 0.876215
O O10 0.213259 0.488990 0.134122
O O11 0.138358 0.378796 0.066651
O O12 0.818181 0.043150 0.195045
O O13 0.811571 0.179746 0.116089
O O14 0.250000 0.721690 0.250000
#
# Coordination Sequence:
#
# PCOD8261666 Si02
#       7
#    16   8  16  16  16  16  16
#     4  12  27  42  59  92 132 161 205 264 316 360
#     4  10  18  30  46  84 121 154 189 248 324 360
#     4   9  19  29  52  81 120 154 194 249 306 368
#     4  10  19  34  55  81 116 161 204 245 298 361
#     4   9  18  34  53  84 113 156 205 250 288 359
#     4  12  24  40  67  91 120 168 218 253 304 369
#     4   9  17  30  49  77 121 157 196 246 302 369
#
# _framework density 21.441282999999999
#
# number of rings (size 3 to 8) (size 9 to 14) (size 15 to 20)
#    0.000    1.846    3.077    2.308    2.154    0.615 
#    0.000    0.000    0.000    0.000    0.000    3.231 
#    0.000    0.000    0.000    0.000    0.000    0.000 
#
# Total GULP energy -644274.752232 kJ/mol
# GULP energy per Si atom -12389.899081 kJ/mol
# Density = 2.139248 g / cm^3
# Si number density = 21.441283 Si / 1000 Ang^3
#
#
#
# Elastic Constant Matrix: (Units=GPa)
#
#
# Indices 1 2 3 4 5 6 
#
# 1 69.2280 21.6723 13.4293 0.0000 0.0000 0.0000
# 2 21.6723 132.4531 38.7788 0.0000 0.0000 0.0000
# 3 13.4293 38.7788 92.5456 0.0000 0.0000 0.0000
# 4 0.0000 0.0000 0.0000 39.0444 0.0000 0.0000
# 5 0.0000 0.0000 0.0000 0.0000 3.8295 0.0000
# 6 0.0000 0.0000 0.0000 0.0000 0.0000 7.3468
#
#
#
# Elastic Compliance Matrix: (Units=1/GPa)
#
#
# Indices 1 2 3 4 5 6 
#
# 1 0.015370 -0.002122 -0.001341 0.000000 0.000000 0.000000
# 2 -0.002122 0.008899 -0.003421 0.000000 0.000000 0.000000
# 3 -0.001341 -0.003421 0.012433 0.000000 0.000000 0.000000
# 4 0.000000 0.000000 0.000000 0.025612 0.000000 0.000000
# 5 0.000000 0.000000 0.000000 0.000000 0.261128 0.000000
# 6 0.000000 0.000000 0.000000 0.000000 0.000000 0.136113
#
#
# Mechanical properties :
#
#
# Convention : Reuss Voigt Hill
#
# Bulk Modulus (GPa) = 43.60409 49.10971 46.35690
# Shear Modulus (GPa) = 10.39573 24.73392 17.56482
#
# Velocity S-wave (km/s) = 2.20431 3.40010 2.86528
# Velocity P-wave (km/s) = 5.18260 6.19421 5.71085
#
# Compressibility (1/GPa) = 0.02293363
#
# Stress axis : x y z
#
# Youngs Moduli (GPa) = 65.06383 112.37737 80.42809
#
# Poissons Ratio (x) = 0.23849 0.10786
# Poissons Ratio (y) = 0.13808 0.27513
# Poissons Ratio (z) = 0.08725 0.38442
#
# Static dielectric constant tensor:
#      x y z
#    x 3.240330 0.000000 0.000000 
#    y 0.000000 4.167980 0.000000 
#    z 0.000000 0.000000 4.000620 
# 
# 
# High freq. dielectric constant tensor:
#      x y z
#    x 1.769170 0.000000 0.000000 
#    y 0.000000 1.865360 0.000000 
#    z 0.000000 0.000000 1.847740 
# 
# From -- ./inp_files/53767.got.cif
#   From: 2010.03.12/outbox.cif.g09.slc.cpg/sg64_27_cif.got.tgz:53767.got - 2010.04.10 20:19:32.
