data_PCOD8261665
_publ_section_title
;
Structure prediction by ZEFSAII (Michael W. Deem and Ramdas Pophale) SiO2 
 PCOD8261665
Probable space group: C M C A
;
_chemical_formula_sum "Si O2"
_cell_formula_units_Z 104
_cell_length_a 9.643935
_cell_length_b 28.600929
_cell_length_c 22.640904
_cell_angle_alpha 90.000000
_cell_angle_beta 90.000000
_cell_angle_gamma 90.000000
_cell_volume 6244.938671
_symmetry_space_group_name_H-M "C M C A"
_symmetry_group_IT_number 64
_symmetry_cell_setting 'orthorhombic'
loop_
_space_group_symop_operation_xyz
x,y,z
-x,1/2-y,1/2+z
x,-y,-z
-x,1/2+y,1/2-z
-x,-y,-z
x,1/2+y,1/2-z
-x,y,z
x,1/2-y,1/2+z
1/2+x,1/2+y,z
1/2-x,-y,1/2+z
1/2+x,1/2-y,-z
1/2-x,y,1/2-z
1/2-x,1/2-y,-z
1/2+x,y,1/2-z
1/2-x,1/2+y,z
1/2+x,-y,1/2+z
loop_
_atom_site_type_symbol
_atom_site_label
_atom_site_fract_x
_atom_site_fract_y
_atom_site_fract_z
Si Si1 0.840167 0.502170 0.808134
Si Si2 0.239536 0.000000 0.000000
Si Si3 0.158799 0.837726 0.069698
Si Si4 0.662474 0.255709 0.440594
Si Si5 0.156168 0.653484 0.433570
Si Si6 0.152080 0.071538 0.406278
Si Si7 0.846324 0.558961 0.607915
O O1 0.750000 0.495599 0.750000
O O2 0.831985 0.454245 0.844038
O O3 0.772752 0.542500 0.848020
O O4 0.000000 0.515492 0.793702
O O5 0.328370 0.035881 0.039217
O O6 0.151113 0.967966 0.044866
O O7 0.263758 0.797977 0.095750
O O8 0.183899 0.886186 0.102491
O O9 0.000000 0.820371 0.076156
O O10 0.198001 0.845828 0.001866
O O11 0.500000 0.266941 0.453303
O O12 0.750000 0.250000 0.500000
O O13 0.674295 0.205867 0.406343
O O14 0.246956 0.615294 0.400780
O O15 0.000000 0.635868 0.426023
O O16 0.000000 0.092792 0.413707
O O17 0.000000 0.551194 0.635011
#
# Coordination Sequence:
#
# PCOD8261665 Si02
#       7
#    16   8  16  16  16  16  16
#     4  10  22  38  52  70  94 124 164 204 241 286
#     4  10  18  30  44  70 100 128 160 190 236 286
#     4   9  17  29  43  67  97 127 162 194 228 281
#     4   9  17  28  41  61  91 129 163 195 231 276
#     4   9  17  29  43  65  96 127 163 194 228 284
#     4  10  20  31  47  70  97 125 158 199 241 283
#     4  10  19  31  50  72  97 129 161 196 238 284
#
# _framework density 16.653486000000001
#
# number of rings (size 3 to 8) (size 9 to 14) (size 15 to 20)
#    0.000    2.462    1.538    2.308    0.000    7.385 
#    0.000    0.000    0.000    0.000    0.000    1.077 
#    0.000    4.923    0.000    0.000    0.000    0.000 
#
# Total GULP energy -644329.563188 kJ/mol
# GULP energy per Si atom -12390.953138 kJ/mol
# Density = 1.661558 g / cm^3
# Si number density = 16.653486 Si / 1000 Ang^3
#
#
#
# Elastic Constant Matrix: (Units=GPa)
#
#
# Indices 1 2 3 4 5 6 
#
# 1 127.4957 63.4100 39.0460 0.0000 0.0000 0.0000
# 2 63.4100 99.9804 24.2169 0.0000 0.0000 0.0000
# 3 39.0460 24.2169 55.0543 0.0000 0.0000 0.0000
# 4 0.0000 0.0000 0.0000 8.4831 0.0000 0.0000
# 5 0.0000 0.0000 0.0000 0.0000 19.1517 0.0000
# 6 0.0000 0.0000 0.0000 0.0000 0.0000 34.9256
#
#
#
# Elastic Compliance Matrix: (Units=1/GPa)
#
#
# Indices 1 2 3 4 5 6 
#
# 1 0.013180 -0.006822 -0.006347 0.000000 0.000000 0.000000
# 2 -0.006822 0.014726 -0.001639 0.000000 0.000000 0.000000
# 3 -0.006347 -0.001639 0.023386 0.000000 0.000000 0.000000
# 4 0.000000 0.000000 0.000000 0.117882 0.000000 0.000000
# 5 0.000000 0.000000 0.000000 0.000000 0.052215 0.000000
# 6 0.000000 0.000000 0.000000 0.000000 0.000000 0.028632
#
#
# Mechanical properties :
#
#
# Convention : Reuss Voigt Hill
#
# Bulk Modulus (GPa) = 46.13365 59.54179 52.83772
# Shear Modulus (GPa) = 17.43000 22.90256 20.16628
#
# Velocity S-wave (km/s) = 3.23867 3.71245 3.48362
# Velocity P-wave (km/s) = 6.46124 7.36256 6.92658
#
# Compressibility (1/GPa) = 0.02167615
#
# Stress axis : x y z
#
# Youngs Moduli (GPa) = 75.87283 67.90939 42.76004
#
# Poissons Ratio (x) = 0.46326 0.27139
# Poissons Ratio (y) = 0.51758 0.07009
# Poissons Ratio (z) = 0.48156 0.11132
#
# Static dielectric constant tensor:
#      x y z
#    x 3.321190 0.000000 0.000000 
#    y 0.000000 3.553790 0.000000 
#    z 0.000000 0.000000 2.714360 
# 
# 
# High freq. dielectric constant tensor:
#      x y z
#    x 1.656190 0.000000 0.000000 
#    y 0.000000 1.651980 0.000000 
#    z 0.000000 0.000000 1.581990 
# 
# From -- ./inp_files/43475.got.cif
#   From: 2010.03.12/outbox.cif.g09.slc.cpg/sg64_22_cif.got.tgz:43475.got - 2010.04.10 20:19:32.
