data_PCOD8261263
_publ_section_title
;
Structure prediction by ZEFSAII (Michael W. Deem and Ramdas Pophale) SiO2 
 PCOD8261263
Probable space group: C M C M
;
_chemical_formula_sum "Si O2"
_cell_formula_units_Z 80
_cell_length_a 9.412588
_cell_length_b 37.647672
_cell_length_c 13.689680
_cell_angle_alpha 90.000000
_cell_angle_beta 90.000000
_cell_angle_gamma 90.000000
_cell_volume 4851.102736
_symmetry_space_group_name_H-M "C M C M"
_symmetry_group_IT_number 63
_symmetry_cell_setting 'orthorhombic'
loop_
_space_group_symop_operation_xyz
x,y,z
-x,-y,1/2+z
x,-y,-z
-x,y,1/2-z
-x,-y,-z
x,y,1/2-z
-x,y,z
x,-y,1/2+z
1/2+x,1/2+y,z
1/2-x,1/2-y,1/2+z
1/2+x,1/2-y,-z
1/2-x,1/2+y,1/2-z
1/2-x,1/2-y,-z
1/2+x,1/2+y,1/2-z
1/2-x,1/2+y,z
1/2+x,1/2-y,1/2+z
loop_
_atom_site_type_symbol
_atom_site_label
_atom_site_fract_x
_atom_site_fract_y
_atom_site_fract_z
Si Si1 0.666181 0.800640 0.948620
Si Si2 0.336383 0.761829 0.140645
Si Si3 0.669031 0.054019 0.451937
Si Si4 0.330920 0.982000 0.356960
Si Si5 0.330947 0.873950 0.639391
O O1 0.500000 0.797106 0.926422
O O2 0.743643 0.772924 0.878374
O O3 0.721340 0.839964 0.922547
O O4 0.701463 0.792678 0.062498
O O5 0.304923 0.776205 0.250000
O O6 0.500000 0.750580 0.129128
O O7 0.500000 0.055861 0.448903
O O8 0.721427 0.046902 0.563360
O O9 0.733637 0.090885 0.412001
O O10 0.722988 0.021467 0.384944
O O11 0.270571 0.971775 0.250000
O O12 0.500000 0.982584 0.356044
O O13 0.273059 0.871348 0.750000
O O14 0.500000 0.875957 0.640126
#
# Coordination Sequence:
#
# PCOD8261263 Si02
#       5
#    16  16  16  16  16
#     4   9  17  28  42  60  79 100 130 162 190 228
#     4   9  17  29  43  58  78 103 128 157 195 233
#     4   8  13  19  27  41  60  83 114 148 178 210
#     4   8  12  18  27  38  56  85 117 144 172 212
#     4   9  15  22  33  49  68  89 116 153 190 218
#
# _framework density 16.491097
#
# number of rings (size 3 to 8) (size 9 to 14) (size 15 to 20)
#    0.000    3.400    0.000    2.400    0.000    3.600 
#    0.000    1.000    0.000    6.000    0.000    0.000 
#    0.000    0.000    0.000    3.600    0.000   10.400 
#
# Total GULP energy -495679.799372 kJ/mol
# GULP energy per Si atom -12391.994984 kJ/mol
# Density = 1.645356 g / cm^3
# Si number density = 16.491097 Si / 1000 Ang^3
#
#
#
# Elastic Constant Matrix: (Units=GPa)
#
#
# Indices 1 2 3 4 5 6 
#
# 1 10.6280 14.4727 14.8183 0.0000 0.0000 0.0000
# 2 14.4727 140.0026 82.3821 0.0000 0.0000 0.0000
# 3 14.8183 82.3821 161.9798 0.0000 0.0000 0.0000
# 4 0.0000 0.0000 0.0000 23.5462 0.0000 0.0000
# 5 0.0000 0.0000 0.0000 0.0000 9.3066 0.0000
# 6 0.0000 0.0000 0.0000 0.0000 0.0000 10.3395
#
#
#
# Elastic Compliance Matrix: (Units=1/GPa)
#
#
# Indices 1 2 3 4 5 6 
#
# 1 0.113869 -0.008051 -0.006322 0.000000 0.000000 0.000000
# 2 -0.008051 0.010763 -0.004737 0.000000 0.000000 0.000000
# 3 -0.006322 -0.004737 0.009161 0.000000 0.000000 0.000000
# 4 0.000000 0.000000 0.000000 0.042470 0.000000 0.000000
# 5 0.000000 0.000000 0.000000 0.000000 0.107451 0.000000
# 6 0.000000 0.000000 0.000000 0.000000 0.000000 0.096716
#
#
# Mechanical properties :
#
#
# Convention : Reuss Voigt Hill
#
# Bulk Modulus (GPa) = 10.46332 59.55071 35.00701
# Shear Modulus (GPa) = 11.09858 22.03429 16.56643
#
# Velocity S-wave (km/s) = 2.59705 3.65928 3.17293
# Velocity P-wave (km/s) = 3.91810 7.35139 5.89044
#
# Compressibility (1/GPa) = 0.09557200
#
# Stress axis : x y z
#
# Youngs Moduli (GPa) = 8.78201 92.91492 109.15438
#
# Poissons Ratio (x) = 0.74805 0.69011
# Poissons Ratio (y) = 0.07070 0.51709
# Poissons Ratio (z) = 0.05552 0.44016
#
# Static dielectric constant tensor:
#      x y z
#    x 2.515050 0.000000 0.000000 
#    y 0.000000 3.237050 0.000000 
#    z 0.000000 0.000000 3.497940 
# 
# 
# High freq. dielectric constant tensor:
#      x y z
#    x 1.563640 0.000000 0.000000 
#    y 0.000000 1.625690 0.000000 
#    z 0.000000 0.000000 1.650520 
# 
# From -- ./inp_files/30226.got.cif
#   From: 2010.03.12/outbox.cif.g09.slc.cpg/sg63_16_cif.got.tgz:30226.got - 2010.04.10 19:34:48.
