data_PCOD8261169
_publ_section_title
;
Structure prediction by ZEFSAII (Michael W. Deem and Ramdas Pophale) SiO2 
 PCOD8261169
Probable space group: C M C M
;
_chemical_formula_sum "Si O2"
_cell_formula_units_Z 64
_cell_length_a 9.462144
_cell_length_b 26.962117
_cell_length_c 12.351046
_cell_angle_alpha 90.000000
_cell_angle_beta 90.000000
_cell_angle_gamma 90.000000
_cell_volume 3150.991860
_symmetry_space_group_name_H-M "C M C M"
_symmetry_group_IT_number 63
_symmetry_cell_setting 'orthorhombic'
loop_
_space_group_symop_operation_xyz
x,y,z
-x,-y,1/2+z
x,-y,-z
-x,y,1/2-z
-x,-y,-z
x,y,1/2-z
-x,y,z
x,-y,1/2+z
1/2+x,1/2+y,z
1/2-x,1/2-y,1/2+z
1/2+x,1/2-y,-z
1/2-x,1/2+y,1/2-z
1/2-x,1/2-y,-z
1/2+x,1/2+y,1/2-z
1/2-x,1/2+y,z
1/2+x,1/2-y,1/2+z
loop_
_atom_site_type_symbol
_atom_site_label
_atom_site_fract_x
_atom_site_fract_y
_atom_site_fract_z
Si Si1 0.720785 0.355243 0.469595
Si Si2 0.500000 0.694615 0.375587
Si Si3 0.850339 0.103996 0.750000
Si Si4 0.500000 0.188018 0.624289
Si Si5 0.667957 0.007911 0.750000
Si Si6 0.155255 0.955363 0.575471
O O1 0.637732 0.323008 0.558590
O O2 0.646884 0.359341 0.352782
O O3 0.732828 0.410879 0.514112
O O4 0.870933 0.330998 0.447501
O O5 0.500000 0.675009 0.250000
O O6 0.500000 0.753328 0.372957
O O7 0.723659 0.064514 0.750000
O O8 0.000000 0.074011 0.750000
O O9 0.500000 0.167915 0.750000
O O10 0.500000 0.010729 0.750000
O O11 0.724438 0.975739 0.847794
O O12 0.000000 0.938174 0.624821
O O13 0.113630 0.000000 0.500000
#
# Coordination Sequence:
#
# PCOD8261169 Si02
#       6
#    16   8   8   8   8  16
#     4  12  24  43  74 102 136 185 235 286 350 420
#     4  11  26  49  70 103 139 187 239 295 352 422
#     4  12  22  42  70 103 136 180 239 284 341 412
#     4  11  26  46  73 104 146 178 227 306 367 408
#     4  12  28  40  62  99 144 182 229 282 353 416
#     4  11  23  41  65  94 135 183 228 280 334 416
#
# _framework density 20.311064999999999
#
# number of rings (size 3 to 8) (size 9 to 14) (size 15 to 20)
#    0.000    0.500    6.250    1.875    5.250    0.500 
#    0.000    0.625    0.000    0.000    0.000    0.000 
#    0.000    0.000    0.000    0.000    0.000    0.000 
#
# Total GULP energy -396440.293729 kJ/mol
# GULP energy per Si atom -12388.759179 kJ/mol
# Density = 2.026484 g / cm^3
# Si number density = 20.311065 Si / 1000 Ang^3
#
#
#
# Elastic Constant Matrix: (Units=GPa)
#
#
# Indices 1 2 3 4 5 6 
#
# 1 180.5041 48.6616 84.3085 0.0000 0.0000 0.0000
# 2 48.6616 101.7184 50.8217 0.0000 0.0000 0.0000
# 3 84.3085 50.8217 146.3931 0.0000 0.0000 0.0000
# 4 0.0000 0.0000 0.0000 58.2264 0.0000 0.0000
# 5 0.0000 0.0000 0.0000 0.0000 26.5622 0.0000
# 6 0.0000 0.0000 0.0000 0.0000 0.0000 36.5365
#
#
#
# Elastic Compliance Matrix: (Units=1/GPa)
#
#
# Indices 1 2 3 4 5 6 
#
# 1 0.007845 -0.001809 -0.003890 0.000000 0.000000 0.000000
# 2 -0.001809 0.012311 -0.003232 0.000000 0.000000 0.000000
# 3 -0.003890 -0.003232 0.010193 0.000000 0.000000 0.000000
# 4 0.000000 0.000000 0.000000 0.017174 0.000000 0.000000
# 5 0.000000 0.000000 0.000000 0.000000 0.037647 0.000000
# 6 0.000000 0.000000 0.000000 0.000000 0.000000 0.027370
#
#
# Mechanical properties :
#
#
# Convention : Reuss Voigt Hill
#
# Bulk Modulus (GPa) = 80.08310 88.46660 84.27485
# Shear Modulus (GPa) = 37.15677 40.58660 38.87169
#
# Velocity S-wave (km/s) = 4.28177 4.47503 4.37947
# Velocity P-wave (km/s) = 7.99742 8.38759 8.19482
#
# Compressibility (1/GPa) = 0.01248703
#
# Stress axis : x y z
#
# Youngs Moduli (GPa) = 127.47720 81.22492 98.10713
#
# Poissons Ratio (x) = 0.14697 0.38159
# Poissons Ratio (y) = 0.23066 0.31708
# Poissons Ratio (z) = 0.49583 0.26252
#
# Static dielectric constant tensor:
#      x y z
#    x 3.692730 0.000000 0.000000 
#    y 0.000000 3.641020 0.000000 
#    z 0.000000 0.000000 3.991150 
# 
# 
# High freq. dielectric constant tensor:
#      x y z
#    x 1.797210 0.000000 0.000000 
#    y 0.000000 1.793450 0.000000 
#    z 0.000000 0.000000 1.802750 
# 
# From -- ./inp_files/16296.got.cif
#   From: 2010.03.12/outbox.cif.g09.slc.cpg/sg63_9_cif.got.tgz:16296.got - 2010.04.10 19:34:48.
