data_PCOD8261823
_publ_section_title
;
Structure prediction by ZEFSAII (Michael W. Deem and Ramdas Pophale) SiO2 
 PCOD8261823
Probable space group: C M C A
;
_chemical_formula_sum "Si O2"
_cell_formula_units_Z 128
_cell_length_a 24.571332
_cell_length_b 10.842206
_cell_length_c 23.457313
_cell_angle_alpha 90.000000
_cell_angle_beta 90.000000
_cell_angle_gamma 90.000000
_cell_volume 6249.202782
_symmetry_space_group_name_H-M "C M C A"
_symmetry_group_IT_number 64
_symmetry_cell_setting 'orthorhombic'
loop_
_space_group_symop_operation_xyz
x,y,z
-x,1/2-y,1/2+z
x,-y,-z
-x,1/2+y,1/2-z
-x,-y,-z
x,1/2+y,1/2-z
-x,y,z
x,1/2-y,1/2+z
1/2+x,1/2+y,z
1/2-x,-y,1/2+z
1/2+x,1/2-y,-z
1/2-x,y,1/2-z
1/2-x,1/2-y,-z
1/2+x,y,1/2-z
1/2-x,1/2+y,z
1/2+x,-y,1/2+z
loop_
_atom_site_type_symbol
_atom_site_label
_atom_site_fract_x
_atom_site_fract_y
_atom_site_fract_z
Si Si1 0.375147 0.634263 0.507153
Si Si2 0.440365 0.478461 0.150282
Si Si3 0.139061 0.364169 0.185686
Si Si4 0.869189 0.776312 0.191867
Si Si5 0.437289 0.226680 0.400243
Si Si6 0.440217 0.066764 0.222598
Si Si7 0.698286 0.194551 0.093594
Si Si8 0.720761 0.081658 0.907608
O O1 0.403705 0.500000 0.500000
O O2 0.417729 0.724595 0.538058
O O3 0.354745 0.690779 0.447389
O O4 0.321753 0.614190 0.544234
O O5 0.500000 0.414814 0.143003
O O6 0.389842 0.384809 0.149808
O O7 0.432526 0.578072 0.099834
O O8 0.438925 0.549765 0.210151
O O9 0.156764 0.319601 0.248440
O O10 0.102187 0.269659 0.150393
O O11 0.103529 0.486666 0.189144
O O12 0.195733 0.391869 0.154384
O O13 0.924536 0.706557 0.208730
O O14 0.824031 0.698151 0.158342
O O15 0.500000 0.267434 0.389498
O O16 0.500000 0.038792 0.197871
O O17 0.729808 0.323135 0.081621
O O18 0.734391 0.067068 0.087698
#
# Coordination Sequence:
#
# PCOD8261823 Si02
#       8
#    16  16  16  16  16  16  16  16
#     4   9  21  41  64  86 118 151 202 264 305 365
#     4   9  19  33  53  85 122 161 199 234 286 358
#     4  10  20  36  56  88 121 160 198 248 293 356
#     4  11  21  35  57  87 127 159 200 246 294 365
#     4  10  19  35  60  89 122 159 199 244 298 360
#     4  10  18  32  56  84 122 162 198 235 285 352
#     4  11  23  42  63  91 116 158 204 260 317 366
#     4  10  22  42  64  85 117 154 207 259 311 365
#
# _framework density 20.482613000000001
#
# number of rings (size 3 to 8) (size 9 to 14) (size 15 to 20)
#    0.000    2.000    2.500    1.125    0.000    3.750 
#    0.000    4.375    0.000    1.500    0.000    0.000 
#    0.000    0.000    0.000    0.000    0.000    0.000 
#
# Total GULP energy -793073.411197 kJ/mol
# GULP energy per Si atom -12391.772050 kJ/mol
# Density = 2.043599 g / cm^3
# Si number density = 20.482613 Si / 1000 Ang^3
#
#
#
# Elastic Constant Matrix: (Units=GPa)
#
#
# Indices 1 2 3 4 5 6 
#
# 1 31.5624 21.5747 2.4270 0.0000 0.0000 0.0000
# 2 21.5747 91.2441 18.1490 0.0000 0.0000 0.0000
# 3 2.4270 18.1490 61.1351 0.0000 0.0000 0.0000
# 4 0.0000 0.0000 0.0000 32.4915 0.0000 0.0000
# 5 0.0000 0.0000 0.0000 0.0000 9.9942 0.0000
# 6 0.0000 0.0000 0.0000 0.0000 0.0000 12.6611
#
#
#
# Elastic Compliance Matrix: (Units=1/GPa)
#
#
# Indices 1 2 3 4 5 6 
#
# 1 0.037878 -0.009200 0.001228 0.000000 0.000000 0.000000
# 2 -0.009200 0.013882 -0.003756 0.000000 0.000000 0.000000
# 3 0.001228 -0.003756 0.017423 0.000000 0.000000 0.000000
# 4 0.000000 0.000000 0.000000 0.030777 0.000000 0.000000
# 5 0.000000 0.000000 0.000000 0.000000 0.100058 0.000000
# 6 0.000000 0.000000 0.000000 0.000000 0.000000 0.078982
#
#
# Mechanical properties :
#
#
# Convention : Reuss Voigt Hill
#
# Bulk Modulus (GPa) = 21.86937 29.80478 25.83708
# Shear Modulus (GPa) = 15.73811 20.48210 18.11010
#
# Velocity S-wave (km/s) = 2.77495 3.16567 2.97672
# Velocity P-wave (km/s) = 4.57901 5.28628 4.94531
#
# Compressibility (1/GPa) = 0.04572605
#
# Stress axis : x y z
#
# Youngs Moduli (GPa) = 26.40059 72.03502 57.39381
#
# Poissons Ratio (x) = 0.66275 -0.07046
# Poissons Ratio (y) = 0.24290 0.21557
# Poissons Ratio (z) = -0.03241 0.27056
#
# Static dielectric constant tensor:
#      x y z
#    x 3.489550 0.000000 0.000000 
#    y 0.000000 3.892610 0.000000 
#    z 0.000000 0.000000 3.718220 
# 
# 
# High freq. dielectric constant tensor:
#      x y z
#    x 1.775850 0.000000 0.000000 
#    y 0.000000 1.806370 0.000000 
#    z 0.000000 0.000000 1.793680 
# 
# From -- ./inp_files/46748.got.cif
#   From: 2010.03.12/outbox.cif.g09.slc.cpg/sg64_24_cif.got.tgz:46748.got - 2010.04.10 20:19:32.
