data_PCOD8261795
_publ_section_title
;
Structure prediction by ZEFSAII (Michael W. Deem and Ramdas Pophale) SiO2 
 PCOD8261795
Probable space group: C M C A
;
_chemical_formula_sum "Si O2"
_cell_formula_units_Z 80
_cell_length_a 8.602313
_cell_length_b 25.167840
_cell_length_c 20.978298
_cell_angle_alpha 90.000000
_cell_angle_beta 90.000000
_cell_angle_gamma 90.000000
_cell_volume 4541.835863
_symmetry_space_group_name_H-M "C M C A"
_symmetry_group_IT_number 64
_symmetry_cell_setting 'orthorhombic'
loop_
_space_group_symop_operation_xyz
x,y,z
-x,1/2-y,1/2+z
x,-y,-z
-x,1/2+y,1/2-z
-x,-y,-z
x,1/2+y,1/2-z
-x,y,z
x,1/2-y,1/2+z
1/2+x,1/2+y,z
1/2-x,-y,1/2+z
1/2+x,1/2-y,-z
1/2-x,y,1/2-z
1/2-x,1/2-y,-z
1/2+x,y,1/2-z
1/2-x,1/2+y,z
1/2+x,-y,1/2+z
loop_
_atom_site_type_symbol
_atom_site_label
_atom_site_fract_x
_atom_site_fract_y
_atom_site_fract_z
Si Si1 0.183126 0.711957 0.587020
Si Si2 0.684965 0.620253 0.820126
Si Si3 0.317524 0.815741 0.552896
Si Si4 0.682310 0.566295 0.049462
Si Si5 0.817272 0.539563 0.915160
O O1 0.244109 0.672014 0.641207
O O2 0.242409 0.772087 0.600124
O O3 0.248656 0.692349 0.518755
O O4 0.000000 0.711721 0.587400
O O5 0.500000 0.614976 0.819889
O O6 0.750000 0.626300 0.750000
O O7 0.758495 0.567675 0.851246
O O8 0.500000 0.807000 0.552936
O O9 0.275037 0.875178 0.576091
O O10 0.500000 0.554572 0.055937
O O11 0.778397 0.523218 0.090035
O O12 0.725937 0.564069 0.974973
O O13 0.000000 0.547436 0.924643
#
# Coordination Sequence:
#
# PCOD8261795 Si02
#       5
#    16  16  16  16  16
#     4   9  18  32  49  73 104 135 169 210 257 306
#     4  11  22  38  55  75 104 140 177 214 257 305
#     4   9  17  30  50  76 104 135 167 207 260 309
#     4  10  18  32  52  75 107 140 167 213 267 312
#     4  11  21  32  49  77 105 136 176 215 258 311
#
# _framework density 17.614021999999999
#
# number of rings (size 3 to 8) (size 9 to 14) (size 15 to 20)
#    0.000    2.000    2.000    4.200    0.000    3.200 
#    0.000    0.000    0.000    1.200    0.000    2.800 
#    0.000    0.000    0.000    0.000    0.000    0.000 
#
# Total GULP energy -495965.942142 kJ/mol
# GULP energy per Si atom -12399.148554 kJ/mol
# Density = 1.757393 g / cm^3
# Si number density = 17.614022 Si / 1000 Ang^3
#
#
#
# Elastic Constant Matrix: (Units=GPa)
#
#
# Indices 1 2 3 4 5 6 
#
# 1 47.7698 32.3031 17.4604 0.0000 0.0000 0.0000
# 2 32.3031 139.9612 56.0495 0.0000 0.0000 0.0000
# 3 17.4604 56.0495 81.5304 0.0000 0.0000 0.0000
# 4 0.0000 0.0000 0.0000 22.9322 0.0000 0.0000
# 5 0.0000 0.0000 0.0000 0.0000 24.1823 0.0000
# 6 0.0000 0.0000 0.0000 0.0000 0.0000 32.5466
#
#
#
# Elastic Compliance Matrix: (Units=1/GPa)
#
#
# Indices 1 2 3 4 5 6 
#
# 1 0.025020 -0.005007 -0.001916 0.000000 0.000000 0.000000
# 2 -0.005007 0.010861 -0.006394 0.000000 0.000000 0.000000
# 3 -0.001916 -0.006394 0.017072 0.000000 0.000000 0.000000
# 4 0.000000 0.000000 0.000000 0.043607 0.000000 0.000000
# 5 0.000000 0.000000 0.000000 0.000000 0.041353 0.000000
# 6 0.000000 0.000000 0.000000 0.000000 0.000000 0.030725
#
#
# Mechanical properties :
#
#
# Convention : Reuss Voigt Hill
#
# Bulk Modulus (GPa) = 37.99725 53.43194 45.71459
# Shear Modulus (GPa) = 24.50435 26.82879 25.66657
#
# Velocity S-wave (km/s) = 3.73390 3.90699 3.82143
# Velocity P-wave (km/s) = 6.34101 7.12415 6.74396
#
# Compressibility (1/GPa) = 0.02631769
#
# Stress axis : x y z
#
# Youngs Moduli (GPa) = 39.96784 92.07020 58.57679
#
# Poissons Ratio (x) = 0.46103 0.11222
# Poissons Ratio (y) = 0.20014 0.37456
# Poissons Ratio (z) = 0.07657 0.58873
#
# Static dielectric constant tensor:
#      x y z
#    x 3.230740 0.000000 0.000000 
#    y 0.000000 3.630570 0.000000 
#    z 0.000000 0.000000 3.837790 
# 
# 
# High freq. dielectric constant tensor:
#      x y z
#    x 1.686510 0.000000 0.000000 
#    y 0.000000 1.699080 0.000000 
#    z 0.000000 0.000000 1.628920 
# 
# From -- ./inp_files/29744.got.cif
#   From: 2010.03.12/outbox.cif.g09.slc.cpg/sg64_15_cif.got.tgz:29744.got - 2010.04.10 20:19:32.
