data_PCOD8261054
_publ_section_title
;
Structure prediction by ZEFSAII (Michael W. Deem and Ramdas Pophale) SiO2 
 PCOD8261054
Probable space group: C M C M
;
_chemical_formula_sum "Si O2"
_cell_formula_units_Z 56
_cell_length_a 10.825139
_cell_length_b 14.107232
_cell_length_c 18.200519
_cell_angle_alpha 90.000000
_cell_angle_beta 90.000000
_cell_angle_gamma 90.000000
_cell_volume 2779.451259
_symmetry_space_group_name_H-M "C M C M"
_symmetry_group_IT_number 63
_symmetry_cell_setting 'orthorhombic'
loop_
_space_group_symop_operation_xyz
x,y,z
-x,-y,1/2+z
x,-y,-z
-x,y,1/2-z
-x,-y,-z
x,y,1/2-z
-x,y,z
x,-y,1/2+z
1/2+x,1/2+y,z
1/2-x,1/2-y,1/2+z
1/2+x,1/2-y,-z
1/2-x,1/2+y,1/2-z
1/2-x,1/2-y,-z
1/2+x,1/2+y,1/2-z
1/2-x,1/2+y,z
1/2+x,1/2-y,1/2+z
loop_
_atom_site_type_symbol
_atom_site_label
_atom_site_fract_x
_atom_site_fract_y
_atom_site_fract_z
Si Si1 0.000000 0.773362 0.750000
Si Si2 0.000000 0.387143 0.128775
Si Si3 0.272711 0.894562 0.481422
Si Si4 0.729870 0.187304 0.250000
Si Si5 0.641022 0.244077 0.101517
Si Si6 0.500000 0.044386 0.250000
O O1 0.000000 0.707296 0.822375
O O2 0.876886 0.840535 0.750000
O O3 0.883169 0.389073 0.075924
O O4 0.000000 0.481532 0.177245
O O5 0.308278 0.846411 0.557987
O O6 0.157153 0.839735 0.445533
O O7 0.229969 0.000000 0.500000
O O8 0.711618 0.252949 0.178719
O O9 0.629620 0.102391 0.250000
O O10 0.500000 0.226283 0.120101
#
# Coordination Sequence:
#
# PCOD8261054 Si02
#       6
#     4   8  16   8  16   4
#     4  11  24  40  68  87 134 172 208 259 342 374
#     4  11  21  42  64  95 123 170 217 266 317 389
#     4  11  23  39  65  95 130 166 219 272 321 389
#     4  12  22  42  62  98 124 170 214 273 313 400
#     4  11  23  40  65  94 129 175 216 266 332 382
#     4  11  24  36  76  95 120 172 230 259 328 380
#
# _framework density 20.147863000000001
#
# number of rings (size 3 to 8) (size 9 to 14) (size 15 to 20)
#    0.000    0.857    5.714    2.143    0.000    0.571 
#    0.000    0.000    9.429    1.714    0.000    0.000 
#    0.000    0.000    0.000    0.000    0.000    0.000 
#
# Total GULP energy -347161.446077 kJ/mol
# GULP energy per Si atom -12398.623074 kJ/mol
# Density = 2.010201 g / cm^3
# Si number density = 20.147863 Si / 1000 Ang^3
#
#
#
# Elastic Constant Matrix: (Units=GPa)
#
#
# Indices 1 2 3 4 5 6 
#
# 1 91.2838 33.2097 48.5350 0.0000 0.0000 0.0000
# 2 33.2097 118.1870 40.4755 0.0000 0.0000 0.0000
# 3 48.5350 40.4755 130.9839 0.0000 0.0000 0.0000
# 4 0.0000 0.0000 0.0000 87.4887 0.0000 0.0000
# 5 0.0000 0.0000 0.0000 0.0000 47.0705 0.0000
# 6 0.0000 0.0000 0.0000 0.0000 0.0000 16.6868
#
#
#
# Elastic Compliance Matrix: (Units=1/GPa)
#
#
# Indices 1 2 3 4 5 6 
#
# 1 0.014253 -0.002456 -0.004522 0.000000 0.000000 0.000000
# 2 -0.002456 0.009886 -0.002145 0.000000 0.000000 0.000000
# 3 -0.004522 -0.002145 0.009973 0.000000 0.000000 0.000000
# 4 0.000000 0.000000 0.000000 0.011430 0.000000 0.000000
# 5 0.000000 0.000000 0.000000 0.000000 0.021245 0.000000
# 6 0.000000 0.000000 0.000000 0.000000 0.000000 0.059928
#
#
# Mechanical properties :
#
#
# Convention : Reuss Voigt Hill
#
# Bulk Modulus (GPa) = 63.03074 64.98836 64.00955
# Shear Modulus (GPa) = 33.27810 44.79816 39.03813
#
# Velocity S-wave (km/s) = 4.06851 4.72048 4.40657
# Velocity P-wave (km/s) = 7.30906 7.87632 7.59798
#
# Compressibility (1/GPa) = 0.01586527
#
# Stress axis : x y z
#
# Youngs Moduli (GPa) = 70.16105 101.15473 100.27105
#
# Poissons Ratio (x) = 0.24846 0.45346
# Poissons Ratio (y) = 0.17233 0.21505
# Poissons Ratio (z) = 0.31729 0.21695
#
# Static dielectric constant tensor:
#      x y z
#    x 3.721170 0.000000 0.000000 
#    y 0.000000 3.572600 0.000000 
#    z 0.000000 0.000000 4.011030 
# 
# 
# High freq. dielectric constant tensor:
#      x y z
#    x 1.787880 0.000000 0.000000 
#    y 0.000000 1.766110 0.000000 
#    z 0.000000 0.000000 1.815900 
# 
# From -- ./inp_files/28799.got.cif
#   From: 2010.03.12/outbox.cif.g09.slc.cpg/sg63_15_cif.got.tgz:28799.got - 2010.04.10 19:34:48.
