data_PCOD8261385
_publ_section_title
;
Structure prediction by ZEFSAII (Michael W. Deem and Ramdas Pophale) SiO2 
 PCOD8261385
Probable space group: C M C A
;
_chemical_formula_sum "Si O2"
_cell_formula_units_Z 80
_cell_length_a 34.845159
_cell_length_b 26.307213
_cell_length_c 5.248464
_cell_angle_alpha 90.000000
_cell_angle_beta 90.000000
_cell_angle_gamma 90.000000
_cell_volume 4811.156835
_symmetry_space_group_name_H-M "C M C A"
_symmetry_group_IT_number 64
_symmetry_cell_setting 'orthorhombic'
loop_
_space_group_symop_operation_xyz
x,y,z
-x,1/2-y,1/2+z
x,-y,-z
-x,1/2+y,1/2-z
-x,-y,-z
x,1/2+y,1/2-z
-x,y,z
x,1/2-y,1/2+z
1/2+x,1/2+y,z
1/2-x,-y,1/2+z
1/2+x,1/2-y,-z
1/2-x,y,1/2-z
1/2-x,1/2-y,-z
1/2+x,y,1/2-z
1/2-x,1/2+y,z
1/2+x,-y,1/2+z
loop_
_atom_site_type_symbol
_atom_site_label
_atom_site_fract_x
_atom_site_fract_y
_atom_site_fract_z
Si Si1 0.915166 0.778863 0.338130
Si Si2 0.955384 0.382992 0.028624
Si Si3 0.044486 0.444386 0.540059
Si Si4 0.173505 0.800683 0.271683
Si Si5 0.705798 0.309712 0.765888
O O1 0.928987 0.739287 0.558206
O O2 0.932309 0.831907 0.424436
O O3 0.869661 0.782819 0.312302
O O4 0.948504 0.415978 0.277846
O O5 0.000000 0.369462 0.988791
O O6 0.938438 0.412836 0.781072
O O7 0.063667 0.500000 0.500000
O O8 0.000000 0.452050 0.605321
O O9 0.185744 0.834169 0.515783
O O10 0.200644 0.751109 0.254402
O O11 0.183150 0.832009 0.013609
O O12 0.750000 0.325260 0.750000
#
# Coordination Sequence:
#
# PCOD8261385 Si02
#       5
#    16  16  16  16  16
#     4  12  21  33  45  58  92 133 162 192 212 255
#     4  10  21  33  48  71  89 114 160 194 228 278
#     4   9  17  33  54  72  89 105 133 194 258 295
#     4  10  16  27  37  56  78 111 151 185 216 261
#     4  10  16  25  41  58  76 101 153 205 220 248
#
# _framework density 16.628015999999999
#
# number of rings (size 3 to 8) (size 9 to 14) (size 15 to 20)
#    0.000    1.800    4.000    4.800    0.000    3.200 
#    0.000    0.000    0.000    0.000    0.000    0.000 
#    0.000    0.000    0.000    0.000    0.000   90.000 
#
# Total GULP energy -495546.651270 kJ/mol
# GULP energy per Si atom -12388.666282 kJ/mol
# Density = 1.659017 g / cm^3
# Si number density = 16.628016 Si / 1000 Ang^3
#
#
#
# Elastic Constant Matrix: (Units=GPa)
#
#
# Indices 1 2 3 4 5 6 
#
# 1 24.3896 20.9025 20.6724 0.0000 0.0000 0.0000
# 2 20.9025 60.5629 16.9158 0.0000 0.0000 0.0000
# 3 20.6724 16.9158 137.4528 0.0000 0.0000 0.0000
# 4 0.0000 0.0000 0.0000 14.7723 0.0000 0.0000
# 5 0.0000 0.0000 0.0000 0.0000 19.9159 0.0000
# 6 0.0000 0.0000 0.0000 0.0000 0.0000 0.6833
#
#
#
# Elastic Compliance Matrix: (Units=1/GPa)
#
#
# Indices 1 2 3 4 5 6 
#
# 1 0.064443 -0.020230 -0.007202 0.000000 0.000000 0.000000
# 2 -0.020230 0.023450 0.000157 0.000000 0.000000 0.000000
# 3 -0.007202 0.000157 0.008339 0.000000 0.000000 0.000000
# 4 0.000000 0.000000 0.000000 0.067694 0.000000 0.000000
# 5 0.000000 0.000000 0.000000 0.000000 0.050211 0.000000
# 6 0.000000 0.000000 0.000000 0.000000 0.000000 1.463505
#
#
# Mechanical properties :
#
#
# Convention : Reuss Voigt Hill
#
# Bulk Modulus (GPa) = 23.99178 37.70966 30.85072
# Shear Modulus (GPa) = 2.86354 18.00195 10.43275
#
# Velocity S-wave (km/s) = 1.31372 3.29390 2.50755
# Velocity P-wave (km/s) = 4.09402 6.09869 5.19399
#
# Compressibility (1/GPa) = 0.04168094
#
# Stress axis : x y z
#
# Youngs Moduli (GPa) = 15.51747 42.64360 119.91602
#
# Poissons Ratio (x) = 0.86269 0.86369
# Poissons Ratio (y) = 0.31392 -0.01878
# Poissons Ratio (z) = 0.11176 -0.00668
#
# Static dielectric constant tensor:
#      x y z
#    x 2.936860 0.000000 0.000000 
#    y 0.000000 3.018880 0.000000 
#    z 0.000000 0.000000 5.043450 
# 
# 
# High freq. dielectric constant tensor:
#      x y z
#    x 1.612180 0.000000 0.000000 
#    y 0.000000 1.573700 0.000000 
#    z 0.000000 0.000000 1.684920 
# 
# From -- ./inp_files/3263.got.cif
#   From: 2010.03.12/outbox.cif.g09.slc.cpg/sg64_2_cif.got.tgz:3263.got - 2010.04.10 20:19:32.
