data_PCOD8261655
_publ_section_title
;
Structure prediction by ZEFSAII (Michael W. Deem and Ramdas Pophale) SiO2 
 PCOD8261655
Probable space group: C M C A
;
_chemical_formula_sum "Si O2"
_cell_formula_units_Z 128
_cell_length_a 18.073386
_cell_length_b 25.310466
_cell_length_c 15.691078
_cell_angle_alpha 90.000000
_cell_angle_beta 90.000000
_cell_angle_gamma 90.000000
_cell_volume 7177.818072
_symmetry_space_group_name_H-M "C M C A"
_symmetry_group_IT_number 64
_symmetry_cell_setting 'orthorhombic'
loop_
_space_group_symop_operation_xyz
x,y,z
-x,1/2-y,1/2+z
x,-y,-z
-x,1/2+y,1/2-z
-x,-y,-z
x,1/2+y,1/2-z
-x,y,z
x,1/2-y,1/2+z
1/2+x,1/2+y,z
1/2-x,-y,1/2+z
1/2+x,1/2-y,-z
1/2-x,y,1/2-z
1/2-x,1/2-y,-z
1/2+x,y,1/2-z
1/2-x,1/2+y,z
1/2+x,-y,1/2+z
loop_
_atom_site_type_symbol
_atom_site_label
_atom_site_fract_x
_atom_site_fract_y
_atom_site_fract_z
Si Si1 0.296413 0.122531 0.542932
Si Si2 0.337424 0.049011 0.747746
Si Si3 0.417500 0.151357 0.963539
Si Si4 0.583468 0.656624 0.733296
Si Si5 0.661027 0.952095 0.064672
Si Si6 0.413003 0.540911 0.924242
Si Si7 0.194294 0.214866 0.823493
Si Si8 0.717307 0.798321 0.948236
O O1 0.240687 0.076516 0.573757
O O2 0.377772 0.096724 0.543434
O O3 0.289219 0.173066 0.602641
O O4 0.269920 0.148796 0.452287
O O5 0.250000 0.041354 0.750000
O O6 0.361290 0.109919 0.738168
O O7 0.365225 0.028117 0.840760
O O8 0.375346 0.020561 0.665124
O O9 0.500000 0.159959 0.998365
O O10 0.410376 0.169382 0.865937
O O11 0.398394 0.089260 0.971705
O O12 0.363984 0.187798 0.017827
O O13 0.500000 0.641797 0.759435
O O14 0.610983 0.707658 0.786481
O O15 0.667259 0.000000 0.000000
O O16 0.500000 0.549339 0.909411
O O17 0.397130 0.500000 0.000000
O O18 0.250000 0.200181 0.750000
O O19 0.205933 0.275758 0.852837
O O20 0.750000 0.750000 0.000000
#
# Coordination Sequence:
#
# PCOD8261655 Si02
#       8
#    16  16  16  16  16  16  16  16
#     4  10  19  33  55  78 110 143 178 230 275 328
#     4  11  19  31  53  82 112 146 183 231 274 323
#     4   9  19  34  51  75 110 139 172 222 276 321
#     4  10  18  29  49  79 107 134 170 225 281 322
#     4  10  19  32  55  83 111 144 187 227 270 329
#     4  11  23  37  57  86 119 151 187 235 285 335
#     4  11  19  31  54  80 106 131 176 231 281 320
#     4   9  19  33  51  75 102 139 177 217 267 326
#
# _framework density 17.832716999999999
#
# number of rings (size 3 to 8) (size 9 to 14) (size 15 to 20)
#    0.000    1.875    2.500    4.125    0.000    1.250 
#    0.000    1.875    5.500    0.750    0.000    0.000 
#    0.000    0.000    0.000    0.000    0.000    0.000 
#
# Total GULP energy -792912.626394 kJ/mol
# GULP energy per Si atom -12389.259787 kJ/mol
# Density = 1.779213 g / cm^3
# Si number density = 17.832717 Si / 1000 Ang^3
#
#
#
# Elastic Constant Matrix: (Units=GPa)
#
#
# Indices 1 2 3 4 5 6 
#
# 1 115.4761 38.9661 39.9068 0.0000 0.0000 0.0000
# 2 38.9661 74.3437 51.7187 0.0000 0.0000 0.0000
# 3 39.9068 51.7187 82.0165 0.0000 0.0000 0.0000
# 4 0.0000 0.0000 0.0000 30.9408 0.0000 0.0000
# 5 0.0000 0.0000 0.0000 0.0000 18.7366 0.0000
# 6 0.0000 0.0000 0.0000 0.0000 0.0000 20.2549
#
#
#
# Elastic Compliance Matrix: (Units=1/GPa)
#
#
# Indices 1 2 3 4 5 6 
#
# 1 0.010930 -0.003615 -0.003039 0.000000 0.000000 0.000000
# 2 -0.003615 0.025159 -0.014106 0.000000 0.000000 0.000000
# 3 -0.003039 -0.014106 0.022566 0.000000 0.000000 0.000000
# 4 0.000000 0.000000 0.000000 0.032320 0.000000 0.000000
# 5 0.000000 0.000000 0.000000 0.000000 0.053372 0.000000
# 6 0.000000 0.000000 0.000000 0.000000 0.000000 0.049371
#
#
# Mechanical properties :
#
#
# Convention : Reuss Voigt Hill
#
# Bulk Modulus (GPa) = 58.35690 59.22440 58.79065
# Shear Modulus (GPa) = 20.75140 23.40277 22.07709
#
# Velocity S-wave (km/s) = 3.41496 3.62657 3.52235
# Velocity P-wave (km/s) = 6.95305 7.12876 7.04145
#
# Compressibility (1/GPa) = 0.01713593
#
# Stress axis : x y z
#
# Youngs Moduli (GPa) = 91.49415 39.74754 44.31382
#
# Poissons Ratio (x) = 0.14368 0.13465
# Poissons Ratio (y) = 0.33072 0.62509
# Poissons Ratio (z) = 0.27802 0.56068
#
# Static dielectric constant tensor:
#      x y z
#    x 3.585310 0.000000 0.000000 
#    y 0.000000 2.277520 0.000000 
#    z 0.000000 0.000000 3.637290 
# 
# 
# High freq. dielectric constant tensor:
#      x y z
#    x 1.696230 0.000000 0.000000 
#    y 0.000000 1.657100 0.000000 
#    z 0.000000 0.000000 1.683640 
# 
# From -- ./inp_files/33765.got.cif
#   From: 2010.03.12/outbox.cif.g09.slc.cpg/sg64_17_cif.got.tgz:33765.got - 2010.04.10 20:19:32.
