data_PCOD8261258
_publ_section_title
;
Structure prediction by ZEFSAII (Michael W. Deem and Ramdas Pophale) SiO2 
 PCOD8261258
Probable space group: C M C M
;
_chemical_formula_sum "Si O2"
_cell_formula_units_Z 56
_cell_length_a 20.507585
_cell_length_b 9.213469
_cell_length_c 13.634876
_cell_angle_alpha 90.000000
_cell_angle_beta 90.000000
_cell_angle_gamma 90.000000
_cell_volume 2576.255262
_symmetry_space_group_name_H-M "C M C M"
_symmetry_group_IT_number 63
_symmetry_cell_setting 'orthorhombic'
loop_
_space_group_symop_operation_xyz
x,y,z
-x,-y,1/2+z
x,-y,-z
-x,y,1/2-z
-x,-y,-z
x,y,1/2-z
-x,y,z
x,-y,1/2+z
1/2+x,1/2+y,z
1/2-x,1/2-y,1/2+z
1/2+x,1/2-y,-z
1/2-x,1/2+y,1/2-z
1/2-x,1/2-y,-z
1/2+x,1/2+y,1/2-z
1/2-x,1/2+y,z
1/2+x,1/2-y,1/2+z
loop_
_atom_site_type_symbol
_atom_site_label
_atom_site_fract_x
_atom_site_fract_y
_atom_site_fract_z
Si Si1 0.650289 0.721595 0.750000
Si Si2 0.188657 0.836049 0.461222
Si Si3 0.424796 0.246635 0.913525
Si Si4 0.426503 0.990277 0.250000
Si Si5 0.425695 0.546520 0.250000
O O1 0.692991 0.675159 0.656425
O O2 0.584585 0.624562 0.750000
O O3 0.628751 0.887764 0.750000
O O4 0.250000 0.750000 0.500000
O O5 0.122153 0.750210 0.492234
O O6 0.190583 0.000000 0.500000
O O7 0.500000 0.264054 0.948616
O O8 0.416422 0.102272 0.848869
O O9 0.397728 0.382181 0.849114
O O10 0.500000 0.054034 0.250000
O O11 0.500000 0.595386 0.250000
#
# Coordination Sequence:
#
# PCOD8261258 Si02
#       5
#     8  16  16   8   8
#     4  12  25  42  70 101 135 181 233 290 330 428
#     4  12  29  48  70 102 138 184 234 287 353 413
#     4   9  20  43  71  99 141 184 222 281 347 404
#     4   9  21  40  70 109 145 182 225 281 350 414
#     4   9  17  36  68 102 133 171 224 281 334 398
#
# _framework density 21.736975000000001
#
# number of rings (size 3 to 8) (size 9 to 14) (size 15 to 20)
#    0.000    1.714    2.857    2.143    4.000    6.286 
#    0.000    2.857    0.000    0.000    0.000    0.000 
#    0.000    0.000    0.000    0.000    0.000    0.000 
#
# Total GULP energy -347115.446677 kJ/mol
# GULP energy per Si atom -12396.980238 kJ/mol
# Density = 2.168750 g / cm^3
# Si number density = 21.736975 Si / 1000 Ang^3
#
#
#
# Elastic Constant Matrix: (Units=GPa)
#
#
# Indices 1 2 3 4 5 6 
#
# 1 118.3434 51.5218 63.3527 0.0000 0.0000 0.0000
# 2 51.5218 127.9641 43.2509 0.0000 0.0000 0.0000
# 3 63.3527 43.2509 155.5517 0.0000 0.0000 0.0000
# 4 0.0000 0.0000 0.0000 15.6424 0.0000 0.0000
# 5 0.0000 0.0000 0.0000 0.0000 19.4130 0.0000
# 6 0.0000 0.0000 0.0000 0.0000 0.0000 30.0412
#
#
#
# Elastic Compliance Matrix: (Units=1/GPa)
#
#
# Indices 1 2 3 4 5 6 
#
# 1 0.012103 -0.003540 -0.003945 0.000000 0.000000 0.000000
# 2 -0.003540 0.009660 -0.001244 0.000000 0.000000 0.000000
# 3 -0.003945 -0.001244 0.008381 0.000000 0.000000 0.000000
# 4 0.000000 0.000000 0.000000 0.063929 0.000000 0.000000
# 5 0.000000 0.000000 0.000000 0.000000 0.051512 0.000000
# 6 0.000000 0.000000 0.000000 0.000000 0.000000 0.033288
#
#
# Mechanical properties :
#
#
# Convention : Reuss Voigt Hill
#
# Bulk Modulus (GPa) = 78.82327 79.78998 79.30663
# Shear Modulus (GPa) = 24.93018 29.26824 27.09921
#
# Velocity S-wave (km/s) = 3.39027 3.67341 3.53468
# Velocity P-wave (km/s) = 7.18792 7.40126 7.29537
#
# Compressibility (1/GPa) = 0.01268661
#
# Stress axis : x y z
#
# Youngs Moduli (GPa) = 82.62513 103.51500 119.31044
#
# Poissons Ratio (x) = 0.36640 0.47069
# Poissons Ratio (y) = 0.29245 0.14848
# Poissons Ratio (z) = 0.32596 0.12882
#
# Static dielectric constant tensor:
#      x y z
#    x 3.689360 0.000000 0.000000 
#    y 0.000000 3.830600 0.000000 
#    z 0.000000 0.000000 4.170260 
# 
# 
# High freq. dielectric constant tensor:
#      x y z
#    x 1.837970 0.000000 0.000000 
#    y 0.000000 1.857270 0.000000 
#    z 0.000000 0.000000 1.861380 
# 
# From -- ./inp_files/34797.got.cif
#   From: 2010.03.12/outbox.cif.g09.slc.cpg/sg63_18_cif.got.tgz:34797.got - 2010.04.10 19:34:48.
