data_PCOD8261559
_publ_section_title
;
Structure prediction by ZEFSAII (Michael W. Deem and Ramdas Pophale) SiO2 
 PCOD8261559
Probable space group: C M C A
;
_chemical_formula_sum "Si O2"
_cell_formula_units_Z 128
_cell_length_a 19.524551
_cell_length_b 15.474098
_cell_length_c 22.620855
_cell_angle_alpha 90.000000
_cell_angle_beta 90.000000
_cell_angle_gamma 90.000000
_cell_volume 6834.321645
_symmetry_space_group_name_H-M "C M C A"
_symmetry_group_IT_number 64
_symmetry_cell_setting 'orthorhombic'
loop_
_space_group_symop_operation_xyz
x,y,z
-x,1/2-y,1/2+z
x,-y,-z
-x,1/2+y,1/2-z
-x,-y,-z
x,1/2+y,1/2-z
-x,y,z
x,1/2-y,1/2+z
1/2+x,1/2+y,z
1/2-x,-y,1/2+z
1/2+x,1/2-y,-z
1/2-x,y,1/2-z
1/2-x,1/2-y,-z
1/2+x,y,1/2-z
1/2-x,1/2+y,z
1/2+x,-y,1/2+z
loop_
_atom_site_type_symbol
_atom_site_label
_atom_site_fract_x
_atom_site_fract_y
_atom_site_fract_z
Si Si1 0.421941 0.080316 0.657773
Si Si2 0.924694 0.880354 0.810736
Si Si3 0.289311 0.666576 0.521773
Si Si4 0.329735 0.876134 0.237013
Si Si5 0.680696 0.034462 0.563673
Si Si6 0.177367 0.927389 0.719269
Si Si7 0.155588 0.246190 0.626978
Si Si8 0.767318 0.620862 0.102476
O O1 0.500000 0.116474 0.652770
O O2 0.378273 0.136919 0.705238
O O3 0.382882 0.083067 0.594868
O O4 0.423948 0.980192 0.673719
O O5 0.875147 0.866500 0.754750
O O6 0.900561 0.821925 0.866511
O O7 0.000000 0.849543 0.792551
O O8 0.250000 0.750000 0.500000
O O9 0.240835 0.603977 0.559136
O O10 0.353137 0.691517 0.565300
O O11 0.309159 0.619929 0.459846
O O12 0.250000 0.859383 0.250000
O O13 0.352199 0.813469 0.184414
O O14 0.343734 0.973239 0.216475
O O15 0.655820 0.000000 0.500000
O O16 0.709616 0.954999 0.603041
O O17 0.250000 0.914309 0.750000
O O18 0.176445 0.895045 0.652261
O O19 0.230681 0.288896 0.619361
#
# Coordination Sequence:
#
# PCOD8261559 Si02
#       8
#    16  16  16  16  16  16  16  16
#     4  10  20  37  54  77 111 150 190 232 280 343
#     4  10  21  34  53  76 107 146 185 226 275 338
#     4   9  20  32  51  80 109 138 178 228 279 321
#     4  10  21  31  52  78 106 139 182 232 282 334
#     4  10  18  34  56  81 114 148 186 233 284 339
#     4  10  17  33  53  75 104 137 185 222 270 329
#     4  11  19  32  52  75 108 140 179 221 288 335
#     4  10  18  31  53  82 108 138 178 235 271 335
#
# _framework density 18.728999000000002
#
# number of rings (size 3 to 8) (size 9 to 14) (size 15 to 20)
#    0.000    2.000    2.500    3.000    1.750    0.750 
#    0.000    0.000    0.000    0.750    0.000    0.000 
#    0.000    8.000    0.000    0.000    0.000    0.000 
#
# Total GULP energy -793093.675090 kJ/mol
# GULP energy per Si atom -12392.088673 kJ/mol
# Density = 1.868637 g / cm^3
# Si number density = 18.728999 Si / 1000 Ang^3
#
#
#
# Elastic Constant Matrix: (Units=GPa)
#
#
# Indices 1 2 3 4 5 6 
#
# 1 80.8098 17.9888 45.2405 0.0000 0.0000 0.0000
# 2 17.9888 47.3751 26.1404 0.0000 0.0000 0.0000
# 3 45.2405 26.1404 115.3629 0.0000 0.0000 0.0000
# 4 0.0000 0.0000 0.0000 32.2195 0.0000 0.0000
# 5 0.0000 0.0000 0.0000 0.0000 21.0637 0.0000
# 6 0.0000 0.0000 0.0000 0.0000 0.0000 9.9689
#
#
#
# Elastic Compliance Matrix: (Units=1/GPa)
#
#
# Indices 1 2 3 4 5 6 
#
# 1 0.016227 -0.003029 -0.005677 0.000000 0.000000 0.000000
# 2 -0.003029 0.024690 -0.004407 0.000000 0.000000 0.000000
# 3 -0.005677 -0.004407 0.011893 0.000000 0.000000 0.000000
# 4 0.000000 0.000000 0.000000 0.031037 0.000000 0.000000
# 5 0.000000 0.000000 0.000000 0.000000 0.047475 0.000000
# 6 0.000000 0.000000 0.000000 0.000000 0.000000 0.100312
#
#
# Mechanical properties :
#
#
# Convention : Reuss Voigt Hill
#
# Bulk Modulus (GPa) = 37.61626 46.92083 42.26855
# Shear Modulus (GPa) = 18.74608 22.92895 20.83752
#
# Velocity S-wave (km/s) = 3.16715 3.50272 3.33916
# Velocity P-wave (km/s) = 5.78814 6.43938 6.12243
#
# Compressibility (1/GPa) = 0.02658425
#
# Stress axis : x y z
#
# Youngs Moduli (GPa) = 61.62397 40.50259 84.08140
#
# Poissons Ratio (x) = 0.12269 0.47736
# Poissons Ratio (y) = 0.18667 0.37052
# Poissons Ratio (z) = 0.34986 0.17848
#
# Static dielectric constant tensor:
#      x y z
#    x 3.305720 0.000000 0.000000 
#    y 0.000000 3.759480 0.000000 
#    z 0.000000 0.000000 3.866800 
# 
# 
# High freq. dielectric constant tensor:
#      x y z
#    x 1.676500 0.000000 0.000000 
#    y 0.000000 1.729770 0.000000 
#    z 0.000000 0.000000 1.737040 
# 
# From -- ./inp_files/41168.got.cif
#   From: 2010.03.12/outbox.cif.g09.slc.cpg/sg64_21_cif.got.tgz:41168.got - 2010.04.10 20:19:32.
