data_PCOD8261811
_publ_section_title
;
Structure prediction by ZEFSAII (Michael W. Deem and Ramdas Pophale) SiO2 
 PCOD8261811
Probable space group: C M C A
;
_chemical_formula_sum "Si O2"
_cell_formula_units_Z 80
_cell_length_a 8.762684
_cell_length_b 15.624133
_cell_length_c 29.079520
_cell_angle_alpha 90.000000
_cell_angle_beta 90.000000
_cell_angle_gamma 90.000000
_cell_volume 3981.257898
_symmetry_space_group_name_H-M "C M C A"
_symmetry_group_IT_number 64
_symmetry_cell_setting 'orthorhombic'
loop_
_space_group_symop_operation_xyz
x,y,z
-x,1/2-y,1/2+z
x,-y,-z
-x,1/2+y,1/2-z
-x,-y,-z
x,1/2+y,1/2-z
-x,y,z
x,1/2-y,1/2+z
1/2+x,1/2+y,z
1/2-x,-y,1/2+z
1/2+x,1/2-y,-z
1/2-x,y,1/2-z
1/2-x,1/2-y,-z
1/2+x,y,1/2-z
1/2-x,1/2+y,z
1/2+x,-y,1/2+z
loop_
_atom_site_type_symbol
_atom_site_label
_atom_site_fract_x
_atom_site_fract_y
_atom_site_fract_z
Si Si1 0.180780 0.416255 0.607493
Si Si2 0.180549 0.351344 0.703464
Si Si3 0.823326 0.832970 0.205078
Si Si4 0.820198 0.756851 0.950151
Si Si5 0.824291 0.394189 0.394698
O O1 0.242961 0.402902 0.659267
O O2 0.246711 0.342785 0.573839
O O3 0.227503 0.510595 0.589522
O O4 0.000000 0.407759 0.608949
O O5 0.250000 0.391907 0.750000
O O6 0.232695 0.254221 0.696948
O O7 0.000000 0.355506 0.707005
O O8 0.750000 0.879521 0.250000
O O9 0.802961 0.891748 0.160356
O O10 0.000000 0.812414 0.214534
O O11 0.780179 0.674264 0.919975
O O12 0.000000 0.762674 0.954991
O O13 0.750000 0.750000 0.000000
O O14 0.000000 0.376274 0.408091
#
# Coordination Sequence:
#
# PCOD8261811 Si02
#       5
#    16  16  16  16  16
#     4   9  20  38  60  83 115 154 189 227 284 348
#     4  10  18  32  54  81 114 153 194 230 275 333
#     4  10  19  31  53  82 115 151 190 231 275 327
#     4  11  23  42  64  86 113 148 187 237 293 347
#     4  10  21  39  61  86 114 151 194 234 279 340
#
# _framework density 20.094151
#
# number of rings (size 3 to 8) (size 9 to 14) (size 15 to 20)
#    0.000    2.000    2.000    3.000    0.000    2.400 
#    0.000    8.000    0.000    0.000    0.000    0.000 
#    0.000    0.000    0.000    0.000    0.000    0.000 
#
# Total GULP energy -495905.566637 kJ/mol
# GULP energy per Si atom -12397.639166 kJ/mol
# Density = 2.004842 g / cm^3
# Si number density = 20.094151 Si / 1000 Ang^3
#
#
#
# Elastic Constant Matrix: (Units=GPa)
#
#
# Indices 1 2 3 4 5 6 
#
# 1 68.5382 22.4992 37.2325 0.0000 0.0000 0.0000
# 2 22.4992 116.8655 54.5511 0.0000 0.0000 0.0000
# 3 37.2325 54.5511 126.4123 0.0000 0.0000 0.0000
# 4 0.0000 0.0000 0.0000 10.0796 0.0000 0.0000
# 5 0.0000 0.0000 0.0000 0.0000 33.0942 0.0000
# 6 0.0000 0.0000 0.0000 0.0000 0.0000 22.8729
#
#
#
# Elastic Compliance Matrix: (Units=1/GPa)
#
#
# Indices 1 2 3 4 5 6 
#
# 1 0.017504 -0.001206 -0.004635 0.000000 0.000000 0.000000
# 2 -0.001206 0.010798 -0.004305 0.000000 0.000000 0.000000
# 3 -0.004635 -0.004305 0.011133 0.000000 0.000000 0.000000
# 4 0.000000 0.000000 0.000000 0.099211 0.000000 0.000000
# 5 0.000000 0.000000 0.000000 0.000000 0.030217 0.000000
# 6 0.000000 0.000000 0.000000 0.000000 0.000000 0.043720
#
#
# Mechanical properties :
#
#
# Convention : Reuss Voigt Hill
#
# Bulk Modulus (GPa) = 52.23525 60.04242 56.13883
# Shear Modulus (GPa) = 20.89807 26.37822 23.63815
#
# Velocity S-wave (km/s) = 3.22841 3.62709 3.43355
# Velocity P-wave (km/s) = 6.32049 6.89104 6.61192
#
# Compressibility (1/GPa) = 0.01914416
#
# Stress axis : x y z
#
# Youngs Moduli (GPa) = 57.12872 92.60625 89.82042
#
# Poissons Ratio (x) = 0.11172 0.41632
# Poissons Ratio (y) = 0.06892 0.38664
# Poissons Ratio (z) = 0.26479 0.39863
#
# Static dielectric constant tensor:
#      x y z
#    x 3.525070 0.000000 0.000000 
#    y 0.000000 3.725240 0.000000 
#    z 0.000000 0.000000 4.147650 
# 
# 
# High freq. dielectric constant tensor:
#      x y z
#    x 1.767790 0.000000 0.000000 
#    y 0.000000 1.779210 0.000000 
#    z 0.000000 0.000000 1.791920 
# 
# From -- ./inp_files/47845.got.cif
#   From: 2010.03.12/outbox.cif.g09.slc.cpg/sg64_24_cif.got.tgz:47845.got - 2010.04.10 20:19:32.
