data_PCOD8261074
_publ_section_title
;
Structure prediction by ZEFSAII (Michael W. Deem and Ramdas Pophale) SiO2 
 PCOD8261074
Probable space group: C M C M
;
_chemical_formula_sum "Si O2"
_cell_formula_units_Z 96
_cell_length_a 25.388600
_cell_length_b 23.441531
_cell_length_c 8.579488
_cell_angle_alpha 90.000000
_cell_angle_beta 90.000000
_cell_angle_gamma 90.000000
_cell_volume 5106.062155
_symmetry_space_group_name_H-M "C M C M"
_symmetry_group_IT_number 63
_symmetry_cell_setting 'orthorhombic'
loop_
_space_group_symop_operation_xyz
x,y,z
-x,-y,1/2+z
x,-y,-z
-x,y,1/2-z
-x,-y,-z
x,y,1/2-z
-x,y,z
x,-y,1/2+z
1/2+x,1/2+y,z
1/2-x,1/2-y,1/2+z
1/2+x,1/2-y,-z
1/2-x,1/2+y,1/2-z
1/2-x,1/2-y,-z
1/2+x,1/2+y,1/2-z
1/2-x,1/2+y,z
1/2+x,1/2-y,1/2+z
loop_
_atom_site_type_symbol
_atom_site_label
_atom_site_fract_x
_atom_site_fract_y
_atom_site_fract_z
Si Si1 0.305664 0.738493 0.069514
Si Si2 0.744301 0.061660 0.432971
Si Si3 0.059031 0.173488 0.066624
Si Si4 0.156923 0.125354 0.570193
Si Si5 0.560319 0.805059 0.432094
Si Si6 0.844686 0.348976 0.931327
O O1 0.304693 0.718580 0.250000
O O2 0.250000 0.750000 0.000000
O O3 0.327578 0.689926 0.959418
O O4 0.336728 0.796672 0.049996
O O5 0.746055 0.057675 0.250000
O O6 0.801343 0.083871 0.487030
O O7 0.694455 0.100644 0.485936
O O8 0.732552 0.000000 0.500000
O O9 0.060818 0.164736 0.250000
O O10 0.077146 0.238836 0.029538
O O11 0.000000 0.163142 0.002641
O O12 0.096740 0.124239 0.992864
O O13 0.157889 0.108877 0.750000
O O14 0.567436 0.817248 0.250000
O O15 0.500000 0.813097 0.482269
O O16 0.592731 0.853909 0.532154
O O17 0.834108 0.335149 0.750000
#
# Coordination Sequence:
#
# PCOD8261074 Si02
#       6
#    16  16  16  16  16  16
#     4  12  22  33  51  79 114 149 185 225 276 338
#     4  11  25  43  61  81 110 145 190 239 287 339
#     4   9  18  33  53  80 117 156 190 227 273 326
#     4  12  23  35  56  84 116 151 187 229 281 337
#     4   9  18  32  52  80 116 155 189 225 273 330
#     4  11  22  35  55  83 114 148 183 230 283 337
#
# _framework density 18.801179999999999
#
# number of rings (size 3 to 8) (size 9 to 14) (size 15 to 20)
#    0.000    1.333    3.333    5.000    0.000    2.667 
#    0.000    1.667    0.000    1.000    0.000    0.000 
#    0.000    0.000    0.000    0.000    0.000    0.000 
#
# Total GULP energy -594642.390479 kJ/mol
# GULP energy per Si atom -12388.383135 kJ/mol
# Density = 1.875839 g / cm^3
# Si number density = 18.801180 Si / 1000 Ang^3
#
#
#
# Elastic Constant Matrix: (Units=GPa)
#
#
# Indices 1 2 3 4 5 6 
#
# 1 98.7454 31.3146 23.4153 0.0000 0.0000 0.0000
# 2 31.3146 66.4297 15.1333 0.0000 0.0000 0.0000
# 3 23.4153 15.1333 58.5594 0.0000 0.0000 0.0000
# 4 0.0000 0.0000 0.0000 26.0309 0.0000 0.0000
# 5 0.0000 0.0000 0.0000 0.0000 34.1296 0.0000
# 6 0.0000 0.0000 0.0000 0.0000 0.0000 19.9096
#
#
#
# Elastic Compliance Matrix: (Units=1/GPa)
#
#
# Indices 1 2 3 4 5 6 
#
# 1 0.012630 -0.005104 -0.003731 0.000000 0.000000 0.000000
# 2 -0.005104 0.018058 -0.002626 0.000000 0.000000 0.000000
# 3 -0.003731 -0.002626 0.019247 0.000000 0.000000 0.000000
# 4 0.000000 0.000000 0.000000 0.038416 0.000000 0.000000
# 5 0.000000 0.000000 0.000000 0.000000 0.029300 0.000000
# 6 0.000000 0.000000 0.000000 0.000000 0.000000 0.050227
#
#
# Mechanical properties :
#
#
# Convention : Reuss Voigt Hill
#
# Bulk Modulus (GPa) = 37.01882 40.38455 38.70169
# Shear Modulus (GPa) = 25.02441 26.27209 25.64825
#
# Velocity S-wave (km/s) = 3.65225 3.74219 3.69749
# Velocity P-wave (km/s) = 6.12516 6.34022 6.23362
#
# Compressibility (1/GPa) = 0.02701329
#
# Stress axis : x y z
#
# Youngs Moduli (GPa) = 79.17381 55.37826 51.95544
#
# Poissons Ratio (x) = 0.28264 0.19387
# Poissons Ratio (y) = 0.40409 0.13642
# Poissons Ratio (z) = 0.29543 0.14541
#
# Static dielectric constant tensor:
#      x y z
#    x 4.069840 0.000000 0.000000 
#    y 0.000000 3.111960 0.000000 
#    z 0.000000 0.000000 3.366590 
# 
# 
# High freq. dielectric constant tensor:
#      x y z
#    x 1.760220 0.000000 0.000000 
#    y 0.000000 1.677860 0.000000 
#    z 0.000000 0.000000 1.731080 
# 
# From -- ./inp_files/12378.got.cif
#   From: 2010.03.12/outbox.cif.g09.slc.cpg/sg63_7_cif.got.tgz:12378.got - 2010.04.10 19:34:48.
