data_PCOD8261082
_publ_section_title
;
Structure prediction by ZEFSAII (Michael W. Deem and Ramdas Pophale) SiO2 
 PCOD8261082
Probable space group: C M C M
;
_chemical_formula_sum "Si O2"
_cell_formula_units_Z 80
_cell_length_a 26.362749
_cell_length_b 8.877145
_cell_length_c 16.518945
_cell_angle_alpha 90.000000
_cell_angle_beta 90.000000
_cell_angle_gamma 90.000000
_cell_volume 3865.861722
_symmetry_space_group_name_H-M "C M C M"
_symmetry_group_IT_number 63
_symmetry_cell_setting 'orthorhombic'
loop_
_space_group_symop_operation_xyz
x,y,z
-x,-y,1/2+z
x,-y,-z
-x,y,1/2-z
-x,-y,-z
x,y,1/2-z
-x,y,z
x,-y,1/2+z
1/2+x,1/2+y,z
1/2-x,1/2-y,1/2+z
1/2+x,1/2-y,-z
1/2-x,1/2+y,1/2-z
1/2-x,1/2-y,-z
1/2+x,1/2+y,1/2-z
1/2-x,1/2+y,z
1/2+x,1/2-y,1/2+z
loop_
_atom_site_type_symbol
_atom_site_label
_atom_site_fract_x
_atom_site_fract_y
_atom_site_fract_z
Si Si1 0.362721 0.113040 0.427891
Si Si2 0.558309 0.320300 0.153476
Si Si3 0.709957 0.380365 0.428753
Si Si4 0.186145 0.352031 0.344460
Si Si5 0.368060 0.434545 0.657550
O O1 0.414013 0.182866 0.391577
O O2 0.322946 0.238099 0.459820
O O3 0.377055 0.000000 0.500000
O O4 0.335131 0.019316 0.356669
O O5 0.565421 0.302233 0.250000
O O6 0.500000 0.318753 0.127743
O O7 0.582767 0.478709 0.120984
O O8 0.717395 0.500000 0.500000
O O9 0.763561 0.321558 0.396820
O O10 0.680785 0.458895 0.354539
O O11 0.198337 0.324604 0.250000
O O12 0.143865 0.231589 0.377496
O O13 0.379988 0.413134 0.750000
#
# Coordination Sequence:
#
# PCOD8261082 Si02
#       5
#    16  16  16  16  16
#     4  11  23  37  56  84 118 149 186 235 284 333
#     4   9  19  39  64  84 106 143 189 234 283 340
#     4  11  22  36  55  80 114 155 192 222 267 330
#     4  11  22  36  56  84 116 149 187 233 281 328
#     4   9  19  35  55  80 110 144 184 227 273 332
#
# _framework density 20.693961999999999
#
# number of rings (size 3 to 8) (size 9 to 14) (size 15 to 20)
#    0.000    1.800    0.000    4.200    0.000    6.800 
#    0.000    1.000    0.000   24.000    0.000    0.000 
#    0.000    0.000    0.000    0.000    0.000    0.000 
#
# Total GULP energy -495809.071543 kJ/mol
# GULP energy per Si atom -12395.226789 kJ/mol
# Density = 2.064686 g / cm^3
# Si number density = 20.693962 Si / 1000 Ang^3
#
#
#
# Elastic Constant Matrix: (Units=GPa)
#
#
# Indices 1 2 3 4 5 6 
#
# 1 162.4091 70.6199 51.3793 0.0000 0.0000 0.0000
# 2 70.6199 129.3861 46.8760 0.0000 0.0000 0.0000
# 3 51.3793 46.8760 62.1481 0.0000 0.0000 0.0000
# 4 0.0000 0.0000 0.0000 31.5144 0.0000 0.0000
# 5 0.0000 0.0000 0.0000 0.0000 24.3445 0.0000
# 6 0.0000 0.0000 0.0000 0.0000 0.0000 28.8384
#
#
#
# Elastic Compliance Matrix: (Units=1/GPa)
#
#
# Indices 1 2 3 4 5 6 
#
# 1 0.009163 -0.003105 -0.005233 0.000000 0.000000 0.000000
# 2 -0.003105 0.011687 -0.006248 0.000000 0.000000 0.000000
# 3 -0.005233 -0.006248 0.025130 0.000000 0.000000 0.000000
# 4 0.000000 0.000000 0.000000 0.031732 0.000000 0.000000
# 5 0.000000 0.000000 0.000000 0.000000 0.041077 0.000000
# 6 0.000000 0.000000 0.000000 0.000000 0.000000 0.034676
#
#
# Mechanical properties :
#
#
# Convention : Reuss Voigt Hill
#
# Bulk Modulus (GPa) = 59.49893 76.85486 68.17689
# Shear Modulus (GPa) = 26.56181 29.27734 27.91957
#
# Velocity S-wave (km/s) = 3.58656 3.76543 3.67708
# Velocity P-wave (km/s) = 6.77978 7.49160 7.14456
#
# Compressibility (1/GPa) = 0.01680703
#
# Stress axis : x y z
#
# Youngs Moduli (GPa) = 109.13308 85.56230 39.79363
#
# Poissons Ratio (x) = 0.26570 0.20824
# Poissons Ratio (y) = 0.33890 0.24863
# Poissons Ratio (z) = 0.57111 0.53460
#
# Static dielectric constant tensor:
#      x y z
#    x 3.682000 0.000000 0.000000 
#    y 0.000000 4.187500 0.000000 
#    z 0.000000 0.000000 3.640610 
# 
# 
# High freq. dielectric constant tensor:
#      x y z
#    x 1.787710 0.000000 0.000000 
#    y 0.000000 1.824980 0.000000 
#    z 0.000000 0.000000 1.809430 
# 
# From -- ./inp_files/48768.got.cif
#   From: 2010.03.12/outbox.cif.g09.slc.cpg/sg63_25_cif.got.tgz:48768.got - 2010.04.10 19:34:48.
