data_PCOD8261423
_publ_section_title
;
Structure prediction by ZEFSAII (Michael W. Deem and Ramdas Pophale) SiO2 
 PCOD8261423
Probable space group: C M C A
;
_chemical_formula_sum "Si O2"
_cell_formula_units_Z 56
_cell_length_a 33.209069
_cell_length_b 14.686130
_cell_length_c 5.099371
_cell_angle_alpha 90.000000
_cell_angle_beta 90.000000
_cell_angle_gamma 90.000000
_cell_volume 2487.028022
_symmetry_space_group_name_H-M "C M C A"
_symmetry_group_IT_number 64
_symmetry_cell_setting 'orthorhombic'
loop_
_space_group_symop_operation_xyz
x,y,z
-x,1/2-y,1/2+z
x,-y,-z
-x,1/2+y,1/2-z
-x,-y,-z
x,1/2+y,1/2-z
-x,y,z
x,1/2-y,1/2+z
1/2+x,1/2+y,z
1/2-x,-y,1/2+z
1/2+x,1/2-y,-z
1/2-x,y,1/2-z
1/2-x,1/2-y,-z
1/2+x,y,1/2-z
1/2-x,1/2+y,z
1/2+x,-y,1/2+z
loop_
_atom_site_type_symbol
_atom_site_label
_atom_site_fract_x
_atom_site_fract_y
_atom_site_fract_z
Si Si1 0.000000 0.810479 0.355637
Si Si2 0.268163 0.850951 0.497020
Si Si3 0.860601 0.809808 0.043752
Si Si4 0.927430 0.057914 0.758567
O O1 0.039813 0.869643 0.330139
O O2 0.000000 0.729707 0.146833
O O3 0.250000 0.902592 0.750000
O O4 0.250000 0.750000 0.500000
O O5 0.315818 0.848889 0.465715
O O6 0.250000 0.904971 0.250000
O O7 0.868996 0.730604 0.255875
O O8 0.888551 0.894499 0.114498
O O9 0.915393 0.000000 0.500000
O O10 0.945968 0.000000 0.000000
#
# Coordination Sequence:
#
# PCOD8261423 Si02
#       4
#     8  16  16  16
#     4  12  24  46  74 100 124 162 232 280 312 384
#     4  10  16  30  52  90 118 150 204 273 316 350
#     4  12  21  36  63  94 123 160 224 276 307 376
#     4  12  26  44  63  94 138 179 205 258 348 409
#
# _framework density 22.516833999999999
#
# number of rings (size 3 to 8) (size 9 to 14) (size 15 to 20)
#    0.000    0.571    5.714    6.000    0.000    0.000 
#    0.000    0.000    0.000    3.429    0.000    0.000 
#    0.000    0.000    0.000    0.000    0.000    0.000 
#
# Total GULP energy -347066.193532 kJ/mol
# GULP energy per Si atom -12395.221198 kJ/mol
# Density = 2.246558 g / cm^3
# Si number density = 22.516834 Si / 1000 Ang^3
#
#
#
# Elastic Constant Matrix: (Units=GPa)
#
#
# Indices 1 2 3 4 5 6 
#
# 1 143.9503 39.4772 20.3871 0.0000 0.0000 0.0000
# 2 39.4772 67.4021 20.2295 0.0000 0.0000 0.0000
# 3 20.3871 20.2295 158.9267 0.0000 0.0000 0.0000
# 4 0.0000 0.0000 0.0000 8.8265 0.0000 0.0000
# 5 0.0000 0.0000 0.0000 0.0000 36.7603 0.0000
# 6 0.0000 0.0000 0.0000 0.0000 0.0000 9.2945
#
#
#
# Elastic Compliance Matrix: (Units=1/GPa)
#
#
# Indices 1 2 3 4 5 6 
#
# 1 0.008309 -0.004727 -0.000464 0.000000 0.000000 0.000000
# 2 -0.004727 0.018115 -0.001699 0.000000 0.000000 0.000000
# 3 -0.000464 -0.001699 0.006568 0.000000 0.000000 0.000000
# 4 0.000000 0.000000 0.000000 0.113295 0.000000 0.000000
# 5 0.000000 0.000000 0.000000 0.000000 0.027203 0.000000
# 6 0.000000 0.000000 0.000000 0.000000 0.000000 0.107591
#
#
# Mechanical properties :
#
#
# Convention : Reuss Voigt Hill
#
# Bulk Modulus (GPa) = 52.05484 58.94075 55.49780
# Shear Modulus (GPa) = 16.59663 30.32196 23.45929
#
# Velocity S-wave (km/s) = 2.71786 3.67363 3.23128
# Velocity P-wave (km/s) = 5.74608 6.65036 6.21469
#
# Compressibility (1/GPa) = 0.01921051
#
# Stress axis : x y z
#
# Youngs Moduli (GPa) = 120.35163 55.20253 152.25178
#
# Poissons Ratio (x) = 0.26096 0.07067
# Poissons Ratio (y) = 0.56893 0.25874
# Poissons Ratio (z) = 0.05586 0.09381
#
# Static dielectric constant tensor:
#      x y z
#    x 4.285060 0.000000 0.000000 
#    y 0.000000 3.713910 0.000000 
#    z 0.000000 0.000000 4.141020 
# 
# 
# High freq. dielectric constant tensor:
#      x y z
#    x 1.895020 0.000000 0.000000 
#    y 0.000000 1.863680 0.000000 
#    z 0.000000 0.000000 1.925260 
# 
# From -- ./inp_files/3085.got.cif
#   From: 2010.03.12/outbox.cif.g09.slc.cpg/sg64_2_cif.got.tgz:3085.got - 2010.04.10 20:19:32.
