data_PCOD8261237
_publ_section_title
;
Structure prediction by ZEFSAII (Michael W. Deem and Ramdas Pophale) SiO2 
 PCOD8261237
Probable space group: C M C M
;
_chemical_formula_sum "Si O2"
_cell_formula_units_Z 84
_cell_length_a 11.692476
_cell_length_b 14.439261
_cell_length_c 23.801439
_cell_angle_alpha 90.000000
_cell_angle_beta 90.000000
_cell_angle_gamma 90.000000
_cell_volume 4018.413910
_symmetry_space_group_name_H-M "C M C M"
_symmetry_group_IT_number 63
_symmetry_cell_setting 'orthorhombic'
loop_
_space_group_symop_operation_xyz
x,y,z
-x,-y,1/2+z
x,-y,-z
-x,y,1/2-z
-x,-y,-z
x,y,1/2-z
-x,y,z
x,-y,1/2+z
1/2+x,1/2+y,z
1/2-x,1/2-y,1/2+z
1/2+x,1/2-y,-z
1/2-x,1/2+y,1/2-z
1/2-x,1/2-y,-z
1/2+x,1/2+y,1/2-z
1/2-x,1/2+y,z
1/2+x,1/2-y,1/2+z
loop_
_atom_site_type_symbol
_atom_site_label
_atom_site_fract_x
_atom_site_fract_y
_atom_site_fract_z
Si Si1 0.627257 0.602248 0.750000
Si Si2 0.368463 0.494312 0.566194
Si Si3 0.257580 0.860991 0.135130
Si Si4 0.170165 0.101126 0.250000
Si Si5 0.500000 0.877496 0.685141
Si Si6 0.500000 0.235974 0.750000
Si Si7 0.000000 0.417598 0.341182
Si Si8 0.767953 0.348788 0.864512
O O1 0.500000 0.650118 0.750000
O O2 0.705070 0.631100 0.802518
O O3 0.598010 0.492970 0.750000
O O4 0.357033 0.500000 0.500000
O O5 0.500000 0.473690 0.584362
O O6 0.331256 0.593117 0.591865
O O7 0.284607 0.413013 0.587014
O O8 0.379933 0.912585 0.125118
O O9 0.280186 0.753131 0.123028
O O10 0.243083 0.099937 0.194091
O O11 0.107254 0.198088 0.250000
O O12 0.500000 0.836517 0.750000
O O13 0.596873 0.841671 0.642239
O O14 0.500000 0.987906 0.693515
O O15 0.500000 0.173690 0.804075
#
# Coordination Sequence:
#
# PCOD8261237 Si02
#       8
#     8  16  16   8   8   4   8  16
#     4  12  24  38  64 103 143 180 223 275 338 409
#     4  11  27  51  74  95 128 178 238 293 339 397
#     4  12  26  42  68 102 136 177 222 278 341 413
#     4  12  21  38  62 104 137 179 222 271 329 406
#     4  12  24  40  61 102 148 178 211 265 346 411
#     4  12  22  32  62 104 138 176 236 264 322 416
#     4  12  22  40  60  95 139 178 213 269 336 394
#     4  12  26  42  69 101 139 180 221 276 343 414
#
# _framework density 20.903770000000002
#
# number of rings (size 3 to 8) (size 9 to 14) (size 15 to 20)
#    0.000    0.190    7.619    1.714    5.333    0.762 
#    0.000    1.905    0.000    0.000    0.000    0.000 
#    0.000    0.000    0.000    0.000    0.000    0.000 
#
# Total GULP energy -520453.010414 kJ/mol
# GULP energy per Si atom -12391.738343 kJ/mol
# Density = 2.085619 g / cm^3
# Si number density = 20.903770 Si / 1000 Ang^3
#
#
#
# Elastic Constant Matrix: (Units=GPa)
#
#
# Indices 1 2 3 4 5 6 
#
# 1 138.0294 0.7235 41.5913 0.0000 0.0000 0.0000
# 2 0.7235 91.4262 24.3718 0.0000 0.0000 0.0000
# 3 41.5913 24.3718 95.3582 0.0000 0.0000 0.0000
# 4 0.0000 0.0000 0.0000 63.0600 0.0000 0.0000
# 5 0.0000 0.0000 0.0000 0.0000 39.1517 0.0000
# 6 0.0000 0.0000 0.0000 0.0000 0.0000 22.3185
#
#
#
# Elastic Compliance Matrix: (Units=1/GPa)
#
#
# Indices 1 2 3 4 5 6 
#
# 1 0.008422 0.000979 -0.003924 0.000000 0.000000 0.000000
# 2 0.000979 0.011851 -0.003456 0.000000 0.000000 0.000000
# 3 -0.003924 -0.003456 0.013081 0.000000 0.000000 0.000000
# 4 0.000000 0.000000 0.000000 0.015858 0.000000 0.000000
# 5 0.000000 0.000000 0.000000 0.000000 0.025542 0.000000
# 6 0.000000 0.000000 0.000000 0.000000 0.000000 0.044806
#
#
# Mechanical properties :
#
#
# Convention : Reuss Voigt Hill
#
# Bulk Modulus (GPa) = 48.65265 50.90966 49.78116
# Shear Modulus (GPa) = 35.91637 42.11453 39.01545
#
# Velocity S-wave (km/s) = 4.14959 4.49339 4.32491
# Velocity P-wave (km/s) = 6.80322 7.16435 6.98612
#
# Compressibility (1/GPa) = 0.02055386
#
# Stress axis : x y z
#
# Youngs Moduli (GPa) = 118.73707 84.37863 76.44434
#
# Poissons Ratio (x) = -0.08263 0.29994
# Poissons Ratio (y) = -0.11628 0.26420
# Poissons Ratio (z) = 0.46588 0.29162
#
# Static dielectric constant tensor:
#      x y z
#    x 4.403850 0.000000 0.000000 
#    y 0.000000 3.872160 0.000000 
#    z 0.000000 0.000000 3.332870 
# 
# 
# High freq. dielectric constant tensor:
#      x y z
#    x 1.840990 0.000000 0.000000 
#    y 0.000000 1.836800 0.000000 
#    z 0.000000 0.000000 1.775990 
# 
# From -- ./inp_files/61331.got.cif
#   From: 2010.03.12/outbox.cif.g09.slc.cpg/sg63_31_cif.got.tgz:61331.got - 2010.04.10 19:34:48.
