data_PCOD8261544
_publ_section_title
;
Structure prediction by ZEFSAII (Michael W. Deem and Ramdas Pophale) SiO2 
 PCOD8261544
Probable space group: C M C A
;
_chemical_formula_sum "Si O2"
_cell_formula_units_Z 88
_cell_length_a 15.444654
_cell_length_b 22.473925
_cell_length_c 13.063308
_cell_angle_alpha 90.000000
_cell_angle_beta 90.000000
_cell_angle_gamma 90.000000
_cell_volume 4534.300277
_symmetry_space_group_name_H-M "C M C A"
_symmetry_group_IT_number 64
_symmetry_cell_setting 'orthorhombic'
loop_
_space_group_symop_operation_xyz
x,y,z
-x,1/2-y,1/2+z
x,-y,-z
-x,1/2+y,1/2-z
-x,-y,-z
x,1/2+y,1/2-z
-x,y,z
x,1/2-y,1/2+z
1/2+x,1/2+y,z
1/2-x,-y,1/2+z
1/2+x,1/2-y,-z
1/2-x,y,1/2-z
1/2-x,1/2-y,-z
1/2+x,y,1/2-z
1/2-x,1/2+y,z
1/2+x,-y,1/2+z
loop_
_atom_site_type_symbol
_atom_site_label
_atom_site_fract_x
_atom_site_fract_y
_atom_site_fract_z
Si Si1 0.093420 0.493037 0.380453
Si Si2 0.097092 0.884394 0.408629
Si Si3 0.235441 0.818169 0.022877
Si Si4 0.780406 0.911867 0.860187
Si Si5 0.666604 0.000000 0.000000
Si Si6 0.899485 0.132983 0.829063
O O1 0.085758 0.500000 0.500000
O O2 0.134770 0.550900 0.330116
O O3 0.141753 0.430798 0.360714
O O4 0.000000 0.486743 0.327162
O O5 0.169370 0.846191 0.465408
O O6 0.110295 0.955129 0.429388
O O7 0.106391 0.864108 0.291962
O O8 0.000000 0.868033 0.447149
O O9 0.167531 0.821227 0.117674
O O10 0.250000 0.750000 0.000000
O O11 0.195229 0.853693 0.926242
O O12 0.750000 0.888689 0.750000
O O13 0.722447 0.959773 0.922253
O O14 0.000000 0.142745 0.866005
#
# Coordination Sequence:
#
# PCOD8261544 Si02
#       6
#    16  16  16  16   8  16
#     4  10  17  31  56  86 114 138 172 223 284 345
#     4  10  21  37  59  87 115 148 188 229 281 348
#     4  11  24  40  57  77 111 155 198 243 282 319
#     4  11  21  34  53  82 112 148 190 230 280 341
#     4  10  19  34  57  84 120 152 173 224 288 348
#     4  10  20  36  62  89 112 144 186 232 288 347
#
# _framework density 19.407626
#
# number of rings (size 3 to 8) (size 9 to 14) (size 15 to 20)
#    0.000    1.636    2.727    3.000    0.000    2.182 
#    0.000    3.636    0.000    0.000    0.000    0.000 
#    0.000    0.000    0.000    0.000    0.000    0.000 
#
# Total GULP energy -545151.828338 kJ/mol
# GULP energy per Si atom -12389.814280 kJ/mol
# Density = 1.936345 g / cm^3
# Si number density = 19.407626 Si / 1000 Ang^3
#
#
#
# Elastic Constant Matrix: (Units=GPa)
#
#
# Indices 1 2 3 4 5 6 
#
# 1 88.2231 43.3307 17.6836 0.0000 0.0000 0.0000
# 2 43.3307 131.3792 25.4558 0.0000 0.0000 0.0000
# 3 17.6836 25.4558 69.4030 0.0000 0.0000 0.0000
# 4 0.0000 0.0000 0.0000 16.7375 0.0000 0.0000
# 5 0.0000 0.0000 0.0000 0.0000 30.8036 0.0000
# 6 0.0000 0.0000 0.0000 0.0000 0.0000 18.2113
#
#
#
# Elastic Compliance Matrix: (Units=1/GPa)
#
#
# Indices 1 2 3 4 5 6 
#
# 1 0.013775 -0.004159 -0.001985 0.000000 0.000000 0.000000
# 2 -0.004159 0.009449 -0.002406 0.000000 0.000000 0.000000
# 3 -0.001985 -0.002406 0.015797 0.000000 0.000000 0.000000
# 4 0.000000 0.000000 0.000000 0.059746 0.000000 0.000000
# 5 0.000000 0.000000 0.000000 0.000000 0.032464 0.000000
# 6 0.000000 0.000000 0.000000 0.000000 0.000000 0.054911
#
#
# Mechanical properties :
#
#
# Convention : Reuss Voigt Hill
#
# Bulk Modulus (GPa) = 45.61538 51.32729 48.47134
# Shear Modulus (GPa) = 23.74748 26.65283 25.20015
#
# Velocity S-wave (km/s) = 3.50182 3.70985 3.60733
# Velocity P-wave (km/s) = 6.31705 6.69739 6.51000
#
# Compressibility (1/GPa) = 0.02192243
#
# Stress axis : x y z
#
# Youngs Moduli (GPa) = 72.59403 105.82694 63.30387
#
# Poissons Ratio (x) = 0.44011 0.12563
# Poissons Ratio (y) = 0.30190 0.15232
# Poissons Ratio (z) = 0.14407 0.25464
#
# Static dielectric constant tensor:
#      x y z
#    x 4.219310 0.000000 0.000000 
#    y 0.000000 3.395990 0.000000 
#    z 0.000000 0.000000 3.512550 
# 
# 
# High freq. dielectric constant tensor:
#      x y z
#    x 1.760350 0.000000 0.000000 
#    y 0.000000 1.734160 0.000000 
#    z 0.000000 0.000000 1.751330 
# 
# From -- ./inp_files/23743.got.cif
#   From: 2010.03.12/outbox.cif.g09.slc.cpg/sg64_12_cif.got.tgz:23743.got - 2010.04.10 20:19:32.
