data_PCOD8261476
_publ_section_title
;
Structure prediction by ZEFSAII (Michael W. Deem and Ramdas Pophale) SiO2 
 PCOD8261476
Probable space group: C M C A
;
_chemical_formula_sum "Si O2"
_cell_formula_units_Z 96
_cell_length_a 8.713984
_cell_length_b 19.830752
_cell_length_c 31.218971
_cell_angle_alpha 90.000000
_cell_angle_beta 90.000000
_cell_angle_gamma 90.000000
_cell_volume 5394.789777
_symmetry_space_group_name_H-M "C M C A"
_symmetry_group_IT_number 64
_symmetry_cell_setting 'orthorhombic'
loop_
_space_group_symop_operation_xyz
x,y,z
-x,1/2-y,1/2+z
x,-y,-z
-x,1/2+y,1/2-z
-x,-y,-z
x,1/2+y,1/2-z
-x,y,z
x,1/2-y,1/2+z
1/2+x,1/2+y,z
1/2-x,-y,1/2+z
1/2+x,1/2-y,-z
1/2-x,y,1/2-z
1/2-x,1/2-y,-z
1/2+x,y,1/2-z
1/2-x,1/2+y,z
1/2+x,-y,1/2+z
loop_
_atom_site_type_symbol
_atom_site_label
_atom_site_fract_x
_atom_site_fract_y
_atom_site_fract_z
Si Si1 0.319083 0.670100 0.120139
Si Si2 0.818933 0.576624 0.049503
Si Si3 0.819601 0.669772 0.207215
Si Si4 0.821041 0.683301 0.790759
Si Si5 0.178735 0.178085 0.615481
Si Si6 0.681319 0.575076 0.547283
O O1 0.500000 0.672223 0.126880
O O2 0.275699 0.625418 0.079790
O O3 0.245797 0.637790 0.163205
O O4 0.254055 0.746067 0.112237
O O5 0.760828 0.500324 0.057760
O O6 0.000000 0.584415 0.057958
O O7 0.775794 0.596936 0.000863
O O8 0.750000 0.634158 0.250000
O O9 0.771704 0.747462 0.207571
O O10 0.000000 0.660401 0.207943
O O11 0.750000 0.641683 0.750000
O O12 0.794701 0.647038 0.836613
O O13 0.000000 0.698145 0.783324
O O14 0.256968 0.128193 0.580750
O O15 0.000000 0.182291 0.604997
O O16 0.500000 0.573516 0.552163
#
# Coordination Sequence:
#
# PCOD8261476 Si02
#       6
#    16  16  16  16  16  16
#     4  10  19  30  45  68  97 124 151 186 229 275
#     4   9  17  30  50  70  87 116 157 197 234 277
#     4  10  17  27  44  66  93 122 153 187 224 268
#     4   9  15  24  40  63  91 121 150 181 222 269
#     4   8  15  27  44  66  91 120 151 186 229 273
#     4   8  15  30  49  67  88 117 157 196 232 280
#
# _framework density 17.794948000000002
#
# number of rings (size 3 to 8) (size 9 to 14) (size 15 to 20)
#    0.000    3.000    0.000    5.500    0.000    0.667 
#    0.000    1.667    0.000   12.000    0.000    2.333 
#    0.000    0.000    0.000    0.000    0.000    0.000 
#
# Total GULP energy -594701.195525 kJ/mol
# GULP energy per Si atom -12389.608240 kJ/mol
# Density = 1.775445 g / cm^3
# Si number density = 17.794948 Si / 1000 Ang^3
#
#
#
# Elastic Constant Matrix: (Units=GPa)
#
#
# Indices 1 2 3 4 5 6 
#
# 1 69.3910 20.7214 41.2332 0.0000 0.0000 0.0000
# 2 20.7214 61.3765 66.7666 0.0000 0.0000 0.0000
# 3 41.2332 66.7666 166.0702 0.0000 0.0000 0.0000
# 4 0.0000 0.0000 0.0000 3.6881 0.0000 0.0000
# 5 0.0000 0.0000 0.0000 0.0000 26.0743 0.0000
# 6 0.0000 0.0000 0.0000 0.0000 0.0000 10.4014
#
#
#
# Elastic Compliance Matrix: (Units=1/GPa)
#
#
# Indices 1 2 3 4 5 6 
#
# 1 0.017049 -0.002046 -0.003410 0.000000 0.000000 0.000000
# 2 -0.002046 0.029203 -0.011233 0.000000 0.000000 0.000000
# 3 -0.003410 -0.011233 0.011384 0.000000 0.000000 0.000000
# 4 0.000000 0.000000 0.000000 0.271145 0.000000 0.000000
# 5 0.000000 0.000000 0.000000 0.000000 0.038352 0.000000
# 6 0.000000 0.000000 0.000000 0.000000 0.000000 0.096141
#
#
# Mechanical properties :
#
#
# Convention : Reuss Voigt Hill
#
# Bulk Modulus (GPa) = 41.22407 61.58667 51.40537
# Shear Modulus (GPa) = 9.90614 19.24052 14.57333
#
# Velocity S-wave (km/s) = 2.36197 3.29178 2.86485
# Velocity P-wave (km/s) = 5.53670 7.00942 6.31613
#
# Compressibility (1/GPa) = 0.02425767
#
# Stress axis : x y z
#
# Youngs Moduli (GPa) = 58.65604 34.24344 87.84043
#
# Poissons Ratio (x) = 0.07006 0.29958
# Poissons Ratio (y) = 0.12000 0.98668
# Poissons Ratio (z) = 0.20004 0.38464
#
# Static dielectric constant tensor:
#      x y z
#    x 3.041800 0.000000 0.000000 
#    y 0.000000 3.139580 0.000000 
#    z 0.000000 0.000000 4.148260 
# 
# 
# High freq. dielectric constant tensor:
#      x y z
#    x 1.665130 0.000000 0.000000 
#    y 0.000000 1.636500 0.000000 
#    z 0.000000 0.000000 1.714560 
# 
# From -- ./inp_files/43020.got.cif
#   From: 2010.03.12/outbox.cif.g09.slc.cpg/sg64_22_cif.got.tgz:43020.got - 2010.04.10 20:19:32.
