data_PCOD8261220
_publ_section_title
;
Structure prediction by ZEFSAII (Michael W. Deem and Ramdas Pophale) SiO2 
 PCOD8261220
Probable space group: C M C M
;
_chemical_formula_sum "Si O2"
_cell_formula_units_Z 48
_cell_length_a 9.964634
_cell_length_b 9.954076
_cell_length_c 23.112620
_cell_angle_alpha 90.000000
_cell_angle_beta 90.000000
_cell_angle_gamma 90.000000
_cell_volume 2292.511290
_symmetry_space_group_name_H-M "C M C M"
_symmetry_group_IT_number 63
_symmetry_cell_setting 'orthorhombic'
loop_
_space_group_symop_operation_xyz
x,y,z
-x,-y,1/2+z
x,-y,-z
-x,y,1/2-z
-x,-y,-z
x,y,1/2-z
-x,y,z
x,-y,1/2+z
1/2+x,1/2+y,z
1/2-x,1/2-y,1/2+z
1/2+x,1/2-y,-z
1/2-x,1/2+y,1/2-z
1/2-x,1/2-y,-z
1/2+x,1/2+y,1/2-z
1/2-x,1/2+y,z
1/2+x,1/2-y,1/2+z
loop_
_atom_site_type_symbol
_atom_site_label
_atom_site_fract_x
_atom_site_fract_y
_atom_site_fract_z
Si Si1 0.500000 0.646605 0.473593
Si Si2 0.500000 0.896122 0.948265
Si Si3 0.732356 0.362639 0.884480
Si Si4 0.153843 0.879558 0.183655
O O1 0.500000 0.500000 0.500000
O O2 0.500000 0.744399 0.528456
O O3 0.367094 0.672819 0.436627
O O4 0.370222 0.921497 0.909246
O O5 0.500000 0.000000 0.000000
O O6 0.752711 0.226471 0.848814
O O7 0.667761 0.473142 0.843057
O O8 0.199892 0.886497 0.250000
O O9 0.000000 0.832150 0.177974
#
# Coordination Sequence:
#
# PCOD8261220 Si02
#       4
#     8   8  16  16
#     4  12  24  42  67  98 135 178 218 268 330 394
#     4  12  24  40  63 100 133 170 222 272 316 392
#     4  12  23  45  68  99 134 174 222 269 333 389
#     4  11  24  45  69  99 134 173 219 277 334 389
#
# _framework density 20.937739000000001
#
# number of rings (size 3 to 8) (size 9 to 14) (size 15 to 20)
#    0.000    0.333    3.333    7.000    0.000    0.000 
#    0.000    1.667    0.000    0.000    0.000    0.000 
#    0.000    0.000    0.000    0.000    0.000    0.000 
#
# Total GULP energy -297844.069533 kJ/mol
# GULP energy per Si atom -12410.169564 kJ/mol
# Density = 2.089008 g / cm^3
# Si number density = 20.937739 Si / 1000 Ang^3
#
#
#
# Elastic Constant Matrix: (Units=GPa)
#
#
# Indices 1 2 3 4 5 6 
#
# 1 102.7985 -7.2389 27.3387 0.0000 0.0000 0.0000
# 2 -7.2389 104.1193 20.0196 0.0000 0.0000 0.0000
# 3 27.3387 20.0196 99.9155 0.0000 0.0000 0.0000
# 4 0.0000 0.0000 0.0000 39.5084 0.0000 0.0000
# 5 0.0000 0.0000 0.0000 0.0000 41.3440 0.0000
# 6 0.0000 0.0000 0.0000 0.0000 0.0000 33.8069
#
#
#
# Elastic Compliance Matrix: (Units=1/GPa)
#
#
# Indices 1 2 3 4 5 6 
#
# 1 0.010672 0.001356 -0.003192 0.000000 0.000000 0.000000
# 2 0.001356 0.010161 -0.002407 0.000000 0.000000 0.000000
# 3 -0.003192 -0.002407 0.011364 0.000000 0.000000 0.000000
# 4 0.000000 0.000000 0.000000 0.025311 0.000000 0.000000
# 5 0.000000 0.000000 0.000000 0.000000 0.024187 0.000000
# 6 0.000000 0.000000 0.000000 0.000000 0.000000 0.029580
#
#
# Mechanical properties :
#
#
# Convention : Reuss Voigt Hill
#
# Bulk Modulus (GPa) = 42.17353 43.00802 42.59077
# Shear Modulus (GPa) = 39.16488 40.71279 39.93883
#
# Velocity S-wave (km/s) = 4.32967 4.41440 4.37224
# Velocity P-wave (km/s) = 6.72166 6.82408 6.77306
#
# Compressibility (1/GPa) = 0.02371156
#
# Stress axis : x y z
#
# Youngs Moduli (GPa) = 93.70275 98.41155 87.99693
#
# Poissons Ratio (x) = -0.13341 0.28086
# Poissons Ratio (y) = -0.12703 0.21180
# Poissons Ratio (z) = 0.29907 0.23687
#
# Static dielectric constant tensor:
#      x y z
#    x 3.924220 0.000000 0.000000 
#    y 0.000000 3.797950 0.000000 
#    z 0.000000 0.000000 4.318480 
# 
# 
# High freq. dielectric constant tensor:
#      x y z
#    x 1.829260 0.000000 0.000000 
#    y 0.000000 1.829290 0.000000 
#    z 0.000000 0.000000 1.835820 
# 
# From -- ./inp_files/58886.got.cif
#   From: 2010.03.12/outbox.cif.g09.slc.cpg/sg63_30_cif.got.tgz:58886.got - 2010.04.10 19:34:48.
