data_PCOD8261977
_publ_section_title
;
Structure prediction by ZEFSAII (Michael W. Deem and Ramdas Pophale) SiO2 
 PCOD8261977
Probable space group: C M C A
;
_chemical_formula_sum "Si O2"
_cell_formula_units_Z 96
_cell_length_a 8.824349
_cell_length_b 26.755982
_cell_length_c 23.217287
_cell_angle_alpha 90.000000
_cell_angle_beta 90.000000
_cell_angle_gamma 90.000000
_cell_volume 5481.697186
_symmetry_space_group_name_H-M "C M C A"
_symmetry_group_IT_number 64
_symmetry_cell_setting 'orthorhombic'
loop_
_space_group_symop_operation_xyz
x,y,z
-x,1/2-y,1/2+z
x,-y,-z
-x,1/2+y,1/2-z
-x,-y,-z
x,1/2+y,1/2-z
-x,y,z
x,1/2-y,1/2+z
1/2+x,1/2+y,z
1/2-x,-y,1/2+z
1/2+x,1/2-y,-z
1/2-x,y,1/2-z
1/2-x,1/2-y,-z
1/2+x,y,1/2-z
1/2-x,1/2+y,z
1/2+x,-y,1/2+z
loop_
_atom_site_type_symbol
_atom_site_label
_atom_site_fract_x
_atom_site_fract_y
_atom_site_fract_z
Si Si1 0.323006 0.192472 0.811100
Si Si2 0.678779 0.694520 0.187708
Si Si3 0.679043 0.942972 0.502966
Si Si4 0.332108 0.300202 0.490005
Si Si5 0.324960 0.130719 0.593395
Si Si6 0.832671 0.371631 0.906939
O O1 0.500000 0.188039 0.803552
O O2 0.250000 0.183170 0.750000
O O3 0.279664 0.248689 0.834082
O O4 0.269547 0.145921 0.850397
O O5 0.500000 0.688595 0.192671
O O6 0.750000 0.685494 0.250000
O O7 0.737781 0.650257 0.146402
O O8 0.500000 0.937228 0.510723
O O9 0.728496 0.919438 0.440817
O O10 0.753096 0.917324 0.559159
O O11 0.732771 0.000000 0.500000
O O12 0.500000 0.295263 0.460081
O O13 0.250000 0.250000 0.500000
O O14 0.206150 0.326368 0.451961
O O15 0.354566 0.326042 0.550465
O O16 0.500000 0.127903 0.610797
O O17 0.000000 0.389357 0.885901
#
# Coordination Sequence:
#
# PCOD8261977 Si02
#       6
#    16  16  16  16  16  16
#     4  10  20  33  50  73 103 138 173 205 240 287
#     4  10  20  33  50  72 101 137 172 204 239 285
#     4   9  19  36  56  76  98 127 164 208 258 306
#     4  10  19  29  43  66  97 130 162 198 241 291
#     4  10  19  31  49  72  98 128 163 203 248 297
#     4  10  20  32  48  72 100 129 163 203 247 296
#
# _framework density 17.512823000000001
#
# number of rings (size 3 to 8) (size 9 to 14) (size 15 to 20)
#    0.000    2.167    0.000    3.500    0.000    7.667 
#    0.000    0.000    0.000    1.000    0.000    4.667 
#    0.000    0.000    0.000    0.000    0.000    0.000 
#
# Total GULP energy -594635.783464 kJ/mol
# GULP energy per Si atom -12388.245489 kJ/mol
# Density = 1.747296 g / cm^3
# Si number density = 17.512823 Si / 1000 Ang^3
#
#
#
# Elastic Constant Matrix: (Units=GPa)
#
#
# Indices 1 2 3 4 5 6 
#
# 1 78.7479 44.5672 47.1126 0.0000 0.0000 0.0000
# 2 44.5672 127.6015 56.5119 0.0000 0.0000 0.0000
# 3 47.1126 56.5119 99.3123 0.0000 0.0000 0.0000
# 4 0.0000 0.0000 0.0000 17.2644 0.0000 0.0000
# 5 0.0000 0.0000 0.0000 0.0000 33.1728 0.0000
# 6 0.0000 0.0000 0.0000 0.0000 0.0000 15.8795
#
#
#
# Elastic Compliance Matrix: (Units=1/GPa)
#
#
# Indices 1 2 3 4 5 6 
#
# 1 0.018834 -0.003504 -0.006941 0.000000 0.000000 0.000000
# 2 -0.003504 0.011129 -0.004671 0.000000 0.000000 0.000000
# 3 -0.006941 -0.004671 0.016020 0.000000 0.000000 0.000000
# 4 0.000000 0.000000 0.000000 0.057923 0.000000 0.000000
# 5 0.000000 0.000000 0.000000 0.000000 0.030145 0.000000
# 6 0.000000 0.000000 0.000000 0.000000 0.000000 0.062974
#
#
# Mechanical properties :
#
#
# Convention : Reuss Voigt Hill
#
# Bulk Modulus (GPa) = 63.48378 66.89390 65.18884
# Shear Modulus (GPa) = 21.50469 23.76135 22.63302
#
# Velocity S-wave (km/s) = 3.50800 3.68747 3.59885
# Velocity P-wave (km/s) = 7.26200 7.51065 7.38737
#
# Compressibility (1/GPa) = 0.01575205
#
# Stress axis : x y z
#
# Youngs Moduli (GPa) = 53.09406 89.85261 62.42383
#
# Poissons Ratio (x) = 0.31488 0.43327
# Poissons Ratio (y) = 0.18606 0.29155
# Poissons Ratio (z) = 0.36851 0.41966
#
# Static dielectric constant tensor:
#      x y z
#    x 3.375340 0.000000 0.000000 
#    y 0.000000 3.133640 0.000000 
#    z 0.000000 0.000000 3.079680 
# 
# 
# High freq. dielectric constant tensor:
#      x y z
#    x 1.692350 0.000000 0.000000 
#    y 0.000000 1.652920 0.000000 
#    z 0.000000 0.000000 1.669620 
# 
# From -- ./inp_files/37088.got.cif
#   From: 2010.03.12/outbox.cif.g09.slc.cpg/sg64_19_cif.got.tgz:37088.got - 2010.04.10 20:19:32.
