data_PCOD8261005
_publ_section_title
;
Structure prediction by ZEFSAII (Michael W. Deem and Ramdas Pophale) SiO2 
 PCOD8261005
Probable space group: C M C M
;
_chemical_formula_sum "Si O2"
_cell_formula_units_Z 64
_cell_length_a 27.387399
_cell_length_b 14.752434
_cell_length_c 8.379152
_cell_angle_alpha 90.000000
_cell_angle_beta 90.000000
_cell_angle_gamma 90.000000
_cell_volume 3385.435454
_symmetry_space_group_name_H-M "C M C M"
_symmetry_group_IT_number 63
_symmetry_cell_setting 'orthorhombic'
loop_
_space_group_symop_operation_xyz
x,y,z
-x,-y,1/2+z
x,-y,-z
-x,y,1/2-z
-x,-y,-z
x,y,1/2-z
-x,y,z
x,-y,1/2+z
1/2+x,1/2+y,z
1/2-x,1/2-y,1/2+z
1/2+x,1/2-y,-z
1/2-x,1/2+y,1/2-z
1/2-x,1/2-y,-z
1/2+x,1/2+y,1/2-z
1/2-x,1/2+y,z
1/2+x,1/2-y,1/2+z
loop_
_atom_site_type_symbol
_atom_site_label
_atom_site_fract_x
_atom_site_fract_y
_atom_site_fract_z
Si Si1 0.862110 0.229528 0.063387
Si Si2 0.283263 0.597852 0.563209
Si Si3 0.445260 0.403082 0.561168
Si Si4 0.823415 0.594163 0.063759
O O1 0.866769 0.248937 0.250000
O O2 0.908881 0.174336 0.997000
O O3 0.812942 0.174213 0.029997
O O4 0.861288 0.325207 0.971167
O O5 0.300125 0.500000 0.500000
O O6 0.294116 0.605689 0.750000
O O7 0.226388 0.614456 0.530610
O O8 0.426421 0.500000 0.500000
O O9 0.444252 0.405165 0.750000
O O10 0.500000 0.383177 0.496923
O O11 0.811647 0.586155 0.250000
O O12 0.846355 0.500000 0.000000
#
# Coordination Sequence:
#
# PCOD8261005 Si02
#       4
#    16  16  16  16
#     4  11  21  34  53  77 105 137 174 213 256 305
#     4  11  21  34  51  75 107 140 175 212 255 304
#     4   9  19  35  55  79 107 137 168 206 253 304
#     4  11  22  37  54  74 102 136 175 215 258 303
#
# _framework density 18.904509000000001
#
# number of rings (size 3 to 8) (size 9 to 14) (size 15 to 20)
#    0.000    1.500    0.000    8.250    0.000    4.000 
#    0.000    0.000    0.000    0.750    0.000    0.000 
#    0.000    0.000    0.000    0.000    0.000    0.000 
#
# Total GULP energy -396936.639771 kJ/mol
# GULP energy per Si atom -12404.269993 kJ/mol
# Density = 1.886148 g / cm^3
# Si number density = 18.904509 Si / 1000 Ang^3
#
#
#
# Elastic Constant Matrix: (Units=GPa)
#
#
# Indices 1 2 3 4 5 6 
#
# 1 71.9127 64.0190 11.4970 0.0000 0.0000 0.0000
# 2 64.0190 156.7951 17.2959 0.0000 0.0000 0.0000
# 3 11.4970 17.2959 58.5542 0.0000 0.0000 0.0000
# 4 0.0000 0.0000 0.0000 33.7542 0.0000 0.0000
# 5 0.0000 0.0000 0.0000 0.0000 17.8192 0.0000
# 6 0.0000 0.0000 0.0000 0.0000 0.0000 27.2903
#
#
#
# Elastic Compliance Matrix: (Units=1/GPa)
#
#
# Indices 1 2 3 4 5 6 
#
# 1 0.022014 -0.008798 -0.001724 0.000000 0.000000 0.000000
# 2 -0.008798 0.010109 -0.001258 0.000000 0.000000 0.000000
# 3 -0.001724 -0.001258 0.017788 0.000000 0.000000 0.000000
# 4 0.000000 0.000000 0.000000 0.029626 0.000000 0.000000
# 5 0.000000 0.000000 0.000000 0.000000 0.056119 0.000000
# 6 0.000000 0.000000 0.000000 0.000000 0.000000 0.036643
#
#
# Mechanical properties :
#
#
# Convention : Reuss Voigt Hill
#
# Bulk Modulus (GPa) = 37.94972 52.54286 45.24629
# Shear Modulus (GPa) = 24.43287 28.73608 26.58447
#
# Velocity S-wave (km/s) = 3.59895 3.90303 3.75407
# Velocity P-wave (km/s) = 6.11456 6.94015 6.54040
#
# Compressibility (1/GPa) = 0.02635066
#
# Stress axis : x y z
#
# Youngs Moduli (GPa) = 45.42663 98.92427 56.21658
#
# Poissons Ratio (x) = 0.87033 0.09689
# Poissons Ratio (y) = 0.39966 0.07075
# Poissons Ratio (z) = 0.07830 0.12450
#
# Static dielectric constant tensor:
#      x y z
#    x 3.476080 0.000000 0.000000 
#    y 0.000000 3.707570 0.000000 
#    z 0.000000 0.000000 3.431020 
# 
# 
# High freq. dielectric constant tensor:
#      x y z
#    x 1.705230 0.000000 0.000000 
#    y 0.000000 1.740380 0.000000 
#    z 0.000000 0.000000 1.743380 
# 
# From -- ./inp_files/9609.got.cif
#   From: 2010.03.12/outbox.cif.g09.slc.cpg/sg63_5_cif.got.tgz:9609.got - 2010.04.10 19:34:48.
