data_PCOD8261177
_publ_section_title
;
Structure prediction by ZEFSAII (Michael W. Deem and Ramdas Pophale) SiO2 
 PCOD8261177
Probable space group: C M C M
;
_chemical_formula_sum "Si O2"
_cell_formula_units_Z 80
_cell_length_a 19.739633
_cell_length_b 8.924683
_cell_length_c 21.745278
_cell_angle_alpha 90.000000
_cell_angle_beta 90.000000
_cell_angle_gamma 90.000000
_cell_volume 3830.864909
_symmetry_space_group_name_H-M "C M C M"
_symmetry_group_IT_number 63
_symmetry_cell_setting 'orthorhombic'
loop_
_space_group_symop_operation_xyz
x,y,z
-x,-y,1/2+z
x,-y,-z
-x,y,1/2-z
-x,-y,-z
x,y,1/2-z
-x,y,z
x,-y,1/2+z
1/2+x,1/2+y,z
1/2-x,1/2-y,1/2+z
1/2+x,1/2-y,-z
1/2-x,1/2+y,1/2-z
1/2-x,1/2-y,-z
1/2+x,1/2+y,1/2-z
1/2-x,1/2+y,z
1/2+x,1/2-y,1/2+z
loop_
_atom_site_type_symbol
_atom_site_label
_atom_site_fract_x
_atom_site_fract_y
_atom_site_fract_z
Si Si1 0.500000 0.223228 0.449302
Si Si2 0.500000 0.124848 0.579953
Si Si3 0.158807 0.919519 0.250000
Si Si4 0.138546 0.567775 0.634283
Si Si5 0.624305 0.722663 0.868795
Si Si6 0.799654 0.266523 0.250000
Si Si7 0.759027 0.119757 0.546286
O O1 0.500000 0.243355 0.523132
O O2 0.434810 0.300209 0.418547
O O3 0.500000 0.046484 0.440616
O O4 0.567782 0.150710 0.619398
O O5 0.112417 0.883837 0.190417
O O6 0.219819 0.798382 0.250000
O O7 0.187407 0.088185 0.250000
O O8 0.128034 0.394983 0.653187
O O9 0.168784 0.661093 0.689768
O O10 0.187039 0.568552 0.574522
O O11 0.693954 0.665067 0.897489
O O12 0.750000 0.250000 0.500000
O O13 0.791669 0.000000 0.500000
#
# Coordination Sequence:
#
# PCOD8261177 Si02
#       7
#     8   8   8  16  16   8  16
#     4   9  20  41  66  98 131 173 212 262 319 392
#     4   9  20  39  69  97 132 168 217 261 318 385
#     4  12  26  43  66  93 131 171 219 277 326 390
#     4  11  23  42  68  97 128 172 218 273 317 388
#     4  11  23  43  67  95 131 171 220 266 325 384
#     4  12  26  43  66  95 131 167 223 273 332 382
#     4  12  24  37  62  96 131 164 212 265 326 385
#
# _framework density 20.883013999999999
#
# number of rings (size 3 to 8) (size 9 to 14) (size 15 to 20)
#    0.000    1.000    4.000    3.000    5.600    0.800 
#    0.000    5.500    0.000    0.000    0.000    0.000 
#    0.000    0.000    0.000    0.000    0.000    0.000 
#
# Total GULP energy -495914.989623 kJ/mol
# GULP energy per Si atom -12397.874741 kJ/mol
# Density = 2.083548 g / cm^3
# Si number density = 20.883014 Si / 1000 Ang^3
#
#
#
# Elastic Constant Matrix: (Units=GPa)
#
#
# Indices 1 2 3 4 5 6 
#
# 1 101.3829 7.9636 28.2706 0.0000 0.0000 0.0000
# 2 7.9636 99.0358 33.0744 0.0000 0.0000 0.0000
# 3 28.2706 33.0744 120.5828 0.0000 0.0000 0.0000
# 4 0.0000 0.0000 0.0000 43.7568 0.0000 0.0000
# 5 0.0000 0.0000 0.0000 0.0000 28.6615 0.0000
# 6 0.0000 0.0000 0.0000 0.0000 0.0000 23.3381
#
#
#
# Elastic Compliance Matrix: (Units=1/GPa)
#
#
# Indices 1 2 3 4 5 6 
#
# 1 0.010554 -0.000025 -0.002468 0.000000 0.000000 0.000000
# 2 -0.000025 0.011116 -0.003043 0.000000 0.000000 0.000000
# 3 -0.002468 -0.003043 0.009706 0.000000 0.000000 0.000000
# 4 0.000000 0.000000 0.000000 0.022854 0.000000 0.000000
# 5 0.000000 0.000000 0.000000 0.000000 0.034890 0.000000
# 6 0.000000 0.000000 0.000000 0.000000 0.000000 0.042848
#
#
# Mechanical properties :
#
#
# Convention : Reuss Voigt Hill
#
# Bulk Modulus (GPa) = 49.24887 51.06873 50.15880
# Shear Modulus (GPa) = 33.37640 35.93079 34.65360
#
# Velocity S-wave (km/s) = 4.00216 4.15248 4.07801
# Velocity P-wave (km/s) = 6.70751 6.89192 6.80034
#
# Compressibility (1/GPa) = 0.02030504
#
# Stress axis : x y z
#
# Youngs Moduli (GPa) = 94.75441 89.96342 103.02619
#
# Poissons Ratio (x) = 0.00221 0.25422
# Poissons Ratio (y) = 0.00233 0.31352
# Poissons Ratio (z) = 0.23381 0.27377
#
# Static dielectric constant tensor:
#      x y z
#    x 3.846900 0.000000 0.000000 
#    y 0.000000 3.634770 0.000000 
#    z 0.000000 0.000000 3.932390 
# 
# 
# High freq. dielectric constant tensor:
#      x y z
#    x 1.811290 0.000000 0.000000 
#    y 0.000000 1.807370 0.000000 
#    z 0.000000 0.000000 1.834780 
# 
# From -- ./inp_files/64361.got.cif
#   From: 2010.03.12/outbox.cif.g09.slc.cpg/sg63_33_cif.got.tgz:64361.got - 2010.04.10 19:34:48.
