data_PCOD8261630
_publ_section_title
;
Structure prediction by ZEFSAII (Michael W. Deem and Ramdas Pophale) SiO2 
 PCOD8261630
Probable space group: C M C A
;
_chemical_formula_sum "Si O2"
_cell_formula_units_Z 96
_cell_length_a 16.589985
_cell_length_b 18.683808
_cell_length_c 17.972280
_cell_angle_alpha 90.000000
_cell_angle_beta 90.000000
_cell_angle_gamma 90.000000
_cell_volume 5570.761496
_symmetry_space_group_name_H-M "C M C A"
_symmetry_group_IT_number 64
_symmetry_cell_setting 'orthorhombic'
loop_
_space_group_symop_operation_xyz
x,y,z
-x,1/2-y,1/2+z
x,-y,-z
-x,1/2+y,1/2-z
-x,-y,-z
x,1/2+y,1/2-z
-x,y,z
x,1/2-y,1/2+z
1/2+x,1/2+y,z
1/2-x,-y,1/2+z
1/2+x,1/2-y,-z
1/2-x,y,1/2-z
1/2-x,1/2-y,-z
1/2+x,y,1/2-z
1/2-x,1/2+y,z
1/2+x,-y,1/2+z
loop_
_atom_site_type_symbol
_atom_site_label
_atom_site_fract_x
_atom_site_fract_y
_atom_site_fract_z
Si Si1 0.770610 0.468671 0.167952
Si Si2 0.231141 0.343563 0.436513
Si Si3 0.709391 0.815108 0.900736
Si Si4 0.652044 0.095216 0.342378
Si Si5 0.089639 0.920577 0.995260
Si Si6 0.094265 0.415518 0.821094
O O1 0.750000 0.439806 0.250000
O O2 0.778358 0.400494 0.114248
O O3 0.695846 0.519076 0.146363
O O4 0.854506 0.512687 0.161640
O O5 0.281512 0.336501 0.512645
O O6 0.216881 0.270004 0.392607
O O7 0.141258 0.369087 0.453475
O O8 0.779362 0.844665 0.847413
O O9 0.625207 0.848587 0.871217
O O10 0.589294 0.105244 0.409524
O O11 0.605078 0.103825 0.265523
O O12 0.000000 0.918233 0.027855
O O13 0.126022 0.000000 0.000000
O O14 0.000000 0.428991 0.838442
#
# Coordination Sequence:
#
# PCOD8261630 Si02
#       6
#    16  16  16  16  16  16
#     4   9  18  32  52  73  98 135 173 212 257 305
#     4  10  19  35  51  75 104 135 174 221 249 310
#     4   9  20  33  54  74 100 139 179 206 256 308
#     4   9  17  33  52  74 100 136 172 210 247 314
#     4  10  18  28  50  79 102 129 164 213 269 300
#     4  10  20  34  53  78 106 135 171 214 260 311
#
# _framework density 17.232832999999999
#
# number of rings (size 3 to 8) (size 9 to 14) (size 15 to 20)
#    0.000    2.500    1.667    2.000    0.000    2.000 
#    0.000    1.667    0.000    9.000    0.000    0.000 
#    0.000    0.000    0.000    0.000    0.000    0.000 
#
# Total GULP energy -595003.439349 kJ/mol
# GULP energy per Si atom -12395.904986 kJ/mol
# Density = 1.719361 g / cm^3
# Si number density = 17.232833 Si / 1000 Ang^3
#
#
#
# Elastic Constant Matrix: (Units=GPa)
#
#
# Indices 1 2 3 4 5 6 
#
# 1 83.0958 33.9780 28.2082 0.0000 0.0000 0.0000
# 2 33.9780 116.4953 44.5762 0.0000 0.0000 0.0000
# 3 28.2082 44.5762 66.9452 0.0000 0.0000 0.0000
# 4 0.0000 0.0000 0.0000 26.5857 0.0000 0.0000
# 5 0.0000 0.0000 0.0000 0.0000 16.6918 0.0000
# 6 0.0000 0.0000 0.0000 0.0000 0.0000 14.4328
#
#
#
# Elastic Compliance Matrix: (Units=1/GPa)
#
#
# Indices 1 2 3 4 5 6 
#
# 1 0.014588 -0.002553 -0.004447 0.000000 0.000000 0.000000
# 2 -0.002553 0.011966 -0.006892 0.000000 0.000000 0.000000
# 3 -0.004447 -0.006892 0.021400 0.000000 0.000000 0.000000
# 4 0.000000 0.000000 0.000000 0.037614 0.000000 0.000000
# 5 0.000000 0.000000 0.000000 0.000000 0.059910 0.000000
# 6 0.000000 0.000000 0.000000 0.000000 0.000000 0.069287
#
#
# Mechanical properties :
#
#
# Convention : Reuss Voigt Hill
#
# Bulk Modulus (GPa) = 49.57733 53.34015 51.45874
# Shear Modulus (GPa) = 20.05849 22.19366 21.12607
#
# Velocity S-wave (km/s) = 3.41540 3.59258 3.50511
# Velocity P-wave (km/s) = 6.66220 6.94469 6.80491
#
# Compressibility (1/GPa) = 0.02017051
#
# Stress axis : x y z
#
# Youngs Moduli (GPa) = 68.55026 83.57132 46.72871
#
# Poissons Ratio (x) = 0.21339 0.20778
# Poissons Ratio (y) = 0.17503 0.32204
# Poissons Ratio (z) = 0.30482 0.57595
#
# Static dielectric constant tensor:
#      x y z
#    x 3.004630 0.000000 0.000000 
#    y 0.000000 3.246680 0.000000 
#    z 0.000000 0.000000 3.262680 
# 
# 
# High freq. dielectric constant tensor:
#      x y z
#    x 1.648060 0.000000 0.000000 
#    y 0.000000 1.655880 0.000000 
#    z 0.000000 0.000000 1.670550 
# 
# From -- ./inp_files/40474.got.cif
#   From: 2010.03.12/outbox.cif.g09.slc.cpg/sg64_21_cif.got.tgz:40474.got - 2010.04.10 20:19:32.
