data_PCOD8261885
_publ_section_title
;
Structure prediction by ZEFSAII (Michael W. Deem and Ramdas Pophale) SiO2 
 PCOD8261885
Probable space group: C M C A
;
_chemical_formula_sum "Si O2"
_cell_formula_units_Z 112
_cell_length_a 16.642763
_cell_length_b 16.927278
_cell_length_c 20.475472
_cell_angle_alpha 90.000000
_cell_angle_beta 90.000000
_cell_angle_gamma 90.000000
_cell_volume 5768.281911
_symmetry_space_group_name_H-M "C M C A"
_symmetry_group_IT_number 64
_symmetry_cell_setting 'orthorhombic'
loop_
_space_group_symop_operation_xyz
x,y,z
-x,1/2-y,1/2+z
x,-y,-z
-x,1/2+y,1/2-z
-x,-y,-z
x,1/2+y,1/2-z
-x,y,z
x,1/2-y,1/2+z
1/2+x,1/2+y,z
1/2-x,-y,1/2+z
1/2+x,1/2-y,-z
1/2-x,y,1/2-z
1/2-x,1/2-y,-z
1/2+x,y,1/2-z
1/2-x,1/2+y,z
1/2+x,-y,1/2+z
loop_
_atom_site_type_symbol
_atom_site_label
_atom_site_fract_x
_atom_site_fract_y
_atom_site_fract_z
Si Si1 0.405251 0.715540 0.847655
Si Si2 0.843494 0.930102 0.760717
Si Si3 0.095203 0.647712 0.050471
Si Si4 0.358722 0.502722 0.372974
Si Si5 0.207773 0.579818 0.682063
Si Si6 0.406313 0.730175 0.204724
Si Si7 0.089103 0.161281 0.593037
O O1 0.500000 0.692301 0.851382
O O2 0.383205 0.781688 0.900423
O O3 0.344768 0.642541 0.858671
O O4 0.378593 0.745313 0.776509
O O5 0.750000 0.910060 0.750000
O O6 0.885179 0.945799 0.690492
O O7 0.883940 0.861435 0.803364
O O8 0.855136 0.010888 0.800269
O O9 0.140052 0.566062 0.068609
O O10 0.000000 0.631126 0.050143
O O11 0.129053 0.670370 0.978564
O O12 0.272798 0.459279 0.366209
O O13 0.418888 0.430304 0.385813
O O14 0.250000 0.610255 0.750000
O O15 0.500000 0.742745 0.198600
O O16 0.364875 0.785355 0.148405
O O17 0.000000 0.195957 0.586428
#
# Coordination Sequence:
#
# PCOD8261885 Si02
#       7
#    16  16  16  16  16  16  16
#     4  10  20  36  59  84 111 146 194 233 272 337
#     4   9  19  33  53  77 110 145 182 225 276 330
#     4  10  20  36  58  83 114 151 185 230 285 338
#     4  10  18  34  54  80 111 145 186 222 275 342
#     4   9  20  36  53  83 113 149 188 231 288 327
#     4  10  19  32  53  83 108 138 186 235 276 327
#     4  10  21  34  54  83 116 148 181 231 291 335
#
# _framework density 19.416526999999999
#
# number of rings (size 3 to 8) (size 9 to 14) (size 15 to 20)
#    0.000    2.571    1.429    2.571    0.000    4.000 
#    0.000    2.857    6.286    0.000    0.000    4.000 
#    0.000    0.000    0.000    0.000    0.000    0.000 
#
# Total GULP energy -693870.137579 kJ/mol
# GULP energy per Si atom -12390.538171 kJ/mol
# Density = 1.937233 g / cm^3
# Si number density = 19.416527 Si / 1000 Ang^3
#
#
#
# Elastic Constant Matrix: (Units=GPa)
#
#
# Indices 1 2 3 4 5 6 
#
# 1 29.0740 24.3645 26.4365 0.0000 0.0000 0.0000
# 2 24.3645 136.3268 74.3065 0.0000 0.0000 0.0000
# 3 26.4365 74.3065 141.3444 0.0000 0.0000 0.0000
# 4 0.0000 0.0000 0.0000 27.3141 0.0000 0.0000
# 5 0.0000 0.0000 0.0000 0.0000 17.9023 0.0000
# 6 0.0000 0.0000 0.0000 0.0000 0.0000 35.5809
#
#
#
# Elastic Compliance Matrix: (Units=1/GPa)
#
#
# Indices 1 2 3 4 5 6 
#
# 1 0.043472 -0.004678 -0.005672 0.000000 0.000000 0.000000
# 2 -0.004678 0.010785 -0.004795 0.000000 0.000000 0.000000
# 3 -0.005672 -0.004795 0.010656 0.000000 0.000000 0.000000
# 4 0.000000 0.000000 0.000000 0.036611 0.000000 0.000000
# 5 0.000000 0.000000 0.000000 0.000000 0.055859 0.000000
# 6 0.000000 0.000000 0.000000 0.000000 0.000000 0.028105
#
#
# Mechanical properties :
#
#
# Convention : Reuss Voigt Hill
#
# Bulk Modulus (GPa) = 28.88106 61.88446 45.38276
# Shear Modulus (GPa) = 21.99553 28.26864 25.13208
#
# Velocity S-wave (km/s) = 3.36940 3.81977 3.60163
# Velocity P-wave (km/s) = 5.48123 7.16906 6.38120
#
# Compressibility (1/GPa) = 0.03462476
#
# Stress axis : x y z
#
# Youngs Moduli (GPa) = 23.00310 92.72295 93.84072
#
# Poissons Ratio (x) = 0.43377 0.53222
# Poissons Ratio (y) = 0.10761 0.44994
# Poissons Ratio (z) = 0.13046 0.44458
#
# Static dielectric constant tensor:
#      x y z
#    x 3.231430 0.000000 0.000000 
#    y 0.000000 3.626400 0.000000 
#    z 0.000000 0.000000 3.696140 
# 
# 
# High freq. dielectric constant tensor:
#      x y z
#    x 1.726750 0.000000 0.000000 
#    y 0.000000 1.761970 0.000000 
#    z 0.000000 0.000000 1.743680 
# 
# From -- ./inp_files/34488.got.cif
#   From: 2010.03.12/outbox.cif.g09.slc.cpg/sg64_18_cif.got.tgz:34488.got - 2010.04.10 20:19:32.
