data_PCOD8261276
_publ_section_title
;
Structure prediction by ZEFSAII (Michael W. Deem and Ramdas Pophale) SiO2 
 PCOD8261276
Probable space group: C M C M
;
_chemical_formula_sum "Si O2"
_cell_formula_units_Z 96
_cell_length_a 9.626627
_cell_length_b 32.717244
_cell_length_c 18.839163
_cell_angle_alpha 90.000000
_cell_angle_beta 90.000000
_cell_angle_gamma 90.000000
_cell_volume 5933.520693
_symmetry_space_group_name_H-M "C M C M"
_symmetry_group_IT_number 63
_symmetry_cell_setting 'orthorhombic'
loop_
_space_group_symop_operation_xyz
x,y,z
-x,-y,1/2+z
x,-y,-z
-x,y,1/2-z
-x,-y,-z
x,y,1/2-z
-x,y,z
x,-y,1/2+z
1/2+x,1/2+y,z
1/2-x,1/2-y,1/2+z
1/2+x,1/2-y,-z
1/2-x,1/2+y,1/2-z
1/2-x,1/2-y,-z
1/2+x,1/2+y,1/2-z
1/2-x,1/2+y,z
1/2+x,1/2-y,1/2+z
loop_
_atom_site_type_symbol
_atom_site_label
_atom_site_fract_x
_atom_site_fract_y
_atom_site_fract_z
Si Si1 0.665087 0.582228 0.828381
Si Si2 0.834285 0.827771 0.828185
Si Si3 0.661856 0.623461 0.040582
Si Si4 0.161019 0.166087 0.604017
Si Si5 0.659222 0.235556 0.832073
Si Si6 0.333819 0.457518 0.030052
O O1 0.723554 0.570471 0.750000
O O2 0.500000 0.581534 0.828042
O O3 0.713445 0.627998 0.848279
O O4 0.717515 0.550184 0.888583
O O5 0.781071 0.841306 0.750000
O O6 0.770718 0.858690 0.886991
O O7 0.786250 0.781605 0.844878
O O8 0.000000 0.828329 0.829440
O O9 0.500000 0.617133 0.053386
O O10 0.687114 0.655838 0.978163
O O11 0.724509 0.579133 0.019723
O O12 0.247974 0.206107 0.620644
O O13 0.000000 0.175216 0.619240
O O14 0.675364 0.223573 0.750000
O O15 0.500000 0.231025 0.856422
O O16 0.500000 0.457655 0.028638
O O17 0.272950 0.500000 0.000000
#
# Coordination Sequence:
#
# PCOD8261276 Si02
#       6
#    16  16  16  16  16  16
#     4   8  13  21  33  49  70  96 123 150 185 230
#     4   8  14  25  38  50  69  99 130 158 191 230
#     4   8  14  24  37  53  72  96 128 161 192 229
#     4   9  16  25  39  58  78 102 131 160 190 228
#     4   9  17  27  38  54  77 104 132 162 194 224
#     4   8  13  21  32  47  70  96 120 152 192 227
#
# _framework density 16.179265000000001
#
# number of rings (size 3 to 8) (size 9 to 14) (size 15 to 20)
#    0.000    3.667    0.000    3.500    0.000    1.667 
#    0.000    0.833    0.000    5.000    0.000    0.000 
#    0.000   10.667    0.000    0.000    0.000   28.667 
#
# Total GULP energy -594714.051804 kJ/mol
# GULP energy per Si atom -12389.876079 kJ/mol
# Density = 1.614244 g / cm^3
# Si number density = 16.179265 Si / 1000 Ang^3
#
#
#
# Elastic Constant Matrix: (Units=GPa)
#
#
# Indices 1 2 3 4 5 6 
#
# 1 15.9219 17.2942 15.7426 0.0000 0.0000 0.0000
# 2 17.2942 109.8923 81.4074 0.0000 0.0000 0.0000
# 3 15.7426 81.4074 133.3356 0.0000 0.0000 0.0000
# 4 0.0000 0.0000 0.0000 25.5843 0.0000 0.0000
# 5 0.0000 0.0000 0.0000 0.0000 9.5177 0.0000
# 6 0.0000 0.0000 0.0000 0.0000 0.0000 12.5490
#
#
#
# Elastic Compliance Matrix: (Units=1/GPa)
#
#
# Indices 1 2 3 4 5 6 
#
# 1 0.076438 -0.009757 -0.003068 0.000000 0.000000 0.000000
# 2 -0.009757 0.017860 -0.009752 0.000000 0.000000 0.000000
# 3 -0.003068 -0.009752 0.013816 0.000000 0.000000 0.000000
# 4 0.000000 0.000000 0.000000 0.039087 0.000000 0.000000
# 5 0.000000 0.000000 0.000000 0.000000 0.105067 0.000000
# 6 0.000000 0.000000 0.000000 0.000000 0.000000 0.079688
#
#
# Mechanical properties :
#
#
# Convention : Reuss Voigt Hill
#
# Bulk Modulus (GPa) = 15.88310 54.22646 35.05478
# Shear Modulus (GPa) = 12.55981 19.17723 15.86852
#
# Velocity S-wave (km/s) = 2.78922 3.44655 3.13516
# Velocity P-wave (km/s) = 4.49569 7.03044 5.90078
#
# Compressibility (1/GPa) = 0.06296002
#
# Stress axis : x y z
#
# Youngs Moduli (GPa) = 13.08257 55.99246 72.37878
#
# Poissons Ratio (x) = 0.54629 0.22206
# Poissons Ratio (y) = 0.12764 0.70585
# Poissons Ratio (z) = 0.04014 0.54605
#
# Static dielectric constant tensor:
#      x y z
#    x 2.396300 0.000000 0.000000 
#    y 0.000000 3.176190 0.000000 
#    z 0.000000 0.000000 3.458320 
# 
# 
# High freq. dielectric constant tensor:
#      x y z
#    x 1.545140 0.000000 0.000000 
#    y 0.000000 1.615530 0.000000 
#    z 0.000000 0.000000 1.631840 
# 
# From -- ./inp_files/53045.got.cif
#   From: 2010.03.12/outbox.cif.g09.slc.cpg/sg63_27_cif.got.tgz:53045.got - 2010.04.10 19:34:48.
