data_PCOD8261223
_publ_section_title
;
Structure prediction by ZEFSAII (Michael W. Deem and Ramdas Pophale) SiO2 
 PCOD8261223
Probable space group: C M C M
;
_chemical_formula_sum "Si O2"
_cell_formula_units_Z 64
_cell_length_a 22.082722
_cell_length_b 14.144550
_cell_length_c 9.300166
_cell_angle_alpha 90.000000
_cell_angle_beta 90.000000
_cell_angle_gamma 90.000000
_cell_volume 2904.908389
_symmetry_space_group_name_H-M "C M C M"
_symmetry_group_IT_number 63
_symmetry_cell_setting 'orthorhombic'
loop_
_space_group_symop_operation_xyz
x,y,z
-x,-y,1/2+z
x,-y,-z
-x,y,1/2-z
-x,-y,-z
x,y,1/2-z
-x,y,z
x,-y,1/2+z
1/2+x,1/2+y,z
1/2-x,1/2-y,1/2+z
1/2+x,1/2-y,-z
1/2-x,1/2+y,1/2-z
1/2-x,1/2-y,-z
1/2+x,1/2+y,1/2-z
1/2-x,1/2+y,z
1/2+x,1/2-y,1/2+z
loop_
_atom_site_type_symbol
_atom_site_label
_atom_site_fract_x
_atom_site_fract_y
_atom_site_fract_z
Si Si1 0.500000 0.703659 0.750000
Si Si2 0.000000 0.108047 0.250000
Si Si3 0.314901 0.500000 0.500000
Si Si4 0.399361 0.548999 0.750000
Si Si5 0.000000 0.720276 0.950163
Si Si6 0.274338 0.160151 0.083915
Si Si7 0.889772 0.588925 0.587917
O O1 0.439992 0.641564 0.750000
O O2 0.500000 0.776451 0.620175
O O3 0.060242 0.045331 0.250000
O O4 0.000000 0.172502 0.108151
O O5 0.357357 0.554660 0.611151
O O6 0.274424 0.423621 0.582427
O O7 0.059268 0.667829 0.894095
O O8 0.288287 0.186138 0.250000
O O9 0.250000 0.250000 0.000000
O O10 0.334087 0.127738 0.002594
O O11 0.916681 0.500000 0.500000
O O12 0.868801 0.559872 0.750000
#
# Coordination Sequence:
#
# PCOD8261223 Si02
#       7
#     4   4   8   8   8  16  16
#     4  11  28  46  71 116 140 188 239 306 352 453
#     4  11  24  50  71 110 144 188 241 300 354 439
#     4  12  26  47  76 107 146 194 240 300 368 438
#     4  11  26  46  76 104 150 187 236 296 370 427
#     4  12  27  45  77 104 147 189 249 296 369 430
#     4  12  29  47  74 109 149 194 249 306 369 438
#     4  12  27  48  74 105 147 192 244 307 366 432
#
# _framework density 22.031676000000001
#
# number of rings (size 3 to 8) (size 9 to 14) (size 15 to 20)
#    0.000    0.250    3.750    3.375   14.000    2.000 
#    0.000    0.000    0.000    0.000    0.000    0.000 
#    0.000    0.000    0.000    0.000    0.000    0.000 
#
# Total GULP energy -397009.133059 kJ/mol
# GULP energy per Si atom -12406.535408 kJ/mol
# Density = 2.198153 g / cm^3
# Si number density = 22.031676 Si / 1000 Ang^3
#
#
#
# Elastic Constant Matrix: (Units=GPa)
#
#
# Indices 1 2 3 4 5 6 
#
# 1 122.9041 22.1491 41.2915 0.0000 0.0000 0.0000
# 2 22.1491 88.1081 30.1613 0.0000 0.0000 0.0000
# 3 41.2915 30.1613 199.1341 0.0000 0.0000 0.0000
# 4 0.0000 0.0000 0.0000 43.5034 0.0000 0.0000
# 5 0.0000 0.0000 0.0000 0.0000 36.2723 0.0000
# 6 0.0000 0.0000 0.0000 0.0000 0.0000 0.6289
#
#
#
# Elastic Compliance Matrix: (Units=1/GPa)
#
#
# Indices 1 2 3 4 5 6 
#
# 1 0.008983 -0.001709 -0.001604 0.000000 0.000000 0.000000
# 2 -0.001709 0.012296 -0.001508 0.000000 0.000000 0.000000
# 3 -0.001604 -0.001508 0.005583 0.000000 0.000000 0.000000
# 4 0.000000 0.000000 0.000000 0.022987 0.000000 0.000000
# 5 0.000000 0.000000 0.000000 0.000000 0.027569 0.000000
# 6 0.000000 0.000000 0.000000 0.000000 0.000000 1.590059
#
#
# Mechanical properties :
#
#
# Convention : Reuss Voigt Hill
#
# Bulk Modulus (GPa) = 58.07340 66.37223 62.22281
# Shear Modulus (GPa) = 2.97113 37.18388 20.07751
#
# Velocity S-wave (km/s) = 1.16254 4.11268 3.02205
# Velocity P-wave (km/s) = 5.31209 7.26246 6.36245
#
# Compressibility (1/GPa) = 0.01721959
#
# Stress axis : x y z
#
# Youngs Moduli (GPa) = 111.31771 81.33016 179.12493
#
# Poissons Ratio (x) = 0.13901 0.28729
# Poissons Ratio (y) = 0.19027 0.27010
# Poissons Ratio (z) = 0.17854 0.12264
#
# Static dielectric constant tensor:
#      x y z
#    x 4.014650 0.000000 0.000000 
#    y 0.000000 3.899070 0.000000 
#    z 0.000000 0.000000 3.995560 
# 
# 
# High freq. dielectric constant tensor:
#      x y z
#    x 1.878280 0.000000 0.000000 
#    y 0.000000 1.871190 0.000000 
#    z 0.000000 0.000000 1.891610 
# 
# From -- ./inp_files/9721.got.cif
#   From: 2010.03.12/outbox.cif.g09.slc.cpg/sg63_5_cif.got.tgz:9721.got - 2010.04.10 19:34:48.
