data_PCOD8261243
_publ_section_title
;
Structure prediction by ZEFSAII (Michael W. Deem and Ramdas Pophale) SiO2 
 PCOD8261243
Probable space group: C M C M
;
_chemical_formula_sum "Si O2"
_cell_formula_units_Z 88
_cell_length_a 19.191346
_cell_length_b 14.887942
_cell_length_c 12.265587
_cell_angle_alpha 90.000000
_cell_angle_beta 90.000000
_cell_angle_gamma 90.000000
_cell_volume 3504.519177
_symmetry_space_group_name_H-M "C M C M"
_symmetry_group_IT_number 63
_symmetry_cell_setting 'orthorhombic'
loop_
_space_group_symop_operation_xyz
x,y,z
-x,-y,1/2+z
x,-y,-z
-x,y,1/2-z
-x,-y,-z
x,y,1/2-z
-x,y,z
x,-y,1/2+z
1/2+x,1/2+y,z
1/2-x,1/2-y,1/2+z
1/2+x,1/2-y,-z
1/2-x,1/2+y,1/2-z
1/2-x,1/2-y,-z
1/2+x,1/2+y,1/2-z
1/2-x,1/2+y,z
1/2+x,1/2-y,1/2+z
loop_
_atom_site_type_symbol
_atom_site_label
_atom_site_fract_x
_atom_site_fract_y
_atom_site_fract_z
Si Si1 0.795146 0.170044 0.377575
Si Si2 0.873984 0.139261 0.879771
Si Si3 0.867135 0.662747 0.377901
Si Si4 0.779919 0.367564 0.124530
Si Si5 0.576787 0.450005 0.621244
Si Si6 0.132477 0.500000 0.000000
O O1 0.789247 0.149227 0.250000
O O2 0.714606 0.152747 0.421855
O O3 0.818821 0.273015 0.398144
O O4 0.860085 0.111329 0.427224
O O5 0.871106 0.129912 0.750000
O O6 0.901231 0.240305 0.906897
O O7 0.796213 0.134266 0.933348
O O8 0.919613 0.054564 0.925478
O O9 0.870808 0.646641 0.250000
O O10 0.909315 0.582270 0.440716
O O11 0.761312 0.375171 0.250000
O O12 0.822592 0.455862 0.095969
O O13 0.588180 0.455626 0.750000
O O14 0.500000 0.410674 0.595524
#
# Coordination Sequence:
#
# PCOD8261243 Si02
#       6
#    16  16  16  16  16   8
#     4   8  15  29  45  64  98 134 159 194 240 287
#     4   8  15  29  45  64  98 134 159 194 240 287
#     4   9  18  31  46  68  99 131 162 196 238 288
#     4   9  18  31  46  68  99 131 162 196 238 288
#     4   9  15  24  45  76 101 125 160 197 239 292
#     4  12  20  26  46  74  92 120 160 204 254 278
#
# _framework density 25.110436
#
# number of rings (size 3 to 8) (size 9 to 14) (size 15 to 20)
#    0.000    3.091    0.000    3.818    0.000    5.818 
#    0.000    0.000    0.000    0.000    0.000   25.455 
#    0.000    8.727    0.000    0.000    0.000    0.364 
#
# Total GULP energy -545177.638818 kJ/mol
# GULP energy per Si atom -12390.400882 kJ/mol
# Density = 2.505328 g / cm^3
# Si number density = 25.110436 Si / 1000 Ang^3
#
#
#
# Elastic Constant Matrix: (Units=GPa)
#
#
# Indices 1 2 3 4 5 6 
#
# 1 63.1195 40.9447 32.2836 0.0000 0.0000 0.0000
# 2 40.9447 207.6698 49.3254 0.0000 0.0000 0.0000
# 3 32.2836 49.3254 69.1345 0.0000 0.0000 0.0000
# 4 0.0000 0.0000 0.0000 52.2682 0.0000 0.0000
# 5 0.0000 0.0000 0.0000 0.0000 19.1644 0.0000
# 6 0.0000 0.0000 0.0000 0.0000 0.0000 20.6514
#
#
#
# Elastic Compliance Matrix: (Units=1/GPa)
#
#
# Indices 1 2 3 4 5 6 
#
# 1 0.021652 -0.002249 -0.008507 0.000000 0.000000 0.000000
# 2 -0.002249 0.006031 -0.003253 0.000000 0.000000 0.000000
# 3 -0.008507 -0.003253 0.020758 0.000000 0.000000 0.000000
# 4 0.000000 0.000000 0.000000 0.019132 0.000000 0.000000
# 5 0.000000 0.000000 0.000000 0.000000 0.052180 0.000000
# 6 0.000000 0.000000 0.000000 0.000000 0.000000 0.048423
#
#
# Mechanical properties :
#
#
# Convention : Reuss Voigt Hill
#
# Bulk Modulus (GPa) = 48.95991 65.00345 56.98168
# Shear Modulus (GPa) = 24.63028 32.90815 28.76922
#
# Velocity S-wave (km/s) = 3.13530 3.62406 3.38850
# Velocity P-wave (km/s) = 5.71375 6.59204 6.16855
#
# Compressibility (1/GPa) = 0.02042488
#
# Stress axis : x y z
#
# Youngs Moduli (GPa) = 46.18406 165.80008 48.17425
#
# Poissons Ratio (x) = 0.37281 0.40981
# Poissons Ratio (y) = 0.10385 0.15672
# Poissons Ratio (z) = 0.39288 0.53938
#
# Static dielectric constant tensor:
#      x y z
#    x 3.827820 0.000000 0.000000 
#    y 0.000000 4.854240 0.000000 
#    z 0.000000 0.000000 5.267120 
# 
# 
# High freq. dielectric constant tensor:
#      x y z
#    x 1.913880 0.000000 0.000000 
#    y 0.000000 2.012110 0.000000 
#    z 0.000000 0.000000 2.089590 
# 
# From -- ./inp_files/35202.got.cif
#   From: 2010.03.12/outbox.cif.g09.slc.cpg/sg63_18_cif.got.tgz:35202.got - 2010.04.10 19:34:48.
