data_PCOD8261168
_publ_section_title
;
Structure prediction by ZEFSAII (Michael W. Deem and Ramdas Pophale) SiO2 
 PCOD8261168
Probable space group: C M C M
;
_chemical_formula_sum "Si O2"
_cell_formula_units_Z 64
_cell_length_a 7.807729
_cell_length_b 17.850105
_cell_length_c 23.499501
_cell_angle_alpha 90.000000
_cell_angle_beta 90.000000
_cell_angle_gamma 90.000000
_cell_volume 3275.096843
_symmetry_space_group_name_H-M "C M C M"
_symmetry_group_IT_number 63
_symmetry_cell_setting 'orthorhombic'
loop_
_space_group_symop_operation_xyz
x,y,z
-x,-y,1/2+z
x,-y,-z
-x,y,1/2-z
-x,-y,-z
x,y,1/2-z
-x,y,z
x,-y,1/2+z
1/2+x,1/2+y,z
1/2-x,1/2-y,1/2+z
1/2+x,1/2-y,-z
1/2-x,1/2+y,1/2-z
1/2-x,1/2-y,-z
1/2+x,1/2+y,1/2-z
1/2-x,1/2+y,z
1/2+x,1/2-y,1/2+z
loop_
_atom_site_type_symbol
_atom_site_label
_atom_site_fract_x
_atom_site_fract_y
_atom_site_fract_z
Si Si1 0.304878 0.914286 0.616434
Si Si2 0.308223 0.334112 0.508906
Si Si3 0.500000 0.658414 0.184265
Si Si4 0.311095 0.080718 0.596053
Si Si5 0.500000 0.834618 0.184172
O O1 0.500000 0.912751 0.640858
O O2 0.309900 0.874748 0.554970
O O3 0.175499 0.873063 0.658456
O O4 0.235484 0.999208 0.610352
O O5 0.500000 0.334425 0.533436
O O6 0.250000 0.250000 0.500000
O O7 0.308224 0.377228 0.448857
O O8 0.500000 0.636923 0.250000
O O9 0.500000 0.746693 0.174193
O O10 0.500000 0.070703 0.568005
O O11 0.330241 0.130021 0.654067
O O12 0.500000 0.857157 0.250000
#
# Coordination Sequence:
#
# PCOD8261168 Si02
#       5
#    16  16   8  16   8
#     4  11  23  41  64  94 128 166 209 264 319 374
#     4  12  23  36  61  92 133 168 207 262 321 388
#     4  11  24  42  67  94 127 169 219 264 310 380
#     4   9  21  38  62  89 120 164 212 253 316 379
#     4   9  20  42  65  86 125 169 209 264 314 372
#
# _framework density 19.541407
#
# number of rings (size 3 to 8) (size 9 to 14) (size 15 to 20)
#    0.750    0.750    1.250    4.500    1.750    4.500 
#    0.000    0.000    0.000    1.500    0.000    0.000 
#    0.000    0.000    0.000    0.000    0.000    0.000 
#
# Total GULP energy -396749.242615 kJ/mol
# GULP energy per Si atom -12398.413832 kJ/mol
# Density = 1.949693 g / cm^3
# Si number density = 19.541407 Si / 1000 Ang^3
#
#
#
# Elastic Constant Matrix: (Units=GPa)
#
#
# Indices 1 2 3 4 5 6 
#
# 1 84.3766 33.9721 34.3514 0.0000 0.0000 0.0000
# 2 33.9721 156.3637 76.1895 0.0000 0.0000 0.0000
# 3 34.3514 76.1895 131.7595 0.0000 0.0000 0.0000
# 4 0.0000 0.0000 0.0000 20.8433 0.0000 0.0000
# 5 0.0000 0.0000 0.0000 0.0000 29.4382 0.0000
# 6 0.0000 0.0000 0.0000 0.0000 0.0000 25.5497
#
#
#
# Elastic Compliance Matrix: (Units=1/GPa)
#
#
# Indices 1 2 3 4 5 6 
#
# 1 0.013578 -0.001706 -0.002554 0.000000 0.000000 0.000000
# 2 -0.001706 0.009118 -0.004828 0.000000 0.000000 0.000000
# 3 -0.002554 -0.004828 0.011047 0.000000 0.000000 0.000000
# 4 0.000000 0.000000 0.000000 0.047977 0.000000 0.000000
# 5 0.000000 0.000000 0.000000 0.000000 0.033970 0.000000
# 6 0.000000 0.000000 0.000000 0.000000 0.000000 0.039139
#
#
# Mechanical properties :
#
#
# Convention : Reuss Voigt Hill
#
# Bulk Modulus (GPa) = 64.23075 73.50286 68.86681
# Shear Modulus (GPa) = 28.05935 30.36537 29.21236
#
# Velocity S-wave (km/s) = 3.79343 3.94623 3.87058
# Velocity P-wave (km/s) = 7.21992 7.64586 7.43594
#
# Compressibility (1/GPa) = 0.01556887
#
# Stress axis : x y z
#
# Youngs Moduli (GPa) = 73.64833 109.66814 90.52135
#
# Poissons Ratio (x) = 0.18706 0.23116
# Poissons Ratio (y) = 0.12562 0.43704
# Poissons Ratio (z) = 0.18807 0.52948
#
# Static dielectric constant tensor:
#      x y z
#    x 3.450720 0.000000 0.000000 
#    y 0.000000 3.716130 0.000000 
#    z 0.000000 0.000000 3.458620 
# 
# 
# High freq. dielectric constant tensor:
#      x y z
#    x 1.748700 0.000000 0.000000 
#    y 0.000000 1.780780 0.000000 
#    z 0.000000 0.000000 1.749620 
# 
# From -- ./inp_files/59121.got.cif
#   From: 2010.03.12/outbox.cif.g09.slc.cpg/sg63_30_cif.got.tgz:59121.got - 2010.04.10 19:34:48.
