data_PCOD8261941
_publ_section_title
;
Structure prediction by ZEFSAII (Michael W. Deem and Ramdas Pophale) SiO2 
 PCOD8261941
Probable space group: C M C A
;
_chemical_formula_sum "Si O2"
_cell_formula_units_Z 96
_cell_length_a 26.880065
_cell_length_b 19.619120
_cell_length_c 9.559952
_cell_angle_alpha 90.000000
_cell_angle_beta 90.000000
_cell_angle_gamma 90.000000
_cell_volume 5041.567078
_symmetry_space_group_name_H-M "C M C A"
_symmetry_group_IT_number 64
_symmetry_cell_setting 'orthorhombic'
loop_
_space_group_symop_operation_xyz
x,y,z
-x,1/2-y,1/2+z
x,-y,-z
-x,1/2+y,1/2-z
-x,-y,-z
x,1/2+y,1/2-z
-x,y,z
x,1/2-y,1/2+z
1/2+x,1/2+y,z
1/2-x,-y,1/2+z
1/2+x,1/2-y,-z
1/2-x,y,1/2-z
1/2-x,1/2-y,-z
1/2+x,y,1/2-z
1/2-x,1/2+y,z
1/2+x,-y,1/2+z
loop_
_atom_site_type_symbol
_atom_site_label
_atom_site_fract_x
_atom_site_fract_y
_atom_site_fract_z
Si Si1 0.189291 0.714718 0.125196
Si Si2 0.622482 0.435155 0.903063
Si Si3 0.794286 0.171038 0.080751
Si Si4 0.919574 0.807676 0.612761
Si Si5 0.055539 0.685132 0.422837
Si Si6 0.943881 0.045216 0.369375
O O1 0.191179 0.722397 0.293065
O O2 0.234136 0.664068 0.077172
O O3 0.138111 0.680883 0.074347
O O4 0.190727 0.791319 0.062691
O O5 0.677745 0.401179 0.891727
O O6 0.588108 0.378375 0.977985
O O7 0.597028 0.457453 0.755754
O O8 0.627458 0.500000 0.000000
O O9 0.922980 0.788681 0.776165
O O10 0.944707 0.746464 0.530749
O O11 0.948098 0.877141 0.576951
O O12 0.000000 0.657298 0.402415
O O13 0.000000 0.022390 0.321857
O O14 0.925368 0.000000 0.500000
#
# Coordination Sequence:
#
# PCOD8261941 Si02
#       6
#    16  16  16  16  16  16
#     4  10  18  36  64  86 115 142 187 235 296 343
#     4  11  22  39  57  82 119 158 195 238 288 344
#     4  10  20  36  61  90 112 148 187 239 290 349
#     4  11  19  37  59  86 114 147 187 241 290 342
#     4  11  22  35  56  87 117 150 192 240 287 337
#     4  10  22  40  58  81 115 158 200 238 287 348
#
# _framework density 19.041698
#
# number of rings (size 3 to 8) (size 9 to 14) (size 15 to 20)
#    0.000    1.500    5.000    3.000    0.000    2.667 
#    3.000    2.500    0.000    0.000    0.000    0.000 
#    0.000    0.000    0.000    0.000    0.000    0.000 
#
# Total GULP energy -594802.502955 kJ/mol
# GULP energy per Si atom -12391.718812 kJ/mol
# Density = 1.899836 g / cm^3
# Si number density = 19.041698 Si / 1000 Ang^3
#
#
#
# Elastic Constant Matrix: (Units=GPa)
#
#
# Indices 1 2 3 4 5 6 
#
# 1 130.0588 25.1563 22.0621 0.0000 0.0000 0.0000
# 2 25.1563 102.0780 66.1092 0.0000 0.0000 0.0000
# 3 22.0621 66.1092 85.8940 0.0000 0.0000 0.0000
# 4 0.0000 0.0000 0.0000 38.5355 0.0000 0.0000
# 5 0.0000 0.0000 0.0000 0.0000 22.3599 0.0000
# 6 0.0000 0.0000 0.0000 0.0000 0.0000 24.4165
#
#
#
# Elastic Compliance Matrix: (Units=1/GPa)
#
#
# Indices 1 2 3 4 5 6 
#
# 1 0.008124 -0.001297 -0.001088 0.000000 0.000000 0.000000
# 2 -0.001297 0.019740 -0.014860 0.000000 0.000000 0.000000
# 3 -0.001088 -0.014860 0.023359 0.000000 0.000000 0.000000
# 4 0.000000 0.000000 0.000000 0.025950 0.000000 0.000000
# 5 0.000000 0.000000 0.000000 0.000000 0.044723 0.000000
# 6 0.000000 0.000000 0.000000 0.000000 0.000000 0.040956
#
#
# Mechanical properties :
#
#
# Convention : Reuss Voigt Hill
#
# Bulk Modulus (GPa) = 59.76491 60.52067 60.14279
# Shear Modulus (GPa) = 24.64023 30.70923 27.67473
#
# Velocity S-wave (km/s) = 3.60114 4.02025 3.81645
# Velocity P-wave (km/s) = 6.98179 7.30767 7.14659
#
# Compressibility (1/GPa) = 0.01673223
#
# Stress axis : x y z
#
# Youngs Moduli (GPa) = 123.08639 50.65892 42.81056
#
# Poissons Ratio (x) = 0.06573 0.04659
# Poissons Ratio (y) = 0.15970 0.63615
# Poissons Ratio (z) = 0.13394 0.75278
#
# Static dielectric constant tensor:
#      x y z
#    x 3.891720 0.000000 0.000000 
#    y 0.000000 3.274610 0.000000 
#    z 0.000000 0.000000 3.454100 
# 
# 
# High freq. dielectric constant tensor:
#      x y z
#    x 1.763440 0.000000 0.000000 
#    y 0.000000 1.708980 0.000000 
#    z 0.000000 0.000000 1.730450 
# 
# From -- ./inp_files/10356.got.cif
#   From: 2010.03.12/outbox.cif.g09.slc.cpg/sg64_6_cif.got.tgz:10356.got - 2010.04.10 20:19:32.
