data_PCOD8261466
_publ_section_title
;
Structure prediction by ZEFSAII (Michael W. Deem and Ramdas Pophale) SiO2 
 PCOD8261466
Probable space group: C M C A
;
_chemical_formula_sum "Si O2"
_cell_formula_units_Z 64
_cell_length_a 8.715271
_cell_length_b 23.241164
_cell_length_c 17.836339
_cell_angle_alpha 90.000000
_cell_angle_beta 90.000000
_cell_angle_gamma 90.000000
_cell_volume 3612.804734
_symmetry_space_group_name_H-M "C M C A"
_symmetry_group_IT_number 64
_symmetry_cell_setting 'orthorhombic'
loop_
_space_group_symop_operation_xyz
x,y,z
-x,1/2-y,1/2+z
x,-y,-z
-x,1/2+y,1/2-z
-x,-y,-z
x,1/2+y,1/2-z
-x,y,z
x,1/2-y,1/2+z
1/2+x,1/2+y,z
1/2-x,-y,1/2+z
1/2+x,1/2-y,-z
1/2-x,y,1/2-z
1/2-x,1/2-y,-z
1/2+x,y,1/2-z
1/2-x,1/2+y,z
1/2+x,-y,1/2+z
loop_
_atom_site_type_symbol
_atom_site_label
_atom_site_fract_x
_atom_site_fract_y
_atom_site_fract_z
Si Si1 0.678632 0.975846 0.901668
Si Si2 0.319339 0.419088 0.046576
Si Si3 0.817423 0.688355 0.017404
Si Si4 0.175835 0.136895 0.326184
O O1 0.500000 0.978418 0.924462
O O2 0.776666 0.949022 0.968824
O O3 0.701413 0.932486 0.831821
O O4 0.745179 0.040391 0.887335
O O5 0.500000 0.414590 0.058732
O O6 0.246636 0.355302 0.046113
O O7 0.758021 0.668794 0.099943
O O8 0.000000 0.688455 0.013137
O O9 0.750000 0.750000 0.000000
O O10 0.250000 0.160326 0.250000
O O11 0.000000 0.152977 0.320298
#
# Coordination Sequence:
#
# PCOD8261466 Si02
#       4
#    16  16  16  16
#     4   9  16  28  44  66  95 124 152 190 235 283
#     4  10  17  26  44  70  94 121 154 192 236 284
#     4  10  20  34  50  72  99 131 169 210 249 293
#     4   9  19  32  49  72  99 128 161 200 249 300
#
# _framework density 17.714769
#
# number of rings (size 3 to 8) (size 9 to 14) (size 15 to 20)
#    0.000    2.500    0.000    6.750    0.000    6.000 
#    0.000    0.000    0.000    1.500    0.000   10.500 
#    0.000    0.000    0.000    0.000    0.000    0.000 
#
# Total GULP energy -396439.535484 kJ/mol
# GULP energy per Si atom -12388.735484 kJ/mol
# Density = 1.767445 g / cm^3
# Si number density = 17.714769 Si / 1000 Ang^3
#
#
#
# Elastic Constant Matrix: (Units=GPa)
#
#
# Indices 1 2 3 4 5 6 
#
# 1 87.7793 45.1024 27.4199 0.0000 0.0000 0.0000
# 2 45.1024 145.3429 35.3824 0.0000 0.0000 0.0000
# 3 27.4199 35.3824 55.6493 0.0000 0.0000 0.0000
# 4 0.0000 0.0000 0.0000 16.6262 0.0000 0.0000
# 5 0.0000 0.0000 0.0000 0.0000 20.4733 0.0000
# 6 0.0000 0.0000 0.0000 0.0000 0.0000 33.8262
#
#
#
# Elastic Compliance Matrix: (Units=1/GPa)
#
#
# Indices 1 2 3 4 5 6 
#
# 1 0.014698 -0.003310 -0.005137 0.000000 0.000000 0.000000
# 2 -0.003310 0.008886 -0.004019 0.000000 0.000000 0.000000
# 3 -0.005137 -0.004019 0.023056 0.000000 0.000000 0.000000
# 4 0.000000 0.000000 0.000000 0.060146 0.000000 0.000000
# 5 0.000000 0.000000 0.000000 0.000000 0.048844 0.000000
# 6 0.000000 0.000000 0.000000 0.000000 0.000000 0.029563
#
#
# Mechanical properties :
#
#
# Convention : Reuss Voigt Hill
#
# Bulk Modulus (GPa) = 46.06757 56.06453 51.06605
# Shear Modulus (GPa) = 23.00320 26.24292 24.62306
#
# Velocity S-wave (km/s) = 3.60742 3.85309 3.73228
# Velocity P-wave (km/s) = 6.58885 7.17720 6.88931
#
# Compressibility (1/GPa) = 0.02170724
#
# Stress axis : x y z
#
# Youngs Moduli (GPa) = 68.03709 112.53863 43.37268
#
# Poissons Ratio (x) = 0.37255 0.22282
# Poissons Ratio (y) = 0.22523 0.17430
# Poissons Ratio (z) = 0.34952 0.45225
#
# Static dielectric constant tensor:
#      x y z
#    x 3.268080 0.000000 0.000000 
#    y 0.000000 3.728680 0.000000 
#    z 0.000000 0.000000 2.892860 
# 
# 
# High freq. dielectric constant tensor:
#      x y z
#    x 1.694960 0.000000 0.000000 
#    y 0.000000 1.687050 0.000000 
#    z 0.000000 0.000000 1.631870 
# 
# From -- ./inp_files/29438.got.cif
#   From: 2010.03.12/outbox.cif.g09.slc.cpg/sg64_15_cif.got.tgz:29438.got - 2010.04.10 20:19:32.
