data_PCOD8261813
_publ_section_title
;
Structure prediction by ZEFSAII (Michael W. Deem and Ramdas Pophale) SiO2 
 PCOD8261813
Probable space group: C M C A
;
_chemical_formula_sum "Si O2"
_cell_formula_units_Z 104
_cell_length_a 9.124766
_cell_length_b 22.336984
_cell_length_c 27.008709
_cell_angle_alpha 90.000000
_cell_angle_beta 90.000000
_cell_angle_gamma 90.000000
_cell_volume 5504.908374
_symmetry_space_group_name_H-M "C M C A"
_symmetry_group_IT_number 64
_symmetry_cell_setting 'orthorhombic'
loop_
_space_group_symop_operation_xyz
x,y,z
-x,1/2-y,1/2+z
x,-y,-z
-x,1/2+y,1/2-z
-x,-y,-z
x,1/2+y,1/2-z
-x,y,z
x,1/2-y,1/2+z
1/2+x,1/2+y,z
1/2-x,-y,1/2+z
1/2+x,1/2-y,-z
1/2-x,y,1/2-z
1/2-x,1/2-y,-z
1/2+x,y,1/2-z
1/2-x,1/2+y,z
1/2+x,-y,1/2+z
loop_
_atom_site_type_symbol
_atom_site_label
_atom_site_fract_x
_atom_site_fract_y
_atom_site_fract_z
Si Si1 0.335457 0.444014 0.896806
Si Si2 0.824924 0.209397 0.610823
Si Si3 0.327484 0.845018 0.298969
Si Si4 0.164392 0.372669 0.025639
Si Si5 0.757078 0.500000 0.500000
Si Si6 0.670504 0.017510 0.700140
Si Si7 0.824727 0.829655 0.577693
O O1 0.500000 0.421150 0.886618
O O2 0.283250 0.486115 0.851391
O O3 0.221905 0.389209 0.892595
O O4 0.342987 0.476720 0.951106
O O5 0.743849 0.197744 0.661276
O O6 0.763965 0.156661 0.574321
O O7 0.768786 0.273536 0.593993
O O8 0.000000 0.209539 0.617323
O O9 0.500000 0.834435 0.296372
O O10 0.250000 0.822086 0.250000
O O11 0.286131 0.913794 0.308844
O O12 0.165153 0.444734 0.022232
O O13 0.000000 0.350213 0.027112
O O14 0.234330 0.342034 0.977677
O O15 0.500000 0.009684 0.710791
O O16 0.750000 0.992537 0.750000
O O17 0.000000 0.820178 0.582626
#
# Coordination Sequence:
#
# PCOD8261813 Si02
#       7
#    16  16  16  16   8  16  16
#     4  10  20  35  54  80 111 142 176 220 271 326
#     4  11  21  35  55  79 106 142 182 222 267 317
#     4  10  20  36  56  81 109 138 173 218 266 316
#     4   9  19  33  52  79 111 143 178 218 265 318
#     4  10  18  32  54  82 113 144 175 216 271 330
#     4   9  19  35  56  81 110 141 177 218 265 318
#     4  10  21  37  54  76 106 143 183 224 266 316
#
# _framework density 18.892230999999999
#
# number of rings (size 3 to 8) (size 9 to 14) (size 15 to 20)
#    0.000    2.154    0.000    3.231    0.000    1.846 
#    0.000    8.462    0.000    1.846    0.000    0.000 
#    0.000    0.000    0.000    0.000    0.000    0.000 
#
# Total GULP energy -644242.100006 kJ/mol
# GULP energy per Si atom -12389.271154 kJ/mol
# Density = 1.884923 g / cm^3
# Si number density = 18.892231 Si / 1000 Ang^3
#
#
#
# Elastic Constant Matrix: (Units=GPa)
#
#
# Indices 1 2 3 4 5 6 
#
# 1 74.2313 29.8199 35.8899 0.0000 0.0000 0.0000
# 2 29.8199 103.5925 62.7033 0.0000 0.0000 0.0000
# 3 35.8899 62.7033 121.1539 0.0000 0.0000 0.0000
# 4 0.0000 0.0000 0.0000 33.2742 0.0000 0.0000
# 5 0.0000 0.0000 0.0000 0.0000 29.7774 0.0000
# 6 0.0000 0.0000 0.0000 0.0000 0.0000 6.3761
#
#
#
# Elastic Compliance Matrix: (Units=1/GPa)
#
#
# Indices 1 2 3 4 5 6 
#
# 1 0.016175 -0.002557 -0.003468 0.000000 0.000000 0.000000
# 2 -0.002557 0.014461 -0.006727 0.000000 0.000000 0.000000
# 3 -0.003468 -0.006727 0.012763 0.000000 0.000000 0.000000
# 4 0.000000 0.000000 0.000000 0.030053 0.000000 0.000000
# 5 0.000000 0.000000 0.000000 0.000000 0.033583 0.000000
# 6 0.000000 0.000000 0.000000 0.000000 0.000000 0.156836
#
#
# Mechanical properties :
#
#
# Convention : Reuss Voigt Hill
#
# Bulk Modulus (GPa) = 55.88128 61.75598 58.81863
# Shear Modulus (GPa) = 16.92962 25.25650 21.09306
#
# Velocity S-wave (km/s) = 2.99677 3.66029 3.34502
# Velocity P-wave (km/s) = 6.45115 7.11500 6.79119
#
# Compressibility (1/GPa) = 0.01789508
#
# Stress axis : x y z
#
# Youngs Moduli (GPa) = 61.82205 69.15205 78.35204
#
# Poissons Ratio (x) = 0.17681 0.27176
# Poissons Ratio (y) = 0.15807 0.52706
# Poissons Ratio (z) = 0.21443 0.46517
#
# Static dielectric constant tensor:
#      x y z
#    x 3.345880 0.000000 0.000000 
#    y 0.000000 3.403680 0.000000 
#    z 0.000000 0.000000 3.563450 
# 
# 
# High freq. dielectric constant tensor:
#      x y z
#    x 1.727510 0.000000 0.000000 
#    y 0.000000 1.729080 0.000000 
#    z 0.000000 0.000000 1.741830 
# 
# From -- ./inp_files/48231.got.cif
#   From: 2010.03.12/outbox.cif.g09.slc.cpg/sg64_25_cif.got.tgz:48231.got - 2010.04.10 20:19:32.
