data_PCOD8261400
_publ_section_title
;
Structure prediction by ZEFSAII (Michael W. Deem and Ramdas Pophale) SiO2 
 PCOD8261400
Probable space group: C M C A
;
_chemical_formula_sum "Si O2"
_cell_formula_units_Z 80
_cell_length_a 12.598180
_cell_length_b 20.396870
_cell_length_c 18.714764
_cell_angle_alpha 90.000000
_cell_angle_beta 90.000000
_cell_angle_gamma 90.000000
_cell_volume 4809.010131
_symmetry_space_group_name_H-M "C M C A"
_symmetry_group_IT_number 64
_symmetry_cell_setting 'orthorhombic'
loop_
_space_group_symop_operation_xyz
x,y,z
-x,1/2-y,1/2+z
x,-y,-z
-x,1/2+y,1/2-z
-x,-y,-z
x,1/2+y,1/2-z
-x,y,z
x,1/2-y,1/2+z
1/2+x,1/2+y,z
1/2-x,-y,1/2+z
1/2+x,1/2-y,-z
1/2-x,y,1/2-z
1/2-x,1/2-y,-z
1/2+x,y,1/2-z
1/2-x,1/2+y,z
1/2+x,-y,1/2+z
loop_
_atom_site_type_symbol
_atom_site_label
_atom_site_fract_x
_atom_site_fract_y
_atom_site_fract_z
Si Si1 0.883590 0.265174 0.052465
Si Si2 0.500000 0.091855 0.563881
Si Si3 0.664715 0.299498 0.091466
Si Si4 0.617814 0.812783 0.810319
Si Si5 0.000000 0.946434 0.899092
Si Si6 0.663175 0.148977 0.346822
O O1 0.791193 0.313282 0.081795
O O2 0.872253 0.193850 0.087617
O O3 0.000000 0.295545 0.068719
O O4 0.873150 0.252957 0.967972
O O5 0.395423 0.131835 0.586605
O O6 0.500000 0.077582 0.480331
O O7 0.500000 0.024553 0.607892
O O8 0.640512 0.262716 0.166225
O O9 0.500000 0.835394 0.834824
O O10 0.624603 0.815137 0.724948
O O11 0.708520 0.860063 0.844820
O O12 0.894495 0.920619 0.858336
#
# Coordination Sequence:
#
# PCOD8261400 Si02
#       6
#    16   8  16  16   8  16
#     4  10  16  28  48  70 108 127 151 207 255 297
#     4  11  20  33  50  72 102 132 171 203 239 304
#     4  10  18  28  46  77 103 126 161 202 256 297
#     4  10  18  28  50  76 102 124 158 218 257 292
#     4  11  20  33  52  68 100 140 168 206 236 289
#     4  10  18  30  48  76  99 131 169 199 254 297
#
# _framework density 16.635439000000002
#
# number of rings (size 3 to 8) (size 9 to 14) (size 15 to 20)
#    0.000    1.800    6.000    0.000    0.000    0.000 
#    0.000    0.000    0.000   10.800    0.000    2.800 
#    0.000    0.000    0.000    0.000    0.000    0.000 
#
# Total GULP energy -495747.256779 kJ/mol
# GULP energy per Si atom -12393.681419 kJ/mol
# Density = 1.659758 g / cm^3
# Si number density = 16.635439 Si / 1000 Ang^3
#
#
#
# Elastic Constant Matrix: (Units=GPa)
#
#
# Indices 1 2 3 4 5 6 
#
# 1 191.8958 54.2969 19.2387 0.0000 0.0000 0.0000
# 2 54.2969 98.0848 32.8841 0.0000 0.0000 0.0000
# 3 19.2387 32.8841 66.3345 0.0000 0.0000 0.0000
# 4 0.0000 0.0000 0.0000 19.7663 0.0000 0.0000
# 5 0.0000 0.0000 0.0000 0.0000 15.0569 0.0000
# 6 0.0000 0.0000 0.0000 0.0000 0.0000 21.9250
#
#
#
# Elastic Compliance Matrix: (Units=1/GPa)
#
#
# Indices 1 2 3 4 5 6 
#
# 1 0.006180 -0.003382 -0.000116 0.000000 0.000000 0.000000
# 2 -0.003382 0.014079 -0.005998 0.000000 0.000000 0.000000
# 3 -0.000116 -0.005998 0.018082 0.000000 0.000000 0.000000
# 4 0.000000 0.000000 0.000000 0.050591 0.000000 0.000000
# 5 0.000000 0.000000 0.000000 0.000000 0.066415 0.000000
# 6 0.000000 0.000000 0.000000 0.000000 0.000000 0.045610
#
#
# Mechanical properties :
#
#
# Convention : Reuss Voigt Hill
#
# Bulk Modulus (GPa) = 51.68407 63.23940 57.46174
# Shear Modulus (GPa) = 22.08504 28.00935 25.04719
#
# Velocity S-wave (km/s) = 3.64756 4.10776 3.88448
# Velocity P-wave (km/s) = 6.99112 7.78432 7.39836
#
# Compressibility (1/GPa) = 0.01934832
#
# Stress axis : x y z
#
# Youngs Moduli (GPa) = 161.81919 71.03021 55.30308
#
# Poissons Ratio (x) = 0.24024 0.00640
# Poissons Ratio (y) = 0.54730 0.33172
# Poissons Ratio (z) = 0.01871 0.42606
#
# Static dielectric constant tensor:
#      x y z
#    x 3.681590 0.000000 0.000000 
#    y 0.000000 2.706640 0.000000 
#    z 0.000000 0.000000 3.165450 
# 
# 
# High freq. dielectric constant tensor:
#      x y z
#    x 1.666810 0.000000 0.000000 
#    y 0.000000 1.572940 0.000000 
#    z 0.000000 0.000000 1.643590 
# 
# From -- ./inp_files/39352.got.cif
#   From: 2010.03.12/outbox.cif.g09.slc.cpg/sg64_20_cif.got.tgz:39352.got - 2010.04.10 20:19:32.
