data_PCOD8261807
_publ_section_title
;
Structure prediction by ZEFSAII (Michael W. Deem and Ramdas Pophale) SiO2 
 PCOD8261807
Probable space group: C M C A
;
_chemical_formula_sum "Si O2"
_cell_formula_units_Z 72
_cell_length_a 10.687988
_cell_length_b 25.008741
_cell_length_c 14.441627
_cell_angle_alpha 90.000000
_cell_angle_beta 90.000000
_cell_angle_gamma 90.000000
_cell_volume 3860.147592
_symmetry_space_group_name_H-M "C M C A"
_symmetry_group_IT_number 64
_symmetry_cell_setting 'orthorhombic'
loop_
_space_group_symop_operation_xyz
x,y,z
-x,1/2-y,1/2+z
x,-y,-z
-x,1/2+y,1/2-z
-x,-y,-z
x,1/2+y,1/2-z
-x,y,z
x,1/2-y,1/2+z
1/2+x,1/2+y,z
1/2-x,-y,1/2+z
1/2+x,1/2-y,-z
1/2-x,y,1/2-z
1/2-x,1/2-y,-z
1/2+x,y,1/2-z
1/2-x,1/2+y,z
1/2+x,-y,1/2+z
loop_
_atom_site_type_symbol
_atom_site_label
_atom_site_fract_x
_atom_site_fract_y
_atom_site_fract_z
Si Si1 0.637271 0.798668 0.691602
Si Si2 0.140171 0.836254 0.013617
Si Si3 0.635477 0.318813 0.351569
Si Si4 0.357811 0.045546 0.565699
Si Si5 0.750000 0.411144 0.250000
O O1 0.500000 0.822009 0.720302
O O2 0.750000 0.825445 0.750000
O O3 0.664387 0.810551 0.585113
O O4 0.636920 0.735000 0.709200
O O5 0.000000 0.820932 0.049756
O O6 0.247756 0.814339 0.079777
O O7 0.151993 0.900100 0.007477
O O8 0.500000 0.322344 0.403693
O O9 0.641303 0.370513 0.284142
O O10 0.500000 0.029206 0.587298
O O11 0.290718 0.050894 0.665339
O O12 0.295472 0.000000 0.500000
#
# Coordination Sequence:
#
# PCOD8261807 Si02
#       5
#    16  16  16  16   8
#     4  10  20  33  48  74 107 139 172 208 255 311
#     4   9  19  34  52  73 102 137 173 213 260 313
#     4  10  19  31  51  77 104 133 170 214 259 309
#     4   9  18  34  55  77 101 135 178 220 262 313
#     4  10  18  32  54  78 106 132 176 216 268 312
#
# _framework density 18.652135999999999
#
# number of rings (size 3 to 8) (size 9 to 14) (size 15 to 20)
#    0.000    2.444    1.111    1.333    0.000    2.667 
#    2.000    0.000    0.000   16.667    0.000    0.000 
#    0.000    0.000    0.000    0.000    0.000    0.000 
#
# Total GULP energy -446035.436269 kJ/mol
# GULP energy per Si atom -12389.873230 kJ/mol
# Density = 1.860968 g / cm^3
# Si number density = 18.652136 Si / 1000 Ang^3
#
#
#
# Elastic Constant Matrix: (Units=GPa)
#
#
# Indices 1 2 3 4 5 6 
#
# 1 147.9427 13.2919 58.9673 0.0000 0.0000 0.0000
# 2 13.2919 49.9681 30.9417 0.0000 0.0000 0.0000
# 3 58.9673 30.9417 94.1042 0.0000 0.0000 0.0000
# 4 0.0000 0.0000 0.0000 25.9337 0.0000 0.0000
# 5 0.0000 0.0000 0.0000 0.0000 33.5909 0.0000
# 6 0.0000 0.0000 0.0000 0.0000 0.0000 16.7354
#
#
#
# Elastic Compliance Matrix: (Units=1/GPa)
#
#
# Indices 1 2 3 4 5 6 
#
# 1 0.009086 0.001392 -0.006151 0.000000 0.000000 0.000000
# 2 0.001392 0.025342 -0.009205 0.000000 0.000000 0.000000
# 3 -0.006151 -0.009205 0.017508 0.000000 0.000000 0.000000
# 4 0.000000 0.000000 0.000000 0.038560 0.000000 0.000000
# 5 0.000000 0.000000 0.000000 0.000000 0.029770 0.000000
# 6 0.000000 0.000000 0.000000 0.000000 0.000000 0.059754
#
#
# Mechanical properties :
#
#
# Convention : Reuss Voigt Hill
#
# Bulk Modulus (GPa) = 41.65298 55.37964 48.51631
# Shear Modulus (GPa) = 23.15347 27.83960 25.49653
#
# Velocity S-wave (km/s) = 3.52707 3.86757 3.70124
# Velocity P-wave (km/s) = 6.24235 7.04978 6.65831
#
# Compressibility (1/GPa) = 0.02400789
#
# Stress axis : x y z
#
# Youngs Moduli (GPa) = 110.05864 39.45955 57.11816
#
# Poissons Ratio (x) = -0.05493 0.35134
# Poissons Ratio (y) = -0.15321 0.52577
# Poissons Ratio (z) = 0.67699 0.36322
#
# Static dielectric constant tensor:
#      x y z
#    x 3.761180 0.000000 0.000000 
#    y 0.000000 3.335250 0.000000 
#    z 0.000000 0.000000 3.290450 
# 
# 
# High freq. dielectric constant tensor:
#      x y z
#    x 1.733100 0.000000 0.000000 
#    y 0.000000 1.701200 0.000000 
#    z 0.000000 0.000000 1.707890 
# 
# From -- ./inp_files/13058.got.cif
#   From: 2010.03.12/outbox.cif.g09.slc.cpg/sg64_7_cif.got.tgz:13058.got - 2010.04.10 20:19:32.
