data_PCOD8261359
_publ_section_title
;
Structure prediction by ZEFSAII (Michael W. Deem and Ramdas Pophale) SiO2 
 PCOD8261359
Probable space group: C M C M
;
_chemical_formula_sum "Si O2"
_cell_formula_units_Z 96
_cell_length_a 13.808451
_cell_length_b 24.143884
_cell_length_c 16.550505
_cell_angle_alpha 90.000000
_cell_angle_beta 90.000000
_cell_angle_gamma 90.000000
_cell_volume 5517.766890
_symmetry_space_group_name_H-M "C M C M"
_symmetry_group_IT_number 63
_symmetry_cell_setting 'orthorhombic'
loop_
_space_group_symop_operation_xyz
x,y,z
-x,-y,1/2+z
x,-y,-z
-x,y,1/2-z
-x,-y,-z
x,y,1/2-z
-x,y,z
x,-y,1/2+z
1/2+x,1/2+y,z
1/2-x,1/2-y,1/2+z
1/2+x,1/2-y,-z
1/2-x,1/2+y,1/2-z
1/2-x,1/2-y,-z
1/2+x,1/2+y,1/2-z
1/2-x,1/2+y,z
1/2+x,1/2-y,1/2+z
loop_
_atom_site_type_symbol
_atom_site_label
_atom_site_fract_x
_atom_site_fract_y
_atom_site_fract_z
Si Si1 0.110385 0.363164 0.655966
Si Si2 0.209862 0.933804 0.655772
Si Si3 0.888666 0.956079 0.155113
Si Si4 0.892167 0.161005 0.905390
Si Si5 0.779275 0.737138 0.091288
Si Si6 0.394441 0.669830 0.404733
O O1 0.122120 0.346075 0.750000
O O2 0.179115 0.416212 0.636197
O O3 0.140049 0.311344 0.599379
O O4 0.000000 0.380114 0.636066
O O5 0.188572 0.931569 0.750000
O O6 0.134753 0.892518 0.614703
O O7 0.183167 0.995311 0.624161
O O8 0.878958 0.946369 0.250000
O O9 0.851712 0.900303 0.111216
O O10 0.000000 0.969987 0.131488
O O11 0.820736 0.207281 0.866075
O O12 0.000000 0.166139 0.867090
O O13 0.896809 0.174822 0.999260
O O14 0.681661 0.713681 0.134190
O O15 0.750000 0.750000 0.000000
O O16 0.500000 0.682878 0.368158
#
# Coordination Sequence:
#
# PCOD8261359 Si02
#       6
#    16  16  16  16  16  16
#     4   9  17  29  47  70  91 113 147 191 232 265
#     4   9  17  29  44  63  87 113 141 175 218 264
#     4   9  17  28  43  64  89 116 143 174 217 267
#     4   9  17  28  42  62  87 114 145 178 216 263
#     4   9  17  29  44  64  90 120 148 180 223 269
#     4   9  17  28  43  63  84 110 145 181 216 256
#
# _framework density 17.398343000000001
#
# number of rings (size 3 to 8) (size 9 to 14) (size 15 to 20)
#    0.000    3.000    0.000    1.000    0.000    3.000 
#    0.000    4.167    0.000    1.000    0.000   10.500 
#    0.000    0.000    0.000    0.000    0.000    0.000 
#
# Total GULP energy -594756.930829 kJ/mol
# GULP energy per Si atom -12390.769392 kJ/mol
# Density = 1.735874 g / cm^3
# Si number density = 17.398343 Si / 1000 Ang^3
#
#
#
# Elastic Constant Matrix: (Units=GPa)
#
#
# Indices 1 2 3 4 5 6 
#
# 1 141.2390 87.6661 15.7368 0.0000 0.0000 0.0000
# 2 87.6661 151.3026 16.4701 0.0000 0.0000 0.0000
# 3 15.7368 16.4701 14.0928 0.0000 0.0000 0.0000
# 4 0.0000 0.0000 0.0000 18.6943 0.0000 0.0000
# 5 0.0000 0.0000 0.0000 0.0000 16.6256 0.0000
# 6 0.0000 0.0000 0.0000 0.0000 0.0000 32.0165
#
#
#
# Elastic Compliance Matrix: (Units=1/GPa)
#
#
# Indices 1 2 3 4 5 6 
#
# 1 0.011451 -0.006007 -0.005767 0.000000 0.000000 0.000000
# 2 -0.006007 0.010724 -0.005825 0.000000 0.000000 0.000000
# 3 -0.005767 -0.005825 0.084205 0.000000 0.000000 0.000000
# 4 0.000000 0.000000 0.000000 0.053492 0.000000 0.000000
# 5 0.000000 0.000000 0.000000 0.000000 0.060148 0.000000
# 6 0.000000 0.000000 0.000000 0.000000 0.000000 0.031234
#
#
# Mechanical properties :
#
#
# Convention : Reuss Voigt Hill
#
# Bulk Modulus (GPa) = 14.04834 60.70893 37.37863
# Shear Modulus (GPa) = 16.11967 25.91805 21.01886
#
# Velocity S-wave (km/s) = 3.04716 3.86383 3.47954
# Velocity P-wave (km/s) = 4.52463 7.40776 6.13788
#
# Compressibility (1/GPa) = 0.07118280
#
# Stress axis : x y z
#
# Youngs Moduli (GPa) = 87.32543 93.24824 11.87577
#
# Poissons Ratio (x) = 0.56017 0.06848
# Poissons Ratio (y) = 0.52459 0.06918
# Poissons Ratio (z) = 0.50357 0.54317
#
# Static dielectric constant tensor:
#      x y z
#    x 3.702670 0.000000 0.000000 
#    y 0.000000 3.452920 0.000000 
#    z 0.000000 0.000000 2.969510 
# 
# 
# High freq. dielectric constant tensor:
#      x y z
#    x 1.669180 0.000000 0.000000 
#    y 0.000000 1.670130 0.000000 
#    z 0.000000 0.000000 1.643070 
# 
# From -- ./inp_files/52895.got.cif
#   From: 2010.03.12/outbox.cif.g09.slc.cpg/sg63_27_cif.got.tgz:52895.got - 2010.04.10 19:34:48.
