data_PCOD8261623
_publ_section_title
;
Structure prediction by ZEFSAII (Michael W. Deem and Ramdas Pophale) SiO2 
 PCOD8261623
Probable space group: C M C A
;
_chemical_formula_sum "Si O2"
_cell_formula_units_Z 96
_cell_length_a 9.522274
_cell_length_b 19.260194
_cell_length_c 30.615687
_cell_angle_alpha 90.000000
_cell_angle_beta 90.000000
_cell_angle_gamma 90.000000
_cell_volume 5614.942853
_symmetry_space_group_name_H-M "C M C A"
_symmetry_group_IT_number 64
_symmetry_cell_setting 'orthorhombic'
loop_
_space_group_symop_operation_xyz
x,y,z
-x,1/2-y,1/2+z
x,-y,-z
-x,1/2+y,1/2-z
-x,-y,-z
x,1/2+y,1/2-z
-x,y,z
x,1/2-y,1/2+z
1/2+x,1/2+y,z
1/2-x,-y,1/2+z
1/2+x,1/2-y,-z
1/2-x,y,1/2-z
1/2-x,1/2-y,-z
1/2+x,y,1/2-z
1/2-x,1/2+y,z
1/2+x,-y,1/2+z
loop_
_atom_site_type_symbol
_atom_site_label
_atom_site_fract_x
_atom_site_fract_y
_atom_site_fract_z
Si Si1 0.661407 0.156887 0.292451
Si Si2 0.338245 0.235082 0.869661
Si Si3 0.166309 0.955015 0.858278
Si Si4 0.333397 0.103243 0.612938
Si Si5 0.833342 0.353569 0.568978
Si Si6 0.833221 0.074373 0.984365
O O1 0.500000 0.150777 0.278364
O O2 0.750000 0.174300 0.250000
O O3 0.682437 0.218664 0.326798
O O4 0.714882 0.084197 0.314031
O O5 0.500000 0.212460 0.874821
O O6 0.242178 0.167764 0.864533
O O7 0.285983 0.278667 0.912338
O O8 0.228869 0.914965 0.900470
O O9 0.000000 0.949670 0.861422
O O10 0.212890 0.035264 0.859400
O O11 0.500000 0.114833 0.614386
O O12 0.276941 0.094730 0.563353
O O13 0.782963 0.366850 0.519210
O O14 0.000000 0.357237 0.571772
O O15 0.000000 0.069362 0.982258
O O16 0.772990 0.000000 0.000000
#
# Coordination Sequence:
#
# PCOD8261623 Si02
#       6
#    16  16  16  16  16  16
#     4   9  18  34  55  73  89 116 155 193 233 284
#     4   9  19  33  47  66  98 133 155 182 237 296
#     4   8  14  27  47  70  93 117 150 192 234 273
#     4  10  18  28  47  74  99 123 158 202 235 265
#     4   8  13  25  44  65  91 126 163 194 225 267
#     4   9  14  22  42  72  96 119 163 211 234 253
#
# _framework density 17.097235999999999
#
# number of rings (size 3 to 8) (size 9 to 14) (size 15 to 20)
#    0.000    3.167    1.667    2.000    0.000    1.333 
#    0.000    1.667    0.000    5.500    0.000    0.000 
#    0.000    0.000    0.000    0.000    0.000    0.000 
#
# Total GULP energy -594804.836784 kJ/mol
# GULP energy per Si atom -12391.767433 kJ/mol
# Density = 1.705832 g / cm^3
# Si number density = 17.097236 Si / 1000 Ang^3
#
#
#
# Elastic Constant Matrix: (Units=GPa)
#
#
# Indices 1 2 3 4 5 6 
#
# 1 33.4273 37.9121 29.2334 0.0000 0.0000 0.0000
# 2 37.9121 117.9838 37.2867 0.0000 0.0000 0.0000
# 3 29.2334 37.2867 81.0493 0.0000 0.0000 0.0000
# 4 0.0000 0.0000 0.0000 16.6197 0.0000 0.0000
# 5 0.0000 0.0000 0.0000 0.0000 17.8606 0.0000
# 6 0.0000 0.0000 0.0000 0.0000 0.0000 23.5700
#
#
#
# Elastic Compliance Matrix: (Units=1/GPa)
#
#
# Indices 1 2 3 4 5 6 
#
# 1 0.059004 -0.014316 -0.014696 0.000000 0.000000 0.000000
# 2 -0.014316 0.013391 -0.000997 0.000000 0.000000 0.000000
# 3 -0.014696 -0.000997 0.018098 0.000000 0.000000 0.000000
# 4 0.000000 0.000000 0.000000 0.060169 0.000000 0.000000
# 5 0.000000 0.000000 0.000000 0.000000 0.055989 0.000000
# 6 0.000000 0.000000 0.000000 0.000000 0.000000 0.042427
#
#
# Mechanical properties :
#
#
# Convention : Reuss Voigt Hill
#
# Bulk Modulus (GPa) = 32.81365 49.03609 40.92487
# Shear Modulus (GPa) = 15.66152 20.14528 17.90340
#
# Velocity S-wave (km/s) = 3.02988 3.43633 3.23948
# Velocity P-wave (km/s) = 5.61019 6.66989 6.16286
#
# Compressibility (1/GPa) = 0.03047512
#
# Stress axis : x y z
#
# Youngs Moduli (GPa) = 16.94798 74.67759 55.25606
#
# Poissons Ratio (x) = 1.06905 0.81205
# Poissons Ratio (y) = 0.24262 0.05509
# Poissons Ratio (z) = 0.24907 0.07446
#
# Static dielectric constant tensor:
#      x y z
#    x 2.640620 0.000000 0.000000 
#    y 0.000000 3.292950 0.000000 
#    z 0.000000 0.000000 3.257120 
# 
# 
# High freq. dielectric constant tensor:
#      x y z
#    x 1.601760 0.000000 0.000000 
#    y 0.000000 1.662580 0.000000 
#    z 0.000000 0.000000 1.654690 
# 
# From -- ./inp_files/44201.got.cif
#   From: 2010.03.12/outbox.cif.g09.slc.cpg/sg64_23_cif.got.tgz:44201.got - 2010.04.10 20:19:32.
