data_PCOD8261366
_publ_section_title
;
Structure prediction by ZEFSAII (Michael W. Deem and Ramdas Pophale) SiO2 
 PCOD8261366
Probable space group: C M C M
;
_chemical_formula_sum "Si O2"
_cell_formula_units_Z 80
_cell_length_a 9.510867
_cell_length_b 14.667934
_cell_length_c 33.155715
_cell_angle_alpha 90.000000
_cell_angle_beta 90.000000
_cell_angle_gamma 90.000000
_cell_volume 4625.380377
_symmetry_space_group_name_H-M "C M C M"
_symmetry_group_IT_number 63
_symmetry_cell_setting 'orthorhombic'
loop_
_space_group_symop_operation_xyz
x,y,z
-x,-y,1/2+z
x,-y,-z
-x,y,1/2-z
-x,-y,-z
x,y,1/2-z
-x,y,z
x,-y,1/2+z
1/2+x,1/2+y,z
1/2-x,1/2-y,1/2+z
1/2+x,1/2-y,-z
1/2-x,1/2+y,1/2-z
1/2-x,1/2-y,-z
1/2+x,1/2+y,1/2-z
1/2-x,1/2+y,z
1/2+x,1/2-y,1/2+z
loop_
_atom_site_type_symbol
_atom_site_label
_atom_site_fract_x
_atom_site_fract_y
_atom_site_fract_z
Si Si1 0.337448 0.915559 0.295663
Si Si2 0.666827 0.755071 0.149381
Si Si3 0.162172 0.906209 0.704345
Si Si4 0.664175 0.740431 0.058260
Si Si5 0.163765 0.605723 0.494716
O O1 0.316284 0.879507 0.250000
O O2 0.500000 0.937055 0.303996
O O3 0.275246 0.842706 0.327036
O O4 0.250986 0.005166 0.304006
O O5 0.500000 0.756781 0.151337
O O6 0.722742 0.667169 0.173076
O O7 0.720445 0.755029 0.103517
O O8 0.182253 0.869975 0.750000
O O9 0.000000 0.928952 0.695918
O O10 0.500000 0.715082 0.056975
O O11 0.747512 0.653994 0.040459
O O12 0.692709 0.835831 0.035229
O O13 0.211891 0.500000 0.500000
O O14 0.000000 0.608931 0.482722
#
# Coordination Sequence:
#
# PCOD8261366 Si02
#       5
#    16  16  16  16  16
#     4   9  17  30  48  69  93 123 158 191 224 267
#     4   9  17  30  48  68  92 123 155 186 224 271
#     4   9  17  30  47  66  90 121 155 189 225 265
#     4   9  18  32  49  70  93 118 153 190 222 269
#     4   9  18  33  51  69  92 121 149 183 232 280
#
# _framework density 17.295874999999999
#
# number of rings (size 3 to 8) (size 9 to 14) (size 15 to 20)
#    0.000    3.000    0.000    0.600    0.000    4.400 
#    0.000    5.000    0.000    4.800    0.000    0.000 
#    0.000    0.000    0.000    0.000    0.000    0.000 
#
# Total GULP energy -495881.408318 kJ/mol
# GULP energy per Si atom -12397.035208 kJ/mol
# Density = 1.725651 g / cm^3
# Si number density = 17.295875 Si / 1000 Ang^3
#
#
#
# Elastic Constant Matrix: (Units=GPa)
#
#
# Indices 1 2 3 4 5 6 
#
# 1 41.9606 47.2533 41.7169 0.0000 0.0000 0.0000
# 2 47.2533 140.8449 86.3172 0.0000 0.0000 0.0000
# 3 41.7169 86.3172 147.6313 0.0000 0.0000 0.0000
# 4 0.0000 0.0000 0.0000 1.9821 0.0000 0.0000
# 5 0.0000 0.0000 0.0000 0.0000 20.5344 0.0000
# 6 0.0000 0.0000 0.0000 0.0000 0.0000 22.1091
#
#
#
# Elastic Compliance Matrix: (Units=1/GPa)
#
#
# Indices 1 2 3 4 5 6 
#
# 1 0.041002 -0.010372 -0.005522 0.000000 0.000000 0.000000
# 2 -0.010372 0.013689 -0.005073 0.000000 0.000000 0.000000
# 3 -0.005522 -0.005073 0.011300 0.000000 0.000000 0.000000
# 4 0.000000 0.000000 0.000000 0.504512 0.000000 0.000000
# 5 0.000000 0.000000 0.000000 0.000000 0.048699 0.000000
# 6 0.000000 0.000000 0.000000 0.000000 0.000000 0.045230
#
#
# Mechanical properties :
#
#
# Convention : Reuss Voigt Hill
#
# Bulk Modulus (GPa) = 41.56712 75.66795 58.61754
# Shear Modulus (GPa) = 6.99905 19.26841 13.13373
#
# Velocity S-wave (km/s) = 2.01381 3.34136 2.75863
# Velocity P-wave (km/s) = 5.43069 7.66357 6.64164
#
# Compressibility (1/GPa) = 0.02405747
#
# Stress axis : x y z
#
# Youngs Moduli (GPa) = 24.38912 73.05371 88.49741
#
# Poissons Ratio (x) = 0.75772 0.48866
# Poissons Ratio (y) = 0.25297 0.44891
# Poissons Ratio (z) = 0.13467 0.37057
#
# Static dielectric constant tensor:
#      x y z
#    x 3.000270 0.000000 0.000000 
#    y 0.000000 3.272970 0.000000 
#    z 0.000000 0.000000 3.440820 
# 
# 
# High freq. dielectric constant tensor:
#      x y z
#    x 1.643880 0.000000 0.000000 
#    y 0.000000 1.671710 0.000000 
#    z 0.000000 0.000000 1.670900 
# 
# From -- ./inp_files/72483.got.cif
#   From: 2010.03.12/outbox.cif.g09.slc.cpg/sg63_37_cif.got.tgz:72483.got - 2010.04.10 19:34:48.
