data_PCOD8261770
_publ_section_title
;
Structure prediction by ZEFSAII (Michael W. Deem and Ramdas Pophale) SiO2 
 PCOD8261770
Probable space group: C M C A
;
_chemical_formula_sum "Si O2"
_cell_formula_units_Z 72
_cell_length_a 13.921772
_cell_length_b 17.392872
_cell_length_c 17.858822
_cell_angle_alpha 90.000000
_cell_angle_beta 90.000000
_cell_angle_gamma 90.000000
_cell_volume 4324.327987
_symmetry_space_group_name_H-M "C M C A"
_symmetry_group_IT_number 64
_symmetry_cell_setting 'orthorhombic'
loop_
_space_group_symop_operation_xyz
x,y,z
-x,1/2-y,1/2+z
x,-y,-z
-x,1/2+y,1/2-z
-x,-y,-z
x,1/2+y,1/2-z
-x,y,z
x,1/2-y,1/2+z
1/2+x,1/2+y,z
1/2-x,-y,1/2+z
1/2+x,1/2-y,-z
1/2-x,y,1/2-z
1/2-x,1/2-y,-z
1/2+x,y,1/2-z
1/2-x,1/2+y,z
1/2+x,-y,1/2+z
loop_
_atom_site_type_symbol
_atom_site_label
_atom_site_fract_x
_atom_site_fract_y
_atom_site_fract_z
Si Si1 0.710590 0.814673 0.395816
Si Si2 0.609106 0.246109 0.967918
Si Si3 0.250000 0.224989 0.250000
Si Si4 0.612469 0.973393 0.417743
Si Si5 0.892336 0.629646 0.345575
O O1 0.642665 0.761529 0.447472
O O2 0.820119 0.814767 0.427525
O O3 0.704799 0.779258 0.313235
O O4 0.674621 0.901412 0.391393
O O5 0.500000 0.213778 0.966970
O O6 0.616712 0.327243 0.925113
O O7 0.169922 0.168636 0.218064
O O8 0.500000 0.951620 0.416693
O O9 0.637122 0.041449 0.359594
O O10 0.643912 0.000000 0.500000
O O11 0.000000 0.634304 0.315209
#
# Coordination Sequence:
#
# PCOD8261770 Si02
#       5
#    16  16   8  16  16
#     4  10  19  31  52  79 103 136 168 211 256 303
#     4   9  17  32  53  77 101 131 174 213 248 293
#     4  10  22  34  48  76 108 140 162 198 264 320
#     4  10  18  31  55  80  98 126 174 223 253 286
#     4   9  18  33  52  75 103 132 168 215 255 293
#
# _framework density 16.649985999999998
#
# number of rings (size 3 to 8) (size 9 to 14) (size 15 to 20)
#    0.000    2.444    2.222    0.667    0.000    2.667 
#    0.000    0.000    0.000    2.000    0.000    0.000 
#    0.000    0.000    0.000    0.000    0.000    0.000 
#
# Total GULP energy -446394.186681 kJ/mol
# GULP energy per Si atom -12399.838519 kJ/mol
# Density = 1.661209 g / cm^3
# Si number density = 16.649986 Si / 1000 Ang^3
#
#
#
# Elastic Constant Matrix: (Units=GPa)
#
#
# Indices 1 2 3 4 5 6 
#
# 1 115.0751 69.8940 55.6409 0.0000 0.0000 0.0000
# 2 69.8940 127.4795 59.7021 0.0000 0.0000 0.0000
# 3 55.6409 59.7021 120.6452 0.0000 0.0000 0.0000
# 4 0.0000 0.0000 0.0000 17.3086 0.0000 0.0000
# 5 0.0000 0.0000 0.0000 0.0000 20.9689 0.0000
# 6 0.0000 0.0000 0.0000 0.0000 0.0000 29.8807
#
#
#
# Elastic Compliance Matrix: (Units=1/GPa)
#
#
# Indices 1 2 3 4 5 6 
#
# 1 0.014066 -0.006084 -0.003477 0.000000 0.000000 0.000000
# 2 -0.006084 0.012842 -0.003549 0.000000 0.000000 0.000000
# 3 -0.003477 -0.003549 0.011648 0.000000 0.000000 0.000000
# 4 0.000000 0.000000 0.000000 0.057775 0.000000 0.000000
# 5 0.000000 0.000000 0.000000 0.000000 0.047690 0.000000
# 6 0.000000 0.000000 0.000000 0.000000 0.000000 0.033466
#
#
# Mechanical properties :
#
#
# Convention : Reuss Voigt Hill
#
# Bulk Modulus (GPa) = 81.05368 81.51929 81.28649
# Shear Modulus (GPa) = 24.05927 25.49582 24.77754
#
# Velocity S-wave (km/s) = 3.80544 3.91740 3.86183
# Velocity P-wave (km/s) = 8.25198 8.33836 8.29528
#
# Compressibility (1/GPa) = 0.01233750
#
# Stress axis : x y z
#
# Youngs Moduli (GPa) = 71.09219 77.86769 85.84819
#
# Poissons Ratio (x) = 0.47375 0.29846
# Poissons Ratio (y) = 0.43253 0.30469
# Poissons Ratio (z) = 0.24716 0.27637
#
# Static dielectric constant tensor:
#      x y z
#    x 3.231050 0.000000 0.000000 
#    y 0.000000 3.029220 0.000000 
#    z 0.000000 0.000000 3.023530 
# 
# 
# High freq. dielectric constant tensor:
#      x y z
#    x 1.640870 0.000000 0.000000 
#    y 0.000000 1.629490 0.000000 
#    z 0.000000 0.000000 1.635750 
# 
# From -- ./inp_files/23482.got.cif
#   From: 2010.03.12/outbox.cif.g09.slc.cpg/sg64_12_cif.got.tgz:23482.got - 2010.04.10 20:19:32.
