data_PCOD8261874
_publ_section_title
;
Structure prediction by ZEFSAII (Michael W. Deem and Ramdas Pophale) SiO2 
 PCOD8261874
Probable space group: C M C A
;
_chemical_formula_sum "Si O2"
_cell_formula_units_Z 112
_cell_length_a 17.438754
_cell_length_b 24.039220
_cell_length_c 14.099404
_cell_angle_alpha 90.000000
_cell_angle_beta 90.000000
_cell_angle_gamma 90.000000
_cell_volume 5910.668168
_symmetry_space_group_name_H-M "C M C A"
_symmetry_group_IT_number 64
_symmetry_cell_setting 'orthorhombic'
loop_
_space_group_symop_operation_xyz
x,y,z
-x,1/2-y,1/2+z
x,-y,-z
-x,1/2+y,1/2-z
-x,-y,-z
x,1/2+y,1/2-z
-x,y,z
x,1/2-y,1/2+z
1/2+x,1/2+y,z
1/2-x,-y,1/2+z
1/2+x,1/2-y,-z
1/2-x,y,1/2-z
1/2-x,1/2-y,-z
1/2+x,y,1/2-z
1/2-x,1/2+y,z
1/2+x,-y,1/2+z
loop_
_atom_site_type_symbol
_atom_site_label
_atom_site_fract_x
_atom_site_fract_y
_atom_site_fract_z
Si Si1 0.660397 0.785489 0.398607
Si Si2 0.676004 0.022490 0.316162
Si Si3 0.083620 0.201208 0.270457
Si Si4 0.768259 0.592866 0.048430
Si Si5 0.297876 0.291879 0.896639
Si Si6 0.293686 0.402416 0.152671
Si Si7 0.085266 0.079088 0.340162
O O1 0.595847 0.751030 0.344749
O O2 0.648240 0.781773 0.512009
O O3 0.745544 0.761889 0.375605
O O4 0.652312 0.849497 0.366013
O O5 0.750000 0.024563 0.250000
O O6 0.655494 0.958600 0.341470
O O7 0.696700 0.056840 0.411142
O O8 0.604983 0.049702 0.260261
O O9 0.149085 0.198471 0.192708
O O10 0.084583 0.144787 0.328550
O O11 0.000000 0.210281 0.223227
O O12 0.758572 0.655593 0.087789
O O13 0.849985 0.566462 0.080385
O O14 0.766584 0.591423 0.934390
O O15 0.250000 0.392021 0.250000
O O16 0.000000 0.058723 0.372103
#
# Coordination Sequence:
#
# PCOD8261874 Si02
#       7
#    16  16  16  16  16  16  16
#     4  10  21  34  55  80 111 145 187 228 280 334
#     4   9  18  33  57  83 109 141 190 235 270 329
#     4  11  21  34  55  81 114 147 181 228 284 337
#     4  10  18  33  59  85 110 145 192 240 282 323
#     4  10  19  34  56  82 109 145 184 236 276 328
#     4  10  20  34  55  81 111 146 186 232 276 332
#     4  10  20  34  57  89 117 144 182 239 292 331
#
# _framework density 18.948788
#
# number of rings (size 3 to 8) (size 9 to 14) (size 15 to 20)
#    0.000    2.000    2.857    1.714    0.000    0.571 
#    0.000    0.714    0.000   18.000    0.000    0.000 
#    0.000    0.000    0.000    0.000    0.000    0.000 
#
# Total GULP energy -694257.060276 kJ/mol
# GULP energy per Si atom -12397.447505 kJ/mol
# Density = 1.890566 g / cm^3
# Si number density = 18.948788 Si / 1000 Ang^3
#
#
#
# Elastic Constant Matrix: (Units=GPa)
#
#
# Indices 1 2 3 4 5 6 
#
# 1 66.7573 19.0920 22.6118 0.0000 0.0000 0.0000
# 2 19.0920 107.9850 21.1734 0.0000 0.0000 0.0000
# 3 22.6118 21.1734 86.6203 0.0000 0.0000 0.0000
# 4 0.0000 0.0000 0.0000 26.7556 0.0000 0.0000
# 5 0.0000 0.0000 0.0000 0.0000 8.9382 0.0000
# 6 0.0000 0.0000 0.0000 0.0000 0.0000 9.4876
#
#
#
# Elastic Compliance Matrix: (Units=1/GPa)
#
#
# Indices 1 2 3 4 5 6 
#
# 1 0.016931 -0.002234 -0.003874 0.000000 0.000000 0.000000
# 2 -0.002234 0.010021 -0.001867 0.000000 0.000000 0.000000
# 3 -0.003874 -0.001867 0.013012 0.000000 0.000000 0.000000
# 4 0.000000 0.000000 0.000000 0.037375 0.000000 0.000000
# 5 0.000000 0.000000 0.000000 0.000000 0.111879 0.000000
# 6 0.000000 0.000000 0.000000 0.000000 0.000000 0.105401
#
#
# Mechanical properties :
#
#
# Convention : Reuss Voigt Hill
#
# Bulk Modulus (GPa) = 41.63856 43.01301 42.32578
# Shear Modulus (GPa) = 15.69500 22.26864 18.98182
#
# Velocity S-wave (km/s) = 2.88112 3.43184 3.16847
# Velocity P-wave (km/s) = 5.75237 6.20099 5.98089
#
# Compressibility (1/GPa) = 0.02401620
#
# Stress axis : x y z
#
# Youngs Moduli (GPa) = 59.06487 99.78573 76.85168
#
# Poissons Ratio (x) = 0.22290 0.29769
# Poissons Ratio (y) = 0.13194 0.14345
# Poissons Ratio (z) = 0.22879 0.18625
#
# Static dielectric constant tensor:
#      x y z
#    x 3.255270 0.000000 0.000000 
#    y 0.000000 3.724940 0.000000 
#    z 0.000000 0.000000 3.523430 
# 
# 
# High freq. dielectric constant tensor:
#      x y z
#    x 1.693050 0.000000 0.000000 
#    y 0.000000 1.748220 0.000000 
#    z 0.000000 0.000000 1.738520 
# 
# From -- ./inp_files/24374.got.cif
#   From: 2010.03.12/outbox.cif.g09.slc.cpg/sg64_13_cif.got.tgz:24374.got - 2010.04.10 20:19:32.
