data_PCOD8261310
_publ_section_title
;
Structure prediction by ZEFSAII (Michael W. Deem and Ramdas Pophale) SiO2 
 PCOD8261310
Probable space group: C M C M
;
_chemical_formula_sum "Si O2"
_cell_formula_units_Z 88
_cell_length_a 20.185788
_cell_length_b 32.511480
_cell_length_c 9.325429
_cell_angle_alpha 90.000000
_cell_angle_beta 90.000000
_cell_angle_gamma 90.000000
_cell_volume 6119.997824
_symmetry_space_group_name_H-M "C M C M"
_symmetry_group_IT_number 63
_symmetry_cell_setting 'orthorhombic'
loop_
_space_group_symop_operation_xyz
x,y,z
-x,-y,1/2+z
x,-y,-z
-x,y,1/2-z
-x,-y,-z
x,y,1/2-z
-x,y,z
x,-y,1/2+z
1/2+x,1/2+y,z
1/2-x,1/2-y,1/2+z
1/2+x,1/2-y,-z
1/2-x,1/2+y,1/2-z
1/2-x,1/2-y,-z
1/2+x,1/2+y,1/2-z
1/2-x,1/2+y,z
1/2+x,1/2-y,1/2+z
loop_
_atom_site_type_symbol
_atom_site_label
_atom_site_fract_x
_atom_site_fract_y
_atom_site_fract_z
Si Si1 0.000000 0.040526 0.912832
Si Si2 0.856334 0.957866 0.416174
Si Si3 0.424940 0.315425 0.085171
Si Si4 0.275180 0.189519 0.412240
Si Si5 0.804037 0.127237 0.582710
Si Si6 0.350730 0.251457 0.587762
O O1 0.929765 0.062334 0.947430
O O2 0.000000 0.026744 0.750000
O O3 0.000000 0.000000 0.000000
O O4 0.848843 0.969096 0.250000
O O5 0.806366 0.921179 0.458590
O O6 0.841166 0.000000 0.500000
O O7 0.415281 0.302069 0.250000
O O8 0.500000 0.330786 0.056663
O O9 0.374924 0.352185 0.045832
O O10 0.410725 0.275507 0.988062
O O11 0.298100 0.180031 0.250000
O O12 0.254430 0.147161 0.489534
O O13 0.335797 0.209754 0.499776
O O14 0.213771 0.220251 0.412964
O O15 0.787618 0.133476 0.750000
O O16 0.371176 0.240032 0.750000
#
# Coordination Sequence:
#
# PCOD8261310 Si02
#       6
#     8  16  16  16  16  16
#     4   8  14  24  36  48  62  84 116 150 184 222
#     4   9  17  27  39  52  69  93 123 157 193 232
#     4   9  17  27  39  55  75  99 126 155 188 226
#     4   9  16  26  40  56  72  91 118 151 186 224
#     4   9  17  27  39  55  73  95 124 159 195 229
#     4   9  16  26  40  55  73  95 118 148 184 223
#
# _framework density 14.37909
#
# number of rings (size 3 to 8) (size 9 to 14) (size 15 to 20)
#    0.000    3.091    0.000    1.091    1.273    5.455 
#    0.000    0.000    0.000    0.000    0.000    0.000 
#    0.000    0.000    0.000    0.000    0.000    0.909 
#
# Total GULP energy -545157.080905 kJ/mol
# GULP energy per Si atom -12389.933657 kJ/mol
# Density = 1.434636 g / cm^3
# Si number density = 14.379090 Si / 1000 Ang^3
#
#
#
# Elastic Constant Matrix: (Units=GPa)
#
#
# Indices 1 2 3 4 5 6 
#
# 1 15.6894 20.2237 15.0846 0.0000 0.0000 0.0000
# 2 20.2237 88.5908 44.9151 0.0000 0.0000 0.0000
# 3 15.0846 44.9151 76.7057 0.0000 0.0000 0.0000
# 4 0.0000 0.0000 0.0000 22.1159 0.0000 0.0000
# 5 0.0000 0.0000 0.0000 0.0000 16.8315 0.0000
# 6 0.0000 0.0000 0.0000 0.0000 0.0000 18.7739
#
#
#
# Elastic Compliance Matrix: (Units=1/GPa)
#
#
# Indices 1 2 3 4 5 6 
#
# 1 0.093985 -0.017187 -0.008419 0.000000 0.000000 0.000000
# 2 -0.017187 0.019197 -0.007861 0.000000 0.000000 0.000000
# 3 -0.008419 -0.007861 0.019295 0.000000 0.000000 0.000000
# 4 0.000000 0.000000 0.000000 0.045216 0.000000 0.000000
# 5 0.000000 0.000000 0.000000 0.000000 0.059412 0.000000
# 6 0.000000 0.000000 0.000000 0.000000 0.000000 0.053266
#
#
# Mechanical properties :
#
#
# Convention : Reuss Voigt Hill
#
# Bulk Modulus (GPa) = 15.25685 37.93698 26.59692
# Shear Modulus (GPa) = 13.18729 18.26175 15.72452
#
# Velocity S-wave (km/s) = 3.03168 3.56760 3.31050
# Velocity P-wave (km/s) = 4.78417 6.58871 5.75757
#
# Compressibility (1/GPa) = 0.06554433
#
# Stress axis : x y z
#
# Youngs Moduli (GPa) = 10.63995 52.09228 51.82599
#
# Poissons Ratio (x) = 0.89530 0.43632
# Poissons Ratio (y) = 0.18287 0.40739
# Poissons Ratio (z) = 0.08958 0.40949
#
# Static dielectric constant tensor:
#      x y z
#    x 2.447700 0.000000 0.000000 
#    y 0.000000 2.633840 0.000000 
#    z 0.000000 0.000000 2.931850 
# 
# 
# High freq. dielectric constant tensor:
#      x y z
#    x 1.498400 0.000000 0.000000 
#    y 0.000000 1.527320 0.000000 
#    z 0.000000 0.000000 1.558890 
# 
# From -- ./inp_files/11023.got.cif
#   From: 2010.03.12/outbox.cif.g09.slc.cpg/sg63_6_cif.got.tgz:11023.got - 2010.04.10 19:34:48.
