data_PCOD8261188
_publ_section_title
;
Structure prediction by ZEFSAII (Michael W. Deem and Ramdas Pophale) SiO2 
 PCOD8261188
Probable space group: C M C M
;
_chemical_formula_sum "Si O2"
_cell_formula_units_Z 80
_cell_length_a 7.631828
_cell_length_b 29.305074
_cell_length_c 18.978048
_cell_angle_alpha 90.000000
_cell_angle_beta 90.000000
_cell_angle_gamma 90.000000
_cell_volume 4244.464809
_symmetry_space_group_name_H-M "C M C M"
_symmetry_group_IT_number 63
_symmetry_cell_setting 'orthorhombic'
loop_
_space_group_symop_operation_xyz
x,y,z
-x,-y,1/2+z
x,-y,-z
-x,y,1/2-z
-x,-y,-z
x,y,1/2-z
-x,y,z
x,-y,1/2+z
1/2+x,1/2+y,z
1/2-x,1/2-y,1/2+z
1/2+x,1/2-y,-z
1/2-x,1/2+y,1/2-z
1/2-x,1/2-y,-z
1/2+x,1/2+y,1/2-z
1/2-x,1/2+y,z
1/2+x,1/2-y,1/2+z
loop_
_atom_site_type_symbol
_atom_site_label
_atom_site_fract_x
_atom_site_fract_y
_atom_site_fract_z
Si Si1 0.500000 0.295727 0.665944
Si Si2 0.207334 0.548261 0.087441
Si Si3 0.793835 0.445422 0.428465
Si Si4 0.000000 0.101150 0.166540
Si Si5 0.207934 0.633252 0.829233
Si Si6 0.694302 0.267665 0.166516
O O1 0.500000 0.295363 0.750000
O O2 0.500000 0.347117 0.637445
O O3 0.670518 0.269389 0.635744
O O4 0.255822 0.495311 0.100663
O O5 0.321154 0.577625 0.141229
O O6 0.000000 0.557362 0.099707
O O7 0.269484 0.561408 0.008638
O O8 0.711019 0.406797 0.377984
O O9 0.000000 0.440769 0.429065
O O10 0.000000 0.099949 0.250000
O O11 0.282260 0.626855 0.750000
O O12 0.266661 0.681582 0.862330
O O13 0.000000 0.631009 0.827912
O O14 0.715926 0.269812 0.250000
O O15 0.500000 0.252282 0.143705
#
# Coordination Sequence:
#
# PCOD8261188 Si02
#       6
#     8  16  16   8  16  16
#     4   9  18  34  51  69 101 137 172 220 265 309
#     4   9  19  38  57  76 107 144 185 220 253 314
#     4   8  16  32  56  81 106 147 184 207 255 322
#     4  11  24  37  55  83 104 135 186 230 274 309
#     4   9  15  26  48  80 112 137 165 211 269 316
#     4   9  16  28  47  72 101 132 168 210 259 318
#
# _framework density 18.848077
#
# number of rings (size 3 to 8) (size 9 to 14) (size 15 to 20)
#    0.000    3.000    1.000    1.200    0.000    3.600 
#    3.600    4.000    0.000    1.200    0.000    0.000 
#    0.000    0.000    0.000    0.000    0.000    0.000 
#
# Total GULP energy -495804.291046 kJ/mol
# GULP energy per Si atom -12395.107276 kJ/mol
# Density = 1.880518 g / cm^3
# Si number density = 18.848077 Si / 1000 Ang^3
#
#
#
# Elastic Constant Matrix: (Units=GPa)
#
#
# Indices 1 2 3 4 5 6 
#
# 1 95.3605 63.7937 28.5402 0.0000 0.0000 0.0000
# 2 63.7937 161.0336 55.3742 0.0000 0.0000 0.0000
# 3 28.5402 55.3742 56.6645 0.0000 0.0000 0.0000
# 4 0.0000 0.0000 0.0000 7.5257 0.0000 0.0000
# 5 0.0000 0.0000 0.0000 0.0000 17.2380 0.0000
# 6 0.0000 0.0000 0.0000 0.0000 0.0000 11.0433
#
#
#
# Elastic Compliance Matrix: (Units=1/GPa)
#
#
# Indices 1 2 3 4 5 6 
#
# 1 0.014508 -0.004872 -0.002546 0.000000 0.000000 0.000000
# 2 -0.004872 0.010989 -0.008285 0.000000 0.000000 0.000000
# 3 -0.002546 -0.008285 0.027026 0.000000 0.000000 0.000000
# 4 0.000000 0.000000 0.000000 0.132879 0.000000 0.000000
# 5 0.000000 0.000000 0.000000 0.000000 0.058011 0.000000
# 6 0.000000 0.000000 0.000000 0.000000 0.000000 0.090553
#
#
# Mechanical properties :
#
#
# Convention : Reuss Voigt Hill
#
# Bulk Modulus (GPa) = 47.35480 67.60828 57.48154
# Shear Modulus (GPa) = 13.42607 18.18475 15.80541
#
# Velocity S-wave (km/s) = 2.67185 3.10950 2.89895
# Velocity P-wave (km/s) = 5.89045 6.98856 6.46287
#
# Compressibility (1/GPa) = 0.02111719
#
# Stress axis : x y z
#
# Youngs Moduli (GPa) = 68.92949 91.00328 37.00092
#
# Poissons Ratio (x) = 0.44333 0.09422
# Poissons Ratio (y) = 0.33580 0.30654
# Poissons Ratio (z) = 0.17552 0.75394
#
# Static dielectric constant tensor:
#      x y z
#    x 3.344970 0.000000 0.000000 
#    y 0.000000 3.744980 0.000000 
#    z 0.000000 0.000000 3.383880 
# 
# 
# High freq. dielectric constant tensor:
#      x y z
#    x 1.731200 0.000000 0.000000 
#    y 0.000000 1.736780 0.000000 
#    z 0.000000 0.000000 1.689140 
# 
# From -- ./inp_files/40619.got.cif
#   From: 2010.03.12/outbox.cif.g09.slc.cpg/sg63_21_cif.got.tgz:40619.got - 2010.04.10 19:34:48.
