data_PCOD8261017
_publ_section_title
;
Structure prediction by ZEFSAII (Michael W. Deem and Ramdas Pophale) SiO2 
 PCOD8261017
Probable space group: C M C M
;
_chemical_formula_sum "Si O2"
_cell_formula_units_Z 96
_cell_length_a 8.408396
_cell_length_b 23.325315
_cell_length_c 25.293189
_cell_angle_alpha 90.000000
_cell_angle_beta 90.000000
_cell_angle_gamma 90.000000
_cell_volume 4960.714848
_symmetry_space_group_name_H-M "C M C M"
_symmetry_group_IT_number 63
_symmetry_cell_setting 'orthorhombic'
loop_
_space_group_symop_operation_xyz
x,y,z
-x,-y,1/2+z
x,-y,-z
-x,y,1/2-z
-x,-y,-z
x,y,1/2-z
-x,y,z
x,-y,1/2+z
1/2+x,1/2+y,z
1/2-x,1/2-y,1/2+z
1/2+x,1/2-y,-z
1/2-x,1/2+y,1/2-z
1/2-x,1/2-y,-z
1/2+x,1/2+y,1/2-z
1/2-x,1/2+y,z
1/2+x,1/2-y,1/2+z
loop_
_atom_site_type_symbol
_atom_site_label
_atom_site_fract_x
_atom_site_fract_y
_atom_site_fract_z
Si Si1 0.185635 0.379118 0.908465
Si Si2 0.811265 0.309885 0.808041
Si Si3 0.317196 0.681104 0.811186
Si Si4 0.317826 0.888939 0.401983
Si Si5 0.815785 0.004512 0.439631
Si Si6 0.185311 0.813223 0.493243
O O1 0.248073 0.354241 0.852467
O O2 0.215483 0.447004 0.909273
O O3 0.287018 0.349883 0.954324
O O4 0.000000 0.365454 0.916726
O O5 0.744636 0.328227 0.750000
O O6 0.753423 0.245577 0.821985
O O7 0.000000 0.308913 0.805176
O O8 0.297748 0.665076 0.750000
O O9 0.500000 0.675868 0.829252
O O10 0.212476 0.636453 0.844023
O O11 0.500000 0.907545 0.407703
O O12 0.209509 0.944637 0.410221
O O13 0.277919 0.840765 0.444672
O O14 0.000000 0.021593 0.438127
O O15 0.755211 0.000000 0.500000
O O16 0.250000 0.750000 0.500000
O O17 0.000000 0.812013 0.479637
#
# Coordination Sequence:
#
# PCOD8261017 Si02
#       6
#    16  16  16  16  16  16
#     4  11  21  35  59  88 116 149 191 240 290 347
#     4   8  16  33  58  87 117 150 186 226 280 342
#     4   9  18  36  62  88 118 157 195 233 284 349
#     4  12  24  38  59  86 116 151 194 244 294 350
#     4  11  23  40  60  80 110 157 200 242 291 349
#     4  12  24  38  56  83 118 152 188 236 292 351
#
# _framework density 19.352049999999998
#
# number of rings (size 3 to 8) (size 9 to 14) (size 15 to 20)
#    0.000    1.500    1.667    6.000    0.000    2.333 
#    0.000    1.667    0.000    7.000    0.000    0.000 
#    0.000    0.000    0.000    0.000    0.000    0.000 
#
# Total GULP energy -595399.538041 kJ/mol
# GULP energy per Si atom -12404.157043 kJ/mol
# Density = 1.930800 g / cm^3
# Si number density = 19.352050 Si / 1000 Ang^3
#
#
#
# Elastic Constant Matrix: (Units=GPa)
#
#
# Indices 1 2 3 4 5 6 
#
# 1 57.8306 7.6549 19.0129 0.0000 0.0000 0.0000
# 2 7.6549 117.0352 53.5650 0.0000 0.0000 0.0000
# 3 19.0129 53.5650 115.0005 0.0000 0.0000 0.0000
# 4 0.0000 0.0000 0.0000 31.0557 0.0000 0.0000
# 5 0.0000 0.0000 0.0000 0.0000 25.0210 0.0000
# 6 0.0000 0.0000 0.0000 0.0000 0.0000 28.2181
#
#
#
# Elastic Compliance Matrix: (Units=1/GPa)
#
#
# Indices 1 2 3 4 5 6 
#
# 1 0.018291 0.000239 -0.003135 0.000000 0.000000 0.000000
# 2 0.000239 0.010863 -0.005099 0.000000 0.000000 0.000000
# 3 -0.003135 -0.005099 0.011589 0.000000 0.000000 0.000000
# 4 0.000000 0.000000 0.000000 0.032200 0.000000 0.000000
# 5 0.000000 0.000000 0.000000 0.000000 0.039966 0.000000
# 6 0.000000 0.000000 0.000000 0.000000 0.000000 0.035438
#
#
# Mechanical properties :
#
#
# Convention : Reuss Voigt Hill
#
# Bulk Modulus (GPa) = 40.40183 50.03687 45.21935
# Shear Modulus (GPa) = 28.97054 30.83453 29.90253
#
# Velocity S-wave (km/s) = 3.87334 3.99601 3.93515
# Velocity P-wave (km/s) = 6.39737 6.87044 6.63812
#
# Compressibility (1/GPa) = 0.02475136
#
# Stress axis : x y z
#
# Youngs Moduli (GPa) = 54.67153 92.05932 86.28895
#
# Poissons Ratio (x) = -0.02196 0.27053
# Poissons Ratio (y) = -0.01304 0.43999
# Poissons Ratio (z) = 0.17140 0.46941
#
# Static dielectric constant tensor:
#      x y z
#    x 2.759070 0.000000 0.000000 
#    y 0.000000 3.587580 0.000000 
#    z 0.000000 0.000000 3.750830 
# 
# 
# High freq. dielectric constant tensor:
#      x y z
#    x 1.743050 0.000000 0.000000 
#    y 0.000000 1.753760 0.000000 
#    z 0.000000 0.000000 1.754420 
# 
# From -- ./inp_files/59967.got.cif
#   From: 2010.03.12/outbox.cif.g09.slc.cpg/sg63_30_cif.got.tgz:59967.got - 2010.04.10 19:34:48.
