data_PCOD8261386
_publ_section_title
;
Structure prediction by ZEFSAII (Michael W. Deem and Ramdas Pophale) SiO2 
 PCOD8261386
Probable space group: C M C A
;
_chemical_formula_sum "Si O2"
_cell_formula_units_Z 64
_cell_length_a 35.952260
_cell_length_b 5.343880
_cell_length_c 12.733849
_cell_angle_alpha 90.000000
_cell_angle_beta 90.000000
_cell_angle_gamma 90.000000
_cell_volume 2446.485177
_symmetry_space_group_name_H-M "C M C A"
_symmetry_group_IT_number 64
_symmetry_cell_setting 'orthorhombic'
loop_
_space_group_symop_operation_xyz
x,y,z
-x,1/2-y,1/2+z
x,-y,-z
-x,1/2+y,1/2-z
-x,-y,-z
x,1/2+y,1/2-z
-x,y,z
x,1/2-y,1/2+z
1/2+x,1/2+y,z
1/2-x,-y,1/2+z
1/2+x,1/2-y,-z
1/2-x,y,1/2-z
1/2-x,1/2-y,-z
1/2+x,y,1/2-z
1/2-x,1/2+y,z
1/2+x,-y,1/2+z
loop_
_atom_site_type_symbol
_atom_site_label
_atom_site_fract_x
_atom_site_fract_y
_atom_site_fract_z
Si Si1 0.765840 0.734205 0.615309
Si Si2 0.043146 0.357280 0.138190
Si Si3 0.573208 0.143576 0.626560
Si Si4 0.653821 0.172189 0.683573
O O1 0.750000 0.750000 0.500000
O O2 0.746378 0.494182 0.672671
O O3 0.810216 0.703816 0.610383
O O4 0.062824 0.399300 0.250676
O O5 0.049625 0.622924 0.078315
O O6 0.000000 0.297238 0.153925
O O7 0.062283 0.125706 0.074057
O O8 0.616967 0.196763 0.612387
O O9 0.654119 0.394547 0.768100
#
# Coordination Sequence:
#
# PCOD8261386 Si02
#       4
#    16  16  16  16
#     4  10  23  42  59  77 104 142 181 229 281 337
#     4  10  16  25  41  61  99 151 181 201 251 316
#     4  10  16  27  38  66 100 135 183 207 260 306
#     4  12  21  34  55  80 111 141 180 237 275 321
#
# _framework density 26.159979
#
# number of rings (size 3 to 8) (size 9 to 14) (size 15 to 20)
#    0.000    1.500    5.000    5.250    0.000    3.000 
#    0.000    0.000    0.000    0.000    0.000    0.000 
#    0.000    0.000    0.000  153.000    0.000    0.000 
#
# Total GULP energy -396707.437089 kJ/mol
# GULP energy per Si atom -12397.107409 kJ/mol
# Density = 2.610044 g / cm^3
# Si number density = 26.159979 Si / 1000 Ang^3
#
#
#
# Elastic Constant Matrix: (Units=GPa)
#
#
# Indices 1 2 3 4 5 6 
#
# 1 239.9214 58.4963 9.5858 0.0000 0.0000 0.0000
# 2 58.4963 268.8405 12.8953 0.0000 0.0000 0.0000
# 3 9.5858 12.8953 39.7981 0.0000 0.0000 0.0000
# 4 0.0000 0.0000 0.0000 -4.8338 0.0000 0.0000
# 5 0.0000 0.0000 0.0000 0.0000 15.7156 0.0000
# 6 0.0000 0.0000 0.0000 0.0000 0.0000 50.9580
#
#
#
# Elastic Compliance Matrix: (Units=1/GPa)
#
#
# Indices 1 2 3 4 5 6 
#
# 1 0.004424 -0.000926 -0.000766 0.000000 0.000000 0.000000
# 2 -0.000926 0.003972 -0.001064 0.000000 0.000000 0.000000
# 3 -0.000766 -0.001064 0.025656 0.000000 0.000000 0.000000
# 4 0.000000 0.000000 0.000000 -0.206877 0.000000 0.000000
# 5 0.000000 0.000000 0.000000 0.000000 0.063631 0.000000
# 6 0.000000 0.000000 0.000000 0.000000 0.000000 0.019624
#
#
# Mechanical properties :
#
#
# Convention : Reuss Voigt Hill
#
# Bulk Modulus (GPa) = 35.03691 78.94608 56.99150
# Shear Modulus (GPa) = -67.07466 43.54012 -11.76727
#
# Velocity S-wave (km/s) = -5.06911 4.08411 -2.12320
# Velocity P-wave (km/s) = 4.56494 7.24456 3.97774
#
# Compressibility (1/GPa) = 0.02854133
#
# Stress axis : x y z
#
# Youngs Moduli (GPa) = 226.02009 251.75007 38.97722
#
# Poissons Ratio (x) = 0.23311 0.02984
# Poissons Ratio (y) = 0.20929 0.04147
# Poissons Ratio (z) = 0.17305 0.26787
#
# Static dielectric constant tensor:
#      x y z
#    x 4.772620 0.000000 0.000000 
#    y 0.000000 2.898590 0.000000 
#    z 0.000000 0.000000 4.055790 
# 
# 
# High freq. dielectric constant tensor:
#      x y z
#    x 2.041600 0.000000 0.000000 
#    y 0.000000 2.099480 0.000000 
#    z 0.000000 0.000000 2.046410 
# 
# From -- ./inp_files/35624.got.cif
#   From: 2010.03.12/outbox.cif.g09.slc.cpg/sg64_18_cif.got.tgz:35624.got - 2010.04.10 20:19:32.
