data_PCOD8261707
_publ_section_title
;
Structure prediction by ZEFSAII (Michael W. Deem and Ramdas Pophale) SiO2 
 PCOD8261707
Probable space group: C M C A
;
_chemical_formula_sum "Si O2"
_cell_formula_units_Z 112
_cell_length_a 18.938504
_cell_length_b 13.539934
_cell_length_c 22.038910
_cell_angle_alpha 90.000000
_cell_angle_beta 90.000000
_cell_angle_gamma 90.000000
_cell_volume 5651.351612
_symmetry_space_group_name_H-M "C M C A"
_symmetry_group_IT_number 64
_symmetry_cell_setting 'orthorhombic'
loop_
_space_group_symop_operation_xyz
x,y,z
-x,1/2-y,1/2+z
x,-y,-z
-x,1/2+y,1/2-z
-x,-y,-z
x,1/2+y,1/2-z
-x,y,z
x,1/2-y,1/2+z
1/2+x,1/2+y,z
1/2-x,-y,1/2+z
1/2+x,1/2-y,-z
1/2-x,y,1/2-z
1/2-x,1/2-y,-z
1/2+x,y,1/2-z
1/2-x,1/2+y,z
1/2+x,-y,1/2+z
loop_
_atom_site_type_symbol
_atom_site_label
_atom_site_fract_x
_atom_site_fract_y
_atom_site_fract_z
Si Si1 0.202915 0.801630 0.912746
Si Si2 0.863831 0.622319 0.853376
Si Si3 0.421627 0.475910 0.565368
Si Si4 0.167293 0.330691 0.453767
Si Si5 0.827788 0.836527 0.225469
Si Si6 0.778978 0.016048 0.872021
Si Si7 0.917441 0.780851 0.631156
O O1 0.151279 0.732901 0.874528
O O2 0.276152 0.746980 0.925782
O O3 0.214206 0.898483 0.871949
O O4 0.162217 0.827113 0.974465
O O5 0.927058 0.573738 0.891889
O O6 0.877064 0.628660 0.781388
O O7 0.802347 0.545219 0.870187
O O8 0.382592 0.500000 0.500000
O O9 0.500000 0.441206 0.548095
O O10 0.388913 0.385157 0.604029
O O11 0.187999 0.441282 0.434328
O O12 0.093131 0.299488 0.422860
O O13 0.750000 0.800506 0.250000
O O14 0.867960 0.749574 0.188832
O O15 0.818966 0.934351 0.184774
O O16 0.000000 0.783568 0.650646
#
# Coordination Sequence:
#
# PCOD8261707 Si02
#       7
#    16  16  16  16  16  16  16
#     4  10  18  30  52  78 106 139 173 223 285 332
#     4  10  20  32  51  77 104 138 180 228 276 326
#     4  10  21  36  54  78 109 146 188 234 285 339
#     4   9  18  31  50  79 108 135 176 225 275 336
#     4   9  20  37  54  80 110 142 188 233 279 332
#     4   9  18  32  50  75 106 137 171 219 277 332
#     4  10  20  36  59  82 111 154 194 233 286 344
#
# _framework density 19.818266999999999
#
# number of rings (size 3 to 8) (size 9 to 14) (size 15 to 20)
#    0.000    2.429    0.000    3.000    0.000    4.000 
#    0.000    8.571    0.000   10.286    0.000    0.000 
#    0.000    0.000    0.000    0.000    0.000    0.714 
#
# Total GULP energy -693912.788774 kJ/mol
# GULP energy per Si atom -12391.299800 kJ/mol
# Density = 1.977316 g / cm^3
# Si number density = 19.818267 Si / 1000 Ang^3
#
#
#
# Elastic Constant Matrix: (Units=GPa)
#
#
# Indices 1 2 3 4 5 6 
#
# 1 43.1864 19.2903 21.0366 0.0000 0.0000 0.0000
# 2 19.2903 115.6958 30.7047 0.0000 0.0000 0.0000
# 3 21.0366 30.7047 118.2365 0.0000 0.0000 0.0000
# 4 0.0000 0.0000 0.0000 30.1039 0.0000 0.0000
# 5 0.0000 0.0000 0.0000 0.0000 22.4249 0.0000
# 6 0.0000 0.0000 0.0000 0.0000 0.0000 17.8033
#
#
#
# Elastic Compliance Matrix: (Units=1/GPa)
#
#
# Indices 1 2 3 4 5 6 
#
# 1 0.026547 -0.003408 -0.003838 0.000000 0.000000 0.000000
# 2 -0.003408 0.009721 -0.001918 0.000000 0.000000 0.000000
# 3 -0.003838 -0.001918 0.009639 0.000000 0.000000 0.000000
# 4 0.000000 0.000000 0.000000 0.033218 0.000000 0.000000
# 5 0.000000 0.000000 0.000000 0.000000 0.044593 0.000000
# 6 0.000000 0.000000 0.000000 0.000000 0.000000 0.056169
#
#
# Mechanical properties :
#
#
# Convention : Reuss Voigt Hill
#
# Bulk Modulus (GPa) = 36.26028 46.57579 41.41804
# Shear Modulus (GPa) = 24.10704 27.80555 25.95629
#
# Velocity S-wave (km/s) = 3.49148 3.74976 3.62293
# Velocity P-wave (km/s) = 5.88133 6.50385 6.20041
#
# Compressibility (1/GPa) = 0.02757838
#
# Stress axis : x y z
#
# Youngs Moduli (GPa) = 37.66865 102.87475 103.74908
#
# Poissons Ratio (x) = 0.35056 0.39823
# Poissons Ratio (y) = 0.12836 0.19899
# Poissons Ratio (z) = 0.14459 0.19732
#
# Static dielectric constant tensor:
#      x y z
#    x 3.344670 0.000000 0.000000 
#    y 0.000000 3.548780 0.000000 
#    z 0.000000 0.000000 3.812440 
# 
# 
# High freq. dielectric constant tensor:
#      x y z
#    x 1.733590 0.000000 0.000000 
#    y 0.000000 1.769530 0.000000 
#    z 0.000000 0.000000 1.783460 
# 
# From -- ./inp_files/46338.got.cif
#   From: 2010.03.12/outbox.cif.g09.slc.cpg/sg64_24_cif.got.tgz:46338.got - 2010.04.10 20:19:32.
