data_PCOD8261749
_publ_section_title
;
Structure prediction by ZEFSAII (Michael W. Deem and Ramdas Pophale) SiO2 
 PCOD8261749
Probable space group: C M C A
;
_chemical_formula_sum "Si O2"
_cell_formula_units_Z 128
_cell_length_a 23.133582
_cell_length_b 23.538989
_cell_length_c 12.580128
_cell_angle_alpha 90.000000
_cell_angle_beta 90.000000
_cell_angle_gamma 90.000000
_cell_volume 6850.397145
_symmetry_space_group_name_H-M "C M C A"
_symmetry_group_IT_number 64
_symmetry_cell_setting 'orthorhombic'
loop_
_space_group_symop_operation_xyz
x,y,z
-x,1/2-y,1/2+z
x,-y,-z
-x,1/2+y,1/2-z
-x,-y,-z
x,1/2+y,1/2-z
-x,y,z
x,1/2-y,1/2+z
1/2+x,1/2+y,z
1/2-x,-y,1/2+z
1/2+x,1/2-y,-z
1/2-x,y,1/2-z
1/2-x,1/2-y,-z
1/2+x,y,1/2-z
1/2-x,1/2+y,z
1/2+x,-y,1/2+z
loop_
_atom_site_type_symbol
_atom_site_label
_atom_site_fract_x
_atom_site_fract_y
_atom_site_fract_z
Si Si1 0.610868 0.637328 0.576581
Si Si2 0.935042 0.609352 0.591375
Si Si3 0.661766 0.061470 0.459033
Si Si4 0.640300 0.568438 0.281690
Si Si5 0.931801 0.169067 0.347318
Si Si6 0.708888 0.066692 0.015060
Si Si7 0.933598 0.210668 0.757233
Si Si8 0.564592 0.461952 0.298119
O O1 0.591466 0.665222 0.466910
O O2 0.673887 0.607345 0.566569
O O3 0.609152 0.686973 0.665396
O O4 0.567744 0.586970 0.612353
O O5 0.888644 0.604047 0.496749
O O6 0.929820 0.672372 0.637671
O O7 0.920534 0.563977 0.683114
O O8 0.000000 0.599214 0.546659
O O9 0.668007 0.059962 0.332724
O O10 0.723790 0.080311 0.505506
O O11 0.643531 0.000000 0.500000
O O12 0.594032 0.619014 0.275845
O O13 0.690904 0.582940 0.364786
O O14 0.608584 0.512037 0.323617
O O15 0.911884 0.227502 0.292113
O O16 0.000000 0.164257 0.348793
O O17 0.696310 0.000000 0.000000
O O18 0.000000 0.211136 0.714662
O O19 0.500000 0.486786 0.299499
#
# Coordination Sequence:
#
# PCOD8261749 Si02
#       8
#    16  16  16  16  16  16  16  16
#     4  10  19  36  59  80 114 149 189 239 282 332
#     4   9  19  35  56  81 111 144 180 223 278 339
#     4  11  22  36  55  81 114 149 180 229 283 341
#     4  11  21  35  52  81 116 146 181 234 281 339
#     4  10  21  34  55  85 112 148 189 229 285 339
#     4  10  21  37  56  80 109 145 191 231 281 338
#     4   9  19  37  58  83 114 149 193 234 276 333
#     4  10  18  31  52  82 114 145 177 224 283 339
#
# _framework density 18.685047999999998
#
# number of rings (size 3 to 8) (size 9 to 14) (size 15 to 20)
#    0.000    2.000    2.500    2.625    0.000    2.250 
#    0.000    6.875    0.000    9.750    0.000    0.000 
#    0.000    0.000    0.000    0.000    0.000    0.000 
#
# Total GULP energy -793554.992006 kJ/mol
# GULP energy per Si atom -12399.296750 kJ/mol
# Density = 1.864252 g / cm^3
# Si number density = 18.685048 Si / 1000 Ang^3
#
#
#
# Elastic Constant Matrix: (Units=GPa)
#
#
# Indices 1 2 3 4 5 6 
#
# 1 92.7381 42.2645 34.9859 0.0000 0.0000 0.0000
# 2 42.2645 107.4491 31.8555 0.0000 0.0000 0.0000
# 3 34.9859 31.8555 81.9983 0.0000 0.0000 0.0000
# 4 0.0000 0.0000 0.0000 30.6284 0.0000 0.0000
# 5 0.0000 0.0000 0.0000 0.0000 25.9424 0.0000
# 6 0.0000 0.0000 0.0000 0.0000 0.0000 18.5879
#
#
#
# Elastic Compliance Matrix: (Units=1/GPa)
#
#
# Indices 1 2 3 4 5 6 
#
# 1 0.014458 -0.004360 -0.004475 0.000000 0.000000 0.000000
# 2 -0.004360 0.011833 -0.002737 0.000000 0.000000 0.000000
# 3 -0.004475 -0.002737 0.015168 0.000000 0.000000 0.000000
# 4 0.000000 0.000000 0.000000 0.032649 0.000000 0.000000
# 5 0.000000 0.000000 0.000000 0.000000 0.038547 0.000000
# 6 0.000000 0.000000 0.000000 0.000000 0.000000 0.053798
#
#
# Mechanical properties :
#
#
# Convention : Reuss Voigt Hill
#
# Bulk Modulus (GPa) = 54.59867 55.59970 55.09918
# Shear Modulus (GPa) = 25.54884 26.57039 26.05961
#
# Velocity S-wave (km/s) = 3.70177 3.77505 3.73859
# Velocity P-wave (km/s) = 6.89599 6.98729 6.94179
#
# Compressibility (1/GPa) = 0.01831546
#
# Stress axis : x y z
#
# Youngs Moduli (GPa) = 69.16353 84.50777 65.92907
#
# Poissons Ratio (x) = 0.36849 0.29503
# Poissons Ratio (y) = 0.30159 0.18042
# Poissons Ratio (z) = 0.30950 0.23127
#
# Static dielectric constant tensor:
#      x y z
#    x 3.314070 0.000000 0.000000 
#    y 0.000000 3.417290 0.000000 
#    z 0.000000 0.000000 3.346160 
# 
# 
# High freq. dielectric constant tensor:
#      x y z
#    x 1.714440 0.000000 0.000000 
#    y 0.000000 1.716050 0.000000 
#    z 0.000000 0.000000 1.722490 
# 
# From -- ./inp_files/18698.got.cif
#   From: 2010.03.12/outbox.cif.g09.slc.cpg/sg64_10_cif.got.tgz:18698.got - 2010.04.10 20:19:32.
