data_PCOD8261152
_publ_section_title
;
Structure prediction by ZEFSAII (Michael W. Deem and Ramdas Pophale) SiO2 
 PCOD8261152
Probable space group: C M C M
;
_chemical_formula_sum "Si O2"
_cell_formula_units_Z 64
_cell_length_a 20.928348
_cell_length_b 8.822158
_cell_length_c 15.513107
_cell_angle_alpha 90.000000
_cell_angle_beta 90.000000
_cell_angle_gamma 90.000000
_cell_volume 2864.234475
_symmetry_space_group_name_H-M "C M C M"
_symmetry_group_IT_number 63
_symmetry_cell_setting 'orthorhombic'
loop_
_space_group_symop_operation_xyz
x,y,z
-x,-y,1/2+z
x,-y,-z
-x,y,1/2-z
-x,-y,-z
x,y,1/2-z
-x,y,z
x,-y,1/2+z
1/2+x,1/2+y,z
1/2-x,1/2-y,1/2+z
1/2+x,1/2-y,-z
1/2-x,1/2+y,1/2-z
1/2-x,1/2-y,-z
1/2+x,1/2+y,1/2-z
1/2-x,1/2+y,z
1/2+x,1/2-y,1/2+z
loop_
_atom_site_type_symbol
_atom_site_label
_atom_site_fract_x
_atom_site_fract_y
_atom_site_fract_z
Si Si1 0.315084 0.104774 0.652081
Si Si2 0.930671 0.062369 0.595874
Si Si3 0.303543 0.569451 0.404986
Si Si4 0.071679 0.394134 0.850027
O O1 0.325046 0.160131 0.750000
O O2 0.301337 0.248424 0.591269
O O3 0.255947 0.989237 0.649996
O O4 0.378608 0.020640 0.617424
O O5 0.917853 0.242306 0.594686
O O6 0.000000 0.030428 0.641609
O O7 0.934267 0.000000 0.500000
O O8 0.870381 0.980575 0.641466
O O9 0.299634 0.500000 0.500000
O O10 0.084500 0.354150 0.750000
O O11 0.000000 0.458216 0.863563
#
# Coordination Sequence:
#
# PCOD8261152 Si02
#       4
#    16  16  16  16
#     4  11  23  39  62  89 117 152 197 246 295 350
#     4   9  19  37  59  84 115 152 193 234 282 342
#     4  11  23  39  59  85 120 157 195 240 293 353
#     4   9  19  37  61  88 118 153 193 240 293 345
#
# _framework density 22.344541
#
# number of rings (size 3 to 8) (size 9 to 14) (size 15 to 20)
#    0.000    2.000    0.000    3.000    0.000    7.000 
#    0.000    0.000    0.000   14.250    0.000    0.000 
#    0.000    0.000    0.000    0.000    0.000    0.000 
#
# Total GULP energy -396707.273466 kJ/mol
# GULP energy per Si atom -12397.102296 kJ/mol
# Density = 2.229368 g / cm^3
# Si number density = 22.344541 Si / 1000 Ang^3
#
#
#
# Elastic Constant Matrix: (Units=GPa)
#
#
# Indices 1 2 3 4 5 6 
#
# 1 195.4246 82.9226 10.7599 0.0000 0.0000 0.0000
# 2 82.9226 172.1081 42.3340 0.0000 0.0000 0.0000
# 3 10.7599 42.3340 56.3323 0.0000 0.0000 0.0000
# 4 0.0000 0.0000 0.0000 32.8391 0.0000 0.0000
# 5 0.0000 0.0000 0.0000 0.0000 21.8647 0.0000
# 6 0.0000 0.0000 0.0000 0.0000 0.0000 45.3000
#
#
#
# Elastic Compliance Matrix: (Units=1/GPa)
#
#
# Indices 1 2 3 4 5 6 
#
# 1 0.006517 -0.003476 0.001368 0.000000 0.000000 0.000000
# 2 -0.003476 0.008982 -0.006086 0.000000 0.000000 0.000000
# 3 0.001368 -0.006086 0.022064 0.000000 0.000000 0.000000
# 4 0.000000 0.000000 0.000000 0.030451 0.000000 0.000000
# 5 0.000000 0.000000 0.000000 0.000000 0.045736 0.000000
# 6 0.000000 0.000000 0.000000 0.000000 0.000000 0.022075
#
#
# Mechanical properties :
#
#
# Convention : Reuss Voigt Hill
#
# Bulk Modulus (GPa) = 47.22807 77.32198 62.27502
# Shear Modulus (GPa) = 31.39257 39.19066 35.29162
#
# Velocity S-wave (km/s) = 3.75231 4.19253 3.97851
# Velocity P-wave (km/s) = 6.32102 7.62338 7.00254
#
# Compressibility (1/GPa) = 0.02117385
#
# Stress axis : x y z
#
# Youngs Moduli (GPa) = 153.44969 111.33119 45.32189
#
# Poissons Ratio (x) = 0.38701 -0.06198
# Poissons Ratio (y) = 0.53343 0.27584
# Poissons Ratio (z) = -0.20987 0.67758
#
# Static dielectric constant tensor:
#      x y z
#    x 5.092140 0.000000 0.000000 
#    y 0.000000 3.853070 0.000000 
#    z 0.000000 0.000000 3.565790 
# 
# 
# High freq. dielectric constant tensor:
#      x y z
#    x 1.910450 0.000000 0.000000 
#    y 0.000000 1.873920 0.000000 
#    z 0.000000 0.000000 1.848420 
# 
# From -- ./inp_files/46513.got.cif
#   From: 2010.03.12/outbox.cif.g09.slc.cpg/sg63_24_cif.got.tgz:46513.got - 2010.04.10 19:34:48.
