data_PCOD8261924
_publ_section_title
;
Structure prediction by ZEFSAII (Michael W. Deem and Ramdas Pophale) SiO2 
 PCOD8261924
Probable space group: C M C A
;
_chemical_formula_sum "Si O2"
_cell_formula_units_Z 96
_cell_length_a 19.405327
_cell_length_b 11.088471
_cell_length_c 22.454532
_cell_angle_alpha 90.000000
_cell_angle_beta 90.000000
_cell_angle_gamma 90.000000
_cell_volume 4831.663033
_symmetry_space_group_name_H-M "C M C A"
_symmetry_group_IT_number 64
_symmetry_cell_setting 'orthorhombic'
loop_
_space_group_symop_operation_xyz
x,y,z
-x,1/2-y,1/2+z
x,-y,-z
-x,1/2+y,1/2-z
-x,-y,-z
x,1/2+y,1/2-z
-x,y,z
x,1/2-y,1/2+z
1/2+x,1/2+y,z
1/2-x,-y,1/2+z
1/2+x,1/2-y,-z
1/2-x,y,1/2-z
1/2-x,1/2-y,-z
1/2+x,y,1/2-z
1/2-x,1/2+y,z
1/2+x,-y,1/2+z
loop_
_atom_site_type_symbol
_atom_site_label
_atom_site_fract_x
_atom_site_fract_y
_atom_site_fract_z
Si Si1 0.154809 0.131466 0.647985
Si Si2 0.312586 0.676715 0.054675
Si Si3 0.920913 0.400003 0.849671
Si Si4 0.661434 0.244713 0.569323
Si Si5 0.302110 0.028838 0.644635
Si Si6 0.170466 0.341470 0.738243
O O1 0.160278 0.202448 0.586203
O O2 0.144343 0.227692 0.700342
O O3 0.088742 0.044163 0.645605
O O4 0.220170 0.040777 0.656236
O O5 0.229736 0.681551 0.051567
O O6 0.326434 0.555317 0.090411
O O7 0.352514 0.668385 0.991138
O O8 0.898356 0.338014 0.912339
O O9 0.874970 0.345799 0.796822
O O10 0.000000 0.370197 0.836928
O O11 0.670061 0.160764 0.627965
O O12 0.336060 0.970119 0.703646
O O13 0.250000 0.312747 0.750000
#
# Coordination Sequence:
#
# PCOD8261924 Si02
#       6
#    16  16  16  16  16  16
#     4  10  21  37  58  87 120 156 200 253 306 357
#     4   9  18  35  63  90 118 148 200 258 301 344
#     4  12  26  41  57  87 129 166 203 246 312 375
#     4  10  20  35  58  92 122 154 195 250 302 357
#     4  10  18  35  62  93 119 147 200 260 302 344
#     4  11  22  37  62  88 117 161 210 258 298 355
#
# _framework density 19.868933999999999
#
# number of rings (size 3 to 8) (size 9 to 14) (size 15 to 20)
#    0.000    1.667    3.333    2.500    4.667    1.333 
#    0.000    1.667    0.000    4.000    0.000    0.000 
#    0.000    0.000    0.000    0.000    0.000    0.000 
#
# Total GULP energy -594951.628148 kJ/mol
# GULP energy per Si atom -12394.825586 kJ/mol
# Density = 1.982371 g / cm^3
# Si number density = 19.868934 Si / 1000 Ang^3
#
#
#
# Elastic Constant Matrix: (Units=GPa)
#
#
# Indices 1 2 3 4 5 6 
#
# 1 93.0077 28.5319 37.0308 0.0000 0.0000 0.0000
# 2 28.5319 71.0861 15.8264 0.0000 0.0000 0.0000
# 3 37.0308 15.8264 78.3595 0.0000 0.0000 0.0000
# 4 0.0000 0.0000 0.0000 26.2799 0.0000 0.0000
# 5 0.0000 0.0000 0.0000 0.0000 18.3704 0.0000
# 6 0.0000 0.0000 0.0000 0.0000 0.0000 12.9815
#
#
#
# Elastic Compliance Matrix: (Units=1/GPa)
#
#
# Indices 1 2 3 4 5 6 
#
# 1 0.014497 -0.004496 -0.005943 0.000000 0.000000 0.000000
# 2 -0.004496 0.016124 -0.001132 0.000000 0.000000 0.000000
# 3 -0.005943 -0.001132 0.015799 0.000000 0.000000 0.000000
# 4 0.000000 0.000000 0.000000 0.038052 0.000000 0.000000
# 5 0.000000 0.000000 0.000000 0.000000 0.054435 0.000000
# 6 0.000000 0.000000 0.000000 0.000000 0.000000 0.077033
#
#
# Mechanical properties :
#
#
# Convention : Reuss Voigt Hill
#
# Bulk Modulus (GPa) = 42.95803 45.02574 43.99189
# Shear Modulus (GPa) = 20.25598 22.26397 21.25998
#
# Velocity S-wave (km/s) = 3.19639 3.35108 3.27465
# Velocity P-wave (km/s) = 5.94056 6.13869 6.04044
#
# Compressibility (1/GPa) = 0.02327853
#
# Stress axis : x y z
#
# Youngs Moduli (GPa) = 68.97931 62.01982 63.29571
#
# Poissons Ratio (x) = 0.27881 0.37617
# Poissons Ratio (y) = 0.31010 0.07166
# Poissons Ratio (z) = 0.40994 0.07021
#
# Static dielectric constant tensor:
#      x y z
#    x 3.037860 0.000000 0.000000 
#    y 0.000000 3.755330 0.000000 
#    z 0.000000 0.000000 3.915100 
# 
# 
# High freq. dielectric constant tensor:
#      x y z
#    x 1.705350 0.000000 0.000000 
#    y 0.000000 1.792620 0.000000 
#    z 0.000000 0.000000 1.788150 
# 
# From -- ./inp_files/45746.got.cif
#   From: 2010.03.12/outbox.cif.g09.slc.cpg/sg64_23_cif.got.tgz:45746.got - 2010.04.10 20:19:32.
