data_PCOD8261888
_publ_section_title
;
Structure prediction by ZEFSAII (Michael W. Deem and Ramdas Pophale) SiO2 
 PCOD8261888
Probable space group: C M C A
;
_chemical_formula_sum "Si O2"
_cell_formula_units_Z 112
_cell_length_a 15.696283
_cell_length_b 14.700856
_cell_length_c 26.462863
_cell_angle_alpha 90.000000
_cell_angle_beta 90.000000
_cell_angle_gamma 90.000000
_cell_volume 6106.273779
_symmetry_space_group_name_H-M "C M C A"
_symmetry_group_IT_number 64
_symmetry_cell_setting 'orthorhombic'
loop_
_space_group_symop_operation_xyz
x,y,z
-x,1/2-y,1/2+z
x,-y,-z
-x,1/2+y,1/2-z
-x,-y,-z
x,1/2+y,1/2-z
-x,y,z
x,1/2-y,1/2+z
1/2+x,1/2+y,z
1/2-x,-y,1/2+z
1/2+x,1/2-y,-z
1/2-x,y,1/2-z
1/2-x,1/2-y,-z
1/2+x,y,1/2-z
1/2-x,1/2+y,z
1/2+x,-y,1/2+z
loop_
_atom_site_type_symbol
_atom_site_label
_atom_site_fract_x
_atom_site_fract_y
_atom_site_fract_z
Si Si1 0.594206 0.540177 0.306131
Si Si2 0.820481 0.144301 0.708497
Si Si3 0.254432 0.416957 0.873515
Si Si4 0.338754 0.155131 0.278386
Si Si5 0.254028 0.615686 0.600014
Si Si6 0.097180 0.100249 0.520456
Si Si7 0.804943 0.722850 0.047139
O O1 0.500000 0.548177 0.330109
O O2 0.610558 0.435490 0.291714
O O3 0.661588 0.575186 0.347304
O O4 0.593991 0.598649 0.254465
O O5 0.750000 0.119587 0.750000
O O6 0.867917 0.239706 0.719220
O O7 0.772775 0.153351 0.655396
O O8 0.327603 0.388173 0.833954
O O9 0.281615 0.513300 0.897767
O O10 0.250442 0.343677 0.917661
O O11 0.250000 0.148375 0.250000
O O12 0.340970 0.620768 0.567306
O O13 0.180092 0.682237 0.577450
O O14 0.111303 0.171566 0.473912
O O15 0.000000 0.109225 0.539175
O O16 0.117219 0.000000 0.500000
O O17 0.750000 0.750000 0.000000
#
# Coordination Sequence:
#
# PCOD8261888 Si02
#       7
#    16  16  16  16  16  16  16
#     4  10  21  33  49  78 109 139 173 211 266 321
#     4  10  19  34  57  78 104 141 182 219 256 311
#     4  10  18  34  55  78 105 136 176 221 263 307
#     4   9  18  34  54  75 104 140 177 220 259 301
#     4  10  19  32  56  82 104 139 181 219 262 313
#     4  10  20  34  52  79 114 140 166 218 279 321
#     4  10  20  33  53  80 105 134 179 218 258 316
#
# _framework density 18.341792000000002
#
# number of rings (size 3 to 8) (size 9 to 14) (size 15 to 20)
#    0.000    2.143    2.857    2.143    0.000    3.429 
#    0.000    0.000    0.000    0.857    0.000    4.000 
#    0.000    0.000    0.000    0.000    0.000    0.000 
#
# Total GULP energy -694129.209108 kJ/mol
# GULP energy per Si atom -12395.164448 kJ/mol
# Density = 1.830005 g / cm^3
# Si number density = 18.341792 Si / 1000 Ang^3
#
#
#
# Elastic Constant Matrix: (Units=GPa)
#
#
# Indices 1 2 3 4 5 6 
#
# 1 47.9062 20.0000 15.9580 0.0000 0.0000 0.0000
# 2 20.0000 124.2793 43.8105 0.0000 0.0000 0.0000
# 3 15.9580 43.8105 101.3900 0.0000 0.0000 0.0000
# 4 0.0000 0.0000 0.0000 42.3863 0.0000 0.0000
# 5 0.0000 0.0000 0.0000 0.0000 17.7509 0.0000
# 6 0.0000 0.0000 0.0000 0.0000 0.0000 3.7260
#
#
#
# Elastic Compliance Matrix: (Units=1/GPa)
#
#
# Indices 1 2 3 4 5 6 
#
# 1 0.022850 -0.002842 -0.002368 0.000000 0.000000 0.000000
# 2 -0.002842 0.009846 -0.003807 0.000000 0.000000 0.000000
# 3 -0.002368 -0.003807 0.011881 0.000000 0.000000 0.000000
# 4 0.000000 0.000000 0.000000 0.023593 0.000000 0.000000
# 5 0.000000 0.000000 0.000000 0.000000 0.056335 0.000000
# 6 0.000000 0.000000 0.000000 0.000000 0.000000 0.268382
#
#
# Mechanical properties :
#
#
# Convention : Reuss Voigt Hill
#
# Bulk Modulus (GPa) = 37.67749 48.12360 42.90055
# Shear Modulus (GPa) = 11.91134 25.69310 18.80222
#
# Velocity S-wave (km/s) = 2.55112 3.74678 3.20520
# Velocity P-wave (km/s) = 5.40963 6.70909 6.09409
#
# Compressibility (1/GPa) = 0.02654105
#
# Stress axis : x y z
#
# Youngs Moduli (GPa) = 43.76443 101.56579 84.17050
#
# Poissons Ratio (x) = 0.28868 0.19933
# Poissons Ratio (y) = 0.12439 0.32044
# Poissons Ratio (z) = 0.10364 0.38666
#
# Static dielectric constant tensor:
#      x y z
#    x 2.924220 0.000000 0.000000 
#    y 0.000000 3.869150 0.000000 
#    z 0.000000 0.000000 3.658960 
# 
# 
# High freq. dielectric constant tensor:
#      x y z
#    x 1.652600 0.000000 0.000000 
#    y 0.000000 1.733390 0.000000 
#    z 0.000000 0.000000 1.725980 
# 
# From -- ./inp_files/50053.got.cif
#   From: 2010.03.12/outbox.cif.g09.slc.cpg/sg64_26_cif.got.tgz:50053.got - 2010.04.10 20:19:32.
