data_PCOD8261335
_publ_section_title
;
Structure prediction by ZEFSAII (Michael W. Deem and Ramdas Pophale) SiO2 
 PCOD8261335
Probable space group: C M C M
;
_chemical_formula_sum "Si O2"
_cell_formula_units_Z 48
_cell_length_a 9.143632
_cell_length_b 22.532606
_cell_length_c 12.750006
_cell_angle_alpha 90.000000
_cell_angle_beta 90.000000
_cell_angle_gamma 90.000000
_cell_volume 2626.881916
_symmetry_space_group_name_H-M "C M C M"
_symmetry_group_IT_number 63
_symmetry_cell_setting 'orthorhombic'
loop_
_space_group_symop_operation_xyz
x,y,z
-x,-y,1/2+z
x,-y,-z
-x,y,1/2-z
-x,-y,-z
x,y,1/2-z
-x,y,z
x,-y,1/2+z
1/2+x,1/2+y,z
1/2-x,1/2-y,1/2+z
1/2+x,1/2-y,-z
1/2-x,1/2+y,1/2-z
1/2-x,1/2-y,-z
1/2+x,1/2+y,1/2-z
1/2-x,1/2+y,z
1/2+x,1/2-y,1/2+z
loop_
_atom_site_type_symbol
_atom_site_label
_atom_site_fract_x
_atom_site_fract_y
_atom_site_fract_z
Si Si1 0.825409 0.064214 0.968299
Si Si2 0.664590 0.341861 0.865190
Si Si3 0.326811 0.749457 0.750000
Si Si4 0.826261 0.885373 0.250000
O O1 0.766194 0.113037 0.050730
O O2 0.000000 0.063323 0.972513
O O3 0.766962 0.080871 0.852818
O O4 0.762092 0.000000 0.000000
O O5 0.661208 0.373482 0.750000
O O6 0.500000 0.323510 0.899126
O O7 0.763302 0.282162 0.854641
O O8 0.500000 0.753646 0.750000
O O9 0.269864 0.682167 0.750000
O O10 0.000000 0.885467 0.250000
#
# Coordination Sequence:
#
# PCOD8261335 Si02
#       4
#    16  16   8   8
#     4   9  17  28  46  69  97 125 150 193 240 277
#     4   8  16  30  48  71  94 119 155 192 230 275
#     4   9  17  30  47  69  97 127 156 189 228 276
#     4   9  18  28  41  69  97 121 158 193 230 278
#
# _framework density 18.272613
#
# number of rings (size 3 to 8) (size 9 to 14) (size 15 to 20)
#    1.000    2.333    0.000    0.000    2.333    1.333 
#    0.000    0.000    0.000    1.000    0.000    4.667 
#    0.000    0.000    0.000    0.000    0.000    0.000 
#
# Total GULP energy -297340.349529 kJ/mol
# GULP energy per Si atom -12389.181230 kJ/mol
# Density = 1.823102 g / cm^3
# Si number density = 18.272613 Si / 1000 Ang^3
#
#
#
# Elastic Constant Matrix: (Units=GPa)
#
#
# Indices 1 2 3 4 5 6 
#
# 1 31.8804 28.1435 14.0998 0.0000 0.0000 0.0000
# 2 28.1435 172.3135 87.0636 0.0000 0.0000 0.0000
# 3 14.0998 87.0636 136.8262 0.0000 0.0000 0.0000
# 4 0.0000 0.0000 0.0000 37.4558 0.0000 0.0000
# 5 0.0000 0.0000 0.0000 0.0000 12.0599 0.0000
# 6 0.0000 0.0000 0.0000 0.0000 0.0000 19.9011
#
#
#
# Elastic Compliance Matrix: (Units=1/GPa)
#
#
# Indices 1 2 3 4 5 6 
#
# 1 0.036652 -0.006010 0.000047 0.000000 0.000000 0.000000
# 2 -0.006010 0.009539 -0.005450 0.000000 0.000000 0.000000
# 3 0.000047 -0.005450 0.010772 0.000000 0.000000 0.000000
# 4 0.000000 0.000000 0.000000 0.026698 0.000000 0.000000
# 5 0.000000 0.000000 0.000000 0.000000 0.082919 0.000000
# 6 0.000000 0.000000 0.000000 0.000000 0.000000 0.050248
#
#
# Mechanical properties :
#
#
# Convention : Reuss Voigt Hill
#
# Bulk Modulus (GPa) = 29.29425 66.62597 47.96011
# Shear Modulus (GPa) = 19.91765 27.99758 23.95762
#
# Velocity S-wave (km/s) = 3.30514 3.91860 3.62487
# Velocity P-wave (km/s) = 5.53460 7.55084 6.61994
#
# Compressibility (1/GPa) = 0.03413639
#
# Stress axis : x y z
#
# Youngs Moduli (GPa) = 27.28360 104.83447 92.83565
#
# Poissons Ratio (x) = 0.63008 -0.00440
# Poissons Ratio (y) = 0.16398 0.50598
# Poissons Ratio (z) = -0.00129 0.57138
#
# Static dielectric constant tensor:
#      x y z
#    x 2.771550 0.000000 0.000000 
#    y 0.000000 3.409440 0.000000 
#    z 0.000000 0.000000 3.443090 
# 
# 
# High freq. dielectric constant tensor:
#      x y z
#    x 1.645320 0.000000 0.000000 
#    y 0.000000 1.705470 0.000000 
#    z 0.000000 0.000000 1.709730 
# 
# From -- ./inp_files/17230.got.cif
#   From: 2010.03.12/outbox.cif.g09.slc.cpg/sg63_9_cif.got.tgz:17230.got - 2010.04.10 19:34:48.
