data_PCOD8261702
_publ_section_title
;
Structure prediction by ZEFSAII (Michael W. Deem and Ramdas Pophale) SiO2 
 PCOD8261702
Probable space group: C M C A
;
_chemical_formula_sum "Si O2"
_cell_formula_units_Z 128
_cell_length_a 23.056571
_cell_length_b 12.715734
_cell_length_c 23.423477
_cell_angle_alpha 90.000000
_cell_angle_beta 90.000000
_cell_angle_gamma 90.000000
_cell_volume 6867.323652
_symmetry_space_group_name_H-M "C M C A"
_symmetry_group_IT_number 64
_symmetry_cell_setting 'orthorhombic'
loop_
_space_group_symop_operation_xyz
x,y,z
-x,1/2-y,1/2+z
x,-y,-z
-x,1/2+y,1/2-z
-x,-y,-z
x,1/2+y,1/2-z
-x,y,z
x,1/2-y,1/2+z
1/2+x,1/2+y,z
1/2-x,-y,1/2+z
1/2+x,1/2-y,-z
1/2-x,y,1/2-z
1/2-x,1/2-y,-z
1/2+x,y,1/2-z
1/2-x,1/2+y,z
1/2+x,-y,1/2+z
loop_
_atom_site_type_symbol
_atom_site_label
_atom_site_fract_x
_atom_site_fract_y
_atom_site_fract_z
Si Si1 0.176773 0.472066 0.309485
Si Si2 0.434705 0.711551 0.579465
Si Si3 0.800978 0.908456 0.315930
Si Si4 0.144233 0.311928 0.672478
Si Si5 0.564271 0.141772 0.223509
Si Si6 0.932522 0.698623 0.049670
Si Si7 0.934186 0.348103 0.350223
Si Si8 0.397540 0.507510 0.379891
O O1 0.180399 0.472614 0.240603
O O2 0.232497 0.405060 0.329928
O O3 0.186514 0.588429 0.337160
O O4 0.115135 0.430770 0.333129
O O5 0.500000 0.755167 0.584488
O O6 0.393617 0.785072 0.617185
O O7 0.412274 0.720984 0.514550
O O8 0.435675 0.590234 0.598678
O O9 0.832593 0.964029 0.369275
O O10 0.819840 0.788075 0.306962
O O11 0.105450 0.360667 0.722652
O O12 0.500000 0.126828 0.247550
O O13 0.571104 0.252831 0.193213
O O14 0.576037 0.047412 0.179623
O O15 0.921585 0.804175 0.086179
O O16 0.895745 0.600072 0.073505
O O17 0.000000 0.665534 0.053378
O O18 0.000000 0.396213 0.347200
#
# Coordination Sequence:
#
# PCOD8261702 Si02
#       8
#    16  16  16  16  16  16  16  16
#     4  11  22  39  58  82 112 154 186 227 286 350
#     4  10  20  34  54  84 120 155 193 236 280 331
#     4  10  23  37  56  82 114 149 190 233 279 345
#     4  11  22  36  53  83 115 145 187 234 284 333
#     4  10  18  30  51  82 117 148 178 227 289 341
#     4   9  18  34  58  84 113 154 197 235 279 332
#     4   9  19  35  56  82 111 144 187 232 279 337
#     4  10  18  33  54  85 115 150 193 237 284 329
#
# _framework density 18.638992999999999
#
# number of rings (size 3 to 8) (size 9 to 14) (size 15 to 20)
#    0.000    2.000    2.500    2.625    0.000    6.000 
#    0.000    0.625    0.000   12.000    0.000    0.000 
#    0.000    0.000    0.000    0.000    0.000    0.000 
#
# Total GULP energy -793352.554402 kJ/mol
# GULP energy per Si atom -12396.133663 kJ/mol
# Density = 1.859657 g / cm^3
# Si number density = 18.638993 Si / 1000 Ang^3
#
#
#
# Elastic Constant Matrix: (Units=GPa)
#
#
# Indices 1 2 3 4 5 6 
#
# 1 96.8287 40.5129 36.3640 0.0000 0.0000 0.0000
# 2 40.5129 86.6525 32.5108 0.0000 0.0000 0.0000
# 3 36.3640 32.5108 98.7435 0.0000 0.0000 0.0000
# 4 0.0000 0.0000 0.0000 20.7925 0.0000 0.0000
# 5 0.0000 0.0000 0.0000 0.0000 19.7262 0.0000
# 6 0.0000 0.0000 0.0000 0.0000 0.0000 22.7026
#
#
#
# Elastic Compliance Matrix: (Units=1/GPa)
#
#
# Indices 1 2 3 4 5 6 
#
# 1 0.013753 -0.005168 -0.003363 0.000000 0.000000 0.000000
# 2 -0.005168 0.015109 -0.003071 0.000000 0.000000 0.000000
# 3 -0.003363 -0.003071 0.012377 0.000000 0.000000 0.000000
# 4 0.000000 0.000000 0.000000 0.048094 0.000000 0.000000
# 5 0.000000 0.000000 0.000000 0.000000 0.050694 0.000000
# 6 0.000000 0.000000 0.000000 0.000000 0.000000 0.044048
#
#
# Mechanical properties :
#
#
# Convention : Reuss Voigt Hill
#
# Bulk Modulus (GPa) = 55.45184 55.66668 55.55926
# Shear Modulus (GPa) = 23.44212 24.16673 23.80442
#
# Velocity S-wave (km/s) = 3.55024 3.60470 3.57757
# Velocity P-wave (km/s) = 6.82793 6.87427 6.85114
#
# Compressibility (1/GPa) = 0.01803367
#
# Stress axis : x y z
#
# Youngs Moduli (GPa) = 72.71206 66.18604 80.79507
#
# Poissons Ratio (x) = 0.34206 0.27173
# Poissons Ratio (y) = 0.37578 0.24815
# Poissons Ratio (z) = 0.24454 0.20328
#
# Static dielectric constant tensor:
#      x y z
#    x 3.401430 0.000000 0.000000 
#    y 0.000000 3.343920 0.000000 
#    z 0.000000 0.000000 3.425150 
# 
# 
# High freq. dielectric constant tensor:
#      x y z
#    x 1.715070 0.000000 0.000000 
#    y 0.000000 1.721190 0.000000 
#    z 0.000000 0.000000 1.709690 
# 
# From -- ./inp_files/46768.got.cif
#   From: 2010.03.12/outbox.cif.g09.slc.cpg/sg64_24_cif.got.tgz:46768.got - 2010.04.10 20:19:32.
