data_PCOD8261698
_publ_section_title
;
Structure prediction by ZEFSAII (Michael W. Deem and Ramdas Pophale) SiO2 
 PCOD8261698
Probable space group: C M C A
;
_chemical_formula_sum "Si O2"
_cell_formula_units_Z 80
_cell_length_a 8.751095
_cell_length_b 19.296599
_cell_length_c 25.806992
_cell_angle_alpha 90.000000
_cell_angle_beta 90.000000
_cell_angle_gamma 90.000000
_cell_volume 4357.933086
_symmetry_space_group_name_H-M "C M C A"
_symmetry_group_IT_number 64
_symmetry_cell_setting 'orthorhombic'
loop_
_space_group_symop_operation_xyz
x,y,z
-x,1/2-y,1/2+z
x,-y,-z
-x,1/2+y,1/2-z
-x,-y,-z
x,1/2+y,1/2-z
-x,y,z
x,1/2-y,1/2+z
1/2+x,1/2+y,z
1/2-x,-y,1/2+z
1/2+x,1/2-y,-z
1/2-x,y,1/2-z
1/2-x,1/2-y,-z
1/2+x,y,1/2-z
1/2-x,1/2+y,z
1/2+x,-y,1/2+z
loop_
_atom_site_type_symbol
_atom_site_label
_atom_site_fract_x
_atom_site_fract_y
_atom_site_fract_z
Si Si1 0.679492 0.522115 0.615700
Si Si2 0.678703 0.767903 0.118468
Si Si3 0.679797 0.368813 0.583981
Si Si4 0.821824 0.627273 0.968712
Si Si5 0.819644 0.623040 0.693551
O O1 0.500000 0.536975 0.622748
O O2 0.716531 0.441304 0.611557
O O3 0.739226 0.561117 0.563754
O O4 0.765866 0.552837 0.665201
O O5 0.500000 0.770703 0.130727
O O6 0.736632 0.689362 0.117729
O O7 0.716019 0.802720 0.062812
O O8 0.764832 0.808675 0.163525
O O9 0.500000 0.353183 0.583121
O O10 0.751821 0.369472 0.525881
O O11 0.000000 0.616730 0.977397
O O12 0.750000 0.624087 0.750000
O O13 0.000000 0.623617 0.697345
#
# Coordination Sequence:
#
# PCOD8261698 Si02
#       5
#    16  16  16  16  16
#     4   9  18  33  53  79 109 140 176 215 256 305
#     4  10  20  34  52  77 109 141 177 217 258 306
#     4  10  18  30  51  79 112 146 178 213 255 301
#     4   8  15  29  50  75 106 147 184 212 248 299
#     4  11  22  39  61  79  98 128 170 217 266 319
#
# _framework density 18.357327000000002
#
# number of rings (size 3 to 8) (size 9 to 14) (size 15 to 20)
#    0.000    2.400    0.000    4.800    0.000    3.200 
#    0.000    5.000    0.000   10.800    0.000    0.000 
#    0.000    0.000    0.000    0.000    0.000    0.000 
#
# Total GULP energy -495999.674223 kJ/mol
# GULP energy per Si atom -12399.991856 kJ/mol
# Density = 1.831554 g / cm^3
# Si number density = 18.357327 Si / 1000 Ang^3
#
#
#
# Elastic Constant Matrix: (Units=GPa)
#
#
# Indices 1 2 3 4 5 6 
#
# 1 90.7176 58.6060 55.7608 0.0000 0.0000 0.0000
# 2 58.6060 128.1846 54.2961 0.0000 0.0000 0.0000
# 3 55.7608 54.2961 132.7881 0.0000 0.0000 0.0000
# 4 0.0000 0.0000 0.0000 18.2592 0.0000 0.0000
# 5 0.0000 0.0000 0.0000 0.0000 22.4881 0.0000
# 6 0.0000 0.0000 0.0000 0.0000 0.0000 29.7414
#
#
#
# Elastic Compliance Matrix: (Units=1/GPa)
#
#
# Indices 1 2 3 4 5 6 
#
# 1 0.018114 -0.006120 -0.005104 0.000000 0.000000 0.000000
# 2 -0.006120 0.011503 -0.002134 0.000000 0.000000 0.000000
# 3 -0.005104 -0.002134 0.010547 0.000000 0.000000 0.000000
# 4 0.000000 0.000000 0.000000 0.054767 0.000000 0.000000
# 5 0.000000 0.000000 0.000000 0.000000 0.044468 0.000000
# 6 0.000000 0.000000 0.000000 0.000000 0.000000 0.033623
#
#
# Mechanical properties :
#
#
# Convention : Reuss Voigt Hill
#
# Bulk Modulus (GPa) = 74.35796 76.55733 75.45765
# Shear Modulus (GPa) = 24.48344 26.29957 25.39150
#
# Velocity S-wave (km/s) = 3.65597 3.78914 3.72315
# Velocity P-wave (km/s) = 7.64299 7.80628 7.72506
#
# Compressibility (1/GPa) = 0.01344846
#
# Stress axis : x y z
#
# Youngs Moduli (GPa) = 55.20562 86.93418 94.81720
#
# Poissons Ratio (x) = 0.53201 0.48397
# Poissons Ratio (y) = 0.33784 0.20231
# Poissons Ratio (z) = 0.28178 0.18549
#
# Static dielectric constant tensor:
#      x y z
#    x 3.184040 0.000000 0.000000 
#    y 0.000000 3.443800 0.000000 
#    z 0.000000 0.000000 3.558740 
# 
# 
# High freq. dielectric constant tensor:
#      x y z
#    x 1.693870 0.000000 0.000000 
#    y 0.000000 1.716490 0.000000 
#    z 0.000000 0.000000 1.702040 
# 
# From -- ./inp_files/47773.got.cif
#   From: 2010.03.12/outbox.cif.g09.slc.cpg/sg64_24_cif.got.tgz:47773.got - 2010.04.10 20:19:32.
