data_PCOD8261567
_publ_section_title
;
Structure prediction by ZEFSAII (Michael W. Deem and Ramdas Pophale) SiO2 
 PCOD8261567
Probable space group: C M C A
;
_chemical_formula_sum "Si O2"
_cell_formula_units_Z 72
_cell_length_a 16.157697
_cell_length_b 22.817689
_cell_length_c 10.407553
_cell_angle_alpha 90.000000
_cell_angle_beta 90.000000
_cell_angle_gamma 90.000000
_cell_volume 3837.070223
_symmetry_space_group_name_H-M "C M C A"
_symmetry_group_IT_number 64
_symmetry_cell_setting 'orthorhombic'
loop_
_space_group_symop_operation_xyz
x,y,z
-x,1/2-y,1/2+z
x,-y,-z
-x,1/2+y,1/2-z
-x,-y,-z
x,1/2+y,1/2-z
-x,y,z
x,1/2-y,1/2+z
1/2+x,1/2+y,z
1/2-x,-y,1/2+z
1/2+x,1/2-y,-z
1/2-x,y,1/2-z
1/2-x,1/2-y,-z
1/2+x,y,1/2-z
1/2-x,1/2+y,z
1/2+x,-y,1/2+z
loop_
_atom_site_type_symbol
_atom_site_label
_atom_site_fract_x
_atom_site_fract_y
_atom_site_fract_z
Si Si1 0.148140 0.656364 0.397472
Si Si2 0.259827 0.052545 0.100042
Si Si3 0.408352 0.266711 0.116145
Si Si4 0.250000 0.258672 0.750000
Si Si5 0.409381 0.137199 0.118962
O O1 0.182279 0.592958 0.438890
O O2 0.092122 0.683702 0.507858
O O3 0.227229 0.698488 0.369088
O O4 0.093041 0.650291 0.270965
O O5 0.250000 0.032619 0.250000
O O6 0.343662 0.088923 0.076250
O O7 0.260551 0.000000 0.000000
O O8 0.500000 0.270646 0.182531
O O9 0.331322 0.279789 0.213657
O O10 0.396191 0.201554 0.054572
O O11 0.500000 0.112247 0.083143
#
# Coordination Sequence:
#
# PCOD8261567 Si02
#       5
#    16  16  16   8  16
#     4  10  17  34  52  76 108 147 181 222 278 343
#     4  10  20  37  56  78 105 146 197 233 279 333
#     4  10  19  31  54  84 109 141 181 221 278 346
#     4  10  18  32  52  76 114 146 178 220 278 340
#     4   9  18  33  54  80 110 142 179 228 282 339
#
# _framework density 18.764316999999998
#
# number of rings (size 3 to 8) (size 9 to 14) (size 15 to 20)
#    0.000    2.222    5.556    1.333    0.000    1.333 
#    2.000    0.000    0.000   16.667    0.000    0.000 
#    0.000    0.000    0.000    0.000    0.000    0.000 
#
# Total GULP energy -445996.913376 kJ/mol
# GULP energy per Si atom -12388.803149 kJ/mol
# Density = 1.872161 g / cm^3
# Si number density = 18.764317 Si / 1000 Ang^3
#
#
#
# Elastic Constant Matrix: (Units=GPa)
#
#
# Indices 1 2 3 4 5 6 
#
# 1 111.4085 37.0421 28.1459 0.0000 0.0000 0.0000
# 2 37.0421 105.0917 57.6075 0.0000 0.0000 0.0000
# 3 28.1459 57.6075 58.8682 0.0000 0.0000 0.0000
# 4 0.0000 0.0000 0.0000 39.3431 0.0000 0.0000
# 5 0.0000 0.0000 0.0000 0.0000 21.9813 0.0000
# 6 0.0000 0.0000 0.0000 0.0000 0.0000 14.0213
#
#
#
# Elastic Compliance Matrix: (Units=1/GPa)
#
#
# Indices 1 2 3 4 5 6 
#
# 1 0.010406 -0.002029 -0.002990 0.000000 0.000000 0.000000
# 2 -0.002029 0.020922 -0.019504 0.000000 0.000000 0.000000
# 3 -0.002990 -0.019504 0.037503 0.000000 0.000000 0.000000
# 4 0.000000 0.000000 0.000000 0.025417 0.000000 0.000000
# 5 0.000000 0.000000 0.000000 0.000000 0.045493 0.000000
# 6 0.000000 0.000000 0.000000 0.000000 0.000000 0.071320
#
#
# Mechanical properties :
#
#
# Convention : Reuss Voigt Hill
#
# Bulk Modulus (GPa) = 50.54204 57.88437 54.21321
# Shear Modulus (GPa) = 18.74758 25.24067 21.99413
#
# Velocity S-wave (km/s) = 3.16430 3.67160 3.42735
# Velocity P-wave (km/s) = 6.35169 6.99208 6.67957
#
# Compressibility (1/GPa) = 0.01978551
#
# Stress axis : x y z
#
# Youngs Moduli (GPa) = 96.09944 47.79682 26.66482
#
# Poissons Ratio (x) = 0.09698 0.07972
# Poissons Ratio (y) = 0.19498 0.52006
# Poissons Ratio (z) = 0.28731 0.93222
#
# Static dielectric constant tensor:
#      x y z
#    x 3.658550 0.000000 0.000000 
#    y 0.000000 3.226710 0.000000 
#    z 0.000000 0.000000 3.099950 
# 
# 
# High freq. dielectric constant tensor:
#      x y z
#    x 1.749800 0.000000 0.000000 
#    y 0.000000 1.694770 0.000000 
#    z 0.000000 0.000000 1.691190 
# 
# From -- ./inp_files/15761.got.cif
#   From: 2010.03.12/outbox.cif.g09.slc.cpg/sg64_8_cif.got.tgz:15761.got - 2010.04.10 20:19:32.
