data_PCOD8261264
_publ_section_title
;
Structure prediction by ZEFSAII (Michael W. Deem and Ramdas Pophale) SiO2 
 PCOD8261264
Probable space group: C M C M
;
_chemical_formula_sum "Si O2"
_cell_formula_units_Z 96
_cell_length_a 9.317390
_cell_length_b 33.147441
_cell_length_c 18.707897
_cell_angle_alpha 90.000000
_cell_angle_beta 90.000000
_cell_angle_gamma 90.000000
_cell_volume 5777.889750
_symmetry_space_group_name_H-M "C M C M"
_symmetry_group_IT_number 63
_symmetry_cell_setting 'orthorhombic'
loop_
_space_group_symop_operation_xyz
x,y,z
-x,-y,1/2+z
x,-y,-z
-x,y,1/2-z
-x,-y,-z
x,y,1/2-z
-x,y,z
x,-y,1/2+z
1/2+x,1/2+y,z
1/2-x,1/2-y,1/2+z
1/2+x,1/2-y,-z
1/2-x,1/2+y,1/2-z
1/2-x,1/2-y,-z
1/2+x,1/2+y,1/2-z
1/2-x,1/2+y,z
1/2+x,1/2-y,1/2+z
loop_
_atom_site_type_symbol
_atom_site_label
_atom_site_fract_x
_atom_site_fract_y
_atom_site_fract_z
Si Si1 0.170790 0.917926 0.828817
Si Si2 0.330875 0.675289 0.669086
Si Si3 0.329698 0.663227 0.101108
Si Si4 0.828770 0.042120 0.028358
Si Si5 0.164962 0.245089 0.166545
Si Si6 0.830035 0.122790 0.959191
O O1 0.229853 0.930265 0.750000
O O2 0.226241 0.872957 0.847970
O O3 0.223480 0.949352 0.890009
O O4 0.000000 0.917807 0.828342
O O5 0.286446 0.663900 0.750000
O O6 0.500000 0.682224 0.662222
O O7 0.255464 0.716106 0.643237
O O8 0.277636 0.638791 0.618003
O O9 0.500000 0.665175 0.107144
O O10 0.268018 0.706373 0.125834
O O11 0.278556 0.654120 0.020256
O O12 0.000000 0.040643 0.026336
O O13 0.771068 0.077886 0.976290
O O14 0.763227 0.000000 0.000000
O O15 0.180879 0.236362 0.250000
O O16 0.000000 0.252939 0.145472
O O17 0.000000 0.120473 0.961453
#
# Coordination Sequence:
#
# PCOD8261264 Si02
#       6
#    16  16  16  16  16  16
#     4   8  12  18  29  45  65  88 113 144 185 228
#     4   9  17  28  39  51  72 103 132 153 177 215
#     4   8  13  21  34  51  69  89 115 149 187 223
#     4   8  13  21  32  46  66  91 119 151 184 219
#     4   9  16  25  38  56  75  95 123 159 191 214
#     4   8  14  24  36  49  67  94 124 149 178 219
#
# _framework density 16.615062000000002
#
# number of rings (size 3 to 8) (size 9 to 14) (size 15 to 20)
#    0.000    3.667    0.000    2.500    0.000    2.667 
#    0.000    0.833    0.000    5.000    0.000    0.000 
#    0.000    0.667    0.000    0.500    0.000   62.000 
#
# Total GULP energy -594695.609796 kJ/mol
# GULP energy per Si atom -12389.491871 kJ/mol
# Density = 1.657725 g / cm^3
# Si number density = 16.615062 Si / 1000 Ang^3
#
#
#
# Elastic Constant Matrix: (Units=GPa)
#
#
# Indices 1 2 3 4 5 6 
#
# 1 8.3381 13.8955 11.9202 0.0000 0.0000 0.0000
# 2 13.8955 143.0560 93.3688 0.0000 0.0000 0.0000
# 3 11.9202 93.3688 130.8538 0.0000 0.0000 0.0000
# 4 0.0000 0.0000 0.0000 27.7634 0.0000 0.0000
# 5 0.0000 0.0000 0.0000 0.0000 7.1064 0.0000
# 6 0.0000 0.0000 0.0000 0.0000 0.0000 12.1961
#
#
#
# Elastic Compliance Matrix: (Units=1/GPa)
#
#
# Indices 1 2 3 4 5 6 
#
# 1 0.145516 -0.010262 -0.005934 0.000000 0.000000 0.000000
# 2 -0.010262 0.013807 -0.008917 0.000000 0.000000 0.000000
# 3 -0.005934 -0.008917 0.014545 0.000000 0.000000 0.000000
# 4 0.000000 0.000000 0.000000 0.036019 0.000000 0.000000
# 5 0.000000 0.000000 0.000000 0.000000 0.140719 0.000000
# 6 0.000000 0.000000 0.000000 0.000000 0.000000 0.081993
#
#
# Mechanical properties :
#
#
# Convention : Reuss Voigt Hill
#
# Bulk Modulus (GPa) = 8.08778 57.84633 32.96706
# Shear Modulus (GPa) = 9.54130 20.28406 14.91268
#
# Velocity S-wave (km/s) = 2.39896 3.49782 2.99915
# Velocity P-wave (km/s) = 3.54283 7.15571 5.64605
#
# Compressibility (1/GPa) = 0.12364332
#
# Stress axis : x y z
#
# Youngs Moduli (GPa) = 6.87209 72.42808 68.75142
#
# Poissons Ratio (x) = 0.74323 0.40796
# Poissons Ratio (y) = 0.07052 0.61305
# Poissons Ratio (z) = 0.04078 0.64583
#
# Static dielectric constant tensor:
#      x y z
#    x 2.476820 0.000000 0.000000 
#    y 0.000000 3.363510 0.000000 
#    z 0.000000 0.000000 3.432060 
# 
# 
# High freq. dielectric constant tensor:
#      x y z
#    x 1.562540 0.000000 0.000000 
#    y 0.000000 1.635770 0.000000 
#    z 0.000000 0.000000 1.646220 
# 
# From -- ./inp_files/51383.got.cif
#   From: 2010.03.12/outbox.cif.g09.slc.cpg/sg63_26_cif.got.tgz:51383.got - 2010.04.10 19:34:48.
