data_PCOD8261696
_publ_section_title
;
Structure prediction by ZEFSAII (Michael W. Deem and Ramdas Pophale) SiO2 
 PCOD8261696
Probable space group: C M C A
;
_chemical_formula_sum "Si O2"
_cell_formula_units_Z 96
_cell_length_a 16.870044
_cell_length_b 19.114148
_cell_length_c 15.763030
_cell_angle_alpha 90.000000
_cell_angle_beta 90.000000
_cell_angle_gamma 90.000000
_cell_volume 5082.891764
_symmetry_space_group_name_H-M "C M C A"
_symmetry_group_IT_number 64
_symmetry_cell_setting 'orthorhombic'
loop_
_space_group_symop_operation_xyz
x,y,z
-x,1/2-y,1/2+z
x,-y,-z
-x,1/2+y,1/2-z
-x,-y,-z
x,1/2+y,1/2-z
-x,y,z
x,1/2-y,1/2+z
1/2+x,1/2+y,z
1/2-x,-y,1/2+z
1/2+x,1/2-y,-z
1/2-x,y,1/2-z
1/2-x,1/2-y,-z
1/2+x,y,1/2-z
1/2-x,1/2+y,z
1/2+x,-y,1/2+z
loop_
_atom_site_type_symbol
_atom_site_label
_atom_site_fract_x
_atom_site_fract_y
_atom_site_fract_z
Si Si1 0.158135 0.293524 0.750000
Si Si2 0.407058 0.800849 0.575336
Si Si3 0.342898 0.454933 0.578632
Si Si4 0.842898 0.454933 0.578632
Si Si5 0.091867 0.945075 0.750000
Si Si6 0.407058 0.800849 0.924664
O O1 0.250000 0.273287 0.750000
O O2 0.117290 0.263861 0.664396
O O3 0.147129 0.376805 0.750000
O O4 0.117290 0.263861 0.835604
O O5 0.500000 0.815936 0.574370
O O6 0.362024 0.873802 0.562888
O O7 0.380529 0.750000 0.500000
O O8 0.375361 0.500000 0.500000
O O9 0.250000 0.465483 0.590124
O O10 0.386211 0.485652 0.663319
O O11 0.362025 0.373803 0.562888
O O12 0.875361 0.500000 0.500000
O O13 0.886211 0.485652 0.663319
O O14 0.000000 0.923703 0.750000
O O15 0.500000 0.815936 0.925630
#
# Coordination Sequence:
#
# PCOD8261696 Si02
#       6
#    16  16  16  16  16  16
#     4  10  18  30  51  74  99 132 168 204 244 296
#     4  10  20  34  53  76 102 132 167 207 249 295
#     4  10  20  34  53  76 102 132 167 207 249 295
#     4  10  20  34  53  76 102 132 167 207 249 295
#     4  10  18  30  51  74  99 132 168 204 244 296
#     4  10  20  34  53  76 102 132 167 207 249 295
#
# _framework density 18.886887000000002
#
# number of rings (size 3 to 8) (size 9 to 14) (size 15 to 20)
#    0.000    2.000    0.000    9.000    0.000    5.333 
#    0.000    1.667    0.000    0.000    0.000    0.000 
#    0.000    0.000    0.000    0.000    0.000    0.000 
#
# Total GULP energy -595051.804305 kJ/mol
# GULP energy per Si atom -12396.912590 kJ/mol
# Density = 1.884390 g / cm^3
# Si number density = 18.886887 Si / 1000 Ang^3
#
#
#
# Elastic Constant Matrix: (Units=GPa)
#
#
# Indices 1 2 3 4 5 6 
#
# 1 53.9639 10.9139 35.5610 0.0000 0.0000 0.0000
# 2 10.9139 43.8990 58.7583 0.0000 0.0000 0.0000
# 3 35.5610 58.7583 218.3673 0.0000 0.0000 0.0000
# 4 0.0000 0.0000 0.0000 36.3700 0.0000 0.0000
# 5 0.0000 0.0000 0.0000 0.0000 34.1366 0.0000
# 6 0.0000 0.0000 0.0000 0.0000 0.0000 15.5090
#
#
#
# Elastic Compliance Matrix: (Units=1/GPa)
#
#
# Indices 1 2 3 4 5 6 
#
# 1 0.020786 -0.000995 -0.003117 0.000000 0.000000 0.000000
# 2 -0.000995 0.035650 -0.009430 0.000000 0.000000 0.000000
# 3 -0.003117 -0.009430 0.007625 0.000000 0.000000 0.000000
# 4 0.000000 0.000000 0.000000 0.027495 0.000000 0.000000
# 5 0.000000 0.000000 0.000000 0.000000 0.029294 0.000000
# 6 0.000000 0.000000 0.000000 0.000000 0.000000 0.064479
#
#
# Mechanical properties :
#
#
# Convention : Reuss Voigt Hill
#
# Bulk Modulus (GPa) = 27.04578 58.52185 42.78381
# Shear Modulus (GPa) = 22.24798 31.26960 26.75879
#
# Velocity S-wave (km/s) = 3.43586 4.07335 3.76811
# Velocity P-wave (km/s) = 5.48554 7.29216 6.45239
#
# Compressibility (1/GPa) = 0.03697435
#
# Stress axis : x y z
#
# Youngs Moduli (GPa) = 48.10844 28.05079 131.15395
#
# Poissons Ratio (x) = 0.02792 0.40883
# Poissons Ratio (y) = 0.04789 1.23685
# Poissons Ratio (z) = 0.14996 0.26453
#
# Static dielectric constant tensor:
#      x y z
#    x 3.423890 0.000000 0.000000 
#    y 0.000000 2.994620 0.000000 
#    z 0.000000 0.000000 4.397630 
# 
# 
# High freq. dielectric constant tensor:
#      x y z
#    x 1.747510 0.000000 0.000000 
#    y 0.000000 1.672950 0.000000 
#    z 0.000000 0.000000 1.765480 
# 
# From -- ./inp_files/23881.got.cif
#   From: 2010.03.12/outbox.cif.g09.slc.cpg/sg64_12_cif.got.tgz:23881.got - 2010.04.10 20:19:32.
