data_PCOD8261499
_publ_section_title
;
Structure prediction by ZEFSAII (Michael W. Deem and Ramdas Pophale) SiO2 
 PCOD8261499
Probable space group: C M C A
;
_chemical_formula_sum "Si O2"
_cell_formula_units_Z 80
_cell_length_a 8.661177
_cell_length_b 15.109753
_cell_length_c 29.965078
_cell_angle_alpha 90.000000
_cell_angle_beta 90.000000
_cell_angle_gamma 90.000000
_cell_volume 3921.477174
_symmetry_space_group_name_H-M "C M C A"
_symmetry_group_IT_number 64
_symmetry_cell_setting 'orthorhombic'
loop_
_space_group_symop_operation_xyz
x,y,z
-x,1/2-y,1/2+z
x,-y,-z
-x,1/2+y,1/2-z
-x,-y,-z
x,1/2+y,1/2-z
-x,y,z
x,1/2-y,1/2+z
1/2+x,1/2+y,z
1/2-x,-y,1/2+z
1/2+x,1/2-y,-z
1/2-x,y,1/2-z
1/2-x,1/2-y,-z
1/2+x,y,1/2-z
1/2-x,1/2+y,z
1/2+x,-y,1/2+z
loop_
_atom_site_type_symbol
_atom_site_label
_atom_site_fract_x
_atom_site_fract_y
_atom_site_fract_z
Si Si1 0.679140 0.662858 0.707845
Si Si2 0.680627 0.645438 0.294977
Si Si3 0.821833 0.651958 0.889891
Si Si4 0.182733 0.494066 0.948566
Si Si5 0.317104 0.149193 0.386736
O O1 0.500000 0.686487 0.715603
O O2 0.750000 0.607241 0.750000
O O3 0.779901 0.751333 0.705989
O O4 0.700637 0.613415 0.660575
O O5 0.500000 0.627148 0.295566
O O6 0.750000 0.599918 0.250000
O O7 0.751579 0.606437 0.340866
O O8 0.747866 0.581494 0.924067
O O9 0.750806 0.750738 0.894110
O O10 0.000000 0.660119 0.902196
O O11 0.263433 0.407575 0.928797
O O12 0.000000 0.485546 0.941421
O O13 0.228718 0.500000 0.000000
O O14 0.500000 0.151196 0.382667
#
# Coordination Sequence:
#
# PCOD8261499 Si02
#       5
#    16  16  16  16  16
#     4   9  15  26  46  73 106 141 175 211 256 309
#     4  10  17  28  49  78 110 143 179 216 258 310
#     4   8  17  34  54  76 107 143 174 215 271 324
#     4  10  21  38  58  79 104 138 182 231 281 330
#     4  10  20  36  56  79 109 144 179 218 269 323
#
# _framework density 20.400476000000001
#
# number of rings (size 3 to 8) (size 9 to 14) (size 15 to 20)
#    0.000    2.600    0.000    5.400    0.000    1.200 
#    0.000    7.000    0.000    2.400    0.000    0.000 
#    0.000    0.000    0.000    0.000    0.000    0.000 
#
# Total GULP energy -495649.396285 kJ/mol
# GULP energy per Si atom -12391.234907 kJ/mol
# Density = 2.035404 g / cm^3
# Si number density = 20.400476 Si / 1000 Ang^3
#
#
#
# Elastic Constant Matrix: (Units=GPa)
#
#
# Indices 1 2 3 4 5 6 
#
# 1 83.3060 23.3942 51.8056 0.0000 0.0000 0.0000
# 2 23.3942 83.3250 65.8323 0.0000 0.0000 0.0000
# 3 51.8056 65.8323 179.6504 0.0000 0.0000 0.0000
# 4 0.0000 0.0000 0.0000 10.2033 0.0000 0.0000
# 5 0.0000 0.0000 0.0000 0.0000 30.5632 0.0000
# 6 0.0000 0.0000 0.0000 0.0000 0.0000 12.1225
#
#
#
# Elastic Compliance Matrix: (Units=1/GPa)
#
#
# Indices 1 2 3 4 5 6 
#
# 1 0.014698 -0.001095 -0.003837 0.000000 0.000000 0.000000
# 2 -0.001095 0.016973 -0.005904 0.000000 0.000000 0.000000
# 3 -0.003837 -0.005904 0.008836 0.000000 0.000000 0.000000
# 4 0.000000 0.000000 0.000000 0.098007 0.000000 0.000000
# 5 0.000000 0.000000 0.000000 0.000000 0.032719 0.000000
# 6 0.000000 0.000000 0.000000 0.000000 0.000000 0.082492
#
#
# Mechanical properties :
#
#
# Convention : Reuss Voigt Hill
#
# Bulk Modulus (GPa) = 53.09244 69.81620 61.45432
# Shear Modulus (GPa) = 17.75092 24.26109 21.00601
#
# Velocity S-wave (km/s) = 2.95298 3.45228 3.21235
# Velocity P-wave (km/s) = 6.14072 7.08436 6.62935
#
# Compressibility (1/GPa) = 0.01883507
#
# Stress axis : x y z
#
# Youngs Moduli (GPa) = 68.03837 58.91647 113.16847
#
# Poissons Ratio (x) = 0.06451 0.43424
# Poissons Ratio (y) = 0.07450 0.66815
# Poissons Ratio (z) = 0.26107 0.34784
#
# Static dielectric constant tensor:
#      x y z
#    x 3.471480 0.000000 0.000000 
#    y 0.000000 3.502080 0.000000 
#    z 0.000000 0.000000 4.305100 
# 
# 
# High freq. dielectric constant tensor:
#      x y z
#    x 1.778080 0.000000 0.000000 
#    y 0.000000 1.765320 0.000000 
#    z 0.000000 0.000000 1.812190 
# 
# From -- ./inp_files/47836.got.cif
#   From: 2010.03.12/outbox.cif.g09.slc.cpg/sg64_24_cif.got.tgz:47836.got - 2010.04.10 20:19:32.
