data_PCOD8261675
_publ_section_title
;
Structure prediction by ZEFSAII (Michael W. Deem and Ramdas Pophale) SiO2 
 PCOD8261675
Probable space group: C M C A
;
_chemical_formula_sum "Si O2"
_cell_formula_units_Z 112
_cell_length_a 9.048800
_cell_length_b 29.839806
_cell_length_c 22.613680
_cell_angle_alpha 90.000000
_cell_angle_beta 90.000000
_cell_angle_gamma 90.000000
_cell_volume 6106.020063
_symmetry_space_group_name_H-M "C M C A"
_symmetry_group_IT_number 64
_symmetry_cell_setting 'orthorhombic'
loop_
_space_group_symop_operation_xyz
x,y,z
-x,1/2-y,1/2+z
x,-y,-z
-x,1/2+y,1/2-z
-x,-y,-z
x,1/2+y,1/2-z
-x,y,z
x,1/2-y,1/2+z
1/2+x,1/2+y,z
1/2-x,-y,1/2+z
1/2+x,1/2-y,-z
1/2-x,y,1/2-z
1/2-x,1/2-y,-z
1/2+x,y,1/2-z
1/2-x,1/2+y,z
1/2+x,-y,1/2+z
loop_
_atom_site_type_symbol
_atom_site_label
_atom_site_fract_x
_atom_site_fract_y
_atom_site_fract_z
Si Si1 0.331730 0.705978 0.981181
Si Si2 0.823797 0.903446 0.190356
Si Si3 0.824560 0.288148 0.810047
Si Si4 0.324691 0.442493 0.948419
Si Si5 0.324979 0.808390 0.351919
Si Si6 0.675497 0.959550 0.421554
Si Si7 0.169916 0.650474 0.403992
O O1 0.500000 0.720347 0.971675
O O2 0.266385 0.688159 0.919221
O O3 0.250000 0.750000 0.000000
O O4 0.314668 0.667531 0.029243
O O5 0.750000 0.922590 0.250000
O O6 0.767540 0.852099 0.182649
O O7 0.762913 0.932173 0.134681
O O8 0.000000 0.906769 0.195418
O O9 0.750000 0.305160 0.750000
O O10 0.766069 0.237753 0.823042
O O11 0.724560 0.321539 0.638371
O O12 0.000000 0.289987 0.804350
O O13 0.500000 0.441100 0.953112
O O14 0.272967 0.488498 0.917016
O O15 0.272493 0.400870 0.907683
O O16 0.263703 0.439694 0.016089
O O17 0.500000 0.808622 0.350962
O O18 0.500000 0.956244 0.421058
O O19 0.000000 0.654213 0.381984
#
# Coordination Sequence:
#
# PCOD8261675 Si02
#       7
#    16  16  16  16  16  16  16
#     4  10  18  30  48  73 101 129 160 200 246 291
#     4  10  19  32  50  73 100 132 166 203 246 294
#     4  11  22  36  51  67  95 133 172 209 243 289
#     4   8  14  27  50  79 102 124 160 205 249 296
#     4   9  18  32  50  71  98 131 165 201 245 292
#     4   8  14  27  50  77 102 127 160 203 248 293
#     4  10  19  31  51  77 103 129 162 204 248 296
#
# _framework density 18.342554
#
# number of rings (size 3 to 8) (size 9 to 14) (size 15 to 20)
#    0.000    2.571    1.429    2.571    0.000    3.429 
#    0.000    2.143    0.000    5.143    0.000    2.000 
#    0.000    0.000    0.000    0.000    0.000    0.000 
#
# Total GULP energy -694122.582503 kJ/mol
# GULP energy per Si atom -12395.046116 kJ/mol
# Density = 1.830081 g / cm^3
# Si number density = 18.342554 Si / 1000 Ang^3
#
#
#
# Elastic Constant Matrix: (Units=GPa)
#
#
# Indices 1 2 3 4 5 6 
#
# 1 34.5894 23.6243 26.5362 0.0000 0.0000 0.0000
# 2 23.6243 126.7615 50.8556 0.0000 0.0000 0.0000
# 3 26.5362 50.8556 115.6037 0.0000 0.0000 0.0000
# 4 0.0000 0.0000 0.0000 25.3675 0.0000 0.0000
# 5 0.0000 0.0000 0.0000 0.0000 24.2246 0.0000
# 6 0.0000 0.0000 0.0000 0.0000 0.0000 15.8164
#
#
#
# Elastic Compliance Matrix: (Units=1/GPa)
#
#
# Indices 1 2 3 4 5 6 
#
# 1 0.036860 -0.004220 -0.006605 0.000000 0.000000 0.000000
# 2 -0.004220 0.010063 -0.003458 0.000000 0.000000 0.000000
# 3 -0.006605 -0.003458 0.011688 0.000000 0.000000 0.000000
# 4 0.000000 0.000000 0.000000 0.039420 0.000000 0.000000
# 5 0.000000 0.000000 0.000000 0.000000 0.041280 0.000000
# 6 0.000000 0.000000 0.000000 0.000000 0.000000 0.063226
#
#
# Mechanical properties :
#
#
# Convention : Reuss Voigt Hill
#
# Bulk Modulus (GPa) = 33.28353 53.22076 43.25214
# Shear Modulus (GPa) = 20.73693 24.81093 22.77393
#
# Velocity S-wave (km/s) = 3.36599 3.68182 3.52744
# Velocity P-wave (km/s) = 5.76988 6.86675 6.34207
#
# Compressibility (1/GPa) = 0.03004489
#
# Stress axis : x y z
#
# Youngs Moduli (GPa) = 27.13005 99.37790 85.56131
#
# Poissons Ratio (x) = 0.41935 0.56510
# Poissons Ratio (y) = 0.11448 0.29588
# Poissons Ratio (z) = 0.17918 0.34365
#
# Static dielectric constant tensor:
#      x y z
#    x 2.873270 0.000000 0.000000 
#    y 0.000000 4.007040 0.000000 
#    z 0.000000 0.000000 3.388750 
# 
# 
# High freq. dielectric constant tensor:
#      x y z
#    x 1.659980 0.000000 0.000000 
#    y 0.000000 1.715710 0.000000 
#    z 0.000000 0.000000 1.714540 
# 
# From -- ./inp_files/38576.got.cif
#   From: 2010.03.12/outbox.cif.g09.slc.cpg/sg64_20_cif.got.tgz:38576.got - 2010.04.10 20:19:32.
