data_PCOD8261897
_publ_section_title
;
Structure prediction by ZEFSAII (Michael W. Deem and Ramdas Pophale) SiO2 
 PCOD8261897
Probable space group: C M C A
;
_chemical_formula_sum "Si O2"
_cell_formula_units_Z 80
_cell_length_a 23.494172
_cell_length_b 17.544020
_cell_length_c 10.052393
_cell_angle_alpha 90.000000
_cell_angle_beta 90.000000
_cell_angle_gamma 90.000000
_cell_volume 4143.417698
_symmetry_space_group_name_H-M "C M C A"
_symmetry_group_IT_number 64
_symmetry_cell_setting 'orthorhombic'
loop_
_space_group_symop_operation_xyz
x,y,z
-x,1/2-y,1/2+z
x,-y,-z
-x,1/2+y,1/2-z
-x,-y,-z
x,1/2+y,1/2-z
-x,y,z
x,1/2-y,1/2+z
1/2+x,1/2+y,z
1/2-x,-y,1/2+z
1/2+x,1/2-y,-z
1/2-x,y,1/2-z
1/2-x,1/2-y,-z
1/2+x,y,1/2-z
1/2-x,1/2+y,z
1/2+x,-y,1/2+z
loop_
_atom_site_type_symbol
_atom_site_label
_atom_site_fract_x
_atom_site_fract_y
_atom_site_fract_z
Si Si1 0.603056 0.452330 0.868218
Si Si2 0.185855 0.653101 0.475721
Si Si3 0.000000 0.338133 0.627190
Si Si4 0.886332 0.391456 0.269103
Si Si5 0.791233 0.315707 0.125688
Si Si6 0.000000 0.694132 0.685680
O O1 0.555097 0.389490 0.846674
O O2 0.605297 0.517253 0.755584
O O3 0.588396 0.500000 0.000000
O O4 0.665029 0.409971 0.868837
O O5 0.142617 0.639140 0.596531
O O6 0.178879 0.738407 0.422411
O O7 0.252172 0.643018 0.514235
O O8 0.000000 0.276526 0.745337
O O9 0.000000 0.302773 0.476870
O O10 0.843593 0.371525 0.150241
O O11 0.946272 0.350483 0.256186
O O12 0.750000 0.297442 0.250000
#
# Coordination Sequence:
#
# PCOD8261897 Si02
#       6
#    16  16   8  16  16   8
#     4  10  18  34  57  84 113 151 202 241 287 353
#     4   9  17  32  54  79 112 147 191 240 289 351
#     4  12  22  37  60  93 115 153 205 247 295 357
#     4  10  20  33  57  86 113 150 196 247 286 353
#     4   9  18  33  52  83 112 149 188 242 297 340
#     4  12  23  36  61  94 113 157 197 251 293 354
#
# _framework density 19.307732999999999
#
# number of rings (size 3 to 8) (size 9 to 14) (size 15 to 20)
#    0.000    2.000    4.000    2.100    0.000    0.000 
#    0.000    7.000    0.000    4.800    0.000    0.000 
#    0.000    0.000    0.000    0.000    0.000    0.000 
#
# Total GULP energy -495619.084052 kJ/mol
# GULP energy per Si atom -12390.477101 kJ/mol
# Density = 1.926379 g / cm^3
# Si number density = 19.307733 Si / 1000 Ang^3
#
#
#
# Elastic Constant Matrix: (Units=GPa)
#
#
# Indices 1 2 3 4 5 6 
#
# 1 130.3482 95.4375 38.3152 0.0000 0.0000 0.0000
# 2 95.4375 173.6517 54.1491 0.0000 0.0000 0.0000
# 3 38.3152 54.1491 45.9003 0.0000 0.0000 0.0000
# 4 0.0000 0.0000 0.0000 38.3258 0.0000 0.0000
# 5 0.0000 0.0000 0.0000 0.0000 18.0447 0.0000
# 6 0.0000 0.0000 0.0000 0.0000 0.0000 36.7723
#
#
#
# Elastic Compliance Matrix: (Units=1/GPa)
#
#
# Indices 1 2 3 4 5 6 
#
# 1 0.013267 -0.006072 -0.003912 0.000000 0.000000 0.000000
# 2 -0.006072 0.011889 -0.008957 0.000000 0.000000 0.000000
# 3 -0.003912 -0.008957 0.035618 0.000000 0.000000 0.000000
# 4 0.000000 0.000000 0.000000 0.026092 0.000000 0.000000
# 5 0.000000 0.000000 0.000000 0.000000 0.055418 0.000000
# 6 0.000000 0.000000 0.000000 0.000000 0.000000 0.027194
#
#
# Mechanical properties :
#
#
# Convention : Reuss Voigt Hill
#
# Bulk Modulus (GPa) = 43.68107 80.63374 62.15741
# Shear Modulus (GPa) = 23.25692 29.42846 26.34269
#
# Velocity S-wave (km/s) = 3.47441 3.90831 3.69773
# Velocity P-wave (km/s) = 6.22640 7.88794 7.10590
#
# Compressibility (1/GPa) = 0.02289321
#
# Stress axis : x y z
#
# Youngs Moduli (GPa) = 75.37401 84.11475 28.07566
#
# Poissons Ratio (x) = 0.51072 0.10983
# Poissons Ratio (y) = 0.45765 0.25146
# Poissons Ratio (z) = 0.29486 0.75339
#
# Static dielectric constant tensor:
#      x y z
#    x 3.756940 0.000000 0.000000 
#    y 0.000000 4.030170 0.000000 
#    z 0.000000 0.000000 3.426590 
# 
# 
# High freq. dielectric constant tensor:
#      x y z
#    x 1.766090 0.000000 0.000000 
#    y 0.000000 1.756750 0.000000 
#    z 0.000000 0.000000 1.710180 
# 
# From -- ./inp_files/17082.got.cif
#   From: 2010.03.12/outbox.cif.g09.slc.cpg/sg64_9_cif.got.tgz:17082.got - 2010.04.10 20:19:32.
