data_PCOD8261882
_publ_section_title
;
Structure prediction by ZEFSAII (Michael W. Deem and Ramdas Pophale) SiO2 
 PCOD8261882
Probable space group: C M C A
;
_chemical_formula_sum "Si O2"
_cell_formula_units_Z 128
_cell_length_a 17.000046
_cell_length_b 17.096498
_cell_length_c 21.254260
_cell_angle_alpha 90.000000
_cell_angle_beta 90.000000
_cell_angle_gamma 90.000000
_cell_volume 6177.364746
_symmetry_space_group_name_H-M "C M C A"
_symmetry_group_IT_number 64
_symmetry_cell_setting 'orthorhombic'
loop_
_space_group_symop_operation_xyz
x,y,z
-x,1/2-y,1/2+z
x,-y,-z
-x,1/2+y,1/2-z
-x,-y,-z
x,1/2+y,1/2-z
-x,y,z
x,1/2-y,1/2+z
1/2+x,1/2+y,z
1/2-x,-y,1/2+z
1/2+x,1/2-y,-z
1/2-x,y,1/2-z
1/2-x,1/2-y,-z
1/2+x,y,1/2-z
1/2-x,1/2+y,z
1/2+x,-y,1/2+z
loop_
_atom_site_type_symbol
_atom_site_label
_atom_site_fract_x
_atom_site_fract_y
_atom_site_fract_z
Si Si1 0.681132 0.900883 0.205071
Si Si2 0.914411 0.897989 0.610598
Si Si3 0.092138 0.789981 0.384718
Si Si4 0.668686 0.865601 0.643266
Si Si5 0.412314 0.541070 0.249356
Si Si6 0.232624 0.494586 0.912313
Si Si7 0.225189 0.650327 0.966569
Si Si8 0.198903 0.778154 0.596647
O O1 0.750000 0.867071 0.250000
O O2 0.628825 0.829352 0.178273
O O3 0.717658 0.953235 0.149646
O O4 0.625615 0.955378 0.248269
O O5 0.916987 0.922448 0.682071
O O6 0.891327 0.805076 0.605313
O O7 0.000000 0.910738 0.579206
O O8 0.846346 0.943860 0.573004
O O9 0.104364 0.695558 0.384544
O O10 0.135872 0.828823 0.444838
O O11 0.000000 0.809540 0.389417
O O12 0.639579 0.899534 0.708900
O O13 0.749026 0.814605 0.653786
O O14 0.690723 0.939766 0.597957
O O15 0.500000 0.533944 0.220542
O O16 0.243085 0.557142 0.969287
O O17 0.286979 0.686025 0.913824
O O18 0.241815 0.683523 0.035130
#
# Coordination Sequence:
#
# PCOD8261882 Si02
#       8
#    16  16  16  16  16  16  16  16
#     4  10  18  34  52  79 108 142 184 213 263 319
#     4   9  19  32  50  78 111 141 173 221 278 330
#     4  10  21  36  54  81 111 141 181 228 276 326
#     4  10  19  34  53  77 107 142 182 225 268 326
#     4  10  19  33  53  76 110 145 175 220 274 326
#     4   9  18  32  54  78 104 138 180 222 264 326
#     4   9  19  36  55  79 108 142 186 232 274 320
#     4   9  19  35  55  79 107 146 188 227 274 329
#
# _framework density 20.72081
#
# number of rings (size 3 to 8) (size 9 to 14) (size 15 to 20)
#    0.000    2.500    1.250    0.750    0.000    5.500 
#   11.250    0.625    0.000    1.500    0.000   14.000 
#    0.000    0.000    0.000    0.000    0.000    0.000 
#
# Total GULP energy -792871.586273 kJ/mol
# GULP energy per Si atom -12388.618536 kJ/mol
# Density = 2.067365 g / cm^3
# Si number density = 20.720810 Si / 1000 Ang^3
#
#
#
# Elastic Constant Matrix: (Units=GPa)
#
#
# Indices 1 2 3 4 5 6 
#
# 1 97.0073 52.0867 16.7585 0.0000 0.0000 0.0000
# 2 52.0867 116.7958 10.4429 0.0000 0.0000 0.0000
# 3 16.7585 10.4429 8.0246 0.0000 0.0000 0.0000
# 4 0.0000 0.0000 0.0000 33.6185 0.0000 0.0000
# 5 0.0000 0.0000 0.0000 0.0000 21.2061 0.0000
# 6 0.0000 0.0000 0.0000 0.0000 0.0000 26.9734
#
#
#
# Elastic Compliance Matrix: (Units=1/GPa)
#
#
# Indices 1 2 3 4 5 6 
#
# 1 0.018823 -0.005522 -0.032124 0.000000 0.000000 0.000000
# 2 -0.005522 0.011309 -0.003185 0.000000 0.000000 0.000000
# 3 -0.032124 -0.003185 0.195850 0.000000 0.000000 0.000000
# 4 0.000000 0.000000 0.000000 0.029746 0.000000 0.000000
# 5 0.000000 0.000000 0.000000 0.000000 0.047156 0.000000
# 6 0.000000 0.000000 0.000000 0.000000 0.000000 0.037074
#
#
# Mechanical properties :
#
#
# Convention : Reuss Voigt Hill
#
# Bulk Modulus (GPa) = 6.92904 42.26710 24.59807
# Shear Modulus (GPa) = 10.64449 25.86226 18.25337
#
# Velocity S-wave (km/s) = 2.26898 3.53672 2.97125
# Velocity P-wave (km/s) = 3.19618 6.09266 4.86498
#
# Compressibility (1/GPa) = 0.14432013
#
# Stress axis : x y z
#
# Youngs Moduli (GPa) = 53.12622 88.42169 5.10595
#
# Poissons Ratio (x) = 0.48828 0.16402
# Poissons Ratio (y) = 0.29337 0.01626
# Poissons Ratio (z) = 1.70661 0.28164
#
# Static dielectric constant tensor:
#      x y z
#    x 3.880310 0.000000 0.000000 
#    y 0.000000 4.259770 0.000000 
#    z 0.000000 0.000000 3.653000 
# 
# 
# High freq. dielectric constant tensor:
#      x y z
#    x 1.786230 0.000000 0.000000 
#    y 0.000000 1.820840 0.000000 
#    z 0.000000 0.000000 1.798300 
# 
# From -- ./inp_files/46000.got.cif
#   From: 2010.03.12/outbox.cif.g09.slc.cpg/sg64_23_cif.got.tgz:46000.got - 2010.04.10 20:19:32.
