data_PCOD8261668
_publ_section_title
;
Structure prediction by ZEFSAII (Michael W. Deem and Ramdas Pophale) SiO2 
 PCOD8261668
Probable space group: C M C A
;
_chemical_formula_sum "Si O2"
_cell_formula_units_Z 96
_cell_length_a 8.642623
_cell_length_b 27.278781
_cell_length_c 23.867297
_cell_angle_alpha 90.000000
_cell_angle_beta 90.000000
_cell_angle_gamma 90.000000
_cell_volume 5626.959193
_symmetry_space_group_name_H-M "C M C A"
_symmetry_group_IT_number 64
_symmetry_cell_setting 'orthorhombic'
loop_
_space_group_symop_operation_xyz
x,y,z
-x,1/2-y,1/2+z
x,-y,-z
-x,1/2+y,1/2-z
-x,-y,-z
x,1/2+y,1/2-z
-x,y,z
x,1/2-y,1/2+z
1/2+x,1/2+y,z
1/2-x,-y,1/2+z
1/2+x,1/2-y,-z
1/2-x,y,1/2-z
1/2-x,1/2-y,-z
1/2+x,y,1/2-z
1/2-x,1/2+y,z
1/2+x,-y,1/2+z
loop_
_atom_site_type_symbol
_atom_site_label
_atom_site_fract_x
_atom_site_fract_y
_atom_site_fract_z
Si Si1 0.179976 0.822499 0.483269
Si Si2 0.179667 0.772128 0.914040
Si Si3 0.683161 0.075595 0.526895
Si Si4 0.316143 0.077021 0.308754
Si Si5 0.817029 0.978440 0.916570
Si Si6 0.182083 0.183359 0.308279
O O1 0.220919 0.781674 0.437044
O O2 0.274425 0.812875 0.540169
O O3 0.229113 0.874516 0.457663
O O4 0.000000 0.821178 0.498336
O O5 0.276828 0.778850 0.857413
O O6 0.000000 0.778317 0.900062
O O7 0.500000 0.084644 0.527971
O O8 0.741903 0.057037 0.466175
O O9 0.733914 0.034654 0.572638
O O10 0.500000 0.078136 0.306031
O O11 0.250000 0.057524 0.250000
O O12 0.253661 0.040464 0.356994
O O13 0.256553 0.131087 0.322728
O O14 0.000000 0.976034 0.918031
O O15 0.250000 0.203972 0.250000
O O16 0.000000 0.177088 0.302257
#
# Coordination Sequence:
#
# PCOD8261668 Si02
#       6
#    16  16  16  16  16  16
#     4  10  20  32  48  73 100 125 157 197 241 285
#     4  10  20  34  50  69  97 130 161 195 236 283
#     4   9  16  30  50  69  91 122 158 194 236 282
#     4  10  18  30  47  69  97 127 158 191 231 278
#     4   8  16  29  47  69  92 122 158 193 231 279
#     4  11  21  33  50  73  99 126 159 196 238 285
#
# _framework density 17.060722999999999
#
# number of rings (size 3 to 8) (size 9 to 14) (size 15 to 20)
#    0.000    2.333    0.000    6.000    0.000    3.333 
#    0.000    4.167    0.000    1.000    0.000    4.667 
#    0.000    0.000    0.000    0.000    0.000    0.000 
#
# Total GULP energy -595213.363296 kJ/mol
# GULP energy per Si atom -12400.278402 kJ/mol
# Density = 1.702189 g / cm^3
# Si number density = 17.060723 Si / 1000 Ang^3
#
#
#
# Elastic Constant Matrix: (Units=GPa)
#
#
# Indices 1 2 3 4 5 6 
#
# 1 62.3428 25.8218 35.1725 0.0000 0.0000 0.0000
# 2 25.8218 103.7011 57.0984 0.0000 0.0000 0.0000
# 3 35.1725 57.0984 127.0361 0.0000 0.0000 0.0000
# 4 0.0000 0.0000 0.0000 27.3961 0.0000 0.0000
# 5 0.0000 0.0000 0.0000 0.0000 26.5897 0.0000
# 6 0.0000 0.0000 0.0000 0.0000 0.0000 25.4708
#
#
#
# Elastic Compliance Matrix: (Units=1/GPa)
#
#
# Indices 1 2 3 4 5 6 
#
# 1 0.019486 -0.002500 -0.004271 0.000000 0.000000 0.000000
# 2 -0.002500 0.013135 -0.005212 0.000000 0.000000 0.000000
# 3 -0.004271 -0.005212 0.011397 0.000000 0.000000 0.000000
# 4 0.000000 0.000000 0.000000 0.036502 0.000000 0.000000
# 5 0.000000 0.000000 0.000000 0.000000 0.037608 0.000000
# 6 0.000000 0.000000 0.000000 0.000000 0.000000 0.039261
#
#
# Mechanical properties :
#
#
# Convention : Reuss Voigt Hill
#
# Bulk Modulus (GPa) = 49.87143 58.80728 54.33935
# Shear Modulus (GPa) = 26.59033 27.55713 27.07373
#
# Velocity S-wave (km/s) = 3.95216 4.02336 3.98792
# Velocity P-wave (km/s) = 7.07963 7.49183 7.28865
#
# Compressibility (1/GPa) = 0.02005156
#
# Stress axis : x y z
#
# Youngs Moduli (GPa) = 51.31983 76.13134 87.74405
#
# Poissons Ratio (x) = 0.19034 0.37477
# Poissons Ratio (y) = 0.12831 0.45729
# Poissons Ratio (z) = 0.21920 0.39677
#
# Static dielectric constant tensor:
#      x y z
#    x 3.081110 0.000000 0.000000 
#    y 0.000000 3.181710 0.000000 
#    z 0.000000 0.000000 3.349740 
# 
# 
# High freq. dielectric constant tensor:
#      x y z
#    x 1.656310 0.000000 0.000000 
#    y 0.000000 1.647000 0.000000 
#    z 0.000000 0.000000 1.650900 
# 
# From -- ./inp_files/43158.got.cif
#   From: 2010.03.12/outbox.cif.g09.slc.cpg/sg64_22_cif.got.tgz:43158.got - 2010.04.10 20:19:32.
