data_PCOD8261222
_publ_section_title
;
Structure prediction by ZEFSAII (Michael W. Deem and Ramdas Pophale) SiO2 
 PCOD8261222
Probable space group: C M C M
;
_chemical_formula_sum "Si O2"
_cell_formula_units_Z 64
_cell_length_a 22.584659
_cell_length_b 7.782579
_cell_length_c 14.615569
_cell_angle_alpha 90.000000
_cell_angle_beta 90.000000
_cell_angle_gamma 90.000000
_cell_volume 2568.933150
_symmetry_space_group_name_H-M "C M C M"
_symmetry_group_IT_number 63
_symmetry_cell_setting 'orthorhombic'
loop_
_space_group_symop_operation_xyz
x,y,z
-x,-y,1/2+z
x,-y,-z
-x,y,1/2-z
-x,-y,-z
x,y,1/2-z
-x,y,z
x,-y,1/2+z
1/2+x,1/2+y,z
1/2-x,1/2-y,1/2+z
1/2+x,1/2-y,-z
1/2-x,1/2+y,1/2-z
1/2-x,1/2-y,-z
1/2+x,1/2+y,1/2-z
1/2-x,1/2+y,z
1/2+x,1/2-y,1/2+z
loop_
_atom_site_type_symbol
_atom_site_label
_atom_site_fract_x
_atom_site_fract_y
_atom_site_fract_z
Si Si1 0.154182 0.660402 0.588763
Si Si2 0.737994 0.142465 0.356400
Si Si3 0.859508 0.143466 0.924451
Si Si4 0.932968 0.182902 0.750000
Si Si5 0.931425 0.411957 0.250000
O O1 0.194492 0.835233 0.607936
O O2 0.199501 0.502994 0.594509
O O3 0.127757 0.681311 0.485747
O O4 0.100765 0.660006 0.660406
O O5 0.736739 0.102579 0.250000
O O6 0.705202 0.326766 0.377944
O O7 0.905684 0.109645 0.843380
O O8 0.866133 0.000000 0.000000
O O9 0.924023 0.385350 0.750000
O O10 0.000000 0.122632 0.750000
O O11 0.000000 0.354380 0.250000
#
# Coordination Sequence:
#
# PCOD8261222 Si02
#       5
#    16  16  16   8   8
#     4  12  24  43  74 112 149 193 247 294 367 447
#     4  12  22  44  71 106 156 195 233 302 372 442
#     4  12  26  45  73 107 150 190 243 303 372 441
#     4  11  26  52  76  99 144 203 250 306 373 426
#     4  11  24  46  76 109 146 193 250 310 359 432
#
# _framework density 24.913063999999999
#
# number of rings (size 3 to 8) (size 9 to 14) (size 15 to 20)
#    0.000    0.250    6.250    3.000    0.000    2.500 
#    0.000    3.750    0.000    0.000    0.000    0.000 
#    0.000    0.000    0.000    0.000    0.000    0.000 
#
# Total GULP energy -396617.398233 kJ/mol
# GULP energy per Si atom -12394.293695 kJ/mol
# Density = 2.485636 g / cm^3
# Si number density = 24.913064 Si / 1000 Ang^3
#
#
#
# Elastic Constant Matrix: (Units=GPa)
#
#
# Indices 1 2 3 4 5 6 
#
# 1 167.0417 35.2833 80.3882 0.0000 0.0000 0.0000
# 2 35.2833 53.0887 43.4918 0.0000 0.0000 0.0000
# 3 80.3882 43.4918 209.8333 0.0000 0.0000 0.0000
# 4 0.0000 0.0000 0.0000 42.8465 0.0000 0.0000
# 5 0.0000 0.0000 0.0000 0.0000 18.7335 0.0000
# 6 0.0000 0.0000 0.0000 0.0000 0.0000 24.4035
#
#
#
# Elastic Compliance Matrix: (Units=1/GPa)
#
#
# Indices 1 2 3 4 5 6 
#
# 1 0.007790 -0.003291 -0.002302 0.000000 0.000000 0.000000
# 2 -0.003291 0.024079 -0.003730 0.000000 0.000000 0.000000
# 3 -0.002302 -0.003730 0.006421 0.000000 0.000000 0.000000
# 4 0.000000 0.000000 0.000000 0.023339 0.000000 0.000000
# 5 0.000000 0.000000 0.000000 0.000000 0.053380 0.000000
# 6 0.000000 0.000000 0.000000 0.000000 0.000000 0.040978
#
#
# Mechanical properties :
#
#
# Convention : Reuss Voigt Hill
#
# Bulk Modulus (GPa) = 50.90796 83.14336 67.02566
# Shear Modulus (GPa) = 27.59669 35.25006 31.42337
#
# Velocity S-wave (km/s) = 3.33185 3.76563 3.55536
# Velocity P-wave (km/s) = 5.93972 7.23550 6.61939
#
# Compressibility (1/GPa) = 0.01964330
#
# Stress axis : x y z
#
# Youngs Moduli (GPa) = 128.37704 41.52910 155.74493
#
# Poissons Ratio (x) = 0.13668 0.35854
# Poissons Ratio (y) = 0.42250 0.58094
# Poissons Ratio (z) = 0.29553 0.15491
#
# Static dielectric constant tensor:
#      x y z
#    x 4.413420 0.000000 0.000000 
#    y 0.000000 5.412810 0.000000 
#    z 0.000000 0.000000 4.946350 
# 
# 
# High freq. dielectric constant tensor:
#      x y z
#    x 1.959620 0.000000 0.000000 
#    y 0.000000 2.020130 0.000000 
#    z 0.000000 0.000000 2.018890 
# 
# From -- ./inp_files/36228.got.cif
#   From: 2010.03.12/outbox.cif.g09.slc.cpg/sg63_19_cif.got.tgz:36228.got - 2010.04.10 19:34:48.
