data_PCOD8261387
_publ_section_title
;
Structure prediction by ZEFSAII (Michael W. Deem and Ramdas Pophale) SiO2 
 PCOD8261387
Probable space group: C M C A
;
_chemical_formula_sum "Si O2"
_cell_formula_units_Z 56
_cell_length_a 17.849132
_cell_length_b 31.135246
_cell_length_c 5.071428
_cell_angle_alpha 90.000000
_cell_angle_beta 90.000000
_cell_angle_gamma 90.000000
_cell_volume 2818.380769
_symmetry_space_group_name_H-M "C M C A"
_symmetry_group_IT_number 64
_symmetry_cell_setting 'orthorhombic'
loop_
_space_group_symop_operation_xyz
x,y,z
-x,1/2-y,1/2+z
x,-y,-z
-x,1/2+y,1/2-z
-x,-y,-z
x,1/2+y,1/2-z
-x,y,z
x,1/2-y,1/2+z
1/2+x,1/2+y,z
1/2-x,-y,1/2+z
1/2+x,1/2-y,-z
1/2-x,y,1/2-z
1/2-x,1/2-y,-z
1/2+x,y,1/2-z
1/2-x,1/2+y,z
1/2+x,-y,1/2+z
loop_
_atom_site_type_symbol
_atom_site_label
_atom_site_fract_x
_atom_site_fract_y
_atom_site_fract_z
Si Si1 0.338013 0.913106 0.715270
Si Si2 0.661241 0.133639 0.781118
Si Si3 0.413902 0.722255 0.610793
Si Si4 0.700295 0.000000 0.500000
O O1 0.250000 0.906591 0.750000
O O2 0.373545 0.881199 0.497610
O O3 0.352005 0.962084 0.617680
O O4 0.371859 0.899456 0.997746
O O5 0.750000 0.131120 0.750000
O O6 0.638828 0.181720 0.849123
O O7 0.500000 0.707519 0.634531
O O8 0.395230 0.741634 0.326338
O O9 0.750000 0.017376 0.750000
#
# Coordination Sequence:
#
# PCOD8261387 Si02
#       4
#    16  16  16   8
#     4   9  17  28  44  70 100 128 156 192 235 280
#     4  10  19  31  48  72  99 124 156 198 241 282
#     4  10  21  36  52  70  93 124 163 201 238 287
#     4  10  16  26  44  68 101 134 159 188 234 282
#
# _framework density 19.869565000000001
#
# number of rings (size 3 to 8) (size 9 to 14) (size 15 to 20)
#    0.000    2.286    0.000    6.000    0.000    1.143 
#    0.000    0.000    0.000    0.000    0.000    6.000 
#    0.000    0.000    0.000   17.571    0.000    0.000 
#
# Total GULP energy -346952.354016 kJ/mol
# GULP energy per Si atom -12391.155501 kJ/mol
# Density = 1.982434 g / cm^3
# Si number density = 19.869565 Si / 1000 Ang^3
#
#
#
# Elastic Constant Matrix: (Units=GPa)
#
#
# Indices 1 2 3 4 5 6 
#
# 1 10.4020 15.8698 20.3693 0.0000 0.0000 0.0000
# 2 15.8698 106.5291 29.4552 0.0000 0.0000 0.0000
# 3 20.3693 29.4552 112.6681 0.0000 0.0000 0.0000
# 4 0.0000 0.0000 0.0000 31.9157 0.0000 0.0000
# 5 0.0000 0.0000 0.0000 0.0000 12.0695 0.0000
# 6 0.0000 0.0000 0.0000 0.0000 0.0000 -0.2414
#
#
#
# Elastic Compliance Matrix: (Units=1/GPa)
#
#
# Indices 1 2 3 4 5 6 
#
# 1 0.178751 -0.019072 -0.027330 0.000000 0.000000 0.000000
# 2 -0.019072 0.012153 0.000271 0.000000 0.000000 0.000000
# 3 -0.027330 0.000271 0.013746 0.000000 0.000000 0.000000
# 4 0.000000 0.000000 0.000000 0.031332 0.000000 0.000000
# 5 0.000000 0.000000 0.000000 0.000000 0.082854 0.000000
# 6 0.000000 0.000000 0.000000 0.000000 0.000000 -4.142808
#
#
# Mechanical properties :
#
#
# Convention : Reuss Voigt Hill
#
# Bulk Modulus (GPa) = 8.89782 40.10976 24.50379
# Shear Modulus (GPa) = -1.35346 19.67577 9.16116
#
# Velocity S-wave (km/s) = -0.82623 3.15023 2.14957
# Velocity P-wave (km/s) = 1.89146 5.78466 4.30348
#
# Compressibility (1/GPa) = 0.11238709
#
# Stress axis : x y z
#
# Youngs Moduli (GPa) = 5.59438 82.28128 72.74900
#
# Poissons Ratio (x) = 1.56927 1.98825
# Poissons Ratio (y) = 0.10670 -0.01969
# Poissons Ratio (z) = 0.15290 -0.02227
#
# Static dielectric constant tensor:
#      x y z
#    x 2.951220 0.000000 0.000000 
#    y 0.000000 3.604330 0.000000 
#    z 0.000000 0.000000 4.435440 
# 
# 
# High freq. dielectric constant tensor:
#      x y z
#    x 1.690990 0.000000 0.000000 
#    y 0.000000 1.782880 0.000000 
#    z 0.000000 0.000000 1.811510 
# 
# From -- ./inp_files/1220.got.cif
#   From: 2010.03.12/outbox.cif.g09.slc.cpg/sg64_1_cif.got.tgz:1220.got - 2010.04.10 20:19:32.
