data_PCOD8261917
_publ_section_title
;
Structure prediction by ZEFSAII (Michael W. Deem and Ramdas Pophale) SiO2 
 PCOD8261917
Probable space group: C M C A
;
_chemical_formula_sum "Si O2"
_cell_formula_units_Z 96
_cell_length_a 17.382600
_cell_length_b 17.093381
_cell_length_c 18.224887
_cell_angle_alpha 90.000000
_cell_angle_beta 90.000000
_cell_angle_gamma 90.000000
_cell_volume 5415.113373
_symmetry_space_group_name_H-M "C M C A"
_symmetry_group_IT_number 64
_symmetry_cell_setting 'orthorhombic'
loop_
_space_group_symop_operation_xyz
x,y,z
-x,1/2-y,1/2+z
x,-y,-z
-x,1/2+y,1/2-z
-x,-y,-z
x,1/2+y,1/2-z
-x,y,z
x,1/2-y,1/2+z
1/2+x,1/2+y,z
1/2-x,-y,1/2+z
1/2+x,1/2-y,-z
1/2-x,y,1/2-z
1/2-x,1/2-y,-z
1/2+x,y,1/2-z
1/2-x,1/2+y,z
1/2+x,-y,1/2+z
loop_
_atom_site_type_symbol
_atom_site_label
_atom_site_fract_x
_atom_site_fract_y
_atom_site_fract_z
Si Si1 0.089988 0.085589 0.327707
Si Si2 0.312836 0.785754 0.103909
Si Si3 0.689831 0.673464 0.442701
Si Si4 0.410871 0.647676 0.167977
Si Si5 0.314290 0.042440 0.429554
Si Si6 0.207554 0.550934 0.826512
O O1 0.121634 0.139120 0.393505
O O2 0.107591 0.131580 0.252881
O O3 0.000000 0.070990 0.339868
O O4 0.130658 0.001411 0.326232
O O5 0.226491 0.750212 0.096241
O O6 0.368660 0.725796 0.143997
O O7 0.314192 0.860343 0.156496
O O8 0.344861 0.805629 0.022431
O O9 0.758987 0.612594 0.454348
O O10 0.500000 0.659323 0.153354
O O11 0.382907 0.573467 0.120975
O O12 0.351264 0.000000 0.500000
O O13 0.265227 0.977510 0.388435
O O14 0.250000 0.543708 0.750000
#
# Coordination Sequence:
#
# PCOD8261917 Si02
#       6
#    16  16  16  16  16  16
#     4  10  22  39  57  79 113 152 187 228 282 337
#     4  10  21  35  58  86 110 142 185 233 279 328
#     4   9  20  36  57  83 113 142 182 231 279 332
#     4  10  22  38  54  79 118 155 183 220 278 343
#     4  10  18  35  59  82 111 142 186 230 273 326
#     4  11  21  35  60  86 106 142 188 239 274 323
#
# _framework density 17.728161
#
# number of rings (size 3 to 8) (size 9 to 14) (size 15 to 20)
#    0.000    2.000    3.333    0.000    2.333    1.667 
#    0.000    0.833    0.000    0.000    0.000    0.000 
#    0.000    0.000    0.000    0.000    0.000    0.000 
#
# Total GULP energy -595265.172931 kJ/mol
# GULP energy per Si atom -12401.357769 kJ/mol
# Density = 1.768781 g / cm^3
# Si number density = 17.728161 Si / 1000 Ang^3
#
#
#
# Elastic Constant Matrix: (Units=GPa)
#
#
# Indices 1 2 3 4 5 6 
#
# 1 69.9781 43.0644 40.8552 0.0000 0.0000 0.0000
# 2 43.0644 93.4677 35.5905 0.0000 0.0000 0.0000
# 3 40.8552 35.5905 75.4668 0.0000 0.0000 0.0000
# 4 0.0000 0.0000 0.0000 64.6419 0.0000 0.0000
# 5 0.0000 0.0000 0.0000 0.0000 23.6876 0.0000
# 6 0.0000 0.0000 0.0000 0.0000 0.0000 17.4354
#
#
#
# Elastic Compliance Matrix: (Units=1/GPa)
#
#
# Indices 1 2 3 4 5 6 
#
# 1 0.024706 -0.007667 -0.009759 0.000000 0.000000 0.000000
# 2 -0.007667 0.015420 -0.003121 0.000000 0.000000 0.000000
# 3 -0.009759 -0.003121 0.020006 0.000000 0.000000 0.000000
# 4 0.000000 0.000000 0.000000 0.015470 0.000000 0.000000
# 5 0.000000 0.000000 0.000000 0.000000 0.042216 0.000000
# 6 0.000000 0.000000 0.000000 0.000000 0.000000 0.057355
#
#
# Mechanical properties :
#
#
# Convention : Reuss Voigt Hill
#
# Bulk Modulus (GPa) = 52.52953 53.10365 52.81659
# Shear Modulus (GPa) = 22.46036 29.11314 25.78675
#
# Velocity S-wave (km/s) = 3.56326 4.05680 3.81801
# Velocity P-wave (km/s) = 6.82817 7.20853 7.02093
#
# Compressibility (1/GPa) = 0.01903691
#
# Stress axis : x y z
#
# Youngs Moduli (GPa) = 40.47564 64.85085 49.98425
#
# Poissons Ratio (x) = 0.49721 0.48781
# Poissons Ratio (y) = 0.31033 0.15602
# Poissons Ratio (z) = 0.39501 0.20243
#
# Static dielectric constant tensor:
#      x y z
#    x 3.068560 0.000000 0.000000 
#    y 0.000000 3.390380 0.000000 
#    z 0.000000 0.000000 3.239990 
# 
# 
# High freq. dielectric constant tensor:
#      x y z
#    x 1.663820 0.000000 0.000000 
#    y 0.000000 1.694970 0.000000 
#    z 0.000000 0.000000 1.701280 
# 
# From -- ./inp_files/33314.got.cif
#   From: 2010.03.12/outbox.cif.g09.slc.cpg/sg64_17_cif.got.tgz:33314.got - 2010.04.10 20:19:32.
