data_PCOD8261209
_publ_section_title
;
Structure prediction by ZEFSAII (Michael W. Deem and Ramdas Pophale) SiO2 
 PCOD8261209
Probable space group: C M C M
;
_chemical_formula_sum "Si O2"
_cell_formula_units_Z 64
_cell_length_a 14.902166
_cell_length_b 11.524200
_cell_length_c 18.263555
_cell_angle_alpha 90.000000
_cell_angle_beta 90.000000
_cell_angle_gamma 90.000000
_cell_volume 3136.501506
_symmetry_space_group_name_H-M "C M C M"
_symmetry_group_IT_number 63
_symmetry_cell_setting 'orthorhombic'
loop_
_space_group_symop_operation_xyz
x,y,z
-x,-y,1/2+z
x,-y,-z
-x,y,1/2-z
-x,-y,-z
x,y,1/2-z
-x,y,z
x,-y,1/2+z
1/2+x,1/2+y,z
1/2-x,1/2-y,1/2+z
1/2+x,1/2-y,-z
1/2-x,1/2+y,1/2-z
1/2-x,1/2-y,-z
1/2+x,1/2+y,1/2-z
1/2-x,1/2+y,z
1/2+x,1/2-y,1/2+z
loop_
_atom_site_type_symbol
_atom_site_label
_atom_site_fract_x
_atom_site_fract_y
_atom_site_fract_z
Si Si1 0.858742 0.258313 0.077730
Si Si2 0.898174 0.523394 0.667717
Si Si3 0.000000 0.061198 0.078232
Si Si4 0.155218 0.307298 0.913962
Si Si5 0.500000 0.331376 0.163540
O O1 0.895900 0.346665 0.137564
O O2 0.910195 0.137106 0.086703
O O3 0.753786 0.244980 0.091463
O O4 0.878598 0.309920 0.997414
O O5 0.859067 0.522391 0.750000
O O6 0.840645 0.437994 0.616732
O O7 0.000000 0.477497 0.667777
O O8 0.000000 0.966250 0.141967
O O9 0.000000 0.000000 0.000000
O O10 0.089664 0.227942 0.866565
O O11 0.500000 0.319341 0.250000
#
# Coordination Sequence:
#
# PCOD8261209 Si02
#       5
#    16  16   8  16   8
#     4  11  25  43  71  98 135 176 230 276 339 404
#     4  11  24  42  66  98 134 172 221 278 340 400
#     4  12  24  45  69  98 137 182 222 280 335 414
#     4  11  24  43  70 101 130 176 228 285 333 407
#     4  12  26  45  69  99 137 182 226 280 349 405
#
# _framework density 20.404899
#
# number of rings (size 3 to 8) (size 9 to 14) (size 15 to 20)
#    0.000    0.750    5.000    1.500    3.500    4.000 
#    0.000    0.000    0.000    0.000    0.000    0.000 
#    0.000    0.000    0.000    0.000    0.000    0.000 
#
# Total GULP energy -397022.285518 kJ/mol
# GULP energy per Si atom -12406.946422 kJ/mol
# Density = 2.035846 g / cm^3
# Si number density = 20.404899 Si / 1000 Ang^3
#
#
#
# Elastic Constant Matrix: (Units=GPa)
#
#
# Indices 1 2 3 4 5 6 
#
# 1 101.8086 36.0707 52.6450 0.0000 0.0000 0.0000
# 2 36.0707 130.7679 60.4096 0.0000 0.0000 0.0000
# 3 52.6450 60.4096 136.6905 0.0000 0.0000 0.0000
# 4 0.0000 0.0000 0.0000 34.5383 0.0000 0.0000
# 5 0.0000 0.0000 0.0000 0.0000 25.7880 0.0000
# 6 0.0000 0.0000 0.0000 0.0000 0.0000 25.4615
#
#
#
# Elastic Compliance Matrix: (Units=1/GPa)
#
#
# Indices 1 2 3 4 5 6 
#
# 1 0.012507 -0.001539 -0.004137 0.000000 0.000000 0.000000
# 2 -0.001539 0.009798 -0.003738 0.000000 0.000000 0.000000
# 3 -0.004137 -0.003738 0.010561 0.000000 0.000000 0.000000
# 4 0.000000 0.000000 0.000000 0.028953 0.000000 0.000000
# 5 0.000000 0.000000 0.000000 0.000000 0.038778 0.000000
# 6 0.000000 0.000000 0.000000 0.000000 0.000000 0.039275
#
#
# Mechanical properties :
#
#
# Convention : Reuss Voigt Hill
#
# Bulk Modulus (GPa) = 71.22812 74.16861 72.69836
# Shear Modulus (GPa) = 30.60388 31.83366 31.21877
#
# Velocity S-wave (km/s) = 3.87697 3.95409 3.91572
# Velocity P-wave (km/s) = 7.41784 7.56795 7.49327
#
# Compressibility (1/GPa) = 0.01403940
#
# Stress axis : x y z
#
# Youngs Moduli (GPa) = 79.95751 102.05928 94.68939
#
# Poissons Ratio (x) = 0.15705 0.39171
# Poissons Ratio (y) = 0.12304 0.35391
# Poissons Ratio (z) = 0.33076 0.38146
#
# Static dielectric constant tensor:
#      x y z
#    x 3.534760 0.000000 0.000000 
#    y 0.000000 3.728480 0.000000 
#    z 0.000000 0.000000 3.849940 
# 
# 
# High freq. dielectric constant tensor:
#      x y z
#    x 1.800860 0.000000 0.000000 
#    y 0.000000 1.807110 0.000000 
#    z 0.000000 0.000000 1.805070 
# 
# From -- ./inp_files/33428.got.cif
#   From: 2010.03.12/outbox.cif.g09.slc.cpg/sg63_17_cif.got.tgz:33428.got - 2010.04.10 19:34:48.
