data_PCOD8261899
_publ_section_title
;
Structure prediction by ZEFSAII (Michael W. Deem and Ramdas Pophale) SiO2 
 PCOD8261899
Probable space group: C M C A
;
_chemical_formula_sum "Si O2"
_cell_formula_units_Z 88
_cell_length_a 15.567809
_cell_length_b 18.483299
_cell_length_c 17.024406
_cell_angle_alpha 90.000000
_cell_angle_beta 90.000000
_cell_angle_gamma 90.000000
_cell_volume 4898.678656
_symmetry_space_group_name_H-M "C M C A"
_symmetry_group_IT_number 64
_symmetry_cell_setting 'orthorhombic'
loop_
_space_group_symop_operation_xyz
x,y,z
-x,1/2-y,1/2+z
x,-y,-z
-x,1/2+y,1/2-z
-x,-y,-z
x,1/2+y,1/2-z
-x,y,z
x,1/2-y,1/2+z
1/2+x,1/2+y,z
1/2-x,-y,1/2+z
1/2+x,1/2-y,-z
1/2-x,y,1/2-z
1/2-x,1/2-y,-z
1/2+x,y,1/2-z
1/2-x,1/2+y,z
1/2+x,-y,1/2+z
loop_
_atom_site_type_symbol
_atom_site_label
_atom_site_fract_x
_atom_site_fract_y
_atom_site_fract_z
Si Si1 0.401799 0.460900 0.082846
Si Si2 0.750000 0.703581 0.750000
Si Si3 0.319679 0.417699 0.816057
Si Si4 0.799451 0.329747 0.927286
Si Si5 0.404397 0.311903 0.711192
Si Si6 0.231912 0.338145 0.414496
O O1 0.500000 0.446800 0.107496
O O2 0.354873 0.508502 0.148440
O O3 0.354670 0.384275 0.077962
O O4 0.396373 0.500000 0.000000
O O5 0.666741 0.751539 0.769278
O O6 0.728916 0.654094 0.673612
O O7 0.250000 0.437312 0.750000
O O8 0.281465 0.365307 0.882841
O O9 0.398514 0.375064 0.775746
O O10 0.885064 0.345740 0.875897
O O11 0.791839 0.243880 0.931686
O O12 0.800462 0.361439 0.016869
O O13 0.500000 0.278782 0.712773
#
# Coordination Sequence:
#
# PCOD8261899 Si02
#       6
#    16   8  16  16  16  16
#     4  11  23  35  53  87 120 149 191 244 295 348
#     4  10  20  36  56  86 116 148 188 240 296 344
#     4  10  18  36  56  83 113 155 194 230 284 345
#     4   9  18  35  57  77 107 149 197 228 278 338
#     4  10  18  34  59  83 113 145 191 244 280 334
#     4  10  19  35  56  77 113 152 181 235 287 342
#
# _framework density 17.964027000000002
#
# number of rings (size 3 to 8) (size 9 to 14) (size 15 to 20)
#    0.000    2.000    6.364    0.545    1.273    2.909 
#    0.000    0.909    0.000    0.000    0.000    2.545 
#    0.000    0.000    0.000    0.000    0.000    0.000 
#
# Total GULP energy -545111.080782 kJ/mol
# GULP energy per Si atom -12388.888200 kJ/mol
# Density = 1.792314 g / cm^3
# Si number density = 17.964027 Si / 1000 Ang^3
#
#
#
# Elastic Constant Matrix: (Units=GPa)
#
#
# Indices 1 2 3 4 5 6 
#
# 1 114.1538 23.7354 53.8400 0.0000 0.0000 0.0000
# 2 23.7354 46.6976 33.4050 0.0000 0.0000 0.0000
# 3 53.8400 33.4050 156.0501 0.0000 0.0000 0.0000
# 4 0.0000 0.0000 0.0000 18.6333 0.0000 0.0000
# 5 0.0000 0.0000 0.0000 0.0000 14.1297 0.0000
# 6 0.0000 0.0000 0.0000 0.0000 0.0000 5.2167
#
#
#
# Elastic Compliance Matrix: (Units=1/GPa)
#
#
# Indices 1 2 3 4 5 6 
#
# 1 0.010892 -0.003363 -0.003038 0.000000 0.000000 0.000000
# 2 -0.003363 0.026325 -0.004475 0.000000 0.000000 0.000000
# 3 -0.003038 -0.004475 0.008414 0.000000 0.000000 0.000000
# 4 0.000000 0.000000 0.000000 0.053667 0.000000 0.000000
# 5 0.000000 0.000000 0.000000 0.000000 0.070773 0.000000
# 6 0.000000 0.000000 0.000000 0.000000 0.000000 0.191692
#
#
# Mechanical properties :
#
#
# Convention : Reuss Voigt Hill
#
# Bulk Modulus (GPa) = 41.87727 59.87360 50.87544
# Shear Modulus (GPa) = 12.77217 21.32401 17.04809
#
# Velocity S-wave (km/s) = 2.66932 3.44908 3.08395
# Velocity P-wave (km/s) = 5.73260 7.01881 6.40806
#
# Compressibility (1/GPa) = 0.02387930
#
# Stress axis : x y z
#
# Youngs Moduli (GPa) = 91.80815 37.98691 118.84480
#
# Poissons Ratio (x) = 0.12775 0.36106
# Poissons Ratio (y) = 0.30875 0.53182
# Poissons Ratio (z) = 0.27892 0.16999
#
# Static dielectric constant tensor:
#      x y z
#    x 3.125950 0.000000 0.000000 
#    y 0.000000 3.121400 0.000000 
#    z 0.000000 0.000000 4.276860 
# 
# 
# High freq. dielectric constant tensor:
#      x y z
#    x 1.663920 0.000000 0.000000 
#    y 0.000000 1.676470 0.000000 
#    z 0.000000 0.000000 1.721220 
# 
# From -- ./inp_files/32179.got.cif
#   From: 2010.03.12/outbox.cif.g09.slc.cpg/sg64_17_cif.got.tgz:32179.got - 2010.04.10 20:19:32.
