data_PCOD8261533
_publ_section_title
;
Structure prediction by ZEFSAII (Michael W. Deem and Ramdas Pophale) SiO2 
 PCOD8261533
Probable space group: C M C A
;
_chemical_formula_sum "Si O2"
_cell_formula_units_Z 88
_cell_length_a 22.362637
_cell_length_b 20.134404
_cell_length_c 8.983555
_cell_angle_alpha 90.000000
_cell_angle_beta 90.000000
_cell_angle_gamma 90.000000
_cell_volume 4044.920812
_symmetry_space_group_name_H-M "C M C A"
_symmetry_group_IT_number 64
_symmetry_cell_setting 'orthorhombic'
loop_
_space_group_symop_operation_xyz
x,y,z
-x,1/2-y,1/2+z
x,-y,-z
-x,1/2+y,1/2-z
-x,-y,-z
x,1/2+y,1/2-z
-x,y,z
x,1/2-y,1/2+z
1/2+x,1/2+y,z
1/2-x,-y,1/2+z
1/2+x,1/2-y,-z
1/2-x,y,1/2-z
1/2-x,1/2-y,-z
1/2+x,y,1/2-z
1/2-x,1/2+y,z
1/2+x,-y,1/2+z
loop_
_atom_site_type_symbol
_atom_site_label
_atom_site_fract_x
_atom_site_fract_y
_atom_site_fract_z
Si Si1 0.372107 0.578860 0.835136
Si Si2 0.184811 0.800243 0.299531
Si Si3 0.000000 0.102383 0.159667
Si Si4 0.500000 0.219617 0.147054
Si Si5 0.625817 0.430133 0.816467
Si Si6 0.000000 0.623414 0.675278
Si Si7 0.869117 0.309889 0.886214
O O1 0.323446 0.625229 0.758702
O O2 0.349236 0.504429 0.797472
O O3 0.437232 0.595147 0.759437
O O4 0.369484 0.593902 0.012146
O O5 0.250000 0.774994 0.250000
O O6 0.175601 0.800028 0.476648
O O7 0.136384 0.751551 0.226746
O O8 0.000000 0.181850 0.193054
O O9 0.943549 0.065481 0.229601
O O10 0.000000 0.091684 0.986228
O O11 0.500000 0.297301 0.177420
O O12 0.439475 0.193129 0.062902
O O13 0.653313 0.376424 0.701692
#
# Coordination Sequence:
#
# PCOD8261533 Si02
#       7
#    16  16   8   8  16   8  16
#     4  10  20  37  63  90 125 162 205 253 312 381
#     4  12  26  44  62  87 121 166 214 261 314 376
#     4   8  17  30  52  86 130 158 194 241 306 395
#     4  10  20  32  59  96 125 156 203 261 323 379
#     4   9  19  38  60  92 124 163 202 249 316 379
#     4  10  17  30  59  89 126 161 202 248 317 380
#     4  11  24  40  65  92 128 161 209 266 320 380
#
# _framework density 21.755678
#
# number of rings (size 3 to 8) (size 9 to 14) (size 15 to 20)
#    0.000    1.818    1.818    2.182    5.091    3.636 
#    0.000    4.545    0.000    4.364    0.000    0.000 
#    0.000    0.000    0.000    0.000    0.000    0.000 
#
# Total GULP energy -545232.077642 kJ/mol
# GULP energy per Si atom -12391.638128 kJ/mol
# Density = 2.170616 g / cm^3
# Si number density = 21.755678 Si / 1000 Ang^3
#
#
#
# Elastic Constant Matrix: (Units=GPa)
#
#
# Indices 1 2 3 4 5 6 
#
# 1 67.5546 9.3826 25.3512 0.0000 0.0000 0.0000
# 2 9.3826 123.4301 43.3011 0.0000 0.0000 0.0000
# 3 25.3512 43.3011 99.2615 0.0000 0.0000 0.0000
# 4 0.0000 0.0000 0.0000 36.3545 0.0000 0.0000
# 5 0.0000 0.0000 0.0000 0.0000 27.4807 0.0000
# 6 0.0000 0.0000 0.0000 0.0000 0.0000 17.6277
#
#
#
# Elastic Compliance Matrix: (Units=1/GPa)
#
#
# Indices 1 2 3 4 5 6 
#
# 1 0.016379 0.000263 -0.004298 0.000000 0.000000 0.000000
# 2 0.000263 0.009570 -0.004242 0.000000 0.000000 0.000000
# 3 -0.004298 -0.004242 0.013022 0.000000 0.000000 0.000000
# 4 0.000000 0.000000 0.000000 0.027507 0.000000 0.000000
# 5 0.000000 0.000000 0.000000 0.000000 0.036389 0.000000
# 6 0.000000 0.000000 0.000000 0.000000 0.000000 0.056729
#
#
# Mechanical properties :
#
#
# Convention : Reuss Voigt Hill
#
# Bulk Modulus (GPa) = 44.60764 49.59067 47.09915
# Shear Modulus (GPa) = 27.22971 30.43998 28.83485
#
# Velocity S-wave (km/s) = 3.54165 3.74461 3.64455
# Velocity P-wave (km/s) = 6.10515 6.44515 6.27745
#
# Compressibility (1/GPa) = 0.02241769
#
# Stress axis : x y z
#
# Youngs Moduli (GPa) = 61.05306 104.49479 76.79049
#
# Poissons Ratio (x) = -0.02745 0.33003
# Poissons Ratio (y) = -0.01604 0.32573
# Poissons Ratio (z) = 0.26239 0.44324
#
# Static dielectric constant tensor:
#      x y z
#    x 3.807870 0.000000 0.000000 
#    y 0.000000 3.924420 0.000000 
#    z 0.000000 0.000000 3.655760 
# 
# 
# High freq. dielectric constant tensor:
#      x y z
#    x 1.837000 0.000000 0.000000 
#    y 0.000000 1.861910 0.000000 
#    z 0.000000 0.000000 1.827460 
# 
# From -- ./inp_files/9371.got.cif
#   From: 2010.03.12/outbox.cif.g09.slc.cpg/sg64_5_cif.got.tgz:9371.got - 2010.04.10 20:19:32.
