data_PCOD8261828
_publ_section_title
;
Structure prediction by ZEFSAII (Michael W. Deem and Ramdas Pophale) SiO2 
 PCOD8261828
Probable space group: C M C A
;
_chemical_formula_sum "Si O2"
_cell_formula_units_Z 96
_cell_length_a 26.615886
_cell_length_b 18.327981
_cell_length_c 9.371666
_cell_angle_alpha 90.000000
_cell_angle_beta 90.000000
_cell_angle_gamma 90.000000
_cell_volume 4571.643494
_symmetry_space_group_name_H-M "C M C A"
_symmetry_group_IT_number 64
_symmetry_cell_setting 'orthorhombic'
loop_
_space_group_symop_operation_xyz
x,y,z
-x,1/2-y,1/2+z
x,-y,-z
-x,1/2+y,1/2-z
-x,-y,-z
x,1/2+y,1/2-z
-x,y,z
x,1/2-y,1/2+z
1/2+x,1/2+y,z
1/2-x,-y,1/2+z
1/2+x,1/2-y,-z
1/2-x,y,1/2-z
1/2-x,1/2-y,-z
1/2+x,y,1/2-z
1/2-x,1/2+y,z
1/2+x,-y,1/2+z
loop_
_atom_site_type_symbol
_atom_site_label
_atom_site_fract_x
_atom_site_fract_y
_atom_site_fract_z
Si Si1 0.627459 0.251441 0.713710
Si Si2 0.943315 0.871623 0.631418
Si Si3 0.382292 0.603060 0.633142
Si Si4 0.727568 0.138033 0.897020
Si Si5 0.691702 0.202791 0.443924
Si Si6 0.057177 0.001228 0.834199
O O1 0.579124 0.290915 0.649614
O O2 0.609958 0.186093 0.816063
O O3 0.662394 0.219226 0.590377
O O4 0.654915 0.314432 0.810824
O O5 0.915453 0.914557 0.504749
O O6 0.000000 0.860186 0.582427
O O7 0.939352 0.919114 0.774942
O O8 0.324107 0.593083 0.580774
O O9 0.400444 0.550538 0.759306
O O10 0.750000 0.107877 0.750000
O O11 0.719126 0.224747 0.886032
O O12 0.769441 0.134925 0.025580
O O13 0.000000 0.031380 0.810469
O O14 0.070924 0.000000 0.000000
#
# Coordination Sequence:
#
# PCOD8261828 Si02
#       6
#    16  16  16  16  16  16
#     4  11  21  38  61  98 124 164 204 257 313 365
#     4  11  24  42  62  90 125 164 208 253 313 379
#     4  11  22  39  63  93 124 166 204 256 312 371
#     4  10  18  32  57  89 119 159 201 245 295 368
#     4  10  19  34  55  90 126 159 200 249 300 365
#     4  10  24  44  67  89 117 165 215 261 316 378
#
# _framework density 20.999013999999999
#
# number of rings (size 3 to 8) (size 9 to 14) (size 15 to 20)
#    0.000    1.500    6.667    1.000    2.333    2.667 
#    0.000    0.000    0.000    6.000    0.000    0.000 
#    0.000    0.000    0.000    0.000    0.000    0.000 
#
# Total GULP energy -594783.254929 kJ/mol
# GULP energy per Si atom -12391.317811 kJ/mol
# Density = 2.095122 g / cm^3
# Si number density = 20.999014 Si / 1000 Ang^3
#
#
#
# Elastic Constant Matrix: (Units=GPa)
#
#
# Indices 1 2 3 4 5 6 
#
# 1 150.6634 30.1825 51.7138 0.0000 0.0000 0.0000
# 2 30.1825 38.6363 8.5073 0.0000 0.0000 0.0000
# 3 51.7138 8.5073 109.1174 0.0000 0.0000 0.0000
# 4 0.0000 0.0000 0.0000 27.2366 0.0000 0.0000
# 5 0.0000 0.0000 0.0000 0.0000 40.4691 0.0000
# 6 0.0000 0.0000 0.0000 0.0000 0.0000 28.8546
#
#
#
# Elastic Compliance Matrix: (Units=1/GPa)
#
#
# Indices 1 2 3 4 5 6 
#
# 1 0.009247 -0.006368 -0.003886 0.000000 0.000000 0.000000
# 2 -0.006368 0.030720 0.000623 0.000000 0.000000 0.000000
# 3 -0.003886 0.000623 0.010957 0.000000 0.000000 0.000000
# 4 0.000000 0.000000 0.000000 0.036715 0.000000 0.000000
# 5 0.000000 0.000000 0.000000 0.000000 0.024710 0.000000
# 6 0.000000 0.000000 0.000000 0.000000 0.000000 0.034657
#
#
# Mechanical properties :
#
#
# Convention : Reuss Voigt Hill
#
# Bulk Modulus (GPa) = 31.58326 53.24713 42.41520
# Shear Modulus (GPa) = 28.27702 33.17962 30.72832
#
# Velocity S-wave (km/s) = 3.67357 3.97930 3.82949
# Velocity P-wave (km/s) = 5.75035 6.82094 6.30839
#
# Compressibility (1/GPa) = 0.03166234
#
# Stress axis : x y z
#
# Youngs Moduli (GPa) = 108.14587 32.55226 91.26185
#
# Poissons Ratio (x) = 0.20729 0.35463
# Poissons Ratio (y) = 0.68866 -0.05684
# Poissons Ratio (z) = 0.42024 -0.02028
#
# Static dielectric constant tensor:
#      x y z
#    x 4.288540 0.000000 0.000000 
#    y 0.000000 3.253960 0.000000 
#    z 0.000000 0.000000 4.075430 
# 
# 
# High freq. dielectric constant tensor:
#      x y z
#    x 1.836690 0.000000 0.000000 
#    y 0.000000 1.764410 0.000000 
#    z 0.000000 0.000000 1.836260 
# 
# From -- ./inp_files/10390.got.cif
#   From: 2010.03.12/outbox.cif.g09.slc.cpg/sg64_6_cif.got.tgz:10390.got - 2010.04.10 20:19:32.
