data_PCOD8261173
_publ_section_title
;
Structure prediction by ZEFSAII (Michael W. Deem and Ramdas Pophale) SiO2 
 PCOD8261173
Probable space group: C M C M
;
_chemical_formula_sum "Si O2"
_cell_formula_units_Z 64
_cell_length_a 7.634722
_cell_length_b 34.548908
_cell_length_c 11.897844
_cell_angle_alpha 90.000000
_cell_angle_beta 90.000000
_cell_angle_gamma 90.000000
_cell_volume 3138.309874
_symmetry_space_group_name_H-M "C M C M"
_symmetry_group_IT_number 63
_symmetry_cell_setting 'orthorhombic'
loop_
_space_group_symop_operation_xyz
x,y,z
-x,-y,1/2+z
x,-y,-z
-x,y,1/2-z
-x,-y,-z
x,y,1/2-z
-x,y,z
x,-y,1/2+z
1/2+x,1/2+y,z
1/2-x,1/2-y,1/2+z
1/2+x,1/2-y,-z
1/2-x,1/2+y,1/2-z
1/2-x,1/2-y,-z
1/2+x,1/2+y,1/2-z
1/2-x,1/2+y,z
1/2+x,1/2-y,1/2+z
loop_
_atom_site_type_symbol
_atom_site_label
_atom_site_fract_x
_atom_site_fract_y
_atom_site_fract_z
Si Si1 0.801117 0.044292 0.015695
Si Si2 0.500000 0.079645 0.626734
Si Si3 0.792257 0.330072 0.750000
Si Si4 0.801107 0.794242 0.515410
Si Si5 0.292232 0.919803 0.750000
Si Si6 0.500000 0.169934 0.873255
O O1 0.784781 0.057853 0.143656
O O2 0.000000 0.050316 0.974453
O O3 0.675376 0.069340 0.938728
O O4 0.743482 0.000000 0.000000
O O5 0.500000 0.059683 0.750000
O O6 0.500000 0.124807 0.641291
O O7 0.715904 0.307761 0.856556
O O8 0.731377 0.374950 0.750000
O O9 0.000000 0.327375 0.750000
O O10 0.750000 0.750000 0.500000
O O11 0.675285 0.819363 0.438413
O O12 0.000000 0.800556 0.475096
O O13 0.500000 0.922564 0.750000
O O14 0.500000 0.189942 0.750000
#
# Coordination Sequence:
#
# PCOD8261173 Si02
#       6
#    16   8   8  16   8   8
#     4  11  25  42  67 100 136 174 222 278 333 396
#     4  11  25  44  68  94 132 181 222 272 331 400
#     4  11  23  43  69 102 135 170 222 276 337 399
#     4  12  25  43  69  99 132 175 219 275 335 401
#     4  11  23  41  71 100 133 174 220 278 335 397
#     4  11  26  46  66  96 136 173 224 276 330 397
#
# _framework density 20.393143999999999
#
# number of rings (size 3 to 8) (size 9 to 14) (size 15 to 20)
#    0.000    0.750    3.750    2.625    3.500    6.000 
#    0.000    2.500    0.000    0.000    0.000    0.000 
#    0.000    0.000    0.000    0.000    0.000    0.000 
#
# Total GULP energy -396922.707186 kJ/mol
# GULP energy per Si atom -12403.834600 kJ/mol
# Density = 2.034673 g / cm^3
# Si number density = 20.393144 Si / 1000 Ang^3
#
#
#
# Elastic Constant Matrix: (Units=GPa)
#
#
# Indices 1 2 3 4 5 6 
#
# 1 148.9839 32.9038 53.9476 0.0000 0.0000 0.0000
# 2 32.9038 119.9692 56.1161 0.0000 0.0000 0.0000
# 3 53.9476 56.1161 170.1787 0.0000 0.0000 0.0000
# 4 0.0000 0.0000 0.0000 41.1209 0.0000 0.0000
# 5 0.0000 0.0000 0.0000 0.0000 41.9050 0.0000
# 6 0.0000 0.0000 0.0000 0.0000 0.0000 38.7559
#
#
#
# Elastic Compliance Matrix: (Units=1/GPa)
#
#
# Indices 1 2 3 4 5 6 
#
# 1 0.007714 -0.001149 -0.002067 0.000000 0.000000 0.000000
# 2 -0.001149 0.010027 -0.002942 0.000000 0.000000 0.000000
# 3 -0.002067 -0.002942 0.007501 0.000000 0.000000 0.000000
# 4 0.000000 0.000000 0.000000 0.024319 0.000000 0.000000
# 5 0.000000 0.000000 0.000000 0.000000 0.023863 0.000000
# 6 0.000000 0.000000 0.000000 0.000000 0.000000 0.025803
#
#
# Mechanical properties :
#
#
# Convention : Reuss Voigt Hill
#
# Bulk Modulus (GPa) = 77.35731 80.56296 78.96013
# Shear Modulus (GPa) = 43.15874 44.10065 43.62969
#
# Velocity S-wave (km/s) = 4.60536 4.65534 4.63041
# Velocity P-wave (km/s) = 8.14214 8.27568 8.20918
#
# Compressibility (1/GPa) = 0.01292703
#
# Stress axis : x y z
#
# Youngs Moduli (GPa) = 129.63068 99.73278 133.30834
#
# Poissons Ratio (x) = 0.11461 0.27548
# Poissons Ratio (y) = 0.14896 0.39220
# Poissons Ratio (z) = 0.26788 0.29342
#
# Static dielectric constant tensor:
#      x y z
#    x 3.746380 0.000000 0.000000 
#    y 0.000000 3.782980 0.000000 
#    z 0.000000 0.000000 4.101470 
# 
# 
# High freq. dielectric constant tensor:
#      x y z
#    x 1.815280 0.000000 0.000000 
#    y 0.000000 1.808620 0.000000 
#    z 0.000000 0.000000 1.806770 
# 
# From -- ./inp_files/16301.got.cif
#   From: 2010.03.12/outbox.cif.g09.slc.cpg/sg63_9_cif.got.tgz:16301.got - 2010.04.10 19:34:48.
