data_PCOD8261878
_publ_section_title
;
Structure prediction by ZEFSAII (Michael W. Deem and Ramdas Pophale) SiO2 
 PCOD8261878
Probable space group: C M C A
;
_chemical_formula_sum "Si O2"
_cell_formula_units_Z 104
_cell_length_a 30.716601
_cell_length_b 8.102304
_cell_length_c 21.964989
_cell_angle_alpha 90.000000
_cell_angle_beta 90.000000
_cell_angle_gamma 90.000000
_cell_volume 5466.541890
_symmetry_space_group_name_H-M "C M C A"
_symmetry_group_IT_number 64
_symmetry_cell_setting 'orthorhombic'
loop_
_space_group_symop_operation_xyz
x,y,z
-x,1/2-y,1/2+z
x,-y,-z
-x,1/2+y,1/2-z
-x,-y,-z
x,1/2+y,1/2-z
-x,y,z
x,1/2-y,1/2+z
1/2+x,1/2+y,z
1/2-x,-y,1/2+z
1/2+x,1/2-y,-z
1/2-x,y,1/2-z
1/2-x,1/2-y,-z
1/2+x,y,1/2-z
1/2-x,1/2+y,z
1/2+x,-y,1/2+z
loop_
_atom_site_type_symbol
_atom_site_label
_atom_site_fract_x
_atom_site_fract_y
_atom_site_fract_z
Si Si1 0.120618 0.749088 0.414278
Si Si2 0.550625 0.625977 0.666445
Si Si3 0.799084 0.983105 0.428263
Si Si4 0.407458 0.679099 0.276159
Si Si5 0.847351 0.500000 0.500000
Si Si6 0.790888 0.850920 0.107270
Si Si7 0.641904 0.484397 0.186281
O O1 0.074425 0.831716 0.397814
O O2 0.122119 0.654173 0.479369
O O3 0.128996 0.613364 0.364093
O O4 0.156371 0.892122 0.413176
O O5 0.500000 0.645186 0.653995
O O6 0.564834 0.751079 0.719655
O O7 0.561515 0.437781 0.684332
O O8 0.801099 0.158559 0.396044
O O9 0.791020 0.000000 0.500000
O O10 0.760474 0.876673 0.398379
O O11 0.365438 0.572278 0.251713
O O12 0.390216 0.826428 0.318370
O O13 0.815832 0.446981 0.445873
O O14 0.808845 0.921263 0.172290
#
# Coordination Sequence:
#
# PCOD8261878 Si02
#       7
#    16  16  16  16   8  16  16
#     4  10  21  34  54  81 111 143 180 223 279 319
#     4  10  19  34  57  84 107 138 181 228 275 327
#     4  12  21  34  55  83 111 145 183 229 263 312
#     4   9  18  35  57  82 109 140 183 225 273 320
#     4  10  18  34  49  78 112 146 179 218 266 318
#     4  11  20  32  54  82 114 141 183 224 264 314
#     4   9  19  34  56  81 111 145 176 225 270 323
#
# _framework density 19.024823999999999
#
# number of rings (size 3 to 8) (size 9 to 14) (size 15 to 20)
#    0.000    1.846    2.308    3.692    0.000    0.000 
#    0.000    1.154    0.000   31.846    0.000    0.000 
#    0.000    0.000    0.000    0.000    0.000    0.000 
#
# Total GULP energy -644502.434498 kJ/mol
# GULP energy per Si atom -12394.277586 kJ/mol
# Density = 1.898152 g / cm^3
# Si number density = 19.024824 Si / 1000 Ang^3
#
#
#
# Elastic Constant Matrix: (Units=GPa)
#
#
# Indices 1 2 3 4 5 6 
#
# 1 122.6116 42.0913 32.6671 0.0000 0.0000 0.0000
# 2 42.0913 118.8867 15.7265 0.0000 0.0000 0.0000
# 3 32.6671 15.7265 23.8537 0.0000 0.0000 0.0000
# 4 0.0000 0.0000 0.0000 27.3122 0.0000 0.0000
# 5 0.0000 0.0000 0.0000 0.0000 25.4060 0.0000
# 6 0.0000 0.0000 0.0000 0.0000 0.0000 25.3084
#
#
#
# Elastic Compliance Matrix: (Units=1/GPa)
#
#
# Indices 1 2 3 4 5 6 
#
# 1 0.013517 -0.002560 -0.016823 0.000000 0.000000 0.000000
# 2 -0.002560 0.009700 -0.002889 0.000000 0.000000 0.000000
# 3 -0.016823 -0.002889 0.066866 0.000000 0.000000 0.000000
# 4 0.000000 0.000000 0.000000 0.036614 0.000000 0.000000
# 5 0.000000 0.000000 0.000000 0.000000 0.039361 0.000000
# 6 0.000000 0.000000 0.000000 0.000000 0.000000 0.039513
#
#
# Mechanical properties :
#
#
# Convention : Reuss Voigt Hill
#
# Bulk Modulus (GPa) = 21.95971 49.59130 35.77550
# Shear Modulus (GPa) = 18.84707 27.26313 23.05510
#
# Velocity S-wave (km/s) = 3.15088 3.78964 3.48493
# Velocity P-wave (km/s) = 4.98048 6.72843 5.91933
#
# Compressibility (1/GPa) = 0.04553795
#
# Stress axis : x y z
#
# Youngs Moduli (GPa) = 73.98179 103.09328 14.95537
#
# Poissons Ratio (x) = 0.26394 0.25160
# Poissons Ratio (y) = 0.18941 0.04321
# Poissons Ratio (z) = 1.24460 0.29783
#
# Static dielectric constant tensor:
#      x y z
#    x 3.502010 0.000000 0.000000 
#    y 0.000000 3.572360 0.000000 
#    z 0.000000 0.000000 3.846730 
# 
# 
# High freq. dielectric constant tensor:
#      x y z
#    x 1.714920 0.000000 0.000000 
#    y 0.000000 1.767560 0.000000 
#    z 0.000000 0.000000 1.715360 
# 
# From -- ./inp_files/46908.got.cif
#   From: 2010.03.12/outbox.cif.g09.slc.cpg/sg64_24_cif.got.tgz:46908.got - 2010.04.10 20:19:32.
