data_PCOD8261238
_publ_section_title
;
Structure prediction by ZEFSAII (Michael W. Deem and Ramdas Pophale) SiO2 
 PCOD8261238
Probable space group: C M C M
;
_chemical_formula_sum "Si O2"
_cell_formula_units_Z 72
_cell_length_a 14.099564
_cell_length_b 20.100335
_cell_length_c 13.881132
_cell_angle_alpha 90.000000
_cell_angle_beta 90.000000
_cell_angle_gamma 90.000000
_cell_volume 3933.995537
_symmetry_space_group_name_H-M "C M C M"
_symmetry_group_IT_number 63
_symmetry_cell_setting 'orthorhombic'
loop_
_space_group_symop_operation_xyz
x,y,z
-x,-y,1/2+z
x,-y,-z
-x,y,1/2-z
-x,-y,-z
x,y,1/2-z
-x,y,z
x,-y,1/2+z
1/2+x,1/2+y,z
1/2-x,1/2-y,1/2+z
1/2+x,1/2-y,-z
1/2-x,1/2+y,1/2-z
1/2-x,1/2-y,-z
1/2+x,1/2+y,1/2-z
1/2-x,1/2+y,z
1/2+x,1/2-y,1/2+z
loop_
_atom_site_type_symbol
_atom_site_label
_atom_site_fract_x
_atom_site_fract_y
_atom_site_fract_z
Si Si1 0.500000 0.824175 0.250000
Si Si2 0.705258 0.689380 0.943102
Si Si3 0.706562 0.765207 0.250000
Si Si4 0.000000 0.368750 0.041133
Si Si5 0.799769 0.378675 0.750000
Si Si6 0.692909 0.073145 0.039340
Si Si7 0.500000 0.185997 0.250000
Si Si8 0.000000 0.233915 0.557054
O O1 0.592951 0.776509 0.250000
O O2 0.500000 0.874491 0.157669
O O3 0.744446 0.696108 0.836577
O O4 0.592186 0.688694 0.951357
O O5 0.750000 0.750000 0.000000
O O6 0.732035 0.619150 0.986590
O O7 0.730875 0.686239 0.250000
O O8 0.088454 0.402688 0.989204
O O9 0.000000 0.289566 0.025767
O O10 0.785551 0.422894 0.653986
O O11 0.908621 0.359160 0.750000
O O12 0.709873 0.000000 0.000000
O O13 0.500000 0.232031 0.159002
#
# Coordination Sequence:
#
# PCOD8261238 Si02
#       8
#     4  16   8   8   8  16   4   8
#     4  12  24  32  63 102 137 158 206 276 330 378
#     4  12  21  39  63  94 126 169 217 270 316 374
#     4  12  20  37  65  92 133 164 217 270 326 370
#     4  12  21  39  61  94 131 168 206 263 332 378
#     4  12  22  40  64  91 124 169 223 260 324 390
#     4  12  26  42  62  93 136 177 211 263 327 395
#     4  12  16  34  65  98 117 164 212 274 320 374
#     4  12  20  35  67  97 124 156 228 275 305 376
#
# _framework density 18.302004
#
# number of rings (size 3 to 8) (size 9 to 14) (size 15 to 20)
#    0.000    0.000   11.111    0.333    0.000    1.778 
#    0.000    0.556    0.000    0.000    0.000    0.000 
#    0.000    0.000    0.000    0.000    0.000    0.000 
#
# Total GULP energy -446375.631697 kJ/mol
# GULP energy per Si atom -12399.323103 kJ/mol
# Density = 1.826035 g / cm^3
# Si number density = 18.302004 Si / 1000 Ang^3
#
#
#
# Elastic Constant Matrix: (Units=GPa)
#
#
# Indices 1 2 3 4 5 6 
#
# 1 148.3000 60.5508 41.8130 0.0000 0.0000 0.0000
# 2 60.5508 127.1410 61.9562 0.0000 0.0000 0.0000
# 3 41.8130 61.9562 170.3884 0.0000 0.0000 0.0000
# 4 0.0000 0.0000 0.0000 26.6106 0.0000 0.0000
# 5 0.0000 0.0000 0.0000 0.0000 -10.6697 0.0000
# 6 0.0000 0.0000 0.0000 0.0000 0.0000 -5.7946
#
#
#
# Elastic Compliance Matrix: (Units=1/GPa)
#
#
# Indices 1 2 3 4 5 6 
#
# 1 0.008447 -0.003662 -0.000741 0.000000 0.000000 0.000000
# 2 -0.003662 0.011146 -0.003154 0.000000 0.000000 0.000000
# 3 -0.000741 -0.003154 0.007198 0.000000 0.000000 0.000000
# 4 0.000000 0.000000 0.000000 0.037579 0.000000 0.000000
# 5 0.000000 0.000000 0.000000 0.000000 -0.093723 0.000000
# 6 0.000000 0.000000 0.000000 0.000000 0.000000 -0.172575
#
#
# Mechanical properties :
#
#
# Convention : Reuss Voigt Hill
#
# Bulk Modulus (GPa) = 85.64365 86.05214 85.84790
# Shear Modulus (GPa) = -27.33426 20.79655 -3.26885
#
# Velocity S-wave (km/s) = -3.86879 3.37456 -1.33789
# Velocity P-wave (km/s) = 5.19033 7.89326 6.67993
#
# Compressibility (1/GPa) = 0.01167629
#
# Stress axis : x y z
#
# Youngs Moduli (GPa) = 118.38250 89.71589 138.92922
#
# Poissons Ratio (x) = 0.32851 0.10301
# Poissons Ratio (y) = 0.43347 0.43824
# Poissons Ratio (z) = 0.08778 0.28300
#
# Static dielectric constant tensor:
#      x y z
#    x 3.300460 0.000000 0.000000 
#    y 0.000000 3.091430 0.000000 
#    z 0.000000 0.000000 3.759230 
# 
# 
# High freq. dielectric constant tensor:
#      x y z
#    x 1.715430 0.000000 0.000000 
#    y 0.000000 1.677710 0.000000 
#    z 0.000000 0.000000 1.739350 
# 
# From -- ./inp_files/31540.got.cif
#   From: 2010.03.12/outbox.cif.g09.slc.cpg/sg63_16_cif.got.tgz:31540.got - 2010.04.10 19:34:48.
