data_PCOD8261767
_publ_section_title
;
Structure prediction by ZEFSAII (Michael W. Deem and Ramdas Pophale) SiO2 
 PCOD8261767
Probable space group: C M C A
;
_chemical_formula_sum "Si O2"
_cell_formula_units_Z 64
_cell_length_a 24.705454
_cell_length_b 14.681259
_cell_length_c 8.432006
_cell_angle_alpha 90.000000
_cell_angle_beta 90.000000
_cell_angle_gamma 90.000000
_cell_volume 3058.349024
_symmetry_space_group_name_H-M "C M C A"
_symmetry_group_IT_number 64
_symmetry_cell_setting 'orthorhombic'
loop_
_space_group_symop_operation_xyz
x,y,z
-x,1/2-y,1/2+z
x,-y,-z
-x,1/2+y,1/2-z
-x,-y,-z
x,1/2+y,1/2-z
-x,y,z
x,1/2-y,1/2+z
1/2+x,1/2+y,z
1/2-x,-y,1/2+z
1/2+x,1/2-y,-z
1/2-x,y,1/2-z
1/2-x,1/2-y,-z
1/2+x,y,1/2-z
1/2-x,1/2+y,z
1/2+x,-y,1/2+z
loop_
_atom_site_type_symbol
_atom_site_label
_atom_site_fract_x
_atom_site_fract_y
_atom_site_fract_z
Si Si1 0.111273 0.629514 0.256797
Si Si2 0.500000 0.130067 0.149436
Si Si3 0.890010 0.327337 0.374896
Si Si4 0.690866 0.522564 0.817041
Si Si5 0.500000 0.672012 0.720743
O O1 0.055465 0.578924 0.199560
O O2 0.120195 0.720299 0.153058
O O3 0.107418 0.656977 0.438899
O O4 0.160421 0.559871 0.226008
O O5 0.500000 0.220082 0.257241
O O6 0.500000 0.149569 0.963834
O O7 0.841630 0.383547 0.293396
O O8 0.945815 0.366416 0.302123
O O9 0.750000 0.536679 0.750000
O O10 0.694944 0.500000 0.000000
#
# Coordination Sequence:
#
# PCOD8261767 Si02
#       5
#    16   8  16  16   8
#     4  10  20  37  58  83 112 146 181 223 274 327
#     4  10  18  31  54  85 114 144 178 221 271 327
#     4  10  20  37  58  83 112 146 181 223 274 327
#     4  10  24  41  58  79 109 146 188 230 273 322
#     4  10  18  31  54  85 114 144 178 221 271 327
#
# _framework density 20.926324000000001
#
# number of rings (size 3 to 8) (size 9 to 14) (size 15 to 20)
#    0.000    2.000    0.000    6.750    0.000    6.000 
#    0.000   10.000    0.000    0.000    0.000    0.000 
#    0.000    0.000    0.000    0.000    0.000    0.000 
#
# Total GULP energy -396705.221884 kJ/mol
# GULP energy per Si atom -12397.038184 kJ/mol
# Density = 2.087869 g / cm^3
# Si number density = 20.926324 Si / 1000 Ang^3
#
#
#
# Elastic Constant Matrix: (Units=GPa)
#
#
# Indices 1 2 3 4 5 6 
#
# 1 169.9187 31.2865 6.4743 0.0000 0.0000 0.0000
# 2 31.2865 45.3438 -12.3874 0.0000 0.0000 0.0000
# 3 6.4743 -12.3874 38.9710 0.0000 0.0000 0.0000
# 4 0.0000 0.0000 0.0000 10.3645 0.0000 0.0000
# 5 0.0000 0.0000 0.0000 0.0000 -9.8690 0.0000
# 6 0.0000 0.0000 0.0000 0.0000 0.0000 177.1682
#
#
#
# Elastic Compliance Matrix: (Units=1/GPa)
#
#
# Indices 1 2 3 4 5 6 
#
# 1 0.007043 -0.005671 -0.002973 0.000000 0.000000 0.000000
# 2 -0.005671 0.028718 0.010071 0.000000 0.000000 0.000000
# 3 -0.002973 0.010071 0.029355 0.000000 0.000000 0.000000
# 4 0.000000 0.000000 0.000000 0.096483 0.000000 0.000000
# 5 0.000000 0.000000 0.000000 0.000000 -0.101327 0.000000
# 6 0.000000 0.000000 0.000000 0.000000 0.000000 0.005644
#
#
# Mechanical properties :
#
#
# Convention : Reuss Voigt Hill
#
# Bulk Modulus (GPa) = 14.71265 33.88668 24.29967
# Shear Modulus (GPa) = 58.32950 50.79008 54.55979
#
# Velocity S-wave (km/s) = 5.28529 4.93190 5.11165
# Velocity P-wave (km/s) = 6.65520 6.97567 6.81732
#
# Compressibility (1/GPa) = 0.06796871
#
# Stress axis : x y z
#
# Youngs Moduli (GPa) = 141.99095 34.82121 34.06567
#
# Poissons Ratio (x) = 0.19749 0.10127
# Poissons Ratio (y) = 0.80530 -0.34306
# Poissons Ratio (z) = 0.42211 -0.35067
#
# Static dielectric constant tensor:
#      x y z
#    x 5.658700 0.000000 0.000000 
#    y 0.000000 3.848210 0.000000 
#    z 0.000000 0.000000 3.726520 
# 
# 
# High freq. dielectric constant tensor:
#      x y z
#    x 1.827820 0.000000 0.000000 
#    y 0.000000 1.804420 0.000000 
#    z 0.000000 0.000000 1.826420 
# 
# From -- ./inp_files/8980.got.cif
#   From: 2010.03.12/outbox.cif.g09.slc.cpg/sg64_5_cif.got.tgz:8980.got - 2010.04.10 20:19:32.
