data_PCOD8261195
_publ_section_title
;
Structure prediction by ZEFSAII (Michael W. Deem and Ramdas Pophale) SiO2 
 PCOD8261195
Probable space group: C M C M
;
_chemical_formula_sum "Si O2"
_cell_formula_units_Z 64
_cell_length_a 8.917184
_cell_length_b 20.351751
_cell_length_c 19.023997
_cell_angle_alpha 90.000000
_cell_angle_beta 90.000000
_cell_angle_gamma 90.000000
_cell_volume 3452.480842
_symmetry_space_group_name_H-M "C M C M"
_symmetry_group_IT_number 63
_symmetry_cell_setting 'orthorhombic'
loop_
_space_group_symop_operation_xyz
x,y,z
-x,-y,1/2+z
x,-y,-z
-x,y,1/2-z
-x,-y,-z
x,y,1/2-z
-x,y,z
x,-y,1/2+z
1/2+x,1/2+y,z
1/2-x,1/2-y,1/2+z
1/2+x,1/2-y,-z
1/2-x,1/2+y,1/2-z
1/2-x,1/2-y,-z
1/2+x,1/2+y,1/2-z
1/2-x,1/2+y,z
1/2+x,1/2-y,1/2+z
loop_
_atom_site_type_symbol
_atom_site_label
_atom_site_fract_x
_atom_site_fract_y
_atom_site_fract_z
Si Si1 0.825931 0.390953 0.170416
Si Si2 0.826985 0.069782 0.964640
Si Si3 0.676332 0.189571 0.460391
Si Si4 0.672771 0.738032 0.170147
O O1 0.775599 0.407923 0.250000
O O2 0.727855 0.433518 0.116296
O O3 0.797433 0.314444 0.154322
O O4 0.000000 0.408054 0.160244
O O5 0.000000 0.090968 0.966529
O O6 0.729278 0.121291 0.007684
O O7 0.800687 0.000000 0.000000
O O8 0.500000 0.194760 0.468811
O O9 0.750000 0.250000 0.500000
O O10 0.723071 0.193022 0.378695
O O11 0.715215 0.721150 0.250000
O O12 0.500000 0.721067 0.155058
#
# Coordination Sequence:
#
# PCOD8261195 Si02
#       4
#    16  16  16  16
#     4   9  18  34  58  86 114 147 188 235 287 341
#     4  11  24  40  58  84 117 154 196 238 285 341
#     4  12  23  36  58  86 116 149 190 236 284 337
#     4   9  18  34  57  86 118 149 185 235 290 339
#
# _framework density 18.537396000000001
#
# number of rings (size 3 to 8) (size 9 to 14) (size 15 to 20)
#    0.000    1.750    2.500    4.500    0.000    3.000 
#    0.000    3.750    0.000    1.500    0.000    0.000 
#    0.000    0.000    0.000    0.000    0.000    0.000 
#
# Total GULP energy -396890.234451 kJ/mol
# GULP energy per Si atom -12402.819827 kJ/mol
# Density = 1.849520 g / cm^3
# Si number density = 18.537396 Si / 1000 Ang^3
#
#
#
# Elastic Constant Matrix: (Units=GPa)
#
#
# Indices 1 2 3 4 5 6 
#
# 1 133.8065 56.7244 73.6356 0.0000 0.0000 0.0000
# 2 56.7244 67.2697 51.9723 0.0000 0.0000 0.0000
# 3 73.6356 51.9723 142.3428 0.0000 0.0000 0.0000
# 4 0.0000 0.0000 0.0000 30.5045 0.0000 0.0000
# 5 0.0000 0.0000 0.0000 0.0000 37.9674 0.0000
# 6 0.0000 0.0000 0.0000 0.0000 0.0000 26.8551
#
#
#
# Elastic Compliance Matrix: (Units=1/GPa)
#
#
# Indices 1 2 3 4 5 6 
#
# 1 0.012940 -0.007995 -0.003775 0.000000 0.000000 0.000000
# 2 -0.007995 0.025647 -0.005228 0.000000 0.000000 0.000000
# 3 -0.003775 -0.005228 0.010887 0.000000 0.000000 0.000000
# 4 0.000000 0.000000 0.000000 0.032782 0.000000 0.000000
# 5 0.000000 0.000000 0.000000 0.000000 0.026338 0.000000
# 6 0.000000 0.000000 0.000000 0.000000 0.000000 0.037237
#
#
# Mechanical properties :
#
#
# Convention : Reuss Voigt Hill
#
# Bulk Modulus (GPa) = 64.61038 78.67594 71.64316
# Shear Modulus (GPa) = 27.02894 29.80452 28.41673
#
# Velocity S-wave (km/s) = 3.82262 4.01409 3.91953
# Velocity P-wave (km/s) = 7.37651 8.00111 7.69515
#
# Compressibility (1/GPa) = 0.01547739
#
# Stress axis : x y z
#
# Youngs Moduli (GPa) = 77.27796 38.99145 91.85282
#
# Poissons Ratio (x) = 0.31175 0.34674
# Poissons Ratio (y) = 0.61786 0.48021
# Poissons Ratio (z) = 0.29172 0.20385
#
# Static dielectric constant tensor:
#      x y z
#    x 3.421210 0.000000 0.000000 
#    y 0.000000 3.223070 0.000000 
#    z 0.000000 0.000000 3.733770 
# 
# 
# High freq. dielectric constant tensor:
#      x y z
#    x 1.721660 0.000000 0.000000 
#    y 0.000000 1.686950 0.000000 
#    z 0.000000 0.000000 1.739720 
# 
# From -- ./inp_files/39823.got.cif
#   From: 2010.03.12/outbox.cif.g09.slc.cpg/sg63_20_cif.got.tgz:39823.got - 2010.04.10 19:34:48.
