data_PCOD8261319
_publ_section_title
;
Structure prediction by ZEFSAII (Michael W. Deem and Ramdas Pophale) SiO2 
 PCOD8261319
Probable space group: C M C M
;
_chemical_formula_sum "Si O2"
_cell_formula_units_Z 96
_cell_length_a 9.409300
_cell_length_b 30.696798
_cell_length_c 19.691901
_cell_angle_alpha 90.000000
_cell_angle_beta 90.000000
_cell_angle_gamma 90.000000
_cell_volume 5687.717736
_symmetry_space_group_name_H-M "C M C M"
_symmetry_group_IT_number 63
_symmetry_cell_setting 'orthorhombic'
loop_
_space_group_symop_operation_xyz
x,y,z
-x,-y,1/2+z
x,-y,-z
-x,y,1/2-z
-x,-y,-z
x,y,1/2-z
-x,y,z
x,-y,1/2+z
1/2+x,1/2+y,z
1/2-x,1/2-y,1/2+z
1/2+x,1/2-y,-z
1/2-x,1/2+y,1/2-z
1/2-x,1/2-y,-z
1/2+x,1/2+y,1/2-z
1/2-x,1/2+y,z
1/2+x,1/2-y,1/2+z
loop_
_atom_site_type_symbol
_atom_site_label
_atom_site_fract_x
_atom_site_fract_y
_atom_site_fract_z
Si Si1 0.657848 0.212577 0.669263
Si Si2 0.331665 0.549400 0.922216
Si Si3 0.340349 0.792007 0.830795
Si Si4 0.168025 0.048067 0.075088
Si Si5 0.166501 0.124167 0.328664
Si Si6 0.666031 0.115132 0.671637
O O1 0.652094 0.215261 0.750000
O O2 0.500000 0.222502 0.640628
O O3 0.766993 0.248286 0.639667
O O4 0.706624 0.164110 0.647865
O O5 0.500000 0.554042 0.913295
O O6 0.279198 0.500306 0.905047
O O7 0.256377 0.581840 0.871555
O O8 0.283730 0.560739 0.999056
O O9 0.342467 0.790073 0.750000
O O10 0.500000 0.795023 0.859998
O O11 0.250650 0.833637 0.854989
O O12 0.226413 0.083193 0.128815
O O13 0.000000 0.047329 0.077335
O O14 0.197723 0.114380 0.250000
O O15 0.000000 0.132554 0.341270
O O16 0.706518 0.108288 0.750000
O O17 0.500000 0.106681 0.659889
#
# Coordination Sequence:
#
# PCOD8261319 Si02
#       6
#    16  16  16  16  16  16
#     4   8  14  26  43  61  85 119 151 176 212 266
#     4   9  17  31  50  68  89 119 154 190 226 266
#     4   9  16  25  39  63  93 117 141 181 226 262
#     4   8  16  31  48  67  91 119 152 189 226 265
#     4   9  16  27  45  66  88 118 153 183 217 267
#     4   9  18  31  46  68  97 122 147 185 228 267
#
# _framework density 16.878475000000002
#
# number of rings (size 3 to 8) (size 9 to 14) (size 15 to 20)
#    0.000    3.333    0.000    2.500    0.000    3.667 
#    0.000    6.667    0.000    3.000    0.000    0.000 
#    0.000    0.000    0.000    0.000    0.000    0.000 
#
# Total GULP energy -594946.899062 kJ/mol
# GULP energy per Si atom -12394.727064 kJ/mol
# Density = 1.684006 g / cm^3
# Si number density = 16.878475 Si / 1000 Ang^3
#
#
#
# Elastic Constant Matrix: (Units=GPa)
#
#
# Indices 1 2 3 4 5 6 
#
# 1 73.7318 73.4594 38.6501 0.0000 0.0000 0.0000
# 2 73.4594 165.9409 68.7407 0.0000 0.0000 0.0000
# 3 38.6501 68.7407 58.6441 0.0000 0.0000 0.0000
# 4 0.0000 0.0000 0.0000 -1.4947 0.0000 0.0000
# 5 0.0000 0.0000 0.0000 0.0000 15.4262 0.0000
# 6 0.0000 0.0000 0.0000 0.0000 0.0000 25.8340
#
#
#
# Elastic Compliance Matrix: (Units=1/GPa)
#
#
# Indices 1 2 3 4 5 6 
#
# 1 0.025659 -0.008463 -0.006991 0.000000 0.000000 0.000000
# 2 -0.008463 0.014506 -0.011425 0.000000 0.000000 0.000000
# 3 -0.006991 -0.011425 0.035052 0.000000 0.000000 0.000000
# 4 0.000000 0.000000 0.000000 -0.669011 0.000000 0.000000
# 5 0.000000 0.000000 0.000000 0.000000 0.064825 0.000000
# 6 0.000000 0.000000 0.000000 0.000000 0.000000 0.038709
#
#
# Mechanical properties :
#
#
# Convention : Reuss Voigt Hill
#
# Bulk Modulus (GPa) = 46.60258 73.33523 59.96891
# Shear Modulus (GPa) = -11.64550 15.78421 2.06935
#
# Velocity S-wave (km/s) = -2.62956 3.06137 1.10846
# Velocity P-wave (km/s) = 4.29548 7.48594 6.10288
#
# Compressibility (1/GPa) = 0.02145804
#
# Stress axis : x y z
#
# Youngs Moduli (GPa) = 38.97295 68.93918 28.52902
#
# Poissons Ratio (x) = 0.58342 0.19945
# Poissons Ratio (y) = 0.32982 0.32596
# Poissons Ratio (z) = 0.27246 0.78766
#
# Static dielectric constant tensor:
#      x y z
#    x 3.082140 0.000000 0.000000 
#    y 0.000000 3.503770 0.000000 
#    z 0.000000 0.000000 2.939680 
# 
# 
# High freq. dielectric constant tensor:
#      x y z
#    x 1.634000 0.000000 0.000000 
#    y 0.000000 1.664130 0.000000 
#    z 0.000000 0.000000 1.611030 
# 
# From -- ./inp_files/60235.got.cif
#   From: 2010.03.12/outbox.cif.g09.slc.cpg/sg63_31_cif.got.tgz:60235.got - 2010.04.10 19:34:48.
