data_PCOD8261464
_publ_section_title
;
Structure prediction by ZEFSAII (Michael W. Deem and Ramdas Pophale) SiO2 
 PCOD8261464
Probable space group: C M C A
;
_chemical_formula_sum "Si O2"
_cell_formula_units_Z 128
_cell_length_a 22.215375
_cell_length_b 24.961287
_cell_length_c 12.187147
_cell_angle_alpha 90.000000
_cell_angle_beta 90.000000
_cell_angle_gamma 90.000000
_cell_volume 6758.069783
_symmetry_space_group_name_H-M "C M C A"
_symmetry_group_IT_number 64
_symmetry_cell_setting 'orthorhombic'
loop_
_space_group_symop_operation_xyz
x,y,z
-x,1/2-y,1/2+z
x,-y,-z
-x,1/2+y,1/2-z
-x,-y,-z
x,1/2+y,1/2-z
-x,y,z
x,1/2-y,1/2+z
1/2+x,1/2+y,z
1/2-x,-y,1/2+z
1/2+x,1/2-y,-z
1/2-x,y,1/2-z
1/2-x,1/2-y,-z
1/2+x,y,1/2-z
1/2-x,1/2+y,z
1/2+x,-y,1/2+z
loop_
_atom_site_type_symbol
_atom_site_label
_atom_site_fract_x
_atom_site_fract_y
_atom_site_fract_z
Si Si1 0.604644 0.803069 0.435405
Si Si2 0.316484 0.246267 0.239458
Si Si3 0.435963 0.866538 0.246714
Si Si4 0.391177 0.292608 0.428837
Si Si5 0.180229 0.446970 0.744341
Si Si6 0.316652 0.357514 0.601841
Si Si7 0.815959 0.110364 0.030381
Si Si8 0.816545 0.569045 0.709889
O O1 0.655930 0.783788 0.352597
O O2 0.556932 0.835935 0.363188
O O3 0.574673 0.751263 0.494397
O O4 0.637133 0.841265 0.522625
O O5 0.250000 0.268459 0.250000
O O6 0.346714 0.255694 0.357059
O O7 0.316891 0.184073 0.203599
O O8 0.500000 0.899357 0.236065
O O9 0.437672 0.823709 0.147826
O O10 0.372765 0.898024 0.239573
O O11 0.356837 0.336447 0.502241
O O12 0.250000 0.433667 0.750000
O O13 0.154010 0.412587 0.847719
O O14 0.157061 0.426811 0.626604
O O15 0.168420 0.509884 0.754529
O O16 0.249998 0.366465 0.554713
O O17 0.815769 0.073597 0.921142
O O18 0.750000 0.588007 0.750000
#
# Coordination Sequence:
#
# PCOD8261464 Si02
#       8
#    16  16  16  16  16  16  16  16
#     4   9  19  30  48  73 100 135 174 209 245 306
#     4  10  17  26  43  74 113 144 170 206 256 309
#     4  10  22  38  55  76 103 135 171 212 259 312
#     4  10  19  32  49  72 101 139 176 207 252 309
#     4   9  18  30  48  75 104 136 175 220 264 305
#     4  10  18  28  47  76 110 141 174 216 259 308
#     4  10  17  29  48  74 108 142 171 211 265 311
#     4  10  20  35  55  78 103 134 177 222 262 308
#
# _framework density 18.940318999999999
#
# number of rings (size 3 to 8) (size 9 to 14) (size 15 to 20)
#    0.000    2.250    0.000    4.500    0.000    6.000 
#    0.000    1.875    0.000    7.500    0.000    0.000 
#    0.000    0.000    0.000    0.000    0.000    0.000 
#
# Total GULP energy -792871.039102 kJ/mol
# GULP energy per Si atom -12388.609986 kJ/mol
# Density = 1.889721 g / cm^3
# Si number density = 18.940319 Si / 1000 Ang^3
#
#
#
# Elastic Constant Matrix: (Units=GPa)
#
#
# Indices 1 2 3 4 5 6 
#
# 1 85.5464 35.9000 22.7888 0.0000 0.0000 0.0000
# 2 35.9000 91.3472 39.3419 0.0000 0.0000 0.0000
# 3 22.7888 39.3419 94.2738 0.0000 0.0000 0.0000
# 4 0.0000 0.0000 0.0000 35.0765 0.0000 0.0000
# 5 0.0000 0.0000 0.0000 0.0000 -7.8608 0.0000
# 6 0.0000 0.0000 0.0000 0.0000 0.0000 6.4121
#
#
#
# Elastic Compliance Matrix: (Units=1/GPa)
#
#
# Indices 1 2 3 4 5 6 
#
# 1 0.014136 -0.004979 -0.001339 0.000000 0.000000 0.000000
# 2 -0.004979 0.015099 -0.005098 0.000000 0.000000 0.000000
# 3 -0.001339 -0.005098 0.013059 0.000000 0.000000 0.000000
# 4 0.000000 0.000000 0.000000 0.028509 0.000000 0.000000
# 5 0.000000 0.000000 0.000000 0.000000 -0.127213 0.000000
# 6 0.000000 0.000000 0.000000 0.000000 0.000000 0.155956
#
#
# Mechanical properties :
#
#
# Convention : Reuss Voigt Hill
#
# Bulk Modulus (GPa) = 51.38160 51.91430 51.64795
# Shear Modulus (GPa) = 38.80054 18.26800 28.53427
#
# Velocity S-wave (km/s) = 4.53102 3.10901 3.88562
# Velocity P-wave (km/s) = 7.38651 6.35271 6.88903
#
# Compressibility (1/GPa) = 0.01946222
#
# Stress axis : x y z
#
# Youngs Moduli (GPa) = 70.74320 66.22806 76.57836
#
# Poissons Ratio (x) = 0.32972 0.10257
# Poissons Ratio (y) = 0.35220 0.39037
# Poissons Ratio (z) = 0.09475 0.33761
#
# Static dielectric constant tensor:
#      x y z
#    x 3.031220 0.000000 0.000000 
#    y 0.000000 3.628260 0.000000 
#    z 0.000000 0.000000 3.750020 
# 
# 
# High freq. dielectric constant tensor:
#      x y z
#    x 1.690210 0.000000 0.000000 
#    y 0.000000 1.735160 0.000000 
#    z 0.000000 0.000000 1.752610 
# 
# From -- ./inp_files/18713.got.cif
#   From: 2010.03.12/outbox.cif.g09.slc.cpg/sg64_10_cif.got.tgz:18713.got - 2010.04.10 20:19:32.
