data_PCOD8261612
_publ_section_title
;
Structure prediction by ZEFSAII (Michael W. Deem and Ramdas Pophale) SiO2 
 PCOD8261612
Probable space group: C M C A
;
_chemical_formula_sum "Si O2"
_cell_formula_units_Z 96
_cell_length_a 8.915045
_cell_length_b 30.047190
_cell_length_c 21.329361
_cell_angle_alpha 90.000000
_cell_angle_beta 90.000000
_cell_angle_gamma 90.000000
_cell_volume 5713.539677
_symmetry_space_group_name_H-M "C M C A"
_symmetry_group_IT_number 64
_symmetry_cell_setting 'orthorhombic'
loop_
_space_group_symop_operation_xyz
x,y,z
-x,1/2-y,1/2+z
x,-y,-z
-x,1/2+y,1/2-z
-x,-y,-z
x,1/2+y,1/2-z
-x,y,z
x,1/2-y,1/2+z
1/2+x,1/2+y,z
1/2-x,-y,1/2+z
1/2+x,1/2-y,-z
1/2-x,y,1/2-z
1/2-x,1/2-y,-z
1/2+x,y,1/2-z
1/2-x,1/2+y,z
1/2+x,-y,1/2+z
loop_
_atom_site_type_symbol
_atom_site_label
_atom_site_fract_x
_atom_site_fract_y
_atom_site_fract_z
Si Si1 0.175140 0.810890 0.451130
Si Si2 0.323631 0.923973 0.599861
Si Si3 0.176709 0.850111 0.683149
Si Si4 0.830709 0.511450 0.927271
Si Si5 0.675994 0.401790 0.042389
Si Si6 0.326154 0.774383 0.913594
O O1 0.261743 0.855400 0.431381
O O2 0.229571 0.770585 0.406824
O O3 0.217196 0.799852 0.522741
O O4 0.000000 0.818845 0.441575
O O5 0.500000 0.923940 0.611599
O O6 0.244698 0.893399 0.650854
O O7 0.282098 0.906194 0.530848
O O8 0.261822 0.973858 0.609825
O O9 0.250000 0.842914 0.750000
O O10 0.216225 0.806193 0.643633
O O11 0.000000 0.857071 0.689271
O O12 0.000000 0.513298 0.901213
O O13 0.828778 0.500000 0.000000
O O14 0.752141 0.559044 0.917216
O O15 0.500000 0.404662 0.053228
O O16 0.500000 0.761062 0.914124
#
# Coordination Sequence:
#
# PCOD8261612 Si02
#       6
#    16  16  16  16  16  16
#     4  10  18  29  48  71  97 128 163 200 247 301
#     4  10  19  31  47  68  96 129 164 201 242 289
#     4  11  22  36  52  71  97 130 169 208 248 293
#     4   9  17  28  44  66  95 128 160 194 236 283
#     4  10  18  28  45  70 100 130 161 196 240 294
#     4   9  19  33  47  67  96 128 162 203 249 295
#
# _framework density 16.802195000000001
#
# number of rings (size 3 to 8) (size 9 to 14) (size 15 to 20)
#    0.000    2.167    1.667    2.500    0.000    5.333 
#    0.000    0.000    0.000    0.000    0.000    1.167 
#    0.000    2.667    0.000    0.000    0.000    0.000 
#
# Total GULP energy -595327.312366 kJ/mol
# GULP energy per Si atom -12402.652341 kJ/mol
# Density = 1.676395 g / cm^3
# Si number density = 16.802195 Si / 1000 Ang^3
#
#
#
# Elastic Constant Matrix: (Units=GPa)
#
#
# Indices 1 2 3 4 5 6 
#
# 1 90.7918 65.8529 35.7225 0.0000 0.0000 0.0000
# 2 65.8529 150.4774 44.0850 0.0000 0.0000 0.0000
# 3 35.7225 44.0850 61.7808 0.0000 0.0000 0.0000
# 4 0.0000 0.0000 0.0000 20.2775 0.0000 0.0000
# 5 0.0000 0.0000 0.0000 0.0000 20.8178 0.0000
# 6 0.0000 0.0000 0.0000 0.0000 0.0000 37.9956
#
#
#
# Elastic Compliance Matrix: (Units=1/GPa)
#
#
# Indices 1 2 3 4 5 6 
#
# 1 0.017715 -0.006008 -0.005956 0.000000 0.000000 0.000000
# 2 -0.006008 0.010439 -0.003975 0.000000 0.000000 0.000000
# 3 -0.005956 -0.003975 0.022467 0.000000 0.000000 0.000000
# 4 0.000000 0.000000 0.000000 0.049316 0.000000 0.000000
# 5 0.000000 0.000000 0.000000 0.000000 0.048036 0.000000
# 6 0.000000 0.000000 0.000000 0.000000 0.000000 0.026319
#
#
# Mechanical properties :
#
#
# Convention : Reuss Voigt Hill
#
# Bulk Modulus (GPa) = 53.35402 66.04120 59.69761
# Shear Modulus (GPa) = 23.53844 26.31080 24.92462
#
# Velocity S-wave (km/s) = 3.74694 3.96146 3.85569
# Velocity P-wave (km/s) = 7.10933 7.76625 7.44504
#
# Compressibility (1/GPa) = 0.01874273
#
# Stress axis : x y z
#
# Youngs Moduli (GPa) = 56.44872 95.79181 44.50958
#
# Poissons Ratio (x) = 0.57548 0.26511
# Poissons Ratio (y) = 0.33912 0.17695
# Poissons Ratio (z) = 0.33622 0.38082
#
# Static dielectric constant tensor:
#      x y z
#    x 3.252320 0.000000 0.000000 
#    y 0.000000 3.299170 0.000000 
#    z 0.000000 0.000000 2.633150 
# 
# 
# High freq. dielectric constant tensor:
#      x y z
#    x 1.665200 0.000000 0.000000 
#    y 0.000000 1.662090 0.000000 
#    z 0.000000 0.000000 1.585290 
# 
# From -- ./inp_files/36968.got.cif
#   From: 2010.03.12/outbox.cif.g09.slc.cpg/sg64_19_cif.got.tgz:36968.got - 2010.04.10 20:19:32.
