data_PCOD8261584
_publ_section_title
;
Structure prediction by ZEFSAII (Michael W. Deem and Ramdas Pophale) SiO2 
 PCOD8261584
Probable space group: C M C A
;
_chemical_formula_sum "Si O2"
_cell_formula_units_Z 64
_cell_length_a 14.128263
_cell_length_b 22.643332
_cell_length_c 8.984399
_cell_angle_alpha 90.000000
_cell_angle_beta 90.000000
_cell_angle_gamma 90.000000
_cell_volume 2874.207617
_symmetry_space_group_name_H-M "C M C A"
_symmetry_group_IT_number 64
_symmetry_cell_setting 'orthorhombic'
loop_
_space_group_symop_operation_xyz
x,y,z
-x,1/2-y,1/2+z
x,-y,-z
-x,1/2+y,1/2-z
-x,-y,-z
x,1/2+y,1/2-z
-x,y,z
x,1/2-y,1/2+z
1/2+x,1/2+y,z
1/2-x,-y,1/2+z
1/2+x,1/2-y,-z
1/2-x,y,1/2-z
1/2-x,1/2-y,-z
1/2+x,y,1/2-z
1/2-x,1/2+y,z
1/2+x,-y,1/2+z
loop_
_atom_site_type_symbol
_atom_site_label
_atom_site_fract_x
_atom_site_fract_y
_atom_site_fract_z
Si Si1 0.655181 0.091612 0.076258
Si Si2 0.000000 0.178383 0.314046
Si Si3 0.892898 0.523866 0.785354
Si Si4 0.500000 0.301956 0.032422
Si Si5 0.184471 0.373399 0.384193
O O1 0.593416 0.141283 0.154093
O O2 0.666299 0.035950 0.187131
O O3 0.605649 0.068005 0.926260
O O4 0.756156 0.121891 0.037701
O O5 0.000000 0.234590 0.420026
O O6 0.000000 0.197727 0.143998
O O7 0.845246 0.558829 0.649542
O O8 0.000000 0.505911 0.745761
O O9 0.406903 0.332942 0.098171
O O10 0.250000 0.347740 0.250000
#
# Coordination Sequence:
#
# PCOD8261584 Si02
#       5
#    16   8  16   8  16
#     4  10  21  43  69 110 141 196 229 301 366 437
#     4  12  28  48  77  96 148 192 260 302 357 435
#     4  10  17  40  76 101 141 188 234 289 373 439
#     4  12  30  51  71 107 139 204 249 312 359 423
#     4  10  24  45  75 105 151 185 246 301 363 449
#
# _framework density 22.267005000000001
#
# number of rings (size 3 to 8) (size 9 to 14) (size 15 to 20)
#    0.000    1.500    3.750    0.750    7.000    2.000 
#   27.000    1.250    0.000    0.000    0.000    0.000 
#    0.000    0.000    0.000    0.000    0.000    0.000 
#
# Total GULP energy -396847.568608 kJ/mol
# GULP energy per Si atom -12401.486519 kJ/mol
# Density = 2.221632 g / cm^3
# Si number density = 22.267005 Si / 1000 Ang^3
#
#
#
# Elastic Constant Matrix: (Units=GPa)
#
#
# Indices 1 2 3 4 5 6 
#
# 1 122.9397 36.7356 44.4985 0.0000 0.0000 0.0000
# 2 36.7356 137.1348 56.7157 0.0000 0.0000 0.0000
# 3 44.4985 56.7157 91.0555 0.0000 0.0000 0.0000
# 4 0.0000 0.0000 0.0000 36.6893 0.0000 0.0000
# 5 0.0000 0.0000 0.0000 0.0000 24.7282 0.0000
# 6 0.0000 0.0000 0.0000 0.0000 0.0000 -4.0816
#
#
#
# Elastic Compliance Matrix: (Units=1/GPa)
#
#
# Indices 1 2 3 4 5 6 
#
# 1 0.009961 -0.000882 -0.004318 0.000000 0.000000 0.000000
# 2 -0.000882 0.009901 -0.005736 0.000000 0.000000 0.000000
# 3 -0.004318 -0.005736 0.016665 0.000000 0.000000 0.000000
# 4 0.000000 0.000000 0.000000 0.027256 0.000000 0.000000
# 5 0.000000 0.000000 0.000000 0.000000 0.040440 0.000000
# 6 0.000000 0.000000 0.000000 0.000000 0.000000 -0.245004
#
#
# Mechanical properties :
#
#
# Convention : Reuss Voigt Hill
#
# Bulk Modulus (GPa) = 68.23989 69.66995 68.95492
# Shear Modulus (GPa) = -43.84984 25.67920 -9.08532
#
# Velocity S-wave (km/s) = -4.44247 3.39962 -2.02213
# Velocity P-wave (km/s) = 2.09731 6.83859 5.05791
#
# Compressibility (1/GPa) = 0.01465419
#
# Stress axis : x y z
#
# Youngs Moduli (GPa) = 100.39451 101.00446 60.00579
#
# Poissons Ratio (x) = 0.08912 0.25911
# Poissons Ratio (y) = 0.08859 0.34417
# Poissons Ratio (z) = 0.43352 0.57931
#
# Static dielectric constant tensor:
#      x y z
#    x 4.223790 0.000000 0.000000 
#    y 0.000000 3.838060 0.000000 
#    z 0.000000 0.000000 3.954160 
# 
# 
# High freq. dielectric constant tensor:
#      x y z
#    x 1.894460 0.000000 0.000000 
#    y 0.000000 1.861390 0.000000 
#    z 0.000000 0.000000 1.868650 
# 
# From -- ./inp_files/5616.got.cif
#   From: 2010.03.12/outbox.cif.g09.slc.cpg/sg64_3_cif.got.tgz:5616.got - 2010.04.10 20:19:32.
