data_PCOD8261056
_publ_section_title
;
Structure prediction by ZEFSAII (Michael W. Deem and Ramdas Pophale) SiO2 
 PCOD8261056
Probable space group: C M C M
;
_chemical_formula_sum "Si O2"
_cell_formula_units_Z 68
_cell_length_a 9.556572
_cell_length_b 16.315662
_cell_length_c 19.464011
_cell_angle_alpha 90.000000
_cell_angle_beta 90.000000
_cell_angle_gamma 90.000000
_cell_volume 3034.863604
_symmetry_space_group_name_H-M "C M C M"
_symmetry_group_IT_number 63
_symmetry_cell_setting 'orthorhombic'
loop_
_space_group_symop_operation_xyz
x,y,z
-x,-y,1/2+z
x,-y,-z
-x,y,1/2-z
-x,-y,-z
x,y,1/2-z
-x,y,z
x,-y,1/2+z
1/2+x,1/2+y,z
1/2-x,1/2-y,1/2+z
1/2+x,1/2-y,-z
1/2-x,1/2+y,1/2-z
1/2-x,1/2-y,-z
1/2+x,1/2+y,1/2-z
1/2-x,1/2+y,z
1/2+x,1/2-y,1/2+z
loop_
_atom_site_type_symbol
_atom_site_label
_atom_site_fract_x
_atom_site_fract_y
_atom_site_fract_z
Si Si1 0.500000 0.256751 0.402888
Si Si2 0.000000 0.181139 0.361047
Si Si3 0.163592 0.927943 0.250000
Si Si4 0.000000 0.661337 0.957913
Si Si5 0.500000 0.182585 0.250000
Si Si6 0.000000 0.986469 0.922424
Si Si7 0.774192 0.111836 0.892514
Si Si8 0.299427 0.378485 0.750000
O O1 0.500000 0.184673 0.460931
O O2 0.500000 0.231675 0.322398
O O3 0.637081 0.310551 0.418565
O O4 0.139722 0.170227 0.315688
O O5 0.000000 0.264112 0.403910
O O6 0.000000 0.110024 0.416391
O O7 0.252527 0.884868 0.310997
O O8 0.000000 0.898189 0.250000
O O9 0.156198 0.026859 0.250000
O O10 0.136142 0.606777 0.939755
O O11 0.366740 0.123914 0.250000
O O12 0.139862 0.026731 0.892624
O O13 0.000000 0.000000 0.000000
#
# Coordination Sequence:
#
# PCOD8261056 Si02
#       8
#     8   8   8   8   4   8  16   8
#     4  11  23  45  64  93 135 180 223 266 343 427
#     4  11  21  44  66  95 131 179 218 277 336 403
#     4  12  19  45  71  94 129 180 244 267 320 415
#     4  12  27  42  65 105 147 163 222 303 347 386
#     4  12  26  38  64 100 126 176 220 274 354 402
#     4  11  22  41  70  91 124 185 239 255 334 429
#     4  11  23  42  70  97 129 185 221 284 335 402
#     4  11  22  39  67  94 134 166 226 287 322 393
#
# _framework density 22.406279000000001
#
# number of rings (size 3 to 8) (size 9 to 14) (size 15 to 20)
#    0.000    0.706    5.882    4.235    0.000    5.176 
#    0.000    0.588    0.000    0.000    0.000    0.000 
#    0.000    0.000    0.000    0.000    0.000    0.000 
#
# Total GULP energy -421339.734771 kJ/mol
# GULP energy per Si atom -12392.345140 kJ/mol
# Density = 2.235528 g / cm^3
# Si number density = 22.406279 Si / 1000 Ang^3
#
#
#
# Elastic Constant Matrix: (Units=GPa)
#
#
# Indices 1 2 3 4 5 6 
#
# 1 133.1003 9.0889 14.7827 0.0000 0.0000 0.0000
# 2 9.0889 51.0708 -4.0131 0.0000 0.0000 0.0000
# 3 14.7827 -4.0131 113.6491 0.0000 0.0000 0.0000
# 4 0.0000 0.0000 0.0000 34.9206 0.0000 0.0000
# 5 0.0000 0.0000 0.0000 0.0000 15.9412 0.0000
# 6 0.0000 0.0000 0.0000 0.0000 0.0000 -2.5890
#
#
#
# Elastic Compliance Matrix: (Units=1/GPa)
#
#
# Indices 1 2 3 4 5 6 
#
# 1 0.007730 -0.001459 -0.001057 0.000000 0.000000 0.000000
# 2 -0.001459 0.019910 0.000893 0.000000 0.000000 0.000000
# 3 -0.001057 0.000893 0.008968 0.000000 0.000000 0.000000
# 4 0.000000 0.000000 0.000000 0.028636 0.000000 0.000000
# 5 0.000000 0.000000 0.000000 0.000000 0.062731 0.000000
# 6 0.000000 0.000000 0.000000 0.000000 0.000000 -0.386255
#
#
# Mechanical properties :
#
#
# Convention : Reuss Voigt Hill
#
# Bulk Modulus (GPa) = 29.97363 37.50416 33.73889
# Shear Modulus (GPa) = -20.49915 28.18534 3.84310
#
# Velocity S-wave (km/s) = -3.02799 3.55057 1.31107
# Velocity P-wave (km/s) = 1.08694 5.79511 4.16922
#
# Compressibility (1/GPa) = 0.03336266
#
# Stress axis : x y z
#
# Youngs Moduli (GPa) = 129.36374 50.22495 111.50728
#
# Poissons Ratio (x) = 0.07327 0.11786
# Poissons Ratio (y) = 0.18871 -0.09955
# Poissons Ratio (z) = 0.13674 -0.04484
#
# Static dielectric constant tensor:
#      x y z
#    x 3.988440 0.000000 0.000000 
#    y 0.000000 3.390740 0.000000 
#    z 0.000000 0.000000 4.237560 
# 
# 
# High freq. dielectric constant tensor:
#      x y z
#    x 1.870190 0.000000 0.000000 
#    y 0.000000 1.866610 0.000000 
#    z 0.000000 0.000000 1.905750 
# 
# From -- ./inp_files/50558.got.cif
#   From: 2010.03.12/outbox.cif.g09.slc.cpg/sg63_26_cif.got.tgz:50558.got - 2010.04.10 19:34:48.
