data_PCOD8261839
_publ_section_title
;
Structure prediction by ZEFSAII (Michael W. Deem and Ramdas Pophale) SiO2 
 PCOD8261839
Probable space group: C M C A
;
_chemical_formula_sum "Si O2"
_cell_formula_units_Z 80
_cell_length_a 16.913560
_cell_length_b 24.077260
_cell_length_c 9.277189
_cell_angle_alpha 90.000000
_cell_angle_beta 90.000000
_cell_angle_gamma 90.000000
_cell_volume 3777.969916
_symmetry_space_group_name_H-M "C M C A"
_symmetry_group_IT_number 64
_symmetry_cell_setting 'orthorhombic'
loop_
_space_group_symop_operation_xyz
x,y,z
-x,1/2-y,1/2+z
x,-y,-z
-x,1/2+y,1/2-z
-x,-y,-z
x,1/2+y,1/2-z
-x,y,z
x,1/2-y,1/2+z
1/2+x,1/2+y,z
1/2-x,-y,1/2+z
1/2+x,1/2-y,-z
1/2-x,y,1/2-z
1/2-x,1/2-y,-z
1/2+x,y,1/2-z
1/2-x,1/2+y,z
1/2+x,-y,1/2+z
loop_
_atom_site_type_symbol
_atom_site_label
_atom_site_fract_x
_atom_site_fract_y
_atom_site_fract_z
Si Si1 0.907049 0.692771 0.642695
Si Si2 0.407753 0.302187 0.477310
Si Si3 0.152171 0.581209 0.040075
Si Si4 0.091383 0.011911 0.722558
Si Si5 0.695148 0.411410 0.113383
O O1 0.878291 0.746651 0.555695
O O2 0.859476 0.641183 0.576555
O O3 0.000000 0.681410 0.621562
O O4 0.885355 0.701078 0.809766
O O5 0.500000 0.310098 0.500874
O O6 0.365686 0.353846 0.554757
O O7 0.126831 0.548519 0.183919
O O8 0.101585 0.555540 0.908210
O O9 0.246473 0.573570 0.018350
O O10 0.139172 0.035451 0.859077
O O11 0.000000 0.006383 0.763293
O O12 0.750000 0.396909 0.250000
#
# Coordination Sequence:
#
# PCOD8261839 Si02
#       5
#    16  16  16  16  16
#     4  10  20  35  57  83 115 157 198 244 293 356
#     4  10  19  34  58  84 114 152 199 245 293 354
#     4  10  19  32  55  85 113 148 195 250 296 349
#     4  10  18  32  60  86 108 150 201 244 291 359
#     4  10  19  33  55  83 115 150 189 245 302 362
#
# _framework density 21.175393
#
# number of rings (size 3 to 8) (size 9 to 14) (size 15 to 20)
#    0.000    2.000    4.000    3.000    0.000    0.800 
#    0.000    0.000   26.400    0.000    0.000   40.600 
#    0.000    0.000    0.000    0.000    0.000    0.000 
#
# Total GULP energy -496066.181208 kJ/mol
# GULP energy per Si atom -12401.654530 kJ/mol
# Density = 2.112720 g / cm^3
# Si number density = 21.175393 Si / 1000 Ang^3
#
#
#
# Elastic Constant Matrix: (Units=GPa)
#
#
# Indices 1 2 3 4 5 6 
#
# 1 136.4491 80.9545 41.3699 0.0000 0.0000 0.0000
# 2 80.9545 92.1331 42.4042 0.0000 0.0000 0.0000
# 3 41.3699 42.4042 31.6645 0.0000 0.0000 0.0000
# 4 0.0000 0.0000 0.0000 30.2767 0.0000 0.0000
# 5 0.0000 0.0000 0.0000 0.0000 18.0051 0.0000
# 6 0.0000 0.0000 0.0000 0.0000 0.0000 33.3136
#
#
#
# Elastic Compliance Matrix: (Units=1/GPa)
#
#
# Indices 1 2 3 4 5 6 
#
# 1 0.015643 -0.011309 -0.005293 0.000000 0.000000 0.000000
# 2 -0.011309 0.036467 -0.034060 0.000000 0.000000 0.000000
# 3 -0.005293 -0.034060 0.084109 0.000000 0.000000 0.000000
# 4 0.000000 0.000000 0.000000 0.033029 0.000000 0.000000
# 5 0.000000 0.000000 0.000000 0.000000 0.055540 0.000000
# 6 0.000000 0.000000 0.000000 0.000000 0.000000 0.030018
#
#
# Mechanical properties :
#
#
# Convention : Reuss Voigt Hill
#
# Bulk Modulus (GPa) = 28.65789 65.52268 47.09028
# Shear Modulus (GPa) = 13.59577 22.68697 18.14137
#
# Velocity S-wave (km/s) = 2.53663 3.27675 2.93015
# Velocity P-wave (km/s) = 4.70556 6.73247 5.80812
#
# Compressibility (1/GPa) = 0.03489440
#
# Stress axis : x y z
#
# Youngs Moduli (GPa) = 63.92594 27.42215 11.88931
#
# Poissons Ratio (x) = 0.31011 0.06293
# Poissons Ratio (y) = 0.72293 0.40495
# Poissons Ratio (z) = 0.33838 0.93400
#
# Static dielectric constant tensor:
#      x y z
#    x 3.913760 0.000000 0.000000 
#    y 0.000000 3.946010 0.000000 
#    z 0.000000 0.000000 3.511050 
# 
# 
# High freq. dielectric constant tensor:
#      x y z
#    x 1.835930 0.000000 0.000000 
#    y 0.000000 1.837470 0.000000 
#    z 0.000000 0.000000 1.786210 
# 
# From -- ./inp_files/7082.got.cif
#   From: 2010.03.12/outbox.cif.g09.slc.cpg/sg64_4_cif.got.tgz:7082.got - 2010.04.10 20:19:32.
