data_PCOD8261993
_publ_section_title
;
Structure prediction by ZEFSAII (Michael W. Deem and Ramdas Pophale) SiO2 
 PCOD8261993
Probable space group: C M C A
;
_chemical_formula_sum "Si O2"
_cell_formula_units_Z 112
_cell_length_a 9.473018
_cell_length_b 25.550188
_cell_length_c 28.722995
_cell_angle_alpha 90.000000
_cell_angle_beta 90.000000
_cell_angle_gamma 90.000000
_cell_volume 6952.038767
_symmetry_space_group_name_H-M "C M C A"
_symmetry_group_IT_number 64
_symmetry_cell_setting 'orthorhombic'
loop_
_space_group_symop_operation_xyz
x,y,z
-x,1/2-y,1/2+z
x,-y,-z
-x,1/2+y,1/2-z
-x,-y,-z
x,1/2+y,1/2-z
-x,y,z
x,1/2-y,1/2+z
1/2+x,1/2+y,z
1/2-x,-y,1/2+z
1/2+x,1/2-y,-z
1/2-x,y,1/2-z
1/2-x,1/2-y,-z
1/2+x,y,1/2-z
1/2-x,1/2+y,z
1/2+x,-y,1/2+z
loop_
_atom_site_type_symbol
_atom_site_label
_atom_site_fract_x
_atom_site_fract_y
_atom_site_fract_z
Si Si1 0.337115 0.188479 0.205974
Si Si2 0.833680 0.754191 0.547477
Si Si3 0.167807 0.156007 0.892879
Si Si4 0.836258 0.189550 0.793899
Si Si5 0.332949 0.942556 0.556125
Si Si6 0.667131 0.559930 0.951081
Si Si7 0.334722 0.144424 0.106875
O O1 0.500000 0.178807 0.217206
O O2 0.250000 0.166844 0.250000
O O3 0.306334 0.249444 0.197455
O O4 0.290615 0.158065 0.159591
O O5 0.750000 0.750000 0.500000
O O6 0.779368 0.706946 0.579713
O O7 0.794413 0.808011 0.572952
O O8 0.000000 0.750086 0.537492
O O9 0.218688 0.158667 0.839431
O O10 0.231805 0.103867 0.916835
O O11 0.000000 0.155326 0.893831
O O12 0.750000 0.167858 0.750000
O O13 0.000000 0.179032 0.784254
O O14 0.500000 0.934476 0.562029
O O15 0.282242 0.928726 0.503765
O O16 0.252269 0.906531 0.592628
O O17 0.287518 0.002506 0.566452
O O18 0.500000 0.562955 0.951267
O O19 0.500000 0.132152 0.103659
#
# Coordination Sequence:
#
# PCOD8261993 Si02
#       7
#    16  16  16  16  16  16  16
#     4   9  17  30  46  66  91 119 151 186 224 271
#     4  10  19  30  44  66  95 123 149 178 219 273
#     4   9  15  27  47  66  88 121 151 178 224 277
#     4   9  16  28  46  66  88 116 149 183 223 272
#     4   9  17  30  48  70  91 117 160 200 223 254
#     4   8  15  28  47  69  91 117 156 200 226 254
#     4  10  19  31  46  67  97 125 148 182 232 282
#
# _framework density 16.110382000000001
#
# number of rings (size 3 to 8) (size 9 to 14) (size 15 to 20)
#    0.000    2.857    1.429    1.714    0.000    2.286 
#    0.000    2.143    0.000    3.429    0.000    4.000 
#    0.000    0.000    0.000    0.000    0.000    0.000 
#
# Total GULP energy -694256.473774 kJ/mol
# GULP energy per Si atom -12397.437032 kJ/mol
# Density = 1.607371 g / cm^3
# Si number density = 16.110382 Si / 1000 Ang^3
#
#
#
# Elastic Constant Matrix: (Units=GPa)
#
#
# Indices 1 2 3 4 5 6 
#
# 1 34.4730 28.5447 43.8668 0.0000 0.0000 0.0000
# 2 28.5447 88.8758 59.7303 0.0000 0.0000 0.0000
# 3 43.8668 59.7303 139.3198 0.0000 0.0000 0.0000
# 4 0.0000 0.0000 0.0000 25.6991 0.0000 0.0000
# 5 0.0000 0.0000 0.0000 0.0000 29.4803 0.0000
# 6 0.0000 0.0000 0.0000 0.0000 0.0000 18.5831
#
#
#
# Elastic Compliance Matrix: (Units=1/GPa)
#
#
# Indices 1 2 3 4 5 6 
#
# 1 0.052186 -0.008032 -0.012988 0.000000 0.000000 0.000000
# 2 -0.008032 0.017042 -0.004777 0.000000 0.000000 0.000000
# 3 -0.012988 -0.004777 0.013315 0.000000 0.000000 0.000000
# 4 0.000000 0.000000 0.000000 0.038912 0.000000 0.000000
# 5 0.000000 0.000000 0.000000 0.000000 0.033921 0.000000
# 6 0.000000 0.000000 0.000000 0.000000 0.000000 0.053812
#
#
# Mechanical properties :
#
#
# Convention : Reuss Voigt Hill
#
# Bulk Modulus (GPa) = 32.31152 58.55027 45.43089
# Shear Modulus (GPa) = 18.44334 23.45428 20.94881
#
# Velocity S-wave (km/s) = 3.38718 3.81970 3.60992
# Velocity P-wave (km/s) = 5.94955 7.47499 6.75547
#
# Compressibility (1/GPa) = 0.03094871
#
# Stress axis : x y z
#
# Youngs Moduli (GPa) = 19.16208 58.67818 75.10111
#
# Poissons Ratio (x) = 0.47132 0.97541
# Poissons Ratio (y) = 0.15391 0.35879
# Poissons Ratio (z) = 0.24888 0.28033
#
# Static dielectric constant tensor:
#      x y z
#    x 2.751200 0.000000 0.000000 
#    y 0.000000 3.138500 0.000000 
#    z 0.000000 0.000000 3.223090 
# 
# 
# High freq. dielectric constant tensor:
#      x y z
#    x 1.588940 0.000000 0.000000 
#    y 0.000000 1.607420 0.000000 
#    z 0.000000 0.000000 1.623970 
# 
# From -- ./inp_files/44526.got.cif
#   From: 2010.03.12/outbox.cif.g09.slc.cpg/sg64_23_cif.got.tgz:44526.got - 2010.04.10 20:19:32.
