data_PCOD8261340
_publ_section_title
;
Structure prediction by ZEFSAII (Michael W. Deem and Ramdas Pophale) SiO2 
 PCOD8261340
Probable space group: C M C M
;
_chemical_formula_sum "Si O2"
_cell_formula_units_Z 96
_cell_length_a 9.722684
_cell_length_b 30.025122
_cell_length_c 19.293971
_cell_angle_alpha 90.000000
_cell_angle_beta 90.000000
_cell_angle_gamma 90.000000
_cell_volume 5632.388110
_symmetry_space_group_name_H-M "C M C M"
_symmetry_group_IT_number 63
_symmetry_cell_setting 'orthorhombic'
loop_
_space_group_symop_operation_xyz
x,y,z
-x,-y,1/2+z
x,-y,-z
-x,y,1/2-z
-x,-y,-z
x,y,1/2-z
-x,y,z
x,-y,1/2+z
1/2+x,1/2+y,z
1/2-x,1/2-y,1/2+z
1/2+x,1/2-y,-z
1/2-x,1/2+y,1/2-z
1/2-x,1/2-y,-z
1/2+x,1/2+y,1/2-z
1/2-x,1/2+y,z
1/2+x,1/2-y,1/2+z
loop_
_atom_site_type_symbol
_atom_site_label
_atom_site_fract_x
_atom_site_fract_y
_atom_site_fract_z
Si Si1 0.336751 0.908335 0.562569
Si Si2 0.336231 0.979455 0.671285
Si Si3 0.164035 0.435927 0.413856
Si Si4 0.343044 0.192196 0.442628
Si Si5 0.656518 0.231103 0.904825
Si Si6 0.163710 0.646332 0.826805
O O1 0.500000 0.906499 0.557972
O O2 0.287562 0.934847 0.631019
O O3 0.283442 0.934125 0.493496
O O4 0.282155 0.857654 0.565676
O O5 0.277190 0.979381 0.750000
O O6 0.500000 0.981722 0.674113
O O7 0.278009 0.021276 0.627438
O O8 0.223010 0.391956 0.376405
O O9 0.000000 0.437189 0.411709
O O10 0.500000 0.194885 0.416051
O O11 0.332435 0.206774 0.521766
O O12 0.250326 0.225267 0.397015
O O13 0.500000 0.245578 0.889749
O O14 0.713022 0.195241 0.849842
O O15 0.219083 0.636951 0.750000
O O16 0.000000 0.644947 0.830131
#
# Coordination Sequence:
#
# PCOD8261340 Si02
#       6
#    16  16  16  16  16  16
#     4   9  15  24  37  53  76 107 139 169 203 247
#     4   9  16  23  32  50  78 110 138 164 201 251
#     4   9  14  22  35  53  75 103 138 171 204 247
#     4   9  16  27  43  61  82 111 143 172 206 249
#     4   9  16  27  42  61  84 108 139 176 212 248
#     4   9  15  23  37  57  81 106 133 172 218 253
#
# _framework density 17.044280000000001
#
# number of rings (size 3 to 8) (size 9 to 14) (size 15 to 20)
#    0.000    3.000    1.667    1.000    0.000    4.000 
#    0.000    0.833    0.000    1.500    0.000    0.000 
#    0.000    4.000    0.000    1.333    0.000    0.000 
#
# Total GULP energy -594889.563843 kJ/mol
# GULP energy per Si atom -12393.532580 kJ/mol
# Density = 1.700549 g / cm^3
# Si number density = 17.044280 Si / 1000 Ang^3
#
#
#
# Elastic Constant Matrix: (Units=GPa)
#
#
# Indices 1 2 3 4 5 6 
#
# 1 19.0420 23.6599 9.4380 0.0000 0.0000 0.0000
# 2 23.6599 147.6099 62.3444 0.0000 0.0000 0.0000
# 3 9.4380 62.3444 100.6157 0.0000 0.0000 0.0000
# 4 0.0000 0.0000 0.0000 27.1600 0.0000 0.0000
# 5 0.0000 0.0000 0.0000 0.0000 6.3945 0.0000
# 6 0.0000 0.0000 0.0000 0.0000 0.0000 16.8370
#
#
#
# Elastic Compliance Matrix: (Units=1/GPa)
#
#
# Indices 1 2 3 4 5 6 
#
# 1 0.065593 -0.010721 0.000490 0.000000 0.000000 0.000000
# 2 -0.010721 0.010928 -0.005766 0.000000 0.000000 0.000000
# 3 0.000490 -0.005766 0.013466 0.000000 0.000000 0.000000
# 4 0.000000 0.000000 0.000000 0.036819 0.000000 0.000000
# 5 0.000000 0.000000 0.000000 0.000000 0.156385 0.000000
# 6 0.000000 0.000000 0.000000 0.000000 0.000000 0.059393
#
#
# Mechanical properties :
#
#
# Convention : Reuss Voigt Hill
#
# Bulk Modulus (GPa) = 17.24320 50.90583 34.07451
# Shear Modulus (GPa) = 12.69334 21.53332 17.11333
#
# Velocity S-wave (km/s) = 2.73193 3.55826 3.17211
# Velocity P-wave (km/s) = 4.48218 6.84202 5.78373
#
# Compressibility (1/GPa) = 0.05799388
#
# Stress axis : x y z
#
# Youngs Moduli (GPa) = 15.24551 91.50588 74.26376
#
# Poissons Ratio (x) = 0.98101 -0.03639
# Poissons Ratio (y) = 0.16344 0.42819
# Poissons Ratio (z) = -0.00747 0.52761
#
# Static dielectric constant tensor:
#      x y z
#    x 2.536720 0.000000 0.000000 
#    y 0.000000 3.427390 0.000000 
#    z 0.000000 0.000000 3.297870 
# 
# 
# High freq. dielectric constant tensor:
#      x y z
#    x 1.568560 0.000000 0.000000 
#    y 0.000000 1.672730 0.000000 
#    z 0.000000 0.000000 1.654000 
# 
# From -- ./inp_files/42658.got.cif
#   From: 2010.03.12/outbox.cif.g09.slc.cpg/sg63_22_cif.got.tgz:42658.got - 2010.04.10 19:34:48.
