data_PCOD8261241
_publ_section_title
;
Structure prediction by ZEFSAII (Michael W. Deem and Ramdas Pophale) SiO2 
 PCOD8261241
Probable space group: C M C M
;
_chemical_formula_sum "Si O2"
_cell_formula_units_Z 64
_cell_length_a 22.341477
_cell_length_b 13.441506
_cell_length_c 9.982052
_cell_angle_alpha 90.000000
_cell_angle_beta 90.000000
_cell_angle_gamma 90.000000
_cell_volume 2997.641131
_symmetry_space_group_name_H-M "C M C M"
_symmetry_group_IT_number 63
_symmetry_cell_setting 'orthorhombic'
loop_
_space_group_symop_operation_xyz
x,y,z
-x,-y,1/2+z
x,-y,-z
-x,y,1/2-z
-x,-y,-z
x,y,1/2-z
-x,y,z
x,-y,1/2+z
1/2+x,1/2+y,z
1/2-x,1/2-y,1/2+z
1/2+x,1/2-y,-z
1/2-x,1/2+y,1/2-z
1/2-x,1/2-y,-z
1/2+x,1/2+y,1/2-z
1/2-x,1/2+y,z
1/2+x,1/2-y,1/2+z
loop_
_atom_site_type_symbol
_atom_site_label
_atom_site_fract_x
_atom_site_fract_y
_atom_site_fract_z
Si Si1 0.000000 0.264857 0.250000
Si Si2 0.133059 0.411707 0.750000
Si Si3 0.500000 0.174513 0.250000
Si Si4 0.000000 0.159823 0.970749
Si Si5 0.818152 0.720691 0.478931
Si Si6 0.376211 0.578878 0.600706
Si Si7 0.873555 0.354763 0.250000
O O1 0.000000 0.191482 0.375560
O O2 0.944348 0.339427 0.250000
O O3 0.061479 0.389551 0.750000
O O4 0.167962 0.371853 0.881179
O O5 0.142176 0.529558 0.750000
O O6 0.500000 0.240313 0.382863
O O7 0.054928 0.089341 0.937003
O O8 0.750000 0.750000 0.500000
O O9 0.847400 0.813923 0.407101
O O10 0.846524 0.699693 0.621972
O O11 0.345312 0.500000 0.500000
O O12 0.368502 0.536315 0.750000
#
# Coordination Sequence:
#
# PCOD8261241 Si02
#       7
#     4   8   4   8  16  16   8
#     4  12  23  40  69 108 142 178 225 296 363 424
#     4  12  24  47  75 104 139 182 234 294 358 418
#     4  12  19  44  77  94 138 186 223 290 371 420
#     4  12  21  42  68  94 145 181 220 285 360 408
#     4  12  26  49  69  98 145 187 231 289 348 418
#     4  12  26  45  71 102 135 183 236 290 355 416
#     4  12  26  43  75 108 137 180 236 290 354 426
#
# _framework density 21.350121999999999
#
# number of rings (size 3 to 8) (size 9 to 14) (size 15 to 20)
#    0.000    0.000    7.500    2.250    3.500    2.000 
#    0.000    3.750    0.000    0.000    0.000    0.000 
#    0.000    0.000    0.000    0.000    0.000    0.000 
#
# Total GULP energy -396883.968910 kJ/mol
# GULP energy per Si atom -12402.624028 kJ/mol
# Density = 2.130153 g / cm^3
# Si number density = 21.350122 Si / 1000 Ang^3
#
#
#
# Elastic Constant Matrix: (Units=GPa)
#
#
# Indices 1 2 3 4 5 6 
#
# 1 133.8031 19.3844 40.2677 0.0000 0.0000 0.0000
# 2 19.3844 86.1721 41.3561 0.0000 0.0000 0.0000
# 3 40.2677 41.3561 190.9272 0.0000 0.0000 0.0000
# 4 0.0000 0.0000 0.0000 37.5463 0.0000 0.0000
# 5 0.0000 0.0000 0.0000 0.0000 225.0878 0.0000
# 6 0.0000 0.0000 0.0000 0.0000 0.0000 2.6154
#
#
#
# Elastic Compliance Matrix: (Units=1/GPa)
#
#
# Indices 1 2 3 4 5 6 
#
# 1 0.008075 -0.001115 -0.001462 0.000000 0.000000 0.000000
# 2 -0.001115 0.013105 -0.002603 0.000000 0.000000 0.000000
# 3 -0.001462 -0.002603 0.006110 0.000000 0.000000 0.000000
# 4 0.000000 0.000000 0.000000 0.026634 0.000000 0.000000
# 5 0.000000 0.000000 0.000000 0.000000 0.004443 0.000000
# 6 0.000000 0.000000 0.000000 0.000000 0.000000 0.382352
#
#
# Mechanical properties :
#
#
# Convention : Reuss Voigt Hill
#
# Bulk Modulus (GPa) = 59.06778 68.10208 63.58493
# Shear Modulus (GPa) = 10.94759 73.70952 42.32856
#
# Velocity S-wave (km/s) = 2.26689 5.88210 4.45746
# Velocity P-wave (km/s) = 5.88031 8.83737 7.50590
#
# Compressibility (1/GPa) = 0.01692970
#
# Stress axis : x y z
#
# Youngs Moduli (GPa) = 123.83812 76.30693 163.67220
#
# Poissons Ratio (x) = 0.08509 0.23922
# Poissons Ratio (y) = 0.13808 0.42611
# Poissons Ratio (z) = 0.18100 0.19866
#
# Static dielectric constant tensor:
#      x y z
#    x 4.096960 0.000000 0.000000 
#    y 0.000000 3.874730 0.000000 
#    z 0.000000 0.000000 4.160090 
# 
# 
# High freq. dielectric constant tensor:
#      x y z
#    x 1.840270 0.000000 0.000000 
#    y 0.000000 1.841000 0.000000 
#    z 0.000000 0.000000 1.861120 
# 
# From -- ./inp_files/9715.got.cif
#   From: 2010.03.12/outbox.cif.g09.slc.cpg/sg63_5_cif.got.tgz:9715.got - 2010.04.10 19:34:48.
