data_PCOD8261482
_publ_section_title
;
Structure prediction by ZEFSAII (Michael W. Deem and Ramdas Pophale) SiO2 
 PCOD8261482
Probable space group: C M C A
;
_chemical_formula_sum "Si O2"
_cell_formula_units_Z 80
_cell_length_a 8.830720
_cell_length_b 28.296918
_cell_length_c 20.245318
_cell_angle_alpha 90.000000
_cell_angle_beta 90.000000
_cell_angle_gamma 90.000000
_cell_volume 5058.943786
_symmetry_space_group_name_H-M "C M C A"
_symmetry_group_IT_number 64
_symmetry_cell_setting 'orthorhombic'
loop_
_space_group_symop_operation_xyz
x,y,z
-x,1/2-y,1/2+z
x,-y,-z
-x,1/2+y,1/2-z
-x,-y,-z
x,1/2+y,1/2-z
-x,y,z
x,1/2-y,1/2+z
1/2+x,1/2+y,z
1/2-x,-y,1/2+z
1/2+x,1/2-y,-z
1/2-x,y,1/2-z
1/2-x,1/2-y,-z
1/2+x,y,1/2-z
1/2-x,1/2+y,z
1/2+x,-y,1/2+z
loop_
_atom_site_type_symbol
_atom_site_label
_atom_site_fract_x
_atom_site_fract_y
_atom_site_fract_z
Si Si1 0.178091 0.519504 0.428145
Si Si2 0.669065 0.113321 0.042987
Si Si3 0.667850 0.865458 0.099845
Si Si4 0.320186 0.952406 0.179647
Si Si5 0.678000 0.199281 0.508723
O O1 0.222573 0.500000 0.500000
O O2 0.234394 0.573395 0.420238
O O3 0.259401 0.490021 0.371936
O O4 0.000000 0.517375 0.416386
O O5 0.500000 0.116813 0.073898
O O6 0.657881 0.100704 0.964979
O O7 0.753886 0.164383 0.047918
O O8 0.500000 0.845547 0.116724
O O9 0.729568 0.899016 0.158352
O O10 0.778601 0.821419 0.082044
O O11 0.500000 0.956075 0.182675
O O12 0.250000 0.964085 0.250000
O O13 0.500000 0.202772 0.501109
O O14 0.750000 0.250000 0.500000
#
# Coordination Sequence:
#
# PCOD8261482 Si02
#       5
#    16  16  16  16  16
#     4  11  20  30  48  72  97 127 166 206 246 296
#     4   9  17  29  45  67  94 125 161 199 246 291
#     4   8  17  31  46  66  95 129 162 201 249 296
#     4  11  22  35  50  70 101 137 172 210 253 304
#     4  10  17  27  45  70  99 125 155 197 244 293
#
# _framework density 15.813578
#
# number of rings (size 3 to 8) (size 9 to 14) (size 15 to 20)
#    1.200    1.000    2.000    3.000    0.000    2.400 
#    0.000    0.000    0.000    0.000    0.000    1.400 
#    0.000    3.200    0.000    0.000    0.000    0.000 
#
# Total GULP energy -495541.572457 kJ/mol
# GULP energy per Si atom -12388.539311 kJ/mol
# Density = 1.577759 g / cm^3
# Si number density = 15.813578 Si / 1000 Ang^3
#
#
#
# Elastic Constant Matrix: (Units=GPa)
#
#
# Indices 1 2 3 4 5 6 
#
# 1 103.4454 62.7267 35.0318 0.0000 0.0000 0.0000
# 2 62.7267 130.9670 42.1725 0.0000 0.0000 0.0000
# 3 35.0318 42.1725 68.7531 0.0000 0.0000 0.0000
# 4 0.0000 0.0000 0.0000 34.5270 0.0000 0.0000
# 5 0.0000 0.0000 0.0000 0.0000 19.6227 0.0000
# 6 0.0000 0.0000 0.0000 0.0000 0.0000 30.6978
#
#
#
# Elastic Compliance Matrix: (Units=1/GPa)
#
#
# Indices 1 2 3 4 5 6 
#
# 1 0.014406 -0.005653 -0.003873 0.000000 0.000000 0.000000
# 2 -0.005653 0.011733 -0.004317 0.000000 0.000000 0.000000
# 3 -0.003873 -0.004317 0.019166 0.000000 0.000000 0.000000
# 4 0.000000 0.000000 0.000000 0.028963 0.000000 0.000000
# 5 0.000000 0.000000 0.000000 0.000000 0.050961 0.000000
# 6 0.000000 0.000000 0.000000 0.000000 0.000000 0.032576
#
#
# Mechanical properties :
#
#
# Convention : Reuss Voigt Hill
#
# Bulk Modulus (GPa) = 56.75270 64.78083 60.76677
# Shear Modulus (GPa) = 26.12832 27.85180 26.99006
#
# Velocity S-wave (km/s) = 4.06922 4.20129 4.13578
# Velocity P-wave (km/s) = 7.61870 8.03671 7.83049
#
# Compressibility (1/GPa) = 0.01762031
#
# Stress axis : x y z
#
# Youngs Moduli (GPa) = 69.41450 85.23076 52.17560
#
# Poissons Ratio (x) = 0.48178 0.20208
# Poissons Ratio (y) = 0.39238 0.22522
# Poissons Ratio (z) = 0.26885 0.36791
#
# Static dielectric constant tensor:
#      x y z
#    x 3.073270 0.000000 0.000000 
#    y 0.000000 2.922780 0.000000 
#    z 0.000000 0.000000 2.735120 
# 
# 
# High freq. dielectric constant tensor:
#      x y z
#    x 1.624030 0.000000 0.000000 
#    y 0.000000 1.601240 0.000000 
#    z 0.000000 0.000000 1.556220 
# 
# From -- ./inp_files/37308.got.cif
#   From: 2010.03.12/outbox.cif.g09.slc.cpg/sg64_19_cif.got.tgz:37308.got - 2010.04.10 20:19:32.
