data_PCOD8261829
_publ_section_title
;
Structure prediction by ZEFSAII (Michael W. Deem and Ramdas Pophale) SiO2 
 PCOD8261829
Probable space group: C M C A
;
_chemical_formula_sum "Si O2"
_cell_formula_units_Z 104
_cell_length_a 18.615539
_cell_length_b 25.221906
_cell_length_c 11.855350
_cell_angle_alpha 90.000000
_cell_angle_beta 90.000000
_cell_angle_gamma 90.000000
_cell_volume 5566.316520
_symmetry_space_group_name_H-M "C M C A"
_symmetry_group_IT_number 64
_symmetry_cell_setting 'orthorhombic'
loop_
_space_group_symop_operation_xyz
x,y,z
-x,1/2-y,1/2+z
x,-y,-z
-x,1/2+y,1/2-z
-x,-y,-z
x,1/2+y,1/2-z
-x,y,z
x,1/2-y,1/2+z
1/2+x,1/2+y,z
1/2-x,-y,1/2+z
1/2+x,1/2-y,-z
1/2-x,y,1/2-z
1/2-x,1/2-y,-z
1/2+x,y,1/2-z
1/2-x,1/2+y,z
1/2+x,-y,1/2+z
loop_
_atom_site_type_symbol
_atom_site_label
_atom_site_fract_x
_atom_site_fract_y
_atom_site_fract_z
Si Si1 0.816170 0.065046 0.173638
Si Si2 0.668693 0.715911 0.208413
Si Si3 0.664820 0.332428 0.244635
Si Si4 0.916198 0.119900 0.320808
Si Si5 0.255413 0.000000 0.000000
Si Si6 0.163434 0.608619 0.957695
Si Si7 0.688561 0.154239 0.499276
O O1 0.750000 0.086432 0.250000
O O2 0.884806 0.066729 0.257370
O O3 0.835189 0.103284 0.070765
O O4 0.793869 0.010052 0.112252
O O5 0.750000 0.711750 0.250000
O O6 0.634650 0.773838 0.227630
O O7 0.620827 0.672411 0.271916
O O8 0.668896 0.706284 0.073188
O O9 0.750000 0.331989 0.250000
O O10 0.633916 0.376726 0.332083
O O11 0.643633 0.346451 0.115927
O O12 0.901050 0.115013 0.453853
O O13 0.000000 0.122669 0.298653
O O14 0.304991 0.049410 0.966264
O O15 0.225480 0.651826 0.982418
#
# Coordination Sequence:
#
# PCOD8261829 Si02
#       7
#    16  16  16  16   8  16  16
#     4  10  18  36  60  86 112 146 192 243 285 343
#     4  10  18  32  58  80 114 152 194 245 291 345
#     4   9  20  28  52  88 116 144 187 251 299 341
#     4  11  21  37  59  83 118 157 193 230 284 358
#     4  10  20  32  64  86 108 146 192 254 296 346
#     4  10  19  36  52  86 116 146 189 241 295 342
#     4   9  16  31  51  83 112 139 184 248 292 336
#
# _framework density 18.683810000000001
#
# number of rings (size 3 to 8) (size 9 to 14) (size 15 to 20)
#    0.000    2.154    4.615    0.923    2.154    4.923 
#    0.000    1.538    0.000    3.692    0.000    0.000 
#    0.000    0.000    0.000    0.000    0.000    0.000 
#
# Total GULP energy -644221.572223 kJ/mol
# GULP energy per Si atom -12388.876389 kJ/mol
# Density = 1.864129 g / cm^3
# Si number density = 18.683810 Si / 1000 Ang^3
#
#
#
# Elastic Constant Matrix: (Units=GPa)
#
#
# Indices 1 2 3 4 5 6 
#
# 1 78.9564 28.0415 35.4285 0.0000 0.0000 0.0000
# 2 28.0415 96.3883 58.2397 0.0000 0.0000 0.0000
# 3 35.4285 58.2397 175.2247 0.0000 0.0000 0.0000
# 4 0.0000 0.0000 0.0000 31.1482 0.0000 0.0000
# 5 0.0000 0.0000 0.0000 0.0000 17.2249 0.0000
# 6 0.0000 0.0000 0.0000 0.0000 0.0000 5.6102
#
#
#
# Elastic Compliance Matrix: (Units=1/GPa)
#
#
# Indices 1 2 3 4 5 6 
#
# 1 0.014629 -0.003089 -0.001931 0.000000 0.000000 0.000000
# 2 -0.003089 0.013634 -0.003907 0.000000 0.000000 0.000000
# 3 -0.001931 -0.003907 0.007396 0.000000 0.000000 0.000000
# 4 0.000000 0.000000 0.000000 0.032105 0.000000 0.000000
# 5 0.000000 0.000000 0.000000 0.000000 0.058055 0.000000
# 6 0.000000 0.000000 0.000000 0.000000 0.000000 0.178247
#
#
# Mechanical properties :
#
#
# Convention : Reuss Voigt Hill
#
# Bulk Modulus (GPa) = 56.16532 65.99878 61.08205
# Shear Modulus (GPa) = 15.25064 26.05397 20.65230
#
# Velocity S-wave (km/s) = 2.86011 3.73831 3.32830
# Velocity P-wave (km/s) = 6.40571 7.35078 6.89446
#
# Compressibility (1/GPa) = 0.01780458
#
# Stress axis : x y z
#
# Youngs Moduli (GPa) = 68.35834 73.34570 135.20870
#
# Poissons Ratio (x) = 0.22657 0.26110
# Poissons Ratio (y) = 0.21116 0.52826
# Poissons Ratio (z) = 0.13200 0.28656
#
# Static dielectric constant tensor:
#      x y z
#    x 2.842040 0.000000 0.000000 
#    y 0.000000 3.508170 0.000000 
#    z 0.000000 0.000000 4.172890 
# 
# 
# High freq. dielectric constant tensor:
#      x y z
#    x 1.652580 0.000000 0.000000 
#    y 0.000000 1.714960 0.000000 
#    z 0.000000 0.000000 1.752520 
# 
# From -- ./inp_files/16442.got.cif
#   From: 2010.03.12/outbox.cif.g09.slc.cpg/sg64_9_cif.got.tgz:16442.got - 2010.04.10 20:19:32.
