data_PCOD8261565
_publ_section_title
;
Structure prediction by ZEFSAII (Michael W. Deem and Ramdas Pophale) SiO2 
 PCOD8261565
Probable space group: C M C A
;
_chemical_formula_sum "Si O2"
_cell_formula_units_Z 96
_cell_length_a 19.491996
_cell_length_b 14.315194
_cell_length_c 15.818524
_cell_angle_alpha 90.000000
_cell_angle_beta 90.000000
_cell_angle_gamma 90.000000
_cell_volume 4413.869709
_symmetry_space_group_name_H-M "C M C A"
_symmetry_group_IT_number 64
_symmetry_cell_setting 'orthorhombic'
loop_
_space_group_symop_operation_xyz
x,y,z
-x,1/2-y,1/2+z
x,-y,-z
-x,1/2+y,1/2-z
-x,-y,-z
x,1/2+y,1/2-z
-x,y,z
x,1/2-y,1/2+z
1/2+x,1/2+y,z
1/2-x,-y,1/2+z
1/2+x,1/2-y,-z
1/2-x,y,1/2-z
1/2-x,1/2-y,-z
1/2+x,y,1/2-z
1/2-x,1/2+y,z
1/2+x,-y,1/2+z
loop_
_atom_site_type_symbol
_atom_site_label
_atom_site_fract_x
_atom_site_fract_y
_atom_site_fract_z
Si Si1 0.710382 0.153549 0.990292
Si Si2 0.076392 0.928752 0.220484
Si Si3 0.576110 0.853304 0.731115
Si Si4 0.716917 0.872551 0.334219
Si Si5 0.792093 0.839219 0.673535
Si Si6 0.422092 0.815403 0.112166
O O1 0.748429 0.087900 0.920478
O O2 0.630744 0.168123 0.964036
O O3 0.750000 0.250000 0.000000
O O4 0.713392 0.106018 0.083933
O O5 0.134809 0.883960 0.161349
O O6 0.089567 0.895296 0.316543
O O7 0.000000 0.895903 0.191964
O O8 0.083530 0.038910 0.207252
O O9 0.500000 0.830583 0.764964
O O10 0.627837 0.829395 0.805804
O O11 0.592334 0.787715 0.650640
O O12 0.750000 0.920219 0.250000
O O13 0.739537 0.764174 0.334742
O O14 0.750000 0.890988 0.750000
O O15 0.500000 0.821775 0.077132
#
# Coordination Sequence:
#
# PCOD8261565 Si02
#       6
#    16  16  16  16  16  16
#     4  10  20  34  60  89 118 158 200 248 290 353
#     4  10  20  34  59  89 116 155 199 238 290 358
#     4  10  20  35  59  88 116 152 197 241 291 353
#     4  10  17  33  58  83 115 152 192 234 294 349
#     4  10  20  36  59  84 116 153 202 244 295 347
#     4  10  19  37  61  86 120 158 194 241 301 355
#
# _framework density 21.749621000000001
#
# number of rings (size 3 to 8) (size 9 to 14) (size 15 to 20)
#    0.000    2.000    3.333    2.000    0.000    1.333 
#    0.000    3.333    3.667    7.000    0.000   25.667 
#    0.000    0.000    0.000    0.000    0.000    0.000 
#
# Total GULP energy -594721.340282 kJ/mol
# GULP energy per Si atom -12390.027923 kJ/mol
# Density = 2.170012 g / cm^3
# Si number density = 21.749621 Si / 1000 Ang^3
#
#
#
# Elastic Constant Matrix: (Units=GPa)
#
#
# Indices 1 2 3 4 5 6 
#
# 1 166.6082 8.7846 94.1331 0.0000 0.0000 0.0000
# 2 8.7846 62.0395 13.1404 0.0000 0.0000 0.0000
# 3 94.1331 13.1404 190.2543 0.0000 0.0000 0.0000
# 4 0.0000 0.0000 0.0000 0.1524 0.0000 0.0000
# 5 0.0000 0.0000 0.0000 0.0000 37.7463 0.0000
# 6 0.0000 0.0000 0.0000 0.0000 0.0000 15.9018
#
#
#
# Elastic Compliance Matrix: (Units=1/GPa)
#
#
# Indices 1 2 3 4 5 6 
#
# 1 0.008337 -0.000311 -0.004103 0.000000 0.000000 0.000000
# 2 -0.000311 0.016370 -0.000977 0.000000 0.000000 0.000000
# 3 -0.004103 -0.000977 0.007354 0.000000 0.000000 0.000000
# 4 0.000000 0.000000 0.000000 6.561899 0.000000 0.000000
# 5 0.000000 0.000000 0.000000 0.000000 0.026493 0.000000
# 6 0.000000 0.000000 0.000000 0.000000 0.000000 0.062886
#
#
# Mechanical properties :
#
#
# Convention : Reuss Voigt Hill
#
# Bulk Modulus (GPa) = 46.99733 72.33535 59.66634
# Shear Modulus (GPa) = 0.74613 30.94969 15.84791
#
# Velocity S-wave (km/s) = 0.58635 3.77636 2.70228
# Velocity P-wave (km/s) = 4.70252 7.23498 6.10158
#
# Compressibility (1/GPa) = 0.02127781
#
# Stress axis : x y z
#
# Youngs Moduli (GPa) = 119.94819 61.08855 135.98354
#
# Poissons Ratio (x) = 0.01902 0.55800
# Poissons Ratio (y) = 0.03735 0.13280
# Poissons Ratio (z) = 0.49220 0.05966
#
# Static dielectric constant tensor:
#      x y z
#    x 4.222980 0.000000 0.000000 
#    y 0.000000 3.707800 0.000000 
#    z 0.000000 0.000000 4.419340 
# 
# 
# High freq. dielectric constant tensor:
#      x y z
#    x 1.875500 0.000000 0.000000 
#    y 0.000000 1.832800 0.000000 
#    z 0.000000 0.000000 1.827420 
# 
# From -- ./inp_files/26356.got.cif
#   From: 2010.03.12/outbox.cif.g09.slc.cpg/sg64_14_cif.got.tgz:26356.got - 2010.04.10 20:19:32.
