data_PCOD8261413
_publ_section_title
;
Structure prediction by ZEFSAII (Michael W. Deem and Ramdas Pophale) SiO2 
 PCOD8261413
Probable space group: C M C A
;
_chemical_formula_sum "Si O2"
_cell_formula_units_Z 80
_cell_length_a 27.944220
_cell_length_b 34.778408
_cell_length_c 5.176991
_cell_angle_alpha 90.000000
_cell_angle_beta 90.000000
_cell_angle_gamma 90.000000
_cell_volume 5031.287096
_symmetry_space_group_name_H-M "C M C A"
_symmetry_group_IT_number 64
_symmetry_cell_setting 'orthorhombic'
loop_
_space_group_symop_operation_xyz
x,y,z
-x,1/2-y,1/2+z
x,-y,-z
-x,1/2+y,1/2-z
-x,-y,-z
x,1/2+y,1/2-z
-x,y,z
x,1/2-y,1/2+z
1/2+x,1/2+y,z
1/2-x,-y,1/2+z
1/2+x,1/2-y,-z
1/2-x,y,1/2-z
1/2-x,1/2-y,-z
1/2+x,y,1/2-z
1/2-x,1/2+y,z
1/2+x,-y,1/2+z
loop_
_atom_site_type_symbol
_atom_site_label
_atom_site_fract_x
_atom_site_fract_y
_atom_site_fract_z
Si Si1 0.728832 0.792872 0.003099
Si Si2 0.619821 0.774556 0.038782
Si Si3 0.554984 0.107367 0.326287
Si Si4 0.944843 0.345261 0.188339
Si Si5 0.056510 0.977091 0.746381
O O1 0.750000 0.814310 0.750000
O O2 0.750000 0.815324 0.250000
O O3 0.750000 0.750000 0.000000
O O4 0.672195 0.793060 0.035817
O O5 0.612349 0.740816 0.248416
O O6 0.582202 0.806396 0.121007
O O7 0.500000 0.101411 0.406102
O O8 0.577469 0.133029 0.559480
O O9 0.579096 0.065425 0.288140
O O10 0.561214 0.127389 0.054084
O O11 0.000000 0.334119 0.238613
O O12 0.000000 0.972982 0.703902
O O13 0.078367 0.000000 0.500000
O O14 0.070298 0.000000 0.000000
#
# Coordination Sequence:
#
# PCOD8261413 Si02
#       5
#    16  16  16  16  16
#     4  10  16  30  47  65  83  99 124 178 232 283
#     4  12  21  31  48  65  81 108 150 194 221 261
#     4   9  17  31  44  56  84 118 145 178 218 261
#     4  10  21  33  43  58  84 121 154 180 220 259
#     4   9  15  23  40  64  81 100 139 184 215 243
#
# _framework density 15.900503
#
# number of rings (size 3 to 8) (size 9 to 14) (size 15 to 20)
#    0.000    2.000    4.000    2.400    0.000    5.600 
#    0.000    0.000    0.000    0.000    0.000    0.000 
#    0.000    0.000    0.000    0.000    0.000   56.000 
#
# Total GULP energy -495636.810299 kJ/mol
# GULP energy per Si atom -12390.920257 kJ/mol
# Density = 1.586431 g / cm^3
# Si number density = 15.900503 Si / 1000 Ang^3
#
#
#
# Elastic Constant Matrix: (Units=GPa)
#
#
# Indices 1 2 3 4 5 6 
#
# 1 47.7570 32.0257 23.2182 0.0000 0.0000 0.0000
# 2 32.0257 68.4799 21.3271 0.0000 0.0000 0.0000
# 3 23.2182 21.3271 109.5594 0.0000 0.0000 0.0000
# 4 0.0000 0.0000 0.0000 14.2369 0.0000 0.0000
# 5 0.0000 0.0000 0.0000 0.0000 14.6053 0.0000
# 6 0.0000 0.0000 0.0000 0.0000 0.0000 -0.7943
#
#
#
# Elastic Compliance Matrix: (Units=1/GPa)
#
#
# Indices 1 2 3 4 5 6 
#
# 1 0.032180 -0.013760 -0.004141 0.000000 0.000000 0.000000
# 2 -0.013760 0.021429 -0.001255 0.000000 0.000000 0.000000
# 3 -0.004141 -0.001255 0.010249 0.000000 0.000000 0.000000
# 4 0.000000 0.000000 0.000000 0.070240 0.000000 0.000000
# 5 0.000000 0.000000 0.000000 0.000000 0.068468 0.000000
# 6 0.000000 0.000000 0.000000 0.000000 0.000000 -1.258962
#
#
# Mechanical properties :
#
#
# Convention : Reuss Voigt Hill
#
# Bulk Modulus (GPa) = 39.14572 42.10425 40.62498
# Shear Modulus (GPa) = -4.95261 15.55793 5.30266
#
# Velocity S-wave (km/s) = -1.76678 3.13142 1.82815
# Velocity P-wave (km/s) = 4.52886 6.29378 5.48280
#
# Compressibility (1/GPa) = 0.02554558
#
# Stress axis : x y z
#
# Youngs Moduli (GPa) = 31.07536 46.66635 97.56619
#
# Poissons Ratio (x) = 0.64211 0.40404
# Poissons Ratio (y) = 0.42759 0.12248
# Poissons Ratio (z) = 0.12869 0.05858
#
# Static dielectric constant tensor:
#      x y z
#    x 2.708210 0.000000 0.000000 
#    y 0.000000 2.972240 0.000000 
#    z 0.000000 0.000000 2.849880 
# 
# 
# High freq. dielectric constant tensor:
#      x y z
#    x 1.551280 0.000000 0.000000 
#    y 0.000000 1.586090 0.000000 
#    z 0.000000 0.000000 1.646670 
# 
# From -- ./inp_files/2899.got.cif
#   From: 2010.03.12/outbox.cif.g09.slc.cpg/sg64_2_cif.got.tgz:2899.got - 2010.04.10 20:19:32.
