data_PCOD8261776
_publ_section_title
;
Structure prediction by ZEFSAII (Michael W. Deem and Ramdas Pophale) SiO2 
 PCOD8261776
Probable space group: C M C A
;
_chemical_formula_sum "Si O2"
_cell_formula_units_Z 80
_cell_length_a 17.564566
_cell_length_b 13.893891
_cell_length_c 18.396108
_cell_angle_alpha 90.000000
_cell_angle_beta 90.000000
_cell_angle_gamma 90.000000
_cell_volume 4489.389240
_symmetry_space_group_name_H-M "C M C A"
_symmetry_group_IT_number 64
_symmetry_cell_setting 'orthorhombic'
loop_
_space_group_symop_operation_xyz
x,y,z
-x,1/2-y,1/2+z
x,-y,-z
-x,1/2+y,1/2-z
-x,-y,-z
x,1/2+y,1/2-z
-x,y,z
x,1/2-y,1/2+z
1/2+x,1/2+y,z
1/2-x,-y,1/2+z
1/2+x,1/2-y,-z
1/2-x,y,1/2-z
1/2-x,1/2-y,-z
1/2+x,y,1/2-z
1/2-x,1/2+y,z
1/2+x,-y,1/2+z
loop_
_atom_site_type_symbol
_atom_site_label
_atom_site_fract_x
_atom_site_fract_y
_atom_site_fract_z
Si Si1 0.693699 0.208209 0.081635
Si Si2 0.238533 0.592608 0.539181
Si Si3 0.811855 0.560302 0.809654
Si Si4 0.184020 0.221686 0.194709
Si Si5 0.910879 0.882508 0.701176
O O1 0.679969 0.320411 0.058309
O O2 0.780148 0.201180 0.115437
O O3 0.628014 0.181420 0.138000
O O4 0.694512 0.137559 0.012227
O O5 0.199061 0.500000 0.500000
O O6 0.275466 0.548819 0.611294
O O7 0.750000 0.527991 0.750000
O O8 0.840649 0.667870 0.795628
O O9 0.885252 0.492719 0.804524
O O10 0.250000 0.192952 0.250000
O O11 0.111388 0.157689 0.218271
O O12 0.000000 0.875940 0.689871
#
# Coordination Sequence:
#
# PCOD8261776 Si02
#       5
#    16  16  16  16  16
#     4   9  18  34  53  81 108 134 177 222 261 307
#     4  10  18  31  58  85 100 130 173 224 267 306
#     4  10  19  34  55  79 102 133 178 225 261 306
#     4   8  17  33  53  74 100 136 179 222 255 298
#     4  11  21  33  51  77 112 146 173 212 266 316
#
# _framework density 17.819796
#
# number of rings (size 3 to 8) (size 9 to 14) (size 15 to 20)
#    0.000    2.400    2.000    3.000    0.000    0.800 
#    0.000    2.000    0.000    7.800    0.000    0.000 
#    0.000    0.000    0.000    0.000    0.000    0.000 
#
# Total GULP energy -495686.452515 kJ/mol
# GULP energy per Si atom -12392.161313 kJ/mol
# Density = 1.777924 g / cm^3
# Si number density = 17.819796 Si / 1000 Ang^3
#
#
#
# Elastic Constant Matrix: (Units=GPa)
#
#
# Indices 1 2 3 4 5 6 
#
# 1 97.3280 45.9775 37.5423 0.0000 0.0000 0.0000
# 2 45.9775 97.6847 35.4226 0.0000 0.0000 0.0000
# 3 37.5423 35.4226 98.2202 0.0000 0.0000 0.0000
# 4 0.0000 0.0000 0.0000 18.0774 0.0000 0.0000
# 5 0.0000 0.0000 0.0000 0.0000 15.4942 0.0000
# 6 0.0000 0.0000 0.0000 0.0000 0.0000 13.5099
#
#
#
# Elastic Compliance Matrix: (Units=1/GPa)
#
#
# Indices 1 2 3 4 5 6 
#
# 1 0.014167 -0.005412 -0.003463 0.000000 0.000000 0.000000
# 2 -0.005412 0.013845 -0.002924 0.000000 0.000000 0.000000
# 3 -0.003463 -0.002924 0.012560 0.000000 0.000000 0.000000
# 4 0.000000 0.000000 0.000000 0.055318 0.000000 0.000000
# 5 0.000000 0.000000 0.000000 0.000000 0.064540 0.000000
# 6 0.000000 0.000000 0.000000 0.000000 0.000000 0.074020
#
#
# Mechanical properties :
#
#
# Convention : Reuss Voigt Hill
#
# Bulk Modulus (GPa) = 58.92055 59.01307 58.96681
# Shear Modulus (GPa) = 18.96049 21.03567 19.99808
#
# Velocity S-wave (km/s) = 3.26546 3.43952 3.35362
# Velocity P-wave (km/s) = 6.88143 6.99730 6.93961
#
# Compressibility (1/GPa) = 0.01697201
#
# Stress axis : x y z
#
# Youngs Moduli (GPa) = 70.58612 72.22901 79.62060
#
# Poissons Ratio (x) = 0.39092 0.27574
# Poissons Ratio (y) = 0.38203 0.23284
# Poissons Ratio (z) = 0.24445 0.21122
#
# Static dielectric constant tensor:
#      x y z
#    x 2.780450 0.000000 0.000000 
#    y 0.000000 3.546880 0.000000 
#    z 0.000000 0.000000 3.686240 
# 
# 
# High freq. dielectric constant tensor:
#      x y z
#    x 1.612290 0.000000 0.000000 
#    y 0.000000 1.715720 0.000000 
#    z 0.000000 0.000000 1.705430 
# 
# From -- ./inp_files/34205.got.cif
#   From: 2010.03.12/outbox.cif.g09.slc.cpg/sg64_18_cif.got.tgz:34205.got - 2010.04.10 20:19:32.
