data_PCOD8261624
_publ_section_title
;
Structure prediction by ZEFSAII (Michael W. Deem and Ramdas Pophale) SiO2 
 PCOD8261624
Probable space group: C M C A
;
_chemical_formula_sum "Si O2"
_cell_formula_units_Z 120
_cell_length_a 13.875171
_cell_length_b 17.376742
_cell_length_c 27.952779
_cell_angle_alpha 90.000000
_cell_angle_beta 90.000000
_cell_angle_gamma 90.000000
_cell_volume 6739.562235
_symmetry_space_group_name_H-M "C M C A"
_symmetry_group_IT_number 64
_symmetry_cell_setting 'orthorhombic'
loop_
_space_group_symop_operation_xyz
x,y,z
-x,1/2-y,1/2+z
x,-y,-z
-x,1/2+y,1/2-z
-x,-y,-z
x,1/2+y,1/2-z
-x,y,z
x,1/2-y,1/2+z
1/2+x,1/2+y,z
1/2-x,-y,1/2+z
1/2+x,1/2-y,-z
1/2-x,y,1/2-z
1/2-x,1/2-y,-z
1/2+x,y,1/2-z
1/2-x,1/2+y,z
1/2+x,-y,1/2+z
loop_
_atom_site_type_symbol
_atom_site_label
_atom_site_fract_x
_atom_site_fract_y
_atom_site_fract_z
Si Si1 0.737456 0.122275 0.568828
Si Si2 0.888407 0.027343 0.803435
Si Si3 0.741033 0.826552 0.843624
Si Si4 0.298247 0.463233 0.897933
Si Si5 0.250000 0.071842 0.250000
Si Si6 0.886986 0.183605 0.848816
Si Si7 0.892611 0.877157 0.978149
Si Si8 0.890949 0.242344 0.595479
O O1 0.652505 0.158796 0.599977
O O2 0.694939 0.124035 0.515608
O O3 0.836826 0.167275 0.575770
O O4 0.764397 0.036277 0.586010
O O5 0.859158 0.117839 0.809549
O O6 0.000000 0.019576 0.793652
O O7 0.861797 0.980837 0.851252
O O8 0.838732 0.987383 0.757550
O O9 0.727683 0.890539 0.885976
O O10 0.743862 0.872060 0.794542
O O11 0.653599 0.767640 0.836510
O O12 0.837816 0.778663 0.857764
O O13 0.372105 0.445818 0.940898
O O14 0.000000 0.191673 0.853225
O O15 0.891136 0.798004 0.949598
O O16 0.000000 0.890265 0.000434
O O17 0.000000 0.221441 0.611169
#
# Coordination Sequence:
#
# PCOD8261624 Si02
#       8
#    16  16  16  16   8  16  16  16
#     4  10  18  30  50  74 102 133 170 212 251 293
#     4   9  18  33  52  73  98 129 162 200 248 299
#     4   9  19  34  51  72  97 127 161 203 249 295
#     4   9  18  31  48  72 104 135 164 207 258 301
#     4  10  20  32  52  76  98 122 156 202 250 298
#     4   9  18  33  51  70  97 130 160 194 243 297
#     4  10  18  28  48  77 104 132 172 218 257 296
#     4   9  19  35  52  71  99 137 176 210 250 301
#
# _framework density 17.805309999999999
#
# number of rings (size 3 to 8) (size 9 to 14) (size 15 to 20)
#    0.000    2.667    0.000    1.600    0.000    6.400 
#    0.000    0.667    0.000   16.800    0.000    0.000 
#    0.000    0.000    0.000    0.000    0.000    0.000 
#
# Total GULP energy -743444.413768 kJ/mol
# GULP energy per Si atom -12390.740229 kJ/mol
# Density = 1.776478 g / cm^3
# Si number density = 17.805310 Si / 1000 Ang^3
#
#
#
# Elastic Constant Matrix: (Units=GPa)
#
#
# Indices 1 2 3 4 5 6 
#
# 1 98.7858 58.7809 38.1192 0.0000 0.0000 0.0000
# 2 58.7809 122.0700 30.0491 0.0000 0.0000 0.0000
# 3 38.1192 30.0491 70.7523 0.0000 0.0000 0.0000
# 4 0.0000 0.0000 0.0000 14.9309 0.0000 0.0000
# 5 0.0000 0.0000 0.0000 0.0000 20.8128 0.0000
# 6 0.0000 0.0000 0.0000 0.0000 0.0000 23.5382
#
#
#
# Elastic Compliance Matrix: (Units=1/GPa)
#
#
# Indices 1 2 3 4 5 6 
#
# 1 0.016220 -0.006320 -0.006055 0.000000 0.000000 0.000000
# 2 -0.006320 0.011611 -0.001526 0.000000 0.000000 0.000000
# 3 -0.006055 -0.001526 0.018044 0.000000 0.000000 0.000000
# 4 0.000000 0.000000 0.000000 0.066975 0.000000 0.000000
# 5 0.000000 0.000000 0.000000 0.000000 0.048047 0.000000
# 6 0.000000 0.000000 0.000000 0.000000 0.000000 0.042484
#
#
# Mechanical properties :
#
#
# Convention : Reuss Voigt Hill
#
# Bulk Modulus (GPa) = 55.33056 60.61182 57.97119
# Shear Modulus (GPa) = 21.07855 22.83363 21.95609
#
# Velocity S-wave (km/s) = 3.44442 3.58495 3.51539
# Velocity P-wave (km/s) = 6.85285 7.15899 7.00759
#
# Compressibility (1/GPa) = 0.01807319
#
# Stress axis : x y z
#
# Youngs Moduli (GPa) = 61.65277 86.12496 55.41988
#
# Poissons Ratio (x) = 0.54431 0.33555
# Poissons Ratio (y) = 0.38965 0.08459
# Poissons Ratio (z) = 0.37328 0.13145
#
# Static dielectric constant tensor:
#      x y z
#    x 3.252490 0.000000 0.000000 
#    y 0.000000 3.736250 0.000000 
#    z 0.000000 0.000000 3.250440 
# 
# 
# High freq. dielectric constant tensor:
#      x y z
#    x 1.666020 0.000000 0.000000 
#    y 0.000000 1.707310 0.000000 
#    z 0.000000 0.000000 1.677040 
# 
# From -- ./inp_files/53429.got.cif
#   From: 2010.03.12/outbox.cif.g09.slc.cpg/sg64_27_cif.got.tgz:53429.got - 2010.04.10 20:19:32.
