data_PCOD8261585
_publ_section_title
;
Structure prediction by ZEFSAII (Michael W. Deem and Ramdas Pophale) SiO2 
 PCOD8261585
Probable space group: C M C A
;
_chemical_formula_sum "Si O2"
_cell_formula_units_Z 96
_cell_length_a 9.519275
_cell_length_b 23.512792
_cell_length_c 25.801908
_cell_angle_alpha 90.000000
_cell_angle_beta 90.000000
_cell_angle_gamma 90.000000
_cell_volume 5775.105171
_symmetry_space_group_name_H-M "C M C A"
_symmetry_group_IT_number 64
_symmetry_cell_setting 'orthorhombic'
loop_
_space_group_symop_operation_xyz
x,y,z
-x,1/2-y,1/2+z
x,-y,-z
-x,1/2+y,1/2-z
-x,-y,-z
x,1/2+y,1/2-z
-x,y,z
x,1/2-y,1/2+z
1/2+x,1/2+y,z
1/2-x,-y,1/2+z
1/2+x,1/2-y,-z
1/2-x,y,1/2-z
1/2-x,1/2-y,-z
1/2+x,y,1/2-z
1/2-x,1/2+y,z
1/2+x,-y,1/2+z
loop_
_atom_site_type_symbol
_atom_site_label
_atom_site_fract_x
_atom_site_fract_y
_atom_site_fract_z
Si Si1 0.334436 0.809658 0.698164
Si Si2 0.664443 0.514310 0.442569
Si Si3 0.339180 0.569958 0.647360
Si Si4 0.153630 0.990529 0.792361
Si Si5 0.839535 0.318978 0.200505
Si Si6 0.845626 0.401995 0.618053
O O1 0.500000 0.820443 0.708607
O O2 0.250000 0.827159 0.750000
O O3 0.299463 0.744702 0.682716
O O4 0.284953 0.846828 0.648379
O O5 0.717696 0.500000 0.500000
O O6 0.500000 0.527768 0.441528
O O7 0.701917 0.458642 0.407710
O O8 0.739931 0.573021 0.424955
O O9 0.500000 0.553713 0.659687
O O10 0.239490 0.546711 0.692450
O O11 0.317253 0.638463 0.651102
O O12 0.250000 0.958197 0.750000
O O13 0.000000 0.007120 0.770111
O O14 0.133624 0.950995 0.840745
O O15 0.750000 0.338259 0.250000
O O16 0.000000 0.320503 0.219148
O O17 0.000000 0.388518 0.593520
#
# Coordination Sequence:
#
# PCOD8261585 Si02
#       6
#    16  16  16  16  16  16
#     4   9  17  29  44  64  90 119 149 176 205 246
#     4   9  18  32  49  67  85 108 142 184 227 267
#     4   9  17  29  44  62  84 111 143 178 217 258
#     4  10  18  26  38  59  86 113 139 169 207 251
#     4   9  17  28  43  63  88 118 147 174 205 246
#     4   9  18  30  44  63  86 112 142 175 212 256
#
# _framework density 16.623073999999999
#
# number of rings (size 3 to 8) (size 9 to 14) (size 15 to 20)
#    0.000    2.833    0.000    1.500    0.000    3.667 
#    0.000    0.000    0.000    1.000    0.000    0.000 
#    0.000    0.000    0.000    0.000    0.000    0.000 
#
# Total GULP energy -594682.814657 kJ/mol
# GULP energy per Si atom -12389.225305 kJ/mol
# Density = 1.658524 g / cm^3
# Si number density = 16.623074 Si / 1000 Ang^3
#
#
#
# Elastic Constant Matrix: (Units=GPa)
#
#
# Indices 1 2 3 4 5 6 
#
# 1 70.5586 26.1264 34.2473 0.0000 0.0000 0.0000
# 2 26.1264 97.5580 40.5357 0.0000 0.0000 0.0000
# 3 34.2473 40.5357 76.6712 0.0000 0.0000 0.0000
# 4 0.0000 0.0000 0.0000 22.3134 0.0000 0.0000
# 5 0.0000 0.0000 0.0000 0.0000 21.5189 0.0000
# 6 0.0000 0.0000 0.0000 0.0000 0.0000 18.8640
#
#
#
# Elastic Compliance Matrix: (Units=1/GPa)
#
#
# Indices 1 2 3 4 5 6 
#
# 1 0.018377 -0.001936 -0.007185 0.000000 0.000000 0.000000
# 2 -0.001936 0.013340 -0.006188 0.000000 0.000000 0.000000
# 3 -0.007185 -0.006188 0.019524 0.000000 0.000000 0.000000
# 4 0.000000 0.000000 0.000000 0.044816 0.000000 0.000000
# 5 0.000000 0.000000 0.000000 0.000000 0.046471 0.000000
# 6 0.000000 0.000000 0.000000 0.000000 0.000000 0.053011
#
#
# Mechanical properties :
#
#
# Convention : Reuss Voigt Hill
#
# Bulk Modulus (GPa) = 48.49077 49.62297 49.05687
# Shear Modulus (GPa) = 21.45643 22.13115 21.79379
#
# Velocity S-wave (km/s) = 3.59661 3.65273 3.62478
# Velocity P-wave (km/s) = 6.81774 6.90699 6.86251
#
# Compressibility (1/GPa) = 0.02062248
#
# Stress axis : x y z
#
# Youngs Moduli (GPa) = 54.41616 74.96301 51.21992
#
# Poissons Ratio (x) = 0.14513 0.36801
# Poissons Ratio (y) = 0.10535 0.31695
# Poissons Ratio (z) = 0.39098 0.46387
#
# Static dielectric constant tensor:
#      x y z
#    x 3.607410 0.000000 0.000000 
#    y 0.000000 3.249260 0.000000 
#    z 0.000000 0.000000 2.994870 
# 
# 
# High freq. dielectric constant tensor:
#      x y z
#    x 1.646080 0.000000 0.000000 
#    y 0.000000 1.636270 0.000000 
#    z 0.000000 0.000000 1.604100 
# 
# From -- ./inp_files/38419.got.cif
#   From: 2010.03.12/outbox.cif.g09.slc.cpg/sg64_20_cif.got.tgz:38419.got - 2010.04.10 20:19:32.
