data_PCOD8261252
_publ_section_title
;
Structure prediction by ZEFSAII (Michael W. Deem and Ramdas Pophale) SiO2 
 PCOD8261252
Probable space group: C M C M
;
_chemical_formula_sum "Si O2"
_cell_formula_units_Z 72
_cell_length_a 22.715926
_cell_length_b 22.941093
_cell_length_c 9.393980
_cell_angle_alpha 90.000000
_cell_angle_beta 90.000000
_cell_angle_gamma 90.000000
_cell_volume 4895.467615
_symmetry_space_group_name_H-M "C M C M"
_symmetry_group_IT_number 63
_symmetry_cell_setting 'orthorhombic'
loop_
_space_group_symop_operation_xyz
x,y,z
-x,-y,1/2+z
x,-y,-z
-x,y,1/2-z
-x,-y,-z
x,y,1/2-z
-x,y,z
x,-y,1/2+z
1/2+x,1/2+y,z
1/2-x,1/2-y,1/2+z
1/2+x,1/2-y,-z
1/2-x,1/2+y,1/2-z
1/2-x,1/2-y,-z
1/2+x,1/2+y,1/2-z
1/2-x,1/2+y,z
1/2+x,1/2-y,1/2+z
loop_
_atom_site_type_symbol
_atom_site_label
_atom_site_fract_x
_atom_site_fract_y
_atom_site_fract_z
Si Si1 0.710568 0.672865 0.407082
Si Si2 0.335741 0.234089 0.406137
Si Si3 0.606834 0.116108 0.417003
Si Si4 0.769825 0.442127 0.583491
Si Si5 0.500000 0.938340 0.077898
O O1 0.683807 0.665942 0.250000
O O2 0.661854 0.707960 0.497364
O O3 0.770303 0.709215 0.399641
O O4 0.725857 0.609076 0.470644
O O5 0.355767 0.254112 0.250000
O O6 0.379077 0.182992 0.459526
O O7 0.588313 0.111432 0.250000
O O8 0.662908 0.075382 0.446652
O O9 0.556819 0.096536 0.525486
O O10 0.752826 0.500000 0.500000
O O11 0.760556 0.452750 0.750000
O O12 0.500000 0.945008 0.250000
O O13 0.500000 0.000000 0.000000
#
# Coordination Sequence:
#
# PCOD8261252 Si02
#       5
#    16  16  16  16   8
#     4   8  14  24  37  55  78  99 122 155 192 230
#     4   8  14  25  41  58  74  95 124 157 194 235
#     4   9  18  32  45  57  76 101 132 170 206 236
#     4   9  17  27  39  56  78 105 134 163 195 232
#     4  12  24  34  44  58  76 102 137 172 207 240
#
# _framework density 14.707481
#
# number of rings (size 3 to 8) (size 9 to 14) (size 15 to 20)
#    0.000    3.111    0.000    4.333    0.000    4.444 
#    0.000    4.444    0.000    0.000    0.000    0.000 
#    0.000    0.000    0.000    1.000    0.000   13.111 
#
# Total GULP energy -446083.162672 kJ/mol
# GULP energy per Si atom -12391.198963 kJ/mol
# Density = 1.467401 g / cm^3
# Si number density = 14.707481 Si / 1000 Ang^3
#
#
#
# Elastic Constant Matrix: (Units=GPa)
#
#
# Indices 1 2 3 4 5 6 
#
# 1 36.4863 41.7469 33.8812 0.0000 0.0000 0.0000
# 2 41.7469 124.0242 64.0074 0.0000 0.0000 0.0000
# 3 33.8812 64.0074 79.9392 0.0000 0.0000 0.0000
# 4 0.0000 0.0000 0.0000 30.2967 0.0000 0.0000
# 5 0.0000 0.0000 0.0000 0.0000 18.1748 0.0000
# 6 0.0000 0.0000 0.0000 0.0000 0.0000 21.6549
#
#
#
# Elastic Compliance Matrix: (Units=1/GPa)
#
#
# Indices 1 2 3 4 5 6 
#
# 1 0.052111 -0.010468 -0.013705 0.000000 0.000000 0.000000
# 2 -0.010468 0.015844 -0.008250 0.000000 0.000000 0.000000
# 3 -0.013705 -0.008250 0.024924 0.000000 0.000000 0.000000
# 4 0.000000 0.000000 0.000000 0.033007 0.000000 0.000000
# 5 0.000000 0.000000 0.000000 0.000000 0.055021 0.000000
# 6 0.000000 0.000000 0.000000 0.000000 0.000000 0.046179
#
#
# Mechanical properties :
#
#
# Convention : Reuss Voigt Hill
#
# Bulk Modulus (GPa) = 35.67120 57.74673 46.70897
# Shear Modulus (GPa) = 16.59612 20.74622 18.67117
#
# Velocity S-wave (km/s) = 3.36283 3.75986 3.56687
# Velocity P-wave (km/s) = 6.27572 7.62872 6.98506
#
# Compressibility (1/GPa) = 0.02803382
#
# Stress axis : x y z
#
# Youngs Moduli (GPa) = 19.18983 63.11557 40.12235
#
# Poissons Ratio (x) = 0.66067 0.54988
# Poissons Ratio (y) = 0.20087 0.33100
# Poissons Ratio (z) = 0.26300 0.52068
#
# Static dielectric constant tensor:
#      x y z
#    x 2.494460 0.000000 0.000000 
#    y 0.000000 2.994750 0.000000 
#    z 0.000000 0.000000 3.058960 
# 
# 
# High freq. dielectric constant tensor:
#      x y z
#    x 1.506590 0.000000 0.000000 
#    y 0.000000 1.563770 0.000000 
#    z 0.000000 0.000000 1.563950 
# 
# From -- ./inp_files/6086.got.cif
#   From: 2010.03.12/outbox.cif.g09.slc.cpg/sg63_4_cif.got.tgz:6086.got - 2010.04.10 19:34:48.
