data_PCOD8261645
_publ_section_title
;
Structure prediction by ZEFSAII (Michael W. Deem and Ramdas Pophale) SiO2 
 PCOD8261645
Probable space group: C M C A
;
_chemical_formula_sum "Si O2"
_cell_formula_units_Z 112
_cell_length_a 9.697289
_cell_length_b 23.592089
_cell_length_c 28.310331
_cell_angle_alpha 90.000000
_cell_angle_beta 90.000000
_cell_angle_gamma 90.000000
_cell_volume 6476.817855
_symmetry_space_group_name_H-M "C M C A"
_symmetry_group_IT_number 64
_symmetry_cell_setting 'orthorhombic'
loop_
_space_group_symop_operation_xyz
x,y,z
-x,1/2-y,1/2+z
x,-y,-z
-x,1/2+y,1/2-z
-x,-y,-z
x,1/2+y,1/2-z
-x,y,z
x,1/2-y,1/2+z
1/2+x,1/2+y,z
1/2-x,-y,1/2+z
1/2+x,1/2-y,-z
1/2-x,y,1/2-z
1/2-x,1/2-y,-z
1/2+x,y,1/2-z
1/2-x,1/2+y,z
1/2+x,-y,1/2+z
loop_
_atom_site_type_symbol
_atom_site_label
_atom_site_fract_x
_atom_site_fract_y
_atom_site_fract_z
Si Si1 0.338670 0.406056 0.024530
Si Si2 0.655564 0.304334 0.620380
Si Si3 0.153432 0.779511 0.036416
Si Si4 0.658567 0.226747 0.705767
Si Si5 0.837873 0.905257 0.917901
Si Si6 0.838090 0.902598 0.203272
Si Si7 0.161463 0.527791 0.612977
O O1 0.500000 0.418321 0.021380
O O2 0.300872 0.343989 0.043447
O O3 0.272734 0.447661 0.064067
O O4 0.280053 0.414793 0.971340
O O5 0.500000 0.329191 0.621970
O O6 0.662878 0.251488 0.585630
O O7 0.699959 0.275537 0.669076
O O8 0.759988 0.353651 0.606745
O O9 0.000000 0.777733 0.014962
O O10 0.250000 0.750000 0.000000
O O11 0.500000 0.232157 0.720368
O O12 0.750000 0.241558 0.750000
O O13 0.687069 0.162627 0.687611
O O14 0.000000 0.890597 0.919125
O O15 0.807903 0.960757 0.886302
O O16 0.750000 0.917473 0.250000
O O17 0.781283 0.942269 0.160469
O O18 0.000000 0.913920 0.213835
O O19 0.000000 0.541069 0.611420
#
# Coordination Sequence:
#
# PCOD8261645 Si02
#       7
#    16  16  16  16  16  16  16
#     4   9  16  28  48  73  98 125 162 206 241 276
#     4  10  20  33  49  70 102 136 161 193 246 300
#     4  10  18  29  47  71  98 127 159 195 239 289
#     4   9  18  33  53  76  98 125 160 201 249 297
#     4  10  19  31  49  73  99 130 169 205 233 275
#     4   9  17  32  54  76  97 121 155 202 251 294
#     4   9  17  30  50  74  97 125 164 205 244 284
#
# _framework density 17.292444
#
# number of rings (size 3 to 8) (size 9 to 14) (size 15 to 20)
#    0.000    2.571    1.429    1.286    0.000    5.714 
#    0.000    1.429    0.000    9.429    0.000    0.000 
#    0.000    0.000    0.000    0.000    0.000    0.000 
#
# Total GULP energy -694077.464150 kJ/mol
# GULP energy per Si atom -12394.240431 kJ/mol
# Density = 1.725309 g / cm^3
# Si number density = 17.292444 Si / 1000 Ang^3
#
#
#
# Elastic Constant Matrix: (Units=GPa)
#
#
# Indices 1 2 3 4 5 6 
#
# 1 40.4366 38.5258 41.7100 0.0000 0.0000 0.0000
# 2 38.5258 107.4020 67.7622 0.0000 0.0000 0.0000
# 3 41.7100 67.7622 126.3740 0.0000 0.0000 0.0000
# 4 0.0000 0.0000 0.0000 26.3705 0.0000 0.0000
# 5 0.0000 0.0000 0.0000 0.0000 23.8140 0.0000
# 6 0.0000 0.0000 0.0000 0.0000 0.0000 22.6847
#
#
#
# Elastic Compliance Matrix: (Units=1/GPa)
#
#
# Indices 1 2 3 4 5 6 
#
# 1 0.043487 -0.009889 -0.009051 0.000000 0.000000 0.000000
# 2 -0.009889 0.016320 -0.005487 0.000000 0.000000 0.000000
# 3 -0.009051 -0.005487 0.013842 0.000000 0.000000 0.000000
# 4 0.000000 0.000000 0.000000 0.037921 0.000000 0.000000
# 5 0.000000 0.000000 0.000000 0.000000 0.041992 0.000000
# 6 0.000000 0.000000 0.000000 0.000000 0.000000 0.044083
#
#
# Mechanical properties :
#
#
# Convention : Reuss Voigt Hill
#
# Bulk Modulus (GPa) = 40.32815 63.35651 51.84233
# Shear Modulus (GPa) = 19.62601 22.98812 21.30707
#
# Velocity S-wave (km/s) = 3.37255 3.65001 3.51402
# Velocity P-wave (km/s) = 6.20785 7.38114 6.81977
#
# Compressibility (1/GPa) = 0.02479658
#
# Stress axis : x y z
#
# Youngs Moduli (GPa) = 22.99518 61.27495 72.24255
#
# Poissons Ratio (x) = 0.60595 0.65383
# Poissons Ratio (y) = 0.22740 0.39639
# Poissons Ratio (z) = 0.20812 0.33621
#
# Static dielectric constant tensor:
#      x y z
#    x 2.962780 0.000000 0.000000 
#    y 0.000000 2.782970 0.000000 
#    z 0.000000 0.000000 2.894240 
# 
# 
# High freq. dielectric constant tensor:
#      x y z
#    x 1.631220 0.000000 0.000000 
#    y 0.000000 1.671710 0.000000 
#    z 0.000000 0.000000 1.669570 
# 
# From -- ./inp_files/44384.got.cif
#   From: 2010.03.12/outbox.cif.g09.slc.cpg/sg64_23_cif.got.tgz:44384.got - 2010.04.10 20:19:32.
