data_PCOD8261242
_publ_section_title
;
Structure prediction by ZEFSAII (Michael W. Deem and Ramdas Pophale) SiO2 
 PCOD8261242
Probable space group: C M C M
;
_chemical_formula_sum "Si O2"
_cell_formula_units_Z 64
_cell_length_a 11.374042
_cell_length_b 27.034542
_cell_length_c 9.962268
_cell_angle_alpha 90.000000
_cell_angle_beta 90.000000
_cell_angle_gamma 90.000000
_cell_volume 3063.317873
_symmetry_space_group_name_H-M "C M C M"
_symmetry_group_IT_number 63
_symmetry_cell_setting 'orthorhombic'
loop_
_space_group_symop_operation_xyz
x,y,z
-x,-y,1/2+z
x,-y,-z
-x,y,1/2-z
-x,-y,-z
x,y,1/2-z
-x,y,z
x,-y,1/2+z
1/2+x,1/2+y,z
1/2-x,1/2-y,1/2+z
1/2+x,1/2-y,-z
1/2-x,1/2+y,1/2-z
1/2-x,1/2-y,-z
1/2+x,1/2+y,1/2-z
1/2-x,1/2+y,z
1/2+x,1/2-y,1/2+z
loop_
_atom_site_type_symbol
_atom_site_label
_atom_site_fract_x
_atom_site_fract_y
_atom_site_fract_z
Si Si1 0.000000 0.608320 0.750000
Si Si2 0.500000 0.931299 0.750000
Si Si3 0.760201 0.295490 0.598893
Si Si4 0.500000 0.848241 0.962579
Si Si5 0.757308 0.039665 0.250000
Si Si6 0.243760 0.072493 0.750000
Si Si7 0.637913 0.607428 0.022054
O O1 0.000000 0.644160 0.621680
O O2 0.114769 0.573710 0.750000
O O3 0.500000 0.900200 0.886757
O O4 0.383705 0.964485 0.750000
O O5 0.742333 0.275913 0.750000
O O6 0.750000 0.250000 0.500000
O O7 0.661611 0.336810 0.570141
O O8 0.887817 0.318351 0.584245
O O9 0.802492 0.067573 0.381075
O O10 0.803973 0.983613 0.250000
O O11 0.194267 0.101585 0.623148
O O12 0.500000 0.597433 0.018889
#
# Coordination Sequence:
#
# PCOD8261242 Si02
#       7
#     4   4  16   8   8   8  16
#     4  12  23  42  72 104 142 174 236 288 343 404
#     4  12  19  46  72 100 138 186 220 296 351 400
#     4  12  27  47  73 105 136 181 232 285 352 414
#     4  12  22  46  73  96 146 180 221 294 354 405
#     4  12  24  44  75  99 139 183 237 281 351 408
#     4  12  26  44  69 109 135 183 233 291 339 410
#     4  12  26  47  68  99 145 184 229 285 342 416
#
# _framework density 20.892378999999998
#
# number of rings (size 3 to 8) (size 9 to 14) (size 15 to 20)
#    0.000    0.000    7.500    1.875    5.250    3.000 
#    0.000    3.750    0.000    0.000    0.000    0.000 
#    0.000    0.000    0.000    0.000    0.000    0.000 
#
# Total GULP energy -397009.514802 kJ/mol
# GULP energy per Si atom -12406.547338 kJ/mol
# Density = 2.084483 g / cm^3
# Si number density = 20.892379 Si / 1000 Ang^3
#
#
#
# Elastic Constant Matrix: (Units=GPa)
#
#
# Indices 1 2 3 4 5 6 
#
# 1 142.5232 14.1049 29.0934 0.0000 0.0000 0.0000
# 2 14.1049 99.9056 44.9398 0.0000 0.0000 0.0000
# 3 29.0934 44.9398 187.3532 0.0000 0.0000 0.0000
# 4 0.0000 0.0000 0.0000 40.0142 0.0000 0.0000
# 5 0.0000 0.0000 0.0000 0.0000 28.1725 0.0000
# 6 0.0000 0.0000 0.0000 0.0000 0.0000 60.8005
#
#
#
# Elastic Compliance Matrix: (Units=1/GPa)
#
#
# Indices 1 2 3 4 5 6 
#
# 1 0.007276 -0.000582 -0.000990 0.000000 0.000000 0.000000
# 2 -0.000582 0.011267 -0.002612 0.000000 0.000000 0.000000
# 3 -0.000990 -0.002612 0.006118 0.000000 0.000000 0.000000
# 4 0.000000 0.000000 0.000000 0.024991 0.000000 0.000000
# 5 0.000000 0.000000 0.000000 0.000000 0.035496 0.000000
# 6 0.000000 0.000000 0.000000 0.000000 0.000000 0.016447
#
#
# Mechanical properties :
#
#
# Convention : Reuss Voigt Hill
#
# Bulk Modulus (GPa) = 61.37952 67.33978 64.35965
# Shear Modulus (GPa) = 43.32989 48.57370 45.95180
#
# Velocity S-wave (km/s) = 4.55901 4.82700 4.69492
# Velocity P-wave (km/s) = 7.56012 7.96042 7.76285
#
# Compressibility (1/GPa) = 0.01629208
#
# Stress axis : x y z
#
# Youngs Moduli (GPa) = 137.43555 88.75802 163.45585
#
# Poissons Ratio (x) = 0.05164 0.16188
# Poissons Ratio (y) = 0.07996 0.42697
# Poissons Ratio (z) = 0.13611 0.23185
#
# Static dielectric constant tensor:
#      x y z
#    x 3.928320 0.000000 0.000000 
#    y 0.000000 3.907940 0.000000 
#    z 0.000000 0.000000 3.887440 
# 
# 
# High freq. dielectric constant tensor:
#      x y z
#    x 1.832570 0.000000 0.000000 
#    y 0.000000 1.811280 0.000000 
#    z 0.000000 0.000000 1.841530 
# 
# From -- ./inp_files/3246.got.cif
#   From: 2010.03.12/outbox.cif.g09.slc.cpg/sg63_2_cif.got.tgz:3246.got - 2010.04.10 19:34:48.
