data_PCOD8261231
_publ_section_title
;
Structure prediction by ZEFSAII (Michael W. Deem and Ramdas Pophale) SiO2 
 PCOD8261231
Probable space group: C M C M
;
_chemical_formula_sum "Si O2"
_cell_formula_units_Z 64
_cell_length_a 12.364554
_cell_length_b 8.943228
_cell_length_c 23.234434
_cell_angle_alpha 90.000000
_cell_angle_beta 90.000000
_cell_angle_gamma 90.000000
_cell_volume 2569.241071
_symmetry_space_group_name_H-M "C M C M"
_symmetry_group_IT_number 63
_symmetry_cell_setting 'orthorhombic'
loop_
_space_group_symop_operation_xyz
x,y,z
-x,-y,1/2+z
x,-y,-z
-x,y,1/2-z
-x,-y,-z
x,y,1/2-z
-x,y,z
x,-y,1/2+z
1/2+x,1/2+y,z
1/2-x,1/2-y,1/2+z
1/2+x,1/2-y,-z
1/2-x,1/2+y,1/2-z
1/2-x,1/2-y,-z
1/2+x,1/2+y,1/2-z
1/2-x,1/2+y,z
1/2+x,1/2-y,1/2+z
loop_
_atom_site_type_symbol
_atom_site_label
_atom_site_fract_x
_atom_site_fract_y
_atom_site_fract_z
Si Si1 0.627390 0.105605 0.146756
Si Si2 0.125304 0.105861 0.421867
Si Si3 0.370949 0.717200 0.539975
Si Si4 0.696240 0.783933 0.314278
O O1 0.500000 0.101269 0.154174
O O2 0.669923 0.144033 0.081043
O O3 0.676436 0.237485 0.186982
O O4 0.679740 0.950581 0.164221
O O5 0.173117 0.216308 0.473278
O O6 0.139812 0.167298 0.357562
O O7 0.000000 0.102455 0.436964
O O8 0.166680 0.935957 0.428665
O O9 0.500000 0.734991 0.541432
O O10 0.647518 0.767733 0.250000
#
# Coordination Sequence:
#
# PCOD8261231 Si02
#       4
#    16  16  16  16
#     4  11  25  46  70  98 136 176 221 283 339 391
#     4   9  18  37  67 102 138 173 221 282 334 398
#     4   8  17  37  66  99 133 173 220 275 344 402
#     4  12  26  42  65  97 132 180 232 269 327 408
#
# _framework density 24.910080000000001
#
# number of rings (size 3 to 8) (size 9 to 14) (size 15 to 20)
#    0.000    2.000    0.000    4.500    0.000    5.500 
#    0.000    6.250    0.000   15.000    0.000    0.000 
#    0.000    0.000    0.000    0.000    0.000    0.000 
#
# Total GULP energy -396523.484565 kJ/mol
# GULP energy per Si atom -12391.358893 kJ/mol
# Density = 2.485338 g / cm^3
# Si number density = 24.910080 Si / 1000 Ang^3
#
#
#
# Elastic Constant Matrix: (Units=GPa)
#
#
# Indices 1 2 3 4 5 6 
#
# 1 45.7818 44.5766 31.3793 0.0000 0.0000 0.0000
# 2 44.5766 159.5480 98.9393 0.0000 0.0000 0.0000
# 3 31.3793 98.9393 212.6986 0.0000 0.0000 0.0000
# 4 0.0000 0.0000 0.0000 32.4675 0.0000 0.0000
# 5 0.0000 0.0000 0.0000 0.0000 25.3310 0.0000
# 6 0.0000 0.0000 0.0000 0.0000 0.0000 19.0417
#
#
#
# Elastic Compliance Matrix: (Units=1/GPa)
#
#
# Indices 1 2 3 4 5 6 
#
# 1 0.030089 -0.007946 -0.000743 0.000000 0.000000 0.000000
# 2 -0.007946 0.010907 -0.003901 0.000000 0.000000 0.000000
# 3 -0.000743 -0.003901 0.006626 0.000000 0.000000 0.000000
# 4 0.000000 0.000000 0.000000 0.030800 0.000000 0.000000
# 5 0.000000 0.000000 0.000000 0.000000 0.039477 0.000000
# 6 0.000000 0.000000 0.000000 0.000000 0.000000 0.052516
#
#
# Mechanical properties :
#
#
# Convention : Reuss Voigt Hill
#
# Bulk Modulus (GPa) = 44.56047 85.31319 64.93683
# Shear Modulus (GPa) = 24.62139 31.57693 28.09916
#
# Velocity S-wave (km/s) = 3.14731 3.56425 3.36225
# Velocity P-wave (km/s) = 5.57986 7.15970 6.41857
#
# Compressibility (1/GPa) = 0.02244141
#
# Stress axis : x y z
#
# Youngs Moduli (GPa) = 33.23519 91.68425 150.92528
#
# Poissons Ratio (x) = 0.72851 0.11211
# Poissons Ratio (y) = 0.26408 0.58880
# Poissons Ratio (z) = 0.02469 0.35768
#
# Static dielectric constant tensor:
#      x y z
#    x 4.931890 0.000000 0.000000 
#    y 0.000000 4.409760 0.000000 
#    z 0.000000 0.000000 4.833230 
# 
# 
# High freq. dielectric constant tensor:
#      x y z
#    x 2.024360 0.000000 0.000000 
#    y 0.000000 1.983760 0.000000 
#    z 0.000000 0.000000 2.000160 
# 
# From -- ./inp_files/62353.got.cif
#   From: 2010.03.12/outbox.cif.g09.slc.cpg/sg63_32_cif.got.tgz:62353.got - 2010.04.10 19:34:48.
