data_PCOD8261288
_publ_section_title
;
Structure prediction by ZEFSAII (Michael W. Deem and Ramdas Pophale) SiO2 
 PCOD8261288
Probable space group: C M C M
;
_chemical_formula_sum "Si O2"
_cell_formula_units_Z 112
_cell_length_a 14.479372
_cell_length_b 23.588734
_cell_length_c 14.447490
_cell_angle_alpha 90.000000
_cell_angle_beta 90.000000
_cell_angle_gamma 90.000000
_cell_volume 4934.540998
_symmetry_space_group_name_H-M "C M C M"
_symmetry_group_IT_number 63
_symmetry_cell_setting 'orthorhombic'
loop_
_space_group_symop_operation_xyz
x,y,z
-x,-y,1/2+z
x,-y,-z
-x,y,1/2-z
-x,-y,-z
x,y,1/2-z
-x,y,z
x,-y,1/2+z
1/2+x,1/2+y,z
1/2-x,1/2-y,1/2+z
1/2+x,1/2-y,-z
1/2-x,1/2+y,1/2-z
1/2-x,1/2-y,-z
1/2+x,1/2+y,1/2-z
1/2-x,1/2+y,z
1/2+x,1/2-y,1/2+z
loop_
_atom_site_type_symbol
_atom_site_label
_atom_site_fract_x
_atom_site_fract_y
_atom_site_fract_z
Si Si1 0.610504 0.699264 0.647870
Si Si2 0.890337 0.747680 0.964532
Si Si3 0.109145 0.642494 0.852957
Si Si4 0.606541 0.359033 0.858564
Si Si5 0.214188 0.032221 0.139435
Si Si6 0.397898 0.573957 0.640751
Si Si7 0.399051 0.982929 0.140060
O O1 0.646106 0.717902 0.750000
O O2 0.500000 0.695747 0.648926
O O3 0.645411 0.744148 0.570495
O O4 0.646320 0.636058 0.620429
O O5 0.847065 0.690545 0.920377
O O6 0.858138 0.801559 0.905088
O O7 0.000000 0.743397 0.963771
O O8 0.152476 0.649949 0.750000
O O9 0.130116 0.580092 0.893888
O O10 0.000000 0.651356 0.845786
O O11 0.621523 0.352103 0.750000
O O12 0.500000 0.371739 0.882462
O O13 0.666639 0.411112 0.899826
O O14 0.207115 0.032499 0.250000
O O15 0.164798 0.976099 0.098476
O O16 0.321999 0.028296 0.107668
O O17 0.405453 0.565893 0.750000
O O18 0.500000 0.569071 0.596416
O O19 0.404929 0.979633 0.250000
O O20 0.500000 0.000942 0.100324
#
# Coordination Sequence:
#
# PCOD8261288 Si02
#       7
#    16  16  16  16  16  16  16
#     4   8  14  24  37  54  79 112 148 184 219 259
#     4   9  15  23  37  57  84 119 151 176 212 267
#     4   8  13  22  37  57  82 113 146 178 216 265
#     4   9  16  24  35  57  91 125 153 180 211 257
#     4   9  15  23  37  55  79 113 147 182 227 267
#     4   8  13  22  36  53  76 109 145 178 214 258
#     4   8  14  24  38  58  83 109 142 187 232 271
#
# _framework density 22.697146
#
# number of rings (size 3 to 8) (size 9 to 14) (size 15 to 20)
#    0.000    3.571    0.000    2.571    0.000    3.429 
#    0.000    0.714    0.000    4.286    0.000    0.000 
#    0.000    5.714    0.000   25.571    0.000    1.143 
#
# Total GULP energy -693948.153573 kJ/mol
# GULP energy per Si atom -12391.931314 kJ/mol
# Density = 2.264549 g / cm^3
# Si number density = 22.697146 Si / 1000 Ang^3
#
#
#
# Elastic Constant Matrix: (Units=GPa)
#
#
# Indices 1 2 3 4 5 6 
#
# 1 68.1586 42.3364 13.5589 0.0000 0.0000 0.0000
# 2 42.3364 79.1928 27.6863 0.0000 0.0000 0.0000
# 3 13.5589 27.6863 53.2430 0.0000 0.0000 0.0000
# 4 0.0000 0.0000 0.0000 16.4477 0.0000 0.0000
# 5 0.0000 0.0000 0.0000 0.0000 4.5713 0.0000
# 6 0.0000 0.0000 0.0000 0.0000 0.0000 9.1419
#
#
#
# Elastic Compliance Matrix: (Units=1/GPa)
#
#
# Indices 1 2 3 4 5 6 
#
# 1 0.021983 -0.011971 0.000627 0.000000 0.000000 0.000000
# 2 -0.011971 0.021952 -0.008366 0.000000 0.000000 0.000000
# 3 0.000627 -0.008366 0.022973 0.000000 0.000000 0.000000
# 4 0.000000 0.000000 0.000000 0.060799 0.000000 0.000000
# 5 0.000000 0.000000 0.000000 0.000000 0.218758 0.000000
# 6 0.000000 0.000000 0.000000 0.000000 0.000000 0.109386
#
#
# Mechanical properties :
#
#
# Convention : Reuss Voigt Hill
#
# Bulk Modulus (GPa) = 36.38208 40.86195 38.62201
# Shear Modulus (GPa) = 9.91210 13.83303 11.87256
#
# Velocity S-wave (km/s) = 2.09203 2.47141 2.28959
# Velocity P-wave (km/s) = 4.67970 5.11723 4.90335
#
# Compressibility (1/GPa) = 0.02748606
#
# Stress axis : x y z
#
# Youngs Moduli (GPa) = 45.49023 45.55373 43.52982
#
# Poissons Ratio (x) = 0.54533 -0.02728
# Poissons Ratio (y) = 0.54457 0.36419
# Poissons Ratio (z) = -0.02851 0.38112
#
# Static dielectric constant tensor:
#      x y z
#    x 3.975390 0.000000 0.000000 
#    y 0.000000 4.089580 0.000000 
#    z 0.000000 0.000000 3.977380 
# 
# 
# High freq. dielectric constant tensor:
#      x y z
#    x 1.875150 0.000000 0.000000 
#    y 0.000000 1.877670 0.000000 
#    z 0.000000 0.000000 1.874280 
# 
# From -- ./inp_files/32267.got.cif
#   From: 2010.03.12/outbox.cif.g09.slc.cpg/sg63_17_cif.got.tgz:32267.got - 2010.04.10 19:34:48.
