data_PCOD8261000
_publ_section_title
;
Structure prediction by ZEFSAII (Michael W. Deem and Ramdas Pophale) SiO2 
 PCOD8261000
Probable space group: C M C M
;
_chemical_formula_sum "Si O2"
_cell_formula_units_Z 80
_cell_length_a 8.924353
_cell_length_b 19.056568
_cell_length_c 25.718511
_cell_angle_alpha 90.000000
_cell_angle_beta 90.000000
_cell_angle_gamma 90.000000
_cell_volume 4373.883893
_symmetry_space_group_name_H-M "C M C M"
_symmetry_group_IT_number 63
_symmetry_cell_setting 'orthorhombic'
loop_
_space_group_symop_operation_xyz
x,y,z
-x,-y,1/2+z
x,-y,-z
-x,y,1/2-z
-x,-y,-z
x,y,1/2-z
-x,y,z
x,-y,1/2+z
1/2+x,1/2+y,z
1/2-x,1/2-y,1/2+z
1/2+x,1/2-y,-z
1/2-x,1/2+y,1/2-z
1/2-x,1/2-y,-z
1/2+x,1/2+y,1/2-z
1/2-x,1/2+y,z
1/2+x,1/2-y,1/2+z
loop_
_atom_site_type_symbol
_atom_site_label
_atom_site_fract_x
_atom_site_fract_y
_atom_site_fract_z
Si Si1 0.173528 0.618655 0.809563
Si Si2 0.174903 0.617172 0.533050
Si Si3 0.323068 0.482357 0.112010
Si Si4 0.171729 0.262373 0.388590
Si Si5 0.175941 0.377348 0.913786
O O1 0.223550 0.624498 0.750000
O O2 0.271150 0.558977 0.836861
O O3 0.202038 0.693863 0.836152
O O4 0.000000 0.597481 0.815663
O O5 0.262767 0.553183 0.559331
O O6 0.213539 0.689829 0.561755
O O7 0.226871 0.624046 0.473851
O O8 0.000000 0.599428 0.538533
O O9 0.500000 0.484081 0.110147
O O10 0.260557 0.560897 0.116178
O O11 0.279134 0.195577 0.387133
O O12 0.000000 0.237285 0.392013
O O13 0.000000 0.388720 0.908223
#
# Coordination Sequence:
#
# PCOD8261000 Si02
#       5
#    16  16  16  16  16
#     4   9  19  39  63  80  99 132 171 213 264 318
#     4   9  19  35  53  74 105 145 182 214 253 305
#     4  11  22  34  52  79 108 138 175 218 261 307
#     4   9  18  33  53  79 107 134 170 215 262 310
#     4  11  21  33  51  76 109 146 179 213 255 304
#
# _framework density 18.290379999999999
#
# number of rings (size 3 to 8) (size 9 to 14) (size 15 to 20)
#    0.000    2.200    0.000    4.800    0.000    7.600 
#    0.000    1.000    0.000    3.600    0.000    0.000 
#    0.000    0.000    0.000    0.000    0.000    0.000 
#
# Total GULP energy -496176.506130 kJ/mol
# GULP energy per Si atom -12404.412653 kJ/mol
# Density = 1.824875 g / cm^3
# Si number density = 18.290380 Si / 1000 Ang^3
#
#
#
# Elastic Constant Matrix: (Units=GPa)
#
#
# Indices 1 2 3 4 5 6 
#
# 1 88.2619 57.5196 34.7467 0.0000 0.0000 0.0000
# 2 57.5196 127.2533 43.8212 0.0000 0.0000 0.0000
# 3 34.7467 43.8212 99.7755 0.0000 0.0000 0.0000
# 4 0.0000 0.0000 0.0000 11.0898 0.0000 0.0000
# 5 0.0000 0.0000 0.0000 0.0000 19.3395 0.0000
# 6 0.0000 0.0000 0.0000 0.0000 0.0000 36.5135
#
#
#
# Elastic Compliance Matrix: (Units=1/GPa)
#
#
# Indices 1 2 3 4 5 6 
#
# 1 0.016771 -0.006562 -0.002959 0.000000 0.000000 0.000000
# 2 -0.006562 0.011826 -0.002909 0.000000 0.000000 0.000000
# 3 -0.002959 -0.002909 0.012330 0.000000 0.000000 0.000000
# 4 0.000000 0.000000 0.000000 0.090173 0.000000 0.000000
# 5 0.000000 0.000000 0.000000 0.000000 0.051708 0.000000
# 6 0.000000 0.000000 0.000000 0.000000 0.000000 0.027387
#
#
# Mechanical properties :
#
#
# Convention : Reuss Voigt Hill
#
# Bulk Modulus (GPa) = 62.23165 65.27396 63.75281
# Shear Modulus (GPa) = 20.79783 25.33544 23.06663
#
# Velocity S-wave (km/s) = 3.37574 3.72584 3.55510
# Velocity P-wave (km/s) = 7.02084 7.36710 7.19606
#
# Compressibility (1/GPa) = 0.01606899
#
# Stress axis : x y z
#
# Youngs Moduli (GPa) = 59.62711 84.55938 81.10067
#
# Poissons Ratio (x) = 0.55486 0.23994
# Poissons Ratio (y) = 0.39126 0.23591
# Poissons Ratio (z) = 0.17641 0.24597
#
# Static dielectric constant tensor:
#      x y z
#    x 3.265460 0.000000 0.000000 
#    y 0.000000 3.327410 0.000000 
#    z 0.000000 0.000000 3.357820 
# 
# 
# High freq. dielectric constant tensor:
#      x y z
#    x 1.706670 0.000000 0.000000 
#    y 0.000000 1.712230 0.000000 
#    z 0.000000 0.000000 1.695090 
# 
# From -- ./inp_files/66553.got.cif
#   From: 2010.03.12/outbox.cif.g09.slc.cpg/sg63_34_cif.got.tgz:66553.got - 2010.04.10 19:34:48.
