data_PCOD8261268
_publ_section_title
;
Structure prediction by ZEFSAII (Michael W. Deem and Ramdas Pophale) SiO2 
 PCOD8261268
Probable space group: C M C M
;
_chemical_formula_sum "Si O2"
_cell_formula_units_Z 112
_cell_length_a 29.244993
_cell_length_b 33.305976
_cell_length_c 9.878574
_cell_angle_alpha 90.000000
_cell_angle_beta 90.000000
_cell_angle_gamma 90.000000
_cell_volume 9622.057414
_symmetry_space_group_name_H-M "C M C M"
_symmetry_group_IT_number 63
_symmetry_cell_setting 'orthorhombic'
loop_
_space_group_symop_operation_xyz
x,y,z
-x,-y,1/2+z
x,-y,-z
-x,y,1/2-z
-x,-y,-z
x,y,1/2-z
-x,y,z
x,-y,1/2+z
1/2+x,1/2+y,z
1/2-x,1/2-y,1/2+z
1/2+x,1/2-y,-z
1/2-x,1/2+y,1/2-z
1/2-x,1/2-y,-z
1/2+x,1/2+y,1/2-z
1/2-x,1/2+y,z
1/2+x,1/2-y,1/2+z
loop_
_atom_site_type_symbol
_atom_site_label
_atom_site_fract_x
_atom_site_fract_y
_atom_site_fract_z
Si Si1 0.449204 0.880882 0.910940
Si Si2 0.183137 0.746206 0.401343
Si Si3 0.276115 0.695840 0.401396
Si Si4 0.279892 0.123068 0.089505
Si Si5 0.366421 0.830306 0.911189
Si Si6 0.297650 0.035847 0.095112
Si Si7 0.905391 0.463951 0.905106
O O1 0.450150 0.879652 0.750000
O O2 0.500000 0.873630 0.970520
O O3 0.415440 0.845846 0.966292
O O4 0.430806 0.924178 0.957460
O O5 0.172731 0.762020 0.250000
O O6 0.229984 0.721533 0.401300
O O7 0.186181 0.784558 0.500071
O O8 0.142897 0.716137 0.452830
O O9 0.296836 0.694612 0.250000
O O10 0.263413 0.650807 0.453448
O O11 0.284983 0.124686 0.250000
O O12 0.326725 0.141154 0.026869
O O13 0.273011 0.076863 0.044352
O O14 0.364776 0.833432 0.750000
O O15 0.284800 0.025471 0.250000
O O16 0.351505 0.042975 0.080206
O O17 0.280015 0.000000 0.000000
O O18 0.918307 0.474009 0.750000
O O19 0.922452 0.500000 0.000000
#
# Coordination Sequence:
#
# PCOD8261268 Si02
#       7
#    16  16  16  16  16  16  16
#     4   9  15  22  33  48  61  73  96 127 152 178
#     4   8  13  20  31  45  61  77  90 107 137 174
#     4   8  13  20  31  46  60  74  93 113 133 164
#     4   8  12  20  33  44  56  77  99 116 140 177
#     4   8  12  20  32  44  57  76  97 115 142 179
#     4   9  15  23  34  45  58  76  99 123 148 179
#     4   9  16  25  36  47  58  72  93 122 155 188
#
# _framework density 11.639922
#
# number of rings (size 3 to 8) (size 9 to 14) (size 15 to 20)
#    0.000    3.571    1.429    1.714    0.000    0.286 
#    0.000    0.714    0.000    1.714    0.000    0.000 
#    0.000    0.000    0.000    0.000    0.000    0.000 
#
# Total GULP energy -693807.487109 kJ/mol
# GULP energy per Si atom -12389.419413 kJ/mol
# Density = 1.161343 g / cm^3
# Si number density = 11.639922 Si / 1000 Ang^3
#
#
#
# Elastic Constant Matrix: (Units=GPa)
#
#
# Indices 1 2 3 4 5 6 
#
# 1 34.8104 45.6323 18.6843 0.0000 0.0000 0.0000
# 2 45.6323 100.6985 38.0395 0.0000 0.0000 0.0000
# 3 18.6843 38.0395 35.1953 0.0000 0.0000 0.0000
# 4 0.0000 0.0000 0.0000 17.7492 0.0000 0.0000
# 5 0.0000 0.0000 0.0000 0.0000 6.4852 0.0000
# 6 0.0000 0.0000 0.0000 0.0000 0.0000 17.0342
#
#
#
# Elastic Compliance Matrix: (Units=1/GPa)
#
#
# Indices 1 2 3 4 5 6 
#
# 1 0.071269 -0.030426 -0.004950 0.000000 0.000000 0.000000
# 2 -0.030426 0.029772 -0.016026 0.000000 0.000000 0.000000
# 3 -0.004950 -0.016026 0.048362 0.000000 0.000000 0.000000
# 4 0.000000 0.000000 0.000000 0.056340 0.000000 0.000000
# 5 0.000000 0.000000 0.000000 0.000000 0.154197 0.000000
# 6 0.000000 0.000000 0.000000 0.000000 0.000000 0.058705
#
#
# Mechanical properties :
#
#
# Convention : Reuss Voigt Hill
#
# Bulk Modulus (GPa) = 21.45960 41.71292 31.58626
# Shear Modulus (GPa) = 9.31128 12.81028 11.06078
#
# Velocity S-wave (km/s) = 2.83140 3.32105 3.08595
# Velocity P-wave (km/s) = 5.40049 7.11475 6.31605
#
# Compressibility (1/GPa) = 0.04659920
#
# Stress axis : x y z
#
# Youngs Moduli (GPa) = 14.03132 33.58811 20.67758
#
# Poissons Ratio (x) = 1.02196 0.10235
# Poissons Ratio (y) = 0.42692 0.33138
# Poissons Ratio (z) = 0.06945 0.53828
#
# Static dielectric constant tensor:
#      x y z
#    x 2.304710 0.000000 0.000000 
#    y 0.000000 2.654380 0.000000 
#    z 0.000000 0.000000 2.287050 
# 
# 
# High freq. dielectric constant tensor:
#      x y z
#    x 1.390790 0.000000 0.000000 
#    y 0.000000 1.436580 0.000000 
#    z 0.000000 0.000000 1.413810 
# 
# From -- ./inp_files/24307.got.cif
#   From: 2010.03.12/outbox.cif.g09.slc.cpg/sg63_13_cif.got.tgz:24307.got - 2010.04.10 19:34:48.
