data_PCOD8261898
_publ_section_title
;
Structure prediction by ZEFSAII (Michael W. Deem and Ramdas Pophale) SiO2 
 PCOD8261898
Probable space group: C M C A
;
_chemical_formula_sum "Si O2"
_cell_formula_units_Z 112
_cell_length_a 14.376684
_cell_length_b 27.931843
_cell_length_c 14.046034
_cell_angle_alpha 90.000000
_cell_angle_beta 90.000000
_cell_angle_gamma 90.000000
_cell_volume 5640.427673
_symmetry_space_group_name_H-M "C M C A"
_symmetry_group_IT_number 64
_symmetry_cell_setting 'orthorhombic'
loop_
_space_group_symop_operation_xyz
x,y,z
-x,1/2-y,1/2+z
x,-y,-z
-x,1/2+y,1/2-z
-x,-y,-z
x,1/2+y,1/2-z
-x,y,z
x,1/2-y,1/2+z
1/2+x,1/2+y,z
1/2-x,-y,1/2+z
1/2+x,1/2-y,-z
1/2-x,y,1/2-z
1/2-x,1/2-y,-z
1/2+x,y,1/2-z
1/2-x,1/2+y,z
1/2+x,-y,1/2+z
loop_
_atom_site_type_symbol
_atom_site_label
_atom_site_fract_x
_atom_site_fract_y
_atom_site_fract_z
Si Si1 0.357667 0.741482 0.273184
Si Si2 0.604367 0.450571 0.242900
Si Si3 0.258242 0.963451 0.087768
Si Si4 0.897926 0.190437 0.093672
Si Si5 0.648611 0.346470 0.209902
Si Si6 0.262250 0.859180 0.480094
Si Si7 0.892984 0.214667 0.486710
O O1 0.250000 0.743803 0.250000
O O2 0.407959 0.704423 0.203776
O O3 0.397008 0.795956 0.257773
O O4 0.377793 0.720405 0.375408
O O5 0.500000 0.472817 0.238927
O O6 0.654831 0.468911 0.339505
O O7 0.663094 0.467183 0.149695
O O8 0.590477 0.392788 0.242068
O O9 0.266441 0.913459 0.033296
O O10 0.260868 0.000000 0.000000
O O11 0.000000 0.173735 0.057843
O O12 0.819448 0.149405 0.078755
O O13 0.860160 0.237034 0.038022
O O14 0.750000 0.357217 0.250000
O O15 0.660640 0.342347 0.096424
O O16 0.168019 0.828704 0.472541
O O17 0.000000 0.203140 0.510145
#
# Coordination Sequence:
#
# PCOD8261898 Si02
#       7
#    16  16  16  16  16  16  16
#     4  11  20  34  56  77 120 165 201 242 288 341
#     4  10  21  39  66  98 123 149 197 255 312 368
#     4  10  23  44  66  92 124 158 200 255 316 368
#     4  11  23  35  53  83 118 156 197 237 288 352
#     4  10  18  34  58  87 116 154 192 244 304 345
#     4  11  20  39  58  81 118 155 196 243 295 349
#     4  11  22  35  53  83 119 157 197 237 287 353
#
# _framework density 19.856650999999999
#
# number of rings (size 3 to 8) (size 9 to 14) (size 15 to 20)
#    0.000    1.429    5.714    2.571    0.000    4.571 
#    0.000    2.857    0.000    0.000    0.000    0.000 
#    0.000    0.000    0.000    0.000    0.000    0.000 
#
# Total GULP energy -694087.861883 kJ/mol
# GULP energy per Si atom -12394.426105 kJ/mol
# Density = 1.981146 g / cm^3
# Si number density = 19.856651 Si / 1000 Ang^3
#
#
#
# Elastic Constant Matrix: (Units=GPa)
#
#
# Indices 1 2 3 4 5 6 
#
# 1 111.4518 32.9331 26.0344 0.0000 0.0000 0.0000
# 2 32.9331 68.9358 38.9228 0.0000 0.0000 0.0000
# 3 26.0344 38.9228 102.8280 0.0000 0.0000 0.0000
# 4 0.0000 0.0000 0.0000 35.3746 0.0000 0.0000
# 5 0.0000 0.0000 0.0000 0.0000 15.7592 0.0000
# 6 0.0000 0.0000 0.0000 0.0000 0.0000 -1.9922
#
#
#
# Elastic Compliance Matrix: (Units=1/GPa)
#
#
# Indices 1 2 3 4 5 6 
#
# 1 0.010523 -0.004480 -0.000968 0.000000 0.000000 0.000000
# 2 -0.004480 0.020357 -0.006571 0.000000 0.000000 0.000000
# 3 -0.000968 -0.006571 0.012457 0.000000 0.000000 0.000000
# 4 0.000000 0.000000 0.000000 0.028269 0.000000 0.000000
# 5 0.000000 0.000000 0.000000 0.000000 0.063455 0.000000
# 6 0.000000 0.000000 0.000000 0.000000 0.000000 -0.501962
#
#
# Mechanical properties :
#
#
# Convention : Reuss Voigt Hill
#
# Bulk Modulus (GPa) = 51.82044 53.22181 52.52113
# Shear Modulus (GPa) = -14.86199 22.18334 3.66067
#
# Velocity S-wave (km/s) = -2.73878 3.34604 1.35925
# Velocity P-wave (km/s) = 4.01905 6.46446 5.38247
#
# Compressibility (1/GPa) = 0.01929740
#
# Stress axis : x y z
#
# Youngs Moduli (GPa) = 95.03386 49.12337 80.27309
#
# Poissons Ratio (x) = 0.22009 0.07772
# Poissons Ratio (y) = 0.42578 0.52749
# Poissons Ratio (z) = 0.09202 0.32280
#
# Static dielectric constant tensor:
#      x y z
#    x 3.892060 0.000000 0.000000 
#    y 0.000000 3.328770 0.000000 
#    z 0.000000 0.000000 3.925380 
# 
# 
# High freq. dielectric constant tensor:
#      x y z
#    x 1.779590 0.000000 0.000000 
#    y 0.000000 1.731810 0.000000 
#    z 0.000000 0.000000 1.781670 
# 
# From -- ./inp_files/24432.got.cif
#   From: 2010.03.12/outbox.cif.g09.slc.cpg/sg64_13_cif.got.tgz:24432.got - 2010.04.10 20:19:32.
