data_PCOD8261108
_publ_section_title
;
Structure prediction by ZEFSAII (Michael W. Deem and Ramdas Pophale) SiO2 
 PCOD8261108
Probable space group: C M C M
;
_chemical_formula_sum "Si O2"
_cell_formula_units_Z 88
_cell_length_a 24.495118
_cell_length_b 8.487512
_cell_length_c 19.766320
_cell_angle_alpha 90.000000
_cell_angle_beta 90.000000
_cell_angle_gamma 90.000000
_cell_volume 4109.469478
_symmetry_space_group_name_H-M "C M C M"
_symmetry_group_IT_number 63
_symmetry_cell_setting 'orthorhombic'
loop_
_space_group_symop_operation_xyz
x,y,z
-x,-y,1/2+z
x,-y,-z
-x,y,1/2-z
-x,-y,-z
x,y,1/2-z
-x,y,z
x,-y,1/2+z
1/2+x,1/2+y,z
1/2-x,1/2-y,1/2+z
1/2+x,1/2-y,-z
1/2-x,1/2+y,1/2-z
1/2-x,1/2-y,-z
1/2+x,1/2+y,1/2-z
1/2-x,1/2+y,z
1/2+x,1/2-y,1/2+z
loop_
_atom_site_type_symbol
_atom_site_label
_atom_site_fract_x
_atom_site_fract_y
_atom_site_fract_z
Si Si1 0.187166 0.950391 0.427103
Si Si2 0.193272 0.424249 0.572427
Si Si3 0.500000 0.675927 0.028568
Si Si4 0.000000 0.617876 0.403706
Si Si5 0.410270 0.371401 0.864047
Si Si6 0.602316 0.029239 0.827498
Si Si7 0.000000 0.088819 0.680286
O O1 0.189756 0.762856 0.428174
O O2 0.166197 0.000000 0.500000
O O3 0.245806 0.022631 0.410098
O O4 0.143625 0.024631 0.376332
O O5 0.174896 0.500000 0.500000
O O6 0.157188 0.479133 0.635122
O O7 0.443900 0.687352 0.070352
O O8 0.500000 0.500000 0.000000
O O9 0.500000 0.839582 0.983995
O O10 0.947383 0.531016 0.374297
O O11 0.000000 0.800292 0.383284
O O12 0.395752 0.216908 0.821746
O O13 0.447190 0.480293 0.817890
O O14 0.599083 0.962609 0.750000
O O15 0.000000 0.188767 0.750000
#
# Coordination Sequence:
#
# PCOD8261108 Si02
#       7
#    16  16   8   8  16  16   8
#     4  11  22  41  69 101 135 169 221 274 337 400
#     4  11  24  43  70 102 134 176 219 275 338 395
#     4  11  23  39  64 108 132 168 216 281 327 401
#     4  12  25  41  66  94 138 173 219 272 340 393
#     4  11  23  40  67  93 135 176 220 280 329 388
#     4  12  27  45  64  95 134 177 228 278 329 397
#     4  11  22  39  60  90 128 181 224 261 332 401
#
# _framework density 21.413955999999999
#
# number of rings (size 3 to 8) (size 9 to 14) (size 15 to 20)
#    0.000    0.727    1.818    8.455    5.091    0.727 
#    0.000    5.455    0.000    0.000    0.000    0.000 
#    0.000    0.000    0.000    0.000    0.000    0.000 
#
# Total GULP energy -545273.118503 kJ/mol
# GULP energy per Si atom -12392.570875 kJ/mol
# Density = 2.136522 g / cm^3
# Si number density = 21.413956 Si / 1000 Ang^3
#
#
#
# Elastic Constant Matrix: (Units=GPa)
#
#
# Indices 1 2 3 4 5 6 
#
# 1 116.1555 32.4144 41.9459 0.0000 0.0000 0.0000
# 2 32.4144 139.1675 12.5822 0.0000 0.0000 0.0000
# 3 41.9459 12.5822 84.3170 0.0000 0.0000 0.0000
# 4 0.0000 0.0000 0.0000 22.4851 0.0000 0.0000
# 5 0.0000 0.0000 0.0000 0.0000 -22.2416 0.0000
# 6 0.0000 0.0000 0.0000 0.0000 0.0000 44.8554
#
#
#
# Elastic Compliance Matrix: (Units=1/GPa)
#
#
# Indices 1 2 3 4 5 6 
#
# 1 0.011074 -0.002110 -0.005194 0.000000 0.000000 0.000000
# 2 -0.002110 0.007686 -0.000097 0.000000 0.000000 0.000000
# 3 -0.005194 -0.000097 0.014458 0.000000 0.000000 0.000000
# 4 0.000000 0.000000 0.000000 0.044474 0.000000 0.000000
# 5 0.000000 0.000000 0.000000 0.000000 -0.044961 0.000000
# 6 0.000000 0.000000 0.000000 0.000000 0.000000 0.022294
#
#
# Mechanical properties :
#
#
# Convention : Reuss Voigt Hill
#
# Bulk Modulus (GPa) = 54.30176 57.05834 55.68005
# Shear Modulus (GPa) = 65.81950 25.86629 45.84289
#
# Velocity S-wave (km/s) = 5.55009 3.47928 4.63189
# Velocity P-wave (km/s) = 8.15380 6.54552 7.39352
#
# Compressibility (1/GPa) = 0.01841561
#
# Stress axis : x y z
#
# Youngs Moduli (GPa) = 90.30552 130.11082 69.16361
#
# Poissons Ratio (x) = 0.27448 0.35924
# Poissons Ratio (y) = 0.19051 0.00674
# Poissons Ratio (z) = 0.46905 0.01268
#
# Static dielectric constant tensor:
#      x y z
#    x 3.930410 0.000000 0.000000 
#    y 0.000000 7.254340 0.000000 
#    z 0.000000 0.000000 3.602470 
# 
# 
# High freq. dielectric constant tensor:
#      x y z
#    x 1.845500 0.000000 0.000000 
#    y 0.000000 1.864330 0.000000 
#    z 0.000000 0.000000 1.833930 
# 
# From -- ./inp_files/57379.got.cif
#   From: 2010.03.12/outbox.cif.g09.slc.cpg/sg63_29_cif.got.tgz:57379.got - 2010.04.10 19:34:48.
