data_PCOD8261783
_publ_section_title
;
Structure prediction by ZEFSAII (Michael W. Deem and Ramdas Pophale) SiO2 
 PCOD8261783
Probable space group: C M C A
;
_chemical_formula_sum "Si O2"
_cell_formula_units_Z 96
_cell_length_a 9.481504
_cell_length_b 23.383730
_cell_length_c 25.082367
_cell_angle_alpha 90.000000
_cell_angle_beta 90.000000
_cell_angle_gamma 90.000000
_cell_volume 5561.085067
_symmetry_space_group_name_H-M "C M C A"
_symmetry_group_IT_number 64
_symmetry_cell_setting 'orthorhombic'
loop_
_space_group_symop_operation_xyz
x,y,z
-x,1/2-y,1/2+z
x,-y,-z
-x,1/2+y,1/2-z
-x,-y,-z
x,1/2+y,1/2-z
-x,y,z
x,1/2-y,1/2+z
1/2+x,1/2+y,z
1/2-x,-y,1/2+z
1/2+x,1/2-y,-z
1/2-x,y,1/2-z
1/2-x,1/2-y,-z
1/2+x,y,1/2-z
1/2-x,1/2+y,z
1/2+x,-y,1/2+z
loop_
_atom_site_type_symbol
_atom_site_label
_atom_site_fract_x
_atom_site_fract_y
_atom_site_fract_z
Si Si1 0.345634 0.257269 0.449796
Si Si2 0.659841 0.647162 0.909912
Si Si3 0.657338 0.636350 0.103070
Si Si4 0.667347 0.816064 0.803697
Si Si5 0.167015 0.436301 0.502719
Si Si6 0.656767 0.815273 0.298426
O O1 0.500000 0.280498 0.466293
O O2 0.250000 0.250000 0.500000
O O3 0.269451 0.301836 0.412315
O O4 0.363398 0.198267 0.420616
O O5 0.500000 0.664967 0.927190
O O6 0.663689 0.637157 0.845982
O O7 0.711855 0.595354 0.947549
O O8 0.500000 0.615089 0.121640
O O9 0.768356 0.641374 0.151358
O O10 0.721271 0.595516 0.056265
O O11 0.500000 0.828233 0.798440
O O12 0.750000 0.832246 0.750000
O O13 0.697890 0.749283 0.817523
O O14 0.232037 0.500000 0.500000
O O15 0.000000 0.438909 0.505878
O O16 0.500000 0.812024 0.275203
O O17 0.750000 0.837950 0.250000
#
# Coordination Sequence:
#
# PCOD8261783 Si02
#       6
#    16  16  16  16  16  16
#     4  11  20  29  45  72 103 133 163 200 249 302
#     4  10  18  32  50  73 101 131 168 205 247 300
#     4  10  19  31  49  73 101 132 168 207 245 298
#     4  10  19  31  48  72 104 136 164 198 244 298
#     4   9  18  33  53  74  97 130 173 215 252 294
#     4   9  18  29  45  69 101 132 160 196 239 294
#
# _framework density 17.262819
#
# number of rings (size 3 to 8) (size 9 to 14) (size 15 to 20)
#    0.000    2.167    3.333    1.000    0.000    2.000 
#    0.000    0.000    0.000    3.000    0.000    2.333 
#    0.000    0.000    0.000    0.000    0.000    0.000 
#
# Total GULP energy -594630.662142 kJ/mol
# GULP energy per Si atom -12388.138795 kJ/mol
# Density = 1.722353 g / cm^3
# Si number density = 17.262819 Si / 1000 Ang^3
#
#
#
# Elastic Constant Matrix: (Units=GPa)
#
#
# Indices 1 2 3 4 5 6 
#
# 1 86.5681 25.5069 55.4545 0.0000 0.0000 0.0000
# 2 25.5069 78.3198 49.8807 0.0000 0.0000 0.0000
# 3 55.4545 49.8807 131.7456 0.0000 0.0000 0.0000
# 4 0.0000 0.0000 0.0000 11.9757 0.0000 0.0000
# 5 0.0000 0.0000 0.0000 0.0000 29.8143 0.0000
# 6 0.0000 0.0000 0.0000 0.0000 0.0000 10.3302
#
#
#
# Elastic Compliance Matrix: (Units=1/GPa)
#
#
# Indices 1 2 3 4 5 6 
#
# 1 0.015902 -0.001207 -0.006237 0.000000 0.000000 0.000000
# 2 -0.001207 0.016917 -0.005897 0.000000 0.000000 0.000000
# 3 -0.006237 -0.005897 0.012448 0.000000 0.000000 0.000000
# 4 0.000000 0.000000 0.000000 0.083503 0.000000 0.000000
# 5 0.000000 0.000000 0.000000 0.000000 0.033541 0.000000
# 6 0.000000 0.000000 0.000000 0.000000 0.000000 0.096804
#
#
# Mechanical properties :
#
#
# Convention : Reuss Voigt Hill
#
# Bulk Modulus (GPa) = 53.80302 62.03529 57.91916
# Shear Modulus (GPa) = 17.12379 21.47679 19.30029
#
# Velocity S-wave (km/s) = 3.15294 3.53102 3.34732
# Velocity P-wave (km/s) = 6.67003 7.25520 6.96876
#
# Compressibility (1/GPa) = 0.01858632
#
# Stress axis : x y z
#
# Youngs Moduli (GPa) = 62.88376 59.11242 80.33296
#
# Poissons Ratio (x) = 0.07135 0.50101
# Poissons Ratio (y) = 0.07590 0.47372
# Poissons Ratio (z) = 0.39218 0.34858
#
# Static dielectric constant tensor:
#      x y z
#    x 3.189080 0.000000 0.000000 
#    y 0.000000 2.817500 0.000000 
#    z 0.000000 0.000000 3.249840 
# 
# 
# High freq. dielectric constant tensor:
#      x y z
#    x 1.660830 0.000000 0.000000 
#    y 0.000000 1.616160 0.000000 
#    z 0.000000 0.000000 1.673120 
# 
# From -- ./inp_files/43044.got.cif
#   From: 2010.03.12/outbox.cif.g09.slc.cpg/sg64_22_cif.got.tgz:43044.got - 2010.04.10 20:19:32.
