data_PCOD8261140
_publ_section_title
;
Structure prediction by ZEFSAII (Michael W. Deem and Ramdas Pophale) SiO2 
 PCOD8261140
Probable space group: C M C M
;
_chemical_formula_sum "Si O2"
_cell_formula_units_Z 96
_cell_length_a 8.829459
_cell_length_b 23.311498
_cell_length_c 25.005969
_cell_angle_alpha 90.000000
_cell_angle_beta 90.000000
_cell_angle_gamma 90.000000
_cell_volume 5146.926482
_symmetry_space_group_name_H-M "C M C M"
_symmetry_group_IT_number 63
_symmetry_cell_setting 'orthorhombic'
loop_
_space_group_symop_operation_xyz
x,y,z
-x,-y,1/2+z
x,-y,-z
-x,y,1/2-z
-x,-y,-z
x,y,1/2-z
-x,y,z
x,-y,1/2+z
1/2+x,1/2+y,z
1/2-x,1/2-y,1/2+z
1/2+x,1/2-y,-z
1/2-x,1/2+y,1/2-z
1/2-x,1/2-y,-z
1/2+x,1/2+y,1/2-z
1/2-x,1/2+y,z
1/2+x,1/2-y,1/2+z
loop_
_atom_site_type_symbol
_atom_site_label
_atom_site_fract_x
_atom_site_fract_y
_atom_site_fract_z
Si Si1 0.676039 0.433562 0.002447
Si Si2 0.324943 0.566579 0.188390
Si Si3 0.825461 0.934815 0.311802
Si Si4 0.175110 0.246631 0.942273
Si Si5 0.822529 0.634764 0.597450
Si Si6 0.174213 0.372720 0.594595
O O1 0.500000 0.423343 0.014547
O O2 0.717852 0.405637 0.946248
O O3 0.717063 0.500000 0.000000
O O4 0.772604 0.405724 0.049247
O O5 0.290471 0.579973 0.250000
O O6 0.500000 0.578600 0.175045
O O7 0.285311 0.500649 0.175133
O O8 0.218712 0.608101 0.154082
O O9 0.793721 0.921245 0.250000
O O10 0.720223 0.893485 0.346267
O O11 0.000000 0.922974 0.326229
O O12 0.245980 0.196700 0.906575
O O13 0.201521 0.305027 0.909950
O O14 0.000000 0.233253 0.951519
O O15 0.250000 0.250000 0.000000
O O16 0.000000 0.643754 0.594049
O O17 0.000000 0.388341 0.582693
#
# Coordination Sequence:
#
# PCOD8261140 Si02
#       6
#    16  16  16  16  16  16
#     4  11  23  37  56  82 114 152 189 230 285 347
#     4   9  19  37  61  87 116 153 193 231 281 346
#     4   9  19  38  62  86 115 153 194 235 283 342
#     4  11  23  40  60  82 112 154 198 239 288 344
#     4  12  24  37  57  86 117 150 191 239 290 344
#     4  11  23  37  57  86 115 146 189 239 290 340
#
# _framework density 18.651907000000001
#
# number of rings (size 3 to 8) (size 9 to 14) (size 15 to 20)
#    0.000    1.500    1.667    5.000    0.000    8.667 
#    0.000    2.500    0.000    1.000    0.000    0.000 
#    0.000    0.000    0.000    0.000    0.000    0.000 
#
# Total GULP energy -595464.610320 kJ/mol
# GULP energy per Si atom -12405.512715 kJ/mol
# Density = 1.860945 g / cm^3
# Si number density = 18.651907 Si / 1000 Ang^3
#
#
#
# Elastic Constant Matrix: (Units=GPa)
#
#
# Indices 1 2 3 4 5 6 
#
# 1 106.5252 68.9127 44.6246 0.0000 0.0000 0.0000
# 2 68.9127 128.1295 59.9613 0.0000 0.0000 0.0000
# 3 44.6246 59.9613 100.4826 0.0000 0.0000 0.0000
# 4 0.0000 0.0000 0.0000 10.3435 0.0000 0.0000
# 5 0.0000 0.0000 0.0000 0.0000 33.4737 0.0000
# 6 0.0000 0.0000 0.0000 0.0000 0.0000 25.9770
#
#
#
# Elastic Compliance Matrix: (Units=1/GPa)
#
#
# Indices 1 2 3 4 5 6 
#
# 1 0.014849 -0.006799 -0.002537 0.000000 0.000000 0.000000
# 2 -0.006799 0.013941 -0.005300 0.000000 0.000000 0.000000
# 3 -0.002537 -0.005300 0.014241 0.000000 0.000000 0.000000
# 4 0.000000 0.000000 0.000000 0.096679 0.000000 0.000000
# 5 0.000000 0.000000 0.000000 0.000000 0.029874 0.000000
# 6 0.000000 0.000000 0.000000 0.000000 0.000000 0.038496
#
#
# Mechanical properties :
#
#
# Convention : Reuss Voigt Hill
#
# Bulk Modulus (GPa) = 72.67702 75.79273 74.23487
# Shear Modulus (GPa) = 20.66639 24.73475 22.70057
#
# Velocity S-wave (km/s) = 3.33228 3.64555 3.49243
# Velocity P-wave (km/s) = 7.33860 7.64484 7.49328
#
# Compressibility (1/GPa) = 0.01375951
#
# Stress axis : x y z
#
# Youngs Moduli (GPa) = 67.34674 71.72853 70.21745
#
# Poissons Ratio (x) = 0.48766 0.17816
# Poissons Ratio (y) = 0.45787 0.37215
# Poissons Ratio (z) = 0.17088 0.38016
#
# Static dielectric constant tensor:
#      x y z
#    x 3.477560 0.000000 0.000000 
#    y 0.000000 3.636200 0.000000 
#    z 0.000000 0.000000 3.428130 
# 
# 
# High freq. dielectric constant tensor:
#      x y z
#    x 1.731400 0.000000 0.000000 
#    y 0.000000 1.727690 0.000000 
#    z 0.000000 0.000000 1.724610 
# 
# From -- ./inp_files/59863.got.cif
#   From: 2010.03.12/outbox.cif.g09.slc.cpg/sg63_30_cif.got.tgz:59863.got - 2010.04.10 19:34:48.
