data_PCOD8261625
_publ_section_title
;
Structure prediction by ZEFSAII (Michael W. Deem and Ramdas Pophale) SiO2 
 PCOD8261625
Probable space group: C M C A
;
_chemical_formula_sum "Si O2"
_cell_formula_units_Z 80
_cell_length_a 17.774849
_cell_length_b 26.341946
_cell_length_c 8.591899
_cell_angle_alpha 90.000000
_cell_angle_beta 90.000000
_cell_angle_gamma 90.000000
_cell_volume 4022.934284
_symmetry_space_group_name_H-M "C M C A"
_symmetry_group_IT_number 64
_symmetry_cell_setting 'orthorhombic'
loop_
_space_group_symop_operation_xyz
x,y,z
-x,1/2-y,1/2+z
x,-y,-z
-x,1/2+y,1/2-z
-x,-y,-z
x,1/2+y,1/2-z
-x,y,z
x,1/2-y,1/2+z
1/2+x,1/2+y,z
1/2-x,-y,1/2+z
1/2+x,1/2-y,-z
1/2-x,y,1/2-z
1/2-x,1/2-y,-z
1/2+x,y,1/2-z
1/2-x,1/2+y,z
1/2+x,-y,1/2+z
loop_
_atom_site_type_symbol
_atom_site_label
_atom_site_fract_x
_atom_site_fract_y
_atom_site_fract_z
Si Si1 0.863575 0.401340 0.345350
Si Si2 0.583688 0.206276 0.671267
Si Si3 0.698660 0.889192 0.018892
Si Si4 0.250000 0.045443 0.250000
Si Si5 0.671363 0.776891 0.030845
Si Si6 0.145694 0.000000 0.000000
O O1 0.915866 0.352851 0.379572
O O2 0.783444 0.388606 0.420040
O O3 0.855763 0.409937 0.157727
O O4 0.899922 0.450193 0.438649
O O5 0.500000 0.218358 0.735181
O O6 0.653098 0.216620 0.787408
O O7 0.601225 0.244095 0.530205
O O8 0.673811 0.833436 0.960648
O O9 0.694708 0.922495 0.862581
O O10 0.302430 0.009649 0.351167
O O11 0.750000 0.750000 0.000000
#
# Coordination Sequence:
#
# PCOD8261625 Si02
#       6
#    16  16  16   8  16   8
#     4   9  18  34  49  74 107 146 185 231 281 326
#     4  11  23  37  54  81 118 152 186 234 287 339
#     4   9  18  30  51  80 109 139 180 232 281 330
#     4  10  18  28  48  80 112 132 176 232 296 324
#     4  11  21  36  59  83 110 150 193 231 277 340
#     4  10  18  30  51  74 108 146 183 230 282 334
#
# _framework density 19.885981000000001
#
# number of rings (size 3 to 8) (size 9 to 14) (size 15 to 20)
#    0.000    2.000    2.000    3.600    2.800    0.000 
#    0.000    0.500    0.000    0.000    0.000   12.600 
#    0.000    0.000    0.000    0.000    0.000    0.000 
#
# Total GULP energy -495625.123821 kJ/mol
# GULP energy per Si atom -12390.628096 kJ/mol
# Density = 1.984072 g / cm^3
# Si number density = 19.885981 Si / 1000 Ang^3
#
#
#
# Elastic Constant Matrix: (Units=GPa)
#
#
# Indices 1 2 3 4 5 6 
#
# 1 63.8513 27.1200 12.2356 0.0000 0.0000 0.0000
# 2 27.1200 133.8562 51.7383 0.0000 0.0000 0.0000
# 3 12.2356 51.7383 86.8926 0.0000 0.0000 0.0000
# 4 0.0000 0.0000 0.0000 39.4990 0.0000 0.0000
# 5 0.0000 0.0000 0.0000 0.0000 16.5244 0.0000
# 6 0.0000 0.0000 0.0000 0.0000 0.0000 12.0939
#
#
#
# Elastic Compliance Matrix: (Units=1/GPa)
#
#
# Indices 1 2 3 4 5 6 
#
# 1 0.017150 -0.003301 -0.000449 0.000000 0.000000 0.000000
# 2 -0.003301 0.010339 -0.005692 0.000000 0.000000 0.000000
# 3 -0.000449 -0.005692 0.014961 0.000000 0.000000 0.000000
# 4 0.000000 0.000000 0.000000 0.025317 0.000000 0.000000
# 5 0.000000 0.000000 0.000000 0.000000 0.060516 0.000000
# 6 0.000000 0.000000 0.000000 0.000000 0.000000 0.082686
#
#
# Mechanical properties :
#
#
# Convention : Reuss Voigt Hill
#
# Bulk Modulus (GPa) = 42.43434 51.86534 47.14984
# Shear Modulus (GPa) = 21.03415 26.52386 23.77901
#
# Velocity S-wave (km/s) = 3.25582 3.65608 3.46174
# Velocity P-wave (km/s) = 5.95978 6.63028 6.30395
#
# Compressibility (1/GPa) = 0.02356582
#
# Stress axis : x y z
#
# Youngs Moduli (GPa) = 58.31068 96.71748 66.84190
#
# Poissons Ratio (x) = 0.31925 0.03004
# Poissons Ratio (y) = 0.19248 0.38044
# Poissons Ratio (z) = 0.02621 0.55047
#
# Static dielectric constant tensor:
#      x y z
#    x 3.065210 0.000000 0.000000 
#    y 0.000000 4.159880 0.000000 
#    z 0.000000 0.000000 3.147450 
# 
# 
# High freq. dielectric constant tensor:
#      x y z
#    x 1.722750 0.000000 0.000000 
#    y 0.000000 1.796490 0.000000 
#    z 0.000000 0.000000 1.774760 
# 
# From -- ./inp_files/7179.got.cif
#   From: 2010.03.12/outbox.cif.g09.slc.cpg/sg64_4_cif.got.tgz:7179.got - 2010.04.10 20:19:32.
