data_PCOD8261778
_publ_section_title
;
Structure prediction by ZEFSAII (Michael W. Deem and Ramdas Pophale) SiO2 
 PCOD8261778
Probable space group: C M C A
;
_chemical_formula_sum "Si O2"
_cell_formula_units_Z 104
_cell_length_a 17.128156
_cell_length_b 25.938757
_cell_length_c 11.858236
_cell_angle_alpha 90.000000
_cell_angle_beta 90.000000
_cell_angle_gamma 90.000000
_cell_volume 5268.413570
_symmetry_space_group_name_H-M "C M C A"
_symmetry_group_IT_number 64
_symmetry_cell_setting 'orthorhombic'
loop_
_space_group_symop_operation_xyz
x,y,z
-x,1/2-y,1/2+z
x,-y,-z
-x,1/2+y,1/2-z
-x,-y,-z
x,1/2+y,1/2-z
-x,y,z
x,1/2-y,1/2+z
1/2+x,1/2+y,z
1/2-x,-y,1/2+z
1/2+x,1/2-y,-z
1/2-x,y,1/2-z
1/2-x,1/2-y,-z
1/2+x,y,1/2-z
1/2-x,1/2+y,z
1/2+x,-y,1/2+z
loop_
_atom_site_type_symbol
_atom_site_label
_atom_site_fract_x
_atom_site_fract_y
_atom_site_fract_z
Si Si1 0.912026 0.058684 0.118869
Si Si2 0.661895 0.716422 0.204552
Si Si3 0.658454 0.329388 0.259136
Si Si4 0.911331 0.124896 0.335077
Si Si5 0.217818 0.000000 0.000000
Si Si6 0.189655 0.600436 0.955106
Si Si7 0.649668 0.150892 0.510879
O O1 0.897668 0.081420 0.241719
O O2 0.841541 0.018582 0.098577
O O3 0.000000 0.034776 0.108608
O O4 0.905003 0.104339 0.028293
O O5 0.750000 0.715708 0.250000
O O6 0.626338 0.774166 0.198634
O O7 0.617003 0.680486 0.293169
O O8 0.646638 0.697941 0.076685
O O9 0.750000 0.324007 0.250000
O O10 0.643762 0.378170 0.343548
O O11 0.619202 0.337130 0.136663
O O12 0.869421 0.101815 0.442802
O O13 0.000000 0.131547 0.369144
O O14 0.273530 0.043123 0.943090
O O15 0.259251 0.638388 0.985600
#
# Coordination Sequence:
#
# PCOD8261778 Si02
#       7
#    16  16  16  16   8  16  16
#     4   9  19  37  58  84 116 149 192 251 304 346
#     4  10  18  31  61  84 112 154 199 242 294 352
#     4   9  20  32  54  87 120 149 193 249 294 345
#     4  10  21  38  59  86 121 153 192 239 293 358
#     4  10  21  36  63  88 114 154 204 250 293 356
#     4  10  20  38  55  86 118 153 195 246 290 348
#     4   9  18  33  53  85 114 152 193 243 295 349
#
# _framework density 19.740289000000001
#
# number of rings (size 3 to 8) (size 9 to 14) (size 15 to 20)
#    0.000    2.462    1.538    0.231    2.154    1.846 
#   13.846    2.692    0.000    0.000    0.000    0.000 
#    0.000    0.000    0.000    0.000    0.000    0.000 
#
# Total GULP energy -644273.656332 kJ/mol
# GULP energy per Si atom -12389.878006 kJ/mol
# Density = 1.969536 g / cm^3
# Si number density = 19.740289 Si / 1000 Ang^3
#
#
#
# Elastic Constant Matrix: (Units=GPa)
#
#
# Indices 1 2 3 4 5 6 
#
# 1 74.8410 45.0735 46.0780 0.0000 0.0000 0.0000
# 2 45.0735 133.2626 71.0586 0.0000 0.0000 0.0000
# 3 46.0780 71.0586 148.3196 0.0000 0.0000 0.0000
# 4 0.0000 0.0000 0.0000 20.6886 0.0000 0.0000
# 5 0.0000 0.0000 0.0000 0.0000 15.3724 0.0000
# 6 0.0000 0.0000 0.0000 0.0000 0.0000 6.4910
#
#
#
# Elastic Compliance Matrix: (Units=1/GPa)
#
#
# Indices 1 2 3 4 5 6 
#
# 1 0.018117 -0.004199 -0.003617 0.000000 0.000000 0.000000
# 2 -0.004199 0.011052 -0.003990 0.000000 0.000000 0.000000
# 3 -0.003617 -0.003990 0.009777 0.000000 0.000000 0.000000
# 4 0.000000 0.000000 0.000000 0.048336 0.000000 0.000000
# 5 0.000000 0.000000 0.000000 0.000000 0.065052 0.000000
# 6 0.000000 0.000000 0.000000 0.000000 0.000000 0.154061
#
#
# Mechanical properties :
#
#
# Convention : Reuss Voigt Hill
#
# Bulk Modulus (GPa) = 65.21314 75.64925 70.43120
# Shear Modulus (GPa) = 14.92006 21.45793 18.18899
#
# Velocity S-wave (km/s) = 2.75220 3.30056 3.03877
# Velocity P-wave (km/s) = 6.57318 7.27533 6.93315
#
# Compressibility (1/GPa) = 0.01533433
#
# Stress axis : x y z
#
# Youngs Moduli (GPa) = 55.19541 90.48060 102.27582
#
# Poissons Ratio (x) = 0.37997 0.36989
# Poissons Ratio (y) = 0.23179 0.40811
# Poissons Ratio (z) = 0.19962 0.36105
#
# Static dielectric constant tensor:
#      x y z
#    x 3.463460 0.000000 0.000000 
#    y 0.000000 3.812830 0.000000 
#    z 0.000000 0.000000 3.904050 
# 
# 
# High freq. dielectric constant tensor:
#      x y z
#    x 1.744990 0.000000 0.000000 
#    y 0.000000 1.766180 0.000000 
#    z 0.000000 0.000000 1.771810 
# 
# From -- ./inp_files/16443.got.cif
#   From: 2010.03.12/outbox.cif.g09.slc.cpg/sg64_9_cif.got.tgz:16443.got - 2010.04.10 20:19:32.
