data_PCOD8261351
_publ_section_title
;
Structure prediction by ZEFSAII (Michael W. Deem and Ramdas Pophale) SiO2 
 PCOD8261351
Probable space group: C M C M
;
_chemical_formula_sum "Si O2"
_cell_formula_units_Z 112
_cell_length_a 9.454116
_cell_length_b 32.008974
_cell_length_c 24.514261
_cell_angle_alpha 90.000000
_cell_angle_beta 90.000000
_cell_angle_gamma 90.000000
_cell_volume 7418.421169
_symmetry_space_group_name_H-M "C M C M"
_symmetry_group_IT_number 63
_symmetry_cell_setting 'orthorhombic'
loop_
_space_group_symop_operation_xyz
x,y,z
-x,-y,1/2+z
x,-y,-z
-x,y,1/2-z
-x,-y,-z
x,y,1/2-z
-x,y,z
x,-y,1/2+z
1/2+x,1/2+y,z
1/2-x,1/2-y,1/2+z
1/2+x,1/2-y,-z
1/2-x,1/2+y,1/2-z
1/2-x,1/2-y,-z
1/2+x,1/2+y,1/2-z
1/2-x,1/2+y,z
1/2+x,1/2-y,1/2+z
loop_
_atom_site_type_symbol
_atom_site_label
_atom_site_fract_x
_atom_site_fract_y
_atom_site_fract_z
Si Si1 0.162561 0.382983 0.687762
Si Si2 0.336106 0.698724 0.189329
Si Si3 0.163281 0.236548 0.421311
Si Si4 0.339909 0.520951 0.941131
Si Si5 0.837080 0.551137 0.400597
Si Si6 0.835147 0.687003 0.506492
Si Si7 0.163056 0.407496 0.483824
O O1 0.186722 0.396578 0.750000
O O2 0.252460 0.342565 0.672619
O O3 0.211889 0.421559 0.650843
O O4 0.000000 0.371733 0.675629
O O5 0.290952 0.714834 0.250000
O O6 0.500000 0.686630 0.189056
O O7 0.303456 0.733961 0.143605
O O8 0.201841 0.282920 0.442359
O O9 0.252699 0.201713 0.452906
O O10 0.000000 0.226486 0.433157
O O11 0.500000 0.528026 0.920722
O O12 0.258497 0.490359 0.899737
O O13 0.259519 0.565259 0.943196
O O14 0.336663 0.500000 0.000000
O O15 0.812079 0.578900 0.454089
O O16 0.000000 0.537069 0.396265
O O17 0.788498 0.640440 0.522708
O O18 0.000000 0.688013 0.491511
O O19 0.000000 0.413789 0.466833
#
# Coordination Sequence:
#
# PCOD8261351 Si02
#       7
#    16  16  16  16  16  16  16
#     4   9  17  28  42  61  83 107 137 169 197 230
#     4   9  17  28  41  58  82 111 139 167 200 238
#     4   9  17  28  41  59  83 109 137 168 203 243
#     4   9  17  27  39  57  79 101 128 161 193 229
#     4   9  16  26  40  57  79 106 131 158 195 235
#     4   9  17  28  42  60  82 108 137 169 205 246
#     4   9  16  26  40  57  78 105 134 161 194 237
#
# _framework density 15.097553
#
# number of rings (size 3 to 8) (size 9 to 14) (size 15 to 20)
#    0.000    3.000    0.000    1.286    0.000    4.571 
#    0.000    2.857    0.000    0.000    0.000    1.000 
#    0.000    5.714    0.000    0.000    0.000    0.000 
#
# Total GULP energy -694285.549452 kJ/mol
# GULP energy per Si atom -12397.956240 kJ/mol
# Density = 1.506319 g / cm^3
# Si number density = 15.097553 Si / 1000 Ang^3
#
#
#
# Elastic Constant Matrix: (Units=GPa)
#
#
# Indices 1 2 3 4 5 6 
#
# 1 59.0507 48.5033 33.1592 0.0000 0.0000 0.0000
# 2 48.5033 112.0498 49.4570 0.0000 0.0000 0.0000
# 3 33.1592 49.4570 79.7871 0.0000 0.0000 0.0000
# 4 0.0000 0.0000 0.0000 23.9578 0.0000 0.0000
# 5 0.0000 0.0000 0.0000 0.0000 17.0087 0.0000
# 6 0.0000 0.0000 0.0000 0.0000 0.0000 23.7368
#
#
#
# Elastic Compliance Matrix: (Units=1/GPa)
#
#
# Indices 1 2 3 4 5 6 
#
# 1 0.028033 -0.009626 -0.005684 0.000000 0.000000 0.000000
# 2 -0.009626 0.015591 -0.005664 0.000000 0.000000 0.000000
# 3 -0.005684 -0.005664 0.018406 0.000000 0.000000 0.000000
# 4 0.000000 0.000000 0.000000 0.041740 0.000000 0.000000
# 5 0.000000 0.000000 0.000000 0.000000 0.058793 0.000000
# 6 0.000000 0.000000 0.000000 0.000000 0.000000 0.042129
#
#
# Mechanical properties :
#
#
# Convention : Reuss Voigt Hill
#
# Bulk Modulus (GPa) = 49.79225 57.01406 53.40315
# Shear Modulus (GPa) = 19.73678 20.92520 20.33099
#
# Velocity S-wave (km/s) = 3.61956 3.72694 3.67364
# Velocity P-wave (km/s) = 7.10776 7.50772 7.31048
#
# Compressibility (1/GPa) = 0.02008345
#
# Stress axis : x y z
#
# Youngs Moduli (GPa) = 35.67259 64.13778 54.32916
#
# Poissons Ratio (x) = 0.61739 0.30878
# Poissons Ratio (y) = 0.34338 0.30772
# Poissons Ratio (z) = 0.20275 0.36328
#
# Static dielectric constant tensor:
#      x y z
#    x 2.986410 0.000000 0.000000 
#    y 0.000000 2.904670 0.000000 
#    z 0.000000 0.000000 2.863010 
# 
# 
# High freq. dielectric constant tensor:
#      x y z
#    x 1.582280 0.000000 0.000000 
#    y 0.000000 1.566020 0.000000 
#    z 0.000000 0.000000 1.553880 
# 
# From -- ./inp_files/62095.got.cif
#   From: 2010.03.12/outbox.cif.g09.slc.cpg/sg63_32_cif.got.tgz:62095.got - 2010.04.10 19:34:48.
