data_PCOD8261588
_publ_section_title
;
Structure prediction by ZEFSAII (Michael W. Deem and Ramdas Pophale) SiO2 
 PCOD8261588
Probable space group: C M C A
;
_chemical_formula_sum "Si O2"
_cell_formula_units_Z 88
_cell_length_a 13.879417
_cell_length_b 17.847046
_cell_length_c 21.791527
_cell_angle_alpha 90.000000
_cell_angle_beta 90.000000
_cell_angle_gamma 90.000000
_cell_volume 5397.904924
_symmetry_space_group_name_H-M "C M C A"
_symmetry_group_IT_number 64
_symmetry_cell_setting 'orthorhombic'
loop_
_space_group_symop_operation_xyz
x,y,z
-x,1/2-y,1/2+z
x,-y,-z
-x,1/2+y,1/2-z
-x,-y,-z
x,1/2+y,1/2-z
-x,y,z
x,1/2-y,1/2+z
1/2+x,1/2+y,z
1/2-x,-y,1/2+z
1/2+x,1/2-y,-z
1/2-x,y,1/2-z
1/2-x,1/2-y,-z
1/2+x,y,1/2-z
1/2-x,1/2+y,z
1/2+x,-y,1/2+z
loop_
_atom_site_type_symbol
_atom_site_label
_atom_site_fract_x
_atom_site_fract_y
_atom_site_fract_z
Si Si1 0.889859 0.571446 0.922734
Si Si2 0.888960 0.774947 0.773703
Si Si3 0.611298 0.897787 0.945207
Si Si4 0.723093 0.148452 0.167067
Si Si5 0.111234 0.894758 0.291051
Si Si6 0.750000 0.512859 0.250000
O O1 0.881287 0.482485 0.922427
O O2 0.842614 0.603270 0.860124
O O3 0.000000 0.596388 0.924580
O O4 0.845993 0.607421 0.985325
O O5 0.821548 0.802985 0.829979
O O6 0.857858 0.817985 0.712400
O O7 0.872155 0.686868 0.762351
O O8 0.000000 0.792441 0.789703
O O9 0.500000 0.870626 0.940783
O O10 0.679897 0.848511 0.901267
O O11 0.747677 0.063893 0.188914
O O12 0.157998 0.957727 0.247748
O O13 0.000000 0.916427 0.295246
#
# Coordination Sequence:
#
# PCOD8261588 Si02
#       6
#    16  16  16  16  16   8
#     4   8  15  26  46  70  90 114 144 192 239 263
#     4   9  19  31  43  61  93 127 150 177 222 275
#     4   9  15  27  46  71  95 111 144 193 237 269
#     4  10  19  29  45  69  94 119 150 183 228 271
#     4  10  18  31  47  66  92 120 151 188 226 268
#     4  10  18  26  44  68  88 114 146 182 222 264
#
# _framework density 16.302620999999998
#
# number of rings (size 3 to 8) (size 9 to 14) (size 15 to 20)
#    0.000    2.909    1.818    2.727    0.000    2.909 
#    0.000    0.909    0.000    0.000    0.000    3.818 
#    0.000    0.000    0.000    0.000    0.000    0.000 
#
# Total GULP energy -545193.957923 kJ/mol
# GULP energy per Si atom -12390.771771 kJ/mol
# Density = 1.626552 g / cm^3
# Si number density = 16.302621 Si / 1000 Ang^3
#
#
#
# Elastic Constant Matrix: (Units=GPa)
#
#
# Indices 1 2 3 4 5 6 
#
# 1 77.1392 33.5291 19.4014 0.0000 0.0000 0.0000
# 2 33.5291 75.2953 21.5744 0.0000 0.0000 0.0000
# 3 19.4014 21.5744 71.9442 0.0000 0.0000 0.0000
# 4 0.0000 0.0000 0.0000 11.4779 0.0000 0.0000
# 5 0.0000 0.0000 0.0000 0.0000 22.3281 0.0000
# 6 0.0000 0.0000 0.0000 0.0000 0.0000 24.0689
#
#
#
# Elastic Compliance Matrix: (Units=1/GPa)
#
#
# Indices 1 2 3 4 5 6 
#
# 1 0.016461 -0.006628 -0.002452 0.000000 0.000000 0.000000
# 2 -0.006628 0.017198 -0.003370 0.000000 0.000000 0.000000
# 3 -0.002452 -0.003370 0.015571 0.000000 0.000000 0.000000
# 4 0.000000 0.000000 0.000000 0.087124 0.000000 0.000000
# 5 0.000000 0.000000 0.000000 0.000000 0.044787 0.000000
# 6 0.000000 0.000000 0.000000 0.000000 0.000000 0.041547
#
#
# Mechanical properties :
#
#
# Convention : Reuss Voigt Hill
#
# Bulk Modulus (GPa) = 41.09841 41.48762 41.29301
# Shear Modulus (GPa) = 19.55437 21.56657 20.56047
#
# Velocity S-wave (km/s) = 3.46708 3.64110 3.55516
# Velocity P-wave (km/s) = 6.42588 6.57119 6.49894
#
# Compressibility (1/GPa) = 0.02433184
#
# Stress axis : x y z
#
# Youngs Moduli (GPa) = 60.74993 58.14659 64.22046
#
# Poissons Ratio (x) = 0.38537 0.15744
# Poissons Ratio (y) = 0.40263 0.21642
# Poissons Ratio (z) = 0.14894 0.19595
#
# Static dielectric constant tensor:
#      x y z
#    x 2.974980 0.000000 0.000000 
#    y 0.000000 2.977840 0.000000 
#    z 0.000000 0.000000 3.174050 
# 
# 
# High freq. dielectric constant tensor:
#      x y z
#    x 1.606080 0.000000 0.000000 
#    y 0.000000 1.617920 0.000000 
#    z 0.000000 0.000000 1.614110 
# 
# From -- ./inp_files/45364.got.cif
#   From: 2010.03.12/outbox.cif.g09.slc.cpg/sg64_23_cif.got.tgz:45364.got - 2010.04.10 20:19:32.
