data_PCOD8261543
_publ_section_title
;
Structure prediction by ZEFSAII (Michael W. Deem and Ramdas Pophale) SiO2 
 PCOD8261543
Probable space group: C M C A
;
_chemical_formula_sum "Si O2"
_cell_formula_units_Z 88
_cell_length_a 13.962962
_cell_length_b 20.834503
_cell_length_c 18.256031
_cell_angle_alpha 90.000000
_cell_angle_beta 90.000000
_cell_angle_gamma 90.000000
_cell_volume 5310.887056
_symmetry_space_group_name_H-M "C M C A"
_symmetry_group_IT_number 64
_symmetry_cell_setting 'orthorhombic'
loop_
_space_group_symop_operation_xyz
x,y,z
-x,1/2-y,1/2+z
x,-y,-z
-x,1/2+y,1/2-z
-x,-y,-z
x,1/2+y,1/2-z
-x,y,z
x,1/2-y,1/2+z
1/2+x,1/2+y,z
1/2-x,-y,1/2+z
1/2+x,1/2-y,-z
1/2-x,y,1/2-z
1/2-x,1/2-y,-z
1/2+x,y,1/2-z
1/2-x,1/2+y,z
1/2+x,-y,1/2+z
loop_
_atom_site_type_symbol
_atom_site_label
_atom_site_fract_x
_atom_site_fract_y
_atom_site_fract_z
Si Si1 0.500000 0.563545 0.777746
Si Si2 0.500000 0.473460 0.655135
Si Si3 0.500000 0.643223 0.527512
Si Si4 0.155587 0.744443 0.715744
Si Si5 0.000000 0.812027 0.315411
Si Si6 0.341963 0.044447 0.935843
Si Si7 0.802528 0.394797 0.325127
Si Si8 0.500000 0.823711 0.867157
O O1 0.500000 0.493646 0.740597
O O2 0.500000 0.613716 0.709518
O O3 0.592795 0.573012 0.828187
O O4 0.595378 0.500227 0.617424
O O5 0.500000 0.397457 0.654128
O O6 0.500000 0.690906 0.596892
O O7 0.593723 0.599049 0.526911
O O8 0.500000 0.686326 0.454504
O O9 0.250000 0.778583 0.750000
O O10 0.186845 0.682191 0.668531
O O11 0.094014 0.722354 0.785529
O O12 0.096311 0.792039 0.664620
O O13 0.255704 0.078435 0.893590
O O14 0.298368 0.000000 0.000000
O O15 0.750000 0.414093 0.250000
#
# Coordination Sequence:
#
# PCOD8261543 Si02
#       8
#     8   8   8  16   8  16  16   8
#     4  10  17  31  55  85 101 130 178 225 265 311
#     4  11  18  34  52  79 112 131 167 222 274 313
#     4  11  17  31  55  81 104 132 178 226 269 301
#     4   9  19  36  53  74 103 143 183 216 253 312
#     4   9  16  31  58  77  97 126 178 235 262 283
#     4  11  19  32  53  83 109 134 172 228 274 307
#     4  10  18  33  59  81 101 135 187 227 259 304
#     4  11  22  34  51  80 111 144 171 216 269 323
#
# _framework density 16.569737
#
# number of rings (size 3 to 8) (size 9 to 14) (size 15 to 20)
#    0.000    1.818    5.455    3.273    0.000    0.000 
#    3.273    4.091    0.000    0.000    0.000    0.000 
#    0.000    0.000    0.000    0.000    0.000    0.000 
#
# Total GULP energy -545593.786054 kJ/mol
# GULP energy per Si atom -12399.858774 kJ/mol
# Density = 1.653202 g / cm^3
# Si number density = 16.569737 Si / 1000 Ang^3
#
#
#
# Elastic Constant Matrix: (Units=GPa)
#
#
# Indices 1 2 3 4 5 6 
#
# 1 132.9811 49.0792 57.3740 0.0000 0.0000 0.0000
# 2 49.0792 79.9677 54.1496 0.0000 0.0000 0.0000
# 3 57.3740 54.1496 103.9198 0.0000 0.0000 0.0000
# 4 0.0000 0.0000 0.0000 30.5239 0.0000 0.0000
# 5 0.0000 0.0000 0.0000 0.0000 4.1803 0.0000
# 6 0.0000 0.0000 0.0000 0.0000 0.0000 17.5691
#
#
#
# Elastic Compliance Matrix: (Units=1/GPa)
#
#
# Indices 1 2 3 4 5 6 
#
# 1 0.010616 -0.003935 -0.003811 0.000000 0.000000 0.000000
# 2 -0.003935 0.020782 -0.008656 0.000000 0.000000 0.000000
# 3 -0.003811 -0.008656 0.016237 0.000000 0.000000 0.000000
# 4 0.000000 0.000000 0.000000 0.032761 0.000000 0.000000
# 5 0.000000 0.000000 0.000000 0.000000 0.239218 0.000000
# 6 0.000000 0.000000 0.000000 0.000000 0.000000 0.056918
#
#
# Mechanical properties :
#
#
# Convention : Reuss Voigt Hill
#
# Bulk Modulus (GPa) = 67.42615 70.89713 69.16164
# Shear Modulus (GPa) = 12.06913 20.87239 16.47076
#
# Velocity S-wave (km/s) = 2.70179 3.55303 3.15624
# Velocity P-wave (km/s) = 7.10729 7.72736 7.42380
#
# Compressibility (1/GPa) = 0.01483104
#
# Stress axis : x y z
#
# Youngs Moduli (GPa) = 94.19417 48.11940 61.58713
#
# Poissons Ratio (x) = 0.18936 0.23469
# Poissons Ratio (y) = 0.37068 0.53310
# Poissons Ratio (z) = 0.35895 0.41653
#
# Static dielectric constant tensor:
#      x y z
#    x 3.278840 0.000000 0.000000 
#    y 0.000000 2.998950 0.000000 
#    z 0.000000 0.000000 2.977430 
# 
# 
# High freq. dielectric constant tensor:
#      x y z
#    x 1.645400 0.000000 0.000000 
#    y 0.000000 1.617580 0.000000 
#    z 0.000000 0.000000 1.619920 
# 
# From -- ./inp_files/32348.got.cif
#   From: 2010.03.12/outbox.cif.g09.slc.cpg/sg64_17_cif.got.tgz:32348.got - 2010.04.10 20:19:32.
