data_PCOD8261402
_publ_section_title
;
Structure prediction by ZEFSAII (Michael W. Deem and Ramdas Pophale) SiO2 
 PCOD8261402
Probable space group: C M C A
;
_chemical_formula_sum "Si O2"
_cell_formula_units_Z 40
_cell_length_a 12.020807
_cell_length_b 27.873900
_cell_length_c 5.302843
_cell_angle_alpha 90.000000
_cell_angle_beta 90.000000
_cell_angle_gamma 90.000000
_cell_volume 1776.806488
_symmetry_space_group_name_H-M "C M C A"
_symmetry_group_IT_number 64
_symmetry_cell_setting 'orthorhombic'
loop_
_space_group_symop_operation_xyz
x,y,z
-x,1/2-y,1/2+z
x,-y,-z
-x,1/2+y,1/2-z
-x,-y,-z
x,1/2+y,1/2-z
-x,y,z
x,1/2-y,1/2+z
1/2+x,1/2+y,z
1/2-x,-y,1/2+z
1/2+x,1/2-y,-z
1/2-x,y,1/2-z
1/2-x,1/2-y,-z
1/2+x,y,1/2-z
1/2-x,1/2+y,z
1/2+x,-y,1/2+z
loop_
_atom_site_type_symbol
_atom_site_label
_atom_site_fract_x
_atom_site_fract_y
_atom_site_fract_z
Si Si1 0.680049 0.000000 0.000000
Si Si2 0.624107 0.269683 0.109729
Si Si3 0.500000 0.420758 0.518032
Si Si4 0.500000 0.640493 0.982843
O O1 0.608392 0.952920 0.946925
O O2 0.750000 0.010055 0.750000
O O3 0.500000 0.246461 0.153962
O O4 0.683725 0.260870 0.382408
O O5 0.611185 0.326241 0.045008
O O6 0.500000 0.398484 0.238528
O O7 0.500000 0.381692 0.739351
#
# Coordination Sequence:
#
# PCOD8261402 Si02
#       4
#     8  16   8   8
#     4  11  24  43  58  76 112 143 174 227 286 334
#     4   8  13  22  38  66 112 144 160 210 263 296
#     4  11  22  35  60  85 102 143 186 221 274 321
#     4  10  16  28  48  81 114 131 182 232 244 314
#
# _framework density 22.512298999999999
#
# number of rings (size 3 to 8) (size 9 to 14) (size 15 to 20)
#    1.200    1.200    0.000    4.800    0.000    3.200 
#    0.000    0.000    0.000    0.000    0.000    0.000 
#    0.000  448.000    0.000    0.000    0.000    0.000 
#
# Total GULP energy -247943.053974 kJ/mol
# GULP energy per Si atom -12397.152699 kJ/mol
# Density = 2.246106 g / cm^3
# Si number density = 22.512299 Si / 1000 Ang^3
#
#
#
# Elastic Constant Matrix: (Units=GPa)
#
#
# Indices 1 2 3 4 5 6 
#
# 1 82.3310 27.3211 52.9338 0.0000 0.0000 0.0000
# 2 27.3211 109.3956 37.1540 0.0000 0.0000 0.0000
# 3 52.9338 37.1540 186.8336 0.0000 0.0000 0.0000
# 4 0.0000 0.0000 0.0000 56.5178 0.0000 0.0000
# 5 0.0000 0.0000 0.0000 0.0000 38.1914 0.0000
# 6 0.0000 0.0000 0.0000 0.0000 0.0000 13.5550
#
#
#
# Elastic Compliance Matrix: (Units=1/GPa)
#
#
# Indices 1 2 3 4 5 6 
#
# 1 0.015487 -0.002550 -0.003881 0.000000 0.000000 0.000000
# 2 -0.002550 0.010223 -0.001311 0.000000 0.000000 0.000000
# 3 -0.003881 -0.001311 0.006712 0.000000 0.000000 0.000000
# 4 0.000000 0.000000 0.000000 0.017694 0.000000 0.000000
# 5 0.000000 0.000000 0.000000 0.000000 0.026184 0.000000
# 6 0.000000 0.000000 0.000000 0.000000 0.000000 0.073773
#
#
# Mechanical properties :
#
#
# Convention : Reuss Voigt Hill
#
# Bulk Modulus (GPa) = 59.03025 68.15310 63.59168
# Shear Modulus (GPa) = 29.20510 39.06295 34.13402
#
# Velocity S-wave (km/s) = 3.60571 4.17007 3.89812
# Velocity P-wave (km/s) = 6.60402 7.31611 6.96916
#
# Compressibility (1/GPa) = 0.01694047
#
# Stress axis : x y z
#
# Youngs Moduli (GPa) = 64.56869 97.81818 148.97603
#
# Poissons Ratio (x) = 0.24942 0.57815
# Poissons Ratio (y) = 0.16464 0.19524
# Poissons Ratio (z) = 0.25058 0.12819
#
# Static dielectric constant tensor:
#      x y z
#    x 4.105710 0.000000 0.000000 
#    y 0.000000 3.825260 0.000000 
#    z 0.000000 0.000000 4.290490 
# 
# 
# High freq. dielectric constant tensor:
#      x y z
#    x 1.910830 0.000000 0.000000 
#    y 0.000000 1.867240 0.000000 
#    z 0.000000 0.000000 1.931300 
# 
# From -- ./inp_files/786.got.cif
#   From: 2010.03.12/outbox.cif.g09.slc.cpg/sg64_1_cif.got.tgz:786.got - 2010.04.10 20:19:32.
