data_PCOD8261436
_publ_section_title
;
Structure prediction by ZEFSAII (Michael W. Deem and Ramdas Pophale) SiO2 
 PCOD8261436
Probable space group: C M C A
;
_chemical_formula_sum "Si O2"
_cell_formula_units_Z 88
_cell_length_a 9.019878
_cell_length_b 24.264726
_cell_length_c 19.518266
_cell_angle_alpha 90.000000
_cell_angle_beta 90.000000
_cell_angle_gamma 90.000000
_cell_volume 4271.862716
_symmetry_space_group_name_H-M "C M C A"
_symmetry_group_IT_number 64
_symmetry_cell_setting 'orthorhombic'
loop_
_space_group_symop_operation_xyz
x,y,z
-x,1/2-y,1/2+z
x,-y,-z
-x,1/2+y,1/2-z
-x,-y,-z
x,1/2+y,1/2-z
-x,y,z
x,1/2-y,1/2+z
1/2+x,1/2+y,z
1/2-x,-y,1/2+z
1/2+x,1/2-y,-z
1/2-x,y,1/2-z
1/2-x,1/2-y,-z
1/2+x,y,1/2-z
1/2-x,1/2+y,z
1/2+x,-y,1/2+z
loop_
_atom_site_type_symbol
_atom_site_label
_atom_site_fract_x
_atom_site_fract_y
_atom_site_fract_z
Si Si1 0.324188 0.203304 0.954045
Si Si2 0.675026 0.577358 0.182965
Si Si3 0.664854 0.460624 0.139319
Si Si4 0.660675 0.110058 0.057082
Si Si5 0.741224 0.500000 0.500000
Si Si6 0.679150 0.840991 0.322304
O O1 0.500000 0.213768 0.944631
O O2 0.244029 0.200133 0.880140
O O3 0.250000 0.250000 0.000000
O O4 0.288828 0.146364 0.992900
O O5 0.500000 0.578825 0.189289
O O6 0.750000 0.603286 0.250000
O O7 0.738571 0.514721 0.174163
O O8 0.720632 0.614915 0.118242
O O9 0.500000 0.456243 0.167743
O O10 0.658551 0.470329 0.057541
O O11 0.741090 0.402929 0.160646
O O12 0.500000 0.130170 0.084045
O O13 0.640426 0.046981 0.033366
O O14 0.500000 0.836929 0.321195
O O15 0.750000 0.822817 0.250000
#
# Coordination Sequence:
#
# PCOD8261436 Si02
#       6
#    16  16  16  16   8  16
#     4  11  24  44  66  92 121 159 205 256 308 368
#     4  10  20  34  53  81 120 163 204 245 295 356
#     4   9  18  30  51  84 123 164 204 247 298 356
#     4  10  21  36  58  87 119 154 197 244 299 359
#     4  10  16  32  54  88 123 160 199 242 297 352
#     4  11  22  39  62  92 125 163 205 258 313 367
#
# _framework density 20.599913000000001
#
# number of rings (size 3 to 8) (size 9 to 14) (size 15 to 20)
#    0.000    1.818    1.818    2.727    0.000    2.182 
#    0.000    2.727    0.000    4.364    0.000    0.000 
#    0.000    0.000    0.000    0.000    0.000    0.000 
#
# Total GULP energy -545296.243903 kJ/mol
# GULP energy per Si atom -12393.096452 kJ/mol
# Density = 2.055303 g / cm^3
# Si number density = 20.599913 Si / 1000 Ang^3
#
#
#
# Elastic Constant Matrix: (Units=GPa)
#
#
# Indices 1 2 3 4 5 6 
#
# 1 110.2611 33.7845 63.6568 0.0000 0.0000 0.0000
# 2 33.7845 62.5049 40.8483 0.0000 0.0000 0.0000
# 3 63.6568 40.8483 165.5029 0.0000 0.0000 0.0000
# 4 0.0000 0.0000 0.0000 27.1675 0.0000 0.0000
# 5 0.0000 0.0000 0.0000 0.0000 36.9327 0.0000
# 6 0.0000 0.0000 0.0000 0.0000 0.0000 22.1887
#
#
#
# Elastic Compliance Matrix: (Units=1/GPa)
#
#
# Indices 1 2 3 4 5 6 
#
# 1 0.012571 -0.004334 -0.003766 0.000000 0.000000 0.000000
# 2 -0.004334 0.020570 -0.003410 0.000000 0.000000 0.000000
# 3 -0.003766 -0.003410 0.008332 0.000000 0.000000 0.000000
# 4 0.000000 0.000000 0.000000 0.036809 0.000000 0.000000
# 5 0.000000 0.000000 0.000000 0.000000 0.027076 0.000000
# 6 0.000000 0.000000 0.000000 0.000000 0.000000 0.045068
#
#
# Mechanical properties :
#
#
# Convention : Reuss Voigt Hill
#
# Bulk Modulus (GPa) = 54.18816 68.31646 61.25231
# Shear Modulus (GPa) = 27.84016 30.58973 29.21494
#
# Velocity S-wave (km/s) = 3.68022 3.85768 3.76999
# Velocity P-wave (km/s) = 6.66490 7.28544 6.98207
#
# Compressibility (1/GPa) = 0.01845422
#
# Stress axis : x y z
#
# Youngs Moduli (GPa) = 79.54613 48.61493 120.01733
#
# Poissons Ratio (x) = 0.21070 0.45193
# Poissons Ratio (y) = 0.34476 0.40925
# Poissons Ratio (z) = 0.29954 0.16577
#
# Static dielectric constant tensor:
#      x y z
#    x 3.482060 0.000000 0.000000 
#    y 0.000000 3.615090 0.000000 
#    z 0.000000 0.000000 3.796540 
# 
# 
# High freq. dielectric constant tensor:
#      x y z
#    x 1.795660 0.000000 0.000000 
#    y 0.000000 1.778350 0.000000 
#    z 0.000000 0.000000 1.813320 
# 
# From -- ./inp_files/36818.got.cif
#   From: 2010.03.12/outbox.cif.g09.slc.cpg/sg64_19_cif.got.tgz:36818.got - 2010.04.10 20:19:32.
