data_PCOD8261134
_publ_section_title
;
Structure prediction by ZEFSAII (Michael W. Deem and Ramdas Pophale) SiO2 
 PCOD8261134
Probable space group: C M C M
;
_chemical_formula_sum "Si O2"
_cell_formula_units_Z 80
_cell_length_a 28.700307
_cell_length_b 8.511096
_cell_length_c 16.366711
_cell_angle_alpha 90.000000
_cell_angle_beta 90.000000
_cell_angle_gamma 90.000000
_cell_volume 3997.913977
_symmetry_space_group_name_H-M "C M C M"
_symmetry_group_IT_number 63
_symmetry_cell_setting 'orthorhombic'
loop_
_space_group_symop_operation_xyz
x,y,z
-x,-y,1/2+z
x,-y,-z
-x,y,1/2-z
-x,-y,-z
x,y,1/2-z
-x,y,z
x,-y,1/2+z
1/2+x,1/2+y,z
1/2-x,1/2-y,1/2+z
1/2+x,1/2-y,-z
1/2-x,1/2+y,1/2-z
1/2-x,1/2-y,-z
1/2+x,1/2+y,1/2-z
1/2-x,1/2+y,z
1/2+x,1/2-y,1/2+z
loop_
_atom_site_type_symbol
_atom_site_label
_atom_site_fract_x
_atom_site_fract_y
_atom_site_fract_z
Si Si1 0.726888 0.290856 0.913577
Si Si2 0.697402 0.606021 0.658373
Si Si3 0.864551 0.598284 0.581352
Si Si4 0.105692 0.707445 0.157397
Si Si5 0.449457 0.186332 0.498295
O O1 0.713573 0.473654 0.906031
O O2 0.765141 0.247219 0.845508
O O3 0.680393 0.194492 0.893504
O O4 0.750000 0.250000 0.000000
O O5 0.695628 0.537720 0.750000
O O6 0.647413 0.674925 0.633413
O O7 0.853302 0.500000 0.500000
O O8 0.877483 0.474194 0.651983
O O9 0.907742 0.721159 0.563195
O O10 0.088316 0.737086 0.250000
O O11 0.064275 0.742435 0.093224
O O12 0.500000 0.262430 0.521262
O O13 0.454654 0.000000 0.500000
#
# Coordination Sequence:
#
# PCOD8261134 Si02
#       5
#    16  16  16  16  16
#     4  12  22  34  53  74  99 134 178 215 246 299
#     4  11  23  36  50  73 106 138 168 209 260 305
#     4   9  18  32  50  73 100 129 162 207 254 294
#     4   9  18  32  50  73 101 132 167 204 246 302
#     4   8  15  30  51  75 101 126 158 206 257 295
#
# _framework density 20.010437
#
# number of rings (size 3 to 8) (size 9 to 14) (size 15 to 20)
#    0.000    2.600    0.000    6.000    0.000    3.600 
#    0.000    0.000    0.000    2.400    0.000    0.000 
#    0.000    0.000    0.000    0.000    0.000    0.000 
#
# Total GULP energy -495627.223927 kJ/mol
# GULP energy per Si atom -12390.680598 kJ/mol
# Density = 1.996489 g / cm^3
# Si number density = 20.010437 Si / 1000 Ang^3
#
#
#
# Elastic Constant Matrix: (Units=GPa)
#
#
# Indices 1 2 3 4 5 6 
#
# 1 105.3319 20.1760 28.2279 0.0000 0.0000 0.0000
# 2 20.1760 55.5548 24.2279 0.0000 0.0000 0.0000
# 3 28.2279 24.2279 71.2947 0.0000 0.0000 0.0000
# 4 0.0000 0.0000 0.0000 23.8225 0.0000 0.0000
# 5 0.0000 0.0000 0.0000 0.0000 20.0632 0.0000
# 6 0.0000 0.0000 0.0000 0.0000 0.0000 1.6311
#
#
#
# Elastic Compliance Matrix: (Units=1/GPa)
#
#
# Indices 1 2 3 4 5 6 
#
# 1 0.010895 -0.002437 -0.003486 0.000000 0.000000 0.000000
# 2 -0.002437 0.021677 -0.006402 0.000000 0.000000 0.000000
# 3 -0.003486 -0.006402 0.017582 0.000000 0.000000 0.000000
# 4 0.000000 0.000000 0.000000 0.041977 0.000000 0.000000
# 5 0.000000 0.000000 0.000000 0.000000 0.049842 0.000000
# 6 0.000000 0.000000 0.000000 0.000000 0.000000 0.613070
#
#
# Mechanical properties :
#
#
# Convention : Reuss Voigt Hill
#
# Bulk Modulus (GPa) = 39.20679 41.93833 40.57256
# Shear Modulus (GPa) = 6.34363 19.74000 13.04181
#
# Velocity S-wave (km/s) = 1.78243 3.14424 2.55571
# Velocity P-wave (km/s) = 4.88587 5.84683 5.38782
#
# Compressibility (1/GPa) = 0.02550579
#
# Stress axis : x y z
#
# Youngs Moduli (GPa) = 91.78859 46.13191 56.87698
#
# Poissons Ratio (x) = 0.11240 0.19825
# Poissons Ratio (y) = 0.22365 0.36411
# Poissons Ratio (z) = 0.31993 0.29532
#
# Static dielectric constant tensor:
#      x y z
#    x 4.469490 0.000000 0.000000 
#    y 0.000000 3.395730 0.000000 
#    z 0.000000 0.000000 3.482840 
# 
# 
# High freq. dielectric constant tensor:
#      x y z
#    x 1.787710 0.000000 0.000000 
#    y 0.000000 1.747560 0.000000 
#    z 0.000000 0.000000 1.766280 
# 
# From -- ./inp_files/49432.got.cif
#   From: 2010.03.12/outbox.cif.g09.slc.cpg/sg63_25_cif.got.tgz:49432.got - 2010.04.10 19:34:48.
