data_PCOD8261969
_publ_section_title
;
Structure prediction by ZEFSAII (Michael W. Deem and Ramdas Pophale) SiO2 
 PCOD8261969
Probable space group: C M C A
;
_chemical_formula_sum "Si O2"
_cell_formula_units_Z 96
_cell_length_a 8.903061
_cell_length_b 23.102160
_cell_length_c 26.110943
_cell_angle_alpha 90.000000
_cell_angle_beta 90.000000
_cell_angle_gamma 90.000000
_cell_volume 5370.497182
_symmetry_space_group_name_H-M "C M C A"
_symmetry_group_IT_number 64
_symmetry_cell_setting 'orthorhombic'
loop_
_space_group_symop_operation_xyz
x,y,z
-x,1/2-y,1/2+z
x,-y,-z
-x,1/2+y,1/2-z
-x,-y,-z
x,1/2+y,1/2-z
-x,y,z
x,1/2-y,1/2+z
1/2+x,1/2+y,z
1/2-x,-y,1/2+z
1/2+x,1/2-y,-z
1/2-x,y,1/2-z
1/2-x,1/2-y,-z
1/2+x,y,1/2-z
1/2-x,1/2+y,z
1/2+x,-y,1/2+z
loop_
_atom_site_type_symbol
_atom_site_label
_atom_site_fract_x
_atom_site_fract_y
_atom_site_fract_z
Si Si1 0.332904 0.145070 0.119296
Si Si2 0.159828 0.263665 0.794200
Si Si3 0.671903 0.678185 0.643315
Si Si4 0.821666 0.762580 0.945831
Si Si5 0.176828 0.564269 0.802647
Si Si6 0.679956 0.442248 0.804826
O O1 0.500000 0.122505 0.101922
O O2 0.359857 0.196315 0.157966
O O3 0.241225 0.174793 0.072879
O O4 0.236741 0.095732 0.147290
O O5 0.250000 0.297515 0.750000
O O6 0.244204 0.205127 0.808425
O O7 0.000000 0.245586 0.771450
O O8 0.500000 0.694660 0.649790
O O9 0.726719 0.707713 0.590160
O O10 0.698292 0.609165 0.649691
O O11 0.000000 0.767753 0.950438
O O12 0.750000 0.750000 0.000000
O O13 0.250000 0.588288 0.750000
O O14 0.264825 0.506487 0.818372
O O15 0.000000 0.551186 0.793707
O O16 0.500000 0.438611 0.801191
O O17 0.750000 0.422556 0.750000
#
# Coordination Sequence:
#
# PCOD8261969 Si02
#       6
#    16  16  16  16  16  16
#     4  10  20  34  51  73  99 131 168 208 252 301
#     4  10  19  28  43  67  97 129 161 197 242 292
#     4   9  19  33  50  71  98 130 166 205 248 297
#     4  10  20  36  56  79 103 130 165 209 260 312
#     4  10  19  32  49  72 102 138 173 206 242 288
#     4  11  21  33  50  74 104 140 175 209 246 292
#
# _framework density 17.875439
#
# number of rings (size 3 to 8) (size 9 to 14) (size 15 to 20)
#    0.000    2.000    0.000    5.500    0.000    6.667 
#    0.000    0.000    0.000    1.000    0.000    7.000 
#    0.000    0.000    0.000    0.000    0.000    0.000 
#
# Total GULP energy -594674.421654 kJ/mol
# GULP energy per Si atom -12389.050451 kJ/mol
# Density = 1.783475 g / cm^3
# Si number density = 17.875439 Si / 1000 Ang^3
#
#
#
# Elastic Constant Matrix: (Units=GPa)
#
#
# Indices 1 2 3 4 5 6 
#
# 1 130.4812 44.0305 48.5453 0.0000 0.0000 0.0000
# 2 44.0305 88.0457 40.7320 0.0000 0.0000 0.0000
# 3 48.5453 40.7320 85.5078 0.0000 0.0000 0.0000
# 4 0.0000 0.0000 0.0000 24.2058 0.0000 0.0000
# 5 0.0000 0.0000 0.0000 0.0000 28.3767 0.0000
# 6 0.0000 0.0000 0.0000 0.0000 0.0000 24.4661
#
#
#
# Elastic Compliance Matrix: (Units=1/GPa)
#
#
# Indices 1 2 3 4 5 6 
#
# 1 0.010357 -0.003154 -0.004377 0.000000 0.000000 0.000000
# 2 -0.003154 0.015529 -0.005606 0.000000 0.000000 0.000000
# 3 -0.004377 -0.005606 0.016851 0.000000 0.000000 0.000000
# 4 0.000000 0.000000 0.000000 0.041312 0.000000 0.000000
# 5 0.000000 0.000000 0.000000 0.000000 0.035240 0.000000
# 6 0.000000 0.000000 0.000000 0.000000 0.000000 0.040873
#
#
# Mechanical properties :
#
#
# Convention : Reuss Voigt Hill
#
# Bulk Modulus (GPa) = 60.75260 63.40560 62.07910
# Shear Modulus (GPa) = 26.05186 26.79151 26.42169
#
# Velocity S-wave (km/s) = 3.82175 3.87562 3.84878
# Velocity P-wave (km/s) = 7.31674 7.45487 7.38613
#
# Compressibility (1/GPa) = 0.01646020
#
# Stress axis : x y z
#
# Youngs Moduli (GPa) = 96.55365 64.39635 59.34489
#
# Poissons Ratio (x) = 0.20312 0.25977
# Poissons Ratio (y) = 0.30456 0.33271
# Poissons Ratio (z) = 0.42265 0.36103
#
# Static dielectric constant tensor:
#      x y z
#    x 2.692470 0.000000 0.000000 
#    y 0.000000 3.319980 0.000000 
#    z 0.000000 0.000000 3.251210 
# 
# 
# High freq. dielectric constant tensor:
#      x y z
#    x 1.714540 0.000000 0.000000 
#    y 0.000000 1.682770 0.000000 
#    z 0.000000 0.000000 1.661270 
# 
# From -- ./inp_files/48020.got.cif
#   From: 2010.03.12/outbox.cif.g09.slc.cpg/sg64_25_cif.got.tgz:48020.got - 2010.04.10 20:19:32.
