data_PCOD8261153
_publ_section_title
;
Structure prediction by ZEFSAII (Michael W. Deem and Ramdas Pophale) SiO2 
 PCOD8261153
Probable space group: C M C M
;
_chemical_formula_sum "Si O2"
_cell_formula_units_Z 72
_cell_length_a 14.425438
_cell_length_b 30.321490
_cell_length_c 8.640332
_cell_angle_alpha 90.000000
_cell_angle_beta 90.000000
_cell_angle_gamma 90.000000
_cell_volume 3779.287905
_symmetry_space_group_name_H-M "C M C M"
_symmetry_group_IT_number 63
_symmetry_cell_setting 'orthorhombic'
loop_
_space_group_symop_operation_xyz
x,y,z
-x,-y,1/2+z
x,-y,-z
-x,y,1/2-z
-x,-y,-z
x,y,1/2-z
-x,y,z
x,-y,1/2+z
1/2+x,1/2+y,z
1/2-x,1/2-y,1/2+z
1/2+x,1/2-y,-z
1/2-x,1/2+y,1/2-z
1/2-x,1/2-y,-z
1/2+x,1/2+y,1/2-z
1/2-x,1/2+y,z
1/2+x,1/2-y,1/2+z
loop_
_atom_site_type_symbol
_atom_site_label
_atom_site_fract_x
_atom_site_fract_y
_atom_site_fract_z
Si Si1 0.808190 0.789998 0.567123
Si Si2 0.000000 0.764753 0.432833
Si Si3 0.500000 0.162418 0.433503
Si Si4 0.800095 0.047826 0.931724
Si Si5 0.308817 0.867685 0.432941
Si Si6 0.500000 0.452173 0.067794
O O1 0.809824 0.785566 0.750000
O O2 0.750000 0.750000 0.500000
O O3 0.911550 0.789294 0.501676
O O4 0.761142 0.835272 0.518575
O O5 0.000000 0.770145 0.250000
O O6 0.000000 0.713600 0.481932
O O7 0.500000 0.156986 0.250000
O O8 0.411895 0.138617 0.505860
O O9 0.802644 0.041042 0.750000
O O10 0.721252 0.082724 0.978419
O O11 0.900961 0.068181 0.987710
O O12 0.776305 0.000000 0.000000
O O13 0.304059 0.859055 0.250000
O O14 0.500000 0.453720 0.250000
O O15 0.500000 0.500000 0.000000
#
# Coordination Sequence:
#
# PCOD8261153 Si02
#       6
#    16   8   8  16  16   8
#     4  12  24  39  60  88 119 155 196 242 294 351
#     4  11  23  40  62  88 119 157 200 246 299 352
#     4  11  23  39  61  85 112 154 202 247 300 357
#     4   9  19  35  58  87 118 156 195 239 292 347
#     4  11  23  39  61  88 119 156 199 246 299 357
#     4   8  14  29  52  79 111 145 182 221 273 338
#
# _framework density 19.051207999999999
#
# number of rings (size 3 to 8) (size 9 to 14) (size 15 to 20)
#    0.000    1.556    2.222    3.333    0.000    3.556 
#    0.000    2.778    0.000    2.667    0.000    0.000 
#    0.000    0.000    0.000    0.000    0.000    0.000 
#
# Total GULP energy -446236.345323 kJ/mol
# GULP energy per Si atom -12395.454037 kJ/mol
# Density = 1.900785 g / cm^3
# Si number density = 19.051208 Si / 1000 Ang^3
#
#
#
# Elastic Constant Matrix: (Units=GPa)
#
#
# Indices 1 2 3 4 5 6 
#
# 1 181.7329 74.0191 52.5225 0.0000 0.0000 0.0000
# 2 74.0191 112.3519 40.8484 0.0000 0.0000 0.0000
# 3 52.5225 40.8484 83.2941 0.0000 0.0000 0.0000
# 4 0.0000 0.0000 0.0000 29.3299 0.0000 0.0000
# 5 0.0000 0.0000 0.0000 0.0000 30.9652 0.0000
# 6 0.0000 0.0000 0.0000 0.0000 0.0000 24.5062
#
#
#
# Elastic Compliance Matrix: (Units=1/GPa)
#
#
# Indices 1 2 3 4 5 6 
#
# 1 0.008105 -0.004237 -0.003033 0.000000 0.000000 0.000000
# 2 -0.004237 0.013047 -0.003727 0.000000 0.000000 0.000000
# 3 -0.003033 -0.003727 0.015746 0.000000 0.000000 0.000000
# 4 0.000000 0.000000 0.000000 0.034095 0.000000 0.000000
# 5 0.000000 0.000000 0.000000 0.000000 0.032294 0.000000
# 6 0.000000 0.000000 0.000000 0.000000 0.000000 0.040806
#
#
# Mechanical properties :
#
#
# Convention : Reuss Voigt Hill
#
# Bulk Modulus (GPa) = 67.09364 79.12877 73.11121
# Shear Modulus (GPa) = 29.23064 30.95951 30.09508
#
# Velocity S-wave (km/s) = 3.92129 4.03559 3.97885
# Velocity P-wave (km/s) = 7.46967 7.95862 7.71802
#
# Compressibility (1/GPa) = 0.01490454
#
# Stress axis : x y z
#
# Youngs Moduli (GPa) = 123.38444 76.64671 63.50973
#
# Poissons Ratio (x) = 0.32474 0.19261
# Poissons Ratio (y) = 0.52277 0.23668
# Poissons Ratio (z) = 0.37420 0.28564
#
# Static dielectric constant tensor:
#      x y z
#    x 4.143510 0.000000 0.000000 
#    y 0.000000 3.529280 0.000000 
#    z 0.000000 0.000000 3.568220 
# 
# 
# High freq. dielectric constant tensor:
#      x y z
#    x 1.757640 0.000000 0.000000 
#    y 0.000000 1.726960 0.000000 
#    z 0.000000 0.000000 1.749000 
# 
# From -- ./inp_files/4955.got.cif
#   From: 2010.03.12/outbox.cif.g09.slc.cpg/sg63_3_cif.got.tgz:4955.got - 2010.04.10 19:34:48.
