data_PCOD8261164
_publ_section_title
;
Structure prediction by ZEFSAII (Michael W. Deem and Ramdas Pophale) SiO2 
 PCOD8261164
Probable space group: C M C M
;
_chemical_formula_sum "Si O2"
_cell_formula_units_Z 64
_cell_length_a 15.272403
_cell_length_b 9.599989
_cell_length_c 22.243298
_cell_angle_alpha 90.000000
_cell_angle_beta 90.000000
_cell_angle_gamma 90.000000
_cell_volume 3261.198930
_symmetry_space_group_name_H-M "C M C M"
_symmetry_group_IT_number 63
_symmetry_cell_setting 'orthorhombic'
loop_
_space_group_symop_operation_xyz
x,y,z
-x,-y,1/2+z
x,-y,-z
-x,y,1/2-z
-x,-y,-z
x,y,1/2-z
-x,y,z
x,-y,1/2+z
1/2+x,1/2+y,z
1/2-x,1/2-y,1/2+z
1/2+x,1/2-y,-z
1/2-x,1/2+y,1/2-z
1/2-x,1/2-y,-z
1/2+x,1/2+y,1/2-z
1/2-x,1/2+y,z
1/2+x,1/2-y,1/2+z
loop_
_atom_site_type_symbol
_atom_site_label
_atom_site_fract_x
_atom_site_fract_y
_atom_site_fract_z
Si Si1 0.500000 0.109146 0.448427
Si Si2 0.597945 0.030054 0.250000
Si Si3 0.663248 0.702636 0.379540
Si Si4 0.169713 0.467745 0.624185
Si Si5 0.096377 0.798409 0.750000
Si Si6 0.500000 0.357434 0.965065
O O1 0.585404 0.087081 0.409446
O O2 0.500000 0.258592 0.477760
O O3 0.500000 0.000000 0.500000
O O4 0.500000 0.097271 0.250000
O O5 0.654555 0.076890 0.306951
O O6 0.585639 0.865916 0.250000
O O7 0.746630 0.614192 0.401616
O O8 0.644920 0.654565 0.310887
O O9 0.583857 0.663770 0.422965
O O10 0.682728 0.867030 0.384113
O O11 0.000000 0.867285 0.750000
O O12 0.500000 0.500000 0.000000
#
# Coordination Sequence:
#
# PCOD8261164 Si02
#       6
#     8   8  16  16   8   8
#     4  12  24  45  65  89 123 172 216 255 304 375
#     4   9  17  36  65  96 123 164 205 254 317 382
#     4  11  23  42  66  98 126 166 209 260 318 375
#     4  11  23  40  68  95 129 164 211 260 316 377
#     4   9  17  36  69  92 125 162 205 256 317 378
#     4  12  28  45  65  89 129 170 218 262 312 371
#
# _framework density 19.624683000000001
#
# number of rings (size 3 to 8) (size 9 to 14) (size 15 to 20)
#    0.000    1.250    5.000    0.750    3.500    2.000 
#    0.000    0.000    0.000    3.000    0.000    0.000 
#    0.000    0.000    0.000    0.000    0.000    0.000 
#
# Total GULP energy -396742.719710 kJ/mol
# GULP energy per Si atom -12398.209991 kJ/mol
# Density = 1.958002 g / cm^3
# Si number density = 19.624683 Si / 1000 Ang^3
#
#
#
# Elastic Constant Matrix: (Units=GPa)
#
#
# Indices 1 2 3 4 5 6 
#
# 1 182.7699 70.0721 64.0830 0.0000 0.0000 0.0000
# 2 70.0721 120.5720 61.8924 0.0000 0.0000 0.0000
# 3 64.0830 61.8924 126.3125 0.0000 0.0000 0.0000
# 4 0.0000 0.0000 0.0000 29.8833 0.0000 0.0000
# 5 0.0000 0.0000 0.0000 0.0000 67.0910 0.0000
# 6 0.0000 0.0000 0.0000 0.0000 0.0000 55.6133
#
#
#
# Elastic Compliance Matrix: (Units=1/GPa)
#
#
# Indices 1 2 3 4 5 6 
#
# 1 0.007480 -0.003205 -0.002224 0.000000 0.000000 0.000000
# 2 -0.003205 0.012455 -0.004476 0.000000 0.000000 0.000000
# 3 -0.002224 -0.004476 0.011239 0.000000 0.000000 0.000000
# 4 0.000000 0.000000 0.000000 0.033463 0.000000 0.000000
# 5 0.000000 0.000000 0.000000 0.000000 0.014905 0.000000
# 6 0.000000 0.000000 0.000000 0.000000 0.000000 0.017981
#
#
# Mechanical properties :
#
#
# Convention : Reuss Voigt Hill
#
# Bulk Modulus (GPa) = 88.01929 91.30548 89.66239
# Shear Modulus (GPa) = 41.28044 46.09132 43.68588
#
# Velocity S-wave (km/s) = 4.59136 4.85153 4.72324
# Velocity P-wave (km/s) = 8.54729 8.83233 8.69098
#
# Compressibility (1/GPa) = 0.01136115
#
# Stress axis : x y z
#
# Youngs Moduli (GPa) = 133.68664 80.29221 88.97765
#
# Poissons Ratio (x) = 0.25737 0.19792
# Poissons Ratio (y) = 0.42852 0.39830
# Poissons Ratio (z) = 0.29736 0.35942
#
# Static dielectric constant tensor:
#      x y z
#    x 3.656240 0.000000 0.000000 
#    y 0.000000 3.375170 0.000000 
#    z 0.000000 0.000000 4.150320 
# 
# 
# High freq. dielectric constant tensor:
#      x y z
#    x 1.779460 0.000000 0.000000 
#    y 0.000000 1.744260 0.000000 
#    z 0.000000 0.000000 1.779660 
# 
# From -- ./inp_files/62389.got.cif
#   From: 2010.03.12/outbox.cif.g09.slc.cpg/sg63_32_cif.got.tgz:62389.got - 2010.04.10 19:34:48.
