data_PCOD8261426
_publ_section_title
;
Structure prediction by ZEFSAII (Michael W. Deem and Ramdas Pophale) SiO2 
 PCOD8261426
Probable space group: C M C A
;
_chemical_formula_sum "Si O2"
_cell_formula_units_Z 80
_cell_length_a 35.116921
_cell_length_b 5.182414
_cell_length_c 26.463264
_cell_angle_alpha 90.000000
_cell_angle_beta 90.000000
_cell_angle_gamma 90.000000
_cell_volume 4816.060610
_symmetry_space_group_name_H-M "C M C A"
_symmetry_group_IT_number 64
_symmetry_cell_setting 'orthorhombic'
loop_
_space_group_symop_operation_xyz
x,y,z
-x,1/2-y,1/2+z
x,-y,-z
-x,1/2+y,1/2-z
-x,-y,-z
x,1/2+y,1/2-z
-x,y,z
x,1/2-y,1/2+z
1/2+x,1/2+y,z
1/2-x,-y,1/2+z
1/2+x,1/2-y,-z
1/2-x,y,1/2-z
1/2-x,1/2-y,-z
1/2+x,y,1/2-z
1/2-x,1/2+y,z
1/2+x,-y,1/2+z
loop_
_atom_site_type_symbol
_atom_site_label
_atom_site_fract_x
_atom_site_fract_y
_atom_site_fract_z
Si Si1 0.707743 0.739378 0.728010
Si Si2 0.419298 0.952262 0.557376
Si Si3 0.725457 0.224637 0.886703
Si Si4 0.956429 0.044650 0.440712
Si Si5 0.662031 0.741184 0.032117
O O1 0.686307 0.503826 0.756297
O O2 0.750000 0.788073 0.750000
O O3 0.707318 0.695101 0.668444
O O4 0.443780 0.726762 0.584431
O O5 0.375133 0.872368 0.560055
O O6 0.432808 0.000000 0.500000
O O7 0.429630 0.228143 0.582859
O O8 0.742409 0.508808 0.894459
O O9 0.692735 0.173006 0.927050
O O10 0.000000 0.110256 0.428172
O O11 0.949170 0.000000 0.500000
O O12 0.678769 0.500000 0.000000
O O13 0.651883 0.000000 0.000000
#
# Coordination Sequence:
#
# PCOD8261426 Si02
#       5
#    16  16  16  16  16
#     4  10  16  31  51  70  87 102 125 180 235 290
#     4   9  16  28  41  53  80 115 143 175 216 256
#     4  12  22  33  51  69  84 111 154 194 224 267
#     4   9  15  23  40  63  79  98 139 188 219 244
#     4  11  23  36  45  59  88 127 159 184 218 256
#
# _framework density 16.611087000000001
#
# number of rings (size 3 to 8) (size 9 to 14) (size 15 to 20)
#    0.000    1.800    4.000    4.800    0.000    4.800 
#    0.000    0.000    0.000    0.000    0.000    0.000 
#    0.000    0.000    0.000    0.000    0.000   20.000 
#
# Total GULP energy -495615.543939 kJ/mol
# GULP energy per Si atom -12390.388598 kJ/mol
# Density = 1.657328 g / cm^3
# Si number density = 16.611087 Si / 1000 Ang^3
#
#
#
# Elastic Constant Matrix: (Units=GPa)
#
#
# Indices 1 2 3 4 5 6 
#
# 1 61.4780 33.0743 28.0989 0.0000 0.0000 0.0000
# 2 33.0743 129.2731 11.2287 0.0000 0.0000 0.0000
# 3 28.0989 11.2287 38.4321 0.0000 0.0000 0.0000
# 4 0.0000 0.0000 0.0000 14.8478 0.0000 0.0000
# 5 0.0000 0.0000 0.0000 0.0000 -0.3419 0.0000
# 6 0.0000 0.0000 0.0000 0.0000 0.0000 -75.0968
#
#
#
# Elastic Compliance Matrix: (Units=1/GPa)
#
#
# Indices 1 2 3 4 5 6 
#
# 1 0.027757 -0.005478 -0.018694 0.000000 0.000000 0.000000
# 2 -0.005478 0.009018 0.001370 0.000000 0.000000 0.000000
# 3 -0.018694 0.001370 0.039287 0.000000 0.000000 0.000000
# 4 0.000000 0.000000 0.000000 0.067350 0.000000 0.000000
# 5 0.000000 0.000000 0.000000 0.000000 -2.924883 0.000000
# 6 0.000000 0.000000 0.000000 0.000000 0.000000 -0.013316
#
#
# Mechanical properties :
#
#
# Convention : Reuss Voigt Hill
#
# Bulk Modulus (GPa) = 32.83025 41.55410 37.19218
# Shear Modulus (GPa) = -1.82546 -1.66607 -1.74577
#
# Velocity S-wave (km/s) = -1.04944 -1.00258 -1.02628
# Velocity P-wave (km/s) = 4.28235 4.87134 4.58631
#
# Compressibility (1/GPa) = 0.03045971
#
# Stress axis : x y z
#
# Youngs Moduli (GPa) = 36.02696 110.88884 25.45374
#
# Poissons Ratio (x) = 0.60743 0.47582
# Poissons Ratio (y) = 0.19735 -0.03488
# Poissons Ratio (z) = 0.67347 -0.15194
#
# Static dielectric constant tensor:
#      x y z
#    x 2.782420 0.000000 0.000000 
#    y 0.000000 4.028100 0.000000 
#    z 0.000000 0.000000 2.633600 
# 
# 
# High freq. dielectric constant tensor:
#      x y z
#    x 1.605510 0.000000 0.000000 
#    y 0.000000 1.684510 0.000000 
#    z 0.000000 0.000000 1.566140 
# 
# From -- ./inp_files/51276.got.cif
#   From: 2010.03.12/outbox.cif.g09.slc.cpg/sg64_26_cif.got.tgz:51276.got - 2010.04.10 20:19:32.
