data_PCOD8261071
_publ_section_title
;
Structure prediction by ZEFSAII (Michael W. Deem and Ramdas Pophale) SiO2 
 PCOD8261071
Probable space group: C M C M
;
_chemical_formula_sum "Si O2"
_cell_formula_units_Z 80
_cell_length_a 8.657286
_cell_length_b 18.496644
_cell_length_c 25.776855
_cell_angle_alpha 90.000000
_cell_angle_beta 90.000000
_cell_angle_gamma 90.000000
_cell_volume 4127.666793
_symmetry_space_group_name_H-M "C M C M"
_symmetry_group_IT_number 63
_symmetry_cell_setting 'orthorhombic'
loop_
_space_group_symop_operation_xyz
x,y,z
-x,-y,1/2+z
x,-y,-z
-x,y,1/2-z
-x,-y,-z
x,y,1/2-z
-x,y,z
x,-y,1/2+z
1/2+x,1/2+y,z
1/2-x,1/2-y,1/2+z
1/2+x,1/2-y,-z
1/2-x,1/2+y,1/2-z
1/2-x,1/2-y,-z
1/2+x,1/2+y,1/2-z
1/2-x,1/2+y,z
1/2+x,1/2-y,1/2+z
loop_
_atom_site_type_symbol
_atom_site_label
_atom_site_fract_x
_atom_site_fract_y
_atom_site_fract_z
Si Si1 0.317260 0.918968 0.056266
Si Si2 0.817103 0.417653 0.940064
Si Si3 0.681683 0.335447 0.654108
Si Si4 0.817542 0.579540 0.250000
Si Si5 0.684120 0.828167 0.348580
Si Si6 0.184030 0.416214 0.250000
O O1 0.500000 0.919660 0.058417
O O2 0.248659 0.863197 0.098395
O O3 0.262464 0.000057 0.069858
O O4 0.267019 0.895395 0.998461
O O5 0.723613 0.366249 0.901947
O O6 0.000000 0.408681 0.931050
O O7 0.500000 0.338269 0.663272
O O8 0.762347 0.380965 0.698615
O O9 0.744243 0.253493 0.656853
O O10 0.751844 0.497871 0.250000
O O11 0.000000 0.577902 0.250000
O O12 0.500000 0.829442 0.349758
O O13 0.747740 0.874795 0.300509
O O14 0.000000 0.415892 0.250000
#
# Coordination Sequence:
#
# PCOD8261071 Si02
#       6
#    16  16  16   8  16   8
#     4   8  15  30  53  77 100 134 182 223 248 283
#     4   9  17  32  55  78 100 132 177 223 255 286
#     4  11  22  34  51  77 109 138 161 199 260 319
#     4  11  22  37  59  79  96 127 174 220 252 291
#     4   9  17  30  49  75 105 135 168 205 249 306
#     4   9  17  31  55  79  94 121 172 220 250 289
#
# _framework density 19.381409999999999
#
# number of rings (size 3 to 8) (size 9 to 14) (size 15 to 20)
#    0.000    2.600    0.000    3.900    0.000    5.600 
#    0.000    2.000    0.000   18.000    0.000    0.000 
#    0.000    0.000    0.000    0.000    0.000    0.000 
#
# Total GULP energy -495942.114574 kJ/mol
# GULP energy per Si atom -12398.552864 kJ/mol
# Density = 1.933730 g / cm^3
# Si number density = 19.381410 Si / 1000 Ang^3
#
#
#
# Elastic Constant Matrix: (Units=GPa)
#
#
# Indices 1 2 3 4 5 6 
#
# 1 26.4995 23.1887 17.0677 0.0000 0.0000 0.0000
# 2 23.1887 177.7258 105.0717 0.0000 0.0000 0.0000
# 3 17.0677 105.0717 168.5592 0.0000 0.0000 0.0000
# 4 0.0000 0.0000 0.0000 20.7440 0.0000 0.0000
# 5 0.0000 0.0000 0.0000 0.0000 17.2968 0.0000
# 6 0.0000 0.0000 0.0000 0.0000 0.0000 20.8124
#
#
#
# Elastic Compliance Matrix: (Units=1/GPa)
#
#
# Indices 1 2 3 4 5 6 
#
# 1 0.042794 -0.004785 -0.001350 0.000000 0.000000 0.000000
# 2 -0.004785 0.009445 -0.005403 0.000000 0.000000 0.000000
# 3 -0.001350 -0.005403 0.009438 0.000000 0.000000 0.000000
# 4 0.000000 0.000000 0.000000 0.048207 0.000000 0.000000
# 5 0.000000 0.000000 0.000000 0.000000 0.057814 0.000000
# 6 0.000000 0.000000 0.000000 0.000000 0.000000 0.048048
#
#
# Mechanical properties :
#
#
# Convention : Reuss Voigt Hill
#
# Bulk Modulus (GPa) = 25.90739 73.71561 49.81150
# Shear Modulus (GPa) = 19.86575 26.93440 23.40007
#
# Velocity S-wave (km/s) = 3.20502 3.73192 3.47846
# Velocity P-wave (km/s) = 5.20503 7.52903 6.47220
#
# Compressibility (1/GPa) = 0.03859903
#
# Stress axis : x y z
#
# Youngs Moduli (GPa) = 23.36799 105.87140 105.96019
#
# Poissons Ratio (x) = 0.50661 0.14307
# Poissons Ratio (y) = 0.11182 0.57253
# Poissons Ratio (z) = 0.03155 0.57205
#
# Static dielectric constant tensor:
#      x y z
#    x 3.000750 0.000000 0.000000 
#    y 0.000000 3.807180 0.000000 
#    z 0.000000 0.000000 3.914380 
# 
# 
# High freq. dielectric constant tensor:
#      x y z
#    x 1.701670 0.000000 0.000000 
#    y 0.000000 1.762430 0.000000 
#    z 0.000000 0.000000 1.773790 
# 
# From -- ./inp_files/66700.got.cif
#   From: 2010.03.12/outbox.cif.g09.slc.cpg/sg63_34_cif.got.tgz:66700.got - 2010.04.10 19:34:48.
