data_PCOD8261397
_publ_section_title
;
Structure prediction by ZEFSAII (Michael W. Deem and Ramdas Pophale) SiO2 
 PCOD8261397
Probable space group: C M C A
;
_chemical_formula_sum "Si O2"
_cell_formula_units_Z 80
_cell_length_a 10.546969
_cell_length_b 20.736526
_cell_length_c 20.178640
_cell_angle_alpha 90.000000
_cell_angle_beta 90.000000
_cell_angle_gamma 90.000000
_cell_volume 4413.219845
_symmetry_space_group_name_H-M "C M C A"
_symmetry_group_IT_number 64
_symmetry_cell_setting 'orthorhombic'
loop_
_space_group_symop_operation_xyz
x,y,z
-x,1/2-y,1/2+z
x,-y,-z
-x,1/2+y,1/2-z
-x,-y,-z
x,1/2+y,1/2-z
-x,y,z
x,1/2-y,1/2+z
1/2+x,1/2+y,z
1/2-x,-y,1/2+z
1/2+x,1/2-y,-z
1/2-x,y,1/2-z
1/2-x,1/2-y,-z
1/2+x,y,1/2-z
1/2-x,1/2+y,z
1/2+x,-y,1/2+z
loop_
_atom_site_type_symbol
_atom_site_label
_atom_site_fract_x
_atom_site_fract_y
_atom_site_fract_z
Si Si1 0.261254 0.596623 0.676533
Si Si2 0.500000 0.332784 0.163432
Si Si3 0.500000 0.280824 0.563350
Si Si4 0.500000 0.688834 0.689851
Si Si5 0.246585 0.178068 0.470444
Si Si6 0.500000 0.286610 0.925131
Si Si7 0.350429 0.559294 0.546134
O O1 0.250000 0.565209 0.750000
O O2 0.370976 0.650599 0.674416
O O3 0.304277 0.543976 0.621455
O O4 0.124745 0.624120 0.657163
O O5 0.500000 0.285734 0.101595
O O6 0.500000 0.292890 0.232317
O O7 0.625136 0.323283 0.579498
O O8 0.500000 0.266384 0.483942
O O9 0.500000 0.753034 0.646314
O O10 0.250000 0.250000 0.500000
O O11 0.376824 0.166921 0.430517
O O12 0.227488 0.123031 0.525283
O O13 0.311189 0.500000 0.500000
O O14 0.500000 0.572820 0.542536
#
# Coordination Sequence:
#
# PCOD8261397 Si02
#       7
#    16   8   8   8  16   8  16
#     4  10  19  33  54  80 114 149 189 237 286 339
#     4  10  20  30  50  85 116 149 185 241 289 327
#     4  10  16  28  46  73 107 139 185 221 268 341
#     4  10  18  32  52  81 118 151 191 231 281 341
#     4  10  19  31  53  82 111 147 183 230 284 330
#     4  10  18  28  50  75 109 147 175 223 286 333
#     4  11  22  38  60  87 116 151 200 243 280 342
#
# _framework density 18.127354
#
# number of rings (size 3 to 8) (size 9 to 14) (size 15 to 20)
#    0.000    1.800    2.000    6.000    0.000    0.000 
#    0.000    2.000    0.000    2.400    0.000    0.000 
#    0.000    0.000    0.000    0.000    0.000    0.000 
#
# Total GULP energy -495632.264520 kJ/mol
# GULP energy per Si atom -12390.806613 kJ/mol
# Density = 1.808610 g / cm^3
# Si number density = 18.127354 Si / 1000 Ang^3
#
#
#
# Elastic Constant Matrix: (Units=GPa)
#
#
# Indices 1 2 3 4 5 6 
#
# 1 158.6273 22.4465 29.1566 0.0000 0.0000 0.0000
# 2 22.4465 59.8934 47.3120 0.0000 0.0000 0.0000
# 3 29.1566 47.3120 108.0520 0.0000 0.0000 0.0000
# 4 0.0000 0.0000 0.0000 27.8670 0.0000 0.0000
# 5 0.0000 0.0000 0.0000 0.0000 25.2675 0.0000
# 6 0.0000 0.0000 0.0000 0.0000 0.0000 2.8308
#
#
#
# Elastic Compliance Matrix: (Units=1/GPa)
#
#
# Indices 1 2 3 4 5 6 
#
# 1 0.006740 -0.001665 -0.001090 0.000000 0.000000 0.000000
# 2 -0.001665 0.025936 -0.010907 0.000000 0.000000 0.000000
# 3 -0.001090 -0.010907 0.014325 0.000000 0.000000 0.000000
# 4 0.000000 0.000000 0.000000 0.035885 0.000000 0.000000
# 5 0.000000 0.000000 0.000000 0.000000 0.039577 0.000000
# 6 0.000000 0.000000 0.000000 0.000000 0.000000 0.353256
#
#
# Mechanical properties :
#
#
# Convention : Reuss Voigt Hill
#
# Bulk Modulus (GPa) = 50.82091 58.26701 54.54396
# Shear Modulus (GPa) = 9.81158 26.37021 18.09090
#
# Velocity S-wave (km/s) = 2.32902 3.81822 3.16252
# Velocity P-wave (km/s) = 5.94380 7.18688 6.59470
#
# Compressibility (1/GPa) = 0.01967694
#
# Stress axis : x y z
#
# Youngs Moduli (GPa) = 148.36798 38.55572 69.80948
#
# Poissons Ratio (x) = 0.06421 0.07606
# Poissons Ratio (y) = 0.24708 0.76143
# Poissons Ratio (z) = 0.16165 0.42054
#
# Static dielectric constant tensor:
#      x y z
#    x 4.717050 0.000000 0.000000 
#    y 0.000000 2.801700 0.000000 
#    z 0.000000 0.000000 3.494920 
# 
# 
# High freq. dielectric constant tensor:
#      x y z
#    x 1.740730 0.000000 0.000000 
#    y 0.000000 1.635760 0.000000 
#    z 0.000000 0.000000 1.693570 
# 
# From -- ./inp_files/31046.got.cif
#   From: 2010.03.12/outbox.cif.g09.slc.cpg/sg64_16_cif.got.tgz:31046.got - 2010.04.10 20:19:32.
