data_PCOD8261404
_publ_section_title
;
Structure prediction by ZEFSAII (Michael W. Deem and Ramdas Pophale) SiO2 
 PCOD8261404
Probable space group: C M C A
;
_chemical_formula_sum "Si O2"
_cell_formula_units_Z 72
_cell_length_a 9.502496
_cell_length_b 18.757848
_cell_length_c 22.862899
_cell_angle_alpha 90.000000
_cell_angle_beta 90.000000
_cell_angle_gamma 90.000000
_cell_volume 4075.228882
_symmetry_space_group_name_H-M "C M C A"
_symmetry_group_IT_number 64
_symmetry_cell_setting 'orthorhombic'
loop_
_space_group_symop_operation_xyz
x,y,z
-x,1/2-y,1/2+z
x,-y,-z
-x,1/2+y,1/2-z
-x,-y,-z
x,1/2+y,1/2-z
-x,y,z
x,1/2-y,1/2+z
1/2+x,1/2+y,z
1/2-x,-y,1/2+z
1/2+x,1/2-y,-z
1/2-x,y,1/2-z
1/2-x,1/2-y,-z
1/2+x,y,1/2-z
1/2-x,1/2+y,z
1/2+x,-y,1/2+z
loop_
_atom_site_type_symbol
_atom_site_label
_atom_site_fract_x
_atom_site_fract_y
_atom_site_fract_z
Si Si1 0.336340 0.751964 0.058131
Si Si2 0.658996 0.100349 0.900612
Si Si3 0.656539 0.403100 0.896623
Si Si4 0.669282 0.511331 0.310577
Si Si5 0.255114 0.000000 0.500000
O O1 0.500000 0.763572 0.042704
O O2 0.274555 0.820807 0.093166
O O3 0.311542 0.679782 0.093116
O O4 0.250000 0.750000 0.000000
O O5 0.500000 0.111464 0.883180
O O6 0.724893 0.058962 0.845162
O O7 0.664542 0.053620 0.960075
O O8 0.500000 0.412005 0.869574
O O9 0.777172 0.423449 0.850468
O O10 0.655456 0.449487 0.956561
O O11 0.500000 0.516081 0.303026
O O12 0.750000 0.513019 0.250000
#
# Coordination Sequence:
#
# PCOD8261404 Si02
#       5
#    16  16  16  16   8
#     4  10  19  33  50  76 112 145 174 209 256 311
#     4   9  18  31  51  77 106 139 174 214 261 311
#     4  10  20  32  51  78 110 142 173 215 260 309
#     4  10  21  38  58  77  99 134 178 224 265 309
#     4  10  16  28  50  76 109 138 177 212 257 304
#
# _framework density 17.667718000000001
#
# number of rings (size 3 to 8) (size 9 to 14) (size 15 to 20)
#    0.000    2.222    2.222    1.333    0.000    1.778 
#    0.000    2.222    0.000    2.667    0.000    0.000 
#    0.000    0.000    0.000    0.000    0.000    0.000 
#
# Total GULP energy -445982.699469 kJ/mol
# GULP energy per Si atom -12388.408319 kJ/mol
# Density = 1.762751 g / cm^3
# Si number density = 17.667718 Si / 1000 Ang^3
#
#
#
# Elastic Constant Matrix: (Units=GPa)
#
#
# Indices 1 2 3 4 5 6 
#
# 1 79.8023 40.9758 49.0878 0.0000 0.0000 0.0000
# 2 40.9758 152.1177 57.3009 0.0000 0.0000 0.0000
# 3 49.0878 57.3009 116.3105 0.0000 0.0000 0.0000
# 4 0.0000 0.0000 0.0000 14.6595 0.0000 0.0000
# 5 0.0000 0.0000 0.0000 0.0000 30.1650 0.0000
# 6 0.0000 0.0000 0.0000 0.0000 0.0000 23.8161
#
#
#
# Elastic Compliance Matrix: (Units=1/GPa)
#
#
# Indices 1 2 3 4 5 6 
#
# 1 0.017603 -0.002386 -0.006254 0.000000 0.000000 0.000000
# 2 -0.002386 0.008395 -0.003129 0.000000 0.000000 0.000000
# 3 -0.006254 -0.003129 0.012778 0.000000 0.000000 0.000000
# 4 0.000000 0.000000 0.000000 0.068215 0.000000 0.000000
# 5 0.000000 0.000000 0.000000 0.000000 0.033151 0.000000
# 6 0.000000 0.000000 0.000000 0.000000 0.000000 0.041988
#
#
# Mechanical properties :
#
#
# Convention : Reuss Voigt Hill
#
# Bulk Modulus (GPa) = 65.61971 71.43993 68.52982
# Shear Modulus (GPa) = 23.72503 27.11918 25.42210
#
# Velocity S-wave (km/s) = 3.66846 3.92210 3.79740
# Velocity P-wave (km/s) = 7.42732 7.81240 7.62229
#
# Compressibility (1/GPa) = 0.01523932
#
# Stress axis : x y z
#
# Youngs Moduli (GPa) = 56.80910 119.11557 78.25665
#
# Poissons Ratio (x) = 0.28421 0.48939
# Poissons Ratio (y) = 0.13555 0.24486
# Poissons Ratio (z) = 0.35526 0.37271
#
# Static dielectric constant tensor:
#      x y z
#    x 3.229360 0.000000 0.000000 
#    y 0.000000 3.619730 0.000000 
#    z 0.000000 0.000000 3.172970 
# 
# 
# High freq. dielectric constant tensor:
#      x y z
#    x 1.673350 0.000000 0.000000 
#    y 0.000000 1.697550 0.000000 
#    z 0.000000 0.000000 1.664850 
# 
# From -- ./inp_files/36554.got.cif
#   From: 2010.03.12/outbox.cif.g09.slc.cpg/sg64_19_cif.got.tgz:36554.got - 2010.04.10 20:19:32.
