data_PCOD8261051
_publ_section_title
;
Structure prediction by ZEFSAII (Michael W. Deem and Ramdas Pophale) SiO2 
 PCOD8261051
Probable space group: C M C M
;
_chemical_formula_sum "Si O2"
_cell_formula_units_Z 96
_cell_length_a 17.892306
_cell_length_b 11.659674
_cell_length_c 23.361111
_cell_angle_alpha 90.000000
_cell_angle_beta 90.000000
_cell_angle_gamma 90.000000
_cell_volume 4873.558885
_symmetry_space_group_name_H-M "C M C M"
_symmetry_group_IT_number 63
_symmetry_cell_setting 'orthorhombic'
loop_
_space_group_symop_operation_xyz
x,y,z
-x,-y,1/2+z
x,-y,-z
-x,y,1/2-z
-x,-y,-z
x,y,1/2-z
-x,y,z
x,-y,1/2+z
1/2+x,1/2+y,z
1/2-x,1/2-y,1/2+z
1/2+x,1/2-y,-z
1/2-x,1/2+y,1/2-z
1/2-x,1/2-y,-z
1/2+x,1/2+y,1/2-z
1/2-x,1/2+y,z
1/2+x,1/2-y,1/2+z
loop_
_atom_site_type_symbol
_atom_site_label
_atom_site_fract_x
_atom_site_fract_y
_atom_site_fract_z
Si Si1 0.910319 0.693477 0.250000
Si Si2 0.674088 0.110367 0.139191
Si Si3 0.314195 0.330536 0.064213
Si Si4 0.915312 0.187547 0.043110
Si Si5 0.846900 0.416639 0.447149
Si Si6 0.339145 0.452593 0.859456
Si Si7 0.087441 0.045480 0.750000
O O1 0.878555 0.631739 0.306472
O O2 0.880764 0.824578 0.250000
O O3 0.000000 0.683651 0.250000
O O4 0.665310 0.207830 0.090924
O O5 0.760330 0.104229 0.158355
O O6 0.650456 0.988857 0.111439
O O7 0.228119 0.339796 0.044631
O O8 0.328154 0.425537 0.111475
O O9 0.367137 0.355824 0.010534
O O10 0.913732 0.325205 0.051446
O O11 0.884304 0.132920 0.100724
O O12 0.000000 0.148446 0.032412
O O13 0.854922 0.500000 0.500000
O O14 0.387163 0.471981 0.803563
O O15 0.000000 0.056203 0.750000
#
# Coordination Sequence:
#
# PCOD8261051 Si02
#       7
#     8  16  16  16  16  16   8
#     4  11  25  44  65  93 127 158 205 262 318 370
#     4  11  22  42  69  91 122 164 210 259 306 363
#     4  11  21  40  66  92 124 162 211 260 304 366
#     4  12  25  39  60  95 135 167 200 253 321 376
#     4  11  22  40  65  92 125 167 212 254 304 371
#     4  11  23  41  65  92 123 162 215 260 303 371
#     4  11  23  40  63  89 123 164 205 260 314 366
#
# _framework density 19.698132000000001
#
# number of rings (size 3 to 8) (size 9 to 14) (size 15 to 20)
#    0.000    0.833    5.000    4.000    0.000    3.667 
#    0.000    0.833    0.000    1.000    0.000    0.000 
#    0.000    0.000    0.000    0.000    0.000    0.000 
#
# Total GULP energy -595425.145946 kJ/mol
# GULP energy per Si atom -12404.690541 kJ/mol
# Density = 1.965330 g / cm^3
# Si number density = 19.698132 Si / 1000 Ang^3
#
#
#
# Elastic Constant Matrix: (Units=GPa)
#
#
# Indices 1 2 3 4 5 6 
#
# 1 99.0744 24.1481 50.2180 0.0000 0.0000 0.0000
# 2 24.1481 61.4314 21.8433 0.0000 0.0000 0.0000
# 3 50.2180 21.8433 99.9195 0.0000 0.0000 0.0000
# 4 0.0000 0.0000 0.0000 -32.6561 0.0000 0.0000
# 5 0.0000 0.0000 0.0000 0.0000 -28.3262 0.0000
# 6 0.0000 0.0000 0.0000 0.0000 0.0000 19.4840
#
#
#
# Elastic Compliance Matrix: (Units=1/GPa)
#
#
# Indices 1 2 3 4 5 6 
#
# 1 0.014129 -0.003284 -0.006383 0.000000 0.000000 0.000000
# 2 -0.003284 0.018414 -0.002375 0.000000 0.000000 0.000000
# 3 -0.006383 -0.002375 0.013735 0.000000 0.000000 0.000000
# 4 0.000000 0.000000 0.000000 -0.030622 0.000000 0.000000
# 5 0.000000 0.000000 0.000000 0.000000 -0.035303 0.000000
# 6 0.000000 0.000000 0.000000 0.000000 0.000000 0.051324
#
#
# Mechanical properties :
#
#
# Convention : Reuss Voigt Hill
#
# Bulk Modulus (GPa) = 45.05771 50.31601 47.68686
# Shear Modulus (GPa) = 79.16381 2.64807 40.90594
#
# Velocity S-wave (km/s) = 6.34632 1.16071 4.56196
# Velocity P-wave (km/s) = 8.75356 5.23405 7.21180
#
# Compressibility (1/GPa) = 0.02219376
#
# Stress axis : x y z
#
# Youngs Moduli (GPa) = 70.77421 54.30713 72.80506
#
# Poissons Ratio (x) = 0.17837 0.46473
# Poissons Ratio (y) = 0.23245 0.17289
# Poissons Ratio (z) = 0.45177 0.12896
#
# Static dielectric constant tensor:
#      x y z
#    x 3.559110 0.000000 0.000000 
#    y 0.000000 3.788710 0.000000 
#    z 0.000000 0.000000 3.568890 
# 
# 
# High freq. dielectric constant tensor:
#      x y z
#    x 1.761800 0.000000 0.000000 
#    y 0.000000 1.781310 0.000000 
#    z 0.000000 0.000000 1.770740 
# 
# From -- ./inp_files/63749.got.cif
#   From: 2010.03.12/outbox.cif.g09.slc.cpg/sg63_32_cif.got.tgz:63749.got - 2010.04.10 19:34:48.
