data_PCOD8261561
_publ_section_title
;
Structure prediction by ZEFSAII (Michael W. Deem and Ramdas Pophale) SiO2 
 PCOD8261561
Probable space group: C M C A
;
_chemical_formula_sum "Si O2"
_cell_formula_units_Z 96
_cell_length_a 15.544428
_cell_length_b 18.929609
_cell_length_c 17.762534
_cell_angle_alpha 90.000000
_cell_angle_beta 90.000000
_cell_angle_gamma 90.000000
_cell_volume 5226.624638
_symmetry_space_group_name_H-M "C M C A"
_symmetry_group_IT_number 64
_symmetry_cell_setting 'orthorhombic'
loop_
_space_group_symop_operation_xyz
x,y,z
-x,1/2-y,1/2+z
x,-y,-z
-x,1/2+y,1/2-z
-x,-y,-z
x,1/2+y,1/2-z
-x,y,z
x,1/2-y,1/2+z
1/2+x,1/2+y,z
1/2-x,-y,1/2+z
1/2+x,1/2-y,-z
1/2-x,y,1/2-z
1/2-x,1/2-y,-z
1/2+x,y,1/2-z
1/2-x,1/2+y,z
1/2+x,-y,1/2+z
loop_
_atom_site_type_symbol
_atom_site_label
_atom_site_fract_x
_atom_site_fract_y
_atom_site_fract_z
Si Si1 0.500000 0.407213 0.707425
Si Si2 0.312907 0.037386 0.928214
Si Si3 0.500000 0.972808 0.099491
Si Si4 0.164751 0.783179 0.593793
Si Si5 0.500000 0.330337 0.329795
Si Si6 0.327917 0.306060 0.419554
Si Si7 0.500000 0.254229 0.175229
Si Si8 0.320530 0.578064 0.308800
O O1 0.500000 0.445380 0.624995
O O2 0.500000 0.323654 0.709213
O O3 0.408509 0.433462 0.741161
O O4 0.414790 0.042574 0.948625
O O5 0.281286 0.117121 0.915667
O O6 0.294879 0.993597 0.851953
O O7 0.266828 0.000000 0.000000
O O8 0.500000 0.915692 0.168301
O O9 0.256840 0.748073 0.612435
O O10 0.148312 0.788434 0.505172
O O11 0.086663 0.735651 0.626216
O O12 0.163523 0.861012 0.629939
O O13 0.414243 0.299450 0.369955
O O14 0.500000 0.309996 0.242605
O O15 0.250000 0.601740 0.250000
#
# Coordination Sequence:
#
# PCOD8261561 Si02
#       8
#     8  16   8  16   8  16   8  16
#     4   8  18  34  52  76 103 134 174 209 271 318
#     4  10  17  33  54  80 105 135 176 227 277 319
#     4   8  17  31  51  79 105 129 171 223 270 322
#     4  10  21  37  56  78 109 145 188 220 272 327
#     4  10  21  34  54  84 112 138 174 223 287 322
#     4  10  21  36  56  81 108 146 181 228 267 330
#     4  10  21  35  55  80 109 146 175 225 276 328
#     4  10  20  34  55  82 108 139 177 226 276 327
#
# _framework density 18.367495000000002
#
# number of rings (size 3 to 8) (size 9 to 14) (size 15 to 20)
#    0.000    2.333    1.667    0.750    4.667    0.000 
#    9.000    0.000    0.000    0.000    0.000    1.167 
#    0.000    0.000    0.000    0.000    0.000    0.000 
#
# Total GULP energy -594673.557110 kJ/mol
# GULP energy per Si atom -12389.032440 kJ/mol
# Density = 1.832569 g / cm^3
# Si number density = 18.367495 Si / 1000 Ang^3
#
#
#
# Elastic Constant Matrix: (Units=GPa)
#
#
# Indices 1 2 3 4 5 6 
#
# 1 106.0571 16.9878 42.7711 0.0000 0.0000 0.0000
# 2 16.9878 79.7352 26.0763 0.0000 0.0000 0.0000
# 3 42.7711 26.0763 77.6707 0.0000 0.0000 0.0000
# 4 0.0000 0.0000 0.0000 26.6939 0.0000 0.0000
# 5 0.0000 0.0000 0.0000 0.0000 23.0896 0.0000
# 6 0.0000 0.0000 0.0000 0.0000 0.0000 20.1876
#
#
#
# Elastic Compliance Matrix: (Units=1/GPa)
#
#
# Indices 1 2 3 4 5 6 
#
# 1 0.012135 -0.000449 -0.006532 0.000000 0.000000 0.000000
# 2 -0.000449 0.014105 -0.004488 0.000000 0.000000 0.000000
# 3 -0.006532 -0.004488 0.017978 0.000000 0.000000 0.000000
# 4 0.000000 0.000000 0.000000 0.037462 0.000000 0.000000
# 5 0.000000 0.000000 0.000000 0.000000 0.043310 0.000000
# 6 0.000000 0.000000 0.000000 0.000000 0.000000 0.049535
#
#
# Mechanical properties :
#
#
# Convention : Reuss Voigt Hill
#
# Bulk Modulus (GPa) = 46.99134 48.34818 47.66976
# Shear Modulus (GPa) = 24.44316 25.83606 25.13961
#
# Velocity S-wave (km/s) = 3.65195 3.75456 3.70361
# Velocity P-wave (km/s) = 6.58952 6.72127 6.65572
#
# Compressibility (1/GPa) = 0.02128052
#
# Stress axis : x y z
#
# Youngs Moduli (GPa) = 82.40689 70.89689 55.62247
#
# Poissons Ratio (x) = 0.03186 0.36330
# Poissons Ratio (y) = 0.03703 0.24963
# Poissons Ratio (z) = 0.53824 0.31819
#
# Static dielectric constant tensor:
#      x y z
#    x 3.612800 0.000000 0.000000 
#    y 0.000000 3.418130 0.000000 
#    z 0.000000 0.000000 3.038610 
# 
# 
# High freq. dielectric constant tensor:
#      x y z
#    x 1.709110 0.000000 0.000000 
#    y 0.000000 1.711910 0.000000 
#    z 0.000000 0.000000 1.685600 
# 
# From -- ./inp_files/33380.got.cif
#   From: 2010.03.12/outbox.cif.g09.slc.cpg/sg64_17_cif.got.tgz:33380.got - 2010.04.10 20:19:32.
