data_PCOD8261052
_publ_section_title
;
Structure prediction by ZEFSAII (Michael W. Deem and Ramdas Pophale) SiO2 
 PCOD8261052
Probable space group: C M C M
;
_chemical_formula_sum "Si O2"
_cell_formula_units_Z 64
_cell_length_a 7.866175
_cell_length_b 23.415870
_cell_length_c 17.878538
_cell_angle_alpha 90.000000
_cell_angle_beta 90.000000
_cell_angle_gamma 90.000000
_cell_volume 3293.107471
_symmetry_space_group_name_H-M "C M C M"
_symmetry_group_IT_number 63
_symmetry_cell_setting 'orthorhombic'
loop_
_space_group_symop_operation_xyz
x,y,z
-x,-y,1/2+z
x,-y,-z
-x,y,1/2-z
-x,-y,-z
x,y,1/2-z
-x,y,z
x,-y,1/2+z
1/2+x,1/2+y,z
1/2-x,1/2-y,1/2+z
1/2+x,1/2-y,-z
1/2-x,1/2+y,1/2-z
1/2-x,1/2-y,-z
1/2+x,1/2+y,1/2-z
1/2-x,1/2+y,z
1/2+x,1/2-y,1/2+z
loop_
_atom_site_type_symbol
_atom_site_label
_atom_site_fract_x
_atom_site_fract_y
_atom_site_fract_z
Si Si1 0.000000 0.931569 0.417021
Si Si2 0.188089 0.156501 0.833176
Si Si3 0.691317 0.869119 0.663351
Si Si4 0.309883 0.260999 0.583165
Si Si5 0.500000 0.564844 0.091597
O O1 0.830188 0.902386 0.380955
O O2 0.000000 0.919046 0.504776
O O3 0.000000 0.997394 0.396234
O O4 0.257354 0.142370 0.750000
O O5 0.311722 0.201099 0.872914
O O6 0.000000 0.184977 0.828673
O O7 0.736391 0.860078 0.750000
O O8 0.500000 0.894035 0.653345
O O9 0.693978 0.807683 0.623386
O O10 0.827948 0.911944 0.628389
O O11 0.500000 0.285869 0.582108
O O12 0.250000 0.250000 0.500000
#
# Coordination Sequence:
#
# PCOD8261052 Si02
#       5
#     8  16  16  16   8
#     4   9  21  39  63  91 121 165 210 257 308 373
#     4   9  19  36  57  81 116 159 200 244 303 364
#     4  11  24  40  61  92 127 163 207 260 313 369
#     4  12  23  36  58  89 127 161 205 255 308 375
#     4  11  21  41  67  91 125 163 216 257 312 373
#
# _framework density 19.434531
#
# number of rings (size 3 to 8) (size 9 to 14) (size 15 to 20)
#    0.750    0.750    1.250    4.875    0.000    5.500 
#    0.000    3.750    0.000    0.000    0.000    0.000 
#    0.000    0.000    0.000    0.000    0.000    0.000 
#
# Total GULP energy -396703.143983 kJ/mol
# GULP energy per Si atom -12396.973249 kJ/mol
# Density = 1.939030 g / cm^3
# Si number density = 19.434531 Si / 1000 Ang^3
#
#
#
# Elastic Constant Matrix: (Units=GPa)
#
#
# Indices 1 2 3 4 5 6 
#
# 1 99.9562 40.5521 50.2879 0.0000 0.0000 0.0000
# 2 40.5521 102.3192 65.2592 0.0000 0.0000 0.0000
# 3 50.2879 65.2592 171.4586 0.0000 0.0000 0.0000
# 4 0.0000 0.0000 0.0000 24.0882 0.0000 0.0000
# 5 0.0000 0.0000 0.0000 0.0000 26.2863 0.0000
# 6 0.0000 0.0000 0.0000 0.0000 0.0000 29.7020
#
#
#
# Elastic Compliance Matrix: (Units=1/GPa)
#
#
# Indices 1 2 3 4 5 6 
#
# 1 0.012612 -0.003485 -0.002372 0.000000 0.000000 0.000000
# 2 -0.003485 0.013870 -0.004257 0.000000 0.000000 0.000000
# 3 -0.002372 -0.004257 0.008148 0.000000 0.000000 0.000000
# 4 0.000000 0.000000 0.000000 0.041514 0.000000 0.000000
# 5 0.000000 0.000000 0.000000 0.000000 0.038043 0.000000
# 6 0.000000 0.000000 0.000000 0.000000 0.000000 0.033668
#
#
# Mechanical properties :
#
#
# Convention : Reuss Voigt Hill
#
# Bulk Modulus (GPa) = 69.44031 76.21471 72.82751
# Shear Modulus (GPa) = 28.92120 30.52430 29.72275
#
# Velocity S-wave (km/s) = 3.86182 3.96741 3.91497
# Velocity P-wave (km/s) = 7.46276 7.76456 7.61515
#
# Compressibility (1/GPa) = 0.01440086
#
# Stress axis : x y z
#
# Youngs Moduli (GPa) = 79.28981 72.10010 122.72501
#
# Poissons Ratio (x) = 0.25129 0.29116
# Poissons Ratio (y) = 0.27635 0.52240
# Poissons Ratio (z) = 0.18811 0.30691
#
# Static dielectric constant tensor:
#      x y z
#    x 3.401280 0.000000 0.000000 
#    y 0.000000 3.400000 0.000000 
#    z 0.000000 0.000000 3.666510 
# 
# 
# High freq. dielectric constant tensor:
#      x y z
#    x 1.742260 0.000000 0.000000 
#    y 0.000000 1.743030 0.000000 
#    z 0.000000 0.000000 1.778460 
# 
# From -- ./inp_files/40127.got.cif
#   From: 2010.03.12/outbox.cif.g09.slc.cpg/sg63_21_cif.got.tgz:40127.got - 2010.04.10 19:34:48.
