data_PCOD8261891
_publ_section_title
;
Structure prediction by ZEFSAII (Michael W. Deem and Ramdas Pophale) SiO2 
 PCOD8261891
Probable space group: C M C A
;
_chemical_formula_sum "Si O2"
_cell_formula_units_Z 104
_cell_length_a 20.831528
_cell_length_b 25.661843
_cell_length_c 9.169915
_cell_angle_alpha 90.000000
_cell_angle_beta 90.000000
_cell_angle_gamma 90.000000
_cell_volume 4902.010988
_symmetry_space_group_name_H-M "C M C A"
_symmetry_group_IT_number 64
_symmetry_cell_setting 'orthorhombic'
loop_
_space_group_symop_operation_xyz
x,y,z
-x,1/2-y,1/2+z
x,-y,-z
-x,1/2+y,1/2-z
-x,-y,-z
x,1/2+y,1/2-z
-x,y,z
x,1/2-y,1/2+z
1/2+x,1/2+y,z
1/2-x,-y,1/2+z
1/2+x,1/2-y,-z
1/2-x,y,1/2-z
1/2-x,1/2-y,-z
1/2+x,y,1/2-z
1/2-x,1/2+y,z
1/2+x,-y,1/2+z
loop_
_atom_site_type_symbol
_atom_site_label
_atom_site_fract_x
_atom_site_fract_y
_atom_site_fract_z
Si Si1 0.760871 0.663305 0.513409
Si Si2 0.654745 0.242512 0.954339
Si Si3 0.623573 0.113344 0.650365
Si Si4 0.369540 0.543289 0.111308
Si Si5 0.572058 0.723817 0.799775
Si Si6 0.750000 0.592059 0.250000
Si Si7 0.926655 0.477123 0.155857
O O1 0.700284 0.693316 0.583985
O O2 0.805876 0.704519 0.427330
O O3 0.801842 0.632497 0.637460
O O4 0.732503 0.625183 0.392510
O O5 0.589043 0.238315 0.864911
O O6 0.627222 0.243475 0.117511
O O7 0.604135 0.090064 0.490640
O O8 0.576677 0.161902 0.674149
O O9 0.615571 0.072119 0.784366
O O10 0.311484 0.557204 0.217664
O O11 0.424699 0.521836 0.219313
O O12 0.343323 0.500000 0.000000
O O13 0.500000 0.742296 0.834776
O O14 0.000000 0.458517 0.137654
O O15 0.901298 0.500000 0.000000
#
# Coordination Sequence:
#
# PCOD8261891 Si02
#       7
#    16  16  16  16  16   8  16
#     4   9  19  36  61  86 112 147 193 241 294 347
#     4  10  21  37  58  85 115 149 190 239 291 346
#     4   9  20  37  58  83 111 149 199 242 288 355
#     4   9  20  37  56  81 109 147 190 233 290 350
#     4  11  22  37  57  83 118 155 192 234 286 350
#     4  10  18  34  56  82 112 138 180 238 286 340
#     4  10  21  38  59  84 116 153 194 241 294 353
#
# _framework density 21.215782999999998
#
# number of rings (size 3 to 8) (size 9 to 14) (size 15 to 20)
#    0.000    2.308    0.000    1.846    0.000   10.154 
#    0.000    9.231    0.000    4.615    0.000    0.000 
#    0.000    0.000    0.000    0.000    0.000    0.154 
#
# Total GULP energy -644431.475038 kJ/mol
# GULP energy per Si atom -12392.912982 kJ/mol
# Density = 2.116750 g / cm^3
# Si number density = 21.215783 Si / 1000 Ang^3
#
#
#
# Elastic Constant Matrix: (Units=GPa)
#
#
# Indices 1 2 3 4 5 6 
#
# 1 102.0781 41.6146 42.4583 0.0000 0.0000 0.0000
# 2 41.6146 77.0437 40.0259 0.0000 0.0000 0.0000
# 3 42.4583 40.0259 96.3340 0.0000 0.0000 0.0000
# 4 0.0000 0.0000 0.0000 32.1359 0.0000 0.0000
# 5 0.0000 0.0000 0.0000 0.0000 35.8279 0.0000
# 6 0.0000 0.0000 0.0000 0.0000 0.0000 29.6135
#
#
#
# Elastic Compliance Matrix: (Units=1/GPa)
#
#
# Indices 1 2 3 4 5 6 
#
# 1 0.013541 -0.005373 -0.003735 0.000000 0.000000 0.000000
# 2 -0.005373 0.018685 -0.005395 0.000000 0.000000 0.000000
# 3 -0.003735 -0.005395 0.014269 0.000000 0.000000 0.000000
# 4 0.000000 0.000000 0.000000 0.031118 0.000000 0.000000
# 5 0.000000 0.000000 0.000000 0.000000 0.027911 0.000000
# 6 0.000000 0.000000 0.000000 0.000000 0.000000 0.033768
#
#
# Mechanical properties :
#
#
# Convention : Reuss Voigt Hill
#
# Bulk Modulus (GPa) = 57.18723 58.18372 57.68547
# Shear Modulus (GPa) = 28.71451 29.60593 29.16022
#
# Velocity S-wave (km/s) = 3.68292 3.73965 3.71139
# Velocity P-wave (km/s) = 6.71556 6.79197 6.75387
#
# Compressibility (1/GPa) = 0.01748642
#
# Stress axis : x y z
#
# Youngs Moduli (GPa) = 73.85169 53.51916 70.08423
#
# Poissons Ratio (x) = 0.28757 0.26179
# Poissons Ratio (y) = 0.39682 0.37812
# Poissons Ratio (z) = 0.27586 0.28875
#
# Static dielectric constant tensor:
#      x y z
#    x 3.563580 0.000000 0.000000 
#    y 0.000000 3.960880 0.000000 
#    z 0.000000 0.000000 3.800450 
# 
# 
# High freq. dielectric constant tensor:
#      x y z
#    x 1.815400 0.000000 0.000000 
#    y 0.000000 1.829590 0.000000 
#    z 0.000000 0.000000 1.835770 
# 
# From -- ./inp_files/8553.got.cif
#   From: 2010.03.12/outbox.cif.g09.slc.cpg/sg64_5_cif.got.tgz:8553.got - 2010.04.10 20:19:32.
