data_PCOD8261673
_publ_section_title
;
Structure prediction by ZEFSAII (Michael W. Deem and Ramdas Pophale) SiO2 
 PCOD8261673
Probable space group: C M C A
;
_chemical_formula_sum "Si O2"
_cell_formula_units_Z 96
_cell_length_a 8.807912
_cell_length_b 23.412042
_cell_length_c 25.816554
_cell_angle_alpha 90.000000
_cell_angle_beta 90.000000
_cell_angle_gamma 90.000000
_cell_volume 5323.662727
_symmetry_space_group_name_H-M "C M C A"
_symmetry_group_IT_number 64
_symmetry_cell_setting 'orthorhombic'
loop_
_space_group_symop_operation_xyz
x,y,z
-x,1/2-y,1/2+z
x,-y,-z
-x,1/2+y,1/2-z
-x,-y,-z
x,1/2+y,1/2-z
-x,y,z
x,1/2-y,1/2+z
1/2+x,1/2+y,z
1/2-x,-y,1/2+z
1/2+x,1/2-y,-z
1/2-x,y,1/2-z
1/2-x,1/2-y,-z
1/2+x,y,1/2-z
1/2-x,1/2+y,z
1/2+x,-y,1/2+z
loop_
_atom_site_type_symbol
_atom_site_label
_atom_site_fract_x
_atom_site_fract_y
_atom_site_fract_z
Si Si1 0.825094 0.751558 0.126041
Si Si2 0.824296 0.859409 0.067182
Si Si3 0.678175 0.480326 0.442450
Si Si4 0.177541 0.327930 0.967008
Si Si5 0.176431 0.164366 0.195599
Si Si6 0.821944 0.083085 0.102280
O O1 0.798450 0.819571 0.118247
O O2 0.773117 0.720584 0.073254
O O3 0.731507 0.725895 0.173970
O O4 0.000000 0.737615 0.137042
O O5 0.719870 0.914912 0.069121
O O6 0.000000 0.876980 0.062137
O O7 0.776030 0.819726 0.018737
O O8 0.728403 0.500000 0.500000
O O9 0.500000 0.488298 0.434183
O O10 0.769750 0.517102 0.399261
O O11 0.222502 0.389077 0.943267
O O12 0.000000 0.327445 0.980558
O O13 0.250000 0.149356 0.250000
O O14 0.219416 0.112669 0.156875
O O15 0.000000 0.169477 0.204459
O O16 0.000000 0.089471 0.090492
#
# Coordination Sequence:
#
# PCOD8261673 Si02
#       6
#    16  16  16  16  16  16
#     4   9  20  35  51  75 106 138 174 217 264 312
#     4  11  21  32  49  73 105 145 181 214 256 307
#     4  11  22  34  50  74 106 146 185 219 261 309
#     4  10  18  30  48  72 105 141 175 214 257 306
#     4  10  21  37  60  85 106 133 170 217 272 321
#     4  10  20  34  53  78 105 137 179 221 262 310
#
# _framework density 18.032696999999999
#
# number of rings (size 3 to 8) (size 9 to 14) (size 15 to 20)
#    0.000    1.833    1.667    3.000    0.000    4.667 
#    0.000    0.000    0.000    1.000    0.000    4.667 
#    0.000    0.000    0.000    0.000    0.000    0.000 
#
# Total GULP energy -595177.663324 kJ/mol
# GULP energy per Si atom -12399.534653 kJ/mol
# Density = 1.799165 g / cm^3
# Si number density = 18.032697 Si / 1000 Ang^3
#
#
#
# Elastic Constant Matrix: (Units=GPa)
#
#
# Indices 1 2 3 4 5 6 
#
# 1 63.1759 27.6692 36.0406 0.0000 0.0000 0.0000
# 2 27.6692 87.5293 33.3183 0.0000 0.0000 0.0000
# 3 36.0406 33.3183 79.7449 0.0000 0.0000 0.0000
# 4 0.0000 0.0000 0.0000 15.4691 0.0000 0.0000
# 5 0.0000 0.0000 0.0000 0.0000 28.8340 0.0000
# 6 0.0000 0.0000 0.0000 0.0000 0.0000 28.6988
#
#
#
# Elastic Compliance Matrix: (Units=1/GPa)
#
#
# Indices 1 2 3 4 5 6 
#
# 1 0.022358 -0.003831 -0.008504 0.000000 0.000000 0.000000
# 2 -0.003831 0.014242 -0.004219 0.000000 0.000000 0.000000
# 3 -0.008504 -0.004219 0.018146 0.000000 0.000000 0.000000
# 4 0.000000 0.000000 0.000000 0.064645 0.000000 0.000000
# 5 0.000000 0.000000 0.000000 0.000000 0.034681 0.000000
# 6 0.000000 0.000000 0.000000 0.000000 0.000000 0.034845
#
#
# Mechanical properties :
#
#
# Convention : Reuss Voigt Hill
#
# Bulk Modulus (GPa) = 46.21463 47.16735 46.69099
# Shear Modulus (GPa) = 21.81147 23.49519 22.65333
#
# Velocity S-wave (km/s) = 3.48163 3.61352 3.54819
# Velocity P-wave (km/s) = 6.46887 6.60480 6.53719
#
# Compressibility (1/GPa) = 0.02163817
#
# Stress axis : x y z
#
# Youngs Moduli (GPa) = 44.72677 70.21664 55.10784
#
# Poissons Ratio (x) = 0.26896 0.46865
# Poissons Ratio (y) = 0.17133 0.23251
# Poissons Ratio (z) = 0.38037 0.29625
#
# Static dielectric constant tensor:
#      x y z
#    x 3.320460 0.000000 0.000000 
#    y 0.000000 3.371910 0.000000 
#    z 0.000000 0.000000 3.120620 
# 
# 
# High freq. dielectric constant tensor:
#      x y z
#    x 1.710060 0.000000 0.000000 
#    y 0.000000 1.699670 0.000000 
#    z 0.000000 0.000000 1.660380 
# 
# From -- ./inp_files/42951.got.cif
#   From: 2010.03.12/outbox.cif.g09.slc.cpg/sg64_22_cif.got.tgz:42951.got - 2010.04.10 20:19:32.
