data_PCOD8261842
_publ_section_title
;
Structure prediction by ZEFSAII (Michael W. Deem and Ramdas Pophale) SiO2 
 PCOD8261842
Probable space group: C M C A
;
_chemical_formula_sum "Si O2"
_cell_formula_units_Z 96
_cell_length_a 24.127103
_cell_length_b 21.934036
_cell_length_c 9.465287
_cell_angle_alpha 90.000000
_cell_angle_beta 90.000000
_cell_angle_gamma 90.000000
_cell_volume 5009.074801
_symmetry_space_group_name_H-M "C M C A"
_symmetry_group_IT_number 64
_symmetry_cell_setting 'orthorhombic'
loop_
_space_group_symop_operation_xyz
x,y,z
-x,1/2-y,1/2+z
x,-y,-z
-x,1/2+y,1/2-z
-x,-y,-z
x,1/2+y,1/2-z
-x,y,z
x,1/2-y,1/2+z
1/2+x,1/2+y,z
1/2-x,-y,1/2+z
1/2+x,1/2-y,-z
1/2-x,y,1/2-z
1/2-x,1/2-y,-z
1/2+x,y,1/2-z
1/2-x,1/2+y,z
1/2+x,-y,1/2+z
loop_
_atom_site_type_symbol
_atom_site_label
_atom_site_fract_x
_atom_site_fract_y
_atom_site_fract_z
Si Si1 0.229372 0.431124 0.537446
Si Si2 0.686632 0.782131 0.725144
Si Si3 0.437688 0.906327 0.423041
Si Si4 0.937345 0.970452 0.777990
Si Si5 0.164752 0.825936 0.080174
Si Si6 0.336804 0.904470 0.821456
O O1 0.215698 0.500000 0.500000
O O2 0.206333 0.384062 0.419692
O O3 0.295705 0.421465 0.550247
O O4 0.195156 0.419126 0.677752
O O5 0.750000 0.801962 0.750000
O O6 0.676548 0.714361 0.781895
O O7 0.672581 0.783987 0.558811
O O8 0.650145 0.831829 0.813276
O O9 0.500000 0.882327 0.402294
O O10 0.429716 0.933423 0.578116
O O11 0.398022 0.848829 0.404226
O O12 0.424639 0.958540 0.307138
O O13 0.893637 0.943184 0.664721
O O14 0.000000 0.962571 0.719432
#
# Coordination Sequence:
#
# PCOD8261842 Si02
#       6
#    16  16  16  16  16  16
#     4  10  19  33  51  75 108 136 173 232 277 329
#     4  11  21  37  53  75 111 156 183 220 269 332
#     4   9  17  31  54  82 107 136 182 236 274 318
#     4   9  16  30  55  80 103 135 179 225 280 325
#     4  11  21  36  56  79 113 148 189 225 276 331
#     4  10  18  33  51  75 107 140 176 224 276 320
#
# _framework density 19.165215
#
# number of rings (size 3 to 8) (size 9 to 14) (size 15 to 20)
#    0.000    2.000    6.667    2.500    0.000    0.000 
#    6.000    1.667    0.000    0.500    0.000    0.000 
#    0.000    0.000    0.000    0.000    0.000    0.000 
#
# Total GULP energy -595028.796497 kJ/mol
# GULP energy per Si atom -12396.433260 kJ/mol
# Density = 1.912159 g / cm^3
# Si number density = 19.165215 Si / 1000 Ang^3
#
#
#
# Elastic Constant Matrix: (Units=GPa)
#
#
# Indices 1 2 3 4 5 6 
#
# 1 137.7783 49.5253 23.5849 0.0000 0.0000 0.0000
# 2 49.5253 125.0643 36.7387 0.0000 0.0000 0.0000
# 3 23.5849 36.7387 23.2990 0.0000 0.0000 0.0000
# 4 0.0000 0.0000 0.0000 22.2470 0.0000 0.0000
# 5 0.0000 0.0000 0.0000 0.0000 11.4749 0.0000
# 6 0.0000 0.0000 0.0000 0.0000 0.0000 29.6625
#
#
#
# Elastic Compliance Matrix: (Units=1/GPa)
#
#
# Indices 1 2 3 4 5 6 
#
# 1 0.008958 -0.001646 -0.006472 0.000000 0.000000 0.000000
# 2 -0.001646 0.015198 -0.022299 0.000000 0.000000 0.000000
# 3 -0.006472 -0.022299 0.084633 0.000000 0.000000 0.000000
# 4 0.000000 0.000000 0.000000 0.044950 0.000000 0.000000
# 5 0.000000 0.000000 0.000000 0.000000 0.087147 0.000000
# 6 0.000000 0.000000 0.000000 0.000000 0.000000 0.033713
#
#
# Mechanical properties :
#
#
# Convention : Reuss Voigt Hill
#
# Bulk Modulus (GPa) = 20.85276 56.20438 38.52857
# Shear Modulus (GPa) = 14.22811 24.42973 19.32892
#
# Velocity S-wave (km/s) = 2.72764 3.57415 3.17920
# Velocity P-wave (km/s) = 4.56335 6.81342 5.79857
#
# Compressibility (1/GPa) = 0.04795529
#
# Stress axis : x y z
#
# Youngs Moduli (GPa) = 111.63738 65.79740 11.81569
#
# Poissons Ratio (x) = 0.10830 0.07647
# Poissons Ratio (y) = 0.18375 0.26348
# Poissons Ratio (z) = 0.72252 1.46720
#
# Static dielectric constant tensor:
#      x y z
#    x 3.792010 0.000000 0.000000 
#    y 0.000000 3.779100 0.000000 
#    z 0.000000 0.000000 3.104160 
# 
# 
# High freq. dielectric constant tensor:
#      x y z
#    x 1.742460 0.000000 0.000000 
#    y 0.000000 1.746850 0.000000 
#    z 0.000000 0.000000 1.698020 
# 
# From -- ./inp_files/18479.got.cif
#   From: 2010.03.12/outbox.cif.g09.slc.cpg/sg64_10_cif.got.tgz:18479.got - 2010.04.10 20:19:32.
