data_PCOD8261577
_publ_section_title
;
Structure prediction by ZEFSAII (Michael W. Deem and Ramdas Pophale) SiO2 
 PCOD8261577
Probable space group: C M C A
;
_chemical_formula_sum "Si O2"
_cell_formula_units_Z 80
_cell_length_a 28.653017
_cell_length_b 17.424428
_cell_length_c 8.655733
_cell_angle_alpha 90.000000
_cell_angle_beta 90.000000
_cell_angle_gamma 90.000000
_cell_volume 4321.482306
_symmetry_space_group_name_H-M "C M C A"
_symmetry_group_IT_number 64
_symmetry_cell_setting 'orthorhombic'
loop_
_space_group_symop_operation_xyz
x,y,z
-x,1/2-y,1/2+z
x,-y,-z
-x,1/2+y,1/2-z
-x,-y,-z
x,1/2+y,1/2-z
-x,y,z
x,1/2-y,1/2+z
1/2+x,1/2+y,z
1/2-x,-y,1/2+z
1/2+x,1/2-y,-z
1/2-x,y,1/2-z
1/2-x,1/2-y,-z
1/2+x,y,1/2-z
1/2-x,1/2+y,z
1/2+x,-y,1/2+z
loop_
_atom_site_type_symbol
_atom_site_label
_atom_site_fract_x
_atom_site_fract_y
_atom_site_fract_z
Si Si1 0.050622 0.147377 0.374989
Si Si2 0.283376 0.711419 0.379461
Si Si3 0.355324 0.913430 0.011956
Si Si4 0.580397 0.213774 0.428680
Si Si5 0.361491 0.320827 0.208168
O O1 0.094115 0.095324 0.428914
O O2 0.049838 0.227909 0.468563
O O3 0.051211 0.160345 0.188313
O O4 0.000000 0.108055 0.409286
O O5 0.250000 0.673770 0.250000
O O6 0.250000 0.750000 0.500000
O O7 0.318327 0.645775 0.439704
O O8 0.311035 0.785534 0.319646
O O9 0.358914 0.899702 0.196172
O O10 0.337229 0.000000 0.000000
O O11 0.610649 0.163044 0.549338
O O12 0.614845 0.259368 0.319184
#
# Coordination Sequence:
#
# PCOD8261577 Si02
#       5
#    16  16  16  16  16
#     4  10  19  33  59  88 119 156 198 243 295 349
#     4  12  21  37  66  85 110 154 200 243 291 357
#     4  11  24  41  58  87 127 154 193 250 302 351
#     4   9  16  31  58  84 116 147 196 248 279 333
#     4  10  17  36  60  83 112 153 193 236 292 345
#
# _framework density 18.512165
#
# number of rings (size 3 to 8) (size 9 to 14) (size 15 to 20)
#    0.000    1.600    8.000    0.600    0.000    0.400 
#    3.600    2.000    0.000    1.200    0.000    0.000 
#    0.000    0.000    0.000    0.000    0.000    0.000 
#
# Total GULP energy -495536.006583 kJ/mol
# GULP energy per Si atom -12388.400165 kJ/mol
# Density = 1.847003 g / cm^3
# Si number density = 18.512165 Si / 1000 Ang^3
#
#
#
# Elastic Constant Matrix: (Units=GPa)
#
#
# Indices 1 2 3 4 5 6 
#
# 1 134.6671 33.8748 48.7021 0.0000 0.0000 0.0000
# 2 33.8748 76.2051 27.7727 0.0000 0.0000 0.0000
# 3 48.7021 27.7727 124.2093 0.0000 0.0000 0.0000
# 4 0.0000 0.0000 0.0000 11.7493 0.0000 0.0000
# 5 0.0000 0.0000 0.0000 0.0000 16.8866 0.0000
# 6 0.0000 0.0000 0.0000 0.0000 0.0000 10.8477
#
#
#
# Elastic Compliance Matrix: (Units=1/GPa)
#
#
# Indices 1 2 3 4 5 6 
#
# 1 0.009257 -0.003040 -0.002950 0.000000 0.000000 0.000000
# 2 -0.003040 0.015285 -0.002226 0.000000 0.000000 0.000000
# 3 -0.002950 -0.002226 0.009705 0.000000 0.000000 0.000000
# 4 0.000000 0.000000 0.000000 0.085112 0.000000 0.000000
# 5 0.000000 0.000000 0.000000 0.000000 0.059219 0.000000
# 6 0.000000 0.000000 0.000000 0.000000 0.000000 0.092186
#
#
# Mechanical properties :
#
#
# Convention : Reuss Voigt Hill
#
# Bulk Modulus (GPa) = 56.12878 61.75341 58.94110
# Shear Modulus (GPa) = 17.05707 22.87882 19.96795
#
# Velocity S-wave (km/s) = 3.03875 3.51932 3.28783
# Velocity P-wave (km/s) = 6.53435 7.06717 6.80598
#
# Compressibility (1/GPa) = 0.01781617
#
# Stress axis : x y z
#
# Youngs Moduli (GPa) = 108.02319 65.42383 103.03661
#
# Poissons Ratio (x) = 0.19888 0.30396
# Poissons Ratio (y) = 0.32838 0.22933
# Poissons Ratio (z) = 0.31867 0.14561
#
# Static dielectric constant tensor:
#      x y z
#    x 3.535170 0.000000 0.000000 
#    y 0.000000 3.282410 0.000000 
#    z 0.000000 0.000000 4.468980 
# 
# 
# High freq. dielectric constant tensor:
#      x y z
#    x 1.730810 0.000000 0.000000 
#    y 0.000000 1.656680 0.000000 
#    z 0.000000 0.000000 1.739950 
# 
# From -- ./inp_files/10161.got.cif
#   From: 2010.03.12/outbox.cif.g09.slc.cpg/sg64_6_cif.got.tgz:10161.got - 2010.04.10 20:19:32.
