data_PCOD8261916
_publ_section_title
;
Structure prediction by ZEFSAII (Michael W. Deem and Ramdas Pophale) SiO2 
 PCOD8261916
Probable space group: C M C A
;
_chemical_formula_sum "Si O2"
_cell_formula_units_Z 104
_cell_length_a 21.710656
_cell_length_b 17.549885
_cell_length_c 14.731868
_cell_angle_alpha 90.000000
_cell_angle_beta 90.000000
_cell_angle_gamma 90.000000
_cell_volume 5613.129216
_symmetry_space_group_name_H-M "C M C A"
_symmetry_group_IT_number 64
_symmetry_cell_setting 'orthorhombic'
loop_
_space_group_symop_operation_xyz
x,y,z
-x,1/2-y,1/2+z
x,-y,-z
-x,1/2+y,1/2-z
-x,-y,-z
x,1/2+y,1/2-z
-x,y,z
x,1/2-y,1/2+z
1/2+x,1/2+y,z
1/2-x,-y,1/2+z
1/2+x,1/2-y,-z
1/2-x,y,1/2-z
1/2-x,1/2-y,-z
1/2+x,y,1/2-z
1/2-x,1/2+y,z
1/2+x,-y,1/2+z
loop_
_atom_site_type_symbol
_atom_site_label
_atom_site_fract_x
_atom_site_fract_y
_atom_site_fract_z
Si Si1 0.329546 0.752691 0.899811
Si Si2 0.928184 0.940446 0.384888
Si Si3 0.858273 0.170671 0.726511
Si Si4 0.189068 0.206869 0.101628
Si Si5 0.364436 0.914908 0.925142
Si Si6 0.276169 0.040567 0.411242
Si Si7 0.750000 0.565822 0.750000
O O1 0.358743 0.688552 0.833965
O O2 0.257714 0.763382 0.878041
O O3 0.367558 0.830648 0.882666
O O4 0.336429 0.726281 0.002609
O O5 0.917322 0.879112 0.304283
O O6 0.894413 0.911853 0.475438
O O7 0.000000 0.948538 0.403080
O O8 0.900291 0.024357 0.361192
O O9 0.855010 0.251067 0.673532
O O10 0.800038 0.118199 0.699983
O O11 0.185314 0.116087 0.114302
O O12 0.293487 0.937625 0.935694
O O13 0.305179 0.000000 0.500000
O O14 0.282696 0.985602 0.325519
#
# Coordination Sequence:
#
# PCOD8261916 Si02
#       7
#    16  16  16  16  16  16   8
#     4  10  20  32  56  81 112 149 185 225 288 356
#     4  11  22  38  59  83 113 150 198 250 292 333
#     4  12  21  37  55  82 118 152 187 238 295 346
#     4  10  21  33  51  81 117 151 178 225 289 352
#     4  10  18  35  57  82 110 146 189 240 293 341
#     4  11  21  33  52  83 116 150 187 225 284 367
#     4  12  22  32  54  84 120 152 182 236 290 354
#
# _framework density 18.527989000000002
#
# number of rings (size 3 to 8) (size 9 to 14) (size 15 to 20)
#    0.000    1.231    6.154    1.846    6.462    0.000 
#    0.000    1.538    0.000    0.000    0.000    0.000 
#    0.000    3.692    0.000    0.000    0.000    0.000 
#
# Total GULP energy -644743.990208 kJ/mol
# GULP energy per Si atom -12398.922889 kJ/mol
# Density = 1.848582 g / cm^3
# Si number density = 18.527989 Si / 1000 Ang^3
#
#
#
# Elastic Constant Matrix: (Units=GPa)
#
#
# Indices 1 2 3 4 5 6 
#
# 1 49.0054 30.6206 11.0332 0.0000 0.0000 0.0000
# 2 30.6206 132.2117 47.0510 0.0000 0.0000 0.0000
# 3 11.0332 47.0510 91.9646 0.0000 0.0000 0.0000
# 4 0.0000 0.0000 0.0000 34.0307 0.0000 0.0000
# 5 0.0000 0.0000 0.0000 0.0000 12.8204 0.0000
# 6 0.0000 0.0000 0.0000 0.0000 0.0000 14.4312
#
#
#
# Elastic Compliance Matrix: (Units=1/GPa)
#
#
# Indices 1 2 3 4 5 6 
#
# 1 0.023859 -0.005510 -0.000043 0.000000 0.000000 0.000000
# 2 -0.005510 0.010520 -0.004721 0.000000 0.000000 0.000000
# 3 -0.000043 -0.004721 0.013294 0.000000 0.000000 0.000000
# 4 0.000000 0.000000 0.000000 0.029385 0.000000 0.000000
# 5 0.000000 0.000000 0.000000 0.000000 0.078001 0.000000
# 6 0.000000 0.000000 0.000000 0.000000 0.000000 0.069294
#
#
# Mechanical properties :
#
#
# Convention : Reuss Voigt Hill
#
# Bulk Modulus (GPa) = 36.86815 50.06570 43.46692
# Shear Modulus (GPa) = 19.68940 24.55493 22.12216
#
# Velocity S-wave (km/s) = 3.26342 3.64440 3.45916
# Velocity P-wave (km/s) = 5.84309 6.69247 6.28215
#
# Compressibility (1/GPa) = 0.02712369
#
# Stress axis : x y z
#
# Youngs Moduli (GPa) = 41.91337 95.05708 75.21979
#
# Poissons Ratio (x) = 0.52380 0.00325
# Poissons Ratio (y) = 0.23096 0.35512
# Poissons Ratio (z) = 0.00181 0.44878
#
# Static dielectric constant tensor:
#      x y z
#    x 2.919680 0.000000 0.000000 
#    y 0.000000 3.839440 0.000000 
#    z 0.000000 0.000000 3.302860 
# 
# 
# High freq. dielectric constant tensor:
#      x y z
#    x 1.651830 0.000000 0.000000 
#    y 0.000000 1.741160 0.000000 
#    z 0.000000 0.000000 1.714750 
# 
# From -- ./inp_files/26548.got.cif
#   From: 2010.03.12/outbox.cif.g09.slc.cpg/sg64_14_cif.got.tgz:26548.got - 2010.04.10 20:19:32.
