data_PCOD8261798
_publ_section_title
;
Structure prediction by ZEFSAII (Michael W. Deem and Ramdas Pophale) SiO2 
 PCOD8261798
Probable space group: C M C A
;
_chemical_formula_sum "Si O2"
_cell_formula_units_Z 88
_cell_length_a 9.983125
_cell_length_b 20.037489
_cell_length_c 23.891688
_cell_angle_alpha 90.000000
_cell_angle_beta 90.000000
_cell_angle_gamma 90.000000
_cell_volume 4779.215796
_symmetry_space_group_name_H-M "C M C A"
_symmetry_group_IT_number 64
_symmetry_cell_setting 'orthorhombic'
loop_
_space_group_symop_operation_xyz
x,y,z
-x,1/2-y,1/2+z
x,-y,-z
-x,1/2+y,1/2-z
-x,-y,-z
x,1/2+y,1/2-z
-x,y,z
x,1/2-y,1/2+z
1/2+x,1/2+y,z
1/2-x,-y,1/2+z
1/2+x,1/2-y,-z
1/2-x,y,1/2-z
1/2-x,1/2-y,-z
1/2+x,y,1/2-z
1/2-x,1/2+y,z
1/2+x,-y,1/2+z
loop_
_atom_site_type_symbol
_atom_site_label
_atom_site_fract_x
_atom_site_fract_y
_atom_site_fract_z
Si Si1 0.346148 0.190612 0.116161
Si Si2 0.650103 0.045741 0.884281
Si Si3 0.649319 0.639830 0.022662
Si Si4 0.847921 0.339274 0.395573
Si Si5 0.251878 0.000000 0.000000
Si Si6 0.654691 0.925483 0.802272
O O1 0.500000 0.178930 0.097615
O O2 0.256100 0.171183 0.063915
O O3 0.321232 0.267621 0.133116
O O4 0.311673 0.145860 0.169963
O O5 0.500000 0.070174 0.871132
O O6 0.750022 0.105928 0.868762
O O7 0.655865 0.025263 0.949295
O O8 0.688968 0.982378 0.847080
O O9 0.500000 0.659256 0.042683
O O10 0.657885 0.559652 0.021282
O O11 0.679012 0.669689 0.961518
O O12 0.000000 0.363620 0.385083
O O13 0.500000 0.928877 0.783035
O O14 0.750000 0.936345 0.750000
#
# Coordination Sequence:
#
# PCOD8261798 Si02
#       6
#    16  16  16  16   8  16
#     4  10  20  37  56  77 110 147 186 227 274 328
#     4  10  20  35  57  83 111 143 185 229 273 332
#     4  10  19  30  49  81 116 148 183 220 268 330
#     4   9  20  35  53  80 116 151 178 218 276 334
#     4  10  18  32  52  82 116 148 180 222 282 330
#     4  10  22  40  59  82 106 142 190 235 277 326
#
# _framework density 18.413062
#
# number of rings (size 3 to 8) (size 9 to 14) (size 15 to 20)
#    0.000    2.182    1.818    1.091    0.000    5.818 
#    0.000    0.909    0.000    4.364    0.000    0.000 
#    0.000    0.000    0.000    0.000    0.000    0.000 
#
# Total GULP energy -545649.472728 kJ/mol
# GULP energy per Si atom -12401.124380 kJ/mol
# Density = 1.837115 g / cm^3
# Si number density = 18.413062 Si / 1000 Ang^3
#
#
#
# Elastic Constant Matrix: (Units=GPa)
#
#
# Indices 1 2 3 4 5 6 
#
# 1 98.8529 58.9701 46.8082 0.0000 0.0000 0.0000
# 2 58.9701 122.6383 42.6573 0.0000 0.0000 0.0000
# 3 46.8082 42.6573 58.0696 0.0000 0.0000 0.0000
# 4 0.0000 0.0000 0.0000 19.6359 0.0000 0.0000
# 5 0.0000 0.0000 0.0000 0.0000 28.9143 0.0000
# 6 0.0000 0.0000 0.0000 0.0000 0.0000 25.0712
#
#
#
# Elastic Compliance Matrix: (Units=1/GPa)
#
#
# Indices 1 2 3 4 5 6 
#
# 1 0.018348 -0.004941 -0.011160 0.000000 0.000000 0.000000
# 2 -0.004941 0.012283 -0.005040 0.000000 0.000000 0.000000
# 3 -0.011160 -0.005040 0.029920 0.000000 0.000000 0.000000
# 4 0.000000 0.000000 0.000000 0.050927 0.000000 0.000000
# 5 0.000000 0.000000 0.000000 0.000000 0.034585 0.000000
# 6 0.000000 0.000000 0.000000 0.000000 0.000000 0.039886
#
#
# Mechanical properties :
#
#
# Convention : Reuss Voigt Hill
#
# Bulk Modulus (GPa) = 54.74229 64.04800 59.39515
# Shear Modulus (GPa) = 21.33825 23.46596 22.40210
#
# Velocity S-wave (km/s) = 3.40790 3.57377 3.49182
# Velocity P-wave (km/s) = 6.72902 7.20338 6.97024
#
# Compressibility (1/GPa) = 0.01826741
#
# Stress axis : x y z
#
# Youngs Moduli (GPa) = 54.50205 81.41376 33.42300
#
# Poissons Ratio (x) = 0.40223 0.37302
# Poissons Ratio (y) = 0.26927 0.16847
# Poissons Ratio (z) = 0.60827 0.41036
#
# Static dielectric constant tensor:
#      x y z
#    x 3.389560 0.000000 0.000000 
#    y 0.000000 3.561050 0.000000 
#    z 0.000000 0.000000 3.070090 
# 
# 
# High freq. dielectric constant tensor:
#      x y z
#    x 1.718840 0.000000 0.000000 
#    y 0.000000 1.724240 0.000000 
#    z 0.000000 0.000000 1.679390 
# 
# From -- ./inp_files/42820.got.cif
#   From: 2010.03.12/outbox.cif.g09.slc.cpg/sg64_22_cif.got.tgz:42820.got - 2010.04.10 20:19:32.
