data_PCOD8261864
_publ_section_title
;
Structure prediction by ZEFSAII (Michael W. Deem and Ramdas Pophale) SiO2 
 PCOD8261864
Probable space group: C M C A
;
_chemical_formula_sum "Si O2"
_cell_formula_units_Z 64
_cell_length_a 8.874700
_cell_length_b 15.169143
_cell_length_c 27.136550
_cell_angle_alpha 90.000000
_cell_angle_beta 90.000000
_cell_angle_gamma 90.000000
_cell_volume 3653.165600
_symmetry_space_group_name_H-M "C M C A"
_symmetry_group_IT_number 64
_symmetry_cell_setting 'orthorhombic'
loop_
_space_group_symop_operation_xyz
x,y,z
-x,1/2-y,1/2+z
x,-y,-z
-x,1/2+y,1/2-z
-x,-y,-z
x,1/2+y,1/2-z
-x,y,z
x,1/2-y,1/2+z
1/2+x,1/2+y,z
1/2-x,-y,1/2+z
1/2+x,1/2-y,-z
1/2-x,y,1/2-z
1/2-x,1/2-y,-z
1/2+x,y,1/2-z
1/2-x,1/2+y,z
1/2+x,-y,1/2+z
loop_
_atom_site_type_symbol
_atom_site_label
_atom_site_fract_x
_atom_site_fract_y
_atom_site_fract_z
Si Si1 0.329659 0.366624 0.376402
Si Si2 0.321001 0.977871 0.945540
Si Si3 0.677948 0.754330 0.303018
Si Si4 0.329718 0.825039 0.610131
O O1 0.500000 0.388433 0.359263
O O2 0.262044 0.446396 0.408343
O O3 0.228391 0.348240 0.327591
O O4 0.329536 0.276569 0.409412
O O5 0.500000 0.972471 0.944875
O O6 0.253813 0.884573 0.929741
O O7 0.261349 0.000000 0.000000
O O8 0.500000 0.748728 0.298965
O O9 0.750000 0.744244 0.250000
O O10 0.741178 0.674225 0.337272
O O11 0.500000 0.859183 0.618182
#
# Coordination Sequence:
#
# PCOD8261864 Si02
#       4
#    16  16  16  16
#     4   8  18  35  52  76 110 140 172 217 262 310
#     4  10  20  35  55  79 108 142 179 220 266 313
#     4  10  18  33  57  80 104 138 174 214 266 315
#     4   9  19  35  53  77 108 140 176 219 261 311
#
# _framework density 17.519053
#
# number of rings (size 3 to 8) (size 9 to 14) (size 15 to 20)
#    1.500    1.250    0.000    2.250    0.000    2.500 
#    0.000    1.250    0.000    6.000    0.000    0.000 
#    0.000    0.000    0.000    0.000    0.000    0.000 
#
# Total GULP energy -396438.371398 kJ/mol
# GULP energy per Si atom -12388.699106 kJ/mol
# Density = 1.747918 g / cm^3
# Si number density = 17.519053 Si / 1000 Ang^3
#
#
#
# Elastic Constant Matrix: (Units=GPa)
#
#
# Indices 1 2 3 4 5 6 
#
# 1 76.1516 10.5530 32.4271 0.0000 0.0000 0.0000
# 2 10.5530 38.6045 0.2909 0.0000 0.0000 0.0000
# 3 32.4271 0.2909 66.4400 0.0000 0.0000 0.0000
# 4 0.0000 0.0000 0.0000 32.1043 0.0000 0.0000
# 5 0.0000 0.0000 0.0000 0.0000 21.7816 0.0000
# 6 0.0000 0.0000 0.0000 0.0000 0.0000 22.5037
#
#
#
# Elastic Compliance Matrix: (Units=1/GPa)
#
#
# Indices 1 2 3 4 5 6 
#
# 1 0.017386 -0.004689 -0.008465 0.000000 0.000000 0.000000
# 2 -0.004689 0.027169 0.002170 0.000000 0.000000 0.000000
# 3 -0.008465 0.002170 0.019173 0.000000 0.000000 0.000000
# 4 0.000000 0.000000 0.000000 0.031148 0.000000 0.000000
# 5 0.000000 0.000000 0.000000 0.000000 0.045910 0.000000
# 6 0.000000 0.000000 0.000000 0.000000 0.000000 0.044437
#
#
# Mechanical properties :
#
#
# Convention : Reuss Voigt Hill
#
# Bulk Modulus (GPa) = 23.94659 29.74869 26.84764
# Shear Modulus (GPa) = 22.61289 24.47295 23.54292
#
# Velocity S-wave (km/s) = 3.59661 3.74161 3.66983
# Velocity P-wave (km/s) = 5.56292 5.97359 5.77191
#
# Compressibility (1/GPa) = 0.04175959
#
# Stress axis : x y z
#
# Youngs Moduli (GPa) = 57.51723 36.80647 52.15623
#
# Poissons Ratio (x) = 0.17258 0.44150
# Poissons Ratio (y) = 0.26969 -0.11316
# Poissons Ratio (z) = 0.48689 -0.07985
#
# Static dielectric constant tensor:
#      x y z
#    x 3.190510 0.000000 0.000000 
#    y 0.000000 3.090500 0.000000 
#    z 0.000000 0.000000 3.121580 
# 
# 
# High freq. dielectric constant tensor:
#      x y z
#    x 1.680760 0.000000 0.000000 
#    y 0.000000 1.657910 0.000000 
#    z 0.000000 0.000000 1.661250 
# 
# From -- ./inp_files/51622.got.cif
#   From: 2010.03.12/outbox.cif.g09.slc.cpg/sg64_26_cif.got.tgz:51622.got - 2010.04.10 20:19:32.
