data_PCOD8261417
_publ_section_title
;
Structure prediction by ZEFSAII (Michael W. Deem and Ramdas Pophale) SiO2 
 PCOD8261417
Probable space group: C M C A
;
_chemical_formula_sum "Si O2"
_cell_formula_units_Z 80
_cell_length_a 20.256994
_cell_length_b 9.626959
_cell_length_c 26.231886
_cell_angle_alpha 90.000000
_cell_angle_beta 90.000000
_cell_angle_gamma 90.000000
_cell_volume 5115.565361
_symmetry_space_group_name_H-M "C M C A"
_symmetry_group_IT_number 64
_symmetry_cell_setting 'orthorhombic'
loop_
_space_group_symop_operation_xyz
x,y,z
-x,1/2-y,1/2+z
x,-y,-z
-x,1/2+y,1/2-z
-x,-y,-z
x,1/2+y,1/2-z
-x,y,z
x,1/2-y,1/2+z
1/2+x,1/2+y,z
1/2-x,-y,1/2+z
1/2+x,1/2-y,-z
1/2-x,y,1/2-z
1/2-x,1/2-y,-z
1/2+x,y,1/2-z
1/2-x,1/2+y,z
1/2+x,-y,1/2+z
loop_
_atom_site_type_symbol
_atom_site_label
_atom_site_fract_x
_atom_site_fract_y
_atom_site_fract_z
Si Si1 0.425166 0.248198 0.788147
Si Si2 0.925112 0.064586 0.807088
Si Si3 0.687073 0.783754 0.135808
Si Si4 0.269957 0.376732 0.465193
Si Si5 0.196260 0.036702 0.872986
O O1 0.500000 0.209000 0.803168
O O2 0.416160 0.413087 0.781873
O O3 0.379062 0.186954 0.832642
O O4 0.405749 0.178832 0.734730
O O5 0.000000 0.085557 0.826694
O O6 0.876785 0.082774 0.855358
O O7 0.675053 0.828437 0.076413
O O8 0.747989 0.875413 0.158072
O O9 0.708703 0.624036 0.138792
O O10 0.299042 0.500000 0.500000
O O11 0.250000 0.250000 0.500000
O O12 0.205266 0.431215 0.433522
#
# Coordination Sequence:
#
# PCOD8261417 Si02
#       5
#    16  16  16  16  16
#     4   9  18  33  50  68  95 128 156 186 229 277
#     4   9  18  33  50  68  96 128 155 187 229 277
#     4   9  18  30  48  73  92 122 155 193 231 272
#     4  10  16  30  49  68  92 121 152 192 237 277
#     4   9  18  30  48  73  93 121 155 195 228 275
#
# _framework density 15.638545000000001
#
# number of rings (size 3 to 8) (size 9 to 14) (size 15 to 20)
#    1.200    1.600    2.000    0.000    0.000    2.400 
#    0.000    4.000    0.000    2.400    0.000    0.000 
#    0.000    0.000    0.000    0.000    0.000    0.000 
#
# Total GULP energy -495597.184923 kJ/mol
# GULP energy per Si atom -12389.929623 kJ/mol
# Density = 1.560295 g / cm^3
# Si number density = 15.638545 Si / 1000 Ang^3
#
#
#
# Elastic Constant Matrix: (Units=GPa)
#
#
# Indices 1 2 3 4 5 6 
#
# 1 78.0937 36.4454 42.4334 0.0000 0.0000 0.0000
# 2 36.4454 73.3826 27.4082 0.0000 0.0000 0.0000
# 3 42.4334 27.4082 65.7063 0.0000 0.0000 0.0000
# 4 0.0000 0.0000 0.0000 29.7784 0.0000 0.0000
# 5 0.0000 0.0000 0.0000 0.0000 17.7439 0.0000
# 6 0.0000 0.0000 0.0000 0.0000 0.0000 21.6245
#
#
#
# Elastic Compliance Matrix: (Units=1/GPa)
#
#
# Indices 1 2 3 4 5 6 
#
# 1 0.022213 -0.006721 -0.011542 0.000000 0.000000 0.000000
# 2 -0.006721 0.018176 -0.003241 0.000000 0.000000 0.000000
# 3 -0.011542 -0.003241 0.024025 0.000000 0.000000 0.000000
# 4 0.000000 0.000000 0.000000 0.033581 0.000000 0.000000
# 5 0.000000 0.000000 0.000000 0.000000 0.056357 0.000000
# 6 0.000000 0.000000 0.000000 0.000000 0.000000 0.046244
#
#
# Mechanical properties :
#
#
# Convention : Reuss Voigt Hill
#
# Bulk Modulus (GPa) = 46.71645 47.75074 47.23359
# Shear Modulus (GPa) = 19.94095 21.22240 20.58167
#
# Velocity S-wave (km/s) = 3.57475 3.68782 3.63173
# Velocity P-wave (km/s) = 6.85390 6.98095 6.91772
#
# Compressibility (1/GPa) = 0.02140574
#
# Stress axis : x y z
#
# Youngs Moduli (GPa) = 45.01805 55.01786 41.62352
#
# Poissons Ratio (x) = 0.36980 0.48041
# Poissons Ratio (y) = 0.30259 0.13490
# Poissons Ratio (z) = 0.51959 0.17831
#
# Static dielectric constant tensor:
#      x y z
#    x 2.875400 0.000000 0.000000 
#    y 0.000000 3.256710 0.000000 
#    z 0.000000 0.000000 3.060310 
# 
# 
# High freq. dielectric constant tensor:
#      x y z
#    x 1.576680 0.000000 0.000000 
#    y 0.000000 1.615060 0.000000 
#    z 0.000000 0.000000 1.585830 
# 
# From -- ./inp_files/53533.got.cif
#   From: 2010.03.12/outbox.cif.g09.slc.cpg/sg64_27_cif.got.tgz:53533.got - 2010.04.10 20:19:32.
