data_PCOD8261122
_publ_section_title
;
Structure prediction by ZEFSAII (Michael W. Deem and Ramdas Pophale) SiO2 
 PCOD8261122
Probable space group: C M C M
;
_chemical_formula_sum "Si O2"
_cell_formula_units_Z 48
_cell_length_a 10.270754
_cell_length_b 28.150417
_cell_length_c 8.351111
_cell_angle_alpha 90.000000
_cell_angle_beta 90.000000
_cell_angle_gamma 90.000000
_cell_volume 2414.523386
_symmetry_space_group_name_H-M "C M C M"
_symmetry_group_IT_number 63
_symmetry_cell_setting 'orthorhombic'
loop_
_space_group_symop_operation_xyz
x,y,z
-x,-y,1/2+z
x,-y,-z
-x,y,1/2-z
-x,-y,-z
x,y,1/2-z
-x,y,z
x,-y,1/2+z
1/2+x,1/2+y,z
1/2-x,1/2-y,1/2+z
1/2+x,1/2-y,-z
1/2-x,1/2+y,1/2-z
1/2-x,1/2-y,-z
1/2+x,1/2+y,1/2-z
1/2-x,1/2+y,z
1/2+x,1/2-y,1/2+z
loop_
_atom_site_type_symbol
_atom_site_label
_atom_site_fract_x
_atom_site_fract_y
_atom_site_fract_z
Si Si1 0.000000 0.699082 0.932957
Si Si2 0.000000 0.800933 0.436039
Si Si3 0.747323 0.148311 0.438002
Si Si4 0.353904 0.450804 0.561145
O O1 0.000000 0.716620 0.750000
O O2 0.000000 0.744138 0.049639
O O3 0.126429 0.667459 0.963007
O O4 0.873949 0.820863 0.524503
O O5 0.000000 0.815210 0.250000
O O6 0.717218 0.151339 0.250000
O O7 0.769081 0.094031 0.495839
O O8 0.289585 0.500000 0.500000
O O9 0.361009 0.451249 0.750000
O O10 0.500000 0.445798 0.489309
#
# Coordination Sequence:
#
# PCOD8261122 Si02
#       4
#     8   8  16  16
#     4  12  26  42  59  86 121 158 199 246 298 354
#     4  12  24  40  63  90 117 156 201 246 294 348
#     4  11  22  41  63  88 121 158 198 244 296 349
#     4   9  18  34  58  88 118 150 190 240 291 343
#
# _framework density 19.8797
#
# number of rings (size 3 to 8) (size 9 to 14) (size 15 to 20)
#    0.000    1.333    1.667    5.000    0.000    2.667 
#    0.000    0.833    0.000    0.000    0.000    0.000 
#    0.000    0.000    0.000    0.000    0.000    0.000 
#
# Total GULP energy -297690.276581 kJ/mol
# GULP energy per Si atom -12403.761524 kJ/mol
# Density = 1.983445 g / cm^3
# Si number density = 19.879700 Si / 1000 Ang^3
#
#
#
# Elastic Constant Matrix: (Units=GPa)
#
#
# Indices 1 2 3 4 5 6 
#
# 1 113.2729 47.4762 6.7249 0.0000 0.0000 0.0000
# 2 47.4762 155.2058 11.0661 0.0000 0.0000 0.0000
# 3 6.7249 11.0661 50.2048 0.0000 0.0000 0.0000
# 4 0.0000 0.0000 0.0000 35.4623 0.0000 0.0000
# 5 0.0000 0.0000 0.0000 0.0000 27.4098 0.0000
# 6 0.0000 0.0000 0.0000 0.0000 0.0000 326.0616
#
#
#
# Elastic Compliance Matrix: (Units=1/GPa)
#
#
# Indices 1 2 3 4 5 6 
#
# 1 0.010150 -0.003056 -0.000686 0.000000 0.000000 0.000000
# 2 -0.003056 0.007466 -0.001236 0.000000 0.000000 0.000000
# 3 -0.000686 -0.001236 0.020283 0.000000 0.000000 0.000000
# 4 0.000000 0.000000 0.000000 0.028199 0.000000 0.000000
# 5 0.000000 0.000000 0.000000 0.000000 0.036483 0.000000
# 6 0.000000 0.000000 0.000000 0.000000 0.000000 0.003067
#
#
# Mechanical properties :
#
#
# Convention : Reuss Voigt Hill
#
# Bulk Modulus (GPa) = 35.78807 49.91311 42.85059
# Shear Modulus (GPa) = 40.02624 94.68115 67.35369
#
# Velocity S-wave (km/s) = 4.49199 6.90872 5.82702
# Velocity P-wave (km/s) = 6.70413 9.42352 8.17765
#
# Compressibility (1/GPa) = 0.02794228
#
# Stress axis : x y z
#
# Youngs Moduli (GPa) = 98.52461 133.94130 49.30279
#
# Poissons Ratio (x) = 0.40930 0.03382
# Poissons Ratio (y) = 0.30107 0.06095
# Poissons Ratio (z) = 0.06759 0.16559
#
# Static dielectric constant tensor:
#      x y z
#    x 3.377150 0.000000 0.000000 
#    y 0.000000 3.998920 0.000000 
#    z 0.000000 0.000000 3.506100 
# 
# 
# High freq. dielectric constant tensor:
#      x y z
#    x 1.757670 0.000000 0.000000 
#    y 0.000000 1.792620 0.000000 
#    z 0.000000 0.000000 1.776830 
# 
# From -- ./inp_files/2000.got.cif
#   From: 2010.03.12/outbox.cif.g09.slc.cpg/sg63_1_cif.got.tgz:2000.got - 2010.04.10 19:34:48.
