data_PCOD8261595
_publ_section_title
;
Structure prediction by ZEFSAII (Michael W. Deem and Ramdas Pophale) SiO2 
 PCOD8261595
Probable space group: C M C A
;
_chemical_formula_sum "Si O2"
_cell_formula_units_Z 80
_cell_length_a 9.352634
_cell_length_b 25.446014
_cell_length_c 20.055018
_cell_angle_alpha 90.000000
_cell_angle_beta 90.000000
_cell_angle_gamma 90.000000
_cell_volume 4772.838697
_symmetry_space_group_name_H-M "C M C A"
_symmetry_group_IT_number 64
_symmetry_cell_setting 'orthorhombic'
loop_
_space_group_symop_operation_xyz
x,y,z
-x,1/2-y,1/2+z
x,-y,-z
-x,1/2+y,1/2-z
-x,-y,-z
x,1/2+y,1/2-z
-x,y,z
x,1/2-y,1/2+z
1/2+x,1/2+y,z
1/2-x,-y,1/2+z
1/2+x,1/2-y,-z
1/2-x,y,1/2-z
1/2-x,1/2-y,-z
1/2+x,y,1/2-z
1/2-x,1/2+y,z
1/2+x,-y,1/2+z
loop_
_atom_site_type_symbol
_atom_site_label
_atom_site_fract_x
_atom_site_fract_y
_atom_site_fract_z
Si Si1 0.661954 0.739050 0.564500
Si Si2 0.166200 0.649537 0.407389
Si Si3 0.833609 0.526306 0.569777
Si Si4 0.667948 0.626578 0.542998
Si Si5 0.165834 0.556340 0.316623
O O1 0.500000 0.740539 0.540271
O O2 0.750000 0.750000 0.500000
O O3 0.689929 0.788711 0.614210
O O4 0.695333 0.679396 0.588869
O O5 0.262128 0.633885 0.470406
O O6 0.210032 0.613723 0.344700
O O7 0.000000 0.638282 0.426185
O O8 0.789792 0.500000 0.500000
O O9 0.741860 0.578787 0.581570
O O10 0.793065 0.486780 0.628545
O O11 0.000000 0.541265 0.570106
O O12 0.500000 0.615120 0.534187
O O13 0.250000 0.543646 0.250000
O O14 0.000000 0.554175 0.298958
#
# Coordination Sequence:
#
# PCOD8261595 Si02
#       5
#    16  16  16  16  16
#     4   8  15  26  43  68  97 125 155 190 236 287
#     4   9  16  31  50  67  95 134 164 192 240 302
#     4  10  19  34  52  70  96 133 172 201 241 305
#     4  10  18  27  45  77 104 124 157 208 252 279
#     4  10  21  35  52  72  96 129 167 206 249 297
#
# _framework density 16.761513000000001
#
# number of rings (size 3 to 8) (size 9 to 14) (size 15 to 20)
#    0.000    2.600    2.000    0.600    0.000    2.800 
#    0.000    0.000    0.000    1.200    0.000    5.600 
#    0.000    0.000    0.000    0.000    0.000    0.000 
#
# Total GULP energy -495536.595861 kJ/mol
# GULP energy per Si atom -12388.414897 kJ/mol
# Density = 1.672336 g / cm^3
# Si number density = 16.761513 Si / 1000 Ang^3
#
#
#
# Elastic Constant Matrix: (Units=GPa)
#
#
# Indices 1 2 3 4 5 6 
#
# 1 59.0110 60.7467 34.9887 0.0000 0.0000 0.0000
# 2 60.7467 163.1087 59.4326 0.0000 0.0000 0.0000
# 3 34.9887 59.4326 86.2534 0.0000 0.0000 0.0000
# 4 0.0000 0.0000 0.0000 17.0807 0.0000 0.0000
# 5 0.0000 0.0000 0.0000 0.0000 22.2863 0.0000
# 6 0.0000 0.0000 0.0000 0.0000 0.0000 28.4186
#
#
#
# Elastic Compliance Matrix: (Units=1/GPa)
#
#
# Indices 1 2 3 4 5 6 
#
# 1 0.029560 -0.008866 -0.005882 0.000000 0.000000 0.000000
# 2 -0.008866 0.010845 -0.003876 0.000000 0.000000 0.000000
# 3 -0.005882 -0.003876 0.016651 0.000000 0.000000 0.000000
# 4 0.000000 0.000000 0.000000 0.058546 0.000000 0.000000
# 5 0.000000 0.000000 0.000000 0.000000 0.044871 0.000000
# 6 0.000000 0.000000 0.000000 0.000000 0.000000 0.035188
#
#
# Mechanical properties :
#
#
# Convention : Reuss Voigt Hill
#
# Bulk Modulus (GPa) = 50.48590 68.74547 59.61568
# Shear Modulus (GPa) = 20.87576 23.77080 22.32328
#
# Velocity S-wave (km/s) = 3.53293 3.76996 3.65337
# Velocity P-wave (km/s) = 6.84308 7.74939 7.31029
#
# Compressibility (1/GPa) = 0.01980751
#
# Stress axis : x y z
#
# Youngs Moduli (GPa) = 33.82919 92.20595 60.05683
#
# Poissons Ratio (x) = 0.81749 0.35326
# Poissons Ratio (y) = 0.29992 0.23281
# Poissons Ratio (z) = 0.19899 0.35743
#
# Static dielectric constant tensor:
#      x y z
#    x 3.114400 0.000000 0.000000 
#    y 0.000000 3.950410 0.000000 
#    z 0.000000 0.000000 2.617070 
# 
# 
# High freq. dielectric constant tensor:
#      x y z
#    x 1.650600 0.000000 0.000000 
#    y 0.000000 1.673920 0.000000 
#    z 0.000000 0.000000 1.585120 
# 
# From -- ./inp_files/29741.got.cif
#   From: 2010.03.12/outbox.cif.g09.slc.cpg/sg64_15_cif.got.tgz:29741.got - 2010.04.10 20:19:32.
