data_PCOD8261684
_publ_section_title
;
Structure prediction by ZEFSAII (Michael W. Deem and Ramdas Pophale) SiO2 
 PCOD8261684
Probable space group: C M C A
;
_chemical_formula_sum "Si O2"
_cell_formula_units_Z 96
_cell_length_a 9.113488
_cell_length_b 19.314748
_cell_length_c 30.726112
_cell_angle_alpha 90.000000
_cell_angle_beta 90.000000
_cell_angle_gamma 90.000000
_cell_volume 5408.555388
_symmetry_space_group_name_H-M "C M C A"
_symmetry_group_IT_number 64
_symmetry_cell_setting 'orthorhombic'
loop_
_space_group_symop_operation_xyz
x,y,z
-x,1/2-y,1/2+z
x,-y,-z
-x,1/2+y,1/2-z
-x,-y,-z
x,1/2+y,1/2-z
-x,y,z
x,1/2-y,1/2+z
1/2+x,1/2+y,z
1/2-x,-y,1/2+z
1/2+x,1/2-y,-z
1/2-x,y,1/2-z
1/2-x,1/2-y,-z
1/2+x,y,1/2-z
1/2-x,1/2+y,z
1/2+x,-y,1/2+z
loop_
_atom_site_type_symbol
_atom_site_label
_atom_site_fract_x
_atom_site_fract_y
_atom_site_fract_z
Si Si1 0.671102 0.242637 0.137501
Si Si2 0.171321 0.888909 0.107643
Si Si3 0.829101 0.852617 0.795619
Si Si4 0.173608 0.577847 0.511767
Si Si5 0.169611 0.128635 0.432008
Si Si6 0.831446 0.036223 0.134425
O O1 0.500000 0.241979 0.150820
O O2 0.736267 0.319580 0.129509
O O3 0.762723 0.210364 0.176886
O O4 0.696738 0.200581 0.092956
O O5 0.235430 0.903294 0.059550
O O6 0.000000 0.875786 0.102167
O O7 0.203983 0.954499 0.139088
O O8 0.750000 0.858307 0.750000
O O9 0.801295 0.925577 0.820042
O O10 0.000000 0.838127 0.788416
O O11 0.222103 0.500000 0.500000
O O12 0.246407 0.631242 0.477869
O O13 0.000000 0.586190 0.508909
O O14 0.229769 0.065710 0.403261
O O15 0.000000 0.115010 0.440892
O O16 0.000000 0.046911 0.119405
#
# Coordination Sequence:
#
# PCOD8261684 Si02
#       6
#    16  16  16  16  16  16
#     4   9  19  35  53  74 104 138 169 206 256 305
#     4   9  17  32  53  74  99 135 175 211 249 293
#     4  10  20  35  58  81 101 127 163 204 249 305
#     4  10  18  30  50  72  97 137 184 217 246 293
#     4  10  19  30  46  72 104 136 170 213 257 291
#     4   9  17  33  55  75  96 130 172 206 243 298
#
# _framework density 17.749656000000002
#
# number of rings (size 3 to 8) (size 9 to 14) (size 15 to 20)
#    0.000    2.500    1.667    1.000    0.000    2.333 
#    0.000    2.500    0.000    2.000    0.000    0.000 
#    0.000    0.000    0.000    0.000    0.000    0.000 
#
# Total GULP energy -595154.425774 kJ/mol
# GULP energy per Si atom -12399.050537 kJ/mol
# Density = 1.770926 g / cm^3
# Si number density = 17.749656 Si / 1000 Ang^3
#
#
#
# Elastic Constant Matrix: (Units=GPa)
#
#
# Indices 1 2 3 4 5 6 
#
# 1 58.1615 41.4840 50.1310 0.0000 0.0000 0.0000
# 2 41.4840 143.2508 67.8544 0.0000 0.0000 0.0000
# 3 50.1310 67.8544 129.3910 0.0000 0.0000 0.0000
# 4 0.0000 0.0000 0.0000 19.3420 0.0000 0.0000
# 5 0.0000 0.0000 0.0000 0.0000 30.0350 0.0000
# 6 0.0000 0.0000 0.0000 0.0000 0.0000 18.2682
#
#
#
# Elastic Compliance Matrix: (Units=1/GPa)
#
#
# Indices 1 2 3 4 5 6 
#
# 1 0.027327 -0.003856 -0.008565 0.000000 0.000000 0.000000
# 2 -0.003856 0.009832 -0.003662 0.000000 0.000000 0.000000
# 3 -0.008565 -0.003662 0.012967 0.000000 0.000000 0.000000
# 4 0.000000 0.000000 0.000000 0.051701 0.000000 0.000000
# 5 0.000000 0.000000 0.000000 0.000000 0.033294 0.000000
# 6 0.000000 0.000000 0.000000 0.000000 0.000000 0.054740
#
#
# Mechanical properties :
#
#
# Convention : Reuss Voigt Hill
#
# Bulk Modulus (GPa) = 55.68187 72.19358 63.93773
# Shear Modulus (GPa) = 21.92846 24.95132 23.43989
#
# Velocity S-wave (km/s) = 3.51868 3.75338 3.63792
# Velocity P-wave (km/s) = 6.92437 7.71656 7.33118
#
# Compressibility (1/GPa) = 0.01795917
#
# Stress axis : x y z
#
# Youngs Moduli (GPa) = 36.59451 101.70713 77.11720
#
# Poissons Ratio (x) = 0.39223 0.66050
# Poissons Ratio (y) = 0.14113 0.28240
# Poissons Ratio (z) = 0.31343 0.37245
#
# Static dielectric constant tensor:
#      x y z
#    x 3.185090 0.000000 0.000000 
#    y 0.000000 3.440060 0.000000 
#    z 0.000000 0.000000 3.224370 
# 
# 
# High freq. dielectric constant tensor:
#      x y z
#    x 1.671780 0.000000 0.000000 
#    y 0.000000 1.685260 0.000000 
#    z 0.000000 0.000000 1.676580 
# 
# From -- ./inp_files/48028.got.cif
#   From: 2010.03.12/outbox.cif.g09.slc.cpg/sg64_25_cif.got.tgz:48028.got - 2010.04.10 20:19:32.
