data_PCOD8261742
_publ_section_title
;
Structure prediction by ZEFSAII (Michael W. Deem and Ramdas Pophale) SiO2 
 PCOD8261742
Probable space group: C M C A
;
_chemical_formula_sum "Si O2"
_cell_formula_units_Z 96
_cell_length_a 18.618397
_cell_length_b 9.976333
_cell_length_c 26.683540
_cell_angle_alpha 90.000000
_cell_angle_beta 90.000000
_cell_angle_gamma 90.000000
_cell_volume 4956.289533
_symmetry_space_group_name_H-M "C M C A"
_symmetry_group_IT_number 64
_symmetry_cell_setting 'orthorhombic'
loop_
_space_group_symop_operation_xyz
x,y,z
-x,1/2-y,1/2+z
x,-y,-z
-x,1/2+y,1/2-z
-x,-y,-z
x,1/2+y,1/2-z
-x,y,z
x,1/2-y,1/2+z
1/2+x,1/2+y,z
1/2-x,-y,1/2+z
1/2+x,1/2-y,-z
1/2-x,y,1/2-z
1/2-x,1/2-y,-z
1/2+x,y,1/2-z
1/2-x,1/2+y,z
1/2+x,-y,1/2+z
loop_
_atom_site_type_symbol
_atom_site_label
_atom_site_fract_x
_atom_site_fract_y
_atom_site_fract_z
Si Si1 0.845909 0.356705 0.636067
Si Si2 0.336726 0.400355 0.309380
Si Si3 0.166462 0.896059 0.197704
Si Si4 0.676231 0.843065 0.870779
Si Si5 0.181031 0.342648 0.985931
Si Si6 0.584633 0.628356 0.032033
O O1 0.871813 0.214215 0.656582
O O2 0.862467 0.462543 0.679153
O O3 0.761709 0.350700 0.625191
O O4 0.889976 0.401341 0.587978
O O5 0.252024 0.387563 0.302071
O O6 0.368031 0.384928 0.253132
O O7 0.356459 0.534686 0.338987
O O8 0.142189 0.782466 0.158596
O O9 0.653763 0.838058 0.928638
O O10 0.193630 0.500000 0.000000
O O11 0.250000 0.250000 0.000000
O O12 0.116442 0.272337 0.015716
O O13 0.500000 0.641689 0.029036
O O14 0.611927 0.500000 0.000000
#
# Coordination Sequence:
#
# PCOD8261742 Si02
#       6
#    16  16  16  16  16  16
#     4  10  18  31  52  73 107 144 183 227 279 336
#     4   9  17  29  46  78 110 142 175 224 283 335
#     4   9  17  28  48  76 112 141 175 226 278 340
#     4  10  19  29  51  79 111 143 182 224 284 338
#     4  12  24  37  60  87 118 152 191 243 285 343
#     4  11  24  41  59  81 113 154 199 241 287 344
#
# _framework density 19.369327999999999
#
# number of rings (size 3 to 8) (size 9 to 14) (size 15 to 20)
#    0.000    1.833    1.667    3.500    4.667    4.333 
#    0.000    0.000    0.000    1.000    0.000    2.333 
#    0.000    0.000    0.000    0.000    0.000    0.000 
#
# Total GULP energy -594799.931496 kJ/mol
# GULP energy per Si atom -12391.665239 kJ/mol
# Density = 1.932524 g / cm^3
# Si number density = 19.369328 Si / 1000 Ang^3
#
#
#
# Elastic Constant Matrix: (Units=GPa)
#
#
# Indices 1 2 3 4 5 6 
#
# 1 38.4221 21.0110 12.7196 0.0000 0.0000 0.0000
# 2 21.0110 103.5859 12.6045 0.0000 0.0000 0.0000
# 3 12.7196 12.6045 120.4248 0.0000 0.0000 0.0000
# 4 0.0000 0.0000 0.0000 31.3518 0.0000 0.0000
# 5 0.0000 0.0000 0.0000 0.0000 9.5532 0.0000
# 6 0.0000 0.0000 0.0000 0.0000 0.0000 14.3134
#
#
#
# Elastic Compliance Matrix: (Units=1/GPa)
#
#
# Indices 1 2 3 4 5 6 
#
# 1 0.030038 -0.005780 -0.002568 0.000000 0.000000 0.000000
# 2 -0.005780 0.010891 -0.000529 0.000000 0.000000 0.000000
# 3 -0.002568 -0.000529 0.008631 0.000000 0.000000 0.000000
# 4 0.000000 0.000000 0.000000 0.031896 0.000000 0.000000
# 5 0.000000 0.000000 0.000000 0.000000 0.104677 0.000000
# 6 0.000000 0.000000 0.000000 0.000000 0.000000 0.069864
#
#
# Mechanical properties :
#
#
# Convention : Reuss Voigt Hill
#
# Bulk Modulus (GPa) = 31.44231 39.45590 35.44910
# Shear Modulus (GPa) = 17.58379 25.45020 21.51700
#
# Velocity S-wave (km/s) = 3.01627 3.62877 3.33660
# Velocity P-wave (km/s) = 5.32905 6.16213 5.76067
#
# Compressibility (1/GPa) = 0.03180428
#
# Stress axis : x y z
#
# Youngs Moduli (GPa) = 33.29152 91.82152 115.86755
#
# Poissons Ratio (x) = 0.53076 0.29751
# Poissons Ratio (y) = 0.19244 0.06134
# Poissons Ratio (z) = 0.08548 0.04861
#
# Static dielectric constant tensor:
#      x y z
#    x 2.977310 0.000000 0.000000 
#    y 0.000000 3.856140 0.000000 
#    z 0.000000 0.000000 3.832300 
# 
# 
# High freq. dielectric constant tensor:
#      x y z
#    x 1.680160 0.000000 0.000000 
#    y 0.000000 1.772270 0.000000 
#    z 0.000000 0.000000 1.778590 
# 
# From -- ./inp_files/50688.got.cif
#   From: 2010.03.12/outbox.cif.g09.slc.cpg/sg64_26_cif.got.tgz:50688.got - 2010.04.10 20:19:32.
