data_PCOD8261525
_publ_section_title
;
Structure prediction by ZEFSAII (Michael W. Deem and Ramdas Pophale) SiO2 
 PCOD8261525
Probable space group: C M C A
;
_chemical_formula_sum "Si O2"
_cell_formula_units_Z 112
_cell_length_a 22.887243
_cell_length_b 13.874133
_cell_length_c 20.783645
_cell_angle_alpha 90.000000
_cell_angle_beta 90.000000
_cell_angle_gamma 90.000000
_cell_volume 6599.652213
_symmetry_space_group_name_H-M "C M C A"
_symmetry_group_IT_number 64
_symmetry_cell_setting 'orthorhombic'
loop_
_space_group_symop_operation_xyz
x,y,z
-x,1/2-y,1/2+z
x,-y,-z
-x,1/2+y,1/2-z
-x,-y,-z
x,1/2+y,1/2-z
-x,y,z
x,1/2-y,1/2+z
1/2+x,1/2+y,z
1/2-x,-y,1/2+z
1/2+x,1/2-y,-z
1/2-x,y,1/2-z
1/2-x,1/2-y,-z
1/2+x,y,1/2-z
1/2-x,1/2+y,z
1/2+x,-y,1/2+z
loop_
_atom_site_type_symbol
_atom_site_label
_atom_site_fract_x
_atom_site_fract_y
_atom_site_fract_z
Si Si1 0.567093 0.204473 0.571530
Si Si2 0.837438 0.966478 0.754892
Si Si3 0.871362 0.904889 0.961029
Si Si4 0.154523 0.198083 0.341620
Si Si5 0.712937 0.670236 0.140802
Si Si6 0.935258 0.491275 0.352716
Si Si7 0.186490 0.178232 0.732042
O O1 0.500000 0.238342 0.559710
O O2 0.597978 0.175376 0.504953
O O3 0.605716 0.290078 0.602984
O O4 0.568668 0.115349 0.619592
O O5 0.856606 0.901217 0.695390
O O6 0.792341 0.914496 0.804409
O O7 0.895554 0.998159 0.790860
O O8 0.810989 0.063664 0.723860
O O9 0.813433 0.862791 0.927273
O O10 0.918506 0.932219 0.907344
O O11 0.851767 0.000000 0.000000
O O12 0.219490 0.196209 0.372469
O O13 0.145574 0.286415 0.290787
O O14 0.674690 0.763389 0.165371
O O15 0.000000 0.515909 0.329554
O O16 0.250000 0.219510 0.750000
#
# Coordination Sequence:
#
# PCOD8261525 Si02
#       7
#    16  16  16  16  16  16  16
#     4  10  19  32  50  70  98 132 167 207 251 290
#     4  10  17  30  50  73 104 133 161 196 249 300
#     4   9  18  33  52  73  99 127 164 213 260 290
#     4  10  19  30  47  75 102 130 164 196 244 305
#     4   9  19  31  49  77 102 127 166 204 248 309
#     4   9  17  30  50  74  97 126 168 207 245 293
#     4   9  16  29  48  71 101 134 155 193 247 295
#
# _framework density 16.970590999999999
#
# number of rings (size 3 to 8) (size 9 to 14) (size 15 to 20)
#    0.000    2.571    1.429    2.571    0.000    2.857 
#    0.000    0.000    0.000    0.857    0.000    1.000 
#    0.000    0.000    0.000    0.000    0.000    0.000 
#
# Total GULP energy -694081.104174 kJ/mol
# GULP energy per Si atom -12394.305432 kJ/mol
# Density = 1.693197 g / cm^3
# Si number density = 16.970591 Si / 1000 Ang^3
#
#
#
# Elastic Constant Matrix: (Units=GPa)
#
#
# Indices 1 2 3 4 5 6 
#
# 1 91.6619 24.9241 44.0092 0.0000 0.0000 0.0000
# 2 24.9241 86.2531 28.1133 0.0000 0.0000 0.0000
# 3 44.0092 28.1133 71.9782 0.0000 0.0000 0.0000
# 4 0.0000 0.0000 0.0000 24.3117 0.0000 0.0000
# 5 0.0000 0.0000 0.0000 0.0000 17.6262 0.0000
# 6 0.0000 0.0000 0.0000 0.0000 0.0000 19.2379
#
#
#
# Elastic Compliance Matrix: (Units=1/GPa)
#
#
# Indices 1 2 3 4 5 6 
#
# 1 0.015635 -0.001607 -0.008932 0.000000 0.000000 0.000000
# 2 -0.001607 0.013450 -0.004271 0.000000 0.000000 0.000000
# 3 -0.008932 -0.004271 0.021023 0.000000 0.000000 0.000000
# 4 0.000000 0.000000 0.000000 0.041132 0.000000 0.000000
# 5 0.000000 0.000000 0.000000 0.000000 0.056734 0.000000
# 6 0.000000 0.000000 0.000000 0.000000 0.000000 0.051981
#
#
# Mechanical properties :
#
#
# Convention : Reuss Voigt Hill
#
# Bulk Modulus (GPa) = 48.80857 49.33182 49.07019
# Shear Modulus (GPa) = 21.15028 22.42495 21.78762
#
# Velocity S-wave (km/s) = 3.53411 3.63905 3.58697
# Velocity P-wave (km/s) = 6.74362 6.84025 6.79211
#
# Compressibility (1/GPa) = 0.02048821
#
# Stress axis : x y z
#
# Youngs Moduli (GPa) = 63.95882 74.34864 47.56788
#
# Poissons Ratio (x) = 0.11945 0.42488
# Poissons Ratio (y) = 0.10276 0.20316
# Poissons Ratio (z) = 0.57129 0.31754
#
# Static dielectric constant tensor:
#      x y z
#    x 3.127930 0.000000 0.000000 
#    y 0.000000 3.068960 0.000000 
#    z 0.000000 0.000000 3.053500 
# 
# 
# High freq. dielectric constant tensor:
#      x y z
#    x 1.644290 0.000000 0.000000 
#    y 0.000000 1.643550 0.000000 
#    z 0.000000 0.000000 1.636970 
# 
# From -- ./inp_files/41554.got.cif
#   From: 2010.03.12/outbox.cif.g09.slc.cpg/sg64_21_cif.got.tgz:41554.got - 2010.04.10 20:19:32.
