data_PCOD8261021
_publ_section_title
;
Structure prediction by ZEFSAII (Michael W. Deem and Ramdas Pophale) SiO2 
 PCOD8261021
Probable space group: C M C M
;
_chemical_formula_sum "Si O2"
_cell_formula_units_Z 96
_cell_length_a 15.180668
_cell_length_b 17.230642
_cell_length_c 19.247411
_cell_angle_alpha 90.000000
_cell_angle_beta 90.000000
_cell_angle_gamma 90.000000
_cell_volume 5034.596409
_symmetry_space_group_name_H-M "C M C M"
_symmetry_group_IT_number 63
_symmetry_cell_setting 'orthorhombic'
loop_
_space_group_symop_operation_xyz
x,y,z
-x,-y,1/2+z
x,-y,-z
-x,y,1/2-z
-x,-y,-z
x,y,1/2-z
-x,y,z
x,-y,1/2+z
1/2+x,1/2+y,z
1/2-x,1/2-y,1/2+z
1/2+x,1/2-y,-z
1/2-x,1/2+y,1/2-z
1/2-x,1/2-y,-z
1/2+x,1/2+y,1/2-z
1/2-x,1/2+y,z
1/2+x,1/2-y,1/2+z
loop_
_atom_site_type_symbol
_atom_site_label
_atom_site_fract_x
_atom_site_fract_y
_atom_site_fract_z
Si Si1 0.737665 0.267312 0.327850
Si Si2 0.794223 0.456804 0.931006
Si Si3 0.500000 0.630598 0.020706
Si Si4 0.183069 0.939469 0.329659
Si Si5 0.400452 0.865928 0.827216
Si Si6 0.500000 0.481131 0.389375
Si Si7 0.313216 0.695909 0.046103
O O1 0.776505 0.267013 0.250000
O O2 0.699186 0.350200 0.348946
O O3 0.655374 0.211024 0.336607
O O4 0.815326 0.236726 0.378017
O O5 0.744610 0.514609 0.880980
O O6 0.877664 0.426775 0.887639
O O7 0.726853 0.389850 0.952777
O O8 0.828462 0.500000 0.000000
O O9 0.500000 0.571218 0.086006
O O10 0.414119 0.687010 0.020705
O O11 0.500000 0.578409 0.952697
O O12 0.208396 0.957146 0.250000
O O13 0.083156 0.964741 0.341086
O O14 0.384814 0.902086 0.750000
O O15 0.500000 0.839795 0.837183
O O16 0.250000 0.750000 0.000000
#
# Coordination Sequence:
#
# PCOD8261021 Si02
#       7
#    16  16   8  16  16   8  16
#     4   9  20  37  59  84 116 154 197 246 293 352
#     4  11  21  36  59  84 116 152 194 247 298 360
#     4  11  22  38  62  88 123 160 192 244 307 359
#     4  11  22  37  61  89 119 157 197 242 301 363
#     4   9  19  36  56  80 113 151 195 246 300 351
#     4  11  21  36  56  92 126 148 188 246 306 366
#     4  11  22  40  59  86 118 159 198 238 300 358
#
# _framework density 19.068062000000001
#
# number of rings (size 3 to 8) (size 9 to 14) (size 15 to 20)
#    0.000    1.667    1.667    3.750    1.167    1.000 
#    6.000    0.417    5.500    0.000    0.000    0.000 
#    0.000    0.000    0.000    0.000    0.000    0.000 
#
# Total GULP energy -595119.838857 kJ/mol
# GULP energy per Si atom -12398.329976 kJ/mol
# Density = 1.902466 g / cm^3
# Si number density = 19.068062 Si / 1000 Ang^3
#
#
#
# Elastic Constant Matrix: (Units=GPa)
#
#
# Indices 1 2 3 4 5 6 
#
# 1 93.3104 34.4072 40.5162 0.0000 0.0000 0.0000
# 2 34.4072 100.5997 62.7511 0.0000 0.0000 0.0000
# 3 40.5162 62.7511 106.3246 0.0000 0.0000 0.0000
# 4 0.0000 0.0000 0.0000 38.6572 0.0000 0.0000
# 5 0.0000 0.0000 0.0000 0.0000 -25.6115 0.0000
# 6 0.0000 0.0000 0.0000 0.0000 0.0000 16.8700
#
#
#
# Elastic Compliance Matrix: (Units=1/GPa)
#
#
# Indices 1 2 3 4 5 6 
#
# 1 0.013134 -0.002169 -0.003725 0.000000 0.000000 0.000000
# 2 -0.002169 0.016090 -0.008670 0.000000 0.000000 0.000000
# 3 -0.003725 -0.008670 0.015941 0.000000 0.000000 0.000000
# 4 0.000000 0.000000 0.000000 0.025868 0.000000 0.000000
# 5 0.000000 0.000000 0.000000 0.000000 -0.039045 0.000000
# 6 0.000000 0.000000 0.000000 0.000000 0.000000 0.059277
#
#
# Mechanical properties :
#
#
# Convention : Reuss Voigt Hill
#
# Bulk Modulus (GPa) = 62.34888 63.95375 63.15131
# Shear Modulus (GPa) = 39.76518 16.82050 28.29284
#
# Velocity S-wave (km/s) = 4.57161 2.97329 3.85617
# Velocity P-wave (km/s) = 7.78686 6.73794 7.28131
#
# Compressibility (1/GPa) = 0.01603878
#
# Stress axis : x y z
#
# Youngs Moduli (GPa) = 76.13844 62.15048 62.73005
#
# Poissons Ratio (x) = 0.13478 0.23367
# Poissons Ratio (y) = 0.16511 0.54385
# Poissons Ratio (z) = 0.28362 0.53883
#
# Static dielectric constant tensor:
#      x y z
#    x 3.339970 0.000000 0.000000 
#    y 0.000000 2.559320 0.000000 
#    z 0.000000 0.000000 3.886040 
# 
# 
# High freq. dielectric constant tensor:
#      x y z
#    x 1.721270 0.000000 0.000000 
#    y 0.000000 1.744410 0.000000 
#    z 0.000000 0.000000 1.760700 
# 
# From -- ./inp_files/54254.got.cif
#   From: 2010.03.12/outbox.cif.g09.slc.cpg/sg63_28_cif.got.tgz:54254.got - 2010.04.10 19:34:48.
