data_PCOD8261693
_publ_section_title
;
Structure prediction by ZEFSAII (Michael W. Deem and Ramdas Pophale) SiO2 
 PCOD8261693
Probable space group: C M C A
;
_chemical_formula_sum "Si O2"
_cell_formula_units_Z 64
_cell_length_a 7.990493
_cell_length_b 22.753600
_cell_length_c 20.542569
_cell_angle_alpha 90.000000
_cell_angle_beta 90.000000
_cell_angle_gamma 90.000000
_cell_volume 3734.895447
_symmetry_space_group_name_H-M "C M C A"
_symmetry_group_IT_number 64
_symmetry_cell_setting 'orthorhombic'
loop_
_space_group_symop_operation_xyz
x,y,z
-x,1/2-y,1/2+z
x,-y,-z
-x,1/2+y,1/2-z
-x,-y,-z
x,1/2+y,1/2-z
-x,y,z
x,1/2-y,1/2+z
1/2+x,1/2+y,z
1/2-x,-y,1/2+z
1/2+x,1/2-y,-z
1/2-x,y,1/2-z
1/2-x,1/2-y,-z
1/2+x,y,1/2-z
1/2-x,1/2+y,z
1/2+x,-y,1/2+z
loop_
_atom_site_type_symbol
_atom_site_label
_atom_site_fract_x
_atom_site_fract_y
_atom_site_fract_z
Si Si1 0.311336 0.282133 0.587100
Si Si2 0.000000 0.954456 0.905611
Si Si3 0.182769 0.873394 0.819093
Si Si4 0.000000 0.916542 0.054459
Si Si5 0.309334 0.163751 0.950894
O O1 0.500000 0.260110 0.578440
O O2 0.297706 0.322325 0.651048
O O3 0.257801 0.320843 0.524914
O O4 0.198692 0.223548 0.591889
O O5 0.165559 0.929526 0.867952
O O6 0.000000 0.024581 0.902475
O O7 0.000000 0.931307 0.978682
O O8 0.250000 0.895835 0.750000
O O9 0.000000 0.844689 0.809056
O O10 0.829065 0.882570 0.073929
O O11 0.500000 0.138530 0.946008
#
# Coordination Sequence:
#
# PCOD8261693 Si02
#       5
#    16   8  16   8  16
#     4  10  18  30  50  83 115 140 173 221 278 333
#     4   9  22  34  57  74 112 149 182 232 279 328
#     4  10  19  34  52  80 105 142 183 226 277 323
#     4  11  18  40  53  80 116 144 187 227 282 334
#     4  10  19  30  53  82 114 143 175 220 276 336
#
# _framework density 17.135687000000001
#
# number of rings (size 3 to 8) (size 9 to 14) (size 15 to 20)
#    0.750    1.250    3.750    1.500    1.750    0.000 
#    0.000    5.000    0.000    1.500    0.000    0.000 
#    0.000    0.000    0.000    0.000    0.000    0.000 
#
# Total GULP energy -396560.364285 kJ/mol
# GULP energy per Si atom -12392.511384 kJ/mol
# Density = 1.709669 g / cm^3
# Si number density = 17.135687 Si / 1000 Ang^3
#
#
#
# Elastic Constant Matrix: (Units=GPa)
#
#
# Indices 1 2 3 4 5 6 
#
# 1 91.2523 47.8978 11.5779 0.0000 0.0000 0.0000
# 2 47.8978 108.4257 42.1569 0.0000 0.0000 0.0000
# 3 11.5779 42.1569 73.7898 0.0000 0.0000 0.0000
# 4 0.0000 0.0000 0.0000 17.4021 0.0000 0.0000
# 5 0.0000 0.0000 0.0000 0.0000 22.1600 0.0000
# 6 0.0000 0.0000 0.0000 0.0000 0.0000 21.7627
#
#
#
# Elastic Compliance Matrix: (Units=1/GPa)
#
#
# Indices 1 2 3 4 5 6 
#
# 1 0.014445 -0.007071 0.001773 0.000000 0.000000 0.000000
# 2 -0.007071 0.015317 -0.007642 0.000000 0.000000 0.000000
# 3 0.001773 -0.007642 0.017640 0.000000 0.000000 0.000000
# 4 0.000000 0.000000 0.000000 0.057464 0.000000 0.000000
# 5 0.000000 0.000000 0.000000 0.000000 0.045126 0.000000
# 6 0.000000 0.000000 0.000000 0.000000 0.000000 0.045950
#
#
# Mechanical properties :
#
#
# Convention : Reuss Voigt Hill
#
# Bulk Modulus (GPa) = 46.46046 52.97032 49.71539
# Shear Modulus (GPa) = 21.83447 23.72065 22.77756
#
# Velocity S-wave (km/s) = 3.57348 3.72463 3.64984
# Velocity P-wave (km/s) = 6.64819 7.03396 6.84380
#
# Compressibility (1/GPa) = 0.02152368
#
# Stress axis : x y z
#
# Youngs Moduli (GPa) = 69.22835 65.28481 56.69070
#
# Poissons Ratio (x) = 0.46160 -0.10051
# Poissons Ratio (y) = 0.48948 0.43321
# Poissons Ratio (z) = -0.12274 0.49888
#
# Static dielectric constant tensor:
#      x y z
#    x 3.140120 0.000000 0.000000 
#    y 0.000000 3.038560 0.000000 
#    z 0.000000 0.000000 2.911140 
# 
# 
# High freq. dielectric constant tensor:
#      x y z
#    x 1.665890 0.000000 0.000000 
#    y 0.000000 1.642410 0.000000 
#    z 0.000000 0.000000 1.629260 
# 
# From -- ./inp_files/42591.got.cif
#   From: 2010.03.12/outbox.cif.g09.slc.cpg/sg64_22_cif.got.tgz:42591.got - 2010.04.10 20:19:32.
