data_PCOD8261737
_publ_section_title
;
Structure prediction by ZEFSAII (Michael W. Deem and Ramdas Pophale) SiO2 
 PCOD8261737
Probable space group: C M C A
;
_chemical_formula_sum "Si O2"
_cell_formula_units_Z 96
_cell_length_a 16.070362
_cell_length_b 24.853830
_cell_length_c 14.398848
_cell_angle_alpha 90.000000
_cell_angle_beta 90.000000
_cell_angle_gamma 90.000000
_cell_volume 5751.044530
_symmetry_space_group_name_H-M "C M C A"
_symmetry_group_IT_number 64
_symmetry_cell_setting 'orthorhombic'
loop_
_space_group_symop_operation_xyz
x,y,z
-x,1/2-y,1/2+z
x,-y,-z
-x,1/2+y,1/2-z
-x,-y,-z
x,1/2+y,1/2-z
-x,y,z
x,1/2-y,1/2+z
1/2+x,1/2+y,z
1/2-x,-y,1/2+z
1/2+x,1/2-y,-z
1/2-x,y,1/2-z
1/2-x,1/2-y,-z
1/2+x,y,1/2-z
1/2-x,1/2+y,z
1/2+x,-y,1/2+z
loop_
_atom_site_type_symbol
_atom_site_label
_atom_site_fract_x
_atom_site_fract_y
_atom_site_fract_z
Si Si1 0.097138 0.775930 0.348918
Si Si2 0.402857 0.553247 0.893114
Si Si3 0.901489 0.434452 0.600941
Si Si4 0.764781 0.310103 0.025840
Si Si5 0.304528 0.164467 0.340891
Si Si6 0.333363 0.347045 0.195367
O O1 0.144661 0.814273 0.424222
O O2 0.135408 0.716192 0.350195
O O3 0.109356 0.803182 0.247685
O O4 0.000000 0.773140 0.374234
O O5 0.500000 0.548128 0.903445
O O6 0.370841 0.493606 0.864888
O O7 0.379910 0.595986 0.813891
O O8 0.370166 0.571970 0.994309
O O9 0.859441 0.389349 0.665706
O O10 0.000000 0.426979 0.610354
O O11 0.689148 0.325556 0.093800
O O12 0.750000 0.250000 0.000000
O O13 0.757519 0.342877 0.929479
O O14 0.250000 0.171899 0.250000
O O15 0.250000 0.358872 0.250000
#
# Coordination Sequence:
#
# PCOD8261737 Si02
#       6
#    16  16  16  16  16  16
#     4  10  20  33  50  75 102 132 171 207 249 305
#     4   9  17  31  51  76 100 127 167 214 255 295
#     4   9  18  32  51  74 100 129 168 212 254 299
#     4   9  18  33  48  68  98 133 163 199 247 294
#     4  11  20  34  51  71 103 137 170 206 253 302
#     4  10  18  31  51  75 101 130 166 209 252 301
#
# _framework density 16.692619000000001
#
# number of rings (size 3 to 8) (size 9 to 14) (size 15 to 20)
#    0.000    2.333    1.667    4.500    0.000    0.667 
#    0.000    5.833    0.000    0.000    0.000    0.000 
#    0.000    9.333    0.000    0.000    0.000    0.000 
#
# Total GULP energy -594823.140185 kJ/mol
# GULP energy per Si atom -12392.148754 kJ/mol
# Density = 1.665463 g / cm^3
# Si number density = 16.692619 Si / 1000 Ang^3
#
#
#
# Elastic Constant Matrix: (Units=GPa)
#
#
# Indices 1 2 3 4 5 6 
#
# 1 80.0118 30.4659 33.2035 0.0000 0.0000 0.0000
# 2 30.4659 100.5609 27.6782 0.0000 0.0000 0.0000
# 3 33.2035 27.6782 85.9877 0.0000 0.0000 0.0000
# 4 0.0000 0.0000 0.0000 27.0168 0.0000 0.0000
# 5 0.0000 0.0000 0.0000 0.0000 11.0161 0.0000
# 6 0.0000 0.0000 0.0000 0.0000 0.0000 25.5433
#
#
#
# Elastic Compliance Matrix: (Units=1/GPa)
#
#
# Indices 1 2 3 4 5 6 
#
# 1 0.015893 -0.003430 -0.005033 0.000000 0.000000 0.000000
# 2 -0.003430 0.011651 -0.002426 0.000000 0.000000 0.000000
# 3 -0.005033 -0.002426 0.014354 0.000000 0.000000 0.000000
# 4 0.000000 0.000000 0.000000 0.037014 0.000000 0.000000
# 5 0.000000 0.000000 0.000000 0.000000 0.090776 0.000000
# 6 0.000000 0.000000 0.000000 0.000000 0.000000 0.039149
#
#
# Mechanical properties :
#
#
# Convention : Reuss Voigt Hill
#
# Bulk Modulus (GPa) = 49.70037 49.91728 49.80882
# Shear Modulus (GPa) = 21.06857 24.39610 22.73233
#
# Velocity S-wave (km/s) = 3.55653 3.82709 3.69429
# Velocity P-wave (km/s) = 6.83401 7.03545 6.93546
#
# Compressibility (1/GPa) = 0.02012058
#
# Stress axis : x y z
#
# Youngs Moduli (GPa) = 62.92245 85.82976 69.66769
#
# Poissons Ratio (x) = 0.29436 0.35063
# Poissons Ratio (y) = 0.21580 0.16901
# Poissons Ratio (z) = 0.31668 0.20822
#
# Static dielectric constant tensor:
#      x y z
#    x 3.139670 0.000000 0.000000 
#    y 0.000000 3.255600 0.000000 
#    z 0.000000 0.000000 3.339870 
# 
# 
# High freq. dielectric constant tensor:
#      x y z
#    x 1.625110 0.000000 0.000000 
#    y 0.000000 1.646650 0.000000 
#    z 0.000000 0.000000 1.634590 
# 
# From -- ./inp_files/16314.got.cif
#   From: 2010.03.12/outbox.cif.g09.slc.cpg/sg64_9_cif.got.tgz:16314.got - 2010.04.10 20:19:32.
