data_PCOD8261603
_publ_section_title
;
Structure prediction by ZEFSAII (Michael W. Deem and Ramdas Pophale) SiO2 
 PCOD8261603
Probable space group: C M C A
;
_chemical_formula_sum "Si O2"
_cell_formula_units_Z 96
_cell_length_a 9.703206
_cell_length_b 23.661104
_cell_length_c 25.705965
_cell_angle_alpha 90.000000
_cell_angle_beta 90.000000
_cell_angle_gamma 90.000000
_cell_volume 5901.795650
_symmetry_space_group_name_H-M "C M C A"
_symmetry_group_IT_number 64
_symmetry_cell_setting 'orthorhombic'
loop_
_space_group_symop_operation_xyz
x,y,z
-x,1/2-y,1/2+z
x,-y,-z
-x,1/2+y,1/2-z
-x,-y,-z
x,1/2+y,1/2-z
-x,y,z
x,1/2-y,1/2+z
1/2+x,1/2+y,z
1/2-x,-y,1/2+z
1/2+x,1/2-y,-z
1/2-x,y,1/2-z
1/2-x,1/2-y,-z
1/2+x,y,1/2-z
1/2-x,1/2+y,z
1/2+x,-y,1/2+z
loop_
_atom_site_type_symbol
_atom_site_label
_atom_site_fract_x
_atom_site_fract_y
_atom_site_fract_z
Si Si1 0.659685 0.250240 0.380051
Si Si2 0.343819 0.173120 0.470165
Si Si3 0.840967 0.357334 0.064211
Si Si4 0.838642 0.014235 0.559039
Si Si5 0.653787 0.074737 0.391063
Si Si6 0.338745 0.661859 0.199318
O O1 0.500000 0.232778 0.381041
O O2 0.720542 0.220476 0.431737
O O3 0.682630 0.318206 0.383859
O O4 0.715158 0.221107 0.327073
O O5 0.500000 0.187355 0.487698
O O6 0.247313 0.171549 0.519758
O O7 0.338755 0.112839 0.442193
O O8 0.797379 0.421689 0.074158
O O9 0.000000 0.355025 0.046711
O O10 0.000000 0.002782 0.565831
O O11 0.792695 0.000000 0.500000
O O12 0.760032 0.976369 0.601239
O O13 0.500000 0.049638 0.384963
O O14 0.692498 0.110633 0.340095
O O15 0.500000 0.664549 0.214125
O O16 0.250000 0.650630 0.250000
#
# Coordination Sequence:
#
# PCOD8261603 Si02
#       6
#    16  16  16  16  16  16
#     4   8  16  30  46  65  91 120 150 184 230 283
#     4   9  16  27  43  64  90 121 155 188 220 266
#     4  10  18  28  43  63  93 130 157 183 222 265
#     4  10  19  29  42  66  98 129 164 196 220 263
#     4   9  18  31  47  67  93 124 156 190 232 277
#     4   9  18  34  54  74  91 112 149 196 243 288
#
# _framework density 16.266235999999999
#
# number of rings (size 3 to 8) (size 9 to 14) (size 15 to 20)
#    0.000    2.833    1.667    2.500    0.000    1.667 
#    0.000    3.333    0.000    1.000    0.000    4.667 
#    0.000    0.000    0.000    0.000    0.000    0.000 
#
# Total GULP energy -594838.393672 kJ/mol
# GULP energy per Si atom -12392.466535 kJ/mol
# Density = 1.622921 g / cm^3
# Si number density = 16.266236 Si / 1000 Ang^3
#
#
#
# Elastic Constant Matrix: (Units=GPa)
#
#
# Indices 1 2 3 4 5 6 
#
# 1 48.6439 37.4395 39.0143 0.0000 0.0000 0.0000
# 2 37.4395 108.6680 39.9639 0.0000 0.0000 0.0000
# 3 39.0143 39.9639 79.8476 0.0000 0.0000 0.0000
# 4 0.0000 0.0000 0.0000 14.3122 0.0000 0.0000
# 5 0.0000 0.0000 0.0000 0.0000 24.7032 0.0000
# 6 0.0000 0.0000 0.0000 0.0000 0.0000 17.2435
#
#
#
# Elastic Compliance Matrix: (Units=1/GPa)
#
#
# Indices 1 2 3 4 5 6 
#
# 1 0.038517 -0.007782 -0.014925 0.000000 0.000000 0.000000
# 2 -0.007782 0.012850 -0.002629 0.000000 0.000000 0.000000
# 3 -0.014925 -0.002629 0.021133 0.000000 0.000000 0.000000
# 4 0.000000 0.000000 0.000000 0.069871 0.000000 0.000000
# 5 0.000000 0.000000 0.000000 0.000000 0.040481 0.000000
# 6 0.000000 0.000000 0.000000 0.000000 0.000000 0.057993
#
#
# Mechanical properties :
#
#
# Convention : Reuss Voigt Hill
#
# Bulk Modulus (GPa) = 45.81338 52.22166 49.01752
# Shear Modulus (GPa) = 16.73400 19.30122 18.01761
#
# Velocity S-wave (km/s) = 3.21090 3.44842 3.33178
# Velocity P-wave (km/s) = 6.47861 6.93033 6.70827
#
# Compressibility (1/GPa) = 0.02182768
#
# Stress axis : x y z
#
# Youngs Moduli (GPa) = 25.96228 77.81889 47.32030
#
# Poissons Ratio (x) = 0.60555 0.70627
# Poissons Ratio (y) = 0.20203 0.12443
# Poissons Ratio (z) = 0.38750 0.20462
#
# Static dielectric constant tensor:
#      x y z
#    x 2.931860 0.000000 0.000000 
#    y 0.000000 3.164730 0.000000 
#    z 0.000000 0.000000 2.801780 
# 
# 
# High freq. dielectric constant tensor:
#      x y z
#    x 1.612810 0.000000 0.000000 
#    y 0.000000 1.630320 0.000000 
#    z 0.000000 0.000000 1.591050 
# 
# From -- ./inp_files/42968.got.cif
#   From: 2010.03.12/outbox.cif.g09.slc.cpg/sg64_22_cif.got.tgz:42968.got - 2010.04.10 20:19:32.
