data_PCOD8261425
_publ_section_title
;
Structure prediction by ZEFSAII (Michael W. Deem and Ramdas Pophale) SiO2 
 PCOD8261425
Probable space group: C M C A
;
_chemical_formula_sum "Si O2"
_cell_formula_units_Z 104
_cell_length_a 29.221680
_cell_length_b 22.353632
_cell_length_c 9.332606
_cell_angle_alpha 90.000000
_cell_angle_beta 90.000000
_cell_angle_gamma 90.000000
_cell_volume 6096.157922
_symmetry_space_group_name_H-M "C M C A"
_symmetry_group_IT_number 64
_symmetry_cell_setting 'orthorhombic'
loop_
_space_group_symop_operation_xyz
x,y,z
-x,1/2-y,1/2+z
x,-y,-z
-x,1/2+y,1/2-z
-x,-y,-z
x,1/2+y,1/2-z
-x,y,z
x,1/2-y,1/2+z
1/2+x,1/2+y,z
1/2-x,-y,1/2+z
1/2+x,1/2-y,-z
1/2-x,y,1/2-z
1/2-x,1/2-y,-z
1/2+x,y,1/2-z
1/2-x,1/2+y,z
1/2+x,-y,1/2+z
loop_
_atom_site_type_symbol
_atom_site_label
_atom_site_fract_x
_atom_site_fract_y
_atom_site_fract_z
Si Si1 0.625013 0.065936 0.183830
Si Si2 0.726966 0.500000 0.000000
Si Si3 0.879246 0.567939 0.735379
Si Si4 0.836220 0.104881 0.050273
Si Si5 0.196882 0.083707 0.549691
Si Si6 0.948740 0.429431 0.029916
Si Si7 0.754224 0.812668 0.922355
O O1 0.636017 0.115586 0.303435
O O2 0.615975 0.003574 0.265362
O O3 0.665895 0.052457 0.072549
O O4 0.581669 0.095109 0.101307
O O5 0.694618 0.545593 0.086377
O O6 0.760369 0.458447 0.096205
O O7 0.873426 0.594259 0.575876
O O8 0.833389 0.593294 0.809912
O O9 0.924951 0.589961 0.819276
O O10 0.803397 0.161379 0.027432
O O11 0.213830 0.146365 0.484943
O O12 0.000000 0.402928 0.028378
O O13 0.948808 0.500000 0.000000
O O14 0.750000 0.807841 0.750000
O O15 0.750000 0.750000 0.000000
#
# Coordination Sequence:
#
# PCOD8261425 Si02
#       7
#    16   8  16  16  16  16  16
#     4  10  16  31  46  73 103 126 166 205 246 289
#     4  10  18  26  46  68  96 126 168 194 256 262
#     4  10  18  29  48  76 101 126 165 206 247 296
#     4  11  21  30  47  71 103 130 165 215 250 281
#     4  10  19  31  48  67  96 132 169 208 237 287
#     4   8  16  30  49  68 100 141 166 188 238 314
#     4  11  25  38  48  64  97 141 177 211 236 289
#
# _framework density 17.059926000000001
#
# number of rings (size 3 to 8) (size 9 to 14) (size 15 to 20)
#    0.000    2.000    4.615    0.923    2.154    3.077 
#    0.000    0.769    0.000    3.692    0.000    0.000 
#    0.000   19.692    0.000    0.000    0.000    0.000 
#
# Total GULP energy -644196.442647 kJ/mol
# GULP energy per Si atom -12388.393128 kJ/mol
# Density = 1.702110 g / cm^3
# Si number density = 17.059926 Si / 1000 Ang^3
#
#
#
# Elastic Constant Matrix: (Units=GPa)
#
#
# Indices 1 2 3 4 5 6 
#
# 1 117.2214 22.9225 49.3565 0.0000 0.0000 0.0000
# 2 22.9225 62.0192 14.5498 0.0000 0.0000 0.0000
# 3 49.3565 14.5498 93.3317 0.0000 0.0000 0.0000
# 4 0.0000 0.0000 0.0000 20.0750 0.0000 0.0000
# 5 0.0000 0.0000 0.0000 0.0000 16.5526 0.0000
# 6 0.0000 0.0000 0.0000 0.0000 0.0000 10.5476
#
#
#
# Elastic Compliance Matrix: (Units=1/GPa)
#
#
# Indices 1 2 3 4 5 6 
#
# 1 0.011463 -0.002921 -0.005606 0.000000 0.000000 0.000000
# 2 -0.002921 0.017481 -0.001180 0.000000 0.000000 0.000000
# 3 -0.005606 -0.001180 0.013863 0.000000 0.000000 0.000000
# 4 0.000000 0.000000 0.000000 0.049813 0.000000 0.000000
# 5 0.000000 0.000000 0.000000 0.000000 0.060413 0.000000
# 6 0.000000 0.000000 0.000000 0.000000 0.000000 0.094808
#
#
# Mechanical properties :
#
#
# Convention : Reuss Voigt Hill
#
# Bulk Modulus (GPa) = 42.75206 49.58111 46.16658
# Shear Modulus (GPa) = 18.17824 21.81795 19.99809
#
# Velocity S-wave (km/s) = 3.26782 3.58005 3.42749
# Velocity P-wave (km/s) = 6.27316 6.79816 6.54093
#
# Compressibility (1/GPa) = 0.02339069
#
# Stress axis : x y z
#
# Youngs Moduli (GPa) = 87.23931 57.20606 72.13300
#
# Poissons Ratio (x) = 0.16712 0.40441
# Poissons Ratio (y) = 0.25486 0.08513
# Poissons Ratio (z) = 0.48910 0.06752
#
# Static dielectric constant tensor:
#      x y z
#    x 3.380480 0.000000 0.000000 
#    y 0.000000 2.777900 0.000000 
#    z 0.000000 0.000000 3.208460 
# 
# 
# High freq. dielectric constant tensor:
#      x y z
#    x 1.643280 0.000000 0.000000 
#    y 0.000000 1.603840 0.000000 
#    z 0.000000 0.000000 1.663300 
# 
# From -- ./inp_files/11279.got.cif
#   From: 2010.03.12/outbox.cif.g09.slc.cpg/sg64_6_cif.got.tgz:11279.got - 2010.04.10 20:19:32.
