data_PCOD8261080
_publ_section_title
;
Structure prediction by ZEFSAII (Michael W. Deem and Ramdas Pophale) SiO2 
 PCOD8261080
Probable space group: C M C M
;
_chemical_formula_sum "Si O2"
_cell_formula_units_Z 48
_cell_length_a 13.234470
_cell_length_b 27.543041
_cell_length_c 7.583172
_cell_angle_alpha 90.000000
_cell_angle_beta 90.000000
_cell_angle_gamma 90.000000
_cell_volume 2764.199277
_symmetry_space_group_name_H-M "C M C M"
_symmetry_group_IT_number 63
_symmetry_cell_setting 'orthorhombic'
loop_
_space_group_symop_operation_xyz
x,y,z
-x,-y,1/2+z
x,-y,-z
-x,y,1/2-z
-x,-y,-z
x,y,1/2-z
-x,y,z
x,-y,1/2+z
1/2+x,1/2+y,z
1/2-x,1/2-y,1/2+z
1/2+x,1/2-y,-z
1/2-x,1/2+y,1/2-z
1/2-x,1/2-y,-z
1/2+x,1/2+y,1/2-z
1/2-x,1/2+y,z
1/2+x,1/2-y,1/2+z
loop_
_atom_site_type_symbol
_atom_site_label
_atom_site_fract_x
_atom_site_fract_y
_atom_site_fract_z
Si Si1 0.387553 0.946905 0.543486
Si Si2 0.118059 0.709461 0.250000
Si Si3 0.753763 0.639715 0.446119
Si Si4 0.382046 0.322763 0.250000
O O1 0.395417 0.937981 0.750000
O O2 0.500000 0.942274 0.458723
O O3 0.312631 0.906038 0.466881
O O4 0.342620 0.000000 0.500000
O O5 0.167231 0.684686 0.075380
O O6 0.142190 0.766007 0.250000
O O7 0.000000 0.698258 0.250000
O O8 0.709698 0.626827 0.250000
O O9 0.663144 0.653707 0.574119
O O10 0.500000 0.333744 0.250000
#
# Coordination Sequence:
#
# PCOD8261080 Si02
#       4
#    16   8  16   8
#     4   9  17  30  50  80 111 135 162 206 267 331
#     4   9  18  36  56  77 111 137 170 222 268 321
#     4   9  20  34  56  76 108 140 174 215 268 314
#     4  11  22  36  54  77 103 143 190 224 252 301
#
# _framework density 17.364885000000001
#
# number of rings (size 3 to 8) (size 9 to 14) (size 15 to 20)
#    1.000    1.667    0.000    2.000    2.333    0.667 
#    0.000    2.500    0.000    1.000    0.000    0.000 
#    0.000    0.000    0.000    0.000    0.000    0.000 
#
# Total GULP energy -297423.749309 kJ/mol
# GULP energy per Si atom -12392.656221 kJ/mol
# Density = 1.732536 g / cm^3
# Si number density = 17.364885 Si / 1000 Ang^3
#
#
#
# Elastic Constant Matrix: (Units=GPa)
#
#
# Indices 1 2 3 4 5 6 
#
# 1 107.8814 80.9964 45.7276 0.0000 0.0000 0.0000
# 2 80.9964 139.8861 34.4015 0.0000 0.0000 0.0000
# 3 45.7276 34.4015 65.3390 0.0000 0.0000 0.0000
# 4 0.0000 0.0000 0.0000 26.8682 0.0000 0.0000
# 5 0.0000 0.0000 0.0000 0.0000 26.3768 0.0000
# 6 0.0000 0.0000 0.0000 0.0000 0.0000 27.4770
#
#
#
# Elastic Compliance Matrix: (Units=1/GPa)
#
#
# Indices 1 2 3 4 5 6 
#
# 1 0.020295 -0.009487 -0.009209 0.000000 0.000000 0.000000
# 2 -0.009487 0.012646 -0.000019 0.000000 0.000000 0.000000
# 3 -0.009209 -0.000019 0.021760 0.000000 0.000000 0.000000
# 4 0.000000 0.000000 0.000000 0.037219 0.000000 0.000000
# 5 0.000000 0.000000 0.000000 0.000000 0.037912 0.000000
# 6 0.000000 0.000000 0.000000 0.000000 0.000000 0.036394
#
#
# Mechanical properties :
#
#
# Convention : Reuss Voigt Hill
#
# Bulk Modulus (GPa) = 57.89729 70.59529 64.24629
# Shear Modulus (GPa) = 23.87627 26.27645 25.07636
#
# Velocity S-wave (km/s) = 3.71209 3.89420 3.80423
# Velocity P-wave (km/s) = 7.19630 7.80782 7.50829
#
# Compressibility (1/GPa) = 0.01727197
#
# Stress axis : x y z
#
# Youngs Moduli (GPa) = 49.27255 79.07457 45.95644
#
# Poissons Ratio (x) = 0.75015 0.42321
# Poissons Ratio (y) = 0.46743 0.00088
# Poissons Ratio (z) = 0.45375 0.00152
#
# Static dielectric constant tensor:
#      x y z
#    x 3.016220 0.000000 0.000000 
#    y 0.000000 3.395460 0.000000 
#    z 0.000000 0.000000 2.982250 
# 
# 
# High freq. dielectric constant tensor:
#      x y z
#    x 1.643300 0.000000 0.000000 
#    y 0.000000 1.679670 0.000000 
#    z 0.000000 0.000000 1.656190 
# 
# From -- ./inp_files/2682.got.cif
#   From: 2010.03.12/outbox.cif.g09.slc.cpg/sg63_2_cif.got.tgz:2682.got - 2010.04.10 19:34:48.
