data_PCOD8261810
_publ_section_title
;
Structure prediction by ZEFSAII (Michael W. Deem and Ramdas Pophale) SiO2 
 PCOD8261810
Probable space group: C M C A
;
_chemical_formula_sum "Si O2"
_cell_formula_units_Z 96
_cell_length_a 8.613411
_cell_length_b 20.824625
_cell_length_c 28.304039
_cell_angle_alpha 90.000000
_cell_angle_beta 90.000000
_cell_angle_gamma 90.000000
_cell_volume 5076.925309
_symmetry_space_group_name_H-M "C M C A"
_symmetry_group_IT_number 64
_symmetry_cell_setting 'orthorhombic'
loop_
_space_group_symop_operation_xyz
x,y,z
-x,1/2-y,1/2+z
x,-y,-z
-x,1/2+y,1/2-z
-x,-y,-z
x,1/2+y,1/2-z
-x,y,z
x,1/2-y,1/2+z
1/2+x,1/2+y,z
1/2-x,-y,1/2+z
1/2+x,1/2-y,-z
1/2-x,y,1/2-z
1/2-x,1/2-y,-z
1/2+x,y,1/2-z
1/2-x,1/2+y,z
1/2+x,-y,1/2+z
loop_
_atom_site_type_symbol
_atom_site_label
_atom_site_fract_x
_atom_site_fract_y
_atom_site_fract_z
Si Si1 0.316790 0.497475 0.896791
Si Si2 0.684288 0.374181 0.951157
Si Si3 0.815252 0.370301 0.440902
Si Si4 0.682873 0.443501 0.798755
Si Si5 0.816828 0.303493 0.799287
Si Si6 0.683226 0.246795 0.391519
O O1 0.500000 0.495802 0.903379
O O2 0.245802 0.438071 0.926605
O O3 0.253325 0.564555 0.916516
O O4 0.271589 0.490866 0.841564
O O5 0.500000 0.375921 0.948870
O O6 0.746640 0.311546 0.923824
O O7 0.740568 0.371468 0.005012
O O8 0.728598 0.312826 0.415596
O O9 0.000000 0.362084 0.436263
O O10 0.500000 0.435234 0.793888
O O11 0.750000 0.472391 0.750000
O O12 0.752345 0.374116 0.810067
O O13 0.750000 0.276790 0.750000
O O14 0.764217 0.255691 0.840539
O O15 0.000000 0.306365 0.795851
O O16 0.500000 0.242235 0.384699
#
# Coordination Sequence:
#
# PCOD8261810 Si02
#       6
#    16  16  16  16  16  16
#     4   9  17  32  55  81 108 141 183 231 274 321
#     4   9  17  32  56  81 105 142 190 234 271 320
#     4  10  20  34  55  81 109 145 190 231 274 325
#     4  10  18  32  54  81 110 139 176 221 272 322
#     4  11  21  35  57  84 109 138 179 225 271 322
#     4  11  21  36  55  79 114 148 180 223 277 328
#
# _framework density 18.909084
#
# number of rings (size 3 to 8) (size 9 to 14) (size 15 to 20)
#    0.000    2.000    1.667    4.500    0.000    2.000 
#    0.000    3.333    0.000    3.000    0.000    0.000 
#    0.000    0.000    0.000    0.000    0.000    0.000 
#
# Total GULP energy -595251.817112 kJ/mol
# GULP energy per Si atom -12401.079523 kJ/mol
# Density = 1.886605 g / cm^3
# Si number density = 18.909084 Si / 1000 Ang^3
#
#
#
# Elastic Constant Matrix: (Units=GPa)
#
#
# Indices 1 2 3 4 5 6 
#
# 1 70.9968 21.8532 45.0173 0.0000 0.0000 0.0000
# 2 21.8532 132.7715 83.6773 0.0000 0.0000 0.0000
# 3 45.0173 83.6773 178.2045 0.0000 0.0000 0.0000
# 4 0.0000 0.0000 0.0000 3.4152 0.0000 0.0000
# 5 0.0000 0.0000 0.0000 0.0000 20.4032 0.0000
# 6 0.0000 0.0000 0.0000 0.0000 0.0000 19.8616
#
#
#
# Elastic Compliance Matrix: (Units=1/GPa)
#
#
# Indices 1 2 3 4 5 6 
#
# 1 0.016773 -0.000128 -0.004177 0.000000 0.000000 0.000000
# 2 -0.000128 0.010698 -0.004991 0.000000 0.000000 0.000000
# 3 -0.004177 -0.004991 0.009010 0.000000 0.000000 0.000000
# 4 0.000000 0.000000 0.000000 0.292812 0.000000 0.000000
# 5 0.000000 0.000000 0.000000 0.000000 0.049012 0.000000
# 6 0.000000 0.000000 0.000000 0.000000 0.000000 0.050348
#
#
# Mechanical properties :
#
#
# Convention : Reuss Voigt Hill
#
# Bulk Modulus (GPa) = 55.89968 75.89650 65.89809
# Shear Modulus (GPa) = 11.03243 24.16432 17.59837
#
# Velocity S-wave (km/s) = 2.41808 3.57868 3.05402
# Velocity P-wave (km/s) = 6.11741 7.56972 6.88198
#
# Compressibility (1/GPa) = 0.01788919
#
# Stress axis : x y z
#
# Youngs Moduli (GPa) = 59.61921 93.47159 110.98395
#
# Poissons Ratio (x) = 0.01199 0.46357
# Poissons Ratio (y) = 0.00765 0.55393
# Poissons Ratio (z) = 0.24902 0.46653
#
# Static dielectric constant tensor:
#      x y z
#    x 3.179230 0.000000 0.000000 
#    y 0.000000 3.435890 0.000000 
#    z 0.000000 0.000000 3.809490 
# 
# 
# High freq. dielectric constant tensor:
#      x y z
#    x 1.709660 0.000000 0.000000 
#    y 0.000000 1.720630 0.000000 
#    z 0.000000 0.000000 1.755050 
# 
# From -- ./inp_files/48105.got.cif
#   From: 2010.03.12/outbox.cif.g09.slc.cpg/sg64_25_cif.got.tgz:48105.got - 2010.04.10 20:19:32.
