data_PCOD8261212
_publ_section_title
;
Structure prediction by ZEFSAII (Michael W. Deem and Ramdas Pophale) SiO2 
 PCOD8261212
Probable space group: C M C M
;
_chemical_formula_sum "Si O2"
_cell_formula_units_Z 64
_cell_length_a 10.262402
_cell_length_b 9.744392
_cell_length_c 31.768895
_cell_angle_alpha 90.000000
_cell_angle_beta 90.000000
_cell_angle_gamma 90.000000
_cell_volume 3176.917074
_symmetry_space_group_name_H-M "C M C M"
_symmetry_group_IT_number 63
_symmetry_cell_setting 'orthorhombic'
loop_
_space_group_symop_operation_xyz
x,y,z
-x,-y,1/2+z
x,-y,-z
-x,y,1/2-z
-x,-y,-z
x,y,1/2-z
-x,y,z
x,-y,1/2+z
1/2+x,1/2+y,z
1/2-x,1/2-y,1/2+z
1/2+x,1/2-y,-z
1/2-x,1/2+y,1/2-z
1/2-x,1/2-y,-z
1/2+x,1/2+y,1/2-z
1/2-x,1/2+y,z
1/2+x,1/2-y,1/2+z
loop_
_atom_site_type_symbol
_atom_site_label
_atom_site_fract_x
_atom_site_fract_y
_atom_site_fract_z
Si Si1 0.000000 0.171224 0.545896
Si Si2 0.742961 0.742938 0.596731
Si Si3 0.500000 0.649125 0.447391
Si Si4 0.258184 0.991146 0.654138
Si Si5 0.000000 0.390765 0.200558
Si Si6 0.500000 0.576122 0.199802
O O1 0.873696 0.249834 0.563259
O O2 0.000000 0.186613 0.496096
O O3 0.000000 0.013288 0.560437
O O4 0.874808 0.785035 0.573907
O O5 0.714275 0.839436 0.636666
O O6 0.753644 0.588936 0.613708
O O7 0.125428 0.999031 0.680741
O O8 0.373199 0.030736 0.685197
O O9 0.000000 0.393638 0.250000
O O10 0.000000 0.234069 0.184378
O O11 0.500000 0.562214 0.250000
#
# Coordination Sequence:
#
# PCOD8261212 Si02
#       6
#     8  16   8  16   8   8
#     4  11  24  43  66  95 132 171 211 264 324 381
#     4  12  23  43  68  95 129 168 216 263 316 379
#     4  11  24  44  64  96 134 167 211 268 324 377
#     4  12  23  43  68  95 129 168 216 262 316 380
#     4  11  24  43  65  96 132 167 210 266 319 377
#     4  11  24  44  65  95 134 169 208 264 325 377
#
# _framework density 20.145315
#
# number of rings (size 3 to 8) (size 9 to 14) (size 15 to 20)
#    0.000    0.500    5.000    4.500    0.000    0.000 
#    0.000    2.500    0.000    0.000    0.000    0.000 
#    0.000    0.000    0.000    0.000    0.000    0.000 
#
# Total GULP energy -397041.519209 kJ/mol
# GULP energy per Si atom -12407.547475 kJ/mol
# Density = 2.009946 g / cm^3
# Si number density = 20.145315 Si / 1000 Ang^3
#
#
#
# Elastic Constant Matrix: (Units=GPa)
#
#
# Indices 1 2 3 4 5 6 
#
# 1 200.5188 52.6509 66.7250 0.0000 0.0000 0.0000
# 2 52.6509 64.1058 35.8489 0.0000 0.0000 0.0000
# 3 66.7250 35.8489 89.6250 0.0000 0.0000 0.0000
# 4 0.0000 0.0000 0.0000 36.8445 0.0000 0.0000
# 5 0.0000 0.0000 0.0000 0.0000 -10.1215 0.0000
# 6 0.0000 0.0000 0.0000 0.0000 0.0000 55.2191
#
#
#
# Elastic Compliance Matrix: (Units=1/GPa)
#
#
# Indices 1 2 3 4 5 6 
#
# 1 0.007283 -0.003800 -0.003903 0.000000 0.000000 0.000000
# 2 -0.003800 0.022076 -0.006001 0.000000 0.000000 0.000000
# 3 -0.003903 -0.006001 0.016464 0.000000 0.000000 0.000000
# 4 0.000000 0.000000 0.000000 0.027141 0.000000 0.000000
# 5 0.000000 0.000000 0.000000 0.000000 -0.098799 0.000000
# 6 0.000000 0.000000 0.000000 0.000000 0.000000 0.018110
#
#
# Mechanical properties :
#
#
# Convention : Reuss Voigt Hill
#
# Bulk Modulus (GPa) = 54.30142 73.85548 64.07845
# Shear Modulus (GPa) = 193.64805 29.65673 111.65239
#
# Velocity S-wave (km/s) = 9.81500 3.84101 7.45277
# Velocity P-wave (km/s) = 12.46832 7.51080 10.29250
#
# Compressibility (1/GPa) = 0.01841572
#
# Stress axis : x y z
#
# Youngs Moduli (GPa) = 137.29917 45.29840 60.74021
#
# Poissons Ratio (x) = 0.17211 0.23705
# Poissons Ratio (y) = 0.52167 0.36452
# Poissons Ratio (z) = 0.53583 0.27185
#
# Static dielectric constant tensor:
#      x y z
#    x 3.780790 0.000000 0.000000 
#    y 0.000000 3.787060 0.000000 
#    z 0.000000 0.000000 3.675300 
# 
# 
# High freq. dielectric constant tensor:
#      x y z
#    x 1.805000 0.000000 0.000000 
#    y 0.000000 1.788820 0.000000 
#    z 0.000000 0.000000 1.799240 
# 
# From -- ./inp_files/72406.got.cif
#   From: 2010.03.12/outbox.cif.g09.slc.cpg/sg63_37_cif.got.tgz:72406.got - 2010.04.10 19:34:48.
