data_PCOD8261277
_publ_section_title
;
Structure prediction by ZEFSAII (Michael W. Deem and Ramdas Pophale) SiO2 
 PCOD8261277
Probable space group: C M C M
;
_chemical_formula_sum "Si O2"
_cell_formula_units_Z 112
_cell_length_a 9.668351
_cell_length_b 31.075259
_cell_length_c 23.731215
_cell_angle_alpha 90.000000
_cell_angle_beta 90.000000
_cell_angle_gamma 90.000000
_cell_volume 7129.960759
_symmetry_space_group_name_H-M "C M C M"
_symmetry_group_IT_number 63
_symmetry_cell_setting 'orthorhombic'
loop_
_space_group_symop_operation_xyz
x,y,z
-x,-y,1/2+z
x,-y,-z
-x,y,1/2-z
-x,-y,-z
x,y,1/2-z
-x,y,z
x,-y,1/2+z
1/2+x,1/2+y,z
1/2-x,1/2-y,1/2+z
1/2+x,1/2-y,-z
1/2-x,1/2+y,1/2-z
1/2-x,1/2-y,-z
1/2+x,1/2+y,1/2-z
1/2-x,1/2+y,z
1/2+x,1/2-y,1/2+z
loop_
_atom_site_type_symbol
_atom_site_label
_atom_site_fract_x
_atom_site_fract_y
_atom_site_fract_z
Si Si1 0.664483 0.580179 0.379211
Si Si2 0.664675 0.337566 0.186816
Si Si3 0.335323 0.549000 0.001322
Si Si4 0.661376 0.335438 0.684254
Si Si5 0.164801 0.917279 0.116572
Si Si6 0.846323 0.742861 0.183104
Si Si7 0.835025 0.002024 0.686954
O O1 0.500000 0.579616 0.377060
O O2 0.717910 0.574160 0.443231
O O3 0.718315 0.624609 0.352311
O O4 0.723315 0.540808 0.342471
O O5 0.722913 0.346495 0.250000
O O6 0.500000 0.339841 0.189497
O O7 0.723760 0.372980 0.143108
O O8 0.708676 0.290138 0.164567
O O9 0.500000 0.546741 0.001224
O O10 0.277890 0.500000 0.000000
O O11 0.281415 0.575819 0.947246
O O12 0.691332 0.344790 0.750000
O O13 0.500000 0.327250 0.673963
O O14 0.741516 0.293525 0.661457
O O15 0.221250 0.956617 0.153872
O O16 0.000000 0.916710 0.117564
O O17 0.853869 0.742497 0.250000
O O18 0.000000 0.733969 0.158420
O O19 0.776355 0.003821 0.750000
O O20 0.000000 0.001633 0.686744
#
# Coordination Sequence:
#
# PCOD8261277 Si02
#       7
#    16  16  16  16  16  16  16
#     4   9  15  22  31  45  70 101 128 153 183 222
#     4   8  13  21  33  50  70  91 118 153 192 231
#     4   9  14  21  30  42  65 100 134 155 178 222
#     4   9  16  25  38  57  79 102 129 159 190 227
#     4   9  14  19  29  45  66  93 124 154 184 224
#     4   8  14  25  40  56  76 101 126 156 195 234
#     4   9  14  18  26  42  66  95 121 146 183 229
#
# _framework density 15.708361
#
# number of rings (size 3 to 8) (size 9 to 14) (size 15 to 20)
#    0.000    3.286    1.429    1.714    0.000    3.429 
#    0.000    0.000    0.000    0.857    0.000    0.000 
#    0.000    1.714    0.000    8.857    0.000    8.143 
#
# Total GULP energy -693973.572045 kJ/mol
# GULP energy per Si atom -12392.385215 kJ/mol
# Density = 1.567261 g / cm^3
# Si number density = 15.708361 Si / 1000 Ang^3
#
#
#
# Elastic Constant Matrix: (Units=GPa)
#
#
# Indices 1 2 3 4 5 6 
#
# 1 14.1281 26.1641 13.6179 0.0000 0.0000 0.0000
# 2 26.1641 168.0821 77.1002 0.0000 0.0000 0.0000
# 3 13.6179 77.1002 119.6480 0.0000 0.0000 0.0000
# 4 0.0000 0.0000 0.0000 16.5000 0.0000 0.0000
# 5 0.0000 0.0000 0.0000 0.0000 4.1749 0.0000
# 6 0.0000 0.0000 0.0000 0.0000 0.0000 14.6995
#
#
#
# Elastic Compliance Matrix: (Units=1/GPa)
#
#
# Indices 1 2 3 4 5 6 
#
# 1 0.099758 -0.014651 -0.001913 0.000000 0.000000 0.000000
# 2 -0.014651 0.010598 -0.005162 0.000000 0.000000 0.000000
# 3 -0.001913 -0.005162 0.011902 0.000000 0.000000 0.000000
# 4 0.000000 0.000000 0.000000 0.060606 0.000000 0.000000
# 5 0.000000 0.000000 0.000000 0.000000 0.239527 0.000000
# 6 0.000000 0.000000 0.000000 0.000000 0.000000 0.068030
#
#
# Mechanical properties :
#
#
# Convention : Reuss Voigt Hill
#
# Bulk Modulus (GPa) = 12.68944 59.51363 36.10154
# Shear Modulus (GPa) = 8.92635 19.40660 14.16647
#
# Velocity S-wave (km/s) = 2.38640 3.51868 3.00633
# Velocity P-wave (km/s) = 3.96092 7.38085 5.92309
#
# Compressibility (1/GPa) = 0.07880568
#
# Stress axis : x y z
#
# Youngs Moduli (GPa) = 10.02430 94.35989 84.02187
#
# Poissons Ratio (x) = 1.38247 0.16074
# Poissons Ratio (y) = 0.14687 0.43368
# Poissons Ratio (z) = 0.01918 0.48704
#
# Static dielectric constant tensor:
#      x y z
#    x 2.355690 0.000000 0.000000 
#    y 0.000000 3.336240 0.000000 
#    z 0.000000 0.000000 3.096960 
# 
# 
# High freq. dielectric constant tensor:
#      x y z
#    x 1.520210 0.000000 0.000000 
#    y 0.000000 1.614580 0.000000 
#    z 0.000000 0.000000 1.591320 
# 
# From -- ./inp_files/62099.got.cif
#   From: 2010.03.12/outbox.cif.g09.slc.cpg/sg63_32_cif.got.tgz:62099.got - 2010.04.10 19:34:48.
