data_PCOD8261509
_publ_section_title
;
Structure prediction by ZEFSAII (Michael W. Deem and Ramdas Pophale) SiO2 
 PCOD8261509
Probable space group: C M C A
;
_chemical_formula_sum "Si O2"
_cell_formula_units_Z 96
_cell_length_a 27.164437
_cell_length_b 14.573972
_cell_length_c 14.829071
_cell_angle_alpha 90.000000
_cell_angle_beta 90.000000
_cell_angle_gamma 90.000000
_cell_volume 5870.736442
_symmetry_space_group_name_H-M "C M C A"
_symmetry_group_IT_number 64
_symmetry_cell_setting 'orthorhombic'
loop_
_space_group_symop_operation_xyz
x,y,z
-x,1/2-y,1/2+z
x,-y,-z
-x,1/2+y,1/2-z
-x,-y,-z
x,1/2+y,1/2-z
-x,y,z
x,1/2-y,1/2+z
1/2+x,1/2+y,z
1/2-x,-y,1/2+z
1/2+x,1/2-y,-z
1/2-x,y,1/2-z
1/2-x,1/2-y,-z
1/2+x,y,1/2-z
1/2-x,1/2+y,z
1/2+x,-y,1/2+z
loop_
_atom_site_type_symbol
_atom_site_label
_atom_site_fract_x
_atom_site_fract_y
_atom_site_fract_z
Si Si1 0.654997 0.829065 0.877293
Si Si2 0.846116 0.474384 0.202768
Si Si3 0.709894 0.343522 0.177813
Si Si4 0.215755 0.095053 0.539327
Si Si5 0.446066 0.860898 0.953529
Si Si6 0.053532 0.942681 0.362497
O O1 0.670740 0.738166 0.824857
O O2 0.599441 0.806382 0.909988
O O3 0.658127 0.915533 0.808468
O O4 0.691181 0.843434 0.962038
O O5 0.816484 0.438760 0.290466
O O6 0.825577 0.424657 0.113920
O O7 0.903035 0.441438 0.211551
O O8 0.750000 0.312782 0.250000
O O9 0.736167 0.356581 0.081375
O O10 0.235496 0.000000 0.500000
O O11 0.500000 0.817583 0.929162
O O12 0.443045 0.962804 0.915805
O O13 0.440191 0.863188 0.062180
O O14 0.000000 0.932426 0.314487
#
# Coordination Sequence:
#
# PCOD8261509 Si02
#       6
#    16  16  16  16  16  16
#     4  10  17  29  48  64  89 120 147 183 221 260
#     4   9  17  30  44  65  93 114 140 182 230 259
#     4  10  21  31  42  64  92 120 152 182 215 262
#     4   9  17  30  47  63  85 115 151 185 217 258
#     4   8  13  22  42  69  87 105 140 184 223 259
#     4   8  12  22  43  66  87 109 137 175 225 269
#
# _framework density 16.352291999999998
#
# number of rings (size 3 to 8) (size 9 to 14) (size 15 to 20)
#    0.000    3.000    1.667    1.500    0.000    3.333 
#    0.000    0.833    0.000    0.000    0.000    0.000 
#    0.000    1.333    0.000    0.000    0.000    0.000 
#
# Total GULP energy -594737.153697 kJ/mol
# GULP energy per Si atom -12390.357369 kJ/mol
# Density = 1.631507 g / cm^3
# Si number density = 16.352292 Si / 1000 Ang^3
#
#
#
# Elastic Constant Matrix: (Units=GPa)
#
#
# Indices 1 2 3 4 5 6 
#
# 1 135.6285 45.1510 37.3068 0.0000 0.0000 0.0000
# 2 45.1510 59.0664 22.6513 0.0000 0.0000 0.0000
# 3 37.3068 22.6513 43.9229 0.0000 0.0000 0.0000
# 4 0.0000 0.0000 0.0000 12.7107 0.0000 0.0000
# 5 0.0000 0.0000 0.0000 0.0000 12.4441 0.0000
# 6 0.0000 0.0000 0.0000 0.0000 0.0000 18.3043
#
#
#
# Elastic Compliance Matrix: (Units=1/GPa)
#
#
# Indices 1 2 3 4 5 6 
#
# 1 0.011139 -0.006091 -0.006320 0.000000 0.000000 0.000000
# 2 -0.006091 0.024435 -0.007427 0.000000 0.000000 0.000000
# 3 -0.006320 -0.007427 0.031966 0.000000 0.000000 0.000000
# 4 0.000000 0.000000 0.000000 0.078674 0.000000 0.000000
# 5 0.000000 0.000000 0.000000 0.000000 0.080360 0.000000
# 6 0.000000 0.000000 0.000000 0.000000 0.000000 0.054632
#
#
# Mechanical properties :
#
#
# Convention : Reuss Voigt Hill
#
# Bulk Modulus (GPa) = 35.89101 49.87068 42.88084
# Shear Modulus (GPa) = 15.14372 17.59239 16.36806
#
# Velocity S-wave (km/s) = 3.04648 3.28355 3.16723
# Velocity P-wave (km/s) = 5.86267 6.70369 6.29724
#
# Compressibility (1/GPa) = 0.02786213
#
# Stress axis : x y z
#
# Youngs Moduli (GPa) = 89.77177 40.92541 31.28368
#
# Poissons Ratio (x) = 0.24929 0.19772
# Poissons Ratio (y) = 0.54683 0.23235
# Poissons Ratio (z) = 0.56737 0.30396
#
# Static dielectric constant tensor:
#      x y z
#    x 3.511210 0.000000 0.000000 
#    y 0.000000 2.708240 0.000000 
#    z 0.000000 0.000000 2.851950 
# 
# 
# High freq. dielectric constant tensor:
#      x y z
#    x 1.645310 0.000000 0.000000 
#    y 0.000000 1.589010 0.000000 
#    z 0.000000 0.000000 1.592630 
# 
# From -- ./inp_files/28458.got.cif
#   From: 2010.03.12/outbox.cif.g09.slc.cpg/sg64_15_cif.got.tgz:28458.got - 2010.04.10 20:19:32.
