data_PCOD8261124
_publ_section_title
;
Structure prediction by ZEFSAII (Michael W. Deem and Ramdas Pophale) SiO2 
 PCOD8261124
Probable space group: C M C M
;
_chemical_formula_sum "Si O2"
_cell_formula_units_Z 64
_cell_length_a 10.234143
_cell_length_b 17.558080
_cell_length_c 16.728081
_cell_angle_alpha 90.000000
_cell_angle_beta 90.000000
_cell_angle_gamma 90.000000
_cell_volume 3005.900684
_symmetry_space_group_name_H-M "C M C M"
_symmetry_group_IT_number 63
_symmetry_cell_setting 'orthorhombic'
loop_
_space_group_symop_operation_xyz
x,y,z
-x,-y,1/2+z
x,-y,-z
-x,y,1/2-z
-x,-y,-z
x,y,1/2-z
-x,y,z
x,-y,1/2+z
1/2+x,1/2+y,z
1/2-x,1/2-y,1/2+z
1/2+x,1/2-y,-z
1/2-x,1/2+y,1/2-z
1/2-x,1/2-y,-z
1/2+x,1/2+y,1/2-z
1/2-x,1/2+y,z
1/2+x,1/2-y,1/2+z
loop_
_atom_site_type_symbol
_atom_site_label
_atom_site_fract_x
_atom_site_fract_y
_atom_site_fract_z
Si Si1 0.500000 0.853320 0.343457
Si Si2 0.757163 0.092952 0.155729
Si Si3 0.763483 0.742965 0.906077
Si Si4 0.500000 0.980106 0.907652
Si Si5 0.000000 0.995181 0.345007
Si Si6 0.500000 0.325753 0.344030
O O1 0.500000 0.833558 0.250000
O O2 0.628585 0.819656 0.384646
O O3 0.500000 0.944108 0.354014
O O4 0.734814 0.086196 0.250000
O O5 0.804134 0.177310 0.133040
O O6 0.624870 0.071553 0.110818
O O7 0.870220 0.037007 0.124216
O O8 0.625561 0.719678 0.870902
O O9 0.750000 0.750000 0.000000
O O10 0.500000 0.000000 0.000000
O O11 0.000000 0.910401 0.381490
O O12 0.000000 0.995216 0.250000
O O13 0.500000 0.332682 0.250000
#
# Coordination Sequence:
#
# PCOD8261124 Si02
#       6
#     8  16  16   8   8   8
#     4  12  24  42  66  93 124 167 217 264 312 378
#     4  11  22  41  65  91 123 165 210 257 313 381
#     4  12  25  42  63  94 130 166 209 264 319 372
#     4  12  25  42  63  94 130 166 209 264 319 372
#     4   9  21  39  64  92 118 150 202 257 304 363
#     4  11  22  41  65  91 123 165 210 257 313 381
#
# _framework density 21.291454999999999
#
# number of rings (size 3 to 8) (size 9 to 14) (size 15 to 20)
#    0.000    0.750    0.000    8.625    0.000    3.000 
#    0.000    1.875    0.000    0.000    0.000    0.000 
#    0.000    0.000    0.000    0.000    0.000    0.000 
#
# Total GULP energy -397054.128505 kJ/mol
# GULP energy per Si atom -12407.941516 kJ/mol
# Density = 2.124300 g / cm^3
# Si number density = 21.291455 Si / 1000 Ang^3
#
#
#
# Elastic Constant Matrix: (Units=GPa)
#
#
# Indices 1 2 3 4 5 6 
#
# 1 97.9969 0.2380 30.3810 0.0000 0.0000 0.0000
# 2 0.2380 97.3301 13.1866 0.0000 0.0000 0.0000
# 3 30.3810 13.1866 87.1046 0.0000 0.0000 0.0000
# 4 0.0000 0.0000 0.0000 32.1753 0.0000 0.0000
# 5 0.0000 0.0000 0.0000 0.0000 15.5168 0.0000
# 6 0.0000 0.0000 0.0000 0.0000 0.0000 342.2450
#
#
#
# Elastic Compliance Matrix: (Units=1/GPa)
#
#
# Indices 1 2 3 4 5 6 
#
# 1 0.011468 0.000525 -0.004079 0.000000 0.000000 0.000000
# 2 0.000525 0.010513 -0.001775 0.000000 0.000000 0.000000
# 3 -0.004079 -0.001775 0.013172 0.000000 0.000000 0.000000
# 4 0.000000 0.000000 0.000000 0.031080 0.000000 0.000000
# 5 0.000000 0.000000 0.000000 0.000000 0.064446 0.000000
# 6 0.000000 0.000000 0.000000 0.000000 0.000000 0.002922
#
#
# Mechanical properties :
#
#
# Convention : Reuss Voigt Hill
#
# Bulk Modulus (GPa) = 40.82511 41.11584 40.97048
# Shear Modulus (GPa) = 32.80319 93.89583 63.34951
#
# Velocity S-wave (km/s) = 3.92940 6.64801 5.46059
# Velocity P-wave (km/s) = 6.30896 8.84765 7.68387
#
# Compressibility (1/GPa) = 0.02449473
#
# Stress axis : x y z
#
# Youngs Moduli (GPa) = 87.20086 95.11615 75.91930
#
# Poissons Ratio (x) = -0.04990 0.30969
# Poissons Ratio (y) = -0.04575 0.13473
# Poissons Ratio (z) = 0.35571 0.16879
#
# Static dielectric constant tensor:
#      x y z
#    x 3.977470 0.000000 0.000000 
#    y 0.000000 3.993600 0.000000 
#    z 0.000000 0.000000 3.759520 
# 
# 
# High freq. dielectric constant tensor:
#      x y z
#    x 1.852950 0.000000 0.000000 
#    y 0.000000 1.854550 0.000000 
#    z 0.000000 0.000000 1.835250 
# 
# From -- ./inp_files/29203.got.cif
#   From: 2010.03.12/outbox.cif.g09.slc.cpg/sg63_15_cif.got.tgz:29203.got - 2010.04.10 19:34:48.
