data_PCOD8261967
_publ_section_title
;
Structure prediction by ZEFSAII (Michael W. Deem and Ramdas Pophale) SiO2 
 PCOD8261967
Probable space group: C M C A
;
_chemical_formula_sum "Si O2"
_cell_formula_units_Z 128
_cell_length_a 9.474504
_cell_length_b 27.447095
_cell_length_c 33.975424
_cell_angle_alpha 90.000000
_cell_angle_beta 90.000000
_cell_angle_gamma 90.000000
_cell_volume 8835.227856
_symmetry_space_group_name_H-M "C M C A"
_symmetry_group_IT_number 64
_symmetry_cell_setting 'orthorhombic'
loop_
_space_group_symop_operation_xyz
x,y,z
-x,1/2-y,1/2+z
x,-y,-z
-x,1/2+y,1/2-z
-x,-y,-z
x,1/2+y,1/2-z
-x,y,z
x,1/2-y,1/2+z
1/2+x,1/2+y,z
1/2-x,-y,1/2+z
1/2+x,1/2-y,-z
1/2-x,y,1/2-z
1/2-x,1/2-y,-z
1/2+x,y,1/2-z
1/2-x,1/2+y,z
1/2+x,-y,1/2+z
loop_
_atom_site_type_symbol
_atom_site_label
_atom_site_fract_x
_atom_site_fract_y
_atom_site_fract_z
Si Si1 0.666575 0.480386 0.438752
Si Si2 0.663955 0.317600 0.521074
Si Si3 0.155289 0.816373 0.215184
Si Si4 0.666311 0.818768 0.373273
Si Si5 0.665716 0.431190 0.128130
Si Si6 0.665983 0.926304 0.984520
Si Si7 0.655250 0.931840 0.284396
Si Si8 0.664438 0.264864 0.439943
O O1 0.500000 0.473779 0.432172
O O2 0.747707 0.467223 0.399330
O O3 0.724784 0.445909 0.473818
O O4 0.704344 0.536363 0.449525
O O5 0.500000 0.312548 0.533624
O O6 0.723316 0.372574 0.525190
O O7 0.684293 0.302047 0.475904
O O8 0.760078 0.285921 0.549972
O O9 0.250000 0.793301 0.250000
O O10 0.210934 0.804123 0.171297
O O11 0.147500 0.874058 0.219975
O O12 0.000000 0.793819 0.220503
O O13 0.500000 0.809063 0.380122
O O14 0.701946 0.875185 0.381451
O O15 0.760934 0.786537 0.401767
O O16 0.500000 0.440408 0.122899
O O17 0.714638 0.444544 0.172418
O O18 0.500000 0.923528 0.989885
O O19 0.500000 0.954325 0.279273
O O20 0.750000 0.955191 0.250000
O O21 0.500000 0.255361 0.431039
#
# Coordination Sequence:
#
# PCOD8261967 Si02
#       8
#    16  16  16  16  16  16  16  16
#     4   9  16  27  43  61  79 101 134 169 195 227
#     4   9  17  30  44  56  77 108 134 160 201 243
#     4   8  14  24  37  53  74 102 133 160 189 226
#     4   9  17  28  40  55  80 112 137 159 194 238
#     4   9  17  27  38  56  83 109 132 162 199 234
#     4   8  15  28  44  59  77 104 135 165 196 232
#     4   8  14  24  36  51  74 103 132 160 189 225
#     4  10  19  28  41  62  80  98 133 173 201 230
#
# _framework density 14.487458999999999
#
# number of rings (size 3 to 8) (size 9 to 14) (size 15 to 20)
#    0.000    3.250    0.000    3.375    0.000    3.000 
#    0.000    5.000    0.000    0.000    0.000    0.000 
#    0.000    1.000    0.000    8.500    0.000    6.375 
#
# Total GULP energy -793210.652286 kJ/mol
# GULP energy per Si atom -12393.916442 kJ/mol
# Density = 1.445448 g / cm^3
# Si number density = 14.487459 Si / 1000 Ang^3
#
#
#
# Elastic Constant Matrix: (Units=GPa)
#
#
# Indices 1 2 3 4 5 6 
#
# 1 62.2641 38.6345 57.7089 0.0000 0.0000 0.0000
# 2 38.6345 84.9573 49.2230 0.0000 0.0000 0.0000
# 3 57.7089 49.2230 116.5118 0.0000 0.0000 0.0000
# 4 0.0000 0.0000 0.0000 18.3231 0.0000 0.0000
# 5 0.0000 0.0000 0.0000 0.0000 27.3591 0.0000
# 6 0.0000 0.0000 0.0000 0.0000 0.0000 16.2409
#
#
#
# Elastic Compliance Matrix: (Units=1/GPa)
#
#
# Indices 1 2 3 4 5 6 
#
# 1 0.032772 -0.007281 -0.013156 0.000000 0.000000 0.000000
# 2 -0.007281 0.017203 -0.003662 0.000000 0.000000 0.000000
# 3 -0.013156 -0.003662 0.016646 0.000000 0.000000 0.000000
# 4 0.000000 0.000000 0.000000 0.054576 0.000000 0.000000
# 5 0.000000 0.000000 0.000000 0.000000 0.036551 0.000000
# 6 0.000000 0.000000 0.000000 0.000000 0.000000 0.061573
#
#
# Mechanical properties :
#
#
# Convention : Reuss Voigt Hill
#
# Bulk Modulus (GPa) = 54.27687 61.65178 57.96432
# Shear Modulus (GPa) = 18.27088 20.26238 19.26663
#
# Velocity S-wave (km/s) = 3.55512 3.74386 3.65071
# Velocity P-wave (km/s) = 7.37549 7.83175 7.60704
#
# Compressibility (1/GPa) = 0.01842405
#
# Stress axis : x y z
#
# Youngs Moduli (GPa) = 30.51389 58.12945 60.07389
#
# Poissons Ratio (x) = 0.42321 0.79035
# Poissons Ratio (y) = 0.22216 0.21997
# Poissons Ratio (z) = 0.40145 0.21285
#
# Static dielectric constant tensor:
#      x y z
#    x 2.855660 0.000000 0.000000 
#    y 0.000000 2.720570 0.000000 
#    z 0.000000 0.000000 2.851330 
# 
# 
# High freq. dielectric constant tensor:
#      x y z
#    x 1.547870 0.000000 0.000000 
#    y 0.000000 1.513820 0.000000 
#    z 0.000000 0.000000 1.552090 
# 
# From -- ./inp_files/44559.got.cif
#   From: 2010.03.12/outbox.cif.g09.slc.cpg/sg64_23_cif.got.tgz:44559.got - 2010.04.10 20:19:32.
