data_PCOD8261438
_publ_section_title
;
Structure prediction by ZEFSAII (Michael W. Deem and Ramdas Pophale) SiO2 
 PCOD8261438
Probable space group: C M C A
;
_chemical_formula_sum "Si O2"
_cell_formula_units_Z 112
_cell_length_a 19.617299
_cell_length_b 12.852381
_cell_length_c 23.409568
_cell_angle_alpha 90.000000
_cell_angle_beta 90.000000
_cell_angle_gamma 90.000000
_cell_volume 5902.230992
_symmetry_space_group_name_H-M "C M C A"
_symmetry_group_IT_number 64
_symmetry_cell_setting 'orthorhombic'
loop_
_space_group_symop_operation_xyz
x,y,z
-x,1/2-y,1/2+z
x,-y,-z
-x,1/2+y,1/2-z
-x,-y,-z
x,1/2+y,1/2-z
-x,y,z
x,1/2-y,1/2+z
1/2+x,1/2+y,z
1/2-x,-y,1/2+z
1/2+x,1/2-y,-z
1/2-x,y,1/2-z
1/2-x,1/2-y,-z
1/2+x,y,1/2-z
1/2-x,1/2+y,z
1/2+x,-y,1/2+z
loop_
_atom_site_type_symbol
_atom_site_label
_atom_site_fract_x
_atom_site_fract_y
_atom_site_fract_z
Si Si1 0.822419 0.743455 0.229207
Si Si2 0.858253 0.438817 0.341058
Si Si3 0.851586 0.724872 0.423792
Si Si4 0.576124 0.642483 0.179769
Si Si5 0.318811 0.053122 0.945562
Si Si6 0.836248 0.101375 0.968215
Si Si7 0.761097 0.404746 0.861062
O O1 0.750000 0.787934 0.250000
O O2 0.860473 0.838954 0.199512
O O3 0.868289 0.699978 0.280661
O O4 0.806026 0.647921 0.187592
O O5 0.917492 0.516800 0.319985
O O6 0.869599 0.394919 0.405344
O O7 0.789107 0.506821 0.336245
O O8 0.912446 0.678553 0.385669
O O9 0.858920 0.849189 0.419590
O O10 0.858077 0.697080 0.491158
O O11 0.780127 0.680493 0.398411
O O12 0.500000 0.671885 0.199852
O O13 0.245026 0.096988 0.963478
O O14 0.316550 0.962166 0.899344
O O15 0.355518 0.000000 0.000000
O O16 0.864501 0.000000 0.000000
#
# Coordination Sequence:
#
# PCOD8261438 Si02
#       7
#    16  16  16  16  16  16  16
#     4  12  24  37  63  92 122 159 204 264 307 357
#     4  10  22  36  60  91 125 155 202 252 307 359
#     4  11  19  35  57  86 124 160 199 245 306 367
#     4  11  26  45  61  83 121 168 211 250 305 371
#     4  10  19  27  52  89 130 154 179 237 314 366
#     4  10  16  32  56  90 126 152 188 248 310 364
#     4  10  19  34  52  91 120 155 191 248 305 361
#
# _framework density 18.975874999999998
#
# number of rings (size 3 to 8) (size 9 to 14) (size 15 to 20)
#    0.000    1.429    8.571    2.143    4.000    0.571 
#    0.000    1.429    0.000    0.429    0.000    0.000 
#    0.000    0.000    0.000    0.000    0.000    0.000 
#
# Total GULP energy -694100.374001 kJ/mol
# GULP energy per Si atom -12394.649536 kJ/mol
# Density = 1.893269 g / cm^3
# Si number density = 18.975875 Si / 1000 Ang^3
#
#
#
# Elastic Constant Matrix: (Units=GPa)
#
#
# Indices 1 2 3 4 5 6 
#
# 1 62.3390 17.7179 26.3107 0.0000 0.0000 0.0000
# 2 17.7179 95.7194 50.7722 0.0000 0.0000 0.0000
# 3 26.3107 50.7722 102.0267 0.0000 0.0000 0.0000
# 4 0.0000 0.0000 0.0000 34.0726 0.0000 0.0000
# 5 0.0000 0.0000 0.0000 0.0000 9.8441 0.0000
# 6 0.0000 0.0000 0.0000 0.0000 0.0000 9.7238
#
#
#
# Elastic Compliance Matrix: (Units=1/GPa)
#
#
# Indices 1 2 3 4 5 6 
#
# 1 0.018099 -0.001188 -0.004076 0.000000 0.000000 0.000000
# 2 -0.001188 0.014272 -0.006796 0.000000 0.000000 0.000000
# 3 -0.004076 -0.006796 0.014234 0.000000 0.000000 0.000000
# 4 0.000000 0.000000 0.000000 0.029349 0.000000 0.000000
# 5 0.000000 0.000000 0.000000 0.000000 0.101584 0.000000
# 6 0.000000 0.000000 0.000000 0.000000 0.000000 0.102840
#
#
# Mechanical properties :
#
#
# Convention : Reuss Voigt Hill
#
# Bulk Modulus (GPa) = 44.47342 49.96520 47.21931
# Shear Modulus (GPa) = 16.02594 21.74705 18.88650
#
# Velocity S-wave (km/s) = 2.90925 3.38899 3.15824
# Velocity P-wave (km/s) = 5.89684 6.45769 6.18363
#
# Compressibility (1/GPa) = 0.02248534
#
# Stress axis : x y z
#
# Youngs Moduli (GPa) = 55.25033 70.06830 70.25248
#
# Poissons Ratio (x) = 0.08325 0.28637
# Poissons Ratio (y) = 0.06564 0.47742
# Poissons Ratio (z) = 0.22521 0.47617
#
# Static dielectric constant tensor:
#      x y z
#    x 2.872830 0.000000 0.000000 
#    y 0.000000 3.589510 0.000000 
#    z 0.000000 0.000000 3.690680 
# 
# 
# High freq. dielectric constant tensor:
#      x y z
#    x 1.662430 0.000000 0.000000 
#    y 0.000000 1.746390 0.000000 
#    z 0.000000 0.000000 1.751040 
# 
# From -- ./inp_files/46356.got.cif
#   From: 2010.03.12/outbox.cif.g09.slc.cpg/sg64_24_cif.got.tgz:46356.got - 2010.04.10 20:19:32.
