data_PCOD8261728
_publ_section_title
;
Structure prediction by ZEFSAII (Michael W. Deem and Ramdas Pophale) SiO2 
 PCOD8261728
Probable space group: C M C A
;
_chemical_formula_sum "Si O2"
_cell_formula_units_Z 112
_cell_length_a 27.209650
_cell_length_b 25.314926
_cell_length_c 8.767624
_cell_angle_alpha 90.000000
_cell_angle_beta 90.000000
_cell_angle_gamma 90.000000
_cell_volume 6039.229509
_symmetry_space_group_name_H-M "C M C A"
_symmetry_group_IT_number 64
_symmetry_cell_setting 'orthorhombic'
loop_
_space_group_symop_operation_xyz
x,y,z
-x,1/2-y,1/2+z
x,-y,-z
-x,1/2+y,1/2-z
-x,-y,-z
x,1/2+y,1/2-z
-x,y,z
x,1/2-y,1/2+z
1/2+x,1/2+y,z
1/2-x,-y,1/2+z
1/2+x,1/2-y,-z
1/2-x,y,1/2-z
1/2-x,1/2-y,-z
1/2+x,y,1/2-z
1/2-x,1/2+y,z
1/2+x,-y,1/2+z
loop_
_atom_site_type_symbol
_atom_site_label
_atom_site_fract_x
_atom_site_fract_y
_atom_site_fract_z
Si Si1 0.054589 0.323342 0.384045
Si Si2 0.554537 0.275851 0.794538
Si Si3 0.195821 0.272546 0.524437
Si Si4 0.191201 0.911982 0.747652
Si Si5 0.153273 0.623462 0.569909
Si Si6 0.348844 0.811549 0.835768
Si Si7 0.700483 0.022317 0.671385
O O1 0.063912 0.286359 0.237019
O O2 0.059497 0.283307 0.525534
O O3 0.095489 0.368570 0.396552
O O4 0.000000 0.349493 0.379068
O O5 0.500000 0.292218 0.736518
O O6 0.594173 0.312964 0.710948
O O7 0.250000 0.250000 0.500000
O O8 0.184376 0.322078 0.409431
O O9 0.158280 0.225386 0.482451
O O10 0.185811 0.288904 0.698773
O O11 0.250000 0.905624 0.750000
O O12 0.169218 0.871513 0.621570
O O13 0.178051 0.974078 0.726082
O O14 0.163126 0.893880 0.898603
O O15 0.167655 0.574814 0.679243
O O16 0.750000 0.041338 0.750000
O O17 0.709812 0.000000 0.500000
#
# Coordination Sequence:
#
# PCOD8261728 Si02
#       7
#    16  16  16  16  16  16  16
#     4  10  19  33  53  73 101 133 169 207 250 301
#     4  10  18  31  50  72  98 133 169 203 246 301
#     4  11  21  30  44  70 103 133 158 194 248 302
#     4   9  17  31  49  68  94 135 169 196 241 291
#     4  10  18  33  49  72 102 131 167 207 254 294
#     4  11  18  32  47  69 101 130 159 200 246 297
#     4   9  19  34  54  71  96 133 174 209 241 292
#
# _framework density 18.545411999999999
#
# number of rings (size 3 to 8) (size 9 to 14) (size 15 to 20)
#    0.000    2.000    4.286    2.143    0.000    1.143 
#    0.000    0.000    0.000    4.714    0.000    0.000 
#    0.000    0.571    0.000    0.000    0.000    4.714 
#
# Total GULP energy -693739.581745 kJ/mol
# GULP energy per Si atom -12388.206817 kJ/mol
# Density = 1.850320 g / cm^3
# Si number density = 18.545412 Si / 1000 Ang^3
#
#
#
# Elastic Constant Matrix: (Units=GPa)
#
#
# Indices 1 2 3 4 5 6 
#
# 1 131.8251 59.8971 13.1975 0.0000 0.0000 0.0000
# 2 59.8971 139.8367 15.2256 0.0000 0.0000 0.0000
# 3 13.1975 15.2256 26.6694 0.0000 0.0000 0.0000
# 4 0.0000 0.0000 0.0000 19.0872 0.0000 0.0000
# 5 0.0000 0.0000 0.0000 0.0000 23.8191 0.0000
# 6 0.0000 0.0000 0.0000 0.0000 0.0000 23.9383
#
#
#
# Elastic Compliance Matrix: (Units=1/GPa)
#
#
# Indices 1 2 3 4 5 6 
#
# 1 0.009580 -0.003825 -0.002557 0.000000 0.000000 0.000000
# 2 -0.003825 0.009152 -0.003332 0.000000 0.000000 0.000000
# 3 -0.002557 -0.003332 0.040664 0.000000 0.000000 0.000000
# 4 0.000000 0.000000 0.000000 0.052391 0.000000 0.000000
# 5 0.000000 0.000000 0.000000 0.000000 0.041983 0.000000
# 6 0.000000 0.000000 0.000000 0.000000 0.000000 0.041774
#
#
# Mechanical properties :
#
#
# Convention : Reuss Voigt Hill
#
# Bulk Modulus (GPa) = 25.02025 52.77463 38.89744
# Shear Modulus (GPa) = 21.90146 27.36964 24.63555
#
# Velocity S-wave (km/s) = 3.44024 3.84580 3.64866
# Velocity P-wave (km/s) = 5.41304 6.94543 6.22656
#
# Compressibility (1/GPa) = 0.03996762
#
# Stress axis : x y z
#
# Youngs Moduli (GPa) = 104.38721 109.26111 24.59187
#
# Poissons Ratio (x) = 0.41792 0.06288
# Poissons Ratio (y) = 0.39927 0.08195
# Poissons Ratio (z) = 0.26691 0.36409
#
# Static dielectric constant tensor:
#      x y z
#    x 3.618790 0.000000 0.000000 
#    y 0.000000 3.885840 0.000000 
#    z 0.000000 0.000000 3.317020 
# 
# 
# High freq. dielectric constant tensor:
#      x y z
#    x 1.716450 0.000000 0.000000 
#    y 0.000000 1.709170 0.000000 
#    z 0.000000 0.000000 1.694340 
# 
# From -- ./inp_files/19375.got.cif
#   From: 2010.03.12/outbox.cif.g09.slc.cpg/sg64_10_cif.got.tgz:19375.got - 2010.04.10 20:19:32.
