data_PCOD8261706
_publ_section_title
;
Structure prediction by ZEFSAII (Michael W. Deem and Ramdas Pophale) SiO2 
 PCOD8261706
Probable space group: C M C A
;
_chemical_formula_sum "Si O2"
_cell_formula_units_Z 128
_cell_length_a 18.260264
_cell_length_b 19.960379
_cell_length_c 20.532118
_cell_angle_alpha 90.000000
_cell_angle_beta 90.000000
_cell_angle_gamma 90.000000
_cell_volume 7483.583123
_symmetry_space_group_name_H-M "C M C A"
_symmetry_group_IT_number 64
_symmetry_cell_setting 'orthorhombic'
loop_
_space_group_symop_operation_xyz
x,y,z
-x,1/2-y,1/2+z
x,-y,-z
-x,1/2+y,1/2-z
-x,-y,-z
x,1/2+y,1/2-z
-x,y,z
x,1/2-y,1/2+z
1/2+x,1/2+y,z
1/2-x,-y,1/2+z
1/2+x,1/2-y,-z
1/2-x,y,1/2-z
1/2-x,1/2-y,-z
1/2+x,y,1/2-z
1/2-x,1/2+y,z
1/2+x,-y,1/2+z
loop_
_atom_site_type_symbol
_atom_site_label
_atom_site_fract_x
_atom_site_fract_y
_atom_site_fract_z
Si Si1 0.181281 0.102706 0.504511
Si Si2 0.683555 0.505673 0.392732
Si Si3 0.581710 0.805864 0.809409
Si Si4 0.710204 0.699472 0.952158
Si Si5 0.912635 0.454168 0.774351
Si Si6 0.581776 0.214935 0.040870
Si Si7 0.307295 0.190506 0.692453
Si Si8 0.809393 0.961249 0.193736
O O1 0.188601 0.075301 0.431452
O O2 0.262957 0.126257 0.526396
O O3 0.122978 0.163120 0.506483
O O4 0.153438 0.049543 0.557043
O O5 0.622963 0.509403 0.336553
O O6 0.765842 0.488034 0.369313
O O7 0.500000 0.789611 0.785300
O O8 0.608393 0.875286 0.775927
O O9 0.582571 0.816111 0.886990
O O10 0.630169 0.743020 0.787261
O O11 0.622879 0.712686 0.959560
O O12 0.730502 0.712043 0.875921
O O13 0.750000 0.750000 0.000000
O O14 0.877256 0.489118 0.710340
O O15 0.000000 0.464731 0.775076
O O16 0.500000 0.226537 0.014843
O O17 0.250000 0.192502 0.750000
O O18 0.339136 0.114809 0.683890
O O19 0.750000 0.962239 0.250000
#
# Coordination Sequence:
#
# PCOD8261706 Si02
#       8
#    16  16  16  16  16  16  16  16
#     4  10  18  30  52  76 104 136 171 213 262 314
#     4  10  19  31  50  77 103 135 174 215 260 320
#     4   9  18  33  50  73 102 131 172 218 261 318
#     4   9  18  33  52  77 106 137 174 220 264 316
#     4  10  20  35  52  75 106 137 171 220 271 318
#     4   9  17  31  51  75 102 133 170 212 264 319
#     4  10  19  33  55  77 103 137 178 223 264 316
#     4   9  19  34  51  74 105 138 174 216 264 318
#
# _framework density 17.104106000000002
#
# number of rings (size 3 to 8) (size 9 to 14) (size 15 to 20)
#    0.000    2.500    2.500    0.000    0.000    2.500 
#    0.000    1.250    0.000    1.500    0.000    1.750 
#    0.000    0.000    0.000    0.000    0.000    0.000 
#
# Total GULP energy -793051.829375 kJ/mol
# GULP energy per Si atom -12391.434834 kJ/mol
# Density = 1.706518 g / cm^3
# Si number density = 17.104106 Si / 1000 Ang^3
#
#
#
# Elastic Constant Matrix: (Units=GPa)
#
#
# Indices 1 2 3 4 5 6 
#
# 1 107.2316 55.4097 31.7615 0.0000 0.0000 0.0000
# 2 55.4097 74.1225 7.4945 0.0000 0.0000 0.0000
# 3 31.7615 7.4945 52.8285 0.0000 0.0000 0.0000
# 4 0.0000 0.0000 0.0000 21.8333 0.0000 0.0000
# 5 0.0000 0.0000 0.0000 0.0000 19.5385 0.0000
# 6 0.0000 0.0000 0.0000 0.0000 0.0000 28.5623
#
#
#
# Elastic Compliance Matrix: (Units=1/GPa)
#
#
# Indices 1 2 3 4 5 6 
#
# 1 0.018987 -0.013229 -0.009538 0.000000 0.000000 0.000000
# 2 -0.013229 0.022905 0.004704 0.000000 0.000000 0.000000
# 3 -0.009538 0.004704 0.023996 0.000000 0.000000 0.000000
# 4 0.000000 0.000000 0.000000 0.045802 0.000000 0.000000
# 5 0.000000 0.000000 0.000000 0.000000 0.051181 0.000000
# 6 0.000000 0.000000 0.000000 0.000000 0.000000 0.035011
#
#
# Mechanical properties :
#
#
# Convention : Reuss Voigt Hill
#
# Bulk Modulus (GPa) = 33.60054 47.05710 40.32882
# Shear Modulus (GPa) = 20.49783 23.28796 21.89289
#
# Velocity S-wave (km/s) = 3.46557 3.69391 3.58156
# Velocity P-wave (km/s) = 5.97503 6.76500 6.38225
#
# Compressibility (1/GPa) = 0.02976142
#
# Stress axis : x y z
#
# Youngs Moduli (GPa) = 52.66881 43.65919 41.67281
#
# Poissons Ratio (x) = 0.57756 0.39749
# Poissons Ratio (y) = 0.69675 -0.19603
# Poissons Ratio (z) = 0.50237 -0.20538
#
# Static dielectric constant tensor:
#      x y z
#    x 3.273440 0.000000 0.000000 
#    y 0.000000 3.454680 0.000000 
#    z 0.000000 0.000000 3.186100 
# 
# 
# High freq. dielectric constant tensor:
#      x y z
#    x 1.642160 0.000000 0.000000 
#    y 0.000000 1.663560 0.000000 
#    z 0.000000 0.000000 1.648540 
# 
# From -- ./inp_files/40536.got.cif
#   From: 2010.03.12/outbox.cif.g09.slc.cpg/sg64_21_cif.got.tgz:40536.got - 2010.04.10 20:19:32.
