data_PCOD8261328
_publ_section_title
;
Structure prediction by ZEFSAII (Michael W. Deem and Ramdas Pophale) SiO2 
 PCOD8261328
Probable space group: C M C M
;
_chemical_formula_sum "Si O2"
_cell_formula_units_Z 80
_cell_length_a 18.859876
_cell_length_b 27.116274
_cell_length_c 9.279038
_cell_angle_alpha 90.000000
_cell_angle_beta 90.000000
_cell_angle_gamma 90.000000
_cell_volume 4745.388789
_symmetry_space_group_name_H-M "C M C M"
_symmetry_group_IT_number 63
_symmetry_cell_setting 'orthorhombic'
loop_
_space_group_symop_operation_xyz
x,y,z
-x,-y,1/2+z
x,-y,-z
-x,y,1/2-z
-x,-y,-z
x,y,1/2-z
-x,y,z
x,-y,1/2+z
1/2+x,1/2+y,z
1/2-x,1/2-y,1/2+z
1/2+x,1/2-y,-z
1/2-x,1/2+y,1/2-z
1/2-x,1/2-y,-z
1/2+x,1/2+y,1/2-z
1/2-x,1/2+y,z
1/2+x,1/2-y,1/2+z
loop_
_atom_site_type_symbol
_atom_site_label
_atom_site_fract_x
_atom_site_fract_y
_atom_site_fract_z
Si Si1 0.921589 0.349351 0.920854
Si Si2 0.421537 0.449603 0.582122
Si Si3 0.647205 0.049461 0.079883
Si Si4 0.781687 0.296815 0.921238
Si Si5 0.285086 0.396463 0.920110
O O1 0.921762 0.349850 0.750000
O O2 0.901467 0.404660 0.971498
O O3 0.863080 0.308761 0.969983
O O4 0.000000 0.335513 0.981464
O O5 0.410265 0.500000 0.500000
O O6 0.410007 0.460697 0.750000
O O7 0.500000 0.427685 0.552542
O O8 0.363381 0.410907 0.524131
O O9 0.640785 0.040578 0.250000
O O10 0.727772 0.062498 0.031877
O O11 0.622037 0.000000 0.000000
O O12 0.776925 0.289013 0.750000
O O13 0.734239 0.342437 0.978084
O O14 0.750000 0.250000 0.000000
O O15 0.282010 0.393017 0.750000
#
# Coordination Sequence:
#
# PCOD8261328 Si02
#       5
#    16  16  16  16  16
#     4   8  15  29  47  64  85 117 150 173 203 256
#     4   9  16  26  41  60  83 112 142 170 203 246
#     4   9  16  26  42  63  86 113 143 173 204 243
#     4   9  17  31  50  67  84 109 143 182 219 257
#     4   8  15  28  43  59  82 112 142 169 205 257
#
# _framework density 16.858471999999999
#
# number of rings (size 3 to 8) (size 9 to 14) (size 15 to 20)
#    0.000    3.400    0.000    3.000    0.000    0.400 
#    0.000    6.000    0.000    3.000    0.000    0.000 
#    0.000    0.000    0.000    0.000    0.000    0.000 
#
# Total GULP energy -495600.980974 kJ/mol
# GULP energy per Si atom -12390.024524 kJ/mol
# Density = 1.682010 g / cm^3
# Si number density = 16.858472 Si / 1000 Ang^3
#
#
#
# Elastic Constant Matrix: (Units=GPa)
#
#
# Indices 1 2 3 4 5 6 
#
# 1 163.2541 72.7384 25.9206 0.0000 0.0000 0.0000
# 2 72.7384 108.9382 27.5911 0.0000 0.0000 0.0000
# 3 25.9206 27.5911 25.6007 0.0000 0.0000 0.0000
# 4 0.0000 0.0000 0.0000 29.1650 0.0000 0.0000
# 5 0.0000 0.0000 0.0000 0.0000 13.9740 0.0000
# 6 0.0000 0.0000 0.0000 0.0000 0.0000 21.6435
#
#
#
# Elastic Compliance Matrix: (Units=1/GPa)
#
#
# Indices 1 2 3 4 5 6 
#
# 1 0.008955 -0.005066 -0.003608 0.000000 0.000000 0.000000
# 2 -0.005066 0.015492 -0.011567 0.000000 0.000000 0.000000
# 3 -0.003608 -0.011567 0.055180 0.000000 0.000000 0.000000
# 4 0.000000 0.000000 0.000000 0.034288 0.000000 0.000000
# 5 0.000000 0.000000 0.000000 0.000000 0.071561 0.000000
# 6 0.000000 0.000000 0.000000 0.000000 0.000000 0.046203
#
#
# Mechanical properties :
#
#
# Convention : Reuss Voigt Hill
#
# Bulk Modulus (GPa) = 25.54498 61.14369 43.34433
# Shear Modulus (GPa) = 17.53103 24.39270 20.96187
#
# Velocity S-wave (km/s) = 3.22824 3.80795 3.53002
# Velocity P-wave (km/s) = 5.39267 7.46201 6.51009
#
# Compressibility (1/GPa) = 0.03914663
#
# Stress axis : x y z
#
# Youngs Moduli (GPa) = 111.66601 64.55145 18.12244
#
# Poissons Ratio (x) = 0.32700 0.06538
# Poissons Ratio (y) = 0.56567 0.20962
# Poissons Ratio (z) = 0.40284 0.74666
#
# Static dielectric constant tensor:
#      x y z
#    x 3.764340 0.000000 0.000000 
#    y 0.000000 3.152660 0.000000 
#    z 0.000000 0.000000 2.733330 
# 
# 
# High freq. dielectric constant tensor:
#      x y z
#    x 1.661870 0.000000 0.000000 
#    y 0.000000 1.635550 0.000000 
#    z 0.000000 0.000000 1.606980 
# 
# From -- ./inp_files/6415.got.cif
#   From: 2010.03.12/outbox.cif.g09.slc.cpg/sg63_4_cif.got.tgz:6415.got - 2010.04.10 19:34:48.
