data_PCOD8261947
_publ_section_title
;
Structure prediction by ZEFSAII (Michael W. Deem and Ramdas Pophale) SiO2 
 PCOD8261947
Probable space group: C M C A
;
_chemical_formula_sum "Si O2"
_cell_formula_units_Z 80
_cell_length_a 13.514295
_cell_length_b 13.854579
_cell_length_c 22.485596
_cell_angle_alpha 90.000000
_cell_angle_beta 90.000000
_cell_angle_gamma 90.000000
_cell_volume 4210.087592
_symmetry_space_group_name_H-M "C M C A"
_symmetry_group_IT_number 64
_symmetry_cell_setting 'orthorhombic'
loop_
_space_group_symop_operation_xyz
x,y,z
-x,1/2-y,1/2+z
x,-y,-z
-x,1/2+y,1/2-z
-x,-y,-z
x,1/2+y,1/2-z
-x,y,z
x,1/2-y,1/2+z
1/2+x,1/2+y,z
1/2-x,-y,1/2+z
1/2+x,1/2-y,-z
1/2-x,y,1/2-z
1/2-x,1/2-y,-z
1/2+x,y,1/2-z
1/2-x,1/2+y,z
1/2+x,-y,1/2+z
loop_
_atom_site_type_symbol
_atom_site_label
_atom_site_fract_x
_atom_site_fract_y
_atom_site_fract_z
Si Si1 0.885385 0.178435 0.375187
Si Si2 0.778889 0.681414 0.882230
Si Si3 0.115314 0.369801 0.607623
Si Si4 0.765654 0.983756 0.681151
Si Si5 0.274818 0.890707 0.986871
O O1 0.826476 0.276732 0.359587
O O2 0.859181 0.148279 0.442513
O O3 0.000000 0.199337 0.367297
O O4 0.851744 0.094438 0.329802
O O5 0.863726 0.761186 0.868328
O O6 0.802512 0.582804 0.848907
O O7 0.774645 0.670849 0.953357
O O8 0.162694 0.448070 0.652443
O O9 0.166718 0.383968 0.543491
O O10 0.000000 0.390422 0.601965
O O11 0.750000 0.002654 0.750000
O O12 0.302979 0.000000 0.000000
#
# Coordination Sequence:
#
# PCOD8261947 Si02
#       5
#    16  16  16  16  16
#     4  10  22  37  59  87 115 147 187 233 281 337
#     4  10  20  38  58  86 117 150 186 226 285 339
#     4  10  22  37  59  87 115 147 187 233 281 337
#     4  10  22  42  60  77 113 153 191 239 282 327
#     4  10  18  37  58  86 119 150 182 224 282 343
#
# _framework density 19.001981000000001
#
# number of rings (size 3 to 8) (size 9 to 14) (size 15 to 20)
#    0.000    2.400    4.000    2.400    0.000    9.600 
#    0.000    0.000    0.000    0.000    0.000    0.000 
#    0.000    0.000    0.000    0.000    0.000    0.000 
#
# Total GULP energy -495908.066933 kJ/mol
# GULP energy per Si atom -12397.701673 kJ/mol
# Density = 1.895873 g / cm^3
# Si number density = 19.001981 Si / 1000 Ang^3
#
#
#
# Elastic Constant Matrix: (Units=GPa)
#
#
# Indices 1 2 3 4 5 6 
#
# 1 74.5229 -22.8800 -13.5445 0.0000 0.0000 0.0000
# 2 -22.8800 65.1827 3.1141 0.0000 0.0000 0.0000
# 3 -13.5445 3.1141 91.7225 0.0000 0.0000 0.0000
# 4 0.0000 0.0000 0.0000 14.1385 0.0000 0.0000
# 5 0.0000 0.0000 0.0000 0.0000 10.3362 0.0000
# 6 0.0000 0.0000 0.0000 0.0000 0.0000 11.1830
#
#
#
# Elastic Compliance Matrix: (Units=1/GPa)
#
#
# Indices 1 2 3 4 5 6 
#
# 1 0.015432 0.005317 0.002098 0.000000 0.000000 0.000000
# 2 0.005317 0.017198 0.000201 0.000000 0.000000 0.000000
# 3 0.002098 0.000201 0.011205 0.000000 0.000000 0.000000
# 4 0.000000 0.000000 0.000000 0.070729 0.000000 0.000000
# 5 0.000000 0.000000 0.000000 0.000000 0.096747 0.000000
# 6 0.000000 0.000000 0.000000 0.000000 0.000000 0.089422
#
#
# Mechanical properties :
#
#
# Convention : Reuss Voigt Hill
#
# Bulk Modulus (GPa) = 16.92946 18.31192 17.62069
# Shear Modulus (GPa) = 16.38320 24.78077 20.58198
#
# Velocity S-wave (km/s) = 2.93948 3.61517 3.29469
# Velocity P-wave (km/s) = 4.52210 5.20420 4.87510
#
# Compressibility (1/GPa) = 0.05906864
#
# Stress axis : x y z
#
# Youngs Moduli (GPa) = 64.79866 58.14589 89.24206
#
# Poissons Ratio (x) = -0.30915 -0.18726
# Poissons Ratio (y) = -0.34452 -0.01796
# Poissons Ratio (z) = -0.13597 -0.01170
#
# Static dielectric constant tensor:
#      x y z
#    x 3.149200 0.000000 0.000000 
#    y 0.000000 3.674300 0.000000 
#    z 0.000000 0.000000 3.373380 
# 
# 
# High freq. dielectric constant tensor:
#      x y z
#    x 1.711540 0.000000 0.000000 
#    y 0.000000 1.759090 0.000000 
#    z 0.000000 0.000000 1.727620 
# 
# From -- ./inp_files/38960.got.cif
#   From: 2010.03.12/outbox.cif.g09.slc.cpg/sg64_20_cif.got.tgz:38960.got - 2010.04.10 20:19:32.
