data_PCOD8261478
_publ_section_title
;
Structure prediction by ZEFSAII (Michael W. Deem and Ramdas Pophale) SiO2 
 PCOD8261478
Probable space group: C M C A
;
_chemical_formula_sum "Si O2"
_cell_formula_units_Z 128
_cell_length_a 9.733330
_cell_length_b 28.626164
_cell_length_c 29.937759
_cell_angle_alpha 90.000000
_cell_angle_beta 90.000000
_cell_angle_gamma 90.000000
_cell_volume 8341.494946
_symmetry_space_group_name_H-M "C M C A"
_symmetry_group_IT_number 64
_symmetry_cell_setting 'orthorhombic'
loop_
_space_group_symop_operation_xyz
x,y,z
-x,1/2-y,1/2+z
x,-y,-z
-x,1/2+y,1/2-z
-x,-y,-z
x,1/2+y,1/2-z
-x,y,z
x,1/2-y,1/2+z
1/2+x,1/2+y,z
1/2-x,-y,1/2+z
1/2+x,1/2-y,-z
1/2-x,y,1/2-z
1/2-x,1/2-y,-z
1/2+x,y,1/2-z
1/2-x,1/2+y,z
1/2+x,-y,1/2+z
loop_
_atom_site_type_symbol
_atom_site_label
_atom_site_fract_x
_atom_site_fract_y
_atom_site_fract_z
Si Si1 0.160449 0.179145 0.207968
Si Si2 0.344951 0.380982 0.483181
Si Si3 0.660817 0.210852 0.386046
Si Si4 0.153103 0.622927 0.436900
Si Si5 0.652539 0.030787 0.383356
Si Si6 0.658660 0.929240 0.708891
Si Si7 0.160685 0.276854 0.037032
Si Si8 0.656665 0.980359 0.047795
O O1 0.250000 0.196190 0.250000
O O2 0.214001 0.209546 0.165115
O O3 0.189267 0.124857 0.197141
O O4 0.000000 0.188133 0.218482
O O5 0.500000 0.377476 0.501483
O O6 0.247145 0.394862 0.523397
O O7 0.301220 0.331644 0.461373
O O8 0.332172 0.424013 0.448774
O O9 0.500000 0.200576 0.382762
O O10 0.723485 0.168769 0.415516
O O11 0.695227 0.258431 0.412816
O O12 0.147423 0.583507 0.400016
O O13 0.000000 0.633761 0.455438
O O14 0.500000 0.008478 0.387265
O O15 0.697955 0.036226 0.331865
O O16 0.756677 0.999224 0.410889
O O17 0.500000 0.935046 0.721962
O O18 0.750000 0.946352 0.750000
O O19 0.000000 0.268297 0.025982
O O20 0.250000 0.250000 0.000000
O O21 0.500000 0.997262 0.053913
O O22 0.711480 0.000000 0.000000
#
# Coordination Sequence:
#
# PCOD8261478 Si02
#       8
#    16  16  16  16  16  16  16  16
#     4   9  16  28  44  63  89 117 143 174 215 263
#     4  10  20  32  43  62  91 119 152 192 222 256
#     4   9  16  28  45  64  88 120 148 174 217 265
#     4  10  17  27  45  65  88 119 152 182 215 259
#     4  10  19  30  46  68  90 117 155 189 215 259
#     4   9  17  29  44  65  91 116 143 178 218 263
#     4  10  19  30  46  66  88 117 152 186 220 261
#     4  10  20  32  44  61  90 124 153 185 228 268
#
# _framework density 15.344970999999999
#
# number of rings (size 3 to 8) (size 9 to 14) (size 15 to 20)
#    0.000    2.375    3.750    0.000    0.000    1.250 
#    0.000    1.250    0.000    0.000    0.000    0.875 
#    0.000    4.000    0.000    0.000    0.000    0.000 
#
# Total GULP energy -793250.630881 kJ/mol
# GULP energy per Si atom -12394.541108 kJ/mol
# Density = 1.531004 g / cm^3
# Si number density = 15.344971 Si / 1000 Ang^3
#
#
#
# Elastic Constant Matrix: (Units=GPa)
#
#
# Indices 1 2 3 4 5 6 
#
# 1 57.3961 27.8284 54.9904 0.0000 0.0000 0.0000
# 2 27.8284 76.4091 39.4942 0.0000 0.0000 0.0000
# 3 54.9904 39.4942 117.5234 0.0000 0.0000 0.0000
# 4 0.0000 0.0000 0.0000 22.7058 0.0000 0.0000
# 5 0.0000 0.0000 0.0000 0.0000 26.3285 0.0000
# 6 0.0000 0.0000 0.0000 0.0000 0.0000 16.2751
#
#
#
# Elastic Compliance Matrix: (Units=1/GPa)
#
#
# Indices 1 2 3 4 5 6 
#
# 1 0.033024 -0.004890 -0.013809 0.000000 0.000000 0.000000
# 2 -0.004890 0.016563 -0.003278 0.000000 0.000000 0.000000
# 3 -0.013809 -0.003278 0.016072 0.000000 0.000000 0.000000
# 4 0.000000 0.000000 0.000000 0.044042 0.000000 0.000000
# 5 0.000000 0.000000 0.000000 0.000000 0.037982 0.000000
# 6 0.000000 0.000000 0.000000 0.000000 0.000000 0.061444
#
#
# Mechanical properties :
#
#
# Convention : Reuss Voigt Hill
#
# Bulk Modulus (GPa) = 46.07260 55.10607 50.58933
# Shear Modulus (GPa) = 19.20761 21.66290 20.43526
#
# Velocity S-wave (km/s) = 3.54180 3.76137 3.65324
# Velocity P-wave (km/s) = 6.84219 7.40630 7.12983
#
# Compressibility (1/GPa) = 0.02170488
#
# Stress axis : x y z
#
# Youngs Moduli (GPa) = 30.28121 60.37687 62.22064
#
# Poissons Ratio (x) = 0.29523 0.85920
# Poissons Ratio (y) = 0.14807 0.20395
# Poissons Ratio (z) = 0.41815 0.19791
#
# Static dielectric constant tensor:
#      x y z
#    x 2.901840 0.000000 0.000000 
#    y 0.000000 2.853030 0.000000 
#    z 0.000000 0.000000 2.895860 
# 
# 
# High freq. dielectric constant tensor:
#      x y z
#    x 1.580770 0.000000 0.000000 
#    y 0.000000 1.567000 0.000000 
#    z 0.000000 0.000000 1.575490 
# 
# From -- ./inp_files/44676.got.cif
#   From: 2010.03.12/outbox.cif.g09.slc.cpg/sg64_23_cif.got.tgz:44676.got - 2010.04.10 20:19:32.
