data_PCOD8261439
_publ_section_title
;
Structure prediction by ZEFSAII (Michael W. Deem and Ramdas Pophale) SiO2 
 PCOD8261439
Probable space group: C M C A
;
_chemical_formula_sum "Si O2"
_cell_formula_units_Z 64
_cell_length_a 15.497083
_cell_length_b 9.580541
_cell_length_c 24.797297
_cell_angle_alpha 90.000000
_cell_angle_beta 90.000000
_cell_angle_gamma 90.000000
_cell_volume 3681.665573
_symmetry_space_group_name_H-M "C M C A"
_symmetry_group_IT_number 64
_symmetry_cell_setting 'orthorhombic'
loop_
_space_group_symop_operation_xyz
x,y,z
-x,1/2-y,1/2+z
x,-y,-z
-x,1/2+y,1/2-z
-x,-y,-z
x,1/2+y,1/2-z
-x,y,z
x,1/2-y,1/2+z
1/2+x,1/2+y,z
1/2-x,-y,1/2+z
1/2+x,1/2-y,-z
1/2-x,y,1/2-z
1/2-x,1/2-y,-z
1/2+x,y,1/2-z
1/2-x,1/2+y,z
1/2+x,-y,1/2+z
loop_
_atom_site_type_symbol
_atom_site_label
_atom_site_fract_x
_atom_site_fract_y
_atom_site_fract_z
Si Si1 0.722352 0.123186 0.463271
Si Si2 0.321372 0.462292 0.633646
Si Si3 0.000000 0.562569 0.186124
Si Si4 0.500000 0.759501 0.708954
Si Si5 0.168203 0.216546 0.144326
O O1 0.750000 0.250000 0.500000
O O2 0.652081 0.174306 0.418773
O O3 0.682685 0.000000 0.500000
O O4 0.806272 0.064423 0.430432
O O5 0.417120 0.413409 0.648600
O O6 0.249728 0.372526 0.667050
O O7 0.306407 0.622298 0.648868
O O8 0.000000 0.680706 0.231306
O O9 0.000000 0.408252 0.212058
O O10 0.416753 0.818463 0.677950
#
# Coordination Sequence:
#
# PCOD8261439 Si02
#       5
#    16  16   8   8  16
#     4  10  16  32  57  79 108 142 174 218 265 315
#     4   9  19  35  57  80 109 140 182 217 266 324
#     4  10  22  40  56  79 110 141 182 226 269 316
#     4  10  22  40  56  78 110 143 178 229 267 318
#     4   9  19  35  57  79 110 140 181 217 267 322
#
# _framework density 17.383436
#
# number of rings (size 3 to 8) (size 9 to 14) (size 15 to 20)
#    1.500    1.000    2.500    0.000    0.000    3.000 
#    0.000    7.500    0.000    0.000    0.000    0.000 
#    0.000    0.000    0.000    0.000    0.000    0.000 
#
# Total GULP energy -396489.472637 kJ/mol
# GULP energy per Si atom -12390.296020 kJ/mol
# Density = 1.734387 g / cm^3
# Si number density = 17.383436 Si / 1000 Ang^3
#
#
#
# Elastic Constant Matrix: (Units=GPa)
#
#
# Indices 1 2 3 4 5 6 
#
# 1 119.3392 45.8432 31.7920 0.0000 0.0000 0.0000
# 2 45.8432 83.8870 25.0695 0.0000 0.0000 0.0000
# 3 31.7920 25.0695 65.5090 0.0000 0.0000 0.0000
# 4 0.0000 0.0000 0.0000 34.8587 0.0000 0.0000
# 5 0.0000 0.0000 0.0000 0.0000 28.4165 0.0000
# 6 0.0000 0.0000 0.0000 0.0000 0.0000 21.8799
#
#
#
# Elastic Compliance Matrix: (Units=1/GPa)
#
#
# Indices 1 2 3 4 5 6 
#
# 1 0.011281 -0.005114 -0.003518 0.000000 0.000000 0.000000
# 2 -0.005114 0.015778 -0.003556 0.000000 0.000000 0.000000
# 3 -0.003518 -0.003556 0.018333 0.000000 0.000000 0.000000
# 4 0.000000 0.000000 0.000000 0.028687 0.000000 0.000000
# 5 0.000000 0.000000 0.000000 0.000000 0.035191 0.000000
# 6 0.000000 0.000000 0.000000 0.000000 0.000000 0.045704
#
#
# Mechanical properties :
#
#
# Convention : Reuss Voigt Hill
#
# Bulk Modulus (GPa) = 47.58121 52.68273 50.13197
# Shear Modulus (GPa) = 26.83039 28.09973 27.46506
#
# Velocity S-wave (km/s) = 3.93293 4.02489 3.97918
# Velocity P-wave (km/s) = 6.93217 7.20914 7.07201
#
# Compressibility (1/GPa) = 0.02101670
#
# Stress axis : x y z
#
# Youngs Moduli (GPa) = 88.64473 63.37873 54.54559
#
# Poissons Ratio (x) = 0.32410 0.19188
# Poissons Ratio (y) = 0.45330 0.19399
# Poissons Ratio (z) = 0.31184 0.22540
#
# Static dielectric constant tensor:
#      x y z
#    x 3.099180 0.000000 0.000000 
#    y 0.000000 3.379000 0.000000 
#    z 0.000000 0.000000 3.269830 
# 
# 
# High freq. dielectric constant tensor:
#      x y z
#    x 1.648250 0.000000 0.000000 
#    y 0.000000 1.684550 0.000000 
#    z 0.000000 0.000000 1.663790 
# 
# From -- ./inp_files/49762.got.cif
#   From: 2010.03.12/outbox.cif.g09.slc.cpg/sg64_25_cif.got.tgz:49762.got - 2010.04.10 20:19:32.
