data_PCOD8261421
_publ_section_title
;
Structure prediction by ZEFSAII (Michael W. Deem and Ramdas Pophale) SiO2 
 PCOD8261421
Probable space group: C M C A
;
_chemical_formula_sum "Si O2"
_cell_formula_units_Z 72
_cell_length_a 20.102771
_cell_length_b 18.930836
_cell_length_c 10.241551
_cell_angle_alpha 90.000000
_cell_angle_beta 90.000000
_cell_angle_gamma 90.000000
_cell_volume 3897.547804
_symmetry_space_group_name_H-M "C M C A"
_symmetry_group_IT_number 64
_symmetry_cell_setting 'orthorhombic'
loop_
_space_group_symop_operation_xyz
x,y,z
-x,1/2-y,1/2+z
x,-y,-z
-x,1/2+y,1/2-z
-x,-y,-z
x,1/2+y,1/2-z
-x,y,z
x,1/2-y,1/2+z
1/2+x,1/2+y,z
1/2-x,-y,1/2+z
1/2+x,1/2-y,-z
1/2-x,y,1/2-z
1/2-x,1/2-y,-z
1/2+x,y,1/2-z
1/2-x,1/2+y,z
1/2+x,-y,1/2+z
loop_
_atom_site_type_symbol
_atom_site_label
_atom_site_fract_x
_atom_site_fract_y
_atom_site_fract_z
Si Si1 0.750000 0.966982 0.750000
Si Si2 0.577107 0.309803 0.342849
Si Si3 0.350477 0.743729 0.913667
Si Si4 0.252399 0.356494 0.963133
Si Si5 0.850761 0.944356 0.388094
O O1 0.727269 0.920351 0.628979
O O2 0.817000 0.011690 0.727689
O O3 0.500000 0.294867 0.322760
O O4 0.598571 0.277117 0.482047
O O5 0.614723 0.271393 0.223913
O O6 0.588025 0.395347 0.341281
O O7 0.288499 0.796153 0.885004
O O8 0.320062 0.671919 0.972815
O O9 0.204724 0.387360 0.073177
O O10 0.873368 0.000000 0.500000
#
# Coordination Sequence:
#
# PCOD8261421 Si02
#       5
#     8  16  16  16  16
#     4  10  16  30  52  78 104 130 168 216 266 312
#     4  11  22  36  53  74 106 145 179 210 248 307
#     4  10  20  35  55  81 106 132 170 218 271 311
#     4   9  18  31  54  81 105 129 164 222 277 313
#     4   9  19  32  50  76 104 137 173 209 258 313
#
# _framework density 18.473153
#
# number of rings (size 3 to 8) (size 9 to 14) (size 15 to 20)
#    0.000    2.222    0.000    3.333    0.000    6.667 
#    0.000    0.000    0.000    4.000    0.000    0.000 
#    0.000    0.000    0.000    0.000    0.000    0.000 
#
# Total GULP energy -446263.678349 kJ/mol
# GULP energy per Si atom -12396.213287 kJ/mol
# Density = 1.843111 g / cm^3
# Si number density = 18.473153 Si / 1000 Ang^3
#
#
#
# Elastic Constant Matrix: (Units=GPa)
#
#
# Indices 1 2 3 4 5 6 
#
# 1 66.5854 21.5516 23.8871 0.0000 0.0000 0.0000
# 2 21.5516 90.4595 28.7476 0.0000 0.0000 0.0000
# 3 23.8871 28.7476 79.5796 0.0000 0.0000 0.0000
# 4 0.0000 0.0000 0.0000 20.0093 0.0000 0.0000
# 5 0.0000 0.0000 0.0000 0.0000 23.8042 0.0000
# 6 0.0000 0.0000 0.0000 0.0000 0.0000 25.3645
#
#
#
# Elastic Compliance Matrix: (Units=1/GPa)
#
#
# Indices 1 2 3 4 5 6 
#
# 1 0.017443 -0.002815 -0.004219 0.000000 0.000000 0.000000
# 2 -0.002815 0.012943 -0.003830 0.000000 0.000000 0.000000
# 3 -0.004219 -0.003830 0.015216 0.000000 0.000000 0.000000
# 4 0.000000 0.000000 0.000000 0.049977 0.000000 0.000000
# 5 0.000000 0.000000 0.000000 0.000000 0.042009 0.000000
# 6 0.000000 0.000000 0.000000 0.000000 0.000000 0.039425
#
#
# Mechanical properties :
#
#
# Convention : Reuss Voigt Hill
#
# Bulk Modulus (GPa) = 41.88829 42.77746 42.33288
# Shear Modulus (GPa) = 24.18971 24.66480 24.42725
#
# Velocity S-wave (km/s) = 3.62256 3.65796 3.64030
# Velocity P-wave (km/s) = 6.34206 6.40685 6.37454
#
# Compressibility (1/GPa) = 0.02387302
#
# Stress axis : x y z
#
# Youngs Moduli (GPa) = 57.32977 77.26396 65.71967
#
# Poissons Ratio (x) = 0.21750 0.27726
# Poissons Ratio (y) = 0.16138 0.25174
# Poissons Ratio (z) = 0.24187 0.29596
#
# Static dielectric constant tensor:
#      x y z
#    x 3.279120 0.000000 0.000000 
#    y 0.000000 3.763650 0.000000 
#    z 0.000000 0.000000 2.927120 
# 
# 
# High freq. dielectric constant tensor:
#      x y z
#    x 1.685830 0.000000 0.000000 
#    y 0.000000 1.733630 0.000000 
#    z 0.000000 0.000000 1.716130 
# 
# From -- ./inp_files/8012.got.cif
#   From: 2010.03.12/outbox.cif.g09.slc.cpg/sg64_5_cif.got.tgz:8012.got - 2010.04.10 20:19:32.
