data_PCOD8261315
_publ_section_title
;
Structure prediction by ZEFSAII (Michael W. Deem and Ramdas Pophale) SiO2 
 PCOD8261315
Probable space group: C M C M
;
_chemical_formula_sum "Si O2"
_cell_formula_units_Z 96
_cell_length_a 9.321455
_cell_length_b 20.354746
_cell_length_c 29.980038
_cell_angle_alpha 90.000000
_cell_angle_beta 90.000000
_cell_angle_gamma 90.000000
_cell_volume 5688.287959
_symmetry_space_group_name_H-M "C M C M"
_symmetry_group_IT_number 63
_symmetry_cell_setting 'orthorhombic'
loop_
_space_group_symop_operation_xyz
x,y,z
-x,-y,1/2+z
x,-y,-z
-x,y,1/2-z
-x,-y,-z
x,y,1/2-z
-x,y,z
x,-y,1/2+z
1/2+x,1/2+y,z
1/2-x,1/2-y,1/2+z
1/2+x,1/2-y,-z
1/2-x,1/2+y,1/2-z
1/2-x,1/2-y,-z
1/2+x,1/2+y,1/2-z
1/2-x,1/2+y,z
1/2+x,1/2-y,1/2+z
loop_
_atom_site_type_symbol
_atom_site_label
_atom_site_fract_x
_atom_site_fract_y
_atom_site_fract_z
Si Si1 0.331880 0.311359 0.198802
Si Si2 0.330241 0.199727 0.133508
Si Si3 0.170238 0.552744 0.465610
Si Si4 0.331225 0.201290 0.467686
Si Si5 0.667453 0.942152 0.301238
Si Si6 0.329142 0.054501 0.366230
O O1 0.298930 0.293056 0.250000
O O2 0.500000 0.322538 0.190851
O O3 0.268556 0.252998 0.168153
O O4 0.251171 0.377177 0.184317
O O5 0.500000 0.198129 0.137448
O O6 0.286141 0.218207 0.083071
O O7 0.270689 0.127260 0.146185
O O8 0.238104 0.500000 0.500000
O O9 0.216023 0.626607 0.479064
O O10 0.225315 0.535592 0.415829
O O11 0.000000 0.548106 0.466334
O O12 0.500000 0.210469 0.474596
O O13 0.250000 0.250000 0.500000
O O14 0.697401 0.960372 0.250000
O O15 0.500000 0.929946 0.310154
O O16 0.729371 0.001878 0.330788
O O17 0.500000 0.055690 0.365356
#
# Coordination Sequence:
#
# PCOD8261315 Si02
#       6
#    16  16  16  16  16  16
#     4   9  17  29  45  63  84 113 145 173 205 251
#     4   8  15  28  44  63  86 111 143 181 213 242
#     4   8  14  25  41  61  83 107 138 173 205 241
#     4   9  17  29  45  64  87 113 140 175 215 253
#     4   9  17  28  43  65  90 111 134 172 217 252
#     4   8  14  25  41  60  82 108 138 172 207 242
#
# _framework density 16.876783
#
# number of rings (size 3 to 8) (size 9 to 14) (size 15 to 20)
#    0.000    3.500    0.000    2.000    0.000    2.000 
#    0.000    5.833    0.000    5.500    0.000    4.667 
#    0.000    0.000    0.000    0.000    0.000    0.000 
#
# Total GULP energy -594918.268747 kJ/mol
# GULP energy per Si atom -12394.130599 kJ/mol
# Density = 1.683837 g / cm^3
# Si number density = 16.876783 Si / 1000 Ang^3
#
#
#
# Elastic Constant Matrix: (Units=GPa)
#
#
# Indices 1 2 3 4 5 6 
#
# 1 18.7280 32.3241 26.2243 0.0000 0.0000 0.0000
# 2 32.3241 170.4193 117.1387 0.0000 0.0000 0.0000
# 3 26.2243 117.1387 124.9358 0.0000 0.0000 0.0000
# 4 0.0000 0.0000 0.0000 43.3426 0.0000 0.0000
# 5 0.0000 0.0000 0.0000 0.0000 16.4417 0.0000
# 6 0.0000 0.0000 0.0000 0.0000 0.0000 22.1056
#
#
#
# Elastic Compliance Matrix: (Units=1/GPa)
#
#
# Indices 1 2 3 4 5 6 
#
# 1 0.081728 -0.010435 -0.007371 0.000000 0.000000 0.000000
# 2 -0.010435 0.017837 -0.014533 0.000000 0.000000 0.000000
# 3 -0.007371 -0.014533 0.023177 0.000000 0.000000 0.000000
# 4 0.000000 0.000000 0.000000 0.023072 0.000000 0.000000
# 5 0.000000 0.000000 0.000000 0.000000 0.060821 0.000000
# 6 0.000000 0.000000 0.000000 0.000000 0.000000 0.045237
#
#
# Mechanical properties :
#
#
# Convention : Reuss Voigt Hill
#
# Bulk Modulus (GPa) = 17.22242 73.93969 45.58105
# Shear Modulus (GPa) = 14.88513 25.60437 20.24475
#
# Velocity S-wave (km/s) = 2.97305 3.89927 3.46723
# Velocity P-wave (km/s) = 4.69173 8.01118 6.56473
#
# Compressibility (1/GPa) = 0.05806386
#
# Stress axis : x y z
#
# Youngs Moduli (GPa) = 12.23564 56.06481 43.14581
#
# Poissons Ratio (x) = 0.58506 0.31802
# Poissons Ratio (y) = 0.12768 0.62704
# Poissons Ratio (z) = 0.09019 0.81479
#
# Static dielectric constant tensor:
#      x y z
#    x 2.645000 0.000000 0.000000 
#    y 0.000000 3.531470 0.000000 
#    z 0.000000 0.000000 3.417600 
# 
# 
# High freq. dielectric constant tensor:
#      x y z
#    x 1.593720 0.000000 0.000000 
#    y 0.000000 1.659420 0.000000 
#    z 0.000000 0.000000 1.655940 
# 
# From -- ./inp_files/61653.got.cif
#   From: 2010.03.12/outbox.cif.g09.slc.cpg/sg63_31_cif.got.tgz:61653.got - 2010.04.10 19:34:48.
