data_PCOD8261388
_publ_section_title
;
Structure prediction by ZEFSAII (Michael W. Deem and Ramdas Pophale) SiO2 
 PCOD8261388
Probable space group: C M C A
;
_chemical_formula_sum "Si O2"
_cell_formula_units_Z 48
_cell_length_a 11.843163
_cell_length_b 29.120859
_cell_length_c 5.440529
_cell_angle_alpha 90.000000
_cell_angle_beta 90.000000
_cell_angle_gamma 90.000000
_cell_volume 1876.346397
_symmetry_space_group_name_H-M "C M C A"
_symmetry_group_IT_number 64
_symmetry_cell_setting 'orthorhombic'
loop_
_space_group_symop_operation_xyz
x,y,z
-x,1/2-y,1/2+z
x,-y,-z
-x,1/2+y,1/2-z
-x,-y,-z
x,1/2+y,1/2-z
-x,y,z
x,1/2-y,1/2+z
1/2+x,1/2+y,z
1/2-x,-y,1/2+z
1/2+x,1/2-y,-z
1/2-x,y,1/2-z
1/2-x,1/2-y,-z
1/2+x,y,1/2-z
1/2-x,1/2+y,z
1/2+x,-y,1/2+z
loop_
_atom_site_type_symbol
_atom_site_label
_atom_site_fract_x
_atom_site_fract_y
_atom_site_fract_z
Si Si1 0.126149 0.364728 0.889830
Si Si2 0.183827 0.000000 0.000000
Si Si3 0.374627 0.401106 0.109675
Si Si4 0.500000 0.221394 0.028594
O O1 0.184428 0.372348 0.618282
O O2 0.000000 0.386638 0.850330
O O3 0.184456 0.393174 0.119334
O O4 0.112853 0.310605 0.953765
O O5 0.110913 0.045282 0.948922
O O6 0.250000 0.988903 0.750000
O O7 0.500000 0.379615 0.147484
O O8 0.500000 0.245057 0.762811
#
# Coordination Sequence:
#
# PCOD8261388 Si02
#       4
#    16   8  16   8
#     4   8  17  28  48  73 101 137 166 202 250 317
#     4  12  25  36  51  78 106 134 184 230 255 288
#     4  10  18  36  53  71 101 145 177 206 252 318
#     4  10  16  26  46  77 116 131 152 212 272 304
#
# _framework density 25.581631000000002
#
# number of rings (size 3 to 8) (size 9 to 14) (size 15 to 20)
#    1.000    1.333    0.000    4.500    0.000    0.000 
#    0.000    6.667    0.000    0.000    0.000    0.000 
#    0.000   93.333    0.000    0.000    0.000    0.000 
#
# Total GULP energy -297522.105911 kJ/mol
# GULP energy per Si atom -12396.754413 kJ/mol
# Density = 2.552341 g / cm^3
# Si number density = 25.581631 Si / 1000 Ang^3
#
#
#
# Elastic Constant Matrix: (Units=GPa)
#
#
# Indices 1 2 3 4 5 6 
#
# 1 71.7252 -0.8889 67.5093 0.0000 0.0000 0.0000
# 2 -0.8889 143.6292 56.9492 0.0000 0.0000 0.0000
# 3 67.5093 56.9492 258.6584 0.0000 0.0000 0.0000
# 4 0.0000 0.0000 0.0000 61.7780 0.0000 0.0000
# 5 0.0000 0.0000 0.0000 0.0000 48.9443 0.0000
# 6 0.0000 0.0000 0.0000 0.0000 0.0000 39.5509
#
#
#
# Elastic Compliance Matrix: (Units=1/GPa)
#
#
# Indices 1 2 3 4 5 6 
#
# 1 0.019152 0.002301 -0.005505 0.000000 0.000000 0.000000
# 2 0.002301 0.007905 -0.002341 0.000000 0.000000 0.000000
# 3 -0.005505 -0.002341 0.005818 0.000000 0.000000 0.000000
# 4 0.000000 0.000000 0.000000 0.016187 0.000000 0.000000
# 5 0.000000 0.000000 0.000000 0.000000 0.020431 0.000000
# 6 0.000000 0.000000 0.000000 0.000000 0.000000 0.025284
#
#
# Mechanical properties :
#
#
# Convention : Reuss Voigt Hill
#
# Bulk Modulus (GPa) = 45.90194 80.12801 63.01498
# Shear Modulus (GPa) = 44.19690 53.41753 48.80722
#
# Velocity S-wave (km/s) = 4.16105 4.57455 4.37269
# Velocity P-wave (km/s) = 6.40843 7.70016 7.08380
#
# Compressibility (1/GPa) = 0.02178557
#
# Stress axis : x y z
#
# Youngs Moduli (GPa) = 52.21259 126.50431 171.86678
#
# Poissons Ratio (x) = -0.29114 0.94621
# Poissons Ratio (y) = -0.12016 0.40236
# Poissons Ratio (z) = 0.28745 0.29616
#
# Static dielectric constant tensor:
#      x y z
#    x 4.717600 0.000000 0.000000 
#    y 0.000000 4.196550 0.000000 
#    z 0.000000 0.000000 5.116610 
# 
# 
# High freq. dielectric constant tensor:
#      x y z
#    x 2.072160 0.000000 0.000000 
#    y 0.000000 1.981330 0.000000 
#    z 0.000000 0.000000 2.087740 
# 
# From -- ./inp_files/819.got.cif
#   From: 2010.03.12/outbox.cif.g09.slc.cpg/sg64_1_cif.got.tgz:819.got - 2010.04.10 20:19:32.
