data_PCOD8261956
_publ_section_title
;
Structure prediction by ZEFSAII (Michael W. Deem and Ramdas Pophale) SiO2 
 PCOD8261956
Probable space group: C M C A
;
_chemical_formula_sum "Si O2"
_cell_formula_units_Z 104
_cell_length_a 22.651815
_cell_length_b 25.778677
_cell_length_c 8.163322
_cell_angle_alpha 90.000000
_cell_angle_beta 90.000000
_cell_angle_gamma 90.000000
_cell_volume 4766.839819
_symmetry_space_group_name_H-M "C M C A"
_symmetry_group_IT_number 64
_symmetry_cell_setting 'orthorhombic'
loop_
_space_group_symop_operation_xyz
x,y,z
-x,1/2-y,1/2+z
x,-y,-z
-x,1/2+y,1/2-z
-x,-y,-z
x,1/2+y,1/2-z
-x,y,z
x,1/2-y,1/2+z
1/2+x,1/2+y,z
1/2-x,-y,1/2+z
1/2+x,1/2-y,-z
1/2-x,y,1/2-z
1/2-x,1/2-y,-z
1/2+x,y,1/2-z
1/2-x,1/2+y,z
1/2+x,-y,1/2+z
loop_
_atom_site_type_symbol
_atom_site_label
_atom_site_fract_x
_atom_site_fract_y
_atom_site_fract_z
Si Si1 0.000000 0.877004 0.658405
Si Si2 0.872933 0.215521 0.145216
Si Si3 0.685745 0.194987 0.672131
Si Si4 0.684522 0.493932 0.692719
Si Si5 0.000000 0.303084 0.534047
Si Si6 0.500000 0.637609 0.704037
Si Si7 0.373242 0.903103 0.210853
Si Si8 0.626815 0.108200 0.158249
O O1 0.941209 0.911809 0.655310
O O2 0.000000 0.841909 0.487373
O O3 0.000000 0.847686 0.830295
O O4 0.861532 0.268023 0.241298
O O5 0.869714 0.164787 0.260841
O O6 0.818322 0.209893 0.018717
O O7 0.937626 0.226078 0.064364
O O8 0.750000 0.201559 0.750000
O O9 0.662496 0.136331 0.675072
O O10 0.678954 0.500000 0.500000
O O11 0.750000 0.503990 0.750000
O O12 0.643630 0.538987 0.768959
O O13 0.663706 0.436602 0.751712
O O14 0.000000 0.317886 0.341904
O O15 0.556883 0.601849 0.734668
O O16 0.350822 0.888338 0.028186
#
# Coordination Sequence:
#
# PCOD8261956 Si02
#       8
#     8  16  16  16   8   8  16  16
#     4   8  18  35  63  94 127 160 209 258 328 388
#     4  11  24  41  64  92 124 165 211 267 327 387
#     4  12  25  41  61  88 126 167 214 261 316 392
#     4  10  22  39  60  90 126 169 216 261 319 383
#     4  10  20  41  65  96 130 159 214 268 329 392
#     4  10  18  38  66  91 125 167 203 271 329 387
#     4  10  21  39  63  91 123 165 214 261 324 390
#     4   9  20  39  63  90 125 163 207 266 322 385
#
# _framework density 21.81739
#
# number of rings (size 3 to 8) (size 9 to 14) (size 15 to 20)
#    0.000    1.846    1.538    1.846    0.000    6.154 
#    0.000    4.615    0.000    1.846    0.000    0.000 
#    0.000    0.000    0.000    0.000    0.000    0.000 
#
# Total GULP energy -644327.019983 kJ/mol
# GULP energy per Si atom -12390.904230 kJ/mol
# Density = 2.176773 g / cm^3
# Si number density = 21.817390 Si / 1000 Ang^3
#
#
#
# Elastic Constant Matrix: (Units=GPa)
#
#
# Indices 1 2 3 4 5 6 
#
# 1 110.6020 23.0049 2.9296 0.0000 0.0000 0.0000
# 2 23.0049 81.1330 1.7345 0.0000 0.0000 0.0000
# 3 2.9296 1.7345 57.5855 0.0000 0.0000 0.0000
# 4 0.0000 0.0000 0.0000 24.4186 0.0000 0.0000
# 5 0.0000 0.0000 0.0000 0.0000 33.1442 0.0000
# 6 0.0000 0.0000 0.0000 0.0000 0.0000 25.4227
#
#
#
# Elastic Compliance Matrix: (Units=1/GPa)
#
#
# Indices 1 2 3 4 5 6 
#
# 1 0.009618 -0.002718 -0.000407 0.000000 0.000000 0.000000
# 2 -0.002718 0.013102 -0.000256 0.000000 0.000000 0.000000
# 3 -0.000407 -0.000256 0.017394 0.000000 0.000000 0.000000
# 4 0.000000 0.000000 0.000000 0.040952 0.000000 0.000000
# 5 0.000000 0.000000 0.000000 0.000000 0.030171 0.000000
# 6 0.000000 0.000000 0.000000 0.000000 0.000000 0.039335
#
#
# Mechanical properties :
#
#
# Convention : Reuss Voigt Hill
#
# Bulk Modulus (GPa) = 29.98581 33.85094 31.91838
# Shear Modulus (GPa) = 29.68199 31.37386 30.52793
#
# Velocity S-wave (km/s) = 3.69246 3.79624 3.74471
# Velocity P-wave (km/s) = 5.65269 5.89614 5.77570
#
# Compressibility (1/GPa) = 0.03334911
#
# Stress axis : x y z
#
# Youngs Moduli (GPa) = 103.97582 76.32602 57.49129
#
# Poissons Ratio (x) = 0.20748 0.02342
# Poissons Ratio (y) = 0.28264 0.01474
# Poissons Ratio (z) = 0.04236 0.01957
#
# Static dielectric constant tensor:
#      x y z
#    x 4.142450 0.000000 0.000000 
#    y 0.000000 3.806020 0.000000 
#    z 0.000000 0.000000 4.016200 
# 
# 
# High freq. dielectric constant tensor:
#      x y z
#    x 1.868670 0.000000 0.000000 
#    y 0.000000 1.838070 0.000000 
#    z 0.000000 0.000000 1.857480 
# 
# From -- ./inp_files/8582.got.cif
#   From: 2010.03.12/outbox.cif.g09.slc.cpg/sg64_5_cif.got.tgz:8582.got - 2010.04.10 20:19:32.
