data_PCOD8261087
_publ_section_title
;
Structure prediction by ZEFSAII (Michael W. Deem and Ramdas Pophale) SiO2 
 PCOD8261087
Probable space group: C M C M
;
_chemical_formula_sum "Si O2"
_cell_formula_units_Z 80
_cell_length_a 8.750458
_cell_length_b 15.587473
_cell_length_c 29.136654
_cell_angle_alpha 90.000000
_cell_angle_beta 90.000000
_cell_angle_gamma 90.000000
_cell_volume 3974.167574
_symmetry_space_group_name_H-M "C M C M"
_symmetry_group_IT_number 63
_symmetry_cell_setting 'orthorhombic'
loop_
_space_group_symop_operation_xyz
x,y,z
-x,-y,1/2+z
x,-y,-z
-x,y,1/2-z
-x,-y,-z
x,y,1/2-z
-x,y,z
x,-y,1/2+z
1/2+x,1/2+y,z
1/2-x,1/2-y,1/2+z
1/2+x,1/2-y,-z
1/2-x,1/2+y,1/2-z
1/2-x,1/2-y,-z
1/2+x,1/2+y,1/2-z
1/2-x,1/2+y,z
1/2+x,1/2-y,1/2+z
loop_
_atom_site_type_symbol
_atom_site_label
_atom_site_fract_x
_atom_site_fract_y
_atom_site_fract_z
Si Si1 0.822550 0.111011 0.108021
Si Si2 0.176862 0.342327 0.698463
Si Si3 0.179364 0.142875 0.700648
Si Si4 0.319827 0.420563 0.393759
Si Si5 0.680143 0.260124 0.450356
O O1 0.782745 0.108478 0.162050
O O2 0.721832 0.179864 0.081445
O O3 0.000000 0.132662 0.100968
O O4 0.783164 0.016130 0.088139
O O5 0.217845 0.373631 0.750000
O O6 0.213441 0.242532 0.693058
O O7 0.000000 0.360788 0.687472
O O8 0.250958 0.113276 0.750000
O O9 0.252110 0.092442 0.657387
O O10 0.000000 0.126970 0.703092
O O11 0.500000 0.406017 0.389472
O O12 0.254503 0.348618 0.428463
O O13 0.500000 0.264298 0.455345
O O14 0.750000 0.250000 0.500000
#
# Coordination Sequence:
#
# PCOD8261087 Si02
#       5
#    16  16  16  16  16
#     4  11  22  36  58  90 119 147 188 239 287 335
#     4   9  17  32  56  83 115 158 199 232 276 335
#     4   8  13  26  52  81 107 145 194 228 260 322
#     4   9  19  35  57  84 115 151 190 229 276 341
#     4  11  23  43  65  84 111 148 190 237 291 350
#
# _framework density 20.130002999999999
#
# number of rings (size 3 to 8) (size 9 to 14) (size 15 to 20)
#    0.000    2.400    2.000    2.400    0.000    2.000 
#    0.000   10.000    0.000    0.000    0.000    0.000 
#    0.000    0.000    0.000    0.000    0.000    0.000 
#
# Total GULP energy -495769.590226 kJ/mol
# GULP energy per Si atom -12394.239756 kJ/mol
# Density = 2.008419 g / cm^3
# Si number density = 20.130003 Si / 1000 Ang^3
#
#
#
# Elastic Constant Matrix: (Units=GPa)
#
#
# Indices 1 2 3 4 5 6 
#
# 1 37.6786 26.1383 21.5051 0.0000 0.0000 0.0000
# 2 26.1383 98.2921 49.8993 0.0000 0.0000 0.0000
# 3 21.5051 49.8993 124.4029 0.0000 0.0000 0.0000
# 4 0.0000 0.0000 0.0000 15.4548 0.0000 0.0000
# 5 0.0000 0.0000 0.0000 0.0000 33.2586 0.0000
# 6 0.0000 0.0000 0.0000 0.0000 0.0000 21.3548
#
#
#
# Elastic Compliance Matrix: (Units=1/GPa)
#
#
# Indices 1 2 3 4 5 6 
#
# 1 0.033285 -0.007447 -0.002767 0.000000 0.000000 0.000000
# 2 -0.007447 0.014441 -0.004505 0.000000 0.000000 0.000000
# 3 -0.002767 -0.004505 0.010324 0.000000 0.000000 0.000000
# 4 0.000000 0.000000 0.000000 0.064705 0.000000 0.000000
# 5 0.000000 0.000000 0.000000 0.000000 0.030067 0.000000
# 6 0.000000 0.000000 0.000000 0.000000 0.000000 0.046828
#
#
# Mechanical properties :
#
#
# Convention : Reuss Voigt Hill
#
# Bulk Modulus (GPa) = 34.94968 50.60656 42.77812
# Shear Modulus (GPa) = 20.95329 24.86902 22.91115
#
# Velocity S-wave (km/s) = 3.22980 3.51867 3.37732
# Velocity P-wave (km/s) = 5.59540 6.45775 6.04198
#
# Compressibility (1/GPa) = 0.02861256
#
# Stress axis : x y z
#
# Youngs Moduli (GPa) = 30.04316 69.24651 96.86356
#
# Poissons Ratio (x) = 0.51566 0.26802
# Poissons Ratio (y) = 0.22372 0.43639
# Poissons Ratio (z) = 0.08313 0.31197
#
# Static dielectric constant tensor:
#      x y z
#    x 3.191750 0.000000 0.000000 
#    y 0.000000 3.704990 0.000000 
#    z 0.000000 0.000000 3.903880 
# 
# 
# High freq. dielectric constant tensor:
#      x y z
#    x 1.741610 0.000000 0.000000 
#    y 0.000000 1.785250 0.000000 
#    z 0.000000 0.000000 1.795050 
# 
# From -- ./inp_files/71577.got.cif
#   From: 2010.03.12/outbox.cif.g09.slc.cpg/sg63_36_cif.got.tgz:71577.got - 2010.04.10 19:34:48.
