data_PCOD8261292
_publ_section_title
;
Structure prediction by ZEFSAII (Michael W. Deem and Ramdas Pophale) SiO2 
 PCOD8261292
Probable space group: C M C M
;
_chemical_formula_sum "Si O2"
_cell_formula_units_Z 96
_cell_length_a 19.629261
_cell_length_b 30.590206
_cell_length_c 9.867673
_cell_angle_alpha 90.000000
_cell_angle_beta 90.000000
_cell_angle_gamma 90.000000
_cell_volume 5925.173891
_symmetry_space_group_name_H-M "C M C M"
_symmetry_group_IT_number 63
_symmetry_cell_setting 'orthorhombic'
loop_
_space_group_symop_operation_xyz
x,y,z
-x,-y,1/2+z
x,-y,-z
-x,y,1/2-z
-x,-y,-z
x,y,1/2-z
-x,y,z
x,-y,1/2+z
1/2+x,1/2+y,z
1/2-x,1/2-y,1/2+z
1/2+x,1/2-y,-z
1/2-x,1/2+y,1/2-z
1/2-x,1/2-y,-z
1/2+x,1/2+y,1/2-z
1/2-x,1/2+y,z
1/2+x,1/2-y,1/2+z
loop_
_atom_site_type_symbol
_atom_site_label
_atom_site_fract_x
_atom_site_fract_y
_atom_site_fract_z
Si Si1 0.334914 0.536071 0.899167
Si Si2 0.833878 0.134585 0.590054
Si Si3 0.575528 0.796017 0.089367
Si Si4 0.080204 0.802479 0.595782
Si Si5 0.819905 0.633119 0.911355
Si Si6 0.173023 0.463277 0.098998
O O1 0.364503 0.526170 0.750000
O O2 0.355728 0.584869 0.944272
O O3 0.253913 0.532551 0.894711
O O4 0.366559 0.500000 0.000000
O O5 0.841114 0.143879 0.750000
O O6 0.883029 0.165812 0.507744
O O7 0.756696 0.143089 0.538956
O O8 0.573039 0.800832 0.250000
O O9 0.500000 0.805788 0.030417
O O10 0.598668 0.747025 0.051877
O O11 0.629272 0.830505 0.026935
O O12 0.104462 0.811451 0.750000
O O13 0.000000 0.810074 0.584466
O O14 0.819449 0.633397 0.750000
O O15 0.845171 0.585004 0.958436
O O16 0.142676 0.470243 0.250000
O O17 0.141357 0.500000 0.000000
#
# Coordination Sequence:
#
# PCOD8261292 Si02
#       6
#    16  16  16  16  16  16
#     4   8  14  24  38  58  83 109 136 166 202 244
#     4   9  17  28  43  65  90 112 136 171 214 254
#     4   8  14  26  44  63  83 111 146 178 207 244
#     4   9  18  31  45  62  84 110 142 178 211 246
#     4   8  14  25  41  62  87 112 140 176 212 244
#     4   8  13  22  37  57  82 110 137 167 204 244
#
# _framework density 16.202055999999999
#
# number of rings (size 3 to 8) (size 9 to 14) (size 15 to 20)
#    0.000    3.667    0.000    3.000    0.000    1.667 
#    0.000    2.500    0.000    2.000    0.000    0.000 
#    0.000    0.000    0.000    0.000    0.000    0.000 
#
# Total GULP energy -594812.139599 kJ/mol
# GULP energy per Si atom -12391.919575 kJ/mol
# Density = 1.616518 g / cm^3
# Si number density = 16.202056 Si / 1000 Ang^3
#
#
#
# Elastic Constant Matrix: (Units=GPa)
#
#
# Indices 1 2 3 4 5 6 
#
# 1 45.1687 57.1213 30.9280 0.0000 0.0000 0.0000
# 2 57.1213 150.5713 64.4870 0.0000 0.0000 0.0000
# 3 30.9280 64.4870 56.7880 0.0000 0.0000 0.0000
# 4 0.0000 0.0000 0.0000 24.7324 0.0000 0.0000
# 5 0.0000 0.0000 0.0000 0.0000 11.9882 0.0000
# 6 0.0000 0.0000 0.0000 0.0000 0.0000 1.8498
#
#
#
# Elastic Compliance Matrix: (Units=1/GPa)
#
#
# Indices 1 2 3 4 5 6 
#
# 1 0.045318 -0.012891 -0.010042 0.000000 0.000000 0.000000
# 2 -0.012891 0.016597 -0.011826 0.000000 0.000000 0.000000
# 3 -0.010042 -0.011826 0.036508 0.000000 0.000000 0.000000
# 4 0.000000 0.000000 0.000000 0.040433 0.000000 0.000000
# 5 0.000000 0.000000 0.000000 0.000000 0.083415 0.000000
# 6 0.000000 0.000000 0.000000 0.000000 0.000000 0.540602
#
#
# Mechanical properties :
#
#
# Convention : Reuss Voigt Hill
#
# Bulk Modulus (GPa) = 34.59782 61.95561 48.27672
# Shear Modulus (GPa) = 5.93806 14.38019 10.15913
#
# Velocity S-wave (km/s) = 1.91650 2.98242 2.50677
# Velocity P-wave (km/s) = 5.12812 7.08393 6.18384
#
# Compressibility (1/GPa) = 0.02890355
#
# Stress axis : x y z
#
# Youngs Moduli (GPa) = 22.06649 60.25353 27.39127
#
# Poissons Ratio (x) = 0.77672 0.27508
# Poissons Ratio (y) = 0.28446 0.32393
# Poissons Ratio (z) = 0.22160 0.71256
#
# Static dielectric constant tensor:
#      x y z
#    x 2.894310 0.000000 0.000000 
#    y 0.000000 3.362650 0.000000 
#    z 0.000000 0.000000 2.950960 
# 
# 
# High freq. dielectric constant tensor:
#      x y z
#    x 1.586440 0.000000 0.000000 
#    y 0.000000 1.635080 0.000000 
#    z 0.000000 0.000000 1.590140 
# 
# From -- ./inp_files/21332.got.cif
#   From: 2010.03.12/outbox.cif.g09.slc.cpg/sg63_11_cif.got.tgz:21332.got - 2010.04.10 19:34:48.
