data_PCOD8261247
_publ_section_title
;
Structure prediction by ZEFSAII (Michael W. Deem and Ramdas Pophale) SiO2 
 PCOD8261247
Probable space group: C M C M
;
_chemical_formula_sum "Si O2"
_cell_formula_units_Z 80
_cell_length_a 25.367337
_cell_length_b 10.254498
_cell_length_c 16.925555
_cell_angle_alpha 90.000000
_cell_angle_beta 90.000000
_cell_angle_gamma 90.000000
_cell_volume 4402.832885
_symmetry_space_group_name_H-M "C M C M"
_symmetry_group_IT_number 63
_symmetry_cell_setting 'orthorhombic'
loop_
_space_group_symop_operation_xyz
x,y,z
-x,-y,1/2+z
x,-y,-z
-x,y,1/2-z
-x,-y,-z
x,y,1/2-z
-x,y,z
x,-y,1/2+z
1/2+x,1/2+y,z
1/2-x,1/2-y,1/2+z
1/2+x,1/2-y,-z
1/2-x,1/2+y,1/2-z
1/2-x,1/2-y,-z
1/2+x,1/2+y,1/2-z
1/2-x,1/2+y,z
1/2+x,1/2-y,1/2+z
loop_
_atom_site_type_symbol
_atom_site_label
_atom_site_fract_x
_atom_site_fract_y
_atom_site_fract_z
Si Si1 0.500000 0.369333 0.049397
Si Si2 0.091801 0.476702 0.158964
Si Si3 0.791122 0.223517 0.656140
Si Si4 0.410423 0.719892 0.658805
Si Si5 0.709947 0.987350 0.344272
Si Si6 0.500000 0.880268 0.058331
O O1 0.551430 0.365527 0.104744
O O2 0.500000 0.500000 0.000000
O O3 0.500000 0.253585 0.987391
O O4 0.087174 0.437175 0.250000
O O5 0.076328 0.627736 0.147284
O O6 0.151040 0.450745 0.127424
O O7 0.052422 0.384799 0.111307
O O8 0.787275 0.222918 0.750000
O O9 0.850770 0.189561 0.631327
O O10 0.775272 0.367617 0.624861
O O11 0.751208 0.116605 0.619761
O O12 0.418869 0.680321 0.750000
O O13 0.710990 0.987507 0.250000
O O14 0.500000 0.000000 0.000000
#
# Coordination Sequence:
#
# PCOD8261247 Si02
#       6
#     8  16  16  16  16   8
#     4  12  25  39  51  75 110 140 170 221 269 313
#     4   9  17  32  57  84 104 130 178 224 251 300
#     4   8  14  26  48  77 103 128 164 209 253 300
#     4   9  17  34  59  79 100 139 182 210 249 316
#     4   8  14  26  46  75 106 131 162 208 255 298
#     4  12  21  35  57  77  98 137 176 215 268 305
#
# _framework density 18.170120000000001
#
# number of rings (size 3 to 8) (size 9 to 14) (size 15 to 20)
#    0.000    2.800    2.000    3.000    0.000    1.600 
#    3.600    2.000    0.000    2.400    0.000    0.000 
#    0.000    0.000    0.000    0.000    0.000    0.000 
#
# Total GULP energy -495880.226739 kJ/mol
# GULP energy per Si atom -12397.005668 kJ/mol
# Density = 1.812876 g / cm^3
# Si number density = 18.170120 Si / 1000 Ang^3
#
#
#
# Elastic Constant Matrix: (Units=GPa)
#
#
# Indices 1 2 3 4 5 6 
#
# 1 154.4981 85.9753 45.7974 0.0000 0.0000 0.0000
# 2 85.9753 118.4266 44.6043 0.0000 0.0000 0.0000
# 3 45.7974 44.6043 52.8670 0.0000 0.0000 0.0000
# 4 0.0000 0.0000 0.0000 24.6092 0.0000 0.0000
# 5 0.0000 0.0000 0.0000 0.0000 -0.8464 0.0000
# 6 0.0000 0.0000 0.0000 0.0000 0.0000 31.1119
#
#
#
# Elastic Compliance Matrix: (Units=1/GPa)
#
#
# Indices 1 2 3 4 5 6 
#
# 1 0.011482 -0.006727 -0.004271 0.000000 0.000000 0.000000
# 2 -0.006727 0.016319 -0.007941 0.000000 0.000000 0.000000
# 3 -0.004271 -0.007941 0.029315 0.000000 0.000000 0.000000
# 4 0.000000 0.000000 0.000000 0.040635 0.000000 0.000000
# 5 0.000000 0.000000 0.000000 0.000000 -1.181426 0.000000
# 6 0.000000 0.000000 0.000000 0.000000 0.000000 0.032142
#
#
# Mechanical properties :
#
#
# Convention : Reuss Voigt Hill
#
# Bulk Modulus (GPa) = 51.98010 75.39399 63.68705
# Shear Modulus (GPa) = -4.96404 20.93591 7.98593
#
# Velocity S-wave (km/s) = -1.65466 3.39811 2.09872
# Velocity P-wave (km/s) = 5.00190 7.54849 6.40307
#
# Compressibility (1/GPa) = 0.01923813
#
# Stress axis : x y z
#
# Youngs Moduli (GPa) = 87.09173 61.27980 34.11265
#
# Poissons Ratio (x) = 0.41224 0.14569
# Poissons Ratio (y) = 0.58588 0.27087
# Poissons Ratio (z) = 0.37196 0.48659
#
# Static dielectric constant tensor:
#      x y z
#    x 3.607860 0.000000 0.000000 
#    y 0.000000 3.268420 0.000000 
#    z 0.000000 0.000000 3.033000 
# 
# 
# High freq. dielectric constant tensor:
#      x y z
#    x 1.717320 0.000000 0.000000 
#    y 0.000000 1.679560 0.000000 
#    z 0.000000 0.000000 1.671950 
# 
# From -- ./inp_files/48836.got.cif
#   From: 2010.03.12/outbox.cif.g09.slc.cpg/sg63_25_cif.got.tgz:48836.got - 2010.04.10 19:34:48.
