data_PCOD8261799
_publ_section_title
;
Structure prediction by ZEFSAII (Michael W. Deem and Ramdas Pophale) SiO2 
 PCOD8261799
Probable space group: C M C A
;
_chemical_formula_sum "Si O2"
_cell_formula_units_Z 128
_cell_length_a 11.575885
_cell_length_b 23.932663
_cell_length_c 24.457670
_cell_angle_alpha 90.000000
_cell_angle_beta 90.000000
_cell_angle_gamma 90.000000
_cell_volume 6775.795811
_symmetry_space_group_name_H-M "C M C A"
_symmetry_group_IT_number 64
_symmetry_cell_setting 'orthorhombic'
loop_
_space_group_symop_operation_xyz
x,y,z
-x,1/2-y,1/2+z
x,-y,-z
-x,1/2+y,1/2-z
-x,-y,-z
x,1/2+y,1/2-z
-x,y,z
x,1/2-y,1/2+z
1/2+x,1/2+y,z
1/2-x,-y,1/2+z
1/2+x,1/2-y,-z
1/2-x,y,1/2-z
1/2-x,1/2-y,-z
1/2+x,y,1/2-z
1/2-x,1/2+y,z
1/2+x,-y,1/2+z
loop_
_atom_site_type_symbol
_atom_site_label
_atom_site_fract_x
_atom_site_fract_y
_atom_site_fract_z
Si Si1 0.370202 0.238367 0.284834
Si Si2 0.739852 0.061729 0.505971
Si Si3 0.292848 0.143688 0.809288
Si Si4 0.632748 0.425864 0.602803
Si Si5 0.369225 0.827323 0.507894
Si Si6 0.866071 0.204794 0.890101
Si Si7 0.744505 0.685262 0.120737
Si Si8 0.631037 0.049513 0.885315
O O1 0.500000 0.226398 0.258253
O O2 0.250000 0.229888 0.250000
O O3 0.376521 0.302624 0.304614
O O4 0.359236 0.196533 0.336509
O O5 0.842144 0.070294 0.461906
O O6 0.637330 0.105272 0.495052
O O7 0.790699 0.072654 0.565861
O O8 0.686334 0.000000 0.500000
O O9 0.250000 0.124886 0.750000
O O10 0.186964 0.159900 0.848611
O O11 0.358288 0.089981 0.833384
O O12 0.500000 0.410136 0.611234
O O13 0.706978 0.376811 0.631152
O O14 0.665288 0.485498 0.630591
O O15 0.500000 0.808216 0.516307
O O16 0.316791 0.802318 0.451759
O O17 0.296877 0.805225 0.558906
O O18 0.842210 0.267599 0.868962
O O19 0.000000 0.191670 0.890308
O O20 0.500000 0.048726 0.906455
#
# Coordination Sequence:
#
# PCOD8261799 Si02
#       8
#    16  16  16  16  16  16  16  16
#     4  10  22  39  60  85 111 144 188 234 281 334
#     4   9  17  30  49  74 105 139 180 223 266 327
#     4  10  21  35  55  80 108 139 183 229 277 331
#     4   9  18  31  51  80 109 143 182 223 271 328
#     4  10  19  32  50  74 108 142 175 219 276 335
#     4  10  20  34  53  76 107 144 180 227 279 333
#     4  10  20  34  54  78 110 141 183 225 271 332
#     4  10  18  32  53  75 105 140 179 225 277 325
#
# _framework density 18.89077
#
# number of rings (size 3 to 8) (size 9 to 14) (size 15 to 20)
#    0.000    2.250    1.250    1.875    0.000    7.250 
#    0.000    0.625    0.000    0.750    0.000    0.000 
#    0.000    0.000    0.000    0.000    0.000    0.000 
#
# Total GULP energy -793119.483679 kJ/mol
# GULP energy per Si atom -12392.491932 kJ/mol
# Density = 1.884777 g / cm^3
# Si number density = 18.890770 Si / 1000 Ang^3
#
#
#
# Elastic Constant Matrix: (Units=GPa)
#
#
# Indices 1 2 3 4 5 6 
#
# 1 76.6917 20.3719 27.6996 0.0000 0.0000 0.0000
# 2 20.3719 98.1589 27.5845 0.0000 0.0000 0.0000
# 3 27.6996 27.5845 84.4875 0.0000 0.0000 0.0000
# 4 0.0000 0.0000 0.0000 29.4540 0.0000 0.0000
# 5 0.0000 0.0000 0.0000 0.0000 19.9038 0.0000
# 6 0.0000 0.0000 0.0000 0.0000 0.0000 16.8113
#
#
#
# Elastic Compliance Matrix: (Units=1/GPa)
#
#
# Indices 1 2 3 4 5 6 
#
# 1 0.015112 -0.001920 -0.004328 0.000000 0.000000 0.000000
# 2 -0.001920 0.011461 -0.003112 0.000000 0.000000 0.000000
# 3 -0.004328 -0.003112 0.014271 0.000000 0.000000 0.000000
# 4 0.000000 0.000000 0.000000 0.033951 0.000000 0.000000
# 5 0.000000 0.000000 0.000000 0.000000 0.050242 0.000000
# 6 0.000000 0.000000 0.000000 0.000000 0.000000 0.059484
#
#
# Mechanical properties :
#
#
# Convention : Reuss Voigt Hill
#
# Bulk Modulus (GPa) = 45.20044 45.62779 45.41411
# Shear Modulus (GPa) = 23.73991 25.47930 24.60961
#
# Velocity S-wave (km/s) = 3.54883 3.67654 3.61325
# Velocity P-wave (km/s) = 6.38526 6.49835 6.44205
#
# Compressibility (1/GPa) = 0.02212368
#
# Stress axis : x y z
#
# Youngs Moduli (GPa) = 66.17084 87.25472 70.07187
#
# Poissons Ratio (x) = 0.16755 0.30325
# Poissons Ratio (y) = 0.12707 0.21808
# Poissons Ratio (z) = 0.28637 0.27156
#
# Static dielectric constant tensor:
#      x y z
#    x 3.233860 0.000000 0.000000 
#    y 0.000000 3.509260 0.000000 
#    z 0.000000 0.000000 3.441360 
# 
# 
# High freq. dielectric constant tensor:
#      x y z
#    x 1.719080 0.000000 0.000000 
#    y 0.000000 1.733780 0.000000 
#    z 0.000000 0.000000 1.724700 
# 
# From -- ./inp_files/44566.got.cif
#   From: 2010.03.12/outbox.cif.g09.slc.cpg/sg64_23_cif.got.tgz:44566.got - 2010.04.10 20:19:32.
