data_PCOD8261266
_publ_section_title
;
Structure prediction by ZEFSAII (Michael W. Deem and Ramdas Pophale) SiO2 
 PCOD8261266
Probable space group: C M C M
;
_chemical_formula_sum "Si O2"
_cell_formula_units_Z 80
_cell_length_a 9.108281
_cell_length_b 27.896845
_cell_length_c 18.491707
_cell_angle_alpha 90.000000
_cell_angle_beta 90.000000
_cell_angle_gamma 90.000000
_cell_volume 4698.600423
_symmetry_space_group_name_H-M "C M C M"
_symmetry_group_IT_number 63
_symmetry_cell_setting 'orthorhombic'
loop_
_space_group_symop_operation_xyz
x,y,z
-x,-y,1/2+z
x,-y,-z
-x,y,1/2-z
-x,-y,-z
x,y,1/2-z
-x,y,z
x,-y,1/2+z
1/2+x,1/2+y,z
1/2-x,1/2-y,1/2+z
1/2+x,1/2-y,-z
1/2-x,1/2+y,1/2-z
1/2-x,1/2-y,-z
1/2+x,1/2+y,1/2-z
1/2-x,1/2+y,z
1/2+x,1/2-y,1/2+z
loop_
_atom_site_type_symbol
_atom_site_label
_atom_site_fract_x
_atom_site_fract_y
_atom_site_fract_z
Si Si1 0.673940 0.702253 0.474238
Si Si2 0.174224 0.103584 0.960697
Si Si3 0.675263 0.458787 0.168901
Si Si4 0.325445 0.558109 0.106266
Si Si5 0.174350 0.156042 0.171184
O O1 0.500000 0.708689 0.478750
O O2 0.750000 0.750000 0.500000
O O3 0.727728 0.657981 0.524757
O O4 0.726720 0.692120 0.391772
O O5 0.231614 0.084190 0.883282
O O6 0.000000 0.103553 0.962667
O O7 0.229441 0.067711 0.024132
O O8 0.735454 0.449821 0.250000
O O9 0.500000 0.460653 0.169576
O O10 0.739733 0.508765 0.137892
O O11 0.500000 0.555165 0.107529
O O12 0.269537 0.602128 0.155703
O O13 0.234201 0.172687 0.250000
O O14 0.000000 0.155104 0.170734
#
# Coordination Sequence:
#
# PCOD8261266 Si02
#       5
#    16  16  16  16  16
#     4   9  17  29  44  59  77 104 135 166 201 238
#     4   8  14  23  33  47  70  99 127 155 190 230
#     4   9  14  18  27  46  74 105 128 145 177 232
#     4   8  12  18  30  48  71  99 127 153 184 226
#     4   8  13  22  37  57  78  99 128 167 203 230
#
# _framework density 17.026346
#
# number of rings (size 3 to 8) (size 9 to 14) (size 15 to 20)
#    0.000    3.600    0.000    3.600    0.000    4.800 
#    0.000    1.000    0.000    1.800    0.000    0.000 
#    0.000   12.800    0.000    3.200    0.000    0.000 
#
# Total GULP energy -495523.771772 kJ/mol
# GULP energy per Si atom -12388.094294 kJ/mol
# Density = 1.698759 g / cm^3
# Si number density = 17.026346 Si / 1000 Ang^3
#
#
#
# Elastic Constant Matrix: (Units=GPa)
#
#
# Indices 1 2 3 4 5 6 
#
# 1 6.2483 15.2644 12.0821 0.0000 0.0000 0.0000
# 2 15.2644 140.2932 102.7276 0.0000 0.0000 0.0000
# 3 12.0821 102.7276 178.5055 0.0000 0.0000 0.0000
# 4 0.0000 0.0000 0.0000 23.5597 0.0000 0.0000
# 5 0.0000 0.0000 0.0000 0.0000 5.6565 0.0000
# 6 0.0000 0.0000 0.0000 0.0000 0.0000 15.9976
#
#
#
# Elastic Compliance Matrix: (Units=1/GPa)
#
#
# Indices 1 2 3 4 5 6 
#
# 1 0.218361 -0.022358 -0.001913 0.000000 0.000000 0.000000
# 2 -0.022358 0.014608 -0.006894 0.000000 0.000000 0.000000
# 3 -0.001913 -0.006894 0.009699 0.000000 0.000000 0.000000
# 4 0.000000 0.000000 0.000000 0.042445 0.000000 0.000000
# 5 0.000000 0.000000 0.000000 0.000000 0.176788 0.000000
# 6 0.000000 0.000000 0.000000 0.000000 0.000000 0.062509
#
#
# Mechanical properties :
#
#
# Convention : Reuss Voigt Hill
#
# Bulk Modulus (GPa) = 5.54510 65.02169 35.28339
# Shear Modulus (GPa) = 7.72974 22.04096 14.88535
#
# Velocity S-wave (km/s) = 2.13301 3.60185 2.95999
# Velocity P-wave (km/s) = 3.05453 7.45450 5.69648
#
# Compressibility (1/GPa) = 0.18033956
#
# Stress axis : x y z
#
# Youngs Moduli (GPa) = 4.57957 68.45452 103.10622
#
# Poissons Ratio (x) = 1.53047 0.19726
# Poissons Ratio (y) = 0.10239 0.71077
# Poissons Ratio (z) = 0.00876 0.47190
#
# Static dielectric constant tensor:
#      x y z
#    x 2.359380 0.000000 0.000000 
#    y 0.000000 3.240420 0.000000 
#    z 0.000000 0.000000 3.713680 
# 
# 
# High freq. dielectric constant tensor:
#      x y z
#    x 1.564460 0.000000 0.000000 
#    y 0.000000 1.650700 0.000000 
#    z 0.000000 0.000000 1.670210 
# 
# From -- ./inp_files/30219.got.cif
#   From: 2010.03.12/outbox.cif.g09.slc.cpg/sg63_16_cif.got.tgz:30219.got - 2010.04.10 19:34:48.
