data_PCOD8261764
_publ_section_title
;
Structure prediction by ZEFSAII (Michael W. Deem and Ramdas Pophale) SiO2 
 PCOD8261764
Probable space group: C M C A
;
_chemical_formula_sum "Si O2"
_cell_formula_units_Z 64
_cell_length_a 8.612819
_cell_length_b 20.784358
_cell_length_c 18.501431
_cell_angle_alpha 90.000000
_cell_angle_beta 90.000000
_cell_angle_gamma 90.000000
_cell_volume 3311.976566
_symmetry_space_group_name_H-M "C M C A"
_symmetry_group_IT_number 64
_symmetry_cell_setting 'orthorhombic'
loop_
_space_group_symop_operation_xyz
x,y,z
-x,1/2-y,1/2+z
x,-y,-z
-x,1/2+y,1/2-z
-x,-y,-z
x,1/2+y,1/2-z
-x,y,z
x,1/2-y,1/2+z
1/2+x,1/2+y,z
1/2-x,-y,1/2+z
1/2+x,1/2-y,-z
1/2-x,y,1/2-z
1/2-x,1/2-y,-z
1/2+x,y,1/2-z
1/2-x,1/2+y,z
1/2+x,-y,1/2+z
loop_
_atom_site_type_symbol
_atom_site_label
_atom_site_fract_x
_atom_site_fract_y
_atom_site_fract_z
Si Si1 0.317931 0.244630 0.920877
Si Si2 0.816325 0.000752 0.330204
Si Si3 0.681257 0.630202 0.171351
Si Si4 0.682960 0.129998 0.670294
O O1 0.500000 0.229661 0.922766
O O2 0.280997 0.310620 0.880182
O O3 0.229646 0.187921 0.880742
O O4 0.250000 0.250000 0.000000
O O5 0.750000 0.003614 0.250000
O O6 0.747949 0.935947 0.366141
O O7 0.000000 0.997082 0.331307
O O8 0.758062 0.067095 0.366815
O O9 0.500000 0.617554 0.180445
O O10 0.750000 0.645431 0.250000
O O11 0.500000 0.125197 0.676792
O O12 0.750000 0.141549 0.750000
#
# Coordination Sequence:
#
# PCOD8261764 Si02
#       4
#    16  16  16  16
#     4  11  24  40  57  80 112 149 188 230 278 330
#     4  10  18  31  54  83 113 142 178 225 274 325
#     4  10  20  35  57  84 112 143 181 225 273 326
#     4  11  21  36  59  85 114 146 184 229 275 327
#
# _framework density 19.323809000000001
#
# number of rings (size 3 to 8) (size 9 to 14) (size 15 to 20)
#    0.000    1.500    0.000    9.750    0.000    6.000 
#    0.000    1.250    0.000    7.500    0.000    0.000 
#    0.000    0.000    0.000    0.000    0.000    0.000 
#
# Total GULP energy -396784.901304 kJ/mol
# GULP energy per Si atom -12399.528166 kJ/mol
# Density = 1.927983 g / cm^3
# Si number density = 19.323809 Si / 1000 Ang^3
#
#
#
# Elastic Constant Matrix: (Units=GPa)
#
#
# Indices 1 2 3 4 5 6 
#
# 1 181.7123 98.3565 52.9227 0.0000 0.0000 0.0000
# 2 98.3565 169.1168 61.0253 0.0000 0.0000 0.0000
# 3 52.9227 61.0253 86.8387 0.0000 0.0000 0.0000
# 4 0.0000 0.0000 0.0000 -52.8822 0.0000 0.0000
# 5 0.0000 0.0000 0.0000 0.0000 27.4466 0.0000
# 6 0.0000 0.0000 0.0000 0.0000 0.0000 39.0818
#
#
#
# Elastic Compliance Matrix: (Units=1/GPa)
#
#
# Indices 1 2 3 4 5 6 
#
# 1 0.008346 -0.004044 -0.002244 0.000000 0.000000 0.000000
# 2 -0.004044 0.009881 -0.004480 0.000000 0.000000 0.000000
# 3 -0.002244 -0.004480 0.016031 0.000000 0.000000 0.000000
# 4 0.000000 0.000000 0.000000 -0.018910 0.000000 0.000000
# 5 0.000000 0.000000 0.000000 0.000000 0.036434 0.000000
# 6 0.000000 0.000000 0.000000 0.000000 0.000000 0.025587
#
#
# Mechanical properties :
#
#
# Convention : Reuss Voigt Hill
#
# Bulk Modulus (GPa) = 78.59892 95.80854 87.20373
# Shear Modulus (GPa) = 48.47452 17.75347 33.11400
#
# Velocity S-wave (km/s) = 5.01396 3.03435 4.14410
# Velocity P-wave (km/s) = 8.61874 7.87176 8.25371
#
# Compressibility (1/GPa) = 0.01272282
#
# Stress axis : x y z
#
# Youngs Moduli (GPa) = 119.82163 101.20002 62.37756
#
# Poissons Ratio (x) = 0.40924 0.14000
# Poissons Ratio (y) = 0.48455 0.27943
# Poissons Ratio (z) = 0.26892 0.45333
#
# Static dielectric constant tensor:
#      x y z
#    x 3.737690 0.000000 0.000000 
#    y 0.000000 4.411200 0.000000 
#    z 0.000000 0.000000 3.188250 
# 
# 
# High freq. dielectric constant tensor:
#      x y z
#    x 1.776290 0.000000 0.000000 
#    y 0.000000 1.783000 0.000000 
#    z 0.000000 0.000000 1.709310 
# 
# From -- ./inp_files/20888.got.cif
#   From: 2010.03.12/outbox.cif.g09.slc.cpg/sg64_11_cif.got.tgz:20888.got - 2010.04.10 20:19:32.
