data_PCOD8261106
_publ_section_title
;
Structure prediction by ZEFSAII (Michael W. Deem and Ramdas Pophale) SiO2 
 PCOD8261106
Probable space group: C M C M
;
_chemical_formula_sum "Si O2"
_cell_formula_units_Z 80
_cell_length_a 11.283709
_cell_length_b 17.478410
_cell_length_c 20.535571
_cell_angle_alpha 90.000000
_cell_angle_beta 90.000000
_cell_angle_gamma 90.000000
_cell_volume 4050.051849
_symmetry_space_group_name_H-M "C M C M"
_symmetry_group_IT_number 63
_symmetry_cell_setting 'orthorhombic'
loop_
_space_group_symop_operation_xyz
x,y,z
-x,-y,1/2+z
x,-y,-z
-x,y,1/2-z
-x,-y,-z
x,y,1/2-z
-x,y,z
x,-y,1/2+z
1/2+x,1/2+y,z
1/2-x,1/2-y,1/2+z
1/2+x,1/2-y,-z
1/2-x,1/2+y,1/2-z
1/2-x,1/2-y,-z
1/2+x,1/2+y,1/2-z
1/2-x,1/2+y,z
1/2+x,1/2-y,1/2+z
loop_
_atom_site_type_symbol
_atom_site_label
_atom_site_fract_x
_atom_site_fract_y
_atom_site_fract_z
Si Si1 0.639463 0.180082 0.750000
Si Si2 0.634892 0.909737 0.500723
Si Si3 0.361909 0.349317 0.750000
Si Si4 0.000000 0.309790 0.822126
Si Si5 0.253729 0.088244 0.866716
Si Si6 0.500000 0.360803 0.171266
Si Si7 0.783809 0.588393 0.138296
O O1 0.500000 0.180347 0.750000
O O2 0.695152 0.264870 0.750000
O O3 0.684280 0.140248 0.685797
O O4 0.500000 0.875277 0.506671
O O5 0.702819 0.880098 0.436766
O O6 0.718420 0.886314 0.562207
O O7 0.622439 0.000000 0.500000
O O8 0.500000 0.342346 0.750000
O O9 0.329378 0.391801 0.682480
O O10 0.890099 0.364710 0.831508
O O11 0.000000 0.278806 0.750000
O O12 0.000000 0.226658 0.857913
O O13 0.112445 0.094648 0.858950
O O14 0.301203 0.002464 0.856516
O O15 0.500000 0.368213 0.250000
#
# Coordination Sequence:
#
# PCOD8261106 Si02
#       7
#     8  16   8   8  16   8  16
#     4  11  23  39  61  89 125 159 203 261 313 355
#     4   9  19  38  61  93 124 152 201 269 313 347
#     4  11  25  41  57  87 133 165 195 253 311 365
#     4  11  22  38  65  92 122 157 214 267 304 352
#     4  11  23  38  65  91 123 163 205 253 308 373
#     4  11  24  42  59  88 134 169 200 253 314 370
#     4  11  22  38  67  92 117 162 212 254 302 368
#
# _framework density 19.752834
#
# number of rings (size 3 to 8) (size 9 to 14) (size 15 to 20)
#    0.000    1.400    3.000    2.400    4.200    0.000 
#    1.800    5.500    0.000    0.000    0.000    0.000 
#    0.000    0.000    0.000    0.000    0.000    0.000 
#
# Total GULP energy -495679.213232 kJ/mol
# GULP energy per Si atom -12391.980331 kJ/mol
# Density = 1.970788 g / cm^3
# Si number density = 19.752834 Si / 1000 Ang^3
#
#
#
# Elastic Constant Matrix: (Units=GPa)
#
#
# Indices 1 2 3 4 5 6 
#
# 1 83.8971 13.7410 51.8520 0.0000 0.0000 0.0000
# 2 13.7410 65.9183 38.7057 0.0000 0.0000 0.0000
# 3 51.8520 38.7057 179.7675 0.0000 0.0000 0.0000
# 4 0.0000 0.0000 0.0000 -11.6318 0.0000 0.0000
# 5 0.0000 0.0000 0.0000 0.0000 12.1095 0.0000
# 6 0.0000 0.0000 0.0000 0.0000 0.0000 37.6210
#
#
#
# Elastic Compliance Matrix: (Units=1/GPa)
#
#
# Indices 1 2 3 4 5 6 
#
# 1 0.014529 -0.000650 -0.004051 0.000000 0.000000 0.000000
# 2 -0.000650 0.017395 -0.003558 0.000000 0.000000 0.000000
# 3 -0.004051 -0.003558 0.007497 0.000000 0.000000 0.000000
# 4 0.000000 0.000000 0.000000 -0.085971 0.000000 0.000000
# 5 0.000000 0.000000 0.000000 0.000000 0.082580 0.000000
# 6 0.000000 0.000000 0.000000 0.000000 0.000000 0.026581
#
#
# Mechanical properties :
#
#
# Convention : Reuss Voigt Hill
#
# Bulk Modulus (GPa) = 43.66063 59.79781 51.72922
# Shear Modulus (GPa) = 57.62795 22.63867 40.13331
#
# Velocity S-wave (km/s) = 5.40720 3.38908 4.51241
# Velocity P-wave (km/s) = 7.81890 6.75672 7.30714
#
# Compressibility (1/GPa) = 0.02290393
#
# Stress axis : x y z
#
# Youngs Moduli (GPa) = 68.82559 57.48828 133.38323
#
# Poissons Ratio (x) = 0.03738 0.54032
# Poissons Ratio (y) = 0.04475 0.47454
# Poissons Ratio (z) = 0.27880 0.20453
#
# Static dielectric constant tensor:
#      x y z
#    x 3.717690 0.000000 0.000000 
#    y 0.000000 3.644680 0.000000 
#    z 0.000000 0.000000 4.076300 
# 
# 
# High freq. dielectric constant tensor:
#      x y z
#    x 1.768610 0.000000 0.000000 
#    y 0.000000 1.764280 0.000000 
#    z 0.000000 0.000000 1.777790 
# 
# From -- ./inp_files/52494.got.cif
#   From: 2010.03.12/outbox.cif.g09.slc.cpg/sg63_27_cif.got.tgz:52494.got - 2010.04.10 19:34:48.
