data_PCOD8261846
_publ_section_title
;
Structure prediction by ZEFSAII (Michael W. Deem and Ramdas Pophale) SiO2 
 PCOD8261846
Probable space group: C M C A
;
_chemical_formula_sum "Si O2"
_cell_formula_units_Z 80
_cell_length_a 17.393107
_cell_length_b 13.531459
_cell_length_c 20.008624
_cell_angle_alpha 90.000000
_cell_angle_beta 90.000000
_cell_angle_gamma 90.000000
_cell_volume 4709.111979
_symmetry_space_group_name_H-M "C M C A"
_symmetry_group_IT_number 64
_symmetry_cell_setting 'orthorhombic'
loop_
_space_group_symop_operation_xyz
x,y,z
-x,1/2-y,1/2+z
x,-y,-z
-x,1/2+y,1/2-z
-x,-y,-z
x,1/2+y,1/2-z
-x,y,z
x,1/2-y,1/2+z
1/2+x,1/2+y,z
1/2-x,-y,1/2+z
1/2+x,1/2-y,-z
1/2-x,y,1/2-z
1/2-x,1/2-y,-z
1/2+x,y,1/2-z
1/2-x,1/2+y,z
1/2+x,-y,1/2+z
loop_
_atom_site_type_symbol
_atom_site_label
_atom_site_fract_x
_atom_site_fract_y
_atom_site_fract_z
Si Si1 0.087975 0.471612 0.291944
Si Si2 0.314746 0.406792 0.697817
Si Si3 0.809091 0.166374 0.975851
Si Si4 0.587535 0.734584 0.858818
Si Si5 0.304109 0.969099 0.595601
O O1 0.137856 0.498869 0.226273
O O2 0.094099 0.356427 0.307869
O O3 0.124340 0.529305 0.354252
O O4 0.000000 0.505431 0.282259
O O5 0.250000 0.371011 0.750000
O O6 0.373590 0.320119 0.683474
O O7 0.274566 0.432146 0.628268
O O8 0.876114 0.217173 0.932330
O O9 0.776459 0.077056 0.930310
O O10 0.750000 0.250000 0.000000
O O11 0.837376 0.108404 0.041607
O O12 0.500000 0.762716 0.873563
#
# Coordination Sequence:
#
# PCOD8261846 Si02
#       5
#    16  16  16  16  16
#     4   9  19  34  50  73 103 130 166 208 251 302
#     4  10  19  33  52  76 102 135 168 209 253 302
#     4  10  18  33  54  74 102 132 168 212 247 301
#     4  10  20  33  53  77 102 137 170 208 260 303
#     4   9  19  32  52  80  97 131 171 208 258 293
#
# _framework density 16.988340999999998
#
# number of rings (size 3 to 8) (size 9 to 14) (size 15 to 20)
#    0.000    2.400    2.000    0.600    0.000    4.800 
#    0.000    4.000    0.000    3.600    0.000    0.000 
#    0.000    0.000    0.000    0.000    0.000    0.000 
#
# Total GULP energy -495592.917716 kJ/mol
# GULP energy per Si atom -12389.822943 kJ/mol
# Density = 1.694968 g / cm^3
# Si number density = 16.988341 Si / 1000 Ang^3
#
#
#
# Elastic Constant Matrix: (Units=GPa)
#
#
# Indices 1 2 3 4 5 6 
#
# 1 122.0193 50.9060 47.3346 0.0000 0.0000 0.0000
# 2 50.9060 69.6906 29.3693 0.0000 0.0000 0.0000
# 3 47.3346 29.3693 81.1933 0.0000 0.0000 0.0000
# 4 0.0000 0.0000 0.0000 25.7317 0.0000 0.0000
# 5 0.0000 0.0000 0.0000 0.0000 23.3177 0.0000
# 6 0.0000 0.0000 0.0000 0.0000 0.0000 28.9326
#
#
#
# Elastic Compliance Matrix: (Units=1/GPa)
#
#
# Indices 1 2 3 4 5 6 
#
# 1 0.013315 -0.007616 -0.005008 0.000000 0.000000 0.000000
# 2 -0.007616 0.021286 -0.003260 0.000000 0.000000 0.000000
# 3 -0.005008 -0.003260 0.016415 0.000000 0.000000 0.000000
# 4 0.000000 0.000000 0.000000 0.038862 0.000000 0.000000
# 5 0.000000 0.000000 0.000000 0.000000 0.042886 0.000000
# 6 0.000000 0.000000 0.000000 0.000000 0.000000 0.034563
#
#
# Mechanical properties :
#
#
# Convention : Reuss Voigt Hill
#
# Bulk Modulus (GPa) = 51.94953 58.68035 55.31494
# Shear Modulus (GPa) = 24.32960 25.28263 24.80612
#
# Velocity S-wave (km/s) = 3.78846 3.86195 3.82538
# Velocity P-wave (km/s) = 7.05567 7.38260 7.22098
#
# Compressibility (1/GPa) = 0.01924945
#
# Stress axis : x y z
#
# Youngs Moduli (GPa) = 75.10072 46.97947 60.92036
#
# Poissons Ratio (x) = 0.35779 0.30508
# Poissons Ratio (y) = 0.57196 0.19857
# Poissons Ratio (z) = 0.37610 0.15313
#
# Static dielectric constant tensor:
#      x y z
#    x 3.188350 0.000000 0.000000 
#    y 0.000000 3.204660 0.000000 
#    z 0.000000 0.000000 3.343900 
# 
# 
# High freq. dielectric constant tensor:
#      x y z
#    x 1.647460 0.000000 0.000000 
#    y 0.000000 1.655910 0.000000 
#    z 0.000000 0.000000 1.660680 
# 
# From -- ./inp_files/32975.got.cif
#   From: 2010.03.12/outbox.cif.g09.slc.cpg/sg64_17_cif.got.tgz:32975.got - 2010.04.10 20:19:32.
