data_PCOD8261736
_publ_section_title
;
Structure prediction by ZEFSAII (Michael W. Deem and Ramdas Pophale) SiO2 
 PCOD8261736
Probable space group: C M C A
;
_chemical_formula_sum "Si O2"
_cell_formula_units_Z 80
_cell_length_a 8.931064
_cell_length_b 19.585476
_cell_length_c 28.229390
_cell_angle_alpha 90.000000
_cell_angle_beta 90.000000
_cell_angle_gamma 90.000000
_cell_volume 4937.860611
_symmetry_space_group_name_H-M "C M C A"
_symmetry_group_IT_number 64
_symmetry_cell_setting 'orthorhombic'
loop_
_space_group_symop_operation_xyz
x,y,z
-x,1/2-y,1/2+z
x,-y,-z
-x,1/2+y,1/2-z
-x,-y,-z
x,1/2+y,1/2-z
-x,y,z
x,1/2-y,1/2+z
1/2+x,1/2+y,z
1/2-x,-y,1/2+z
1/2+x,1/2-y,-z
1/2-x,y,1/2-z
1/2-x,1/2-y,-z
1/2+x,y,1/2-z
1/2-x,1/2+y,z
1/2+x,-y,1/2+z
loop_
_atom_site_type_symbol
_atom_site_label
_atom_site_fract_x
_atom_site_fract_y
_atom_site_fract_z
Si Si1 0.325363 0.338311 0.461946
Si Si2 0.173957 0.316892 0.557962
Si Si3 0.822846 0.500048 0.699849
Si Si4 0.669217 0.909629 0.869146
Si Si5 0.830614 0.442113 0.116548
O O1 0.500000 0.348762 0.472712
O O2 0.237573 0.351059 0.510445
O O3 0.292020 0.263486 0.441404
O O4 0.264586 0.393107 0.423981
O O5 0.252957 0.347791 0.603855
O O6 0.000000 0.333603 0.560740
O O7 0.750000 0.515851 0.750000
O O8 0.759375 0.427710 0.679354
O O9 0.772051 0.561270 0.663996
O O10 0.000000 0.497031 0.704442
O O11 0.500000 0.888093 0.856064
O O12 0.669326 0.978794 0.901529
O O13 0.000000 0.418949 0.129368
#
# Coordination Sequence:
#
# PCOD8261736 Si02
#       5
#    16  16  16  16  16
#     4   9  18  33  49  66  96 134 164 193 232 281
#     4  10  19  30  47  71  98 129 163 197 235 279
#     4  10  18  31  51  74  97 120 152 193 240 286
#     4   9  18  32  49  70  95 125 159 196 236 280
#     4   8  17  32  49  70  93 125 162 194 233 277
#
# _framework density 16.201347999999999
#
# number of rings (size 3 to 8) (size 9 to 14) (size 15 to 20)
#    1.200    1.600    0.000    2.400    0.000    2.400 
#    0.000    4.000    0.000    1.200    0.000    5.600 
#    0.000    0.000    0.000    0.000    0.000    0.000 
#
# Total GULP energy -495664.164271 kJ/mol
# GULP energy per Si atom -12391.604107 kJ/mol
# Density = 1.616447 g / cm^3
# Si number density = 16.201348 Si / 1000 Ang^3
#
#
#
# Elastic Constant Matrix: (Units=GPa)
#
#
# Indices 1 2 3 4 5 6 
#
# 1 95.6265 10.4772 25.2814 0.0000 0.0000 0.0000
# 2 10.4772 26.2012 4.9232 0.0000 0.0000 0.0000
# 3 25.2814 4.9232 42.1822 0.0000 0.0000 0.0000
# 4 0.0000 0.0000 0.0000 14.4654 0.0000 0.0000
# 5 0.0000 0.0000 0.0000 0.0000 32.0859 0.0000
# 6 0.0000 0.0000 0.0000 0.0000 0.0000 21.0488
#
#
#
# Elastic Compliance Matrix: (Units=1/GPa)
#
#
# Indices 1 2 3 4 5 6 
#
# 1 0.012777 -0.003753 -0.007220 0.000000 0.000000 0.000000
# 2 -0.003753 0.040124 -0.002434 0.000000 0.000000 0.000000
# 3 -0.007220 -0.002434 0.028318 0.000000 0.000000 0.000000
# 4 0.000000 0.000000 0.000000 0.069131 0.000000 0.000000
# 5 0.000000 0.000000 0.000000 0.000000 0.031166 0.000000
# 6 0.000000 0.000000 0.000000 0.000000 0.000000 0.047509
#
#
# Mechanical properties :
#
#
# Convention : Reuss Voigt Hill
#
# Bulk Modulus (GPa) = 18.38019 27.26373 22.82196
# Shear Modulus (GPa) = 18.24995 21.74189 19.99592
#
# Velocity S-wave (km/s) = 3.35990 3.66728 3.51695
# Velocity P-wave (km/s) = 5.14017 5.89886 5.53254
#
# Compressibility (1/GPa) = 0.05440640
#
# Stress axis : x y z
#
# Youngs Moduli (GPa) = 78.26383 24.92264 35.31336
#
# Poissons Ratio (x) = 0.09353 0.25496
# Poissons Ratio (y) = 0.29370 0.08595
# Poissons Ratio (z) = 0.56506 0.06066
#
# Static dielectric constant tensor:
#      x y z
#    x 3.087650 0.000000 0.000000 
#    y 0.000000 2.878190 0.000000 
#    z 0.000000 0.000000 2.905520 
# 
# 
# High freq. dielectric constant tensor:
#      x y z
#    x 1.633460 0.000000 0.000000 
#    y 0.000000 1.597420 0.000000 
#    z 0.000000 0.000000 1.607510 
# 
# From -- ./inp_files/51928.got.cif
#   From: 2010.03.12/outbox.cif.g09.slc.cpg/sg64_26_cif.got.tgz:51928.got - 2010.04.10 20:19:32.
