data_PCOD8261150
_publ_section_title
;
Structure prediction by ZEFSAII (Michael W. Deem and Ramdas Pophale) SiO2 
 PCOD8261150
Probable space group: C M C M
;
_chemical_formula_sum "Si O2"
_cell_formula_units_Z 64
_cell_length_a 13.137846
_cell_length_b 29.543502
_cell_length_c 8.313490
_cell_angle_alpha 90.000000
_cell_angle_beta 90.000000
_cell_angle_gamma 90.000000
_cell_volume 3226.781212
_symmetry_space_group_name_H-M "C M C M"
_symmetry_group_IT_number 63
_symmetry_cell_setting 'orthorhombic'
loop_
_space_group_symop_operation_xyz
x,y,z
-x,-y,1/2+z
x,-y,-z
-x,y,1/2-z
-x,-y,-z
x,y,1/2-z
-x,y,z
x,-y,1/2+z
1/2+x,1/2+y,z
1/2-x,1/2-y,1/2+z
1/2+x,1/2-y,-z
1/2-x,1/2+y,1/2-z
1/2-x,1/2-y,-z
1/2+x,1/2+y,1/2-z
1/2-x,1/2+y,z
1/2+x,1/2-y,1/2+z
loop_
_atom_site_type_symbol
_atom_site_label
_atom_site_fract_x
_atom_site_fract_y
_atom_site_fract_z
Si Si1 0.500000 0.353855 0.562290
Si Si2 0.804383 0.293312 0.937238
Si Si3 0.286862 0.617649 0.564685
Si Si4 0.385397 0.950021 0.440900
Si Si5 0.500000 0.249185 0.557171
O O1 0.500000 0.348494 0.750000
O O2 0.399624 0.382226 0.513272
O O3 0.500000 0.301665 0.494246
O O4 0.782037 0.303056 0.750000
O O5 0.750000 0.250000 0.000000
O O6 0.764072 0.334141 0.043272
O O7 0.918244 0.282695 0.976553
O O8 0.303839 0.606475 0.750000
O O9 0.205612 0.581707 0.489014
O O10 0.383847 0.948038 0.250000
O O11 0.500000 0.935540 0.500986
O O12 0.360017 0.000000 0.500000
O O13 0.500000 0.247694 0.750000
#
# Coordination Sequence:
#
# PCOD8261150 Si02
#       5
#     8  16  16  16   8
#     4  11  23  39  60  84 118 161 206 251 298 349
#     4  12  24  38  57  85 118 158 204 246 295 352
#     4  11  23  39  62  89 121 159 201 246 300 359
#     4   9  20  40  65  93 121 153 189 238 299 358
#     4  11  23  39  57  80 116 159 202 253 300 344
#
# _framework density 19.834007
#
# number of rings (size 3 to 8) (size 9 to 14) (size 15 to 20)
#    0.000    1.250    2.500    3.750    1.750    3.000 
#    0.000    0.625    0.000    0.000    0.000    0.000 
#    0.000    0.000    0.000    0.000    0.000    0.000 
#
# Total GULP energy -396423.429364 kJ/mol
# GULP energy per Si atom -12388.232168 kJ/mol
# Density = 1.978886 g / cm^3
# Si number density = 19.834007 Si / 1000 Ang^3
#
#
#
# Elastic Constant Matrix: (Units=GPa)
#
#
# Indices 1 2 3 4 5 6 
#
# 1 187.5063 74.4007 11.4986 0.0000 0.0000 0.0000
# 2 74.4007 106.0331 1.6979 0.0000 0.0000 0.0000
# 3 11.4986 1.6979 40.4041 0.0000 0.0000 0.0000
# 4 0.0000 0.0000 0.0000 27.7698 0.0000 0.0000
# 5 0.0000 0.0000 0.0000 0.0000 29.3899 0.0000
# 6 0.0000 0.0000 0.0000 0.0000 0.0000 38.2636
#
#
#
# Elastic Compliance Matrix: (Units=1/GPa)
#
#
# Indices 1 2 3 4 5 6 
#
# 1 0.007537 -0.005258 -0.001924 0.000000 0.000000 0.000000
# 2 -0.005258 0.013105 0.000946 0.000000 0.000000 0.000000
# 3 -0.001924 0.000946 0.025258 0.000000 0.000000 0.000000
# 4 0.000000 0.000000 0.000000 0.036010 0.000000 0.000000
# 5 0.000000 0.000000 0.000000 0.000000 0.034025 0.000000
# 6 0.000000 0.000000 0.000000 0.000000 0.000000 0.026135
#
#
# Mechanical properties :
#
#
# Convention : Reuss Voigt Hill
#
# Bulk Modulus (GPa) = 29.91543 56.57088 43.24315
# Shear Modulus (GPa) = 30.17750 35.50774 32.84262
#
# Velocity S-wave (km/s) = 3.90488 4.23572 4.07366
# Velocity P-wave (km/s) = 5.95369 7.24609 6.63145
#
# Compressibility (1/GPa) = 0.03342756
#
# Stress axis : x y z
#
# Youngs Moduli (GPa) = 132.67004 76.30491 39.59175
#
# Poissons Ratio (x) = 0.40122 0.07618
# Poissons Ratio (y) = 0.69759 -0.03744
# Poissons Ratio (z) = 0.25528 -0.07216
#
# Static dielectric constant tensor:
#      x y z
#    x 4.116190 0.000000 0.000000 
#    y 0.000000 3.401480 0.000000 
#    z 0.000000 0.000000 3.920220 
# 
# 
# High freq. dielectric constant tensor:
#      x y z
#    x 1.800390 0.000000 0.000000 
#    y 0.000000 1.758170 0.000000 
#    z 0.000000 0.000000 1.769380 
# 
# From -- ./inp_files/3141.got.cif
#   From: 2010.03.12/outbox.cif.g09.slc.cpg/sg63_2_cif.got.tgz:3141.got - 2010.04.10 19:34:48.
