data_PCOD8261600
_publ_section_title
;
Structure prediction by ZEFSAII (Michael W. Deem and Ramdas Pophale) SiO2 
 PCOD8261600
Probable space group: C M C A
;
_chemical_formula_sum "Si O2"
_cell_formula_units_Z 96
_cell_length_a 8.746333
_cell_length_b 23.357087
_cell_length_c 26.300593
_cell_angle_alpha 90.000000
_cell_angle_beta 90.000000
_cell_angle_gamma 90.000000
_cell_volume 5372.918183
_symmetry_space_group_name_H-M "C M C A"
_symmetry_group_IT_number 64
_symmetry_cell_setting 'orthorhombic'
loop_
_space_group_symop_operation_xyz
x,y,z
-x,1/2-y,1/2+z
x,-y,-z
-x,1/2+y,1/2-z
-x,-y,-z
x,1/2+y,1/2-z
-x,y,z
x,1/2-y,1/2+z
1/2+x,1/2+y,z
1/2-x,-y,1/2+z
1/2+x,1/2-y,-z
1/2-x,y,1/2-z
1/2-x,1/2-y,-z
1/2+x,y,1/2-z
1/2-x,1/2+y,z
1/2+x,-y,1/2+z
loop_
_atom_site_type_symbol
_atom_site_label
_atom_site_fract_x
_atom_site_fract_y
_atom_site_fract_z
Si Si1 0.316510 0.196419 0.195900
Si Si2 0.821297 0.919913 0.140199
Si Si3 0.681872 0.679889 0.696087
Si Si4 0.166768 0.491465 0.796561
Si Si5 0.819371 0.990315 0.943469
Si Si6 0.666839 0.398031 0.619144
O O1 0.500000 0.196150 0.199427
O O2 0.250000 0.174666 0.250000
O O3 0.252534 0.258673 0.183140
O O4 0.260207 0.156296 0.148749
O O5 0.729961 0.860714 0.148719
O O6 0.782815 0.957819 0.189226
O O7 0.000000 0.906428 0.136358
O O8 0.761606 0.956131 0.091080
O O9 0.500000 0.684158 0.700291
O O10 0.750000 0.657844 0.750000
O O11 0.250000 0.459610 0.750000
O O12 0.142843 0.446571 0.839968
O O13 0.000000 0.516947 0.782150
O O14 0.769171 0.926678 0.924959
O O15 0.000000 0.990122 0.942517
O O16 0.754137 0.000000 0.000000
O O17 0.500000 0.381498 0.596392
#
# Coordination Sequence:
#
# PCOD8261600 Si02
#       6
#    16  16  16  16  16  16
#     4  10  19  32  49  72 102 135 170 201 236 282
#     4  10  19  32  49  69  95 126 159 197 242 289
#     4  11  21  33  49  71 100 134 170 202 237 281
#     4  10  18  28  42  65  96 126 157 191 232 282
#     4   9  19  35  55  77  98 123 158 202 252 300
#     4   9  19  32  48  71  98 128 160 197 240 289
#
# _framework density 17.867384999999999
#
# number of rings (size 3 to 8) (size 9 to 14) (size 15 to 20)
#    0.000    2.167    0.000    5.000    0.000    3.000 
#    0.000    0.000    0.000    1.000    0.000    0.000 
#    0.000    0.000    0.000    0.000    0.000    0.000 
#
# Total GULP energy -594721.585290 kJ/mol
# GULP energy per Si atom -12390.033027 kJ/mol
# Density = 1.782672 g / cm^3
# Si number density = 17.867385 Si / 1000 Ang^3
#
#
#
# Elastic Constant Matrix: (Units=GPa)
#
#
# Indices 1 2 3 4 5 6 
#
# 1 72.2353 29.4423 37.4014 0.0000 0.0000 0.0000
# 2 29.4423 99.8646 46.6613 0.0000 0.0000 0.0000
# 3 37.4014 46.6613 88.3346 0.0000 0.0000 0.0000
# 4 0.0000 0.0000 0.0000 25.0054 0.0000 0.0000
# 5 0.0000 0.0000 0.0000 0.0000 19.8133 0.0000
# 6 0.0000 0.0000 0.0000 0.0000 0.0000 9.4324
#
#
#
# Elastic Compliance Matrix: (Units=1/GPa)
#
#
# Indices 1 2 3 4 5 6 
#
# 1 0.018132 -0.002335 -0.006444 0.000000 0.000000 0.000000
# 2 -0.002335 0.013596 -0.006193 0.000000 0.000000 0.000000
# 3 -0.006444 -0.006193 0.017320 0.000000 0.000000 0.000000
# 4 0.000000 0.000000 0.000000 0.039991 0.000000 0.000000
# 5 0.000000 0.000000 0.000000 0.000000 0.050471 0.000000
# 6 0.000000 0.000000 0.000000 0.000000 0.000000 0.106017
#
#
# Mechanical properties :
#
#
# Convention : Reuss Voigt Hill
#
# Bulk Modulus (GPa) = 52.34415 54.16049 53.25232
# Shear Modulus (GPa) = 17.74065 20.64552 19.19309
#
# Velocity S-wave (km/s) = 3.15446 3.40293 3.28105
# Velocity P-wave (km/s) = 6.52894 6.76892 6.65001
#
# Compressibility (1/GPa) = 0.01910433
#
# Stress axis : x y z
#
# Youngs Moduli (GPa) = 55.15214 73.55316 57.73574
#
# Poissons Ratio (x) = 0.17173 0.37203
# Poissons Ratio (y) = 0.12877 0.35756
# Poissons Ratio (z) = 0.35538 0.45552
#
# Static dielectric constant tensor:
#      x y z
#    x 3.728980 0.000000 0.000000 
#    y 0.000000 3.456410 0.000000 
#    z 0.000000 0.000000 3.694540 
# 
# 
# High freq. dielectric constant tensor:
#      x y z
#    x 1.699730 0.000000 0.000000 
#    y 0.000000 1.686020 0.000000 
#    z 0.000000 0.000000 1.661170 
# 
# From -- ./inp_files/48347.got.cif
#   From: 2010.03.12/outbox.cif.g09.slc.cpg/sg64_25_cif.got.tgz:48347.got - 2010.04.10 20:19:32.
