data_PCOD8261381
_publ_section_title
;
Structure prediction by ZEFSAII (Michael W. Deem and Ramdas Pophale) SiO2 
 PCOD8261381
Probable space group: C M C A
;
_chemical_formula_sum "Si O2"
_cell_formula_units_Z 112
_cell_length_a 16.113479
_cell_length_b 22.485212
_cell_length_c 18.208241
_cell_angle_alpha 90.000000
_cell_angle_beta 90.000000
_cell_angle_gamma 90.000000
_cell_volume 6597.118681
_symmetry_space_group_name_H-M "C M C A"
_symmetry_group_IT_number 64
_symmetry_cell_setting 'orthorhombic'
loop_
_space_group_symop_operation_xyz
x,y,z
-x,1/2-y,1/2+z
x,-y,-z
-x,1/2+y,1/2-z
-x,-y,-z
x,1/2+y,1/2-z
-x,y,z
x,1/2-y,1/2+z
1/2+x,1/2+y,z
1/2-x,-y,1/2+z
1/2+x,1/2-y,-z
1/2-x,y,1/2-z
1/2-x,1/2-y,-z
1/2+x,y,1/2-z
1/2-x,1/2+y,z
1/2+x,-y,1/2+z
loop_
_atom_site_type_symbol
_atom_site_label
_atom_site_fract_x
_atom_site_fract_y
_atom_site_fract_z
Si Si1 0.593287 0.846215 0.632711
Si Si2 0.407784 0.081064 0.934229
Si Si3 0.259066 0.717200 0.396139
Si Si4 0.165359 0.631798 0.216172
Si Si5 0.737865 0.159183 0.952198
Si Si6 0.354789 0.045116 0.091171
Si Si7 0.672814 0.938380 0.531859
O O1 0.500000 0.824408 0.614454
O O2 0.660310 0.796611 0.609075
O O3 0.599261 0.855951 0.720193
O O4 0.609717 0.908048 0.589123
O O5 0.500000 0.101462 0.911789
O O6 0.343052 0.132444 0.912066
O O7 0.383144 0.021539 0.890234
O O8 0.404910 0.069067 0.021350
O O9 0.309890 0.692708 0.326635
O O10 0.292505 0.685019 0.469232
O O11 0.273808 0.788061 0.401344
O O12 0.250000 0.604594 0.250000
O O13 0.123833 0.584965 0.161343
O O14 0.807074 0.107925 0.965309
O O15 0.257087 0.046235 0.074617
O O16 0.634643 0.000000 0.500000
#
# Coordination Sequence:
#
# PCOD8261381 Si02
#       7
#    16  16  16  16  16  16  16
#     4  10  21  32  48  74 100 130 163 206 253 290
#     4  10  18  26  43  75 105 124 151 200 260 296
#     4   9  17  31  49  68  93 125 167 201 234 293
#     4  10  17  31  50  68  92 129 168 206 232 288
#     4   9  16  29  49  71  94 126 159 200 248 289
#     4  10  15  28  46  70  97 131 161 197 240 293
#     4  10  16  31  54  75 100 125 164 209 245 298
#
# _framework density 16.977108999999999
#
# number of rings (size 3 to 8) (size 9 to 14) (size 15 to 20)
#    0.000    2.286    8.571    0.857    0.000    2.000 
#    0.000    0.000    0.000    8.571    0.000    2.000 
#    0.000    0.000    0.000    0.000    0.000    0.000 
#
# Total GULP energy -694132.321974 kJ/mol
# GULP energy per Si atom -12395.220035 kJ/mol
# Density = 1.693847 g / cm^3
# Si number density = 16.977109 Si / 1000 Ang^3
#
#
#
# Elastic Constant Matrix: (Units=GPa)
#
#
# Indices 1 2 3 4 5 6 
#
# 1 68.8098 23.4753 16.0923 0.0000 0.0000 0.0000
# 2 23.4753 122.6122 41.6412 0.0000 0.0000 0.0000
# 3 16.0923 41.6412 62.4577 0.0000 0.0000 0.0000
# 4 0.0000 0.0000 0.0000 21.3021 0.0000 0.0000
# 5 0.0000 0.0000 0.0000 0.0000 13.3589 0.0000
# 6 0.0000 0.0000 0.0000 0.0000 0.0000 13.1424
#
#
#
# Elastic Compliance Matrix: (Units=1/GPa)
#
#
# Indices 1 2 3 4 5 6 
#
# 1 0.015885 -0.002135 -0.002670 0.000000 0.000000 0.000000
# 2 -0.002135 0.010830 -0.006670 0.000000 0.000000 0.000000
# 3 -0.002670 -0.006670 0.021146 0.000000 0.000000 0.000000
# 4 0.000000 0.000000 0.000000 0.046944 0.000000 0.000000
# 5 0.000000 0.000000 0.000000 0.000000 0.074856 0.000000
# 6 0.000000 0.000000 0.000000 0.000000 0.000000 0.076090
#
#
# Mechanical properties :
#
#
# Convention : Reuss Voigt Hill
#
# Bulk Modulus (GPa) = 40.14184 46.25527 43.19855
# Shear Modulus (GPa) = 18.05023 21.07206 19.56114
#
# Velocity S-wave (km/s) = 3.26423 3.52689 3.39810
# Velocity P-wave (km/s) = 6.15653 6.62496 6.39504
#
# Compressibility (1/GPa) = 0.02491167
#
# Stress axis : x y z
#
# Youngs Moduli (GPa) = 62.95064 92.33703 47.29051
#
# Poissons Ratio (x) = 0.19712 0.12625
# Poissons Ratio (y) = 0.13439 0.31545
# Poissons Ratio (z) = 0.16806 0.61592
#
# Static dielectric constant tensor:
#      x y z
#    x 2.915010 0.000000 0.000000 
#    y 0.000000 3.328530 0.000000 
#    z 0.000000 0.000000 3.043580 
# 
# 
# High freq. dielectric constant tensor:
#      x y z
#    x 1.630180 0.000000 0.000000 
#    y 0.000000 1.649780 0.000000 
#    z 0.000000 0.000000 1.626540 
# 
# From -- ./inp_files/33730.got.cif
#   From: 2010.03.12/outbox.cif.g09.slc.cpg/sg64_17_cif.got.tgz:33730.got - 2010.04.10 20:19:32.
