data_PCOD8261872
_publ_section_title
;
Structure prediction by ZEFSAII (Michael W. Deem and Ramdas Pophale) SiO2 
 PCOD8261872
Probable space group: C M C A
;
_chemical_formula_sum "Si O2"
_cell_formula_units_Z 80
_cell_length_a 24.657585
_cell_length_b 15.982904
_cell_length_c 9.680724
_cell_angle_alpha 90.000000
_cell_angle_beta 90.000000
_cell_angle_gamma 90.000000
_cell_volume 3815.171527
_symmetry_space_group_name_H-M "C M C A"
_symmetry_group_IT_number 64
_symmetry_cell_setting 'orthorhombic'
loop_
_space_group_symop_operation_xyz
x,y,z
-x,1/2-y,1/2+z
x,-y,-z
-x,1/2+y,1/2-z
-x,-y,-z
x,1/2+y,1/2-z
-x,y,z
x,1/2-y,1/2+z
1/2+x,1/2+y,z
1/2-x,-y,1/2+z
1/2+x,1/2-y,-z
1/2-x,y,1/2-z
1/2-x,1/2-y,-z
1/2+x,y,1/2-z
1/2-x,1/2+y,z
1/2+x,-y,1/2+z
loop_
_atom_site_type_symbol
_atom_site_label
_atom_site_fract_x
_atom_site_fract_y
_atom_site_fract_z
Si Si1 0.312151 0.342465 0.765222
Si Si2 0.061163 0.119207 0.906213
Si Si3 0.363061 0.236812 0.006628
Si Si4 0.439096 0.093002 0.016592
Si Si5 0.410151 0.449611 0.803279
O O1 0.250000 0.368277 0.750000
O O2 0.323420 0.304682 0.615619
O O3 0.346079 0.426840 0.798314
O O4 0.326754 0.275644 0.884911
O O5 0.100935 0.197704 0.906663
O O6 0.000000 0.147565 0.869583
O O7 0.081402 0.050437 0.792210
O O8 0.061473 0.078753 0.057103
O O9 0.403067 0.164966 0.944205
O O10 0.500000 0.098633 0.956476
O O11 0.439392 0.103853 0.183078
O O12 0.413527 0.000000 0.000000
#
# Coordination Sequence:
#
# PCOD8261872 Si02
#       5
#    16  16  16  16  16
#     4  10  21  40  60  79 113 149 194 244 284 324
#     4  10  18  33  58  86 116 147 183 227 282 349
#     4  10  22  36  59  86 114 148 196 235 286 346
#     4  10  20  34  53  81 121 155 183 229 293 351
#     4   9  19  34  55  80 112 148 189 231 280 341
#
# _framework density 20.968914000000002
#
# number of rings (size 3 to 8) (size 9 to 14) (size 15 to 20)
#    0.000    2.200    0.000    3.600    2.800    0.000 
#    0.000    3.000   35.200    0.000    0.000    0.000 
#    0.000    0.000    0.000    0.000    0.000    0.000 
#
# Total GULP energy -495800.551590 kJ/mol
# GULP energy per Si atom -12395.013790 kJ/mol
# Density = 2.092119 g / cm^3
# Si number density = 20.968914 Si / 1000 Ang^3
#
#
#
# Elastic Constant Matrix: (Units=GPa)
#
#
# Indices 1 2 3 4 5 6 
#
# 1 139.5273 36.1651 9.9356 0.0000 0.0000 0.0000
# 2 36.1651 74.4494 -10.6460 0.0000 0.0000 0.0000
# 3 9.9356 -10.6460 26.4316 0.0000 0.0000 0.0000
# 4 0.0000 0.0000 0.0000 30.2109 0.0000 0.0000
# 5 0.0000 0.0000 0.0000 0.0000 24.6548 0.0000
# 6 0.0000 0.0000 0.0000 0.0000 0.0000 26.1246
#
#
#
# Elastic Compliance Matrix: (Units=1/GPa)
#
#
# Indices 1 2 3 4 5 6 
#
# 1 0.008865 -0.005075 -0.005377 0.000000 0.000000 0.000000
# 2 -0.005075 0.017158 0.008819 0.000000 0.000000 0.000000
# 3 -0.005377 0.008819 0.043407 0.000000 0.000000 0.000000
# 4 0.000000 0.000000 0.000000 0.033101 0.000000 0.000000
# 5 0.000000 0.000000 0.000000 0.000000 0.040560 0.000000
# 6 0.000000 0.000000 0.000000 0.000000 0.000000 0.038278
#
#
# Mechanical properties :
#
#
# Convention : Reuss Voigt Hill
#
# Bulk Modulus (GPa) = 15.11394 34.59085 24.85240
# Shear Modulus (GPa) = 24.19072 29.86163 27.02617
#
# Velocity S-wave (km/s) = 3.40022 3.77781 3.59398
# Velocity P-wave (km/s) = 4.75802 5.96332 5.39444
#
# Compressibility (1/GPa) = 0.06616407
#
# Stress axis : x y z
#
# Youngs Moduli (GPa) = 112.79724 58.28018 23.03790
#
# Poissons Ratio (x) = 0.29580 0.12387
# Poissons Ratio (y) = 0.57249 -0.20317
# Poissons Ratio (z) = 0.60649 -0.51397
#
# Static dielectric constant tensor:
#      x y z
#    x 3.563590 0.000000 0.000000 
#    y 0.000000 4.044920 0.000000 
#    z 0.000000 0.000000 3.810790 
# 
# 
# High freq. dielectric constant tensor:
#      x y z
#    x 1.800900 0.000000 0.000000 
#    y 0.000000 1.817330 0.000000 
#    z 0.000000 0.000000 1.831820 
# 
# From -- ./inp_files/18064.got.cif
#   From: 2010.03.12/outbox.cif.g09.slc.cpg/sg64_10_cif.got.tgz:18064.got - 2010.04.10 20:19:32.
