data_PCOD8261191
_publ_section_title
;
Structure prediction by ZEFSAII (Michael W. Deem and Ramdas Pophale) SiO2 
 PCOD8261191
Probable space group: C M C M
;
_chemical_formula_sum "Si O2"
_cell_formula_units_Z 80
_cell_length_a 8.786094
_cell_length_b 25.574810
_cell_length_c 19.788542
_cell_angle_alpha 90.000000
_cell_angle_beta 90.000000
_cell_angle_gamma 90.000000
_cell_volume 4446.538514
_symmetry_space_group_name_H-M "C M C M"
_symmetry_group_IT_number 63
_symmetry_cell_setting 'orthorhombic'
loop_
_space_group_symop_operation_xyz
x,y,z
-x,-y,1/2+z
x,-y,-z
-x,y,1/2-z
-x,-y,-z
x,y,1/2-z
-x,y,z
x,-y,1/2+z
1/2+x,1/2+y,z
1/2-x,1/2-y,1/2+z
1/2+x,1/2-y,-z
1/2-x,1/2+y,1/2-z
1/2-x,1/2-y,-z
1/2+x,1/2+y,1/2-z
1/2-x,1/2+y,z
1/2+x,1/2-y,1/2+z
loop_
_atom_site_type_symbol
_atom_site_label
_atom_site_fract_x
_atom_site_fract_y
_atom_site_fract_z
Si Si1 0.180870 0.400355 0.396154
Si Si2 0.680741 0.122133 0.450525
Si Si3 0.174552 0.193516 0.671644
Si Si4 0.833323 0.511551 0.421402
Si Si5 0.679243 0.270842 0.931258
O O1 0.220025 0.377519 0.470013
O O2 0.265190 0.365114 0.341181
O O3 0.246385 0.460266 0.388320
O O4 0.000000 0.399701 0.384397
O O5 0.500000 0.125913 0.439974
O O6 0.746606 0.068645 0.414913
O O7 0.763029 0.170731 0.415371
O O8 0.192768 0.206648 0.750000
O O9 0.275026 0.234746 0.631096
O O10 0.000000 0.197566 0.648175
O O11 0.853472 0.500000 0.500000
O O12 0.000000 0.516465 0.388342
O O13 0.500000 0.270157 0.939347
O O14 0.750000 0.250000 0.000000
#
# Coordination Sequence:
#
# PCOD8261191 Si02
#       5
#    16  16  16  16  16
#     4   9  16  29  52  78 105 138 173 213 258 311
#     4   9  16  29  51  79 109 139 171 215 263 309
#     4  11  24  39  54  75 106 143 181 224 274 324
#     4   7  12  24  45  75 106 134 166 203 250 304
#     4  12  23  35  54  79 108 141 180 225 271 322
#
# _framework density 17.991522
#
# number of rings (size 3 to 8) (size 9 to 14) (size 15 to 20)
#    0.000    2.400    2.000    4.800    0.000    1.600 
#    0.000    1.000    0.000    4.800    0.000    2.800 
#    0.000    0.000    0.000    0.000    0.000    0.000 
#
# Total GULP energy -495624.541952 kJ/mol
# GULP energy per Si atom -12390.613549 kJ/mol
# Density = 1.795057 g / cm^3
# Si number density = 17.991522 Si / 1000 Ang^3
#
#
#
# Elastic Constant Matrix: (Units=GPa)
#
#
# Indices 1 2 3 4 5 6 
#
# 1 75.0345 49.0231 26.4843 0.0000 0.0000 0.0000
# 2 49.0231 170.4443 38.7266 0.0000 0.0000 0.0000
# 3 26.4843 38.7266 48.9565 0.0000 0.0000 0.0000
# 4 0.0000 0.0000 0.0000 21.3163 0.0000 0.0000
# 5 0.0000 0.0000 0.0000 0.0000 20.3771 0.0000
# 6 0.0000 0.0000 0.0000 0.0000 0.0000 24.2683
#
#
#
# Elastic Compliance Matrix: (Units=1/GPa)
#
#
# Indices 1 2 3 4 5 6 
#
# 1 0.018159 -0.003646 -0.006939 0.000000 0.000000 0.000000
# 2 -0.003646 0.007885 -0.004265 0.000000 0.000000 0.000000
# 3 -0.006939 -0.004265 0.027554 0.000000 0.000000 0.000000
# 4 0.000000 0.000000 0.000000 0.046912 0.000000 0.000000
# 5 0.000000 0.000000 0.000000 0.000000 0.049075 0.000000
# 6 0.000000 0.000000 0.000000 0.000000 0.000000 0.041206
#
#
# Mechanical properties :
#
#
# Convention : Reuss Voigt Hill
#
# Bulk Modulus (GPa) = 41.84595 58.10037 49.97316
# Shear Modulus (GPa) = 21.88610 25.20578 23.54594
#
# Velocity S-wave (km/s) = 3.49157 3.74703 3.62155
# Velocity P-wave (km/s) = 6.28999 7.14728 6.73229
#
# Compressibility (1/GPa) = 0.02389718
#
# Stress axis : x y z
#
# Youngs Moduli (GPa) = 55.07029 126.82829 36.29276
#
# Poissons Ratio (x) = 0.46243 0.25184
# Poissons Ratio (y) = 0.20079 0.15478
# Poissons Ratio (z) = 0.38214 0.54088
#
# Static dielectric constant tensor:
#      x y z
#    x 3.115250 0.000000 0.000000 
#    y 0.000000 3.934530 0.000000 
#    z 0.000000 0.000000 2.924940 
# 
# 
# High freq. dielectric constant tensor:
#      x y z
#    x 1.673020 0.000000 0.000000 
#    y 0.000000 1.725250 0.000000 
#    z 0.000000 0.000000 1.643610 
# 
# From -- ./inp_files/40518.got.cif
#   From: 2010.03.12/outbox.cif.g09.slc.cpg/sg63_21_cif.got.tgz:40518.got - 2010.04.10 19:34:48.
