data_PCOD8261513
_publ_section_title
;
Structure prediction by ZEFSAII (Michael W. Deem and Ramdas Pophale) SiO2 
 PCOD8261513
Probable space group: C M C A
;
_chemical_formula_sum "Si O2"
_cell_formula_units_Z 112
_cell_length_a 14.635317
_cell_length_b 19.325942
_cell_length_c 18.845941
_cell_angle_alpha 90.000000
_cell_angle_beta 90.000000
_cell_angle_gamma 90.000000
_cell_volume 5330.410216
_symmetry_space_group_name_H-M "C M C A"
_symmetry_group_IT_number 64
_symmetry_cell_setting 'orthorhombic'
loop_
_space_group_symop_operation_xyz
x,y,z
-x,1/2-y,1/2+z
x,-y,-z
-x,1/2+y,1/2-z
-x,-y,-z
x,1/2+y,1/2-z
-x,y,z
x,1/2-y,1/2+z
1/2+x,1/2+y,z
1/2-x,-y,1/2+z
1/2+x,1/2-y,-z
1/2-x,y,1/2-z
1/2-x,1/2-y,-z
1/2+x,y,1/2-z
1/2-x,1/2+y,z
1/2+x,-y,1/2+z
loop_
_atom_site_type_symbol
_atom_site_label
_atom_site_fract_x
_atom_site_fract_y
_atom_site_fract_z
Si Si1 0.393426 0.790320 0.947386
Si Si2 0.605476 0.145959 0.794158
Si Si3 0.890001 0.992046 0.708432
Si Si4 0.606329 0.052242 0.057057
Si Si5 0.339945 0.763191 0.795624
Si Si6 0.600670 0.373229 0.801493
Si Si7 0.109375 0.259235 0.597531
O O1 0.500000 0.777326 0.928891
O O2 0.376340 0.869732 0.968214
O O3 0.330304 0.768550 0.880830
O O4 0.361765 0.745092 0.015346
O O5 0.500000 0.134390 0.810130
O O6 0.649922 0.069960 0.786855
O O7 0.623147 0.186046 0.720498
O O8 0.648526 0.193184 0.857706
O O9 0.000000 0.989346 0.711933
O O10 0.851941 0.960214 0.634988
O O11 0.850694 0.944226 0.773735
O O12 0.500000 0.034528 0.061505
O O13 0.652171 0.000000 0.000000
O O14 0.250000 0.779419 0.750000
O O15 0.409504 0.821610 0.766689
O O16 0.500000 0.393478 0.827576
O O17 0.648330 0.330921 0.867101
O O18 0.000000 0.257722 0.605620
#
# Coordination Sequence:
#
# PCOD8261513 Si02
#       7
#    16  16  16  16  16  16  16
#     4  10  17  29  49  74 103 132 162 209 262 302
#     4   9  17  31  49  69  95 128 167 210 254 301
#     4   9  15  25  46  71  93 123 158 199 251 303
#     4   9  15  22  40  74 106 122 144 192 255 311
#     4  11  21  32  46  68  99 132 174 206 240 301
#     4   9  16  31  50  70  96 128 164 203 248 306
#     4   8  15  26  46  72  98 127 162 205 251 300
#
# _framework density 21.011516
#
# number of rings (size 3 to 8) (size 9 to 14) (size 15 to 20)
#    0.000    2.714    1.429    3.000    0.000    3.429 
#    0.000    3.571    0.000    0.857    0.000    5.000 
#    0.000    0.000    0.000    0.000    0.000    0.571 
#
# Total GULP energy -693732.147956 kJ/mol
# GULP energy per Si atom -12388.074071 kJ/mol
# Density = 2.096369 g / cm^3
# Si number density = 21.011516 Si / 1000 Ang^3
#
#
#
# Elastic Constant Matrix: (Units=GPa)
#
#
# Indices 1 2 3 4 5 6 
#
# 1 15.3772 13.4346 20.1440 0.0000 0.0000 0.0000
# 2 13.4346 119.2373 67.8131 0.0000 0.0000 0.0000
# 3 20.1440 67.8131 168.9594 0.0000 0.0000 0.0000
# 4 0.0000 0.0000 0.0000 35.9007 0.0000 0.0000
# 5 0.0000 0.0000 0.0000 0.0000 15.2794 0.0000
# 6 0.0000 0.0000 0.0000 0.0000 0.0000 3.0044
#
#
#
# Elastic Compliance Matrix: (Units=1/GPa)
#
#
# Indices 1 2 3 4 5 6 
#
# 1 0.078961 -0.004590 -0.007572 0.000000 0.000000 0.000000
# 2 -0.004590 0.011134 -0.003921 0.000000 0.000000 0.000000
# 3 -0.007572 -0.003921 0.008395 0.000000 0.000000 0.000000
# 4 0.000000 0.000000 0.000000 0.027855 0.000000 0.000000
# 5 0.000000 0.000000 0.000000 0.000000 0.065447 0.000000
# 6 0.000000 0.000000 0.000000 0.000000 0.000000 0.332843
#
#
# Mechanical properties :
#
#
# Convention : Reuss Voigt Hill
#
# Bulk Modulus (GPa) = 15.07775 56.26193 35.66984
# Shear Modulus (GPa) = 8.63693 24.31572 16.47633
#
# Velocity S-wave (km/s) = 2.02965 3.40554 2.80332
# Velocity P-wave (km/s) = 3.56149 6.50372 5.24322
#
# Compressibility (1/GPa) = 0.06632289
#
# Stress axis : x y z
#
# Youngs Moduli (GPa) = 12.66454 89.81439 119.11577
#
# Poissons Ratio (x) = 0.41229 0.90189
# Poissons Ratio (y) = 0.05814 0.46711
# Poissons Ratio (z) = 0.09589 0.35220
#
# Static dielectric constant tensor:
#      x y z
#    x 3.296890 0.000000 0.000000 
#    y 0.000000 3.983600 0.000000 
#    z 0.000000 0.000000 3.834740 
# 
# 
# High freq. dielectric constant tensor:
#      x y z
#    x 1.777380 0.000000 0.000000 
#    y 0.000000 1.818320 0.000000 
#    z 0.000000 0.000000 1.811750 
# 
# From -- ./inp_files/34491.got.cif
#   From: 2010.03.12/outbox.cif.g09.slc.cpg/sg64_18_cif.got.tgz:34491.got - 2010.04.10 20:19:32.
