data_PCOD8261116
_publ_section_title
;
Structure prediction by ZEFSAII (Michael W. Deem and Ramdas Pophale) SiO2 
 PCOD8261116
Probable space group: C M C M
;
_chemical_formula_sum "Si O2"
_cell_formula_units_Z 96
_cell_length_a 11.822840
_cell_length_b 15.045401
_cell_length_c 28.523360
_cell_angle_alpha 90.000000
_cell_angle_beta 90.000000
_cell_angle_gamma 90.000000
_cell_volume 5073.717272
_symmetry_space_group_name_H-M "C M C M"
_symmetry_group_IT_number 63
_symmetry_cell_setting 'orthorhombic'
loop_
_space_group_symop_operation_xyz
x,y,z
-x,-y,1/2+z
x,-y,-z
-x,y,1/2-z
-x,-y,-z
x,y,1/2-z
-x,y,z
x,-y,1/2+z
1/2+x,1/2+y,z
1/2-x,1/2-y,1/2+z
1/2+x,1/2-y,-z
1/2-x,1/2+y,1/2-z
1/2-x,1/2-y,-z
1/2+x,1/2+y,1/2-z
1/2-x,1/2+y,z
1/2+x,1/2-y,1/2+z
loop_
_atom_site_type_symbol
_atom_site_label
_atom_site_fract_x
_atom_site_fract_y
_atom_site_fract_z
Si Si1 0.130429 0.353213 0.802802
Si Si2 0.727067 0.777852 0.053249
Si Si3 0.135616 0.073062 0.897830
Si Si4 0.500000 0.927277 0.937182
Si Si5 0.500000 0.120423 0.544805
Si Si6 0.734395 0.895669 0.605393
Si Si7 0.368733 0.645425 0.800504
O O1 0.160349 0.383628 0.750000
O O2 0.217986 0.400761 0.838269
O O3 0.150288 0.249007 0.809084
O O4 0.000000 0.377798 0.814343
O O5 0.826652 0.845496 0.068998
O O6 0.609638 0.826569 0.058724
O O7 0.707137 0.694041 0.087413
O O8 0.750000 0.750000 0.000000
O O9 0.179862 0.091828 0.844832
O O10 0.000000 0.063753 0.901537
O O11 0.194894 0.980570 0.913198
O O12 0.389286 0.883898 0.916130
O O13 0.500000 0.031110 0.924642
O O14 0.500000 0.906248 0.991328
O O15 0.313127 0.617537 0.750000
O O16 0.500000 0.624342 0.797325
#
# Coordination Sequence:
#
# PCOD8261116 Si02
#       7
#    16  16  16   8   8  16  16
#     4   9  17  31  59  94 120 151 200 249 292 350
#     4  12  26  41  64  88 118 162 200 252 312 354
#     4  11  25  41  59  93 126 159 203 250 303 363
#     4  11  22  40  65  85 114 158 211 252 294 366
#     4  11  24  44  60  86 121 155 211 252 304 364
#     4  12  23  39  63  91 122 161 198 252 303 359
#     4   8  15  32  58  85 116 154 197 243 291 349
#
# _framework density 18.921040000000001
#
# number of rings (size 3 to 8) (size 9 to 14) (size 15 to 20)
#    0.000    1.500    5.833    1.000    3.500    1.333 
#    0.000    0.833    0.000    0.000    0.000    1.167 
#    0.000    0.000    0.000    0.000    0.000    0.000 
#
# Total GULP energy -594942.664587 kJ/mol
# GULP energy per Si atom -12394.638846 kJ/mol
# Density = 1.887797 g / cm^3
# Si number density = 18.921040 Si / 1000 Ang^3
#
#
#
# Elastic Constant Matrix: (Units=GPa)
#
#
# Indices 1 2 3 4 5 6 
#
# 1 69.5218 27.1801 21.3856 0.0000 0.0000 0.0000
# 2 27.1801 99.7643 34.5635 0.0000 0.0000 0.0000
# 3 21.3856 34.5635 93.6359 0.0000 0.0000 0.0000
# 4 0.0000 0.0000 0.0000 27.0532 0.0000 0.0000
# 5 0.0000 0.0000 0.0000 0.0000 49.6867 0.0000
# 6 0.0000 0.0000 0.0000 0.0000 0.0000 50.1821
#
#
#
# Elastic Compliance Matrix: (Units=1/GPa)
#
#
# Indices 1 2 3 4 5 6 
#
# 1 0.016567 -0.003672 -0.002428 0.000000 0.000000 0.000000
# 2 -0.003672 0.012307 -0.003704 0.000000 0.000000 0.000000
# 3 -0.002428 -0.003704 0.012602 0.000000 0.000000 0.000000
# 4 0.000000 0.000000 0.000000 0.036964 0.000000 0.000000
# 5 0.000000 0.000000 0.000000 0.000000 0.020126 0.000000
# 6 0.000000 0.000000 0.000000 0.000000 0.000000 0.019927
#
#
# Mechanical properties :
#
#
# Convention : Reuss Voigt Hill
#
# Bulk Modulus (GPa) = 45.73250 47.68671 46.70961
# Shear Modulus (GPa) = 34.38993 37.37059 35.88026
#
# Velocity S-wave (km/s) = 4.26790 4.44901 4.35939
# Velocity P-wave (km/s) = 6.96486 7.18675 7.07667
#
# Compressibility (1/GPa) = 0.02186629
#
# Stress axis : x y z
#
# Youngs Moduli (GPa) = 60.36251 81.25155 79.35508
#
# Poissons Ratio (x) = 0.29837 0.19269
# Poissons Ratio (y) = 0.22166 0.29396
# Poissons Ratio (z) = 0.14657 0.30098
#
# Static dielectric constant tensor:
#      x y z
#    x 3.219920 0.000000 0.000000 
#    y 0.000000 3.475610 0.000000 
#    z 0.000000 0.000000 3.770470 
# 
# 
# High freq. dielectric constant tensor:
#      x y z
#    x 1.711460 0.000000 0.000000 
#    y 0.000000 1.734350 0.000000 
#    z 0.000000 0.000000 1.746440 
# 
# From -- ./inp_files/72811.got.cif
#   From: 2010.03.12/outbox.cif.g09.slc.cpg/sg63_37_cif.got.tgz:72811.got - 2010.04.10 19:34:48.
