data_PCOD8261451
_publ_section_title
;
Structure prediction by ZEFSAII (Michael W. Deem and Ramdas Pophale) SiO2 
 PCOD8261451
Probable space group: C M C A
;
_chemical_formula_sum "Si O2"
_cell_formula_units_Z 96
_cell_length_a 15.197440
_cell_length_b 19.075842
_cell_length_c 15.716738
_cell_angle_alpha 90.000000
_cell_angle_beta 90.000000
_cell_angle_gamma 90.000000
_cell_volume 4556.344651
_symmetry_space_group_name_H-M "C M C A"
_symmetry_group_IT_number 64
_symmetry_cell_setting 'orthorhombic'
loop_
_space_group_symop_operation_xyz
x,y,z
-x,1/2-y,1/2+z
x,-y,-z
-x,1/2+y,1/2-z
-x,-y,-z
x,1/2+y,1/2-z
-x,y,z
x,1/2-y,1/2+z
1/2+x,1/2+y,z
1/2-x,-y,1/2+z
1/2+x,1/2-y,-z
1/2-x,y,1/2-z
1/2-x,1/2-y,-z
1/2+x,y,1/2-z
1/2-x,1/2+y,z
1/2+x,-y,1/2+z
loop_
_atom_site_type_symbol
_atom_site_label
_atom_site_fract_x
_atom_site_fract_y
_atom_site_fract_z
Si Si1 0.851309 0.716869 0.725839
Si Si2 0.595625 0.871113 0.127484
Si Si3 0.769508 0.918337 0.506559
Si Si4 0.144718 0.491122 0.253633
Si Si5 0.670389 0.132979 0.188967
Si Si6 0.399810 0.902962 0.405376
O O1 0.750000 0.707138 0.750000
O O2 0.901169 0.698371 0.813655
O O3 0.881569 0.793111 0.689674
O O4 0.877212 0.663838 0.651488
O O5 0.500000 0.872633 0.082020
O O6 0.602215 0.938138 0.188025
O O7 0.671895 0.872422 0.057841
O O8 0.789655 0.888436 0.598674
O O9 0.666479 0.906895 0.485287
O O10 0.796058 0.000000 0.500000
O O11 0.250000 0.487074 0.250000
O O12 0.112582 0.569171 0.227237
O O13 0.113315 0.473409 0.348949
O O14 0.750000 0.150177 0.250000
O O15 0.500000 0.899449 0.439359
#
# Coordination Sequence:
#
# PCOD8261451 Si02
#       6
#    16  16  16  16  16  16
#     4  10  19  40  65  91 125 172 215 260 321 392
#     4  11  21  38  64  95 126 167 214 262 322 386
#     4  12  22  42  68  98 131 165 218 278 322 382
#     4  10  16  37  62  93 128 167 210 264 323 386
#     4  10  22  38  66  95 124 174 220 264 326 385
#     4  11  22  39  67  97 128 171 216 260 323 393
#
# _framework density 21.069521999999999
#
# number of rings (size 3 to 8) (size 9 to 14) (size 15 to 20)
#    0.000    1.333    5.000    4.000    0.000    1.333 
#    0.000    5.000    0.000    5.000    0.000    0.000 
#    0.000    0.000    0.000    0.000    0.000    0.000 
#
# Total GULP energy -594975.194072 kJ/mol
# GULP energy per Si atom -12395.316543 kJ/mol
# Density = 2.102157 g / cm^3
# Si number density = 21.069522 Si / 1000 Ang^3
#
#
#
# Elastic Constant Matrix: (Units=GPa)
#
#
# Indices 1 2 3 4 5 6 
#
# 1 116.2368 32.3255 20.3526 0.0000 0.0000 0.0000
# 2 32.3255 154.1768 64.7461 0.0000 0.0000 0.0000
# 3 20.3526 64.7461 102.1262 0.0000 0.0000 0.0000
# 4 0.0000 0.0000 0.0000 29.9548 0.0000 0.0000
# 5 0.0000 0.0000 0.0000 0.0000 13.5004 0.0000
# 6 0.0000 0.0000 0.0000 0.0000 0.0000 -2.7738
#
#
#
# Elastic Compliance Matrix: (Units=1/GPa)
#
#
# Indices 1 2 3 4 5 6 
#
# 1 0.009187 -0.001577 -0.000831 0.000000 0.000000 0.000000
# 2 -0.001577 0.009110 -0.005461 0.000000 0.000000 0.000000
# 3 -0.000831 -0.005461 0.013420 0.000000 0.000000 0.000000
# 4 0.000000 0.000000 0.000000 0.033384 0.000000 0.000000
# 5 0.000000 0.000000 0.000000 0.000000 0.074072 0.000000
# 6 0.000000 0.000000 0.000000 0.000000 0.000000 -0.360511
#
#
# Mechanical properties :
#
#
# Convention : Reuss Voigt Hill
#
# Bulk Modulus (GPa) = 62.58572 67.48757 65.03665
# Shear Modulus (GPa) = -24.96595 25.14397 0.08901
#
# Velocity S-wave (km/s) = -3.44602 3.45828 0.20576
# Velocity P-wave (km/s) = 3.73303 6.93157 5.56697
#
# Compressibility (1/GPa) = 0.01597808
#
# Stress axis : x y z
#
# Youngs Moduli (GPa) = 108.84632 109.76626 74.51656
#
# Poissons Ratio (x) = 0.17313 0.06192
# Poissons Ratio (y) = 0.17168 0.40697
# Poissons Ratio (z) = 0.09044 0.59948
#
# Static dielectric constant tensor:
#      x y z
#    x 3.722280 0.000000 0.000000 
#    y 0.000000 4.308700 0.000000 
#    z 0.000000 0.000000 4.269210 
# 
# 
# High freq. dielectric constant tensor:
#      x y z
#    x 1.812980 0.000000 0.000000 
#    y 0.000000 1.827910 0.000000 
#    z 0.000000 0.000000 1.814290 
# 
# From -- ./inp_files/23952.got.cif
#   From: 2010.03.12/outbox.cif.g09.slc.cpg/sg64_12_cif.got.tgz:23952.got - 2010.04.10 20:19:32.
