data_PCOD8261453
_publ_section_title
;
Structure prediction by ZEFSAII (Michael W. Deem and Ramdas Pophale) SiO2 
 PCOD8261453
Probable space group: C M C A
;
_chemical_formula_sum "Si O2"
_cell_formula_units_Z 64
_cell_length_a 35.890668
_cell_length_b 5.235198
_cell_length_c 16.114619
_cell_angle_alpha 90.000000
_cell_angle_beta 90.000000
_cell_angle_gamma 90.000000
_cell_volume 3027.852362
_symmetry_space_group_name_H-M "C M C A"
_symmetry_group_IT_number 64
_symmetry_cell_setting 'orthorhombic'
loop_
_space_group_symop_operation_xyz
x,y,z
-x,1/2-y,1/2+z
x,-y,-z
-x,1/2+y,1/2-z
-x,-y,-z
x,1/2+y,1/2-z
-x,y,z
x,1/2-y,1/2+z
1/2+x,1/2+y,z
1/2-x,-y,1/2+z
1/2+x,1/2-y,-z
1/2-x,y,1/2-z
1/2-x,1/2-y,-z
1/2+x,y,1/2-z
1/2-x,1/2+y,z
1/2+x,-y,1/2+z
loop_
_atom_site_type_symbol
_atom_site_label
_atom_site_fract_x
_atom_site_fract_y
_atom_site_fract_z
Si Si1 0.264964 0.691004 0.592836
Si Si2 0.542051 0.108549 0.697236
Si Si3 0.112909 0.528267 0.597964
Si Si4 0.149881 0.969844 0.406032
O O1 0.250000 0.750000 0.500000
O O2 0.240006 0.467600 0.637113
O O3 0.306606 0.589376 0.596258
O O4 0.549216 0.386168 0.736124
O O5 0.500000 0.089012 0.662256
O O6 0.569908 0.073743 0.620390
O O7 0.117550 0.500000 0.500000
O O8 0.127896 0.263488 0.638152
O O9 0.138534 0.759050 0.635345
O O10 0.135975 0.000000 0.500000
#
# Coordination Sequence:
#
# PCOD8261453 Si02
#       4
#    16  16  16  16
#     4  10  17  24  41  64 100 151 174 211 253 325
#     4  10  21  39  61  81 105 141 187 228 264 322
#     4  10  21  33  52  80 114 145 169 226 276 331
#     4  10  18  29  44  71 112 148 170 211 276 321
#
# _framework density 21.137093
#
# number of rings (size 3 to 8) (size 9 to 14) (size 15 to 20)
#    0.000    2.000    2.500    3.000    7.000    0.500 
#    0.000    0.000    0.000    9.000    0.000    0.000 
#    0.000   70.000    0.000    0.000    0.000    0.000 
#
# Total GULP energy -396440.115835 kJ/mol
# GULP energy per Si atom -12388.753620 kJ/mol
# Density = 2.108898 g / cm^3
# Si number density = 21.137093 Si / 1000 Ang^3
#
#
#
# Elastic Constant Matrix: (Units=GPa)
#
#
# Indices 1 2 3 4 5 6 
#
# 1 150.9805 67.7326 16.0738 0.0000 0.0000 0.0000
# 2 67.7326 214.4345 11.8936 0.0000 0.0000 0.0000
# 3 16.0738 11.8936 4.8942 0.0000 0.0000 0.0000
# 4 0.0000 0.0000 0.0000 8.3437 0.0000 0.0000
# 5 0.0000 0.0000 0.0000 0.0000 11.7013 0.0000
# 6 0.0000 0.0000 0.0000 0.0000 0.0000 39.9727
#
#
#
# Elastic Compliance Matrix: (Units=1/GPa)
#
#
# Indices 1 2 3 4 5 6 
#
# 1 0.010666 -0.001648 -0.031023 0.000000 0.000000 0.000000
# 2 -0.001648 0.005645 -0.008304 0.000000 0.000000 0.000000
# 3 -0.031023 -0.008304 0.326390 0.000000 0.000000 0.000000
# 4 0.000000 0.000000 0.000000 0.119851 0.000000 0.000000
# 5 0.000000 0.000000 0.000000 0.000000 0.085461 0.000000
# 6 0.000000 0.000000 0.000000 0.000000 0.000000 0.025017
#
#
# Mechanical properties :
#
#
# Convention : Reuss Voigt Hill
#
# Bulk Modulus (GPa) = 3.83510 62.41213 33.12361
# Shear Modulus (GPa) = 6.73949 30.31082 18.52515
#
# Velocity S-wave (km/s) = 1.78756 3.79094 2.96367
# Velocity P-wave (km/s) = 2.46553 6.98234 5.23602
#
# Compressibility (1/GPa) = 0.26074963
#
# Stress axis : x y z
#
# Youngs Moduli (GPa) = 93.75941 177.15975 3.06382
#
# Poissons Ratio (x) = 0.29200 0.09505
# Poissons Ratio (y) = 0.15454 0.02544
# Poissons Ratio (z) = 2.90871 1.47113
#
# Static dielectric constant tensor:
#      x y z
#    x 3.837980 0.000000 0.000000 
#    y 0.000000 14.769010 0.000000 
#    z 0.000000 0.000000 3.051940 
# 
# 
# High freq. dielectric constant tensor:
#      x y z
#    x 1.833390 0.000000 0.000000 
#    y 0.000000 1.876200 0.000000 
#    z 0.000000 0.000000 1.745660 
# 
# From -- ./inp_files/35627.got.cif
#   From: 2010.03.12/outbox.cif.g09.slc.cpg/sg64_18_cif.got.tgz:35627.got - 2010.04.10 20:19:32.
