data_PCOD8261430
_publ_section_title
;
Structure prediction by ZEFSAII (Michael W. Deem and Ramdas Pophale) SiO2 
 PCOD8261430
Probable space group: C M C A
;
_chemical_formula_sum "Si O2"
_cell_formula_units_Z 88
_cell_length_a 23.346713
_cell_length_b 13.561200
_cell_length_c 14.351411
_cell_angle_alpha 90.000000
_cell_angle_beta 90.000000
_cell_angle_gamma 90.000000
_cell_volume 4543.792262
_symmetry_space_group_name_H-M "C M C A"
_symmetry_group_IT_number 64
_symmetry_cell_setting 'orthorhombic'
loop_
_space_group_symop_operation_xyz
x,y,z
-x,1/2-y,1/2+z
x,-y,-z
-x,1/2+y,1/2-z
-x,-y,-z
x,1/2+y,1/2-z
-x,y,z
x,1/2-y,1/2+z
1/2+x,1/2+y,z
1/2-x,-y,1/2+z
1/2+x,1/2-y,-z
1/2-x,y,1/2-z
1/2-x,1/2-y,-z
1/2+x,y,1/2-z
1/2-x,1/2+y,z
1/2+x,-y,1/2+z
loop_
_atom_site_type_symbol
_atom_site_label
_atom_site_fract_x
_atom_site_fract_y
_atom_site_fract_z
Si Si1 0.000000 0.293769 0.698135
Si Si2 0.500000 0.493953 0.141467
Si Si3 0.123708 0.513426 0.603570
Si Si4 0.876898 0.489762 0.103533
Si Si5 0.000000 0.575118 0.854161
Si Si6 0.121104 0.344208 0.752785
Si Si7 0.317138 0.854941 0.249795
O O1 0.000000 0.387386 0.629205
O O2 0.057514 0.297189 0.761090
O O3 0.000000 0.193357 0.639832
O O4 0.442721 0.450670 0.094617
O O5 0.500000 0.466211 0.249778
O O6 0.149321 0.500000 0.500000
O O7 0.126937 0.411678 0.660824
O O8 0.158541 0.598375 0.655411
O O9 0.866742 0.592813 0.155275
O O10 0.844564 0.403233 0.158158
O O11 0.943975 0.464993 0.094820
O O12 0.851122 0.500000 0.000000
O O13 0.169004 0.260508 0.747546
O O14 0.250000 0.872203 0.250000
#
# Coordination Sequence:
#
# PCOD8261430 Si02
#       7
#     8   8  16  16   8  16  16
#     4  10  16  31  61  82 118 158 185 228 293 357
#     4  10  17  35  60  93 122 154 189 232 300 363
#     4  10  21  38  64  91 120 153 198 245 298 354
#     4  11  23  39  64  93 123 153 195 246 302 358
#     4  12  17  36  62  89 126 156 181 240 296 372
#     4  10  20  39  60  85 121 157 195 240 301 355
#     4  11  24  42  61  83 116 162 206 248 296 345
#
# _framework density 19.367082
#
# number of rings (size 3 to 8) (size 9 to 14) (size 15 to 20)
#    0.000    1.455    7.273    0.545    0.000    5.091 
#    0.000    1.818    4.000    0.000    0.000    0.000 
#    0.000    0.000    0.000    0.000    0.000    0.000 
#
# Total GULP energy -545623.792545 kJ/mol
# GULP energy per Si atom -12400.540740 kJ/mol
# Density = 1.932300 g / cm^3
# Si number density = 19.367082 Si / 1000 Ang^3
#
#
#
# Elastic Constant Matrix: (Units=GPa)
#
#
# Indices 1 2 3 4 5 6 
#
# 1 112.9532 41.4274 31.9892 0.0000 0.0000 0.0000
# 2 41.4274 108.1034 42.4110 0.0000 0.0000 0.0000
# 3 31.9892 42.4110 148.2087 0.0000 0.0000 0.0000
# 4 0.0000 0.0000 0.0000 9.4099 0.0000 0.0000
# 5 0.0000 0.0000 0.0000 0.0000 6.4262 0.0000
# 6 0.0000 0.0000 0.0000 0.0000 0.0000 17.9256
#
#
#
# Elastic Compliance Matrix: (Units=1/GPa)
#
#
# Indices 1 2 3 4 5 6 
#
# 1 0.010505 -0.003533 -0.001256 0.000000 0.000000 0.000000
# 2 -0.003533 0.011608 -0.002559 0.000000 0.000000 0.000000
# 3 -0.001256 -0.002559 0.007751 0.000000 0.000000 0.000000
# 4 0.000000 0.000000 0.000000 0.106271 0.000000 0.000000
# 5 0.000000 0.000000 0.000000 0.000000 0.155612 0.000000
# 6 0.000000 0.000000 0.000000 0.000000 0.000000 0.055786
#
#
# Mechanical properties :
#
#
# Convention : Reuss Voigt Hill
#
# Bulk Modulus (GPa) = 65.93286 66.76893 66.35090
# Shear Modulus (GPa) = 13.61338 23.64820 18.63079
#
# Velocity S-wave (km/s) = 2.65413 3.49815 3.10495
# Velocity P-wave (km/s) = 6.59623 7.13206 6.86937
#
# Compressibility (1/GPa) = 0.01516694
#
# Stress axis : x y z
#
# Youngs Moduli (GPa) = 95.19519 86.14546 129.01923
#
# Poissons Ratio (x) = 0.30433 0.16210
# Poissons Ratio (y) = 0.33630 0.33020
# Poissons Ratio (z) = 0.11960 0.22047
#
# Static dielectric constant tensor:
#      x y z
#    x 3.552900 0.000000 0.000000 
#    y 0.000000 3.558830 0.000000 
#    z 0.000000 0.000000 3.367180 
# 
# 
# High freq. dielectric constant tensor:
#      x y z
#    x 1.748200 0.000000 0.000000 
#    y 0.000000 1.756400 0.000000 
#    z 0.000000 0.000000 1.736120 
# 
# From -- ./inp_files/26268.got.cif
#   From: 2010.03.12/outbox.cif.g09.slc.cpg/sg64_14_cif.got.tgz:26268.got - 2010.04.10 20:19:32.
