data_PCOD8261564
_publ_section_title
;
Structure prediction by ZEFSAII (Michael W. Deem and Ramdas Pophale) SiO2 
 PCOD8261564
Probable space group: C M C A
;
_chemical_formula_sum "Si O2"
_cell_formula_units_Z 96
_cell_length_a 18.659310
_cell_length_b 23.096548
_cell_length_c 11.611201
_cell_angle_alpha 90.000000
_cell_angle_beta 90.000000
_cell_angle_gamma 90.000000
_cell_volume 5004.028775
_symmetry_space_group_name_H-M "C M C A"
_symmetry_group_IT_number 64
_symmetry_cell_setting 'orthorhombic'
loop_
_space_group_symop_operation_xyz
x,y,z
-x,1/2-y,1/2+z
x,-y,-z
-x,1/2+y,1/2-z
-x,-y,-z
x,1/2+y,1/2-z
-x,y,z
x,1/2-y,1/2+z
1/2+x,1/2+y,z
1/2-x,-y,1/2+z
1/2+x,1/2-y,-z
1/2-x,y,1/2-z
1/2-x,1/2-y,-z
1/2+x,y,1/2-z
1/2-x,1/2+y,z
1/2+x,-y,1/2+z
loop_
_atom_site_type_symbol
_atom_site_label
_atom_site_fract_x
_atom_site_fract_y
_atom_site_fract_z
Si Si1 0.916847 0.848569 0.335561
Si Si2 0.191209 0.628045 0.505003
Si Si3 0.332021 0.447396 0.214082
Si Si4 0.665490 0.077666 0.271901
Si Si5 0.153290 0.651710 0.069528
Si Si6 0.322961 0.225739 0.680189
O O1 0.878489 0.908240 0.300124
O O2 0.905778 0.837006 0.471851
O O3 0.887074 0.793781 0.264007
O O4 0.000000 0.854207 0.308460
O O5 0.163311 0.576346 0.585033
O O6 0.150729 0.617782 0.383865
O O7 0.276639 0.625779 0.491494
O O8 0.172354 0.689711 0.561392
O O9 0.250000 0.444945 0.250000
O O10 0.363034 0.512387 0.213323
O O11 0.750000 0.077272 0.250000
O O12 0.624430 0.105104 0.162437
O O13 0.171895 0.708130 0.144420
O O14 0.250000 0.213181 0.750000
#
# Coordination Sequence:
#
# PCOD8261564 Si02
#       6
#    16  16  16  16  16  16
#     4  11  24  40  58  82 116 161 201 238 298 355
#     4  10  17  33  57  91 112 144 187 238 292 335
#     4  10  18  37  59  83 117 151 192 243 288 341
#     4   9  20  30  55  91 118 142 185 241 292 343
#     4  11  21  35  57  87 120 147 190 242 297 347
#     4  11  21  36  64  86 117 151 195 248 290 346
#
# _framework density 19.184543000000001
#
# number of rings (size 3 to 8) (size 9 to 14) (size 15 to 20)
#    0.000    1.667    3.333    3.500    2.333    1.333 
#    0.000    1.667    0.000    9.000    0.000    0.000 
#    0.000    0.000    0.000    0.000    0.000    0.000 
#
# Total GULP energy -595136.032834 kJ/mol
# GULP energy per Si atom -12398.667351 kJ/mol
# Density = 1.914088 g / cm^3
# Si number density = 19.184543 Si / 1000 Ang^3
#
#
#
# Elastic Constant Matrix: (Units=GPa)
#
#
# Indices 1 2 3 4 5 6 
#
# 1 73.9265 18.8667 26.8376 0.0000 0.0000 0.0000
# 2 18.8667 117.7081 47.8389 0.0000 0.0000 0.0000
# 3 26.8376 47.8389 119.5774 0.0000 0.0000 0.0000
# 4 0.0000 0.0000 0.0000 22.1523 0.0000 0.0000
# 5 0.0000 0.0000 0.0000 0.0000 14.2050 0.0000
# 6 0.0000 0.0000 0.0000 0.0000 0.0000 2.6443
#
#
#
# Elastic Compliance Matrix: (Units=1/GPa)
#
#
# Indices 1 2 3 4 5 6 
#
# 1 0.014874 -0.001227 -0.002847 0.000000 0.000000 0.000000
# 2 -0.001227 0.010246 -0.003824 0.000000 0.000000 0.000000
# 3 -0.002847 -0.003824 0.010532 0.000000 0.000000 0.000000
# 4 0.000000 0.000000 0.000000 0.045142 0.000000 0.000000
# 5 0.000000 0.000000 0.000000 0.000000 0.070398 0.000000
# 6 0.000000 0.000000 0.000000 0.000000 0.000000 0.378167
#
#
# Mechanical properties :
#
#
# Convention : Reuss Voigt Hill
#
# Bulk Modulus (GPa) = 50.36371 55.36650 52.86510
# Shear Modulus (GPa) = 9.06170 22.31157 15.68663
#
# Velocity S-wave (km/s) = 2.17571 3.41397 2.86260
# Velocity P-wave (km/s) = 5.71146 6.66805 6.20821
#
# Compressibility (1/GPa) = 0.01985557
#
# Stress axis : x y z
#
# Youngs Moduli (GPa) = 67.23258 97.59592 94.95176
#
# Poissons Ratio (x) = 0.11973 0.27037
# Poissons Ratio (y) = 0.08248 0.36308
# Poissons Ratio (z) = 0.19144 0.37320
#
# Static dielectric constant tensor:
#      x y z
#    x 2.972300 0.000000 0.000000 
#    y 0.000000 3.661510 0.000000 
#    z 0.000000 0.000000 3.865430 
# 
# 
# High freq. dielectric constant tensor:
#      x y z
#    x 1.684650 0.000000 0.000000 
#    y 0.000000 1.754370 0.000000 
#    z 0.000000 0.000000 1.768600 
# 
# From -- ./inp_files/16176.got.cif
#   From: 2010.03.12/outbox.cif.g09.slc.cpg/sg64_9_cif.got.tgz:16176.got - 2010.04.10 20:19:32.
