data_PCOD8261148
_publ_section_title
;
Structure prediction by ZEFSAII (Michael W. Deem and Ramdas Pophale) SiO2 
 PCOD8261148
Probable space group: C M C M
;
_chemical_formula_sum "Si O2"
_cell_formula_units_Z 80
_cell_length_a 10.316539
_cell_length_b 14.971827
_cell_length_c 24.501527
_cell_angle_alpha 90.000000
_cell_angle_beta 90.000000
_cell_angle_gamma 90.000000
_cell_volume 3784.443067
_symmetry_space_group_name_H-M "C M C M"
_symmetry_group_IT_number 63
_symmetry_cell_setting 'orthorhombic'
loop_
_space_group_symop_operation_xyz
x,y,z
-x,-y,1/2+z
x,-y,-z
-x,y,1/2-z
-x,-y,-z
x,y,1/2-z
-x,y,z
x,-y,1/2+z
1/2+x,1/2+y,z
1/2-x,1/2-y,1/2+z
1/2+x,1/2-y,-z
1/2-x,1/2+y,1/2-z
1/2-x,1/2-y,-z
1/2+x,1/2+y,1/2-z
1/2-x,1/2+y,z
1/2+x,1/2-y,1/2+z
loop_
_atom_site_type_symbol
_atom_site_label
_atom_site_fract_x
_atom_site_fract_y
_atom_site_fract_z
Si Si1 0.143457 0.145884 0.968533
Si Si2 0.767216 0.674979 0.077190
Si Si3 0.653027 0.915414 0.191961
Si Si4 0.352563 0.984157 0.420676
Si Si5 0.652795 0.287829 0.689519
O O1 0.155389 0.232298 0.929179
O O2 0.253832 0.071776 0.957971
O O3 0.000000 0.104826 0.959006
O O4 0.153044 0.176792 0.031833
O O5 0.855621 0.588570 0.064410
O O6 0.716547 0.660458 0.138904
O O7 0.710640 0.951251 0.250000
O O8 0.500000 0.918396 0.195654
O O9 0.700078 0.974322 0.141313
O O10 0.697872 0.814158 0.182977
O O11 0.500000 0.946977 0.428162
O O12 0.697565 0.322893 0.750000
O O13 0.500000 0.297828 0.684456
#
# Coordination Sequence:
#
# PCOD8261148 Si02
#       5
#    16  16  16  16  16
#     4  11  25  42  60  87 126 165 201 248 306 361
#     4  11  23  38  62  90 122 158 203 252 302 358
#     4   8  15  31  57  86 116 153 197 243 293 353
#     4  11  23  40  64  91 120 159 207 253 301 360
#     4   9  17  33  60  91 121 156 199 246 300 362
#
# _framework density 21.139174000000001
#
# number of rings (size 3 to 8) (size 9 to 14) (size 15 to 20)
#    0.000    2.000    2.000    3.000    0.000    8.000 
#    0.000    0.000    0.000    3.600    0.000    0.000 
#    0.000    0.000    0.000    0.000    0.000    0.000 
#
# Total GULP energy -495557.968509 kJ/mol
# GULP energy per Si atom -12388.949213 kJ/mol
# Density = 2.109106 g / cm^3
# Si number density = 21.139174 Si / 1000 Ang^3
#
#
#
# Elastic Constant Matrix: (Units=GPa)
#
#
# Indices 1 2 3 4 5 6 
#
# 1 92.7623 25.5506 37.9579 0.0000 0.0000 0.0000
# 2 25.5506 85.8162 19.1376 0.0000 0.0000 0.0000
# 3 37.9579 19.1376 162.9674 0.0000 0.0000 0.0000
# 4 0.0000 0.0000 0.0000 23.9922 0.0000 0.0000
# 5 0.0000 0.0000 0.0000 0.0000 20.5593 0.0000
# 6 0.0000 0.0000 0.0000 0.0000 0.0000 21.3108
#
#
#
# Elastic Compliance Matrix: (Units=1/GPa)
#
#
# Indices 1 2 3 4 5 6 
#
# 1 0.012723 -0.003211 -0.002586 0.000000 0.000000 0.000000
# 2 -0.003211 0.012777 -0.000752 0.000000 0.000000 0.000000
# 3 -0.002586 -0.000752 0.006827 0.000000 0.000000 0.000000
# 4 0.000000 0.000000 0.000000 0.041680 0.000000 0.000000
# 5 0.000000 0.000000 0.000000 0.000000 0.048640 0.000000
# 6 0.000000 0.000000 0.000000 0.000000 0.000000 0.046924
#
#
# Mechanical properties :
#
#
# Convention : Reuss Voigt Hill
#
# Bulk Modulus (GPa) = 52.01127 56.31535 54.16331
# Shear Modulus (GPa) = 26.44379 30.43246 28.43813
#
# Velocity S-wave (km/s) = 3.54070 3.79835 3.67179
# Velocity P-wave (km/s) = 6.43219 6.77752 6.60711
#
# Compressibility (1/GPa) = 0.01922660
#
# Stress axis : x y z
#
# Youngs Moduli (GPa) = 78.59728 78.26723 146.47830
#
# Poissons Ratio (x) = 0.25134 0.37884
# Poissons Ratio (y) = 0.25240 0.11021
# Poissons Ratio (z) = 0.20328 0.05889
#
# Static dielectric constant tensor:
#      x y z
#    x 3.323440 0.000000 0.000000 
#    y 0.000000 3.603600 0.000000 
#    z 0.000000 0.000000 3.651020 
# 
# 
# High freq. dielectric constant tensor:
#      x y z
#    x 1.783280 0.000000 0.000000 
#    y 0.000000 1.814650 0.000000 
#    z 0.000000 0.000000 1.854340 
# 
# From -- ./inp_files/61102.got.cif
#   From: 2010.03.12/outbox.cif.g09.slc.cpg/sg63_31_cif.got.tgz:61102.got - 2010.04.10 19:34:48.
