data_PCOD8261534
_publ_section_title
;
Structure prediction by ZEFSAII (Michael W. Deem and Ramdas Pophale) SiO2 
 PCOD8261534
Probable space group: C M C A
;
_chemical_formula_sum "Si O2"
_cell_formula_units_Z 88
_cell_length_a 15.416049
_cell_length_b 18.129393
_cell_length_c 16.661852
_cell_angle_alpha 90.000000
_cell_angle_beta 90.000000
_cell_angle_gamma 90.000000
_cell_volume 4656.714560
_symmetry_space_group_name_H-M "C M C A"
_symmetry_group_IT_number 64
_symmetry_cell_setting 'orthorhombic'
loop_
_space_group_symop_operation_xyz
x,y,z
-x,1/2-y,1/2+z
x,-y,-z
-x,1/2+y,1/2-z
-x,-y,-z
x,1/2+y,1/2-z
-x,y,z
x,1/2-y,1/2+z
1/2+x,1/2+y,z
1/2-x,-y,1/2+z
1/2+x,1/2-y,-z
1/2-x,y,1/2-z
1/2-x,1/2-y,-z
1/2+x,y,1/2-z
1/2-x,1/2+y,z
1/2+x,-y,1/2+z
loop_
_atom_site_type_symbol
_atom_site_label
_atom_site_fract_x
_atom_site_fract_y
_atom_site_fract_z
Si Si1 0.500000 0.381041 0.152602
Si Si2 0.500000 0.830005 0.529230
Si Si3 0.102424 0.426374 0.953458
Si Si4 0.095222 0.306016 0.072288
Si Si5 0.650787 0.871162 0.228638
Si Si6 0.000000 0.053823 0.168893
Si Si7 0.346223 0.038987 0.216995
O O1 0.413967 0.351130 0.198204
O O2 0.500000 0.468736 0.144557
O O3 0.500000 0.350305 0.063355
O O4 0.414027 0.779896 0.546683
O O5 0.500000 0.900694 0.586291
O O6 0.149048 0.419968 0.867762
O O7 0.000000 0.424446 0.938185
O O8 0.131295 0.500000 0.000000
O O9 0.138551 0.355514 0.002498
O O10 0.143443 0.312778 0.156635
O O11 0.000000 0.341836 0.086402
O O12 0.750000 0.865713 0.250000
O O13 0.627937 0.953926 0.200577
O O14 0.085729 0.073886 0.220030
O O15 0.250000 0.048313 0.250000
#
# Coordination Sequence:
#
# PCOD8261534 Si02
#       7
#     8   8  16  16  16   8  16
#     4  10  20  39  63  80 110 151 200 239 287 352
#     4  10  22  40  56  84 112 161 198 233 291 351
#     4  10  17  30  60  86 112 145 188 238 288 328
#     4   9  19  36  58  82 117 147 185 242 287 336
#     4  10  19  36  61  88 114 151 188 235 292 346
#     4  10  21  39  61  75 117 159 191 247 287 342
#     4  10  20  35  58  93 118 144 193 240 290 344
#
# _framework density 18.897444
#
# number of rings (size 3 to 8) (size 9 to 14) (size 15 to 20)
#    0.545    1.636    3.636    0.273    0.000    0.000 
#    9.818    1.818    0.000    0.000    0.000    0.000 
#    0.000    0.000    0.000    0.000    0.000    0.000 
#
# Total GULP energy -545400.849307 kJ/mol
# GULP energy per Si atom -12395.473848 kJ/mol
# Density = 1.885443 g / cm^3
# Si number density = 18.897444 Si / 1000 Ang^3
#
#
#
# Elastic Constant Matrix: (Units=GPa)
#
#
# Indices 1 2 3 4 5 6 
#
# 1 85.8702 23.8154 49.4035 0.0000 0.0000 0.0000
# 2 23.8154 71.7136 60.1800 0.0000 0.0000 0.0000
# 3 49.4035 60.1800 176.2613 0.0000 0.0000 0.0000
# 4 0.0000 0.0000 0.0000 30.7531 0.0000 0.0000
# 5 0.0000 0.0000 0.0000 0.0000 21.2301 0.0000
# 6 0.0000 0.0000 0.0000 0.0000 0.0000 3.0215
#
#
#
# Elastic Compliance Matrix: (Units=1/GPa)
#
#
# Indices 1 2 3 4 5 6 
#
# 1 0.014069 -0.001910 -0.003291 0.000000 0.000000 0.000000
# 2 -0.001910 0.019803 -0.006226 0.000000 0.000000 0.000000
# 3 -0.003291 -0.006226 0.008722 0.000000 0.000000 0.000000
# 4 0.000000 0.000000 0.000000 0.032517 0.000000 0.000000
# 5 0.000000 0.000000 0.000000 0.000000 0.047103 0.000000
# 6 0.000000 0.000000 0.000000 0.000000 0.000000 0.330956
#
#
# Mechanical properties :
#
#
# Convention : Reuss Voigt Hill
#
# Bulk Modulus (GPa) = 50.66112 66.73812 58.69962
# Shear Modulus (GPa) = 10.36046 24.36402 17.36224
#
# Velocity S-wave (km/s) = 2.34401 3.59454 3.03440
# Velocity P-wave (km/s) = 5.84743 7.25398 6.58835
#
# Compressibility (1/GPa) = 0.01973900
#
# Stress axis : x y z
#
# Youngs Moduli (GPa) = 71.07969 50.49642 114.65913
#
# Poissons Ratio (x) = 0.09647 0.37734
# Poissons Ratio (y) = 0.13579 0.71386
# Poissons Ratio (z) = 0.23392 0.31439
#
# Static dielectric constant tensor:
#      x y z
#    x 3.275260 0.000000 0.000000 
#    y 0.000000 3.260670 0.000000 
#    z 0.000000 0.000000 3.415690 
# 
# 
# High freq. dielectric constant tensor:
#      x y z
#    x 1.711920 0.000000 0.000000 
#    y 0.000000 1.711140 0.000000 
#    z 0.000000 0.000000 1.745750 
# 
# From -- ./inp_files/23796.got.cif
#   From: 2010.03.12/outbox.cif.g09.slc.cpg/sg64_12_cif.got.tgz:23796.got - 2010.04.10 20:19:32.
