data_PCOD8261697
_publ_section_title
;
Structure prediction by ZEFSAII (Michael W. Deem and Ramdas Pophale) SiO2 
 PCOD8261697
Probable space group: C M C A
;
_chemical_formula_sum "Si O2"
_cell_formula_units_Z 80
_cell_length_a 8.852445
_cell_length_b 24.970960
_cell_length_c 20.905283
_cell_angle_alpha 90.000000
_cell_angle_beta 90.000000
_cell_angle_gamma 90.000000
_cell_volume 4621.197473
_symmetry_space_group_name_H-M "C M C A"
_symmetry_group_IT_number 64
_symmetry_cell_setting 'orthorhombic'
loop_
_space_group_symop_operation_xyz
x,y,z
-x,1/2-y,1/2+z
x,-y,-z
-x,1/2+y,1/2-z
-x,-y,-z
x,1/2+y,1/2-z
-x,y,z
x,1/2-y,1/2+z
1/2+x,1/2+y,z
1/2-x,-y,1/2+z
1/2+x,1/2-y,-z
1/2-x,y,1/2-z
1/2-x,1/2-y,-z
1/2+x,y,1/2-z
1/2-x,1/2+y,z
1/2+x,-y,1/2+z
loop_
_atom_site_type_symbol
_atom_site_label
_atom_site_fract_x
_atom_site_fract_y
_atom_site_fract_z
Si Si1 0.174989 0.815339 0.051675
Si Si2 0.676579 0.935229 0.448950
Si Si3 0.676368 0.287429 0.908664
Si Si4 0.676976 0.038414 0.081901
Si Si5 0.676577 0.628413 0.318423
O O1 0.207695 0.875305 0.076670
O O2 0.273155 0.774695 0.094156
O O3 0.000000 0.799695 0.058674
O O4 0.223034 0.811742 0.977271
O O5 0.500000 0.948679 0.447183
O O6 0.732416 0.938876 0.521684
O O7 0.766677 0.977594 0.404611
O O8 0.500000 0.291758 0.895431
O O9 0.761218 0.319297 0.853519
O O10 0.500000 0.038727 0.066088
O O11 0.716405 0.074709 0.142572
O O12 0.500000 0.636157 0.310046
O O13 0.750000 0.621743 0.250000
#
# Coordination Sequence:
#
# PCOD8261697 Si02
#       5
#    16  16  16  16  16
#     4   9  18  31  49  76 107 136 167 208 258 309
#     4  10  18  30  51  76 105 137 166 208 257 307
#     4  10  19  32  51  75 104 136 172 212 257 306
#     4  10  20  32  48  74 104 134 170 212 258 307
#     4  11  23  37  54  74 103 139 176 216 255 303
#
# _framework density 17.311530000000001
#
# number of rings (size 3 to 8) (size 9 to 14) (size 15 to 20)
#    0.000    2.000    2.000    3.600    0.000    4.800 
#    0.000    0.000    0.000    1.200    0.000    2.800 
#    0.000    0.000    0.000    0.000    0.000    0.000 
#
# Total GULP energy -496032.544944 kJ/mol
# GULP energy per Si atom -12400.813624 kJ/mol
# Density = 1.727213 g / cm^3
# Si number density = 17.311530 Si / 1000 Ang^3
#
#
#
# Elastic Constant Matrix: (Units=GPa)
#
#
# Indices 1 2 3 4 5 6 
#
# 1 72.7957 48.9073 40.8917 0.0000 0.0000 0.0000
# 2 48.9073 134.2936 52.8031 0.0000 0.0000 0.0000
# 3 40.8917 52.8031 86.3466 0.0000 0.0000 0.0000
# 4 0.0000 0.0000 0.0000 12.1675 0.0000 0.0000
# 5 0.0000 0.0000 0.0000 0.0000 25.9786 0.0000
# 6 0.0000 0.0000 0.0000 0.0000 0.0000 32.6371
#
#
#
# Elastic Compliance Matrix: (Units=1/GPa)
#
#
# Indices 1 2 3 4 5 6 
#
# 1 0.020907 -0.004899 -0.006905 0.000000 0.000000 0.000000
# 2 -0.004899 0.010952 -0.004377 0.000000 0.000000 0.000000
# 3 -0.006905 -0.004377 0.017528 0.000000 0.000000 0.000000
# 4 0.000000 0.000000 0.000000 0.082186 0.000000 0.000000
# 5 0.000000 0.000000 0.000000 0.000000 0.038493 0.000000
# 6 0.000000 0.000000 0.000000 0.000000 0.000000 0.030640
#
#
# Mechanical properties :
#
#
# Convention : Reuss Voigt Hill
#
# Bulk Modulus (GPa) = 58.74005 64.29334 61.51670
# Shear Modulus (GPa) = 20.94291 24.21222 22.57757
#
# Velocity S-wave (km/s) = 3.48194 3.74387 3.61528
# Velocity P-wave (km/s) = 7.08308 7.47719 7.28280
#
# Compressibility (1/GPa) = 0.01702416
#
# Stress axis : x y z
#
# Youngs Moduli (GPa) = 47.82997 91.31157 57.05089
#
# Poissons Ratio (x) = 0.44733 0.39396
# Poissons Ratio (y) = 0.23432 0.24972
# Poissons Ratio (z) = 0.33029 0.39968
#
# Static dielectric constant tensor:
#      x y z
#    x 3.321460 0.000000 0.000000 
#    y 0.000000 3.534560 0.000000 
#    z 0.000000 0.000000 2.860080 
# 
# 
# High freq. dielectric constant tensor:
#      x y z
#    x 1.684290 0.000000 0.000000 
#    y 0.000000 1.684560 0.000000 
#    z 0.000000 0.000000 1.618980 
# 
# From -- ./inp_files/29758.got.cif
#   From: 2010.03.12/outbox.cif.g09.slc.cpg/sg64_15_cif.got.tgz:29758.got - 2010.04.10 20:19:32.
