data_PCOD8261568
_publ_section_title
;
Structure prediction by ZEFSAII (Michael W. Deem and Ramdas Pophale) SiO2 
 PCOD8261568
Probable space group: C M C A
;
_chemical_formula_sum "Si O2"
_cell_formula_units_Z 96
_cell_length_a 15.608581
_cell_length_b 18.325011
_cell_length_c 18.216166
_cell_angle_alpha 90.000000
_cell_angle_beta 90.000000
_cell_angle_gamma 90.000000
_cell_volume 5210.322936
_symmetry_space_group_name_H-M "C M C A"
_symmetry_group_IT_number 64
_symmetry_cell_setting 'orthorhombic'
loop_
_space_group_symop_operation_xyz
x,y,z
-x,1/2-y,1/2+z
x,-y,-z
-x,1/2+y,1/2-z
-x,-y,-z
x,1/2+y,1/2-z
-x,y,z
x,1/2-y,1/2+z
1/2+x,1/2+y,z
1/2-x,-y,1/2+z
1/2+x,1/2-y,-z
1/2-x,y,1/2-z
1/2-x,1/2-y,-z
1/2+x,y,1/2-z
1/2-x,1/2+y,z
1/2+x,-y,1/2+z
loop_
_atom_site_type_symbol
_atom_site_label
_atom_site_fract_x
_atom_site_fract_y
_atom_site_fract_z
Si Si1 0.096182 0.643504 0.848189
Si Si2 0.667223 0.174114 0.702319
Si Si3 0.903518 0.793605 0.594400
Si Si4 0.247670 0.399546 0.935612
Si Si5 0.245685 0.942080 0.395565
Si Si6 0.162082 0.263079 0.544288
O O1 0.092356 0.655833 0.760547
O O2 0.149529 0.570219 0.864628
O O3 0.148160 0.708968 0.887819
O O4 0.000000 0.636820 0.879040
O O5 0.750000 0.195124 0.750000
O O6 0.638753 0.243206 0.655803
O O7 0.684884 0.103835 0.650830
O O8 0.844455 0.865305 0.586150
O O9 0.910809 0.748813 0.517161
O O10 0.000000 0.816665 0.616707
O O11 0.265485 0.471850 0.887804
O O12 0.328153 0.344468 0.922008
O O13 0.246488 0.417645 0.020966
O O14 0.250000 0.250000 0.500000
#
# Coordination Sequence:
#
# PCOD8261568 Si02
#       6
#    16  16  16  16  16  16
#     4  11  21  35  56  83 112 145 181 227 280 323
#     4  10  20  37  56  77 107 151 193 219 258 330
#     4  11  20  33  56  85 112 138 177 231 282 319
#     4  10  19  33  56  82 108 138 178 230 270 324
#     4  10  19  34  55  79 108 143 181 219 270 327
#     4  10  17  34  55  80 109 141 181 223 267 325
#
# _framework density 18.424962000000001
#
# number of rings (size 3 to 8) (size 9 to 14) (size 15 to 20)
#    0.000    1.667    5.000    4.000    0.000    0.667 
#    0.000    9.167    0.000    7.000    0.000    0.000 
#    0.000    0.000    0.000    0.000    0.000    0.000 
#
# Total GULP energy -594844.438119 kJ/mol
# GULP energy per Si atom -12392.592461 kJ/mol
# Density = 1.838303 g / cm^3
# Si number density = 18.424962 Si / 1000 Ang^3
#
#
#
# Elastic Constant Matrix: (Units=GPa)
#
#
# Indices 1 2 3 4 5 6 
#
# 1 51.2676 11.7387 13.4437 0.0000 0.0000 0.0000
# 2 11.7387 101.6999 41.2158 0.0000 0.0000 0.0000
# 3 13.4437 41.2158 93.3456 0.0000 0.0000 0.0000
# 4 0.0000 0.0000 0.0000 24.6340 0.0000 0.0000
# 5 0.0000 0.0000 0.0000 0.0000 19.9266 0.0000
# 6 0.0000 0.0000 0.0000 0.0000 0.0000 13.1874
#
#
#
# Elastic Compliance Matrix: (Units=1/GPa)
#
#
# Indices 1 2 3 4 5 6 
#
# 1 0.020438 -0.001420 -0.002316 0.000000 0.000000 0.000000
# 2 -0.001420 0.012075 -0.005127 0.000000 0.000000 0.000000
# 3 -0.002316 -0.005127 0.013310 0.000000 0.000000 0.000000
# 4 0.000000 0.000000 0.000000 0.040594 0.000000 0.000000
# 5 0.000000 0.000000 0.000000 0.000000 0.050184 0.000000
# 6 0.000000 0.000000 0.000000 0.000000 0.000000 0.075830
#
#
# Mechanical properties :
#
#
# Convention : Reuss Voigt Hill
#
# Bulk Modulus (GPa) = 35.59255 42.12330 38.85792
# Shear Modulus (GPa) = 20.87477 23.54393 22.20935
#
# Velocity S-wave (km/s) = 3.36960 3.57855 3.47565
# Velocity P-wave (km/s) = 5.87354 6.32348 6.10266
#
# Compressibility (1/GPa) = 0.02809577
#
# Stress axis : x y z
#
# Youngs Moduli (GPa) = 48.92814 82.81897 75.13045
#
# Poissons Ratio (x) = 0.11763 0.17403
# Poissons Ratio (y) = 0.06949 0.38518
# Poissons Ratio (z) = 0.11334 0.42460
#
# Static dielectric constant tensor:
#      x y z
#    x 3.366990 0.000000 0.000000 
#    y 0.000000 3.738300 0.000000 
#    z 0.000000 0.000000 3.600670 
# 
# 
# High freq. dielectric constant tensor:
#      x y z
#    x 1.696660 0.000000 0.000000 
#    y 0.000000 1.701630 0.000000 
#    z 0.000000 0.000000 1.720190 
# 
# From -- ./inp_files/33326.got.cif
#   From: 2010.03.12/outbox.cif.g09.slc.cpg/sg64_17_cif.got.tgz:33326.got - 2010.04.10 20:19:32.
