data_PCOD8261990
_publ_section_title
;
Structure prediction by ZEFSAII (Michael W. Deem and Ramdas Pophale) SiO2 
 PCOD8261990
Probable space group: C M C A
;
_chemical_formula_sum "Si O2"
_cell_formula_units_Z 72
_cell_length_a 14.721957
_cell_length_b 16.342259
_cell_length_c 18.719171
_cell_angle_alpha 90.000000
_cell_angle_beta 90.000000
_cell_angle_gamma 90.000000
_cell_volume 4503.645993
_symmetry_space_group_name_H-M "C M C A"
_symmetry_group_IT_number 64
_symmetry_cell_setting 'orthorhombic'
loop_
_space_group_symop_operation_xyz
x,y,z
-x,1/2-y,1/2+z
x,-y,-z
-x,1/2+y,1/2-z
-x,-y,-z
x,1/2+y,1/2-z
-x,y,z
x,1/2-y,1/2+z
1/2+x,1/2+y,z
1/2-x,-y,1/2+z
1/2+x,1/2-y,-z
1/2-x,y,1/2-z
1/2-x,1/2-y,-z
1/2+x,y,1/2-z
1/2-x,1/2+y,z
1/2+x,-y,1/2+z
loop_
_atom_site_type_symbol
_atom_site_label
_atom_site_fract_x
_atom_site_fract_y
_atom_site_fract_z
Si Si1 0.896988 0.001488 0.653629
Si Si2 0.237816 0.779349 0.827687
Si Si3 0.893951 0.329222 0.083635
Si Si4 0.603085 0.330235 0.580172
Si Si5 0.250000 0.935376 0.750000
O O1 0.865436 0.081071 0.610265
O O2 0.000000 0.010679 0.681890
O O3 0.888774 0.925331 0.600280
O O4 0.832204 0.991637 0.722442
O O5 0.250000 0.735370 0.750000
O O6 0.156837 0.739505 0.871194
O O7 0.332480 0.773614 0.871129
O O8 0.213501 0.875542 0.813721
O O9 0.000000 0.313996 0.094370
O O10 0.865786 0.320671 0.001394
O O11 0.500000 0.299370 0.591533
#
# Coordination Sequence:
#
# PCOD8261990 Si02
#       5
#    16  16  16  16   8
#     4   9  17  30  48  68  91 117 151 192 229 264
#     4   9  19  31  45  70  93 125 149 182 229 273
#     4  10  19  29  48  72  93 118 153 193 227 266
#     4   9  17  32  50  69  92 120 153 189 229 269
#     4   8  18  30  46  64  92 124 150 182 230 274
#
# _framework density 15.987047
#
# number of rings (size 3 to 8) (size 9 to 14) (size 15 to 20)
#    0.667    2.222    0.000    1.333    1.556    4.444 
#    0.000    0.000    0.000    0.000    0.000    0.000 
#    0.000   16.000    0.000    0.000    0.000    0.000 
#
# Total GULP energy -446195.304020 kJ/mol
# GULP energy per Si atom -12394.314001 kJ/mol
# Density = 1.595066 g / cm^3
# Si number density = 15.987047 Si / 1000 Ang^3
#
#
#
# Elastic Constant Matrix: (Units=GPa)
#
#
# Indices 1 2 3 4 5 6 
#
# 1 81.1219 38.5802 74.1823 0.0000 0.0000 0.0000
# 2 38.5802 46.9303 37.0808 0.0000 0.0000 0.0000
# 3 74.1823 37.0808 127.4613 0.0000 0.0000 0.0000
# 4 0.0000 0.0000 0.0000 11.8480 0.0000 0.0000
# 5 0.0000 0.0000 0.0000 0.0000 32.7566 0.0000
# 6 0.0000 0.0000 0.0000 0.0000 0.0000 19.2177
#
#
#
# Elastic Compliance Matrix: (Units=1/GPa)
#
#
# Indices 1 2 3 4 5 6 
#
# 1 0.033386 -0.015703 -0.014863 0.000000 0.000000 0.000000
# 2 -0.015703 0.035053 -0.001059 0.000000 0.000000 0.000000
# 3 -0.014863 -0.001059 0.016804 0.000000 0.000000 0.000000
# 4 0.000000 0.000000 0.000000 0.084402 0.000000 0.000000
# 5 0.000000 0.000000 0.000000 0.000000 0.030528 0.000000
# 6 0.000000 0.000000 0.000000 0.000000 0.000000 0.052035
#
#
# Mechanical properties :
#
#
# Convention : Reuss Voigt Hill
#
# Bulk Modulus (GPa) = 45.46430 61.68888 53.57659
# Shear Modulus (GPa) = 15.49001 19.80913 17.64957
#
# Velocity S-wave (km/s) = 3.11611 3.52387 3.32624
# Velocity P-wave (km/s) = 6.43792 7.43151 6.95249
#
# Compressibility (1/GPa) = 0.02199528
#
# Stress axis : x y z
#
# Youngs Moduli (GPa) = 29.95255 28.52786 59.51140
#
# Poissons Ratio (x) = 0.44796 0.88449
# Poissons Ratio (y) = 0.47033 0.06301
# Poissons Ratio (z) = 0.44517 0.03020
#
# Static dielectric constant tensor:
#      x y z
#    x 3.021470 0.000000 0.000000 
#    y 0.000000 2.807390 0.000000 
#    z 0.000000 0.000000 3.061410 
# 
# 
# High freq. dielectric constant tensor:
#      x y z
#    x 1.609390 0.000000 0.000000 
#    y 0.000000 1.593310 0.000000 
#    z 0.000000 0.000000 1.615990 
# 
# From -- ./inp_files/37989.got.cif
#   From: 2010.03.12/outbox.cif.g09.slc.cpg/sg64_19_cif.got.tgz:37989.got - 2010.04.10 20:19:32.
