data_PCOD8261213
_publ_section_title
;
Structure prediction by ZEFSAII (Michael W. Deem and Ramdas Pophale) SiO2 
 PCOD8261213
Probable space group: C M C M
;
_chemical_formula_sum "Si O2"
_cell_formula_units_Z 64
_cell_length_a 10.276742
_cell_length_b 9.302465
_cell_length_c 31.943244
_cell_angle_alpha 90.000000
_cell_angle_beta 90.000000
_cell_angle_gamma 90.000000
_cell_volume 3053.743230
_symmetry_space_group_name_H-M "C M C M"
_symmetry_group_IT_number 63
_symmetry_cell_setting 'orthorhombic'
loop_
_space_group_symop_operation_xyz
x,y,z
-x,-y,1/2+z
x,-y,-z
-x,y,1/2-z
-x,-y,-z
x,y,1/2-z
-x,y,z
x,-y,1/2+z
1/2+x,1/2+y,z
1/2-x,1/2-y,1/2+z
1/2+x,1/2-y,-z
1/2-x,1/2+y,1/2-z
1/2-x,1/2-y,-z
1/2+x,1/2+y,1/2-z
1/2-x,1/2+y,z
1/2+x,1/2-y,1/2+z
loop_
_atom_site_type_symbol
_atom_site_label
_atom_site_fract_x
_atom_site_fract_y
_atom_site_fract_z
Si Si1 0.748874 0.528404 0.595740
Si Si2 0.000000 0.170461 0.299995
Si Si3 0.500000 0.079580 0.543491
Si Si4 0.741587 0.220781 0.345443
Si Si5 0.500000 0.423212 0.544628
Si Si6 0.500000 0.660944 0.701006
O O1 0.874213 0.520831 0.566905
O O2 0.730341 0.690916 0.611275
O O3 0.768996 0.442620 0.639094
O O4 0.625617 0.471585 0.570299
O O5 0.124996 0.247549 0.320117
O O6 0.000000 0.189734 0.250000
O O7 0.000000 0.003844 0.314070
O O8 0.500000 0.251734 0.538413
O O9 0.500000 0.000000 0.500000
O O10 0.625691 0.255370 0.314409
O O11 0.500000 0.500000 0.500000
O O12 0.500000 0.667811 0.750000
#
# Coordination Sequence:
#
# PCOD8261213 Si02
#       6
#    16   8   8  16   8   8
#     4  12  25  45  72  96 137 174 224 277 327 393
#     4  11  24  44  66  99 142 175 216 281 334 389
#     4  12  28  46  68 102 135 176 222 273 334 399
#     4  12  23  45  70  99 131 180 223 274 330 392
#     4  12  28  47  67 101 138 174 218 277 338 395
#     4  11  24  43  67 100 137 177 220 273 336 393
#
# _framework density 20.957885000000001
#
# number of rings (size 3 to 8) (size 9 to 14) (size 15 to 20)
#    0.000    0.250    5.000    4.500    3.500    2.000 
#    0.000    1.250    0.000    0.000    0.000    0.000 
#    0.000    0.000    0.000    0.000    0.000    0.000 
#
# Total GULP energy -396947.772158 kJ/mol
# GULP energy per Si atom -12404.617880 kJ/mol
# Density = 2.091018 g / cm^3
# Si number density = 20.957885 Si / 1000 Ang^3
#
#
#
# Elastic Constant Matrix: (Units=GPa)
#
#
# Indices 1 2 3 4 5 6 
#
# 1 196.2382 58.8223 58.4491 0.0000 0.0000 0.0000
# 2 58.8223 72.2367 47.0389 0.0000 0.0000 0.0000
# 3 58.4491 47.0389 91.8890 0.0000 0.0000 0.0000
# 4 0.0000 0.0000 0.0000 42.7646 0.0000 0.0000
# 5 0.0000 0.0000 0.0000 0.0000 55.1000 0.0000
# 6 0.0000 0.0000 0.0000 0.0000 0.0000 36.8419
#
#
#
# Elastic Compliance Matrix: (Units=1/GPa)
#
#
# Indices 1 2 3 4 5 6 
#
# 1 0.007056 -0.004235 -0.002321 0.000000 0.000000 0.000000
# 2 -0.004235 0.023307 -0.009237 0.000000 0.000000 0.000000
# 3 -0.002321 -0.009237 0.017087 0.000000 0.000000 0.000000
# 4 0.000000 0.000000 0.000000 0.023384 0.000000 0.000000
# 5 0.000000 0.000000 0.000000 0.000000 0.018149 0.000000
# 6 0.000000 0.000000 0.000000 0.000000 0.000000 0.027143
#
#
# Mechanical properties :
#
#
# Convention : Reuss Voigt Hill
#
# Bulk Modulus (GPa) = 63.03090 76.55385 69.79237
# Shear Modulus (GPa) = 32.67960 40.01155 36.34558
#
# Velocity S-wave (km/s) = 3.95308 4.37411 4.16891
# Velocity P-wave (km/s) = 7.13975 7.88145 7.51975
#
# Compressibility (1/GPa) = 0.01586524
#
# Stress axis : x y z
#
# Youngs Moduli (GPa) = 141.71429 42.90550 58.52250
#
# Poissons Ratio (x) = 0.18170 0.13581
# Poissons Ratio (y) = 0.60015 0.54059
# Poissons Ratio (z) = 0.32886 0.39633
#
# Static dielectric constant tensor:
#      x y z
#    x 3.959520 0.000000 0.000000 
#    y 0.000000 4.073050 0.000000 
#    z 0.000000 0.000000 3.935290 
# 
# 
# High freq. dielectric constant tensor:
#      x y z
#    x 1.839930 0.000000 0.000000 
#    y 0.000000 1.829960 0.000000 
#    z 0.000000 0.000000 1.834230 
# 
# From -- ./inp_files/71384.got.cif
#   From: 2010.03.12/outbox.cif.g09.slc.cpg/sg63_36_cif.got.tgz:71384.got - 2010.04.10 19:34:48.
