data_PCOD8261753
_publ_section_title
;
Structure prediction by ZEFSAII (Michael W. Deem and Ramdas Pophale) SiO2 
 PCOD8261753
Probable space group: C M C A
;
_chemical_formula_sum "Si O2"
_cell_formula_units_Z 80
_cell_length_a 17.292741
_cell_length_b 26.011769
_cell_length_c 9.719450
_cell_angle_alpha 90.000000
_cell_angle_beta 90.000000
_cell_angle_gamma 90.000000
_cell_volume 4371.952305
_symmetry_space_group_name_H-M "C M C A"
_symmetry_group_IT_number 64
_symmetry_cell_setting 'orthorhombic'
loop_
_space_group_symop_operation_xyz
x,y,z
-x,1/2-y,1/2+z
x,-y,-z
-x,1/2+y,1/2-z
-x,-y,-z
x,1/2+y,1/2-z
-x,y,z
x,1/2-y,1/2+z
1/2+x,1/2+y,z
1/2-x,-y,1/2+z
1/2+x,1/2-y,-z
1/2-x,y,1/2-z
1/2-x,1/2-y,-z
1/2+x,y,1/2-z
1/2-x,1/2+y,z
1/2+x,-y,1/2+z
loop_
_atom_site_type_symbol
_atom_site_label
_atom_site_fract_x
_atom_site_fract_y
_atom_site_fract_z
Si Si1 0.092073 0.441500 0.519182
Si Si2 0.589739 0.284588 0.974116
Si Si3 0.910769 0.864097 0.203253
Si Si4 0.091912 0.331606 0.007892
Si Si5 0.840424 0.134909 0.228410
O O1 0.118186 0.500000 0.500000
O O2 0.124437 0.410976 0.385530
O O3 0.129911 0.417067 0.655137
O O4 0.000000 0.435512 0.533827
O O5 0.500000 0.286047 0.928118
O O6 0.637843 0.314511 0.858192
O O7 0.601125 0.310749 0.122350
O O8 0.621965 0.227106 0.990296
O O9 0.873474 0.859103 0.354894
O O10 0.000000 0.876221 0.224419
O O11 0.121092 0.362956 0.877795
O O12 0.000000 0.331143 0.008110
O O13 0.750000 0.131863 0.250000
#
# Coordination Sequence:
#
# PCOD8261753 Si02
#       5
#    16  16  16  16  16
#     4   9  18  37  60  74  92 132 182 225 268 320
#     4   9  17  32  53  74 102 142 177 203 243 307
#     4   8  15  28  49  76  97 119 164 217 257 296
#     4  10  18  31  53  78 102 132 175 221 255 295
#     4  11  22  34  49  77 113 141 169 210 267 325
#
# _framework density 18.298461
#
# number of rings (size 3 to 8) (size 9 to 14) (size 15 to 20)
#    0.000    2.600    0.000    4.200    0.000    4.000 
#    0.000    7.000    0.000    4.800    0.000    0.000 
#    0.000    0.000    0.000    0.000    0.000    0.000 
#
# Total GULP energy -495884.227338 kJ/mol
# GULP energy per Si atom -12397.105683 kJ/mol
# Density = 1.825681 g / cm^3
# Si number density = 18.298461 Si / 1000 Ang^3
#
#
#
# Elastic Constant Matrix: (Units=GPa)
#
#
# Indices 1 2 3 4 5 6 
#
# 1 45.2173 32.7585 32.6215 0.0000 0.0000 0.0000
# 2 32.7585 144.8571 78.4226 0.0000 0.0000 0.0000
# 3 32.6215 78.4226 163.5473 0.0000 0.0000 0.0000
# 4 0.0000 0.0000 0.0000 21.4886 0.0000 0.0000
# 5 0.0000 0.0000 0.0000 0.0000 11.3676 0.0000
# 6 0.0000 0.0000 0.0000 0.0000 0.0000 17.5291
#
#
#
# Elastic Compliance Matrix: (Units=1/GPa)
#
#
# Indices 1 2 3 4 5 6 
#
# 1 0.027794 -0.004436 -0.003417 0.000000 0.000000 0.000000
# 2 -0.004436 0.010032 -0.003926 0.000000 0.000000 0.000000
# 3 -0.003417 -0.003926 0.008678 0.000000 0.000000 0.000000
# 4 0.000000 0.000000 0.000000 0.046536 0.000000 0.000000
# 5 0.000000 0.000000 0.000000 0.000000 0.087970 0.000000
# 6 0.000000 0.000000 0.000000 0.000000 0.000000 0.057048
#
#
# Mechanical properties :
#
#
# Convention : Reuss Voigt Hill
#
# Bulk Modulus (GPa) = 43.57710 71.24742 57.41226
# Shear Modulus (GPa) = 18.56920 24.06500 21.31710
#
# Velocity S-wave (km/s) = 3.18904 3.63042 3.41686
# Velocity P-wave (km/s) = 6.11770 7.52290 6.85640
#
# Compressibility (1/GPa) = 0.02294783
#
# Stress axis : x y z
#
# Youngs Moduli (GPa) = 35.97900 99.68466 115.22959
#
# Poissons Ratio (x) = 0.44216 0.39373
# Poissons Ratio (y) = 0.15959 0.45234
# Poissons Ratio (z) = 0.12294 0.39132
#
# Static dielectric constant tensor:
#      x y z
#    x 3.039750 0.000000 0.000000 
#    y 0.000000 3.388500 0.000000 
#    z 0.000000 0.000000 3.887780 
# 
# 
# High freq. dielectric constant tensor:
#      x y z
#    x 1.671030 0.000000 0.000000 
#    y 0.000000 1.696960 0.000000 
#    z 0.000000 0.000000 1.723400 
# 
# From -- ./inp_files/7019.got.cif
#   From: 2010.03.12/outbox.cif.g09.slc.cpg/sg64_4_cif.got.tgz:7019.got - 2010.04.10 20:19:32.
