data_PCOD8261352
_publ_section_title
;
Structure prediction by ZEFSAII (Michael W. Deem and Ramdas Pophale) SiO2 
 PCOD8261352
Probable space group: C M C M
;
_chemical_formula_sum "Si O2"
_cell_formula_units_Z 80
_cell_length_a 23.561199
_cell_length_b 23.942984
_cell_length_c 9.734071
_cell_angle_alpha 90.000000
_cell_angle_beta 90.000000
_cell_angle_gamma 90.000000
_cell_volume 5491.236800
_symmetry_space_group_name_H-M "C M C M"
_symmetry_group_IT_number 63
_symmetry_cell_setting 'orthorhombic'
loop_
_space_group_symop_operation_xyz
x,y,z
-x,-y,1/2+z
x,-y,-z
-x,y,1/2-z
-x,-y,-z
x,y,1/2-z
-x,y,z
x,-y,1/2+z
1/2+x,1/2+y,z
1/2-x,1/2-y,1/2+z
1/2+x,1/2-y,-z
1/2-x,1/2+y,1/2-z
1/2-x,1/2-y,-z
1/2+x,1/2+y,1/2-z
1/2-x,1/2+y,z
1/2+x,1/2-y,1/2+z
loop_
_atom_site_type_symbol
_atom_site_label
_atom_site_fract_x
_atom_site_fract_y
_atom_site_fract_z
Si Si1 0.111040 0.948666 0.909185
Si Si2 0.165411 0.757913 0.909390
Si Si3 0.243848 0.050181 0.406677
Si Si4 0.563296 0.332031 0.586970
Si Si5 0.722779 0.172374 0.092339
O O1 0.096749 0.960597 0.750000
O O2 0.177620 0.939425 0.931917
O O3 0.079754 0.893574 0.966063
O O4 0.088423 0.000000 0.000000
O O5 0.160881 0.741122 0.750000
O O6 0.107253 0.785299 0.966347
O O7 0.214912 0.802750 0.934384
O O8 0.176529 0.701929 0.995901
O O9 0.255457 0.033306 0.250000
O O10 0.276636 0.106972 0.445242
O O11 0.267481 0.000000 0.500000
O O12 0.567578 0.333577 0.750000
O O13 0.500000 0.316599 0.536011
O O14 0.705036 0.181808 0.250000
#
# Coordination Sequence:
#
# PCOD8261352 Si02
#       5
#    16  16  16  16  16
#     4   9  16  27  40  55  77 106 140 174 204 233
#     4   9  16  27  42  60  79 102 137 171 200 239
#     4   9  16  26  40  58  82 108 134 165 200 239
#     4   9  16  27  43  59  78 107 141 174 205 237
#     4   9  16  27  42  59  81 106 131 165 206 244
#
# _framework density 14.568667
#
# number of rings (size 3 to 8) (size 9 to 14) (size 15 to 20)
#    0.000    3.000    2.000    0.000    0.000    1.200 
#    0.000    1.000    0.000    1.800    0.000    0.000 
#    0.000    0.800    0.000    1.800    0.000    2.800 
#
# Total GULP energy -495909.767451 kJ/mol
# GULP energy per Si atom -12397.744186 kJ/mol
# Density = 1.453551 g / cm^3
# Si number density = 14.568667 Si / 1000 Ang^3
#
#
#
# Elastic Constant Matrix: (Units=GPa)
#
#
# Indices 1 2 3 4 5 6 
#
# 1 73.1695 58.7125 33.9595 0.0000 0.0000 0.0000
# 2 58.7125 116.4681 56.9410 0.0000 0.0000 0.0000
# 3 33.9595 56.9410 55.3667 0.0000 0.0000 0.0000
# 4 0.0000 0.0000 0.0000 28.8411 0.0000 0.0000
# 5 0.0000 0.0000 0.0000 0.0000 11.8689 0.0000
# 6 0.0000 0.0000 0.0000 0.0000 0.0000 20.3816
#
#
#
# Elastic Compliance Matrix: (Units=1/GPa)
#
#
# Indices 1 2 3 4 5 6 
#
# 1 0.023491 -0.009650 -0.004484 0.000000 0.000000 0.000000
# 2 -0.009650 0.021233 -0.015918 0.000000 0.000000 0.000000
# 3 -0.004484 -0.015918 0.037182 0.000000 0.000000 0.000000
# 4 0.000000 0.000000 0.000000 0.034673 0.000000 0.000000
# 5 0.000000 0.000000 0.000000 0.000000 0.084254 0.000000
# 6 0.000000 0.000000 0.000000 0.000000 0.000000 0.049064
#
#
# Mechanical properties :
#
#
# Convention : Reuss Voigt Hill
#
# Bulk Modulus (GPa) = 45.86626 60.47004 53.16815
# Shear Modulus (GPa) = 15.75956 18.57775 17.16865
#
# Velocity S-wave (km/s) = 3.29255 3.57485 3.43660
# Velocity P-wave (km/s) = 6.78275 7.65744 7.23333
#
# Compressibility (1/GPa) = 0.02180252
#
# Stress axis : x y z
#
# Youngs Moduli (GPa) = 42.56891 47.09737 26.89465
#
# Poissons Ratio (x) = 0.45448 0.12061
# Poissons Ratio (y) = 0.41078 0.42810
# Poissons Ratio (z) = 0.19090 0.74968
#
# Static dielectric constant tensor:
#      x y z
#    x 2.672500 0.000000 0.000000 
#    y 0.000000 2.891740 0.000000 
#    z 0.000000 0.000000 2.730650 
# 
# 
# High freq. dielectric constant tensor:
#      x y z
#    x 1.521330 0.000000 0.000000 
#    y 0.000000 1.554030 0.000000 
#    z 0.000000 0.000000 1.541290 
# 
# From -- ./inp_files/23659.got.cif
#   From: 2010.03.12/outbox.cif.g09.slc.cpg/sg63_12_cif.got.tgz:23659.got - 2010.04.10 19:34:48.
