data_PCOD8261139
_publ_section_title
;
Structure prediction by ZEFSAII (Michael W. Deem and Ramdas Pophale) SiO2 
 PCOD8261139
Probable space group: C M C M
;
_chemical_formula_sum "Si O2"
_cell_formula_units_Z 80
_cell_length_a 9.306723
_cell_length_b 25.680381
_cell_length_c 18.318166
_cell_angle_alpha 90.000000
_cell_angle_beta 90.000000
_cell_angle_gamma 90.000000
_cell_volume 4378.045200
_symmetry_space_group_name_H-M "C M C M"
_symmetry_group_IT_number 63
_symmetry_cell_setting 'orthorhombic'
loop_
_space_group_symop_operation_xyz
x,y,z
-x,-y,1/2+z
x,-y,-z
-x,y,1/2-z
-x,-y,-z
x,y,1/2-z
-x,y,z
x,-y,1/2+z
1/2+x,1/2+y,z
1/2-x,1/2-y,1/2+z
1/2+x,1/2-y,-z
1/2-x,1/2+y,1/2-z
1/2-x,1/2-y,-z
1/2+x,1/2+y,1/2-z
1/2-x,1/2+y,z
1/2+x,1/2-y,1/2+z
loop_
_atom_site_type_symbol
_atom_site_label
_atom_site_fract_x
_atom_site_fract_y
_atom_site_fract_z
Si Si1 0.666431 0.650786 0.166218
Si Si2 0.158970 0.044676 0.836717
Si Si3 0.666516 0.338403 0.164598
Si Si4 0.661130 0.948836 0.837054
Si Si5 0.169812 0.747139 0.923985
O O1 0.707284 0.662487 0.250000
O O2 0.500000 0.636526 0.158488
O O3 0.754373 0.601835 0.134749
O O4 0.709006 0.701008 0.120143
O O5 0.154743 0.041480 0.750000
O O6 0.206575 0.102752 0.859558
O O7 0.000000 0.032803 0.867550
O O8 0.266860 0.001416 0.868927
O O9 0.694699 0.330054 0.250000
O O10 0.500000 0.326398 0.145845
O O11 0.773082 0.301853 0.120651
O O12 0.664464 0.950211 0.750000
O O13 0.500000 0.946105 0.867457
O O14 0.000000 0.741287 0.935853
O O15 0.250000 0.750000 0.000000
#
# Coordination Sequence:
#
# PCOD8261139 Si02
#       5
#    16  16  16  16  16
#     4   9  18  33  52  73  98 130 167 204 245 298
#     4   8  14  26  45  70 101 134 163 194 239 295
#     4   9  18  33  54  79 105 134 169 208 250 298
#     4   9  16  25  42  72 104 130 159 199 245 289
#     4  11  23  37  53  73 100 135 173 213 258 305
#
# _framework density 18.272995999999999
#
# number of rings (size 3 to 8) (size 9 to 14) (size 15 to 20)
#    0.000    2.800    0.000    3.000    0.000    6.000 
#    0.000    4.000    0.000    1.200    0.000    8.400 
#    0.000    0.000    0.000    0.000    0.000    0.000 
#
# Total GULP energy -495928.401951 kJ/mol
# GULP energy per Si atom -12398.210049 kJ/mol
# Density = 1.823141 g / cm^3
# Si number density = 18.272996 Si / 1000 Ang^3
#
#
#
# Elastic Constant Matrix: (Units=GPa)
#
#
# Indices 1 2 3 4 5 6 
#
# 1 120.1523 100.2350 45.1443 0.0000 0.0000 0.0000
# 2 100.2350 176.2996 51.1996 0.0000 0.0000 0.0000
# 3 45.1443 51.1996 53.2082 0.0000 0.0000 0.0000
# 4 0.0000 0.0000 0.0000 -3.2093 0.0000 0.0000
# 5 0.0000 0.0000 0.0000 0.0000 22.8124 0.0000
# 6 0.0000 0.0000 0.0000 0.0000 0.0000 39.9124
#
#
#
# Elastic Compliance Matrix: (Units=1/GPa)
#
#
# Indices 1 2 3 4 5 6 
#
# 1 0.017712 -0.007919 -0.007408 0.000000 0.000000 0.000000
# 2 -0.007919 0.011412 -0.004263 0.000000 0.000000 0.000000
# 3 -0.007408 -0.004263 0.029181 0.000000 0.000000 0.000000
# 4 0.000000 0.000000 0.000000 -0.311594 0.000000 0.000000
# 5 0.000000 0.000000 0.000000 0.000000 0.043836 0.000000
# 6 0.000000 0.000000 0.000000 0.000000 0.000000 0.025055
#
#
# Mechanical properties :
#
#
# Convention : Reuss Voigt Hill
#
# Bulk Modulus (GPa) = 52.28327 82.53534 67.40930
# Shear Modulus (GPa) = -36.01221 22.10850 -6.95185
#
# Velocity S-wave (km/s) = -4.44417 3.48214 -1.95261
# Velocity P-wave (km/s) = 1.52977 7.83792 5.64682
#
# Compressibility (1/GPa) = 0.01912658
#
# Stress axis : x y z
#
# Youngs Moduli (GPa) = 56.45744 87.62331 34.26854
#
# Poissons Ratio (x) = 0.69389 0.25386
# Poissons Ratio (y) = 0.44709 0.14608
# Poissons Ratio (z) = 0.41824 0.37352
#
# Static dielectric constant tensor:
#      x y z
#    x 3.495860 0.000000 0.000000 
#    y 0.000000 3.599700 0.000000 
#    z 0.000000 0.000000 2.926240 
# 
# 
# High freq. dielectric constant tensor:
#      x y z
#    x 1.711830 0.000000 0.000000 
#    y 0.000000 1.725030 0.000000 
#    z 0.000000 0.000000 1.658190 
# 
# From -- ./inp_files/40452.got.cif
#   From: 2010.03.12/outbox.cif.g09.slc.cpg/sg63_21_cif.got.tgz:40452.got - 2010.04.10 19:34:48.
