data_PCOD8261504
_publ_section_title
;
Structure prediction by ZEFSAII (Michael W. Deem and Ramdas Pophale) SiO2 
 PCOD8261504
Probable space group: C M C A
;
_chemical_formula_sum "Si O2"
_cell_formula_units_Z 64
_cell_length_a 5.300159
_cell_length_b 23.714949
_cell_length_c 25.895757
_cell_angle_alpha 90.000000
_cell_angle_beta 90.000000
_cell_angle_gamma 90.000000
_cell_volume 3254.915394
_symmetry_space_group_name_H-M "C M C A"
_symmetry_group_IT_number 64
_symmetry_cell_setting 'orthorhombic'
loop_
_space_group_symop_operation_xyz
x,y,z
-x,1/2-y,1/2+z
x,-y,-z
-x,1/2+y,1/2-z
-x,-y,-z
x,1/2+y,1/2-z
-x,y,z
x,1/2-y,1/2+z
1/2+x,1/2+y,z
1/2-x,-y,1/2+z
1/2+x,1/2-y,-z
1/2-x,y,1/2-z
1/2-x,1/2-y,-z
1/2+x,y,1/2-z
1/2-x,1/2+y,z
1/2+x,-y,1/2+z
loop_
_atom_site_type_symbol
_atom_site_label
_atom_site_fract_x
_atom_site_fract_y
_atom_site_fract_z
Si Si1 0.000000 0.149510 0.139244
Si Si2 0.000000 0.914943 0.642081
Si Si3 0.500000 0.512675 0.718383
Si Si4 0.000000 0.347623 0.515038
Si Si5 0.500000 0.271534 0.373474
Si Si6 0.000000 0.622896 0.033062
Si Si7 0.500000 0.253877 0.063268
Si Si8 0.500000 0.856551 0.218122
O O1 0.248918 0.118137 0.160148
O O2 0.000000 0.154811 0.077079
O O3 0.000000 0.213549 0.160026
O O4 0.000000 0.921792 0.579739
O O5 0.000000 0.977104 0.665642
O O6 0.750000 0.496558 0.750000
O O7 0.500000 0.577844 0.702986
O O8 0.750592 0.382751 0.497832
O O9 0.000000 0.284218 0.493055
O O10 0.247727 0.275283 0.407497
O O11 0.500000 0.323791 0.335229
O O12 0.000000 0.686567 0.057475
O O13 0.750000 0.840572 0.250000
#
# Coordination Sequence:
#
# PCOD8261504 Si02
#       8
#     8   8   8   8   8   8   8   8
#     4  10  19  32  49  78 116 138 168 200 257 318
#     4  10  18  33  52  75 106 133 163 217 260 313
#     4  10  21  39  61  80  94 124 178 233 266 308
#     4  10  18  28  46  75 111 151 174 205 241 296
#     4  12  21  34  53  78 109 144 170 220 257 312
#     4  10  17  29  45  71 108 144 171 201 251 304
#     4  12  19  30  50  78 115 142 183 209 242 305
#     4  10  23  43  60  75  99 133 181 224 265 311
#
# _framework density 19.662569999999999
#
# number of rings (size 3 to 8) (size 9 to 14) (size 15 to 20)
#    0.000    1.500    5.000    3.000    0.000    0.000 
#    0.000    3.750    0.000    0.000    0.000   21.000 
#    0.000    0.000    0.000    0.000    0.000    0.000 
#
# Total GULP energy -396587.723143 kJ/mol
# GULP energy per Si atom -12393.366348 kJ/mol
# Density = 1.961782 g / cm^3
# Si number density = 19.662570 Si / 1000 Ang^3
#
#
#
# Elastic Constant Matrix: (Units=GPa)
#
#
# Indices 1 2 3 4 5 6 
#
# 1 208.4662 25.6437 26.6694 0.0000 0.0000 0.0000
# 2 25.6437 54.5836 28.4282 0.0000 0.0000 0.0000
# 3 26.6694 28.4282 43.9077 0.0000 0.0000 0.0000
# 4 0.0000 0.0000 0.0000 21.8244 0.0000 0.0000
# 5 0.0000 0.0000 0.0000 0.0000 11.9786 0.0000
# 6 0.0000 0.0000 0.0000 0.0000 0.0000 9.0267
#
#
#
# Elastic Compliance Matrix: (Units=1/GPa)
#
#
# Indices 1 2 3 4 5 6 
#
# 1 0.005254 -0.001217 -0.002404 0.000000 0.000000 0.000000
# 2 -0.001217 0.027923 -0.017340 0.000000 0.000000 0.000000
# 3 -0.002404 -0.017340 0.035462 0.000000 0.000000 0.000000
# 4 0.000000 0.000000 0.000000 0.045820 0.000000 0.000000
# 5 0.000000 0.000000 0.000000 0.000000 0.083482 0.000000
# 6 0.000000 0.000000 0.000000 0.000000 0.000000 0.110782
#
#
# Mechanical properties :
#
#
# Convention : Reuss Voigt Hill
#
# Bulk Modulus (GPa) = 37.42699 52.04889 44.73794
# Shear Modulus (GPa) = 13.90627 23.64703 18.77665
#
# Velocity S-wave (km/s) = 2.66229 3.47168 3.09357
# Velocity P-wave (km/s) = 5.34101 6.52676 5.96343
#
# Compressibility (1/GPa) = 0.02671868
#
# Stress axis : x y z
#
# Youngs Moduli (GPa) = 190.32780 35.81272 28.19933
#
# Poissons Ratio (x) = 0.04357 0.06778
# Poissons Ratio (y) = 0.23154 0.48897
# Poissons Ratio (z) = 0.45749 0.62099
#
# Static dielectric constant tensor:
#      x y z
#    x 5.497550 0.000000 0.000000 
#    y 0.000000 3.282050 0.000000 
#    z 0.000000 0.000000 3.146490 
# 
# 
# High freq. dielectric constant tensor:
#      x y z
#    x 1.815700 0.000000 0.000000 
#    y 0.000000 1.730910 0.000000 
#    z 0.000000 0.000000 1.723240 
# 
# From -- ./inp_files/42235.got.cif
#   From: 2010.03.12/outbox.cif.g09.slc.cpg/sg64_22_cif.got.tgz:42235.got - 2010.04.10 20:19:32.
