data_PCOD8261719
_publ_section_title
;
Structure prediction by ZEFSAII (Michael W. Deem and Ramdas Pophale) SiO2 
 PCOD8261719
Probable space group: C M C A
;
_chemical_formula_sum "Si O2"
_cell_formula_units_Z 112
_cell_length_a 18.465253
_cell_length_b 15.263665
_cell_length_c 21.951177
_cell_angle_alpha 90.000000
_cell_angle_beta 90.000000
_cell_angle_gamma 90.000000
_cell_volume 6186.882953
_symmetry_space_group_name_H-M "C M C A"
_symmetry_group_IT_number 64
_symmetry_cell_setting 'orthorhombic'
loop_
_space_group_symop_operation_xyz
x,y,z
-x,1/2-y,1/2+z
x,-y,-z
-x,1/2+y,1/2-z
-x,-y,-z
x,1/2+y,1/2-z
-x,y,z
x,1/2-y,1/2+z
1/2+x,1/2+y,z
1/2-x,-y,1/2+z
1/2+x,1/2-y,-z
1/2-x,y,1/2-z
1/2-x,1/2-y,-z
1/2+x,y,1/2-z
1/2-x,1/2+y,z
1/2+x,-y,1/2+z
loop_
_atom_site_type_symbol
_atom_site_label
_atom_site_fract_x
_atom_site_fract_y
_atom_site_fract_z
Si Si1 0.081040 0.131212 0.788939
Si Si2 0.827945 0.293417 0.641700
Si Si3 0.287356 0.919372 0.814864
Si Si4 0.917719 0.829935 0.738663
Si Si5 0.915357 0.628352 0.458050
Si Si6 0.084671 0.064065 0.914417
Si Si7 0.803320 0.111570 0.695780
O O1 0.082620 0.235360 0.792145
O O2 0.120322 0.095901 0.850810
O O3 0.119977 0.094699 0.728914
O O4 0.000000 0.093994 0.784939
O O5 0.756049 0.354560 0.639992
O O6 0.882909 0.324868 0.694274
O O7 0.868849 0.298387 0.576902
O O8 0.805427 0.191741 0.648663
O O9 0.250000 0.911952 0.750000
O O10 0.371090 0.890988 0.806710
O O11 0.282729 0.020506 0.838067
O O12 0.000000 0.866016 0.744285
O O13 0.900655 0.538234 0.422218
O O14 0.885970 0.618676 0.527280
O O15 0.000000 0.653137 0.456754
O O16 0.000000 0.083702 0.911852
O O17 0.750000 0.140295 0.750000
#
# Coordination Sequence:
#
# PCOD8261719 Si02
#       7
#    16  16  16  16  16  16  16
#     4   9  17  29  47  70  96 125 158 198 235 285
#     4  10  18  31  47  69  96 126 158 197 242 288
#     4   9  19  31  44  67  91 128 159 190 240 284
#     4   9  17  29  45  68  95 123 158 194 234 285
#     4   9  17  29  47  72  99 124 157 201 240 285
#     4   8  16  29  45  72  99 123 159 196 241 286
#     4  10  20  32  46  67  98 131 161 194 238 288
#
# _framework density 18.102816000000001
#
# number of rings (size 3 to 8) (size 9 to 14) (size 15 to 20)
#    0.000    2.857    0.000    3.429    6.000    1.143 
#    0.000    0.000    0.000    3.429    0.000    0.000 
#    0.000    4.571    0.000    0.000    0.000    0.000 
#
# Total GULP energy -694115.613660 kJ/mol
# GULP energy per Si atom -12394.921672 kJ/mol
# Density = 1.806161 g / cm^3
# Si number density = 18.102816 Si / 1000 Ang^3
#
#
#
# Elastic Constant Matrix: (Units=GPa)
#
#
# Indices 1 2 3 4 5 6 
#
# 1 73.7063 23.8498 0.6214 0.0000 0.0000 0.0000
# 2 23.8498 75.5179 25.0882 0.0000 0.0000 0.0000
# 3 0.6214 25.0882 38.2717 0.0000 0.0000 0.0000
# 4 0.0000 0.0000 0.0000 21.8377 0.0000 0.0000
# 5 0.0000 0.0000 0.0000 0.0000 16.1203 0.0000
# 6 0.0000 0.0000 0.0000 0.0000 0.0000 20.1068
#
#
#
# Elastic Compliance Matrix: (Units=1/GPa)
#
#
# Indices 1 2 3 4 5 6 
#
# 1 0.015530 -0.006163 0.003788 0.000000 0.000000 0.000000
# 2 -0.006163 0.019374 -0.012600 0.000000 0.000000 0.000000
# 3 0.003788 -0.012600 0.034327 0.000000 0.000000 0.000000
# 4 0.000000 0.000000 0.000000 0.045792 0.000000 0.000000
# 5 0.000000 0.000000 0.000000 0.000000 0.062034 0.000000
# 6 0.000000 0.000000 0.000000 0.000000 0.000000 0.049734
#
#
# Mechanical properties :
#
#
# Convention : Reuss Voigt Hill
#
# Bulk Modulus (GPa) = 25.45801 31.84610 28.65205
# Shear Modulus (GPa) = 18.52979 20.80873 19.66926
#
# Velocity S-wave (km/s) = 3.20282 3.39407 3.29983
# Velocity P-wave (km/s) = 5.26982 5.74366 5.51183
#
# Compressibility (1/GPa) = 0.03928037
#
# Stress axis : x y z
#
# Youngs Moduli (GPa) = 64.39317 51.61493 29.13132
#
# Poissons Ratio (x) = 0.31810 -0.11034
# Poissons Ratio (y) = 0.39685 0.36706
# Poissons Ratio (z) = -0.24391 0.65036
#
# Static dielectric constant tensor:
#      x y z
#    x 3.502830 0.000000 0.000000 
#    y 0.000000 3.308980 0.000000 
#    z 0.000000 0.000000 3.172700 
# 
# 
# High freq. dielectric constant tensor:
#      x y z
#    x 1.697930 0.000000 0.000000 
#    y 0.000000 1.694050 0.000000 
#    z 0.000000 0.000000 1.658020 
# 
# From -- ./inp_files/40385.got.cif
#   From: 2010.03.12/outbox.cif.g09.slc.cpg/sg64_21_cif.got.tgz:40385.got - 2010.04.10 20:19:32.
