data_PCOD8261346
_publ_section_title
;
Structure prediction by ZEFSAII (Michael W. Deem and Ramdas Pophale) SiO2 
 PCOD8261346
Probable space group: C M C M
;
_chemical_formula_sum "Si O2"
_cell_formula_units_Z 96
_cell_length_a 19.608337
_cell_length_b 10.235206
_cell_length_c 28.888295
_cell_angle_alpha 90.000000
_cell_angle_beta 90.000000
_cell_angle_gamma 90.000000
_cell_volume 5797.747011
_symmetry_space_group_name_H-M "C M C M"
_symmetry_group_IT_number 63
_symmetry_cell_setting 'orthorhombic'
loop_
_space_group_symop_operation_xyz
x,y,z
-x,-y,1/2+z
x,-y,-z
-x,y,1/2-z
-x,-y,-z
x,y,1/2-z
-x,y,z
x,-y,1/2+z
1/2+x,1/2+y,z
1/2-x,1/2-y,1/2+z
1/2+x,1/2-y,-z
1/2-x,1/2+y,1/2-z
1/2-x,1/2-y,-z
1/2+x,1/2+y,1/2-z
1/2-x,1/2+y,z
1/2+x,1/2-y,1/2+z
loop_
_atom_site_type_symbol
_atom_site_label
_atom_site_fract_x
_atom_site_fract_y
_atom_site_fract_z
Si Si1 0.422863 0.715689 0.878089
Si Si2 0.810918 0.208694 0.803642
Si Si3 0.918919 0.381730 0.470258
Si Si4 0.076942 0.480942 0.126745
Si Si5 0.305898 0.008013 0.803307
Si Si6 0.918680 0.868641 0.022606
O O1 0.500000 0.671465 0.866507
O O2 0.377509 0.678008 0.833960
O O3 0.420515 0.869019 0.889144
O O4 0.394699 0.643262 0.924045
O O5 0.830996 0.189376 0.750000
O O6 0.753979 0.104957 0.819205
O O7 0.784637 0.357026 0.812540
O O8 0.887389 0.500000 0.500000
O O9 0.897538 0.394501 0.416588
O O10 0.889069 0.248188 0.491196
O O11 0.000000 0.385473 0.474024
O O12 0.125887 0.452864 0.169668
O O13 0.000000 0.443008 0.141705
O O14 0.323480 0.031058 0.750000
O O15 0.000000 0.865754 0.021565
O O16 0.889114 0.000000 0.000000
#
# Coordination Sequence:
#
# PCOD8261346 Si02
#       6
#    16  16  16  16  16  16
#     4   9  16  28  48  73  97 120 152 196 235 266
#     4   9  18  33  52  70  91 123 158 190 230 282
#     4   9  14  24  43  65  90 121 153 183 222 272
#     4   9  16  27  48  75  95 117 155 198 233 267
#     4   9  18  33  51  69  92 124 157 189 231 282
#     4   9  16  26  41  65  96 125 151 184 228 276
#
# _framework density 16.558157000000001
#
# number of rings (size 3 to 8) (size 9 to 14) (size 15 to 20)
#    0.000    3.000    1.667    0.000    0.000    0.667 
#    3.000    3.333    0.000    2.000    0.000    4.667 
#    0.000    0.000    0.000    0.000    0.000    0.000 
#
# Total GULP energy -595041.887990 kJ/mol
# GULP energy per Si atom -12396.706000 kJ/mol
# Density = 1.652047 g / cm^3
# Si number density = 16.558157 Si / 1000 Ang^3
#
#
#
# Elastic Constant Matrix: (Units=GPa)
#
#
# Indices 1 2 3 4 5 6 
#
# 1 72.2850 40.9235 59.9955 0.0000 0.0000 0.0000
# 2 40.9235 94.3844 56.9238 0.0000 0.0000 0.0000
# 3 59.9955 56.9238 105.6488 0.0000 0.0000 0.0000
# 4 0.0000 0.0000 0.0000 24.3386 0.0000 0.0000
# 5 0.0000 0.0000 0.0000 0.0000 7.4990 0.0000
# 6 0.0000 0.0000 0.0000 0.0000 0.0000 18.3416
#
#
#
# Elastic Compliance Matrix: (Units=1/GPa)
#
#
# Indices 1 2 3 4 5 6 
#
# 1 0.026987 -0.003642 -0.013363 0.000000 0.000000 0.000000
# 2 -0.003642 0.016187 -0.006653 0.000000 0.000000 0.000000
# 3 -0.013363 -0.006653 0.020639 0.000000 0.000000 0.000000
# 4 0.000000 0.000000 0.000000 0.041087 0.000000 0.000000
# 5 0.000000 0.000000 0.000000 0.000000 0.133350 0.000000
# 6 0.000000 0.000000 0.000000 0.000000 0.000000 0.054521
#
#
# Mechanical properties :
#
#
# Convention : Reuss Voigt Hill
#
# Bulk Modulus (GPa) = 60.62063 65.33373 62.97718
# Shear Modulus (GPa) = 14.46820 17.66757 16.06788
#
# Velocity S-wave (km/s) = 2.95918 3.27004 3.11849
# Velocity P-wave (km/s) = 6.95456 7.33487 7.14725
#
# Compressibility (1/GPa) = 0.01649604
#
# Stress axis : x y z
#
# Youngs Moduli (GPa) = 37.05482 61.77936 48.45255
#
# Poissons Ratio (x) = 0.22498 0.64748
# Poissons Ratio (y) = 0.13494 0.32237
# Poissons Ratio (z) = 0.49517 0.41104
#
# Static dielectric constant tensor:
#      x y z
#    x 2.781740 0.000000 0.000000 
#    y 0.000000 3.239240 0.000000 
#    z 0.000000 0.000000 3.157490 
# 
# 
# High freq. dielectric constant tensor:
#      x y z
#    x 1.593910 0.000000 0.000000 
#    y 0.000000 1.630750 0.000000 
#    z 0.000000 0.000000 1.646490 
# 
# From -- ./inp_files/63703.got.cif
#   From: 2010.03.12/outbox.cif.g09.slc.cpg/sg63_32_cif.got.tgz:63703.got - 2010.04.10 19:34:48.
