data_PCOD8261849
_publ_section_title
;
Structure prediction by ZEFSAII (Michael W. Deem and Ramdas Pophale) SiO2 
 PCOD8261849
Probable space group: C M C A
;
_chemical_formula_sum "Si O2"
_cell_formula_units_Z 80
_cell_length_a 17.942899
_cell_length_b 19.685711
_cell_length_c 14.347852
_cell_angle_alpha 90.000000
_cell_angle_beta 90.000000
_cell_angle_gamma 90.000000
_cell_volume 5067.929979
_symmetry_space_group_name_H-M "C M C A"
_symmetry_group_IT_number 64
_symmetry_cell_setting 'orthorhombic'
loop_
_space_group_symop_operation_xyz
x,y,z
-x,1/2-y,1/2+z
x,-y,-z
-x,1/2+y,1/2-z
-x,-y,-z
x,1/2+y,1/2-z
-x,y,z
x,1/2-y,1/2+z
1/2+x,1/2+y,z
1/2-x,-y,1/2+z
1/2+x,1/2-y,-z
1/2-x,y,1/2-z
1/2-x,1/2-y,-z
1/2+x,y,1/2-z
1/2-x,1/2+y,z
1/2+x,-y,1/2+z
loop_
_atom_site_type_symbol
_atom_site_label
_atom_site_fract_x
_atom_site_fract_y
_atom_site_fract_z
Si Si1 0.085299 0.658146 0.358831
Si Si2 0.587322 0.241167 0.696334
Si Si3 0.322215 0.210480 0.529321
Si Si4 0.178075 0.385250 0.311707
Si Si5 0.586445 0.995716 0.607636
O O1 0.104442 0.694396 0.261381
O O2 0.134767 0.691296 0.437208
O O3 0.101757 0.578479 0.350112
O O4 0.000000 0.670471 0.387474
O O5 0.500000 0.227670 0.684839
O O6 0.623950 0.256658 0.595120
O O7 0.625728 0.172269 0.737714
O O8 0.250000 0.250000 0.500000
O O9 0.297817 0.143024 0.586420
O O10 0.250000 0.401219 0.250000
O O11 0.132509 0.454181 0.326383
O O12 0.500000 0.016543 0.613879
O O13 0.612475 0.000000 0.500000
#
# Coordination Sequence:
#
# PCOD8261849 Si02
#       5
#    16  16  16  16  16
#     4  10  19  33  55  81 103 136 182 223 263 313
#     4   9  19  34  54  76 104 139 178 218 261 320
#     4  10  20  32  52  74 107 138 169 220 266 314
#     4  10  20  33  49  75 111 140 172 212 270 318
#     4  10  18  33  55  78 102 136 183 225 257 304
#
# _framework density 15.785538000000001
#
# number of rings (size 3 to 8) (size 9 to 14) (size 15 to 20)
#    1.200    1.000    2.000    2.400    0.000    0.000 
#    3.600    0.000    0.000    0.000    0.000    0.000 
#    0.000   14.400    0.000    0.000    0.000    0.000 
#
# Total GULP energy -495745.086329 kJ/mol
# GULP energy per Si atom -12393.627158 kJ/mol
# Density = 1.574961 g / cm^3
# Si number density = 15.785538 Si / 1000 Ang^3
#
#
#
# Elastic Constant Matrix: (Units=GPa)
#
#
# Indices 1 2 3 4 5 6 
#
# 1 103.1185 63.2469 54.2503 0.0000 0.0000 0.0000
# 2 63.2469 111.2448 43.2951 0.0000 0.0000 0.0000
# 3 54.2503 43.2951 57.8364 0.0000 0.0000 0.0000
# 4 0.0000 0.0000 0.0000 27.7090 0.0000 0.0000
# 5 0.0000 0.0000 0.0000 0.0000 29.1475 0.0000
# 6 0.0000 0.0000 0.0000 0.0000 0.0000 25.9201
#
#
#
# Elastic Compliance Matrix: (Units=1/GPa)
#
#
# Indices 1 2 3 4 5 6 
#
# 1 0.021866 -0.006279 -0.015811 0.000000 0.000000 0.000000
# 2 -0.006279 0.014488 -0.004956 0.000000 0.000000 0.000000
# 3 -0.015811 -0.004956 0.035830 0.000000 0.000000 0.000000
# 4 0.000000 0.000000 0.000000 0.036089 0.000000 0.000000
# 5 0.000000 0.000000 0.000000 0.000000 0.034308 0.000000
# 6 0.000000 0.000000 0.000000 0.000000 0.000000 0.038580
#
#
# Mechanical properties :
#
#
# Convention : Reuss Voigt Hill
#
# Bulk Modulus (GPa) = 55.26618 65.97606 60.62112
# Shear Modulus (GPa) = 20.72255 23.98248 22.35252
#
# Velocity S-wave (km/s) = 3.62713 3.90201 3.76708
# Velocity P-wave (km/s) = 7.25452 7.88587 7.57677
#
# Compressibility (1/GPa) = 0.01809425
#
# Stress axis : x y z
#
# Youngs Moduli (GPa) = 45.73230 69.02487 27.90946
#
# Poissons Ratio (x) = 0.43338 0.44126
# Poissons Ratio (y) = 0.28714 0.13831
# Poissons Ratio (z) = 0.72305 0.34207
#
# Static dielectric constant tensor:
#      x y z
#    x 2.841280 0.000000 0.000000 
#    y 0.000000 2.955710 0.000000 
#    z 0.000000 0.000000 2.996520 
# 
# 
# High freq. dielectric constant tensor:
#      x y z
#    x 1.607540 0.000000 0.000000 
#    y 0.000000 1.600770 0.000000 
#    z 0.000000 0.000000 1.595070 
# 
# From -- ./inp_files/25483.got.cif
#   From: 2010.03.12/outbox.cif.g09.slc.cpg/sg64_13_cif.got.tgz:25483.got - 2010.04.10 20:19:32.
