data_PCOD8261879
_publ_section_title
;
Structure prediction by ZEFSAII (Michael W. Deem and Ramdas Pophale) SiO2 
 PCOD8261879
Probable space group: C M C A
;
_chemical_formula_sum "Si O2"
_cell_formula_units_Z 104
_cell_length_a 22.838250
_cell_length_b 14.163068
_cell_length_c 17.644024
_cell_angle_alpha 90.000000
_cell_angle_beta 90.000000
_cell_angle_gamma 90.000000
_cell_volume 5707.130494
_symmetry_space_group_name_H-M "C M C A"
_symmetry_group_IT_number 64
_symmetry_cell_setting 'orthorhombic'
loop_
_space_group_symop_operation_xyz
x,y,z
-x,1/2-y,1/2+z
x,-y,-z
-x,1/2+y,1/2-z
-x,-y,-z
x,1/2+y,1/2-z
-x,y,z
x,1/2-y,1/2+z
1/2+x,1/2+y,z
1/2-x,-y,1/2+z
1/2+x,1/2-y,-z
1/2-x,y,1/2-z
1/2-x,1/2-y,-z
1/2+x,y,1/2-z
1/2-x,1/2+y,z
1/2+x,-y,1/2+z
loop_
_atom_site_type_symbol
_atom_site_label
_atom_site_fract_x
_atom_site_fract_y
_atom_site_fract_z
Si Si1 0.433459 0.859062 0.043874
Si Si2 0.231206 0.358617 0.409628
Si Si3 0.750000 0.775413 0.250000
Si Si4 0.328385 0.892272 0.781023
Si Si5 0.216329 0.438743 0.630157
Si Si6 0.932995 0.051293 0.380740
Si Si7 0.671414 0.764254 0.531891
O O1 0.500000 0.827145 0.056692
O O2 0.393877 0.766212 0.055009
O O3 0.417252 0.941211 0.104289
O O4 0.423595 0.894294 0.958809
O O5 0.246850 0.341894 0.322482
O O6 0.215714 0.468199 0.421652
O O7 0.287642 0.328376 0.459093
O O8 0.176514 0.297994 0.443700
O O9 0.690712 0.711790 0.250105
O O10 0.283446 0.919230 0.847373
O O11 0.322428 0.957859 0.706158
O O12 0.393304 0.902315 0.814882
O O13 0.191720 0.350186 0.584400
O O14 0.000000 0.060677 0.353374
#
# Coordination Sequence:
#
# PCOD8261879 Si02
#       7
#    16  16   8  16  16  16  16
#     4   9  19  34  55  79 108 142 182 233 278 319
#     4  11  21  33  54  77 112 144 177 227 271 330
#     4  10  18  34  50  76 112 146 176 214 278 322
#     4  10  18  34  52  77 110 145 176 222 277 331
#     4  10  21  35  51  79 114 144 179 225 283 326
#     4   9  18  34  56  83 107 141 187 228 275 328
#     4  11  21  35  53  84 108 143 189 223 270 337
#
# _framework density 18.222816999999999
#
# number of rings (size 3 to 8) (size 9 to 14) (size 15 to 20)
#    0.000    2.154    3.077    4.154    2.154    0.000 
#    0.000    0.769    0.000    2.769    0.000    0.000 
#    0.000    0.000    0.000    0.000    0.000    0.000 
#
# Total GULP energy -644419.212199 kJ/mol
# GULP energy per Si atom -12392.677158 kJ/mol
# Density = 1.818134 g / cm^3
# Si number density = 18.222817 Si / 1000 Ang^3
#
#
#
# Elastic Constant Matrix: (Units=GPa)
#
#
# Indices 1 2 3 4 5 6 
#
# 1 110.3467 54.4353 37.9414 0.0000 0.0000 0.0000
# 2 54.4353 104.8798 28.3821 0.0000 0.0000 0.0000
# 3 37.9414 28.3821 77.9292 0.0000 0.0000 0.0000
# 4 0.0000 0.0000 0.0000 24.6557 0.0000 0.0000
# 5 0.0000 0.0000 0.0000 0.0000 28.8894 0.0000
# 6 0.0000 0.0000 0.0000 0.0000 0.0000 20.6586
#
#
#
# Elastic Compliance Matrix: (Units=1/GPa)
#
#
# Indices 1 2 3 4 5 6 
#
# 1 0.013436 -0.005772 -0.004439 0.000000 0.000000 0.000000
# 2 -0.005772 0.013057 -0.001945 0.000000 0.000000 0.000000
# 3 -0.004439 -0.001945 0.015702 0.000000 0.000000 0.000000
# 4 0.000000 0.000000 0.000000 0.040559 0.000000 0.000000
# 5 0.000000 0.000000 0.000000 0.000000 0.034615 0.000000
# 6 0.000000 0.000000 0.000000 0.000000 0.000000 0.048406
#
#
# Mechanical properties :
#
#
# Convention : Reuss Voigt Hill
#
# Bulk Modulus (GPa) = 55.92314 59.40815 57.66565
# Shear Modulus (GPa) = 25.50381 26.33387 25.91884
#
# Velocity S-wave (km/s) = 3.74512 3.80558 3.77547
# Velocity P-wave (km/s) = 7.03252 7.20983 7.12173
#
# Compressibility (1/GPa) = 0.01788168
#
# Stress axis : x y z
#
# Youngs Moduli (GPa) = 74.42461 76.58648 63.68629
#
# Poissons Ratio (x) = 0.44209 0.28273
# Poissons Ratio (y) = 0.42961 0.12387
# Poissons Ratio (z) = 0.33040 0.14896
#
# Static dielectric constant tensor:
#      x y z
#    x 3.208140 0.000000 0.000000 
#    y 0.000000 3.324720 0.000000 
#    z 0.000000 0.000000 3.448980 
# 
# 
# High freq. dielectric constant tensor:
#      x y z
#    x 1.673720 0.000000 0.000000 
#    y 0.000000 1.700840 0.000000 
#    z 0.000000 0.000000 1.710310 
# 
# From -- ./inp_files/35074.got.cif
#   From: 2010.03.12/outbox.cif.g09.slc.cpg/sg64_18_cif.got.tgz:35074.got - 2010.04.10 20:19:32.
