data_PCOD8261227
_publ_section_title
;
Structure prediction by ZEFSAII (Michael W. Deem and Ramdas Pophale) SiO2 
 PCOD8261227
Probable space group: C M C M
;
_chemical_formula_sum "Si O2"
_cell_formula_units_Z 48
_cell_length_a 8.775974
_cell_length_b 22.266171
_cell_length_c 12.544683
_cell_angle_alpha 90.000000
_cell_angle_beta 90.000000
_cell_angle_gamma 90.000000
_cell_volume 2451.323108
_symmetry_space_group_name_H-M "C M C M"
_symmetry_group_IT_number 63
_symmetry_cell_setting 'orthorhombic'
loop_
_space_group_symop_operation_xyz
x,y,z
-x,-y,1/2+z
x,-y,-z
-x,y,1/2-z
-x,-y,-z
x,y,1/2-z
-x,y,z
x,-y,1/2+z
1/2+x,1/2+y,z
1/2-x,1/2-y,1/2+z
1/2+x,1/2-y,-z
1/2-x,1/2+y,1/2-z
1/2-x,1/2-y,-z
1/2+x,1/2+y,1/2-z
1/2-x,1/2+y,z
1/2+x,1/2-y,1/2+z
loop_
_atom_site_type_symbol
_atom_site_label
_atom_site_fract_x
_atom_site_fract_y
_atom_site_fract_z
Si Si1 0.178857 0.065944 0.463387
Si Si2 0.680925 0.248877 0.250000
Si Si3 0.179864 0.612014 0.250000
Si Si4 0.327340 0.847848 0.368036
O O1 0.260487 0.077882 0.352717
O O2 0.229420 0.113174 0.551887
O O3 0.000000 0.071258 0.446394
O O4 0.228492 0.000000 0.500000
O O5 0.500000 0.254381 0.250000
O O6 0.738106 0.180610 0.250000
O O7 0.749678 0.281794 0.355585
O O8 0.000000 0.610123 0.250000
O O9 0.326972 0.878666 0.250000
O O10 0.500000 0.840905 0.411258
#
# Coordination Sequence:
#
# PCOD8261227 Si02
#       4
#    16   8   8  16
#     4  11  25  42  63  89 123 164 204 250 303 362
#     4   9  19  38  63  92 123 158 200 249 302 361
#     4  11  25  42  63  92 123 158 204 253 304 359
#     4   9  20  38  63  92 120 158 201 245 301 357
#
# _framework density 19.581261000000001
#
# number of rings (size 3 to 8) (size 9 to 14) (size 15 to 20)
#    1.000    1.000    0.000    2.500    2.333    6.667 
#    0.000    0.000    0.000    0.000    0.000    0.000 
#    0.000    0.000    0.000    0.000    0.000    0.000 
#
# Total GULP energy -297530.890351 kJ/mol
# GULP energy per Si atom -12397.120431 kJ/mol
# Density = 1.953669 g / cm^3
# Si number density = 19.581261 Si / 1000 Ang^3
#
#
#
# Elastic Constant Matrix: (Units=GPa)
#
#
# Indices 1 2 3 4 5 6 
#
# 1 68.1861 61.5465 36.8051 0.0000 0.0000 0.0000
# 2 61.5465 153.1535 74.3099 0.0000 0.0000 0.0000
# 3 36.8051 74.3099 121.7612 0.0000 0.0000 0.0000
# 4 0.0000 0.0000 0.0000 20.5843 0.0000 0.0000
# 5 0.0000 0.0000 0.0000 0.0000 37.2028 0.0000
# 6 0.0000 0.0000 0.0000 0.0000 0.0000 19.9133
#
#
#
# Elastic Compliance Matrix: (Units=1/GPa)
#
#
# Indices 1 2 3 4 5 6 
#
# 1 0.023315 -0.008453 -0.001889 0.000000 0.000000 0.000000
# 2 -0.008453 0.012341 -0.004976 0.000000 0.000000 0.000000
# 3 -0.001889 -0.004976 0.011821 0.000000 0.000000 0.000000
# 4 0.000000 0.000000 0.000000 0.048581 0.000000 0.000000
# 5 0.000000 0.000000 0.000000 0.000000 0.026880 0.000000
# 6 0.000000 0.000000 0.000000 0.000000 0.000000 0.050218
#
#
# Mechanical properties :
#
#
# Convention : Reuss Voigt Hill
#
# Bulk Modulus (GPa) = 59.38080 76.49151 67.93616
# Shear Modulus (GPa) = 23.87720 26.90271 25.38995
#
# Velocity S-wave (km/s) = 3.49577 3.71064 3.60480
# Velocity P-wave (km/s) = 6.83264 7.58333 7.21775
#
# Compressibility (1/GPa) = 0.01684046
#
# Stress axis : x y z
#
# Youngs Moduli (GPa) = 42.89055 81.03126 84.59683
#
# Poissons Ratio (x) = 0.68496 0.15978
# Poissons Ratio (y) = 0.36256 0.42099
# Poissons Ratio (z) = 0.08101 0.40325
#
# Static dielectric constant tensor:
#      x y z
#    x 3.622620 0.000000 0.000000 
#    y 0.000000 3.623680 0.000000 
#    z 0.000000 0.000000 3.297160 
# 
# 
# High freq. dielectric constant tensor:
#      x y z
#    x 1.779100 0.000000 0.000000 
#    y 0.000000 1.759940 0.000000 
#    z 0.000000 0.000000 1.760590 
# 
# From -- ./inp_files/15720.got.cif
#   From: 2010.03.12/outbox.cif.g09.slc.cpg/sg63_8_cif.got.tgz:15720.got - 2010.04.10 19:34:48.
