data_PCOD8261133
_publ_section_title
;
Structure prediction by ZEFSAII (Michael W. Deem and Ramdas Pophale) SiO2 
 PCOD8261133
Probable space group: C M C M
;
_chemical_formula_sum "Si O2"
_cell_formula_units_Z 80
_cell_length_a 15.182916
_cell_length_b 29.491937
_cell_length_c 9.529499
_cell_angle_alpha 90.000000
_cell_angle_beta 90.000000
_cell_angle_gamma 90.000000
_cell_volume 4267.058094
_symmetry_space_group_name_H-M "C M C M"
_symmetry_group_IT_number 63
_symmetry_cell_setting 'orthorhombic'
loop_
_space_group_symop_operation_xyz
x,y,z
-x,-y,1/2+z
x,-y,-z
-x,y,1/2-z
-x,-y,-z
x,y,1/2-z
-x,y,z
x,-y,1/2+z
1/2+x,1/2+y,z
1/2-x,1/2-y,1/2+z
1/2+x,1/2-y,-z
1/2-x,1/2+y,1/2-z
1/2-x,1/2-y,-z
1/2+x,1/2+y,1/2-z
1/2-x,1/2+y,z
1/2+x,1/2-y,1/2+z
loop_
_atom_site_type_symbol
_atom_site_label
_atom_site_fract_x
_atom_site_fract_y
_atom_site_fract_z
Si Si1 0.000000 0.805586 0.581868
Si Si2 0.500000 0.201195 0.584035
Si Si3 0.354722 0.641422 0.916611
Si Si4 0.344573 0.860818 0.083134
Si Si5 0.147135 0.460173 0.405416
Si Si6 0.144087 0.960684 0.403608
O O1 0.000000 0.753029 0.538513
O O2 0.913450 0.826361 0.512208
O O3 0.000000 0.812713 0.750000
O O4 0.500000 0.196185 0.750000
O O5 0.587619 0.176604 0.523847
O O6 0.369014 0.650282 0.750000
O O7 0.254395 0.651692 0.963762
O O8 0.380874 0.589746 0.955714
O O9 0.344988 0.863763 0.250000
O O10 0.374216 0.910691 0.028202
O O11 0.105451 0.500000 0.500000
O O12 0.106124 0.464833 0.250000
O O13 0.251532 0.465331 0.396865
O O14 0.103527 0.968191 0.250000
O O15 0.102388 0.000000 0.500000
#
# Coordination Sequence:
#
# PCOD8261133 Si02
#       6
#     8   8  16  16  16  16
#     4  11  23  35  50  75 100 124 163 215 262 295
#     4   9  18  33  52  75 101 126 162 213 254 289
#     4   9  18  34  54  74  99 133 168 199 240 298
#     4   8  15  30  52  74  98 133 170 199 237 294
#     4   8  13  23  42  69  98 128 161 193 230 279
#     4   8  14  25  44  70  97 126 160 195 232 280
#
# _framework density 18.748280999999999
#
# number of rings (size 3 to 8) (size 9 to 14) (size 15 to 20)
#    0.000    3.400    0.000    2.700    0.000    1.600 
#    0.000    4.000    0.000    3.600    0.000    0.000 
#    0.000    0.000    0.000    0.000    0.000    0.000 
#
# Total GULP energy -495663.551537 kJ/mol
# GULP energy per Si atom -12391.588788 kJ/mol
# Density = 1.870561 g / cm^3
# Si number density = 18.748281 Si / 1000 Ang^3
#
#
#
# Elastic Constant Matrix: (Units=GPa)
#
#
# Indices 1 2 3 4 5 6 
#
# 1 95.9006 75.6334 35.8845 0.0000 0.0000 0.0000
# 2 75.6334 180.4927 66.4654 0.0000 0.0000 0.0000
# 3 35.8845 66.4654 63.1177 0.0000 0.0000 0.0000
# 4 0.0000 0.0000 0.0000 27.6223 0.0000 0.0000
# 5 0.0000 0.0000 0.0000 0.0000 26.5469 0.0000
# 6 0.0000 0.0000 0.0000 0.0000 0.0000 28.3981
#
#
#
# Elastic Compliance Matrix: (Units=1/GPa)
#
#
# Indices 1 2 3 4 5 6 
#
# 1 0.015990 -0.005477 -0.003324 0.000000 0.000000 0.000000
# 2 -0.005477 0.010925 -0.008391 0.000000 0.000000 0.000000
# 3 -0.003324 -0.008391 0.026569 0.000000 0.000000 0.000000
# 4 0.000000 0.000000 0.000000 0.036203 0.000000 0.000000
# 5 0.000000 0.000000 0.000000 0.000000 0.037669 0.000000
# 6 0.000000 0.000000 0.000000 0.000000 0.000000 0.035214
#
#
# Mechanical properties :
#
#
# Convention : Reuss Voigt Hill
#
# Bulk Modulus (GPa) = 52.35152 77.27531 64.81341
# Shear Modulus (GPa) = 24.59162 27.28198 25.93680
#
# Velocity S-wave (km/s) = 3.62563 3.81881 3.72347
# Velocity P-wave (km/s) = 6.74618 7.79430 7.28911
#
# Compressibility (1/GPa) = 0.01910164
#
# Stress axis : x y z
#
# Youngs Moduli (GPa) = 62.53738 91.53108 37.63716
#
# Poissons Ratio (x) = 0.50127 0.12511
# Poissons Ratio (y) = 0.34249 0.31582
# Poissons Ratio (z) = 0.20788 0.76805
#
# Static dielectric constant tensor:
#      x y z
#    x 3.336520 0.000000 0.000000 
#    y 0.000000 3.667030 0.000000 
#    z 0.000000 0.000000 3.359070 
# 
# 
# High freq. dielectric constant tensor:
#      x y z
#    x 1.718830 0.000000 0.000000 
#    y 0.000000 1.731750 0.000000 
#    z 0.000000 0.000000 1.686840 
# 
# From -- ./inp_files/6516.got.cif
#   From: 2010.03.12/outbox.cif.g09.slc.cpg/sg63_4_cif.got.tgz:6516.got - 2010.04.10 19:34:48.
