data_PCOD8261032
_publ_section_title
;
Structure prediction by ZEFSAII (Michael W. Deem and Ramdas Pophale) SiO2 
 PCOD8261032
Probable space group: C M C M
;
_chemical_formula_sum "Si O2"
_cell_formula_units_Z 120
_cell_length_a 23.746086
_cell_length_b 12.076823
_cell_length_c 19.741285
_cell_angle_alpha 90.000000
_cell_angle_beta 90.000000
_cell_angle_gamma 90.000000
_cell_volume 5661.351968
_symmetry_space_group_name_H-M "C M C M"
_symmetry_group_IT_number 63
_symmetry_cell_setting 'orthorhombic'
loop_
_space_group_symop_operation_xyz
x,y,z
-x,-y,1/2+z
x,-y,-z
-x,y,1/2-z
-x,-y,-z
x,y,1/2-z
-x,y,z
x,-y,1/2+z
1/2+x,1/2+y,z
1/2-x,1/2-y,1/2+z
1/2+x,1/2-y,-z
1/2-x,1/2+y,1/2-z
1/2-x,1/2-y,-z
1/2+x,1/2+y,1/2-z
1/2-x,1/2+y,z
1/2+x,1/2-y,1/2+z
loop_
_atom_site_type_symbol
_atom_site_label
_atom_site_fract_x
_atom_site_fract_y
_atom_site_fract_z
Si Si1 0.141645 0.953118 0.671762
Si Si2 0.301130 0.000000 0.000000
Si Si3 0.368085 0.868096 0.827274
Si Si4 0.363755 0.227136 0.034565
Si Si5 0.753957 0.797020 0.823809
Si Si6 0.715957 0.391195 0.089901
Si Si7 0.936415 0.584868 0.672017
Si Si8 0.934030 0.200826 0.088787
O O1 0.122460 0.972470 0.750000
O O2 0.189946 0.863605 0.666000
O O3 0.091016 0.909107 0.624436
O O4 0.167349 0.065135 0.640638
O O5 0.257554 0.985313 0.062365
O O6 0.339791 0.107563 0.011385
O O7 0.386627 0.832052 0.750000
O O8 0.387301 0.783614 0.887334
O O9 0.300494 0.876581 0.833452
O O10 0.393967 0.986640 0.846059
O O11 0.315290 0.321146 0.030740
O O12 0.412814 0.273460 0.986893
O O13 0.751544 0.743236 0.750000
O O14 0.756766 0.694608 0.873539
O O15 0.933103 0.617173 0.750000
O O16 0.916870 0.693183 0.632810
O O17 0.000000 0.548908 0.651810
O O18 0.000000 0.180948 0.084918
#
# Coordination Sequence:
#
# PCOD8261032 Si02
#       8
#    16   8  16  16  16  16  16  16
#     4  11  23  39  62  90 118 156 204 250 304 367
#     4  12  22  36  59  88 127 164 198 240 296 364
#     4   9  18  34  56  85 123 161 196 240 298 363
#     4  11  23  38  59  88 120 162 208 247 299 365
#     4   9  19  35  57  87 121 154 190 237 292 354
#     4  11  21  37  57  85 122 159 194 240 293 355
#     4   9  18  34  58  86 116 153 197 247 303 361
#     4  11  24  42  61  83 115 154 203 262 314 364
#
# _framework density 21.196349999999999
#
# number of rings (size 3 to 8) (size 9 to 14) (size 15 to 20)
#    0.000    1.733    0.000    5.200    0.000    2.933 
#    0.000    7.667    0.000    0.800    0.000    7.467 
#    0.000    0.000    0.000    0.000    0.000    0.000 
#
# Total GULP energy -743672.601374 kJ/mol
# GULP energy per Si atom -12394.543356 kJ/mol
# Density = 2.114811 g / cm^3
# Si number density = 21.196350 Si / 1000 Ang^3
#
#
#
# Elastic Constant Matrix: (Units=GPa)
#
#
# Indices 1 2 3 4 5 6 
#
# 1 63.1485 16.0388 27.7289 0.0000 0.0000 0.0000
# 2 16.0388 54.7254 18.0794 0.0000 0.0000 0.0000
# 3 27.7289 18.0794 95.8616 0.0000 0.0000 0.0000
# 4 0.0000 0.0000 0.0000 18.9823 0.0000 0.0000
# 5 0.0000 0.0000 0.0000 0.0000 27.1068 0.0000
# 6 0.0000 0.0000 0.0000 0.0000 0.0000 22.0723
#
#
#
# Elastic Compliance Matrix: (Units=1/GPa)
#
#
# Indices 1 2 3 4 5 6 
#
# 1 0.018921 -0.003986 -0.004721 0.000000 0.000000 0.000000
# 2 -0.003986 0.020327 -0.002681 0.000000 0.000000 0.000000
# 3 -0.004721 -0.002681 0.012303 0.000000 0.000000 0.000000
# 4 0.000000 0.000000 0.000000 0.052681 0.000000 0.000000
# 5 0.000000 0.000000 0.000000 0.000000 0.036891 0.000000
# 6 0.000000 0.000000 0.000000 0.000000 0.000000 0.045306
#
#
# Mechanical properties :
#
#
# Convention : Reuss Voigt Hill
#
# Bulk Modulus (GPa) = 34.75189 37.49219 36.12204
# Shear Modulus (GPa) = 22.85236 23.75817 23.30526
#
# Velocity S-wave (km/s) = 3.28705 3.35156 3.31946
# Velocity P-wave (km/s) = 5.55311 5.71871 5.63652
#
# Compressibility (1/GPa) = 0.02877541
#
# Stress axis : x y z
#
# Youngs Moduli (GPa) = 52.85082 49.19627 81.28083
#
# Poissons Ratio (x) = 0.19607 0.38377
# Poissons Ratio (y) = 0.21064 0.21789
# Poissons Ratio (z) = 0.24953 0.13188
#
# Static dielectric constant tensor:
#      x y z
#    x 3.691870 0.000000 0.000000 
#    y 0.000000 3.725220 0.000000 
#    z 0.000000 0.000000 4.229350 
# 
# 
# High freq. dielectric constant tensor:
#      x y z
#    x 1.811370 0.000000 0.000000 
#    y 0.000000 1.821510 0.000000 
#    z 0.000000 0.000000 1.848130 
# 
# From -- ./inp_files/57695.got.cif
#   From: 2010.03.12/outbox.cif.g09.slc.cpg/sg63_29_cif.got.tgz:57695.got - 2010.04.10 19:34:48.
