data_PCOD8261025
_publ_section_title
;
Structure prediction by ZEFSAII (Michael W. Deem and Ramdas Pophale) SiO2 
 PCOD8261025
Probable space group: C M C M
;
_chemical_formula_sum "Si O2"
_cell_formula_units_Z 96
_cell_length_a 8.822032
_cell_length_b 19.916721
_cell_length_c 27.972047
_cell_angle_alpha 90.000000
_cell_angle_beta 90.000000
_cell_angle_gamma 90.000000
_cell_volume 4914.855091
_symmetry_space_group_name_H-M "C M C M"
_symmetry_group_IT_number 63
_symmetry_cell_setting 'orthorhombic'
loop_
_space_group_symop_operation_xyz
x,y,z
-x,-y,1/2+z
x,-y,-z
-x,y,1/2-z
-x,-y,-z
x,y,1/2-z
-x,y,z
x,-y,1/2+z
1/2+x,1/2+y,z
1/2-x,1/2-y,1/2+z
1/2+x,1/2-y,-z
1/2-x,1/2+y,1/2-z
1/2-x,1/2-y,-z
1/2+x,1/2+y,1/2-z
1/2-x,1/2+y,z
1/2+x,1/2-y,1/2+z
loop_
_atom_site_type_symbol
_atom_site_label
_atom_site_fract_x
_atom_site_fract_y
_atom_site_fract_z
Si Si1 0.825464 0.363070 0.896431
Si Si2 0.175598 0.228393 0.951144
Si Si3 0.322791 0.325475 0.803820
Si Si4 0.319958 0.107525 0.897434
Si Si5 0.820138 0.673303 0.801821
Si Si6 0.678678 0.516025 0.053838
O O1 0.800267 0.286341 0.912089
O O2 0.766978 0.371080 0.841969
O O3 0.730472 0.409356 0.932501
O O4 0.000000 0.384809 0.899139
O O5 0.257071 0.160786 0.934991
O O6 0.000000 0.212412 0.959601
O O7 0.250000 0.250000 0.000000
O O8 0.290526 0.351995 0.750000
O O9 0.500000 0.329945 0.815798
O O10 0.262428 0.249320 0.808780
O O11 0.500000 0.108016 0.900085
O O12 0.259314 0.126109 0.844281
O O13 0.258456 0.034330 0.909413
O O14 0.763028 0.646017 0.750000
O O15 0.000000 0.675048 0.802386
O O16 0.500000 0.508990 0.059105
O O17 0.731755 0.500000 0.000000
#
# Coordination Sequence:
#
# PCOD8261025 Si02
#       6
#    16  16  16  16  16  16
#     4  11  23  38  58  86 118 152 193 242 292 344
#     4  11  23  37  56  84 116 148 190 243 292 344
#     4   9  17  33  59  88 118 153 192 233 281 342
#     4  11  21  36  61  88 116 150 190 238 291 347
#     4   8  15  30  55  87 118 149 185 225 278 342
#     4  11  25  43  61  80 111 157 202 244 294 353
#
# _framework density 19.532622
#
# number of rings (size 3 to 8) (size 9 to 14) (size 15 to 20)
#    0.000    1.833    1.667    4.000    0.000    6.333 
#    0.000    0.833    0.000    5.000    0.000    0.000 
#    0.000    0.000    0.000    0.000    0.000    0.000 
#
# Total GULP energy -595274.049970 kJ/mol
# GULP energy per Si atom -12401.542708 kJ/mol
# Density = 1.948816 g / cm^3
# Si number density = 19.532622 Si / 1000 Ang^3
#
#
#
# Elastic Constant Matrix: (Units=GPa)
#
#
# Indices 1 2 3 4 5 6 
#
# 1 70.5089 18.5447 35.6679 0.0000 0.0000 0.0000
# 2 18.5447 47.8318 8.7736 0.0000 0.0000 0.0000
# 3 35.6679 8.7736 118.1182 0.0000 0.0000 0.0000
# 4 0.0000 0.0000 0.0000 34.4963 0.0000 0.0000
# 5 0.0000 0.0000 0.0000 0.0000 27.5040 0.0000
# 6 0.0000 0.0000 0.0000 0.0000 0.0000 31.9169
#
#
#
# Elastic Compliance Matrix: (Units=1/GPa)
#
#
# Indices 1 2 3 4 5 6 
#
# 1 0.018388 -0.006195 -0.005092 0.000000 0.000000 0.000000
# 2 -0.006195 0.023283 0.000141 0.000000 0.000000 0.000000
# 3 -0.005092 0.000141 0.009993 0.000000 0.000000 0.000000
# 4 0.000000 0.000000 0.000000 0.028989 0.000000 0.000000
# 5 0.000000 0.000000 0.000000 0.000000 0.036358 0.000000
# 6 0.000000 0.000000 0.000000 0.000000 0.000000 0.031331
#
#
# Mechanical properties :
#
#
# Convention : Reuss Voigt Hill
#
# Bulk Modulus (GPa) = 34.04655 40.27016 37.15835
# Shear Modulus (GPa) = 27.71231 30.34829 29.03030
#
# Velocity S-wave (km/s) = 3.77074 3.94601 3.85937
# Velocity P-wave (km/s) = 6.03543 6.43606 6.23897
#
# Compressibility (1/GPa) = 0.02937155
#
# Stress axis : x y z
#
# Youngs Moduli (GPa) = 54.38302 42.95063 100.06654
#
# Poissons Ratio (x) = 0.26608 0.50958
# Poissons Ratio (y) = 0.33691 -0.01414
# Poissons Ratio (z) = 0.27694 -0.00607
#
# Static dielectric constant tensor:
#      x y z
#    x 3.420620 0.000000 0.000000 
#    y 0.000000 3.396810 0.000000 
#    z 0.000000 0.000000 3.896750 
# 
# 
# High freq. dielectric constant tensor:
#      x y z
#    x 1.751110 0.000000 0.000000 
#    y 0.000000 1.741550 0.000000 
#    z 0.000000 0.000000 1.777550 
# 
# From -- ./inp_files/66898.got.cif
#   From: 2010.03.12/outbox.cif.g09.slc.cpg/sg63_34_cif.got.tgz:66898.got - 2010.04.10 19:34:48.
