data_PCOD8261287
_publ_section_title
;
Structure prediction by ZEFSAII (Michael W. Deem and Ramdas Pophale) SiO2 
 PCOD8261287
Probable space group: C M C M
;
_chemical_formula_sum "Si O2"
_cell_formula_units_Z 96
_cell_length_a 9.762855
_cell_length_b 31.261166
_cell_length_c 18.379150
_cell_angle_alpha 90.000000
_cell_angle_beta 90.000000
_cell_angle_gamma 90.000000
_cell_volume 5609.284063
_symmetry_space_group_name_H-M "C M C M"
_symmetry_group_IT_number 63
_symmetry_cell_setting 'orthorhombic'
loop_
_space_group_symop_operation_xyz
x,y,z
-x,-y,1/2+z
x,-y,-z
-x,y,1/2-z
-x,-y,-z
x,y,1/2-z
-x,y,z
x,-y,1/2+z
1/2+x,1/2+y,z
1/2-x,1/2-y,1/2+z
1/2+x,1/2-y,-z
1/2-x,1/2+y,1/2-z
1/2-x,1/2-y,-z
1/2+x,1/2+y,1/2-z
1/2-x,1/2+y,z
1/2+x,1/2-y,1/2+z
loop_
_atom_site_type_symbol
_atom_site_label
_atom_site_fract_x
_atom_site_fract_y
_atom_site_fract_z
Si Si1 0.837090 0.663089 0.831139
Si Si2 0.157968 0.666753 0.335494
Si Si3 0.663418 0.916718 0.421207
Si Si4 0.663347 0.001701 0.667717
Si Si5 0.663009 0.081645 0.085304
Si Si6 0.847329 0.757115 0.836622
O O1 0.777134 0.655489 0.750000
O O2 0.778762 0.626615 0.884507
O O3 0.795220 0.710033 0.861703
O O4 0.000000 0.660583 0.827092
O O5 0.179318 0.659809 0.250000
O O6 0.214289 0.624624 0.375424
O O7 0.243542 0.706996 0.365885
O O8 0.000000 0.675526 0.354493
O O9 0.500000 0.916467 0.421456
O O10 0.720134 0.919531 0.503194
O O11 0.718669 0.957189 0.375890
O O12 0.719608 0.003421 0.750000
O O13 0.500000 0.001314 0.667838
O O14 0.721119 0.959203 0.628748
O O15 0.500000 0.080186 0.085744
O O16 0.851195 0.757204 0.750000
O O17 0.000000 0.766561 0.867016
#
# Coordination Sequence:
#
# PCOD8261287 Si02
#       6
#    16  16  16  16  16  16
#     4   8  13  22  36  53  72  95 125 162 203 240
#     4   9  16  26  40  57  79 108 138 165 196 237
#     4   9  15  22  33  50  73 100 129 161 197 238
#     4   9  15  22  33  49  71 101 133 161 193 237
#     4   9  16  24  33  49  76 106 131 157 194 237
#     4   8  14  25  41  59  78 101 132 171 207 234
#
# _framework density 17.114484000000001
#
# number of rings (size 3 to 8) (size 9 to 14) (size 15 to 20)
#    0.000    3.333    0.000    2.500    0.000    6.000 
#    0.000    0.833    0.000    0.000    0.000    0.000 
#    0.000    4.000    0.000   10.667    0.000    9.500 
#
# Total GULP energy -594953.488437 kJ/mol
# GULP energy per Si atom -12394.864342 kJ/mol
# Density = 1.707553 g / cm^3
# Si number density = 17.114484 Si / 1000 Ang^3
#
#
#
# Elastic Constant Matrix: (Units=GPa)
#
#
# Indices 1 2 3 4 5 6 
#
# 1 20.3720 33.8543 17.0940 0.0000 0.0000 0.0000
# 2 33.8543 195.3361 80.9691 0.0000 0.0000 0.0000
# 3 17.0940 80.9691 108.2780 0.0000 0.0000 0.0000
# 4 0.0000 0.0000 0.0000 15.9770 0.0000 0.0000
# 5 0.0000 0.0000 0.0000 0.0000 5.2778 0.0000
# 6 0.0000 0.0000 0.0000 0.0000 0.0000 17.5884
#
#
#
# Elastic Compliance Matrix: (Units=1/GPa)
#
#
# Indices 1 2 3 4 5 6 
#
# 1 0.069545 -0.010872 -0.002849 0.000000 0.000000 0.000000
# 2 -0.010872 0.009119 -0.005102 0.000000 0.000000 0.000000
# 3 -0.002849 -0.005102 0.013501 0.000000 0.000000 0.000000
# 4 0.000000 0.000000 0.000000 0.062590 0.000000 0.000000
# 5 0.000000 0.000000 0.000000 0.000000 0.189472 0.000000
# 6 0.000000 0.000000 0.000000 0.000000 0.000000 0.056856
#
#
# Mechanical properties :
#
#
# Convention : Reuss Voigt Hill
#
# Bulk Modulus (GPa) = 18.34286 65.31343 41.82814
# Shear Modulus (GPa) = 10.94326 20.57323 15.75824
#
# Velocity S-wave (km/s) = 2.53141 3.47088 3.03769
# Velocity P-wave (km/s) = 4.39147 7.36941 6.06602
#
# Compressibility (1/GPa) = 0.05451714
#
# Stress axis : x y z
#
# Youngs Moduli (GPa) = 14.37918 109.66521 74.06944
#
# Poissons Ratio (x) = 1.19228 0.21104
# Poissons Ratio (y) = 0.15633 0.37794
# Poissons Ratio (z) = 0.04097 0.55956
#
# Static dielectric constant tensor:
#      x y z
#    x 2.550930 0.000000 0.000000 
#    y 0.000000 3.592010 0.000000 
#    z 0.000000 0.000000 3.214100 
# 
# 
# High freq. dielectric constant tensor:
#      x y z
#    x 1.572460 0.000000 0.000000 
#    y 0.000000 1.681980 0.000000 
#    z 0.000000 0.000000 1.650900 
# 
# From -- ./inp_files/42705.got.cif
#   From: 2010.03.12/outbox.cif.g09.slc.cpg/sg63_22_cif.got.tgz:42705.got - 2010.04.10 19:34:48.
