data_PCOD8261349
_publ_section_title
;
Structure prediction by ZEFSAII (Michael W. Deem and Ramdas Pophale) SiO2 
 PCOD8261349
Probable space group: C M C M
;
_chemical_formula_sum "Si O2"
_cell_formula_units_Z 80
_cell_length_a 9.458434
_cell_length_b 29.603752
_cell_length_c 16.017347
_cell_angle_alpha 90.000000
_cell_angle_beta 90.000000
_cell_angle_gamma 90.000000
_cell_volume 4484.939400
_symmetry_space_group_name_H-M "C M C M"
_symmetry_group_IT_number 63
_symmetry_cell_setting 'orthorhombic'
loop_
_space_group_symop_operation_xyz
x,y,z
-x,-y,1/2+z
x,-y,-z
-x,y,1/2-z
-x,-y,-z
x,y,1/2-z
-x,y,z
x,-y,1/2+z
1/2+x,1/2+y,z
1/2-x,1/2-y,1/2+z
1/2+x,1/2-y,-z
1/2-x,1/2+y,1/2-z
1/2-x,1/2-y,-z
1/2+x,1/2+y,1/2-z
1/2-x,1/2+y,z
1/2+x,1/2-y,1/2+z
loop_
_atom_site_type_symbol
_atom_site_label
_atom_site_fract_x
_atom_site_fract_y
_atom_site_fract_z
Si Si1 0.668810 0.955017 0.250000
Si Si2 0.167182 0.353137 0.250000
Si Si3 0.163981 0.299894 0.582580
Si Si4 0.831573 0.512671 0.091426
Si Si5 0.168236 0.607153 0.156722
Si Si6 0.163538 0.285081 0.390277
O O1 0.500000 0.955457 0.250000
O O2 0.730450 0.903849 0.250000
O O3 0.724311 0.979948 0.334210
O O4 0.218020 0.325722 0.331687
O O5 0.000000 0.357717 0.250000
O O6 0.225480 0.347408 0.614188
O O7 0.190380 0.300375 0.484243
O O8 0.248283 0.260081 0.628916
O O9 0.000000 0.293555 0.605212
O O10 0.776328 0.563370 0.107634
O O11 0.000000 0.510510 0.090863
O O12 0.771119 0.500000 0.000000
O O13 0.228014 0.604786 0.250000
O O14 0.000000 0.607374 0.156582
O O15 0.000000 0.274181 0.372451
#
# Coordination Sequence:
#
# PCOD8261349 Si02
#       6
#     8   8  16  16  16  16
#     4   9  16  26  37  55  81 113 149 177 210 263
#     4   9  18  28  42  59  85 121 151 179 218 265
#     4   9  18  30  47  66  88 117 150 185 221 261
#     4   9  16  24  37  56  82 114 144 176 215 262
#     4   9  16  26  39  59  86 113 142 180 223 261
#     4   9  18  32  45  63  90 119 150 184 219 260
#
# _framework density 17.837475000000001
#
# number of rings (size 3 to 8) (size 9 to 14) (size 15 to 20)
#    0.000    3.000    1.000    0.000    4.200    0.000 
#    0.000    0.000    0.000    0.000    0.000    0.000 
#    0.000    4.000    0.000    0.000    0.000    0.000 
#
# Total GULP energy -495836.120611 kJ/mol
# GULP energy per Si atom -12395.903015 kJ/mol
# Density = 1.779688 g / cm^3
# Si number density = 17.837475 Si / 1000 Ang^3
#
#
#
# Elastic Constant Matrix: (Units=GPa)
#
#
# Indices 1 2 3 4 5 6 
#
# 1 15.2862 25.9378 17.0313 0.0000 0.0000 0.0000
# 2 25.9378 200.1540 89.4104 0.0000 0.0000 0.0000
# 3 17.0313 89.4104 125.7705 0.0000 0.0000 0.0000
# 4 0.0000 0.0000 0.0000 37.0608 0.0000 0.0000
# 5 0.0000 0.0000 0.0000 0.0000 9.0242 0.0000
# 6 0.0000 0.0000 0.0000 0.0000 0.0000 18.9107
#
#
#
# Elastic Compliance Matrix: (Units=1/GPa)
#
#
# Indices 1 2 3 4 5 6 
#
# 1 0.086359 -0.008744 -0.005478 0.000000 0.000000 0.000000
# 2 -0.008744 0.008206 -0.004650 0.000000 0.000000 0.000000
# 3 -0.005478 -0.004650 0.011998 0.000000 0.000000 0.000000
# 4 0.000000 0.000000 0.000000 0.026983 0.000000 0.000000
# 5 0.000000 0.000000 0.000000 0.000000 0.110813 0.000000
# 6 0.000000 0.000000 0.000000 0.000000 0.000000 0.052880
#
#
# Mechanical properties :
#
#
# Convention : Reuss Voigt Hill
#
# Bulk Modulus (GPa) = 14.53068 67.32996 40.93032
# Shear Modulus (GPa) = 13.96944 26.92123 20.44533
#
# Velocity S-wave (km/s) = 2.80152 3.88912 3.38923
# Velocity P-wave (km/s) = 4.31608 7.61547 6.18966
#
# Compressibility (1/GPa) = 0.06881988
#
# Stress axis : x y z
#
# Youngs Moduli (GPa) = 11.57952 121.85572 83.34427
#
# Poissons Ratio (x) = 1.06552 0.45658
# Poissons Ratio (y) = 0.10125 0.38754
# Poissons Ratio (z) = 0.06344 0.56661
#
# Static dielectric constant tensor:
#      x y z
#    x 2.653240 0.000000 0.000000 
#    y 0.000000 3.652260 0.000000 
#    z 0.000000 0.000000 3.463040 
# 
# 
# High freq. dielectric constant tensor:
#      x y z
#    x 1.608410 0.000000 0.000000 
#    y 0.000000 1.706650 0.000000 
#    z 0.000000 0.000000 1.702890 
# 
# From -- ./inp_files/30049.got.cif
#   From: 2010.03.12/outbox.cif.g09.slc.cpg/sg63_16_cif.got.tgz:30049.got - 2010.04.10 19:34:48.
