data_PCOD8261149
_publ_section_title
;
Structure prediction by ZEFSAII (Michael W. Deem and Ramdas Pophale) SiO2 
 PCOD8261149
Probable space group: C M C M
;
_chemical_formula_sum "Si O2"
_cell_formula_units_Z 80
_cell_length_a 25.230204
_cell_length_b 9.763275
_cell_length_c 17.437576
_cell_angle_alpha 90.000000
_cell_angle_beta 90.000000
_cell_angle_gamma 90.000000
_cell_volume 4295.387982
_symmetry_space_group_name_H-M "C M C M"
_symmetry_group_IT_number 63
_symmetry_cell_setting 'orthorhombic'
loop_
_space_group_symop_operation_xyz
x,y,z
-x,-y,1/2+z
x,-y,-z
-x,y,1/2-z
-x,-y,-z
x,y,1/2-z
-x,y,z
x,-y,1/2+z
1/2+x,1/2+y,z
1/2-x,1/2-y,1/2+z
1/2+x,1/2-y,-z
1/2-x,1/2+y,1/2-z
1/2-x,1/2-y,-z
1/2+x,1/2+y,1/2-z
1/2-x,1/2+y,z
1/2+x,1/2-y,1/2+z
loop_
_atom_site_type_symbol
_atom_site_label
_atom_site_fract_x
_atom_site_fract_y
_atom_site_fract_z
Si Si1 0.560912 0.275282 0.660460
Si Si2 0.855522 0.022616 0.088345
Si Si3 0.242839 0.377411 0.554666
Si Si4 0.558291 0.968437 0.658923
Si Si5 0.849034 0.726383 0.159102
O O1 0.572562 0.287436 0.750000
O O2 0.500000 0.314159 0.642607
O O3 0.599394 0.377897 0.617913
O O4 0.573228 0.121408 0.630826
O O5 0.857057 0.882316 0.135244
O O6 0.797492 0.088141 0.098057
O O7 0.867960 0.000000 0.000000
O O8 0.223060 0.500000 0.500000
O O9 0.250000 0.250000 0.500000
O O10 0.201597 0.344028 0.621085
O O11 0.556733 0.969919 0.750000
O O12 0.500000 0.927722 0.627331
O O13 0.600129 0.857855 0.628785
O O14 0.842025 0.716203 0.250000
#
# Coordination Sequence:
#
# PCOD8261149 Si02
#       5
#    16  16  16  16  16
#     4   9  19  37  60  86 117 155 199 247 298 351
#     4  11  23  39  59  84 120 161 194 241 300 362
#     4  11  23  44  61  81 119 161 194 240 306 359
#     4   8  17  35  58  86 117 147 186 240 296 343
#     4  11  23  38  62  93 117 150 203 250 292 352
#
# _framework density 18.624625999999999
#
# number of rings (size 3 to 8) (size 9 to 14) (size 15 to 20)
#    0.000    2.000    4.000    1.800    2.800    2.800 
#    0.000    2.000    0.000    3.000    0.000    0.000 
#    0.000    0.000    0.000    0.000    0.000    0.000 
#
# Total GULP energy -495955.239390 kJ/mol
# GULP energy per Si atom -12398.880985 kJ/mol
# Density = 1.858224 g / cm^3
# Si number density = 18.624626 Si / 1000 Ang^3
#
#
#
# Elastic Constant Matrix: (Units=GPa)
#
#
# Indices 1 2 3 4 5 6 
#
# 1 161.0650 98.8700 62.9126 0.0000 0.0000 0.0000
# 2 98.8700 150.9739 50.3805 0.0000 0.0000 0.0000
# 3 62.9126 50.3805 77.6713 0.0000 0.0000 0.0000
# 4 0.0000 0.0000 0.0000 36.1435 0.0000 0.0000
# 5 0.0000 0.0000 0.0000 0.0000 -19.0150 0.0000
# 6 0.0000 0.0000 0.0000 0.0000 0.0000 40.6018
#
#
#
# Elastic Compliance Matrix: (Units=1/GPa)
#
#
# Indices 1 2 3 4 5 6 
#
# 1 0.012254 -0.006014 -0.006024 0.000000 0.000000 0.000000
# 2 -0.006014 0.011405 -0.002526 0.000000 0.000000 0.000000
# 3 -0.006024 -0.002526 0.019393 0.000000 0.000000 0.000000
# 4 0.000000 0.000000 0.000000 0.027667 0.000000 0.000000
# 5 0.000000 0.000000 0.000000 0.000000 -0.052590 0.000000
# 6 0.000000 0.000000 0.000000 0.000000 0.000000 0.024629
#
#
# Mechanical properties :
#
#
# Convention : Reuss Voigt Hill
#
# Bulk Modulus (GPa) = 71.82789 90.44849 81.13819
# Shear Modulus (GPa) = 65.33424 23.38255 44.35840
#
# Velocity S-wave (km/s) = 5.92922 3.54710 4.88557
# Velocity P-wave (km/s) = 9.24792 8.08982 8.68819
#
# Compressibility (1/GPa) = 0.01392217
#
# Stress axis : x y z
#
# Youngs Moduli (GPa) = 81.60813 87.67723 51.56518
#
# Poissons Ratio (x) = 0.52733 0.31063
# Poissons Ratio (y) = 0.49083 0.13027
# Poissons Ratio (z) = 0.49162 0.22151
#
# Static dielectric constant tensor:
#      x y z
#    x 3.941640 0.000000 0.000000 
#    y 0.000000 3.603420 0.000000 
#    z 0.000000 0.000000 3.185030 
# 
# 
# High freq. dielectric constant tensor:
#      x y z
#    x 1.732760 0.000000 0.000000 
#    y 0.000000 1.737890 0.000000 
#    z 0.000000 0.000000 1.708580 
# 
# From -- ./inp_files/48771.got.cif
#   From: 2010.03.12/outbox.cif.g09.slc.cpg/sg63_25_cif.got.tgz:48771.got - 2010.04.10 19:34:48.
