data_PCOD8261395
_publ_section_title
;
Structure prediction by ZEFSAII (Michael W. Deem and Ramdas Pophale) SiO2 
 PCOD8261395
Probable space group: C M C A
;
_chemical_formula_sum "Si O2"
_cell_formula_units_Z 128
_cell_length_a 28.406806
_cell_length_b 28.030223
_cell_length_c 10.509764
_cell_angle_alpha 90.000000
_cell_angle_beta 90.000000
_cell_angle_gamma 90.000000
_cell_volume 8368.390199
_symmetry_space_group_name_H-M "C M C A"
_symmetry_group_IT_number 64
_symmetry_cell_setting 'orthorhombic'
loop_
_space_group_symop_operation_xyz
x,y,z
-x,1/2-y,1/2+z
x,-y,-z
-x,1/2+y,1/2-z
-x,-y,-z
x,1/2+y,1/2-z
-x,y,z
x,1/2-y,1/2+z
1/2+x,1/2+y,z
1/2-x,-y,1/2+z
1/2+x,1/2-y,-z
1/2-x,y,1/2-z
1/2-x,1/2-y,-z
1/2+x,y,1/2-z
1/2-x,1/2+y,z
1/2+x,-y,1/2+z
loop_
_atom_site_type_symbol
_atom_site_label
_atom_site_fract_x
_atom_site_fract_y
_atom_site_fract_z
Si Si1 0.944103 0.782642 0.502655
Si Si2 0.445770 0.390774 0.518291
Si Si3 0.623301 0.965257 0.881048
Si Si4 0.878499 0.472938 0.368925
Si Si5 0.055991 0.786346 0.220300
Si Si6 0.054291 0.394464 0.276252
Si Si7 0.730239 0.945844 0.876796
Si Si8 0.729142 0.947788 0.373062
O O1 0.929474 0.836330 0.538963
O O2 0.922501 0.746984 0.608802
O O3 0.925296 0.769993 0.360251
O O4 0.000000 0.778712 0.501410
O O5 0.500000 0.397567 0.557227
O O6 0.414963 0.423522 0.610362
O O7 0.438022 0.405923 0.372171
O O8 0.674373 0.941147 0.883256
O O9 0.614371 0.991687 0.748676
O O10 0.617262 0.000000 0.000000
O O11 0.887847 0.500000 0.500000
O O12 0.915113 0.429788 0.361682
O O13 0.826591 0.451046 0.366169
O O14 0.071106 0.840723 0.193294
O O15 0.000000 0.783113 0.221560
O O16 0.000000 0.401555 0.313959
O O17 0.750000 0.920089 0.750000
O O18 0.745950 0.000786 0.874716
O O19 0.754267 0.920400 0.999137
O O20 0.750000 0.919983 0.250000
#
# Coordination Sequence:
#
# PCOD8261395 Si02
#       8
#    16  16  16  16  16  16  16  16
#     4   8  14  28  48  66  85 108 138 183 231 263
#     4   9  19  32  46  67  91 117 157 192 210 253
#     4  12  19  29  49  66  85 126 160 180 215 263
#     4  12  21  31  44  62  93 128 151 185 227 258
#     4   8  14  28  49  66  82 108 140 183 231 263
#     4   9  19  33  46  63  91 124 156 182 214 267
#     4  10  16  28  44  63  83 110 146 191 228 259
#     4  10  16  28  44  62  82 110 145 194 230 254
#
# _framework density 15.295653
#
# number of rings (size 3 to 8) (size 9 to 14) (size 15 to 20)
#    0.000    2.250    6.250    1.500    0.000    1.000 
#    2.250    0.000    0.000    0.000    0.000    0.000 
#    0.000    2.000    0.000    0.000    0.000    0.000 
#
# Total GULP energy -793229.213470 kJ/mol
# GULP energy per Si atom -12394.206460 kJ/mol
# Density = 1.526084 g / cm^3
# Si number density = 15.295653 Si / 1000 Ang^3
#
#
#
# Elastic Constant Matrix: (Units=GPa)
#
#
# Indices 1 2 3 4 5 6 
#
# 1 72.4993 42.3862 41.2857 0.0000 0.0000 0.0000
# 2 42.3862 68.7750 59.6645 0.0000 0.0000 0.0000
# 3 41.2857 59.6645 147.5254 0.0000 0.0000 0.0000
# 4 0.0000 0.0000 0.0000 12.2178 0.0000 0.0000
# 5 0.0000 0.0000 0.0000 0.0000 19.8682 0.0000
# 6 0.0000 0.0000 0.0000 0.0000 0.0000 0.1007
#
#
#
# Elastic Compliance Matrix: (Units=1/GPa)
#
#
# Indices 1 2 3 4 5 6 
#
# 1 0.021662 -0.012464 -0.001021 0.000000 0.000000 0.000000
# 2 -0.012464 0.029571 -0.008471 0.000000 0.000000 0.000000
# 3 -0.001021 -0.008471 0.010490 0.000000 0.000000 0.000000
# 4 0.000000 0.000000 0.000000 0.081848 0.000000 0.000000
# 5 0.000000 0.000000 0.000000 0.000000 0.050332 0.000000
# 6 0.000000 0.000000 0.000000 0.000000 0.000000 9.931624
#
#
# Mechanical properties :
#
#
# Convention : Reuss Voigt Hill
#
# Bulk Modulus (GPa) = 56.14945 63.94137 60.04541
# Shear Modulus (GPa) = 0.49138 16.13490 8.31314
#
# Velocity S-wave (km/s) = 0.56741 3.25140 2.33383
# Velocity P-wave (km/s) = 6.10069 7.48263 6.82672
#
# Compressibility (1/GPa) = 0.01780961
#
# Stress axis : x y z
#
# Youngs Moduli (GPa) = 46.16379 33.81657 95.32511
#
# Poissons Ratio (x) = 0.42151 0.09734
# Poissons Ratio (y) = 0.57541 0.80754
# Poissons Ratio (z) = 0.04714 0.28647
#
# Static dielectric constant tensor:
#      x y z
#    x 2.747120 0.000000 0.000000 
#    y 0.000000 2.680750 0.000000 
#    z 0.000000 0.000000 -6.283560 
# 
# 
# High freq. dielectric constant tensor:
#      x y z
#    x 1.563350 0.000000 0.000000 
#    y 0.000000 1.542460 0.000000 
#    z 0.000000 0.000000 1.602660 
# 
# From -- ./inp_files/19425.got.cif
#   From: 2010.03.12/outbox.cif.g09.slc.cpg/sg64_10_cif.got.tgz:19425.got - 2010.04.10 20:19:32.
