data_PCOD8261563
_publ_section_title
;
Structure prediction by ZEFSAII (Michael W. Deem and Ramdas Pophale) SiO2 
 PCOD8261563
Probable space group: C M C A
;
_chemical_formula_sum "Si O2"
_cell_formula_units_Z 96
_cell_length_a 18.685866
_cell_length_b 16.601942
_cell_length_c 18.555021
_cell_angle_alpha 90.000000
_cell_angle_beta 90.000000
_cell_angle_gamma 90.000000
_cell_volume 5756.169482
_symmetry_space_group_name_H-M "C M C A"
_symmetry_group_IT_number 64
_symmetry_cell_setting 'orthorhombic'
loop_
_space_group_symop_operation_xyz
x,y,z
-x,1/2-y,1/2+z
x,-y,-z
-x,1/2+y,1/2-z
-x,-y,-z
x,1/2+y,1/2-z
-x,y,z
x,1/2-y,1/2+z
1/2+x,1/2+y,z
1/2-x,-y,1/2+z
1/2+x,1/2-y,-z
1/2-x,y,1/2-z
1/2-x,1/2-y,-z
1/2+x,y,1/2-z
1/2-x,1/2+y,z
1/2+x,-y,1/2+z
loop_
_atom_site_type_symbol
_atom_site_label
_atom_site_fract_x
_atom_site_fract_y
_atom_site_fract_z
Si Si1 0.327555 0.613590 0.285058
Si Si2 0.084350 0.157606 0.151837
Si Si3 0.827368 0.201251 0.584928
Si Si4 0.818545 0.959347 0.926812
Si Si5 0.204685 0.179105 0.430732
Si Si6 0.719880 0.555673 0.676261
O O1 0.250000 0.633813 0.250000
O O2 0.389757 0.644540 0.233404
O O3 0.340752 0.661732 0.359172
O O4 0.332099 0.518237 0.301245
O O5 0.114256 0.240793 0.119976
O O6 0.111212 0.081723 0.105910
O O7 0.000000 0.161591 0.149777
O O8 0.847132 0.184871 0.500650
O O9 0.747605 0.238379 0.583667
O O10 0.826226 0.119481 0.631176
O O11 0.759421 0.893180 0.945265
O O12 0.786730 0.023417 0.870510
O O13 0.843927 0.000000 0.000000
O O14 0.750000 0.595809 0.750000
#
# Coordination Sequence:
#
# PCOD8261563 Si02
#       6
#    16  16  16  16  16  16
#     4  10  17  35  54  78 102 141 189 228 266 313
#     4  11  23  38  52  76 120 155 174 211 281 346
#     4  10  19  31  52  83 108 140 174 226 281 312
#     4  10  17  33  55  82 110 136 183 227 275 315
#     4   9  18  30  53  83 107 133 181 234 266 314
#     4  10  18  29  56  86 104 127 180 245 266 301
#
# _framework density 16.677758000000001
#
# number of rings (size 3 to 8) (size 9 to 14) (size 15 to 20)
#    0.000    2.000    8.333    0.000    2.333    0.333 
#    0.000    1.667    0.000    0.000    0.000    3.500 
#    0.000    0.000    0.000    0.000    0.000    0.000 
#
# Total GULP energy -595087.673358 kJ/mol
# GULP energy per Si atom -12397.659862 kJ/mol
# Density = 1.663980 g / cm^3
# Si number density = 16.677758 Si / 1000 Ang^3
#
#
#
# Elastic Constant Matrix: (Units=GPa)
#
#
# Indices 1 2 3 4 5 6 
#
# 1 88.5805 40.9523 52.9946 0.0000 0.0000 0.0000
# 2 40.9523 75.5249 66.2330 0.0000 0.0000 0.0000
# 3 52.9946 66.2330 165.7656 0.0000 0.0000 0.0000
# 4 0.0000 0.0000 0.0000 35.6490 0.0000 0.0000
# 5 0.0000 0.0000 0.0000 0.0000 15.6282 0.0000
# 6 0.0000 0.0000 0.0000 0.0000 0.0000 11.5466
#
#
#
# Elastic Compliance Matrix: (Units=1/GPa)
#
#
# Indices 1 2 3 4 5 6 
#
# 1 0.015707 -0.006332 -0.002492 0.000000 0.000000 0.000000
# 2 -0.006332 0.022935 -0.007140 0.000000 0.000000 0.000000
# 3 -0.002492 -0.007140 0.009682 0.000000 0.000000 0.000000
# 4 0.000000 0.000000 0.000000 0.028051 0.000000 0.000000
# 5 0.000000 0.000000 0.000000 0.000000 0.063987 0.000000
# 6 0.000000 0.000000 0.000000 0.000000 0.000000 0.086605
#
#
# Mechanical properties :
#
#
# Convention : Reuss Voigt Hill
#
# Bulk Modulus (GPa) = 60.98309 72.24785 66.61547
# Shear Modulus (GPa) = 18.91359 23.87752 21.39555
#
# Velocity S-wave (km/s) = 3.37124 3.78788 3.58562
# Velocity P-wave (km/s) = 7.19712 7.90852 7.56119
#
# Compressibility (1/GPa) = 0.01639799
#
# Stress axis : x y z
#
# Youngs Moduli (GPa) = 63.66536 43.60066 103.28571
#
# Poissons Ratio (x) = 0.27608 0.25734
# Poissons Ratio (y) = 0.40313 0.73743
# Poissons Ratio (z) = 0.15862 0.31130
#
# Static dielectric constant tensor:
#      x y z
#    x 2.543840 0.000000 0.000000 
#    y 0.000000 3.253600 0.000000 
#    z 0.000000 0.000000 3.539080 
# 
# 
# High freq. dielectric constant tensor:
#      x y z
#    x 1.574000 0.000000 0.000000 
#    y 0.000000 1.647330 0.000000 
#    z 0.000000 0.000000 1.670970 
# 
# From -- ./inp_files/33516.got.cif
#   From: 2010.03.12/outbox.cif.g09.slc.cpg/sg64_17_cif.got.tgz:33516.got - 2010.04.10 20:19:32.
