data_PCOD8261463
_publ_section_title
;
Structure prediction by ZEFSAII (Michael W. Deem and Ramdas Pophale) SiO2 
 PCOD8261463
Probable space group: C M C A
;
_chemical_formula_sum "Si O2"
_cell_formula_units_Z 80
_cell_length_a 8.494762
_cell_length_b 26.201521
_cell_length_c 18.359507
_cell_angle_alpha 90.000000
_cell_angle_beta 90.000000
_cell_angle_gamma 90.000000
_cell_volume 4086.379846
_symmetry_space_group_name_H-M "C M C A"
_symmetry_group_IT_number 64
_symmetry_cell_setting 'orthorhombic'
loop_
_space_group_symop_operation_xyz
x,y,z
-x,1/2-y,1/2+z
x,-y,-z
-x,1/2+y,1/2-z
-x,-y,-z
x,1/2+y,1/2-z
-x,y,z
x,1/2-y,1/2+z
1/2+x,1/2+y,z
1/2-x,-y,1/2+z
1/2+x,1/2-y,-z
1/2-x,y,1/2-z
1/2-x,1/2-y,-z
1/2+x,y,1/2-z
1/2-x,1/2+y,z
1/2+x,-y,1/2+z
loop_
_atom_site_type_symbol
_atom_site_label
_atom_site_fract_x
_atom_site_fract_y
_atom_site_fract_z
Si Si1 0.313364 0.338424 0.433776
Si Si2 0.317994 0.449167 0.420857
Si Si3 0.813564 0.347155 0.901566
Si Si4 0.317176 0.949996 0.579025
Si Si5 0.187048 0.750854 0.328070
O O1 0.500000 0.336195 0.436442
O O2 0.261958 0.392364 0.396064
O O3 0.250597 0.334126 0.516842
O O4 0.245964 0.291778 0.386435
O O5 0.500000 0.457713 0.402995
O O6 0.220207 0.495240 0.381884
O O7 0.290762 0.449759 0.507469
O O8 0.736410 0.400754 0.874275
O O9 0.755395 0.304340 0.846438
O O10 0.000000 0.351752 0.898123
O O11 0.500000 0.946883 0.559152
O O12 0.250000 0.768236 0.250000
O O13 0.000000 0.749191 0.328266
#
# Coordination Sequence:
#
# PCOD8261463 Si02
#       5
#    16  16  16  16  16
#     4   8  17  32  53  77 103 132 169 210 253 300
#     4   9  15  27  46  71 101 134 167 205 250 301
#     4  10  19  34  54  77 101 133 171 212 256 301
#     4  10  17  26  43  73 106 134 162 203 253 304
#     4  11  22  37  53  74 102 135 170 210 254 304
#
# _framework density 19.57723
#
# number of rings (size 3 to 8) (size 9 to 14) (size 15 to 20)
#    0.000    2.400    0.000    6.600    0.000    0.000 
#    0.000   11.000    0.000    1.200    0.000    5.600 
#    0.000    0.000    0.000    0.000    0.000    0.000 
#
# Total GULP energy -495710.342102 kJ/mol
# GULP energy per Si atom -12392.758553 kJ/mol
# Density = 1.953267 g / cm^3
# Si number density = 19.577230 Si / 1000 Ang^3
#
#
#
# Elastic Constant Matrix: (Units=GPa)
#
#
# Indices 1 2 3 4 5 6 
#
# 1 67.0172 27.3411 10.0218 0.0000 0.0000 0.0000
# 2 27.3411 129.5758 12.2640 0.0000 0.0000 0.0000
# 3 10.0218 12.2640 37.8126 0.0000 0.0000 0.0000
# 4 0.0000 0.0000 0.0000 9.0956 0.0000 0.0000
# 5 0.0000 0.0000 0.0000 0.0000 16.5592 0.0000
# 6 0.0000 0.0000 0.0000 0.0000 0.0000 28.6951
#
#
#
# Elastic Compliance Matrix: (Units=1/GPa)
#
#
# Indices 1 2 3 4 5 6 
#
# 1 0.016739 -0.003211 -0.003395 0.000000 0.000000 0.000000
# 2 -0.003211 0.008578 -0.001931 0.000000 0.000000 0.000000
# 3 -0.003395 -0.001931 0.027972 0.000000 0.000000 0.000000
# 4 0.000000 0.000000 0.000000 0.109943 0.000000 0.000000
# 5 0.000000 0.000000 0.000000 0.000000 0.060389 0.000000
# 6 0.000000 0.000000 0.000000 0.000000 0.000000 0.034849
#
#
# Mechanical properties :
#
#
# Convention : Reuss Voigt Hill
#
# Bulk Modulus (GPa) = 27.61264 37.07326 32.34295
# Shear Modulus (GPa) = 17.38428 23.18858 20.28643
#
# Velocity S-wave (km/s) = 2.98314 3.44534 3.22254
# Velocity P-wave (km/s) = 5.09908 5.89959 5.51388
#
# Compressibility (1/GPa) = 0.03621529
#
# Stress axis : x y z
#
# Youngs Moduli (GPa) = 59.74029 116.58087 35.74956
#
# Poissons Ratio (x) = 0.37430 0.12138
# Poissons Ratio (y) = 0.19181 0.06904
# Poissons Ratio (z) = 0.20283 0.22513
#
# Static dielectric constant tensor:
#      x y z
#    x 3.335560 0.000000 0.000000 
#    y 0.000000 4.555120 0.000000 
#    z 0.000000 0.000000 3.032600 
# 
# 
# High freq. dielectric constant tensor:
#      x y z
#    x 1.755110 0.000000 0.000000 
#    y 0.000000 1.796400 0.000000 
#    z 0.000000 0.000000 1.691130 
# 
# From -- ./inp_files/29799.got.cif
#   From: 2010.03.12/outbox.cif.g09.slc.cpg/sg64_15_cif.got.tgz:29799.got - 2010.04.10 20:19:32.
