data_PCOD8261018
_publ_section_title
;
Structure prediction by ZEFSAII (Michael W. Deem and Ramdas Pophale) SiO2 
 PCOD8261018
Probable space group: C M C M
;
_chemical_formula_sum "Si O2"
_cell_formula_units_Z 96
_cell_length_a 15.277120
_cell_length_b 19.796126
_cell_length_c 15.883020
_cell_angle_alpha 90.000000
_cell_angle_beta 90.000000
_cell_angle_gamma 90.000000
_cell_volume 4803.466676
_symmetry_space_group_name_H-M "C M C M"
_symmetry_group_IT_number 63
_symmetry_cell_setting 'orthorhombic'
loop_
_space_group_symop_operation_xyz
x,y,z
-x,-y,1/2+z
x,-y,-z
-x,y,1/2-z
-x,-y,-z
x,y,1/2-z
-x,y,z
x,-y,1/2+z
1/2+x,1/2+y,z
1/2-x,1/2-y,1/2+z
1/2+x,1/2-y,-z
1/2-x,1/2+y,1/2-z
1/2-x,1/2-y,-z
1/2+x,1/2+y,1/2-z
1/2-x,1/2+y,z
1/2+x,1/2-y,1/2+z
loop_
_atom_site_type_symbol
_atom_site_label
_atom_site_fract_x
_atom_site_fract_y
_atom_site_fract_z
Si Si1 0.000000 0.885206 0.851101
Si Si2 0.298632 0.963679 0.580941
Si Si3 0.100025 0.717367 0.250000
Si Si4 0.701503 0.285972 0.387853
Si Si5 0.680753 0.331133 0.928099
Si Si6 0.000000 0.962588 0.348351
Si Si7 0.685342 0.571393 0.655620
Si Si8 0.104309 0.567775 0.250000
O O1 0.911067 0.851221 0.886245
O O2 0.000000 0.961616 0.886448
O O3 0.000000 0.878965 0.750000
O O4 0.254329 0.890454 0.564868
O O5 0.361364 0.965900 0.662999
O O6 0.347097 0.000000 0.500000
O O7 0.219170 0.014326 0.594668
O O8 0.120867 0.760318 0.332507
O O9 0.144428 0.643354 0.250000
O O10 0.000000 0.699915 0.250000
O O11 0.664618 0.298328 0.480836
O O12 0.778322 0.231124 0.375730
O O13 0.736068 0.357663 0.352112
O O14 0.000000 0.975018 0.250000
O O15 0.084586 0.919027 0.374513
O O16 0.692024 0.543215 0.750000
O O17 0.000000 0.561475 0.250000
#
# Coordination Sequence:
#
# PCOD8261018 Si02
#       8
#     8  16   8  16  16   8  16   8
#     4  11  24  39  67  94 134 181 227 266 324 394
#     4  12  23  42  70  98 129 169 218 276 336 395
#     4  11  24  39  66  96 126 170 219 273 330 386
#     4  11  24  41  63  92 133 175 217 266 330 396
#     4  11  25  42  62  98 134 176 220 269 327 405
#     4   9  20  33  55  99 134 162 210 265 325 383
#     4  11  21  35  60  95 132 171 214 267 327 391
#     4  11  26  47  72  96 122 168 227 279 330 394
#
# _framework density 19.985567
#
# number of rings (size 3 to 8) (size 9 to 14) (size 15 to 20)
#    0.000    1.000    6.667    0.000    4.667    0.333 
#    0.000    1.667    1.833    0.000    0.000    0.000 
#    0.000    0.000    0.000    0.000    0.000    0.000 
#
# Total GULP energy -594704.294344 kJ/mol
# GULP energy per Si atom -12389.672799 kJ/mol
# Density = 1.994008 g / cm^3
# Si number density = 19.985567 Si / 1000 Ang^3
#
#
#
# Elastic Constant Matrix: (Units=GPa)
#
#
# Indices 1 2 3 4 5 6 
#
# 1 80.7091 41.8699 42.4508 0.0000 0.0000 0.0000
# 2 41.8699 130.0193 35.4764 0.0000 0.0000 0.0000
# 3 42.4508 35.4764 114.0483 0.0000 0.0000 0.0000
# 4 0.0000 0.0000 0.0000 36.0196 0.0000 0.0000
# 5 0.0000 0.0000 0.0000 0.0000 20.3862 0.0000
# 6 0.0000 0.0000 0.0000 0.0000 0.0000 28.7349
#
#
#
# Elastic Compliance Matrix: (Units=1/GPa)
#
#
# Indices 1 2 3 4 5 6 
#
# 1 0.017241 -0.004154 -0.005125 0.000000 0.000000 0.000000
# 2 -0.004154 0.009405 -0.001380 0.000000 0.000000 0.000000
# 3 -0.005125 -0.001380 0.011105 0.000000 0.000000 0.000000
# 4 0.000000 0.000000 0.000000 0.027763 0.000000 0.000000
# 5 0.000000 0.000000 0.000000 0.000000 0.049053 0.000000
# 6 0.000000 0.000000 0.000000 0.000000 0.000000 0.034801
#
#
# Mechanical properties :
#
#
# Convention : Reuss Voigt Hill
#
# Bulk Modulus (GPa) = 60.84904 62.70789 61.77846
# Shear Modulus (GPa) = 28.38294 30.69344 29.53819
#
# Velocity S-wave (km/s) = 3.77261 3.92315 3.84862
# Velocity P-wave (km/s) = 7.03486 7.20876 7.12234
#
# Compressibility (1/GPa) = 0.01643411
#
# Stress axis : x y z
#
# Youngs Moduli (GPa) = 58.00234 106.32473 90.04890
#
# Poissons Ratio (x) = 0.44162 0.46153
# Poissons Ratio (y) = 0.24091 0.12423
# Poissons Ratio (z) = 0.29728 0.14668
#
# Static dielectric constant tensor:
#      x y z
#    x 3.436430 0.000000 0.000000 
#    y 0.000000 3.962820 0.000000 
#    z 0.000000 0.000000 3.826200 
# 
# 
# High freq. dielectric constant tensor:
#      x y z
#    x 1.750360 0.000000 0.000000 
#    y 0.000000 1.793540 0.000000 
#    z 0.000000 0.000000 1.793990 
# 
# From -- ./inp_files/32040.got.cif
#   From: 2010.03.12/outbox.cif.g09.slc.cpg/sg63_17_cif.got.tgz:32040.got - 2010.04.10 19:34:48.
