data_PCOD8261654
_publ_section_title
;
Structure prediction by ZEFSAII (Michael W. Deem and Ramdas Pophale) SiO2 
 PCOD8261654
Probable space group: C M C A
;
_chemical_formula_sum "Si O2"
_cell_formula_units_Z 128
_cell_length_a 18.798893
_cell_length_b 21.861854
_cell_length_c 18.935367
_cell_angle_alpha 90.000000
_cell_angle_beta 90.000000
_cell_angle_gamma 90.000000
_cell_volume 7782.031645
_symmetry_space_group_name_H-M "C M C A"
_symmetry_group_IT_number 64
_symmetry_cell_setting 'orthorhombic'
loop_
_space_group_symop_operation_xyz
x,y,z
-x,1/2-y,1/2+z
x,-y,-z
-x,1/2+y,1/2-z
-x,-y,-z
x,1/2+y,1/2-z
-x,y,z
x,1/2-y,1/2+z
1/2+x,1/2+y,z
1/2-x,-y,1/2+z
1/2+x,1/2-y,-z
1/2-x,y,1/2-z
1/2-x,1/2-y,-z
1/2+x,y,1/2-z
1/2-x,1/2+y,z
1/2+x,-y,1/2+z
loop_
_atom_site_type_symbol
_atom_site_label
_atom_site_fract_x
_atom_site_fract_y
_atom_site_fract_z
Si Si1 0.919864 0.541193 0.344524
Si Si2 0.315289 0.537158 0.936753
Si Si3 0.714500 0.098433 0.824057
Si Si4 0.318504 0.732837 0.713363
Si Si5 0.080902 0.680107 0.372312
Si Si6 0.079890 0.174005 0.821123
Si Si7 0.578771 0.944701 0.234095
Si Si8 0.918825 0.859302 0.026395
O O1 0.860054 0.510737 0.391740
O O2 0.905916 0.613296 0.339502
O O3 0.914156 0.512670 0.265876
O O4 0.000000 0.529356 0.374600
O O5 0.258494 0.574066 0.890260
O O6 0.368407 0.582526 0.976784
O O7 0.275765 0.500000 0.000000
O O8 0.750000 0.078589 0.750000
O O9 0.707360 0.171893 0.828052
O O10 0.636291 0.067249 0.827246
O O11 0.250000 0.765085 0.750000
O O12 0.359420 0.775717 0.659071
O O13 0.370356 0.718371 0.777817
O O14 0.092919 0.681102 0.456637
O O15 0.000000 0.702079 0.355115
O O16 0.092669 0.103284 0.798576
O O17 0.098420 0.180656 0.903889
O O18 0.000000 0.194802 0.805144
O O19 0.500000 0.934408 0.201674
O O20 0.000000 0.883118 0.030028
#
# Coordination Sequence:
#
# PCOD8261654 Si02
#       8
#    16  16  16  16  16  16  16  16
#     4  10  18  30  50  77 107 133 157 194 257 321
#     4  12  20  30  49  78 111 133 159 204 269 315
#     4  10  19  34  53  76 100 135 172 217 252 296
#     4  10  20  36  51  68  98 136 182 214 241 282
#     4  10  21  34  49  75 106 138 167 204 256 311
#     4   9  16  29  53  77  95 122 163 213 258 293
#     4   9  16  29  52  78  99 127 170 210 252 295
#     4  10  18  29  49  77 105 130 161 202 260 320
#
# _framework density 16.448146999999999
#
# number of rings (size 3 to 8) (size 9 to 14) (size 15 to 20)
#    0.000    2.000    3.750    2.250    0.000    1.000 
#    2.250    2.500    0.000    0.375    0.000    0.000 
#    0.000    0.000    0.000    0.000    0.000    0.000 
#
# Total GULP energy -793304.353026 kJ/mol
# GULP energy per Si atom -12395.380516 kJ/mol
# Density = 1.641071 g / cm^3
# Si number density = 16.448147 Si / 1000 Ang^3
#
#
#
# Elastic Constant Matrix: (Units=GPa)
#
#
# Indices 1 2 3 4 5 6 
#
# 1 107.4330 47.4268 56.9481 0.0000 0.0000 0.0000
# 2 47.4268 63.8196 46.5939 0.0000 0.0000 0.0000
# 3 56.9481 46.5939 81.1339 0.0000 0.0000 0.0000
# 4 0.0000 0.0000 0.0000 19.9091 0.0000 0.0000
# 5 0.0000 0.0000 0.0000 0.0000 23.7064 0.0000
# 6 0.0000 0.0000 0.0000 0.0000 0.0000 21.7487
#
#
#
# Elastic Compliance Matrix: (Units=1/GPa)
#
#
# Indices 1 2 3 4 5 6 
#
# 1 0.016230 -0.006447 -0.007690 0.000000 0.000000 0.000000
# 2 -0.006447 0.029543 -0.012441 0.000000 0.000000 0.000000
# 3 -0.007690 -0.012441 0.024867 0.000000 0.000000 0.000000
# 4 0.000000 0.000000 0.000000 0.050228 0.000000 0.000000
# 5 0.000000 0.000000 0.000000 0.000000 0.042183 0.000000
# 6 0.000000 0.000000 0.000000 0.000000 0.000000 0.045980
#
#
# Mechanical properties :
#
#
# Convention : Reuss Voigt Hill
#
# Bulk Modulus (GPa) = 57.19049 61.59157 59.39103
# Shear Modulus (GPa) = 18.65561 19.83402 19.24481
#
# Velocity S-wave (km/s) = 3.37145 3.47630 3.42428
# Velocity P-wave (km/s) = 7.07116 7.32394 7.19866
#
# Compressibility (1/GPa) = 0.01748542
#
# Stress axis : x y z
#
# Youngs Moduli (GPa) = 61.61255 33.84854 40.21365
#
# Poissons Ratio (x) = 0.21824 0.30922
# Poissons Ratio (y) = 0.39724 0.50029
# Poissons Ratio (z) = 0.47377 0.42110
#
# Static dielectric constant tensor:
#      x y z
#    x 3.298260 0.000000 0.000000 
#    y 0.000000 2.896660 0.000000 
#    z 0.000000 0.000000 2.995690 
# 
# 
# High freq. dielectric constant tensor:
#      x y z
#    x 1.640440 0.000000 0.000000 
#    y 0.000000 1.606970 0.000000 
#    z 0.000000 0.000000 1.611080 
# 
# From -- ./inp_files/41162.got.cif
#   From: 2010.03.12/outbox.cif.g09.slc.cpg/sg64_21_cif.got.tgz:41162.got - 2010.04.10 20:19:32.
