data_PCOD8261520
_publ_section_title
;
Structure prediction by ZEFSAII (Michael W. Deem and Ramdas Pophale) SiO2 
 PCOD8261520
Probable space group: C M C A
;
_chemical_formula_sum "Si O2"
_cell_formula_units_Z 96
_cell_length_a 18.096376
_cell_length_b 17.291169
_cell_length_c 18.983023
_cell_angle_alpha 90.000000
_cell_angle_beta 90.000000
_cell_angle_gamma 90.000000
_cell_volume 5939.930188
_symmetry_space_group_name_H-M "C M C A"
_symmetry_group_IT_number 64
_symmetry_cell_setting 'orthorhombic'
loop_
_space_group_symop_operation_xyz
x,y,z
-x,1/2-y,1/2+z
x,-y,-z
-x,1/2+y,1/2-z
-x,-y,-z
x,1/2+y,1/2-z
-x,y,z
x,1/2-y,1/2+z
1/2+x,1/2+y,z
1/2-x,-y,1/2+z
1/2+x,1/2-y,-z
1/2-x,y,1/2-z
1/2-x,1/2-y,-z
1/2+x,y,1/2-z
1/2-x,1/2+y,z
1/2+x,-y,1/2+z
loop_
_atom_site_type_symbol
_atom_site_label
_atom_site_fract_x
_atom_site_fract_y
_atom_site_fract_z
Si Si1 0.171450 0.436703 0.786235
Si Si2 0.586763 0.180386 0.133134
Si Si3 0.662387 0.920287 0.537867
Si Si4 0.913985 0.347576 0.416581
Si Si5 0.412933 0.995739 0.660566
Si Si6 0.171209 0.060556 0.441040
O O1 0.250000 0.422956 0.750000
O O2 0.131594 0.353203 0.799314
O O3 0.118677 0.490437 0.739325
O O4 0.179681 0.478853 0.862954
O O5 0.500000 0.170251 0.145663
O O6 0.609454 0.269316 0.122973
O O7 0.611698 0.130421 0.063965
O O8 0.626729 0.851523 0.492110
O O9 0.625846 0.927206 0.615171
O O10 0.749383 0.904187 0.539287
O O11 0.642106 0.000000 0.500000
O O12 0.891599 0.419160 0.366984
O O13 0.000000 0.347841 0.433729
O O14 0.500000 0.981890 0.659965
O O15 0.144211 0.000000 0.500000
#
# Coordination Sequence:
#
# PCOD8261520 Si02
#       6
#    16  16  16  16  16  16
#     4  10  19  34  52  72  98 131 167 208 245 297
#     4   9  19  34  51  70 101 134 163 203 248 289
#     4   9  16  29  50  75 101 124 161 205 246 289
#     4   9  18  31  50  76 103 129 160 200 251 299
#     4  10  17  29  52  76  96 126 164 204 249 297
#     4   9  19  33  52  72  95 130 169 203 238 289
#
# _framework density 16.161805999999999
#
# number of rings (size 3 to 8) (size 9 to 14) (size 15 to 20)
#    1.000    1.667    1.667    1.000    0.000    3.000 
#    0.000    0.833    3.667    0.000    0.000    0.000 
#    0.000    0.000    0.000    0.000    0.000    0.000 
#
# Total GULP energy -594790.129174 kJ/mol
# GULP energy per Si atom -12391.461024 kJ/mol
# Density = 1.612502 g / cm^3
# Si number density = 16.161806 Si / 1000 Ang^3
#
#
#
# Elastic Constant Matrix: (Units=GPa)
#
#
# Indices 1 2 3 4 5 6 
#
# 1 53.0422 34.3412 22.1792 0.0000 0.0000 0.0000
# 2 34.3412 75.8198 39.6787 0.0000 0.0000 0.0000
# 3 22.1792 39.6787 95.5402 0.0000 0.0000 0.0000
# 4 0.0000 0.0000 0.0000 21.7760 0.0000 0.0000
# 5 0.0000 0.0000 0.0000 0.0000 27.3105 0.0000
# 6 0.0000 0.0000 0.0000 0.0000 0.0000 19.2471
#
#
#
# Elastic Compliance Matrix: (Units=1/GPa)
#
#
# Indices 1 2 3 4 5 6 
#
# 1 0.026845 -0.011368 -0.001511 0.000000 0.000000 0.000000
# 2 -0.011368 0.021666 -0.006359 0.000000 0.000000 0.000000
# 3 -0.001511 -0.006359 0.013458 0.000000 0.000000 0.000000
# 4 0.000000 0.000000 0.000000 0.045922 0.000000 0.000000
# 5 0.000000 0.000000 0.000000 0.000000 0.036616 0.000000
# 6 0.000000 0.000000 0.000000 0.000000 0.000000 0.051956
#
#
# Mechanical properties :
#
#
# Convention : Reuss Voigt Hill
#
# Bulk Modulus (GPa) = 42.56491 46.31115 44.43803
# Shear Modulus (GPa) = 20.59560 22.21358 21.40459
#
# Velocity S-wave (km/s) = 3.57366 3.71138 3.64317
# Velocity P-wave (km/s) = 6.58953 6.86168 6.72698
#
# Compressibility (1/GPa) = 0.02349353
#
# Stress axis : x y z
#
# Youngs Moduli (GPa) = 37.25122 46.15505 74.30298
#
# Poissons Ratio (x) = 0.52471 0.11223
# Poissons Ratio (y) = 0.42348 0.47249
# Poissons Ratio (z) = 0.05627 0.29350
#
# Static dielectric constant tensor:
#      x y z
#    x 3.032490 0.000000 0.000000 
#    y 0.000000 2.833950 0.000000 
#    z 0.000000 0.000000 3.106770 
# 
# 
# High freq. dielectric constant tensor:
#      x y z
#    x 1.631730 0.000000 0.000000 
#    y 0.000000 1.587850 0.000000 
#    z 0.000000 0.000000 1.617570 
# 
# From -- ./inp_files/40326.got.cif
#   From: 2010.03.12/outbox.cif.g09.slc.cpg/sg64_21_cif.got.tgz:40326.got - 2010.04.10 20:19:32.
