data_PCOD8261642
_publ_section_title
;
Structure prediction by ZEFSAII (Michael W. Deem and Ramdas Pophale) SiO2 
 PCOD8261642
Probable space group: C M C A
;
_chemical_formula_sum "Si O2"
_cell_formula_units_Z 96
_cell_length_a 8.628862
_cell_length_b 23.899644
_cell_length_c 25.967970
_cell_angle_alpha 90.000000
_cell_angle_beta 90.000000
_cell_angle_gamma 90.000000
_cell_volume 5355.289536
_symmetry_space_group_name_H-M "C M C A"
_symmetry_group_IT_number 64
_symmetry_cell_setting 'orthorhombic'
loop_
_space_group_symop_operation_xyz
x,y,z
-x,1/2-y,1/2+z
x,-y,-z
-x,1/2+y,1/2-z
-x,-y,-z
x,1/2+y,1/2-z
-x,y,z
x,1/2-y,1/2+z
1/2+x,1/2+y,z
1/2-x,-y,1/2+z
1/2+x,1/2-y,-z
1/2-x,y,1/2-z
1/2-x,1/2-y,-z
1/2+x,y,1/2-z
1/2-x,1/2+y,z
1/2+x,-y,1/2+z
loop_
_atom_site_type_symbol
_atom_site_label
_atom_site_fract_x
_atom_site_fract_y
_atom_site_fract_z
Si Si1 0.817840 0.746206 0.113928
Si Si2 0.181438 0.483432 0.555764
Si Si3 0.177088 0.830014 0.457921
Si Si4 0.674533 0.133118 0.071251
Si Si5 0.180272 0.412863 0.383215
Si Si6 0.182211 0.170294 0.693610
O O1 0.730341 0.770108 0.063678
O O2 0.785960 0.678968 0.115607
O O3 0.754991 0.775754 0.165305
O O4 0.000000 0.758196 0.108648
O O5 0.257279 0.500000 0.500000
O O6 0.215787 0.420447 0.573421
O O7 0.239300 0.524872 0.601381
O O8 0.000000 0.491800 0.550415
O O9 0.194369 0.832079 0.518847
O O10 0.291219 0.876141 0.434029
O O11 0.000000 0.841498 0.440463
O O12 0.500000 0.110506 0.077123
O O13 0.277007 0.387512 0.335746
O O14 0.000000 0.411680 0.368080
O O15 0.250000 0.166625 0.750000
O O16 0.000000 0.178175 0.696160
#
# Coordination Sequence:
#
# PCOD8261642 Si02
#       6
#    16  16  16  16  16  16
#     4  10  20  34  50  74 105 137 173 216 263 312
#     4  10  20  33  50  74 106 147 186 217 255 304
#     4  10  18  29  46  72 103 140 179 215 254 302
#     4  10  21  32  47  72 106 145 181 214 255 304
#     4  10  19  33  52  77 107 139 177 220 261 305
#     4  11  22  38  60  83 103 130 168 216 273 321
#
# _framework density 17.926202
#
# number of rings (size 3 to 8) (size 9 to 14) (size 15 to 20)
#    0.000    1.833    1.667    5.500    0.000    3.667 
#    0.000    0.000    0.000    1.000    0.000    7.000 
#    0.000    0.000    0.000    0.000    0.000    0.000 
#
# Total GULP energy -594991.578069 kJ/mol
# GULP energy per Si atom -12395.657876 kJ/mol
# Density = 1.788540 g / cm^3
# Si number density = 17.926202 Si / 1000 Ang^3
#
#
#
# Elastic Constant Matrix: (Units=GPa)
#
#
# Indices 1 2 3 4 5 6 
#
# 1 49.0082 22.9967 27.1237 0.0000 0.0000 0.0000
# 2 22.9967 122.6504 51.7929 0.0000 0.0000 0.0000
# 3 27.1237 51.7929 89.0926 0.0000 0.0000 0.0000
# 4 0.0000 0.0000 0.0000 14.9053 0.0000 0.0000
# 5 0.0000 0.0000 0.0000 0.0000 24.1207 0.0000
# 6 0.0000 0.0000 0.0000 0.0000 0.0000 27.8042
#
#
#
# Elastic Compliance Matrix: (Units=1/GPa)
#
#
# Indices 1 2 3 4 5 6 
#
# 1 0.024884 -0.001944 -0.006446 0.000000 0.000000 0.000000
# 2 -0.001944 0.010958 -0.005778 0.000000 0.000000 0.000000
# 3 -0.006446 -0.005778 0.016546 0.000000 0.000000 0.000000
# 4 0.000000 0.000000 0.000000 0.067090 0.000000 0.000000
# 5 0.000000 0.000000 0.000000 0.000000 0.041458 0.000000
# 6 0.000000 0.000000 0.000000 0.000000 0.000000 0.035966
#
#
# Mechanical properties :
#
#
# Convention : Reuss Voigt Hill
#
# Bulk Modulus (GPa) = 41.57679 51.61976 46.59828
# Shear Modulus (GPa) = 21.43570 23.95523 22.69546
#
# Velocity S-wave (km/s) = 3.46175 3.65954 3.56202
# Velocity P-wave (km/s) = 6.26274 6.83481 6.55502
#
# Compressibility (1/GPa) = 0.02405188
#
# Stress axis : x y z
#
# Youngs Moduli (GPa) = 40.18590 91.25888 60.43794
#
# Poissons Ratio (x) = 0.17739 0.38958
# Poissons Ratio (y) = 0.07811 0.34924
# Poissons Ratio (z) = 0.25903 0.52733
#
# Static dielectric constant tensor:
#      x y z
#    x 3.356010 0.000000 0.000000 
#    y 0.000000 3.345550 0.000000 
#    z 0.000000 0.000000 3.106200 
# 
# 
# High freq. dielectric constant tensor:
#      x y z
#    x 1.700570 0.000000 0.000000 
#    y 0.000000 1.693630 0.000000 
#    z 0.000000 0.000000 1.660590 
# 
# From -- ./inp_files/48376.got.cif
#   From: 2010.03.12/outbox.cif.g09.slc.cpg/sg64_25_cif.got.tgz:48376.got - 2010.04.10 20:19:32.
