data_PCOD8261100
_publ_section_title
;
Structure prediction by ZEFSAII (Michael W. Deem and Ramdas Pophale) SiO2 
 PCOD8261100
Probable space group: C M C M
;
_chemical_formula_sum "Si O2"
_cell_formula_units_Z 96
_cell_length_a 11.815367
_cell_length_b 14.785851
_cell_length_c 27.739334
_cell_angle_alpha 90.000000
_cell_angle_beta 90.000000
_cell_angle_gamma 90.000000
_cell_volume 4846.068750
_symmetry_space_group_name_H-M "C M C M"
_symmetry_group_IT_number 63
_symmetry_cell_setting 'orthorhombic'
loop_
_space_group_symop_operation_xyz
x,y,z
-x,-y,1/2+z
x,-y,-z
-x,y,1/2-z
-x,-y,-z
x,y,1/2-z
-x,y,z
x,-y,1/2+z
1/2+x,1/2+y,z
1/2-x,1/2-y,1/2+z
1/2+x,1/2-y,-z
1/2-x,1/2+y,1/2-z
1/2-x,1/2-y,-z
1/2+x,1/2+y,1/2-z
1/2-x,1/2+y,z
1/2+x,1/2-y,1/2+z
loop_
_atom_site_type_symbol
_atom_site_label
_atom_site_fract_x
_atom_site_fract_y
_atom_site_fract_z
Si Si1 0.000000 0.350593 0.803322
Si Si2 0.270732 0.421697 0.350322
Si Si3 0.874332 0.382811 0.953587
Si Si4 0.871387 0.719656 0.694849
Si Si5 0.271382 0.872311 0.642746
Si Si6 0.000000 0.861106 0.195336
Si Si7 0.127369 0.404095 0.440729
O O1 0.108617 0.383747 0.831834
O O2 0.000000 0.394754 0.750000
O O3 0.000000 0.244388 0.797427
O O4 0.184701 0.379667 0.310818
O O5 0.283902 0.529400 0.350792
O O6 0.394185 0.386564 0.337564
O O7 0.222381 0.380933 0.400841
O O8 0.788628 0.343775 0.913373
O O9 0.880353 0.489316 0.946050
O O10 0.000000 0.341738 0.945874
O O11 0.833274 0.360477 0.008101
O O12 0.863308 0.749340 0.750000
O O13 0.806938 0.796061 0.664951
O O14 0.000000 0.715086 0.676882
O O15 0.000000 0.904916 0.250000
O O16 0.000000 0.369052 0.426821
#
# Coordination Sequence:
#
# PCOD8261100 Si02
#       7
#     8  16  16  16  16   8  16
#     4  11  22  38  60  86 115 153 201 253 290 332
#     4  11  23  39  63  87 116 153 201 243 291 349
#     4   8  14  29  56  89 117 148 188 237 291 346
#     4  11  25  42  58  82 120 159 195 243 300 352
#     4  11  22  38  63  89 119 153 199 243 290 350
#     4  11  24  42  60  80 117 163 199 243 302 350
#     4   8  15  30  57  88 118 148 187 238 294 347
#
# _framework density 19.809871999999999
#
# number of rings (size 3 to 8) (size 9 to 14) (size 15 to 20)
#    0.000    2.000    2.500    2.500    3.500    2.667 
#    0.000    0.833    1.833    2.000    0.000    0.000 
#    0.000    0.000    0.000    0.000    0.000    0.000 
#
# Total GULP energy -594826.651925 kJ/mol
# GULP energy per Si atom -12392.221915 kJ/mol
# Density = 1.976478 g / cm^3
# Si number density = 19.809872 Si / 1000 Ang^3
#
#
#
# Elastic Constant Matrix: (Units=GPa)
#
#
# Indices 1 2 3 4 5 6 
#
# 1 119.9793 5.8754 62.3354 0.0000 0.0000 0.0000
# 2 5.8754 39.7859 14.1516 0.0000 0.0000 0.0000
# 3 62.3354 14.1516 134.7557 0.0000 0.0000 0.0000
# 4 0.0000 0.0000 0.0000 22.1336 0.0000 0.0000
# 5 0.0000 0.0000 0.0000 0.0000 37.4621 0.0000
# 6 0.0000 0.0000 0.0000 0.0000 0.0000 31.4197
#
#
#
# Elastic Compliance Matrix: (Units=1/GPa)
#
#
# Indices 1 2 3 4 5 6 
#
# 1 0.010973 0.000192 -0.005096 0.000000 0.000000 0.000000
# 2 0.000192 0.026113 -0.002831 0.000000 0.000000 0.000000
# 3 -0.005096 -0.002831 0.010076 0.000000 0.000000 0.000000
# 4 0.000000 0.000000 0.000000 0.045180 0.000000 0.000000
# 5 0.000000 0.000000 0.000000 0.000000 0.026694 0.000000
# 6 0.000000 0.000000 0.000000 0.000000 0.000000 0.031827
#
#
# Mechanical properties :
#
#
# Convention : Reuss Voigt Hill
#
# Bulk Modulus (GPa) = 31.55420 51.02731 41.29076
# Shear Modulus (GPa) = 28.26504 32.34697 30.30600
#
# Velocity S-wave (km/s) = 3.78142 4.04526 3.91556
# Velocity P-wave (km/s) = 5.91850 6.90169 6.42892
#
# Compressibility (1/GPa) = 0.03169151
#
# Stress axis : x y z
#
# Youngs Moduli (GPa) = 91.13240 38.29481 99.25043
#
# Poissons Ratio (x) = -0.00736 0.50579
# Poissons Ratio (y) = -0.01752 0.28100
# Poissons Ratio (z) = 0.46442 0.10842
#
# Static dielectric constant tensor:
#      x y z
#    x 3.761400 0.000000 0.000000 
#    y 0.000000 3.330400 0.000000 
#    z 0.000000 0.000000 4.254090 
# 
# 
# High freq. dielectric constant tensor:
#      x y z
#    x 1.763680 0.000000 0.000000 
#    y 0.000000 1.746840 0.000000 
#    z 0.000000 0.000000 1.789830 
# 
# From -- ./inp_files/72808.got.cif
#   From: 2010.03.12/outbox.cif.g09.slc.cpg/sg63_37_cif.got.tgz:72808.got - 2010.04.10 19:34:48.
