data_PCOD8261657
_publ_section_title
;
Structure prediction by ZEFSAII (Michael W. Deem and Ramdas Pophale) SiO2 
 PCOD8261657
Probable space group: C M C A
;
_chemical_formula_sum "Si O2"
_cell_formula_units_Z 96
_cell_length_a 18.713356
_cell_length_b 14.908581
_cell_length_c 18.483263
_cell_angle_alpha 90.000000
_cell_angle_beta 90.000000
_cell_angle_gamma 90.000000
_cell_volume 5156.637850
_symmetry_space_group_name_H-M "C M C A"
_symmetry_group_IT_number 64
_symmetry_cell_setting 'orthorhombic'
loop_
_space_group_symop_operation_xyz
x,y,z
-x,1/2-y,1/2+z
x,-y,-z
-x,1/2+y,1/2-z
-x,-y,-z
x,1/2+y,1/2-z
-x,y,z
x,1/2-y,1/2+z
1/2+x,1/2+y,z
1/2-x,-y,1/2+z
1/2+x,1/2-y,-z
1/2-x,y,1/2-z
1/2-x,1/2-y,-z
1/2+x,y,1/2-z
1/2-x,1/2+y,z
1/2+x,-y,1/2+z
loop_
_atom_site_type_symbol
_atom_site_label
_atom_site_fract_x
_atom_site_fract_y
_atom_site_fract_z
Si Si1 0.776954 0.352300 0.668978
Si Si2 0.239762 0.037855 0.638631
Si Si3 0.631515 0.566141 0.752542
Si Si4 0.581275 0.228629 0.656388
Si Si5 0.781698 0.207001 0.928179
Si Si6 0.921250 0.123170 0.231565
O O1 0.750000 0.368815 0.750000
O O2 0.742073 0.431414 0.618530
O O3 0.753613 0.255552 0.640896
O O4 0.863428 0.354051 0.669411
O O5 0.302735 0.046490 0.695879
O O6 0.164061 0.071700 0.671345
O O7 0.258175 0.102528 0.570986
O O8 0.592637 0.655925 0.779379
O O9 0.576990 0.482985 0.753046
O O10 0.500000 0.222029 0.627709
O O11 0.632638 0.215192 0.585919
O O12 0.597137 0.324670 0.693520
O O13 0.750000 0.250000 0.000000
O O14 0.000000 0.152410 0.204042
#
# Coordination Sequence:
#
# PCOD8261657 Si02
#       6
#    16  16  16  16  16  16
#     4  11  18  34  56  79 104 135 175 224 262 300
#     4   9  17  30  53  77 104 131 174 215 256 296
#     4   9  15  28  49  79 102 130 161 214 260 302
#     4  10  19  31  50  74 105 137 169 211 262 312
#     4  11  23  35  52  78 106 145 180 211 255 316
#     4  10  18  29  50  81 107 129 165 218 273 309
#
# _framework density 18.616781
#
# number of rings (size 3 to 8) (size 9 to 14) (size 15 to 20)
#    0.000    2.000    5.000    1.500    2.333    0.667 
#    0.000    0.833    0.000    2.000    0.000   10.500 
#    0.000    0.000    0.000    0.000    0.000    0.000 
#
# Total GULP energy -594735.953845 kJ/mol
# GULP energy per Si atom -12390.332372 kJ/mol
# Density = 1.857441 g / cm^3
# Si number density = 18.616781 Si / 1000 Ang^3
#
#
#
# Elastic Constant Matrix: (Units=GPa)
#
#
# Indices 1 2 3 4 5 6 
#
# 1 101.1342 18.0166 20.3951 0.0000 0.0000 0.0000
# 2 18.0166 82.2369 8.5869 0.0000 0.0000 0.0000
# 3 20.3951 8.5869 27.4294 0.0000 0.0000 0.0000
# 4 0.0000 0.0000 0.0000 17.5036 0.0000 0.0000
# 5 0.0000 0.0000 0.0000 0.0000 17.3738 0.0000
# 6 0.0000 0.0000 0.0000 0.0000 0.0000 23.6851
#
#
#
# Elastic Compliance Matrix: (Units=1/GPa)
#
#
# Indices 1 2 3 4 5 6 
#
# 1 0.011867 -0.001735 -0.008280 0.000000 0.000000 0.000000
# 2 -0.001735 0.012825 -0.002725 0.000000 0.000000 0.000000
# 3 -0.008280 -0.002725 0.043467 0.000000 0.000000 0.000000
# 4 0.000000 0.000000 0.000000 0.057131 0.000000 0.000000
# 5 0.000000 0.000000 0.000000 0.000000 0.057558 0.000000
# 6 0.000000 0.000000 0.000000 0.000000 0.000000 0.042221
#
#
# Mechanical properties :
#
#
# Convention : Reuss Voigt Hill
#
# Bulk Modulus (GPa) = 23.43118 33.86640 28.64879
# Shear Modulus (GPa) = 18.88400 22.63263 20.75832
#
# Velocity S-wave (km/s) = 3.18835 3.49049 3.34283
# Velocity P-wave (km/s) = 5.11541 5.87158 5.50649
#
# Compressibility (1/GPa) = 0.04267818
#
# Stress axis : x y z
#
# Youngs Moduli (GPa) = 84.26855 77.97488 23.00595
#
# Poissons Ratio (x) = 0.13530 0.19050
# Poissons Ratio (y) = 0.14622 0.06268
# Poissons Ratio (z) = 0.69777 0.21245
#
# Static dielectric constant tensor:
#      x y z
#    x 3.581680 0.000000 0.000000 
#    y 0.000000 4.121970 0.000000 
#    z 0.000000 0.000000 2.863040 
# 
# 
# High freq. dielectric constant tensor:
#      x y z
#    x 1.724930 0.000000 0.000000 
#    y 0.000000 1.746320 0.000000 
#    z 0.000000 0.000000 1.650910 
# 
# From -- ./inp_files/40958.got.cif
#   From: 2010.03.12/outbox.cif.g09.slc.cpg/sg64_21_cif.got.tgz:40958.got - 2010.04.10 20:19:32.
