data_PCOD8261876
_publ_section_title
;
Structure prediction by ZEFSAII (Michael W. Deem and Ramdas Pophale) SiO2 
 PCOD8261876
Probable space group: C M C A
;
_chemical_formula_sum "Si O2"
_cell_formula_units_Z 104
_cell_length_a 22.438476
_cell_length_b 24.864158
_cell_length_c 9.100851
_cell_angle_alpha 90.000000
_cell_angle_beta 90.000000
_cell_angle_gamma 90.000000
_cell_volume 5077.490479
_symmetry_space_group_name_H-M "C M C A"
_symmetry_group_IT_number 64
_symmetry_cell_setting 'orthorhombic'
loop_
_space_group_symop_operation_xyz
x,y,z
-x,1/2-y,1/2+z
x,-y,-z
-x,1/2+y,1/2-z
-x,-y,-z
x,1/2+y,1/2-z
-x,y,z
x,1/2-y,1/2+z
1/2+x,1/2+y,z
1/2-x,-y,1/2+z
1/2+x,1/2-y,-z
1/2-x,y,1/2-z
1/2-x,1/2-y,-z
1/2+x,y,1/2-z
1/2-x,1/2+y,z
1/2+x,-y,1/2+z
loop_
_atom_site_type_symbol
_atom_site_label
_atom_site_fract_x
_atom_site_fract_y
_atom_site_fract_z
Si Si1 0.000000 0.874258 0.678106
Si Si2 0.869868 0.203611 0.098502
Si Si3 0.683693 0.206555 0.714525
Si Si4 0.690224 0.504278 0.668525
Si Si5 0.000000 0.276398 0.630659
Si Si6 0.500000 0.649770 0.654434
Si Si7 0.374521 0.889307 0.146889
Si Si8 0.627428 0.104732 0.198752
O O1 0.000000 0.875325 0.505537
O O2 0.942067 0.905521 0.738585
O O3 0.000000 0.810599 0.718134
O O4 0.862908 0.255033 0.203380
O O5 0.849798 0.151798 0.193781
O O6 0.939544 0.205017 0.045493
O O7 0.826928 0.207756 0.959546
O O8 0.750000 0.226778 0.750000
O O9 0.675606 0.146387 0.774603
O O10 0.708122 0.500000 0.500000
O O11 0.750000 0.521580 0.750000
O O12 0.638774 0.548891 0.686547
O O13 0.665413 0.448295 0.732714
O O14 0.000000 0.213743 0.666812
O O15 0.561526 0.626039 0.720724
O O16 0.369192 0.877744 0.972196
#
# Coordination Sequence:
#
# PCOD8261876 Si02
#       8
#     8  16  16  16   8   8  16  16
#     4   8  18  33  56  86 120 151 188 243 298 358
#     4  11  24  38  61  89 119 159 200 248 302 358
#     4  12  25  40  57  84 123 161 200 247 296 360
#     4  10  22  39  62  85 116 157 203 246 292 352
#     4  10  20  34  60  88 119 155 198 245 301 359
#     4  10  18  33  60  84 120 153 191 249 303 355
#     4  10  21  38  59  89 117 154 200 248 301 357
#     4   9  20  39  60  87 117 153 195 246 298 352
#
# _framework density 20.482558999999998
#
# number of rings (size 3 to 8) (size 9 to 14) (size 15 to 20)
#    0.000    1.846    1.538    1.846    4.308    5.538 
#    0.000    3.077    0.000    0.000    0.000    5.385 
#    0.000    0.000    0.000    0.000    0.000    0.000 
#
# Total GULP energy -644667.843893 kJ/mol
# GULP energy per Si atom -12397.458536 kJ/mol
# Density = 2.043594 g / cm^3
# Si number density = 20.482559 Si / 1000 Ang^3
#
#
#
# Elastic Constant Matrix: (Units=GPa)
#
#
# Indices 1 2 3 4 5 6 
#
# 1 115.5773 42.3990 35.2276 0.0000 0.0000 0.0000
# 2 42.3990 112.9239 46.5443 0.0000 0.0000 0.0000
# 3 35.2276 46.5443 79.5197 0.0000 0.0000 0.0000
# 4 0.0000 0.0000 0.0000 29.6032 0.0000 0.0000
# 5 0.0000 0.0000 0.0000 0.0000 26.8137 0.0000
# 6 0.0000 0.0000 0.0000 0.0000 0.0000 30.2300
#
#
#
# Elastic Compliance Matrix: (Units=1/GPa)
#
#
# Indices 1 2 3 4 5 6 
#
# 1 0.010589 -0.002692 -0.003116 0.000000 0.000000 0.000000
# 2 -0.002692 0.012355 -0.006039 0.000000 0.000000 0.000000
# 3 -0.003116 -0.006039 0.017491 0.000000 0.000000 0.000000
# 4 0.000000 0.000000 0.000000 0.033780 0.000000 0.000000
# 5 0.000000 0.000000 0.000000 0.000000 0.037294 0.000000
# 6 0.000000 0.000000 0.000000 0.000000 0.000000 0.033080
#
#
# Mechanical properties :
#
#
# Convention : Reuss Voigt Hill
#
# Bulk Modulus (GPa) = 59.73015 61.81808 60.77411
# Shear Modulus (GPa) = 28.75812 29.58603 29.17207
#
# Velocity S-wave (km/s) = 3.75110 3.80471 3.77800
# Velocity P-wave (km/s) = 6.92718 7.03900 6.98331
#
# Compressibility (1/GPa) = 0.01674196
#
# Stress axis : x y z
#
# Youngs Moduli (GPa) = 94.43499 80.93579 57.17322
#
# Poissons Ratio (x) = 0.21786 0.17813
# Poissons Ratio (y) = 0.25420 0.34529
# Poissons Ratio (z) = 0.29422 0.48881
#
# Static dielectric constant tensor:
#      x y z
#    x 3.933640 0.000000 0.000000 
#    y 0.000000 3.610700 0.000000 
#    z 0.000000 0.000000 3.489700 
# 
# 
# High freq. dielectric constant tensor:
#      x y z
#    x 1.812820 0.000000 0.000000 
#    y 0.000000 1.794120 0.000000 
#    z 0.000000 0.000000 1.780980 
# 
# From -- ./inp_files/8583.got.cif
#   From: 2010.03.12/outbox.cif.g09.slc.cpg/sg64_5_cif.got.tgz:8583.got - 2010.04.10 20:19:32.
