data_PCOD8261598
_publ_section_title
;
Structure prediction by ZEFSAII (Michael W. Deem and Ramdas Pophale) SiO2 
 PCOD8261598
Probable space group: C M C A
;
_chemical_formula_sum "Si O2"
_cell_formula_units_Z 88
_cell_length_a 25.439084
_cell_length_b 17.487766
_cell_length_c 8.560459
_cell_angle_alpha 90.000000
_cell_angle_beta 90.000000
_cell_angle_gamma 90.000000
_cell_volume 3808.314922
_symmetry_space_group_name_H-M "C M C A"
_symmetry_group_IT_number 64
_symmetry_cell_setting 'orthorhombic'
loop_
_space_group_symop_operation_xyz
x,y,z
-x,1/2-y,1/2+z
x,-y,-z
-x,1/2+y,1/2-z
-x,-y,-z
x,1/2+y,1/2-z
-x,y,z
x,1/2-y,1/2+z
1/2+x,1/2+y,z
1/2-x,-y,1/2+z
1/2+x,1/2-y,-z
1/2-x,y,1/2-z
1/2-x,1/2-y,-z
1/2+x,y,1/2-z
1/2-x,1/2+y,z
1/2+x,-y,1/2+z
loop_
_atom_site_type_symbol
_atom_site_label
_atom_site_fract_x
_atom_site_fract_y
_atom_site_fract_z
Si Si1 0.500000 0.855599 0.947893
Si Si2 0.607960 0.418641 0.676402
Si Si3 0.750000 0.262425 0.250000
Si Si4 0.099592 0.820961 0.964354
Si Si5 0.500000 0.250576 0.307883
Si Si6 0.820499 0.185561 0.495158
Si Si7 0.059835 0.548556 0.658250
O O1 0.448986 0.898552 0.891845
O O2 0.500000 0.767001 0.877715
O O3 0.500000 0.840080 0.136595
O O4 0.652026 0.396194 0.546816
O O5 0.599807 0.508854 0.715703
O O6 0.626625 0.376005 0.835433
O O7 0.775076 0.204617 0.373181
O O8 0.706376 0.316971 0.333352
O O9 0.136622 0.752669 0.018686
O O10 0.082080 0.866646 0.121285
O O11 0.050435 0.790431 0.873451
O O12 0.060109 0.500000 0.500000
O O13 0.000000 0.551170 0.722557
#
# Coordination Sequence:
#
# PCOD8261598 Si02
#       7
#     8  16   8  16   8  16  16
#     4  10  18  27  45  81 119 147 192 238 290 362
#     4  10  18  30  52  83 117 158 195 240 307 374
#     4  10  24  38  56  82 110 140 206 282 320 358
#     4  10  18  30  52  83 118 157 196 238 304 371
#     4  10  18  27  45  81 119 151 190 238 280 366
#     4  11  20  37  58  84 112 150 205 265 323 369
#     4   9  16  28  48  82 126 159 192 237 290 372
#
# _framework density 23.107333000000001
#
# number of rings (size 3 to 8) (size 9 to 14) (size 15 to 20)
#    0.000    2.000    5.455    0.000    0.000    0.000 
#    0.000    0.000    0.000    2.182    0.000    2.545 
#    0.000    0.000    0.000    0.000    0.000    0.091 
#
# Total GULP energy -545118.776685 kJ/mol
# GULP energy per Si atom -12389.063106 kJ/mol
# Density = 2.305474 g / cm^3
# Si number density = 23.107333 Si / 1000 Ang^3
#
#
#
# Elastic Constant Matrix: (Units=GPa)
#
#
# Indices 1 2 3 4 5 6 
#
# 1 94.9677 27.6803 27.3364 0.0000 0.0000 0.0000
# 2 27.6803 62.0469 17.3590 0.0000 0.0000 0.0000
# 3 27.3364 17.3590 62.6807 0.0000 0.0000 0.0000
# 4 0.0000 0.0000 0.0000 37.0858 0.0000 0.0000
# 5 0.0000 0.0000 0.0000 0.0000 34.4098 0.0000
# 6 0.0000 0.0000 0.0000 0.0000 0.0000 32.7228
#
#
#
# Elastic Compliance Matrix: (Units=1/GPa)
#
#
# Indices 1 2 3 4 5 6 
#
# 1 0.013161 -0.004624 -0.004459 0.000000 0.000000 0.000000
# 2 -0.004624 0.019095 -0.003272 0.000000 0.000000 0.000000
# 3 -0.004459 -0.003272 0.018805 0.000000 0.000000 0.000000
# 4 0.000000 0.000000 0.000000 0.026964 0.000000 0.000000
# 5 0.000000 0.000000 0.000000 0.000000 0.029061 0.000000
# 6 0.000000 0.000000 0.000000 0.000000 0.000000 0.030560
#
#
# Mechanical properties :
#
#
# Convention : Reuss Voigt Hill
#
# Bulk Modulus (GPa) = 37.94894 40.49409 39.22151
# Shear Modulus (GPa) = 29.21580 30.66497 29.94039
#
# Velocity S-wave (km/s) = 3.55963 3.64684 3.60350
# Velocity P-wave (km/s) = 5.77522 5.94096 5.85868
#
# Compressibility (1/GPa) = 0.02635120
#
# Stress axis : x y z
#
# Youngs Moduli (GPa) = 75.98064 52.36977 53.17799
#
# Poissons Ratio (x) = 0.24215 0.23714
# Poissons Ratio (y) = 0.35133 0.17398
# Poissons Ratio (z) = 0.33882 0.17134
#
# Static dielectric constant tensor:
#      x y z
#    x 4.073570 0.000000 0.000000 
#    y 0.000000 4.128580 0.000000 
#    z 0.000000 0.000000 4.892970 
# 
# 
# High freq. dielectric constant tensor:
#      x y z
#    x 1.889810 0.000000 0.000000 
#    y 0.000000 1.888560 0.000000 
#    z 0.000000 0.000000 1.930200 
# 
# From -- ./inp_files/9394.got.cif
#   From: 2010.03.12/outbox.cif.g09.slc.cpg/sg64_5_cif.got.tgz:9394.got - 2010.04.10 20:19:32.
