data_PCOD8261011
_publ_section_title
;
Structure prediction by ZEFSAII (Michael W. Deem and Ramdas Pophale) SiO2 
 PCOD8261011
Probable space group: C M C M
;
_chemical_formula_sum "Si O2"
_cell_formula_units_Z 96
_cell_length_a 29.994518
_cell_length_b 19.433707
_cell_length_c 9.238928
_cell_angle_alpha 90.000000
_cell_angle_beta 90.000000
_cell_angle_gamma 90.000000
_cell_volume 5385.414318
_symmetry_space_group_name_H-M "C M C M"
_symmetry_group_IT_number 63
_symmetry_cell_setting 'orthorhombic'
loop_
_space_group_symop_operation_xyz
x,y,z
-x,-y,1/2+z
x,-y,-z
-x,y,1/2-z
-x,-y,-z
x,y,1/2-z
-x,y,z
x,-y,1/2+z
1/2+x,1/2+y,z
1/2-x,1/2-y,1/2+z
1/2+x,1/2-y,-z
1/2-x,1/2+y,1/2-z
1/2-x,1/2-y,-z
1/2+x,1/2+y,1/2-z
1/2-x,1/2+y,z
1/2+x,1/2-y,1/2+z
loop_
_atom_site_type_symbol
_atom_site_label
_atom_site_fract_x
_atom_site_fract_y
_atom_site_fract_z
Si Si1 0.948230 0.284491 0.080777
Si Si2 0.338111 0.565567 0.917467
Si Si3 0.947222 0.562255 0.908740
Si Si4 0.763411 0.434534 0.416842
Si Si5 0.291653 0.215727 0.578841
Si Si6 0.127533 0.213308 0.579216
O O1 0.935937 0.275504 0.250000
O O2 0.936364 0.362195 0.028239
O O3 0.000000 0.268388 0.055943
O O4 0.921169 0.232721 0.979096
O O5 0.340218 0.547811 0.750000
O O6 0.287365 0.579274 0.968167
O O7 0.366600 0.632863 0.954760
O O8 0.358743 0.500000 0.000000
O O9 0.926016 0.556144 0.750000
O O10 0.000000 0.553316 0.899157
O O11 0.925710 0.500000 0.000000
O O12 0.784173 0.500000 0.500000
O O13 0.764602 0.453941 0.250000
O O14 0.791560 0.366138 0.449170
O O15 0.289154 0.232124 0.750000
O O16 0.250000 0.250000 0.500000
O O17 0.336898 0.242840 0.510037
O O18 0.132604 0.228390 0.750000
#
# Coordination Sequence:
#
# PCOD8261011 Si02
#       6
#    16  16  16  16  16  16
#     4   9  19  36  55  77 106 140 179 222 270 322
#     4   9  18  33  51  76 106 134 171 217 259 309
#     4   8  14  26  46  71  98 127 164 211 257 305
#     4   9  18  33  51  74 105 140 178 217 259 308
#     4  11  21  35  54  78 109 142 176 216 262 313
#     4  11  22  36  54  81 111 138 177 222 265 317
#
# _framework density 17.825927
#
# number of rings (size 3 to 8) (size 9 to 14) (size 15 to 20)
#    0.000    2.500    1.667    2.000    0.000    3.667 
#    0.000    2.500    0.000    0.500    0.000    0.000 
#    0.000    0.000    0.000    0.000    0.000    0.000 
#
# Total GULP energy -595086.658246 kJ/mol
# GULP energy per Si atom -12397.638713 kJ/mol
# Density = 1.778535 g / cm^3
# Si number density = 17.825927 Si / 1000 Ang^3
#
#
#
# Elastic Constant Matrix: (Units=GPa)
#
#
# Indices 1 2 3 4 5 6 
#
# 1 60.9472 48.8266 41.9563 0.0000 0.0000 0.0000
# 2 48.8266 143.3053 76.1443 0.0000 0.0000 0.0000
# 3 41.9563 76.1443 91.5758 0.0000 0.0000 0.0000
# 4 0.0000 0.0000 0.0000 37.5926 0.0000 0.0000
# 5 0.0000 0.0000 0.0000 0.0000 27.4012 0.0000
# 6 0.0000 0.0000 0.0000 0.0000 0.0000 23.9786
#
#
#
# Elastic Compliance Matrix: (Units=1/GPa)
#
#
# Indices 1 2 3 4 5 6 
#
# 1 0.025448 -0.004435 -0.007972 0.000000 0.000000 0.000000
# 2 -0.004435 0.013274 -0.009005 0.000000 0.000000 0.000000
# 3 -0.007972 -0.009005 0.022060 0.000000 0.000000 0.000000
# 4 0.000000 0.000000 0.000000 0.026601 0.000000 0.000000
# 5 0.000000 0.000000 0.000000 0.000000 0.036495 0.000000
# 6 0.000000 0.000000 0.000000 0.000000 0.000000 0.041704
#
#
# Mechanical properties :
#
#
# Convention : Reuss Voigt Hill
#
# Bulk Modulus (GPa) = 55.68422 69.96475 62.82448
# Shear Modulus (GPa) = 23.32168 26.38787 24.85477
#
# Velocity S-wave (km/s) = 3.62097 3.85165 3.73809
# Velocity P-wave (km/s) = 6.98480 7.68859 7.34513
#
# Compressibility (1/GPa) = 0.01795841
#
# Stress axis : x y z
#
# Youngs Moduli (GPa) = 39.29512 75.33460 45.33062
#
# Poissons Ratio (x) = 0.33411 0.36137
# Poissons Ratio (y) = 0.17427 0.40822
# Poissons Ratio (z) = 0.31325 0.67842
#
# Static dielectric constant tensor:
#      x y z
#    x 3.038120 0.000000 0.000000 
#    y 0.000000 3.448780 0.000000 
#    z 0.000000 0.000000 3.452170 
# 
# 
# High freq. dielectric constant tensor:
#      x y z
#    x 1.655010 0.000000 0.000000 
#    y 0.000000 1.696220 0.000000 
#    z 0.000000 0.000000 1.692130 
# 
# From -- ./inp_files/12338.got.cif
#   From: 2010.03.12/outbox.cif.g09.slc.cpg/sg63_7_cif.got.tgz:12338.got - 2010.04.10 19:34:48.
