data_PCOD8261244
_publ_section_title
;
Structure prediction by ZEFSAII (Michael W. Deem and Ramdas Pophale) SiO2 
 PCOD8261244
Probable space group: C M C M
;
_chemical_formula_sum "Si O2"
_cell_formula_units_Z 40
_cell_length_a 9.468289
_cell_length_b 11.927951
_cell_length_c 14.127406
_cell_angle_alpha 90.000000
_cell_angle_beta 90.000000
_cell_angle_gamma 90.000000
_cell_volume 1595.510909
_symmetry_space_group_name_H-M "C M C M"
_symmetry_group_IT_number 63
_symmetry_cell_setting 'orthorhombic'
loop_
_space_group_symop_operation_xyz
x,y,z
-x,-y,1/2+z
x,-y,-z
-x,y,1/2-z
-x,-y,-z
x,y,1/2-z
-x,y,z
x,-y,1/2+z
1/2+x,1/2+y,z
1/2-x,1/2-y,1/2+z
1/2+x,1/2-y,-z
1/2-x,1/2+y,1/2-z
1/2-x,1/2-y,-z
1/2+x,1/2+y,1/2-z
1/2-x,1/2+y,z
1/2+x,1/2-y,1/2+z
loop_
_atom_site_type_symbol
_atom_site_label
_atom_site_fract_x
_atom_site_fract_y
_atom_site_fract_z
Si Si1 0.000000 0.252220 0.855120
Si Si2 0.000000 0.383606 0.361447
Si Si3 0.269851 0.938886 0.641370
Si Si4 0.000000 0.857369 0.543747
O O1 0.861729 0.327113 0.869417
O O2 0.000000 0.198708 0.750000
O O3 0.000000 0.150830 0.929768
O O4 0.860594 0.453010 0.391145
O O5 0.000000 0.267114 0.414741
O O6 0.000000 0.361322 0.250000
O O7 0.222154 0.953065 0.750000
O O8 0.134805 0.928493 0.575017
#
# Coordination Sequence:
#
# PCOD8261244 Si02
#       4
#     8   8  16   8
#     4   9  20  38  57  84 127 163 193 256 315 344
#     4   9  20  38  59  89 129 161 190 246 313 363
#     4   9  19  36  57  88 125 153 195 256 302 356
#     4  12  20  35  68  91 110 164 217 238 294 378
#
# _framework density 25.070340000000002
#
# number of rings (size 3 to 8) (size 9 to 14) (size 15 to 20)
#    0.000    2.400    0.000    5.400    0.000    3.200 
#    0.000    4.000    0.000   16.800    0.000    0.000 
#    0.000    0.000    0.000    0.000    0.000    0.000 
#
# Total GULP energy -248088.882450 kJ/mol
# GULP energy per Si atom -12404.444122 kJ/mol
# Density = 2.501328 g / cm^3
# Si number density = 25.070340 Si / 1000 Ang^3
#
#
#
# Elastic Constant Matrix: (Units=GPa)
#
#
# Indices 1 2 3 4 5 6 
#
# 1 151.2237 54.1987 70.7435 0.0000 0.0000 0.0000
# 2 54.1987 130.9578 69.5697 0.0000 0.0000 0.0000
# 3 70.7435 69.5697 121.4701 0.0000 0.0000 0.0000
# 4 0.0000 0.0000 0.0000 15.6875 0.0000 0.0000
# 5 0.0000 0.0000 0.0000 0.0000 1.6781 0.0000
# 6 0.0000 0.0000 0.0000 0.0000 0.0000 7.1262
#
#
#
# Elastic Compliance Matrix: (Units=1/GPa)
#
#
# Indices 1 2 3 4 5 6 
#
# 1 0.009262 -0.001391 -0.004598 0.000000 0.000000 0.000000
# 2 -0.001391 0.011184 -0.005596 0.000000 0.000000 0.000000
# 3 -0.004598 -0.005596 0.014115 0.000000 0.000000 0.000000
# 4 0.000000 0.000000 0.000000 0.063745 0.000000 0.000000
# 5 0.000000 0.000000 0.000000 0.000000 0.595921 0.000000
# 6 0.000000 0.000000 0.000000 0.000000 0.000000 0.140327
#
#
# Mechanical properties :
#
#
# Convention : Reuss Voigt Hill
#
# Bulk Modulus (GPa) = 87.77187 88.07503 87.92345
# Shear Modulus (GPa) = 5.80369 18.84100 12.32234
#
# Velocity S-wave (km/s) = 1.52315 2.74437 2.21941
# Velocity P-wave (km/s) = 6.17896 6.72678 6.45868
#
# Compressibility (1/GPa) = 0.01139317
#
# Stress axis : x y z
#
# Youngs Moduli (GPa) = 107.96865 89.41168 70.84750
#
# Poissons Ratio (x) = 0.12435 0.32573
# Poissons Ratio (y) = 0.15016 0.39643
# Poissons Ratio (z) = 0.49639 0.50031
#
# Static dielectric constant tensor:
#      x y z
#    x 4.584680 0.000000 0.000000 
#    y 0.000000 4.253760 0.000000 
#    z 0.000000 0.000000 4.704860 
# 
# 
# High freq. dielectric constant tensor:
#      x y z
#    x 2.002010 0.000000 0.000000 
#    y 0.000000 1.994620 0.000000 
#    z 0.000000 0.000000 2.011500 
# 
# From -- ./inp_files/26718.got.cif
#   From: 2010.03.12/outbox.cif.g09.slc.cpg/sg63_14_cif.got.tgz:26718.got - 2010.04.10 19:34:48.
