data_PCOD8261256
_publ_section_title
;
Structure prediction by ZEFSAII (Michael W. Deem and Ramdas Pophale) SiO2 
 PCOD8261256
Probable space group: C M C M
;
_chemical_formula_sum "Si O2"
_cell_formula_units_Z 72
_cell_length_a 17.600983
_cell_length_b 22.782881
_cell_length_c 8.666403
_cell_angle_alpha 90.000000
_cell_angle_beta 90.000000
_cell_angle_gamma 90.000000
_cell_volume 3475.237146
_symmetry_space_group_name_H-M "C M C M"
_symmetry_group_IT_number 63
_symmetry_cell_setting 'orthorhombic'
loop_
_space_group_symop_operation_xyz
x,y,z
-x,-y,1/2+z
x,-y,-z
-x,y,1/2-z
-x,-y,-z
x,y,1/2-z
-x,y,z
x,-y,1/2+z
1/2+x,1/2+y,z
1/2-x,1/2-y,1/2+z
1/2+x,1/2-y,-z
1/2-x,1/2+y,1/2-z
1/2-x,1/2-y,-z
1/2+x,1/2+y,1/2-z
1/2-x,1/2+y,z
1/2+x,1/2-y,1/2+z
loop_
_atom_site_type_symbol
_atom_site_label
_atom_site_fract_x
_atom_site_fract_y
_atom_site_fract_z
Si Si1 0.226172 0.062591 0.431296
Si Si2 0.859285 0.632758 0.930058
Si Si3 0.000000 0.564422 0.068293
Si Si4 0.587057 0.379334 0.069711
Si Si5 0.088550 0.745713 0.426244
O O1 0.239956 0.061647 0.250000
O O2 0.277874 0.111663 0.510799
O O3 0.138782 0.077392 0.469400
O O4 0.249124 0.000000 0.500000
O O5 0.867439 0.620838 0.750000
O O6 0.864443 0.702211 0.964183
O O7 0.925132 0.598449 0.017744
O O8 0.000000 0.559391 0.250000
O O9 0.000000 0.500000 0.000000
O O10 0.603369 0.389293 0.250000
O O11 0.500000 0.394374 0.030674
O O12 0.605464 0.312287 0.023345
O O13 0.113710 0.735541 0.250000
O O14 0.000000 0.731550 0.444885
#
# Coordination Sequence:
#
# PCOD8261256 Si02
#       5
#    16  16   8  16  16
#     4  12  26  44  64  88 122 163 207 260 312 368
#     4  12  24  39  61  91 125 164 207 254 305 363
#     4  12  24  40  60  86 122 164 211 254 301 362
#     4   9  20  41  68  96 125 160 202 253 310 368
#     4   9  18  36  63  93 127 164 203 251 303 360
#
# _framework density 20.718008999999999
#
# number of rings (size 3 to 8) (size 9 to 14) (size 15 to 20)
#    0.000    1.333    1.111    7.000    0.000    2.667 
#    0.000    2.222    0.000    0.000    0.000    0.000 
#    0.000    0.000    0.000    0.000    0.000    0.000 
#
# Total GULP energy -446610.299893 kJ/mol
# GULP energy per Si atom -12405.841664 kJ/mol
# Density = 2.067085 g / cm^3
# Si number density = 20.718009 Si / 1000 Ang^3
#
#
#
# Elastic Constant Matrix: (Units=GPa)
#
#
# Indices 1 2 3 4 5 6 
#
# 1 77.6559 13.2113 27.5542 0.0000 0.0000 0.0000
# 2 13.2113 48.7439 23.0339 0.0000 0.0000 0.0000
# 3 27.5542 23.0339 133.5974 0.0000 0.0000 0.0000
# 4 0.0000 0.0000 0.0000 37.3772 0.0000 0.0000
# 5 0.0000 0.0000 0.0000 0.0000 29.5874 0.0000
# 6 0.0000 0.0000 0.0000 0.0000 0.0000 35.2743
#
#
#
# Elastic Compliance Matrix: (Units=1/GPa)
#
#
# Indices 1 2 3 4 5 6 
#
# 1 0.014210 -0.002685 -0.002468 0.000000 0.000000 0.000000
# 2 -0.002685 0.022843 -0.003385 0.000000 0.000000 0.000000
# 3 -0.002468 -0.003385 0.008578 0.000000 0.000000 0.000000
# 4 0.000000 0.000000 0.000000 0.026754 0.000000 0.000000
# 5 0.000000 0.000000 0.000000 0.000000 0.033798 0.000000
# 6 0.000000 0.000000 0.000000 0.000000 0.000000 0.028349
#
#
# Mechanical properties :
#
#
# Convention : Reuss Voigt Hill
#
# Bulk Modulus (GPa) = 35.02016 43.06622 39.04319
# Shear Modulus (GPa) = 31.03179 33.52763 32.27971
#
# Velocity S-wave (km/s) = 3.87436 4.02715 3.95150
# Velocity P-wave (km/s) = 6.07900 6.51582 6.30120
#
# Compressibility (1/GPa) = 0.02855498
#
# Stress axis : x y z
#
# Youngs Moduli (GPa) = 70.37411 43.77794 116.58163
#
# Poissons Ratio (x) = 0.11755 0.28770
# Poissons Ratio (y) = 0.18897 0.39457
# Poissons Ratio (z) = 0.17367 0.14817
#
# Static dielectric constant tensor:
#      x y z
#    x 3.728830 0.000000 0.000000 
#    y 0.000000 3.835700 0.000000 
#    z 0.000000 0.000000 3.703460 
# 
# 
# High freq. dielectric constant tensor:
#      x y z
#    x 1.809870 0.000000 0.000000 
#    y 0.000000 1.819330 0.000000 
#    z 0.000000 0.000000 1.810110 
# 
# From -- ./inp_files/6107.got.cif
#   From: 2010.03.12/outbox.cif.g09.slc.cpg/sg63_4_cif.got.tgz:6107.got - 2010.04.10 19:34:48.
