data_PCOD8261279
_publ_section_title
;
Structure prediction by ZEFSAII (Michael W. Deem and Ramdas Pophale) SiO2 
 PCOD8261279
Probable space group: C M C M
;
_chemical_formula_sum "Si O2"
_cell_formula_units_Z 112
_cell_length_a 9.883346
_cell_length_b 25.517646
_cell_length_c 30.387431
_cell_angle_alpha 90.000000
_cell_angle_beta 90.000000
_cell_angle_gamma 90.000000
_cell_volume 7663.701727
_symmetry_space_group_name_H-M "C M C M"
_symmetry_group_IT_number 63
_symmetry_cell_setting 'orthorhombic'
loop_
_space_group_symop_operation_xyz
x,y,z
-x,-y,1/2+z
x,-y,-z
-x,y,1/2-z
-x,-y,-z
x,y,1/2-z
-x,y,z
x,-y,1/2+z
1/2+x,1/2+y,z
1/2-x,1/2-y,1/2+z
1/2+x,1/2-y,-z
1/2-x,1/2+y,1/2-z
1/2-x,1/2-y,-z
1/2+x,1/2+y,1/2-z
1/2-x,1/2+y,z
1/2+x,1/2-y,1/2+z
loop_
_atom_site_type_symbol
_atom_site_label
_atom_site_fract_x
_atom_site_fract_y
_atom_site_fract_z
Si Si1 0.842702 0.105417 0.801301
Si Si2 0.349682 0.186741 0.035548
Si Si3 0.349489 0.688803 0.537987
Si Si4 0.339089 0.102579 0.299089
Si Si5 0.661290 0.812487 0.866662
Si Si6 0.650498 0.013235 0.802256
Si Si7 0.839447 0.196222 0.634955
O O1 0.816350 0.116187 0.750000
O O2 0.757331 0.056107 0.819244
O O3 0.790271 0.156489 0.827374
O O4 0.000000 0.093793 0.810691
O O5 0.500000 0.163637 0.027331
O O6 0.356228 0.249081 0.032567
O O7 0.295338 0.170670 0.083969
O O8 0.249472 0.163514 0.998483
O O9 0.500000 0.665143 0.531252
O O10 0.292268 0.675755 0.586823
O O11 0.280263 0.112476 0.250000
O O12 0.500000 0.106684 0.297345
O O13 0.277187 0.146010 0.331999
O O14 0.299488 0.044661 0.316867
O O15 0.500000 0.811747 0.864100
O O16 0.718843 0.754447 0.855141
O O17 0.643673 0.013784 0.750000
O O18 0.500000 0.025514 0.821128
O O19 0.000000 0.200320 0.634036
#
# Coordination Sequence:
#
# PCOD8261279 Si02
#       7
#    16  16  16  16  16  16  16
#     4   9  16  25  38  56  76  98 124 152 181 214
#     4   8  13  21  34  52  72  93 118 148 180 212
#     4   8  13  22  35  49  69  97 122 145 176 212
#     4   8  13  21  35  55  76  98 124 151 180 217
#     4   8  13  21  34  54  79 101 119 146 185 221
#     4   8  14  25  39  54  72  94 123 157 185 209
#     4   8  14  23  34  52  78 102 122 146 180 221
#
# _framework density 14.614348
#
# number of rings (size 3 to 8) (size 9 to 14) (size 15 to 20)
#    0.000    3.857    0.000    2.571    0.000    0.571 
#    0.000    3.571    0.000    1.714    0.000    1.000 
#    0.000   12.571    0.000    0.000    0.000    0.000 
#
# Total GULP energy -693837.874953 kJ/mol
# GULP energy per Si atom -12389.962053 kJ/mol
# Density = 1.458108 g / cm^3
# Si number density = 14.614348 Si / 1000 Ang^3
#
#
#
# Elastic Constant Matrix: (Units=GPa)
#
#
# Indices 1 2 3 4 5 6 
#
# 1 39.5399 32.0608 33.9892 0.0000 0.0000 0.0000
# 2 32.0608 89.5591 58.5287 0.0000 0.0000 0.0000
# 3 33.9892 58.5287 92.0226 0.0000 0.0000 0.0000
# 4 0.0000 0.0000 0.0000 3.5614 0.0000 0.0000
# 5 0.0000 0.0000 0.0000 0.0000 16.5269 0.0000
# 6 0.0000 0.0000 0.0000 0.0000 0.0000 14.2027
#
#
#
# Elastic Compliance Matrix: (Units=1/GPa)
#
#
# Indices 1 2 3 4 5 6 
#
# 1 0.040158 -0.008013 -0.009736 0.000000 0.000000 0.000000
# 2 -0.008013 0.020707 -0.010211 0.000000 0.000000 0.000000
# 3 -0.009736 -0.010211 0.020957 0.000000 0.000000 0.000000
# 4 0.000000 0.000000 0.000000 0.280789 0.000000 0.000000
# 5 0.000000 0.000000 0.000000 0.000000 0.060508 0.000000
# 6 0.000000 0.000000 0.000000 0.000000 0.000000 0.070409
#
#
# Mechanical properties :
#
#
# Convention : Reuss Voigt Hill
#
# Bulk Modulus (GPa) = 38.60625 52.25322 45.42973
# Shear Modulus (GPa) = 8.95927 13.29438 11.12682
#
# Velocity S-wave (km/s) = 2.47866 3.01936 2.76227
# Velocity P-wave (km/s) = 5.88776 6.92732 6.42859
#
# Compressibility (1/GPa) = 0.02590254
#
# Stress axis : x y z
#
# Youngs Moduli (GPa) = 24.90194 48.29220 47.71653
#
# Poissons Ratio (x) = 0.38698 0.46456
# Poissons Ratio (y) = 0.19954 0.48722
# Poissons Ratio (z) = 0.24244 0.49309
#
# Static dielectric constant tensor:
#      x y z
#    x 2.725160 0.000000 0.000000 
#    y 0.000000 2.911020 0.000000 
#    z 0.000000 0.000000 3.011380 
# 
# 
# High freq. dielectric constant tensor:
#      x y z
#    x 1.520560 0.000000 0.000000 
#    y 0.000000 1.529930 0.000000 
#    z 0.000000 0.000000 1.551110 
# 
# From -- ./inp_files/61922.got.cif
#   From: 2010.03.12/outbox.cif.g09.slc.cpg/sg63_31_cif.got.tgz:61922.got - 2010.04.10 19:34:48.
