data_PCOD8261465
_publ_section_title
;
Structure prediction by ZEFSAII (Michael W. Deem and Ramdas Pophale) SiO2 
 PCOD8261465
Probable space group: C M C A
;
_chemical_formula_sum "Si O2"
_cell_formula_units_Z 64
_cell_length_a 8.613290
_cell_length_b 23.248116
_cell_length_c 17.975716
_cell_angle_alpha 90.000000
_cell_angle_beta 90.000000
_cell_angle_gamma 90.000000
_cell_volume 3599.507076
_symmetry_space_group_name_H-M "C M C A"
_symmetry_group_IT_number 64
_symmetry_cell_setting 'orthorhombic'
loop_
_space_group_symop_operation_xyz
x,y,z
-x,1/2-y,1/2+z
x,-y,-z
-x,1/2+y,1/2-z
-x,-y,-z
x,1/2+y,1/2-z
-x,y,z
x,1/2-y,1/2+z
1/2+x,1/2+y,z
1/2-x,-y,1/2+z
1/2+x,1/2-y,-z
1/2-x,y,1/2-z
1/2-x,1/2-y,-z
1/2+x,y,1/2-z
1/2-x,1/2+y,z
1/2+x,-y,1/2+z
loop_
_atom_site_type_symbol
_atom_site_label
_atom_site_fract_x
_atom_site_fract_y
_atom_site_fract_z
Si Si1 0.319537 0.575536 0.047633
Si Si2 0.815670 0.368295 0.325702
Si Si3 0.181745 0.471111 0.102130
Si Si4 0.317451 0.189438 0.522446
O O1 0.500000 0.569736 0.066492
O O2 0.222668 0.539630 0.110313
O O3 0.285038 0.549859 0.966677
O O4 0.270107 0.642830 0.041421
O O5 0.750000 0.339534 0.250000
O O6 0.738335 0.432308 0.329031
O O7 0.757269 0.330235 0.395868
O O8 0.000000 0.373547 0.323354
O O9 0.000000 0.463204 0.087270
O O10 0.500000 0.194774 0.526754
O O11 0.250000 0.250000 0.500000
#
# Coordination Sequence:
#
# PCOD8261465 Si02
#       4
#    16  16  16  16
#     4   9  16  28  44  66  95 124 153 194 239 282
#     4  10  20  34  50  72  99 129 162 203 252 303
#     4  10  17  26  44  70  94 121 153 190 236 288
#     4   9  19  32  49  72  99 130 168 209 249 291
#
# _framework density 17.780213
#
# number of rings (size 3 to 8) (size 9 to 14) (size 15 to 20)
#    0.000    2.500    0.000    6.750    0.000    6.000 
#    0.000    0.000    0.000    1.500    0.000    3.500 
#    0.000    0.000    0.000    0.000    0.000    0.000 
#
# Total GULP energy -396423.436152 kJ/mol
# GULP energy per Si atom -12388.232380 kJ/mol
# Density = 1.773974 g / cm^3
# Si number density = 17.780213 Si / 1000 Ang^3
#
#
#
# Elastic Constant Matrix: (Units=GPa)
#
#
# Indices 1 2 3 4 5 6 
#
# 1 51.9946 40.0191 21.8227 0.0000 0.0000 0.0000
# 2 40.0191 137.7388 45.3289 0.0000 0.0000 0.0000
# 3 21.8227 45.3289 66.4752 0.0000 0.0000 0.0000
# 4 0.0000 0.0000 0.0000 18.5057 0.0000 0.0000
# 5 0.0000 0.0000 0.0000 0.0000 22.9317 0.0000
# 6 0.0000 0.0000 0.0000 0.0000 0.0000 32.2262
#
#
#
# Elastic Compliance Matrix: (Units=1/GPa)
#
#
# Indices 1 2 3 4 5 6 
#
# 1 0.025697 -0.006047 -0.004313 0.000000 0.000000 0.000000
# 2 -0.006047 0.010784 -0.005368 0.000000 0.000000 0.000000
# 3 -0.004313 -0.005368 0.020119 0.000000 0.000000 0.000000
# 4 0.000000 0.000000 0.000000 0.054037 0.000000 0.000000
# 5 0.000000 0.000000 0.000000 0.000000 0.043608 0.000000
# 6 0.000000 0.000000 0.000000 0.000000 0.000000 0.031031
#
#
# Mechanical properties :
#
#
# Convention : Reuss Voigt Hill
#
# Bulk Modulus (GPa) = 39.76963 52.28332 46.02647
# Shear Modulus (GPa) = 22.21111 24.66859 23.43985
#
# Velocity S-wave (km/s) = 3.53824 3.72885 3.63479
# Velocity P-wave (km/s) = 6.25365 6.92880 6.59986
#
# Compressibility (1/GPa) = 0.02514482
#
# Stress axis : x y z
#
# Youngs Moduli (GPa) = 38.91514 92.73332 49.70306
#
# Poissons Ratio (x) = 0.56074 0.21435
# Poissons Ratio (y) = 0.23531 0.26682
# Poissons Ratio (z) = 0.16783 0.49781
#
# Static dielectric constant tensor:
#      x y z
#    x 3.208030 0.000000 0.000000 
#    y 0.000000 1.789870 0.000000 
#    z 0.000000 0.000000 3.168820 
# 
# 
# High freq. dielectric constant tensor:
#      x y z
#    x 1.695640 0.000000 0.000000 
#    y 0.000000 1.683600 0.000000 
#    z 0.000000 0.000000 1.643490 
# 
# From -- ./inp_files/20883.got.cif
#   From: 2010.03.12/outbox.cif.g09.slc.cpg/sg64_11_cif.got.tgz:20883.got - 2010.04.10 20:19:32.
