data_PCOD8261284
_publ_section_title
;
Structure prediction by ZEFSAII (Michael W. Deem and Ramdas Pophale) SiO2 
 PCOD8261284
Probable space group: C M C M
;
_chemical_formula_sum "Si O2"
_cell_formula_units_Z 112
_cell_length_a 9.319224
_cell_length_b 27.543587
_cell_length_c 29.050796
_cell_angle_alpha 90.000000
_cell_angle_beta 90.000000
_cell_angle_gamma 90.000000
_cell_volume 7456.899417
_symmetry_space_group_name_H-M "C M C M"
_symmetry_group_IT_number 63
_symmetry_cell_setting 'orthorhombic'
loop_
_space_group_symop_operation_xyz
x,y,z
-x,-y,1/2+z
x,-y,-z
-x,y,1/2-z
-x,-y,-z
x,y,1/2-z
-x,y,z
x,-y,1/2+z
1/2+x,1/2+y,z
1/2-x,1/2-y,1/2+z
1/2+x,1/2-y,-z
1/2-x,1/2+y,1/2-z
1/2-x,1/2-y,-z
1/2+x,1/2+y,1/2-z
1/2-x,1/2+y,z
1/2+x,1/2-y,1/2+z
loop_
_atom_site_type_symbol
_atom_site_label
_atom_site_fract_x
_atom_site_fract_y
_atom_site_fract_z
Si Si1 0.170201 0.520465 0.569338
Si Si2 0.337685 0.316718 0.250000
Si Si3 0.331894 0.181735 0.025245
Si Si4 0.829732 0.573661 0.479782
Si Si5 0.832888 0.734621 0.931599
Si Si6 0.837911 0.067824 0.750000
Si Si7 0.666526 0.181552 0.661248
Si Si8 0.832532 0.568322 0.661721
O O1 0.215859 0.464444 0.560162
O O2 0.231843 0.554628 0.528629
O O3 0.229364 0.538599 0.618200
O O4 0.000000 0.525320 0.569351
O O5 0.500000 0.296657 0.250000
O O6 0.334643 0.374432 0.250000
O O7 0.256833 0.297885 0.295664
O O8 0.500000 0.184833 0.035612
O O9 0.270293 0.127193 0.031408
O O10 0.252444 0.215284 0.062336
O O11 0.296499 0.198216 0.973293
O O12 0.000000 0.576507 0.483746
O O13 0.782973 0.709765 0.884293
O O14 0.000000 0.747104 0.930574
O O15 0.755345 0.048397 0.794784
O O16 0.000000 0.047829 0.750000
O O17 0.500000 0.190618 0.672140
O O18 0.696140 0.124924 0.652627
O O19 0.000000 0.558419 0.670683
#
# Coordination Sequence:
#
# PCOD8261284 Si02
#       8
#    16   8  16  16  16   8  16  16
#     4   8  13  21  37  61  83 102 128 161 195 229
#     4   9  17  27  39  57  80 103 128 159 196 237
#     4   9  16  26  40  58  81 107 134 164 195 227
#     4   8  13  22  37  59  84 105 127 160 198 230
#     4   9  17  27  39  57  80 107 137 163 190 228
#     4   9  17  27  37  53  80 109 130 153 192 237
#     4   9  16  26  40  57  79 106 133 160 191 230
#     4   9  15  24  40  60  79 101 131 163 191 225
#
# _framework density 15.019648
#
# number of rings (size 3 to 8) (size 9 to 14) (size 15 to 20)
#    0.000    3.286    0.000    2.143    0.000    5.714 
#    0.000    0.000    0.000    3.429    0.000    3.000 
#    0.000    2.286    0.000    0.000    0.000    0.000 
#
# Total GULP energy -694161.586621 kJ/mol
# GULP energy per Si atom -12395.742618 kJ/mol
# Density = 1.498546 g / cm^3
# Si number density = 15.019648 Si / 1000 Ang^3
#
#
#
# Elastic Constant Matrix: (Units=GPa)
#
#
# Indices 1 2 3 4 5 6 
#
# 1 44.5809 30.9439 47.2636 0.0000 0.0000 0.0000
# 2 30.9439 98.2586 57.9097 0.0000 0.0000 0.0000
# 3 47.2636 57.9097 137.5903 0.0000 0.0000 0.0000
# 4 0.0000 0.0000 0.0000 23.9732 0.0000 0.0000
# 5 0.0000 0.0000 0.0000 0.0000 16.4269 0.0000
# 6 0.0000 0.0000 0.0000 0.0000 0.0000 14.4389
#
#
#
# Elastic Compliance Matrix: (Units=1/GPa)
#
#
# Indices 1 2 3 4 5 6 
#
# 1 0.037464 -0.005604 -0.010511 0.000000 0.000000 0.000000
# 2 -0.005604 0.014373 -0.004124 0.000000 0.000000 0.000000
# 3 -0.010511 -0.004124 0.012614 0.000000 0.000000 0.000000
# 4 0.000000 0.000000 0.000000 0.041713 0.000000 0.000000
# 5 0.000000 0.000000 0.000000 0.000000 0.060876 0.000000
# 6 0.000000 0.000000 0.000000 0.000000 0.000000 0.069257
#
#
# Mechanical properties :
#
#
# Convention : Reuss Voigt Hill
#
# Bulk Modulus (GPa) = 41.71275 61.40713 51.55994
# Shear Modulus (GPa) = 17.55831 20.58865 19.07348
#
# Velocity S-wave (km/s) = 3.42281 3.70642 3.56743
# Velocity P-wave (km/s) = 6.59191 7.70000 7.16740
#
# Compressibility (1/GPa) = 0.02397349
#
# Stress axis : x y z
#
# Youngs Moduli (GPa) = 26.69242 69.57652 79.27489
#
# Poissons Ratio (x) = 0.38988 0.83323
# Poissons Ratio (y) = 0.14958 0.32696
# Poissons Ratio (z) = 0.28056 0.28696
#
# Static dielectric constant tensor:
#      x y z
#    x 2.685360 0.000000 0.000000 
#    y 0.000000 2.851110 0.000000 
#    z 0.000000 0.000000 3.009070 
# 
# 
# High freq. dielectric constant tensor:
#      x y z
#    x 1.548820 0.000000 0.000000 
#    y 0.000000 1.549030 0.000000 
#    z 0.000000 0.000000 1.573320 
# 
# From -- ./inp_files/72266.got.cif
#   From: 2010.03.12/outbox.cif.g09.slc.cpg/sg63_37_cif.got.tgz:72266.got - 2010.04.10 19:34:48.
