data_PCOD8261076
_publ_section_title
;
Structure prediction by ZEFSAII (Michael W. Deem and Ramdas Pophale) SiO2 
 PCOD8261076
Probable space group: C M C M
;
_chemical_formula_sum "Si O2"
_cell_formula_units_Z 80
_cell_length_a 25.469435
_cell_length_b 9.668468
_cell_length_c 17.190611
_cell_angle_alpha 90.000000
_cell_angle_beta 90.000000
_cell_angle_gamma 90.000000
_cell_volume 4233.195132
_symmetry_space_group_name_H-M "C M C M"
_symmetry_group_IT_number 63
_symmetry_cell_setting 'orthorhombic'
loop_
_space_group_symop_operation_xyz
x,y,z
-x,-y,1/2+z
x,-y,-z
-x,y,1/2-z
-x,-y,-z
x,y,1/2-z
-x,y,z
x,-y,1/2+z
1/2+x,1/2+y,z
1/2-x,1/2-y,1/2+z
1/2+x,1/2-y,-z
1/2-x,1/2+y,1/2-z
1/2-x,1/2-y,-z
1/2+x,1/2+y,1/2-z
1/2-x,1/2+y,z
1/2+x,1/2-y,1/2+z
loop_
_atom_site_type_symbol
_atom_site_label
_atom_site_fract_x
_atom_site_fract_y
_atom_site_fract_z
Si Si1 0.500000 0.190179 0.157766
Si Si2 0.206973 0.199100 0.339310
Si Si3 0.500000 0.503179 0.157688
Si Si4 0.588681 0.000427 0.408733
Si Si5 0.799257 0.484917 0.840290
Si Si6 0.090857 0.796460 0.657223
O O1 0.500000 0.190884 0.250000
O O2 0.500000 0.347689 0.124966
O O3 0.447947 0.116374 0.128182
O O4 0.205602 0.153575 0.250000
O O5 0.220778 0.359169 0.349617
O O6 0.149261 0.167098 0.374768
O O7 0.253613 0.110310 0.378248
O O8 0.500000 0.502803 0.250000
O O9 0.448358 0.584424 0.127843
O O10 0.648133 0.041544 0.388510
O O11 0.572407 0.851065 0.375594
O O12 0.580141 0.000000 0.500000
O O13 0.810999 0.449970 0.750000
O O14 0.091652 0.781167 0.750000
#
# Coordination Sequence:
#
# PCOD8261076 Si02
#       6
#     8  16   8  16  16  16
#     4  11  22  37  57  82 103 127 170 225 268 304
#     4   8  15  27  49  75  98 127 169 212 255 302
#     4   9  19  33  56  84 104 125 166 219 270 314
#     4  11  22  36  53  77 107 143 179 212 254 316
#     4   9  17  32  52  75 101 135 176 222 265 304
#     4   9  17  34  55  76 104 141 176 212 263 324
#
# _framework density 18.898254999999999
#
# number of rings (size 3 to 8) (size 9 to 14) (size 15 to 20)
#    0.000    2.600    0.000    3.900    0.000    2.400 
#    0.000   12.000    0.000    0.000    0.000    0.000 
#    0.000    0.000    0.000    0.000    0.000    0.000 
#
# Total GULP energy -495922.574616 kJ/mol
# GULP energy per Si atom -12398.064365 kJ/mol
# Density = 1.885524 g / cm^3
# Si number density = 18.898255 Si / 1000 Ang^3
#
#
#
# Elastic Constant Matrix: (Units=GPa)
#
#
# Indices 1 2 3 4 5 6 
#
# 1 131.5530 97.1422 23.6445 0.0000 0.0000 0.0000
# 2 97.1422 145.6560 30.0590 0.0000 0.0000 0.0000
# 3 23.6445 30.0590 50.8369 0.0000 0.0000 0.0000
# 4 0.0000 0.0000 0.0000 1.7091 0.0000 0.0000
# 5 0.0000 0.0000 0.0000 0.0000 7.9275 0.0000
# 6 0.0000 0.0000 0.0000 0.0000 0.0000 45.5563
#
#
#
# Elastic Compliance Matrix: (Units=1/GPa)
#
#
# Indices 1 2 3 4 5 6 
#
# 1 0.015043 -0.009782 -0.001212 0.000000 0.000000 0.000000
# 2 -0.009782 0.014181 -0.003835 0.000000 0.000000 0.000000
# 3 -0.001212 -0.003835 0.022502 0.000000 0.000000 0.000000
# 4 0.000000 0.000000 0.000000 0.585101 0.000000 0.000000
# 5 0.000000 0.000000 0.000000 0.000000 0.126143 0.000000
# 6 0.000000 0.000000 0.000000 0.000000 0.000000 0.021951
#
#
# Mechanical properties :
#
#
# Convention : Reuss Voigt Hill
#
# Bulk Modulus (GPa) = 45.31773 69.97082 57.64428
# Shear Modulus (GPa) = 6.08320 22.85192 14.46756
#
# Velocity S-wave (km/s) = 1.79608 3.48114 2.76986
# Velocity P-wave (km/s) = 5.32289 7.29816 6.38734
#
# Compressibility (1/GPa) = 0.02206642
#
# Stress axis : x y z
#
# Youngs Moduli (GPa) = 66.47617 70.51626 44.43978
#
# Poissons Ratio (x) = 0.68982 0.05388
# Poissons Ratio (y) = 0.65030 0.17044
# Poissons Ratio (z) = 0.08060 0.27045
#
# Static dielectric constant tensor:
#      x y z
#    x 3.792770 0.000000 0.000000 
#    y 0.000000 3.582450 0.000000 
#    z 0.000000 0.000000 3.071530 
# 
# 
# High freq. dielectric constant tensor:
#      x y z
#    x 1.750220 0.000000 0.000000 
#    y 0.000000 1.734650 0.000000 
#    z 0.000000 0.000000 1.692070 
# 
# From -- ./inp_files/48866.got.cif
#   From: 2010.03.12/outbox.cif.g09.slc.cpg/sg63_25_cif.got.tgz:48866.got - 2010.04.10 19:34:48.
