data_PCOD8261013
_publ_section_title
;
Structure prediction by ZEFSAII (Michael W. Deem and Ramdas Pophale) SiO2 
 PCOD8261013
Probable space group: C M C M
;
_chemical_formula_sum "Si O2"
_cell_formula_units_Z 96
_cell_length_a 30.249641
_cell_length_b 19.483168
_cell_length_c 8.709274
_cell_angle_alpha 90.000000
_cell_angle_beta 90.000000
_cell_angle_gamma 90.000000
_cell_volume 5132.887600
_symmetry_space_group_name_H-M "C M C M"
_symmetry_group_IT_number 63
_symmetry_cell_setting 'orthorhombic'
loop_
_space_group_symop_operation_xyz
x,y,z
-x,-y,1/2+z
x,-y,-z
-x,y,1/2-z
-x,-y,-z
x,y,1/2-z
-x,y,z
x,-y,1/2+z
1/2+x,1/2+y,z
1/2-x,1/2-y,1/2+z
1/2+x,1/2-y,-z
1/2-x,1/2+y,1/2-z
1/2-x,1/2-y,-z
1/2+x,1/2+y,1/2-z
1/2-x,1/2+y,z
1/2+x,1/2-y,1/2+z
loop_
_atom_site_type_symbol
_atom_site_label
_atom_site_fract_x
_atom_site_fract_y
_atom_site_fract_z
Si Si1 0.449007 0.283213 0.931039
Si Si2 0.373346 0.800989 0.928384
Si Si3 0.552313 0.433993 0.917903
Si Si4 0.263120 0.572057 0.067608
Si Si5 0.332715 0.070807 0.931359
Si Si6 0.290289 0.707855 0.930202
O O1 0.438850 0.278821 0.750000
O O2 0.500000 0.265843 0.963122
O O3 0.437427 0.360041 0.994574
O O4 0.420596 0.229271 0.026028
O O5 0.372697 0.820665 0.750000
O O6 0.335661 0.746116 0.968815
O O7 0.366887 0.869311 0.028473
O O8 0.573509 0.433859 0.750000
O O9 0.500000 0.443356 0.907451
O O10 0.573970 0.500000 0.000000
O O11 0.263504 0.568863 0.250000
O O12 0.280459 0.500000 0.000000
O O13 0.213842 0.588334 0.010087
O O14 0.294354 0.633130 0.008205
O O15 0.326038 0.063959 0.750000
O O16 0.351718 0.000000 0.000000
O O17 0.282235 0.699616 0.750000
O O18 0.250000 0.750000 0.000000
#
# Coordination Sequence:
#
# PCOD8261013 Si02
#       6
#    16  16  16  16  16  16
#     4   9  19  36  56  79 109 146 188 232 281 335
#     4  11  23  37  56  84 114 144 186 231 278 334
#     4   8  14  26  46  72 100 131 171 218 265 317
#     4  11  21  35  55  80 112 149 190 231 277 332
#     4  11  21  35  57  82 112 145 183 226 273 328
#     4  11  22  36  55  80 112 148 186 230 278 330
#
# _framework density 18.702922000000001
#
# number of rings (size 3 to 8) (size 9 to 14) (size 15 to 20)
#    0.000    1.833    1.667    6.000    0.000    3.000 
#    0.000    2.500    0.000    2.500    0.000    0.000 
#    0.000    0.000    0.000    0.000    0.000    0.000 
#
# Total GULP energy -595179.725465 kJ/mol
# GULP energy per Si atom -12399.577614 kJ/mol
# Density = 1.866035 g / cm^3
# Si number density = 18.702922 Si / 1000 Ang^3
#
#
#
# Elastic Constant Matrix: (Units=GPa)
#
#
# Indices 1 2 3 4 5 6 
#
# 1 57.9094 40.3728 32.6325 0.0000 0.0000 0.0000
# 2 40.3728 142.4719 58.1841 0.0000 0.0000 0.0000
# 3 32.6325 58.1841 120.1857 0.0000 0.0000 0.0000
# 4 0.0000 0.0000 0.0000 37.5570 0.0000 0.0000
# 5 0.0000 0.0000 0.0000 0.0000 23.4227 0.0000
# 6 0.0000 0.0000 0.0000 0.0000 0.0000 26.1864
#
#
#
# Elastic Compliance Matrix: (Units=1/GPa)
#
#
# Indices 1 2 3 4 5 6 
#
# 1 0.022849 -0.004912 -0.003826 0.000000 0.000000 0.000000
# 2 -0.004912 0.009805 -0.003413 0.000000 0.000000 0.000000
# 3 -0.003826 -0.003413 0.011011 0.000000 0.000000 0.000000
# 4 0.000000 0.000000 0.000000 0.026626 0.000000 0.000000
# 5 0.000000 0.000000 0.000000 0.000000 0.042694 0.000000
# 6 0.000000 0.000000 0.000000 0.000000 0.000000 0.038188
#
#
# Mechanical properties :
#
#
# Convention : Reuss Voigt Hill
#
# Bulk Modulus (GPa) = 51.64435 64.77176 58.20805
# Shear Modulus (GPa) = 27.48325 30.05840 28.77083
#
# Velocity S-wave (km/s) = 3.83752 4.01328 3.92638
# Velocity P-wave (km/s) = 6.87810 7.49548 7.19342
#
# Compressibility (1/GPa) = 0.01936320
#
# Stress axis : x y z
#
# Youngs Moduli (GPa) = 43.76571 101.99138 90.81481
#
# Poissons Ratio (x) = 0.50102 0.34743
# Poissons Ratio (y) = 0.21500 0.30994
# Poissons Ratio (z) = 0.16743 0.34808
#
# Static dielectric constant tensor:
#      x y z
#    x 3.087070 0.000000 0.000000 
#    y 0.000000 3.756580 0.000000 
#    z 0.000000 0.000000 3.554700 
# 
# 
# High freq. dielectric constant tensor:
#      x y z
#    x 1.684790 0.000000 0.000000 
#    y 0.000000 1.739980 0.000000 
#    z 0.000000 0.000000 1.734450 
# 
# From -- ./inp_files/12428.got.cif
#   From: 2010.03.12/outbox.cif.g09.slc.cpg/sg63_7_cif.got.tgz:12428.got - 2010.04.10 19:34:48.
