data_PCOD8261905
_publ_section_title
;
Structure prediction by ZEFSAII (Michael W. Deem and Ramdas Pophale) SiO2 
 PCOD8261905
Probable space group: C M C A
;
_chemical_formula_sum "Si O2"
_cell_formula_units_Z 96
_cell_length_a 23.311170
_cell_length_b 18.628635
_cell_length_c 11.133212
_cell_angle_alpha 90.000000
_cell_angle_beta 90.000000
_cell_angle_gamma 90.000000
_cell_volume 4834.656065
_symmetry_space_group_name_H-M "C M C A"
_symmetry_group_IT_number 64
_symmetry_cell_setting 'orthorhombic'
loop_
_space_group_symop_operation_xyz
x,y,z
-x,1/2-y,1/2+z
x,-y,-z
-x,1/2+y,1/2-z
-x,-y,-z
x,1/2+y,1/2-z
-x,y,z
x,1/2-y,1/2+z
1/2+x,1/2+y,z
1/2-x,-y,1/2+z
1/2+x,1/2-y,-z
1/2-x,y,1/2-z
1/2-x,1/2-y,-z
1/2+x,y,1/2-z
1/2-x,1/2+y,z
1/2+x,-y,1/2+z
loop_
_atom_site_type_symbol
_atom_site_label
_atom_site_fract_x
_atom_site_fract_y
_atom_site_fract_z
Si Si1 0.345666 0.081735 0.465925
Si Si2 0.263469 0.666828 0.499490
Si Si3 0.138165 0.690352 0.831455
Si Si4 0.562784 0.197470 0.055842
Si Si5 0.936192 0.857591 0.131698
Si Si6 0.341277 0.843600 0.780858
O O1 0.294843 0.125566 0.530677
O O2 0.407637 0.106677 0.514697
O O3 0.343127 0.096542 0.323122
O O4 0.335642 0.000000 0.500000
O O5 0.250000 0.750000 0.500000
O O6 0.309557 0.649228 0.603260
O O7 0.286330 0.644028 0.367230
O O8 0.107902 0.632586 0.742982
O O9 0.162180 0.762636 0.770142
O O10 0.090686 0.713627 0.927780
O O11 0.500000 0.161815 0.040047
O O12 0.556363 0.273032 0.120750
O O13 0.601610 0.145991 0.138530
O O14 0.000000 0.891532 0.152280
#
# Coordination Sequence:
#
# PCOD8261905 Si02
#       6
#    16  16  16  16  16  16
#     4  12  25  41  57  87 122 167 206 243 304 381
#     4  11  21  38  64  89 119 157 201 260 317 365
#     4  10  18  34  61  93 118 149 198 254 317 358
#     4   9  17  31  59  91 118 149 196 261 315 353
#     4  10  21  37  57  85 120 156 199 253 306 363
#     4  10  20  36  57  87 125 154 197 253 309 368
#
# _framework density 19.856635000000001
#
# number of rings (size 3 to 8) (size 9 to 14) (size 15 to 20)
#    0.000    1.667    3.333    3.000    0.000    3.667 
#    6.000    0.000    0.000    0.000    0.000    3.500 
#    0.000    0.000    0.000    0.000    0.000    0.000 
#
# Total GULP energy -595076.812573 kJ/mol
# GULP energy per Si atom -12397.433595 kJ/mol
# Density = 1.981144 g / cm^3
# Si number density = 19.856635 Si / 1000 Ang^3
#
#
#
# Elastic Constant Matrix: (Units=GPa)
#
#
# Indices 1 2 3 4 5 6 
#
# 1 129.2405 29.5530 37.2123 0.0000 0.0000 0.0000
# 2 29.5530 71.3013 14.6030 0.0000 0.0000 0.0000
# 3 37.2123 14.6030 92.5567 0.0000 0.0000 0.0000
# 4 0.0000 0.0000 0.0000 19.2214 0.0000 0.0000
# 5 0.0000 0.0000 0.0000 0.0000 23.8114 0.0000
# 6 0.0000 0.0000 0.0000 0.0000 0.0000 10.6818
#
#
#
# Elastic Compliance Matrix: (Units=1/GPa)
#
#
# Indices 1 2 3 4 5 6 
#
# 1 0.009421 -0.003233 -0.003277 0.000000 0.000000 0.000000
# 2 -0.003233 0.015603 -0.001162 0.000000 0.000000 0.000000
# 3 -0.003277 -0.001162 0.012305 0.000000 0.000000 0.000000
# 4 0.000000 0.000000 0.000000 0.052025 0.000000 0.000000
# 5 0.000000 0.000000 0.000000 0.000000 0.041997 0.000000
# 6 0.000000 0.000000 0.000000 0.000000 0.000000 0.093618
#
#
# Mechanical properties :
#
#
# Convention : Reuss Voigt Hill
#
# Bulk Modulus (GPa) = 45.48824 50.64835 48.06829
# Shear Modulus (GPa) = 20.19047 24.85823 22.52435
#
# Velocity S-wave (km/s) = 3.19221 3.54204 3.37166
# Velocity P-wave (km/s) = 6.04525 6.50311 6.27835
#
# Compressibility (1/GPa) = 0.02198371
#
# Stress axis : x y z
#
# Youngs Moduli (GPa) = 106.15100 64.08974 81.26675
#
# Poissons Ratio (x) = 0.20723 0.26634
# Poissons Ratio (y) = 0.34323 0.09441
# Poissons Ratio (z) = 0.34790 0.07446
#
# Static dielectric constant tensor:
#      x y z
#    x 4.258080 0.000000 0.000000 
#    y 0.000000 3.086900 0.000000 
#    z 0.000000 0.000000 4.176780 
# 
# 
# High freq. dielectric constant tensor:
#      x y z
#    x 1.798800 0.000000 0.000000 
#    y 0.000000 1.701690 0.000000 
#    z 0.000000 0.000000 1.787250 
# 
# From -- ./inp_files/17381.got.cif
#   From: 2010.03.12/outbox.cif.g09.slc.cpg/sg64_9_cif.got.tgz:17381.got - 2010.04.10 20:19:32.
