data_PCOD8261224
_publ_section_title
;
Structure prediction by ZEFSAII (Michael W. Deem and Ramdas Pophale) SiO2 
 PCOD8261224
Probable space group: C M C M
;
_chemical_formula_sum "Si O2"
_cell_formula_units_Z 80
_cell_length_a 28.489281
_cell_length_b 9.536362
_cell_length_c 14.531891
_cell_angle_alpha 90.000000
_cell_angle_beta 90.000000
_cell_angle_gamma 90.000000
_cell_volume 3948.083680
_symmetry_space_group_name_H-M "C M C M"
_symmetry_group_IT_number 63
_symmetry_cell_setting 'orthorhombic'
loop_
_space_group_symop_operation_xyz
x,y,z
-x,-y,1/2+z
x,-y,-z
-x,y,1/2-z
-x,-y,-z
x,y,1/2-z
-x,y,z
x,-y,1/2+z
1/2+x,1/2+y,z
1/2-x,1/2-y,1/2+z
1/2+x,1/2-y,-z
1/2-x,1/2+y,1/2-z
1/2-x,1/2-y,-z
1/2+x,1/2+y,1/2-z
1/2-x,1/2+y,z
1/2+x,1/2-y,1/2+z
loop_
_atom_site_type_symbol
_atom_site_label
_atom_site_fract_x
_atom_site_fract_y
_atom_site_fract_z
Si Si1 0.446015 0.160388 0.488919
Si Si2 0.717316 0.406529 0.140226
Si Si3 0.885839 0.848988 0.357264
Si Si4 0.902435 0.172108 0.143481
Si Si5 0.202245 0.211224 0.141042
O O1 0.500000 0.164730 0.458317
O O2 0.415912 0.234528 0.410240
O O3 0.440794 0.245329 0.584347
O O4 0.429046 0.000000 0.500000
O O5 0.719207 0.415210 0.250000
O O6 0.668555 0.330647 0.112323
O O7 0.762595 0.326809 0.099264
O O8 0.717825 0.562461 0.098208
O O9 0.892199 0.818394 0.250000
O O10 0.902795 0.006918 0.380407
O O11 0.914441 0.195727 0.250000
O O12 0.851987 0.240059 0.116942
O O13 0.207882 0.204793 0.250000
#
# Coordination Sequence:
#
# PCOD8261224 Si02
#       5
#    16  16  16  16  16
#     4  11  25  41  56  79 110 141 178 229 284 333
#     4   8  14  26  47  77 110 141 174 213 258 310
#     4   9  19  37  60  84 110 143 184 226 267 318
#     4   9  19  37  60  84 110 143 184 226 267 318
#     4   8  14  26  47  77 110 141 174 213 258 310
#
# _framework density 20.262995
#
# number of rings (size 3 to 8) (size 9 to 14) (size 15 to 20)
#    0.000    3.000    0.000    3.000    0.000    4.800 
#    0.000    9.000    0.000    0.000    0.000    0.000 
#    0.000    0.000    0.000    0.000    0.000    0.000 
#
# Total GULP energy -495847.509140 kJ/mol
# GULP energy per Si atom -12396.187729 kJ/mol
# Density = 2.021688 g / cm^3
# Si number density = 20.262995 Si / 1000 Ang^3
#
#
#
# Elastic Constant Matrix: (Units=GPa)
#
#
# Indices 1 2 3 4 5 6 
#
# 1 65.4607 35.5301 5.1662 0.0000 0.0000 0.0000
# 2 35.5301 85.4763 20.2239 0.0000 0.0000 0.0000
# 3 5.1662 20.2239 41.7120 0.0000 0.0000 0.0000
# 4 0.0000 0.0000 0.0000 25.2134 0.0000 0.0000
# 5 0.0000 0.0000 0.0000 0.0000 10.9412 0.0000
# 6 0.0000 0.0000 0.0000 0.0000 0.0000 39.3404
#
#
#
# Elastic Compliance Matrix: (Units=1/GPa)
#
#
# Indices 1 2 3 4 5 6 
#
# 1 0.019838 -0.008658 0.001741 0.000000 0.000000 0.000000
# 2 -0.008658 0.016994 -0.007167 0.000000 0.000000 0.000000
# 3 0.001741 -0.007167 0.027233 0.000000 0.000000 0.000000
# 4 0.000000 0.000000 0.000000 0.039661 0.000000 0.000000
# 5 0.000000 0.000000 0.000000 0.000000 0.091398 0.000000
# 6 0.000000 0.000000 0.000000 0.000000 0.000000 0.025419
#
#
# Mechanical properties :
#
#
# Convention : Reuss Voigt Hill
#
# Bulk Modulus (GPa) = 27.85777 34.94327 31.40052
# Shear Modulus (GPa) = 19.18077 23.88093 21.53085
#
# Velocity S-wave (km/s) = 3.08001 3.43672 3.26324
# Velocity P-wave (km/s) = 5.14068 5.74721 5.45238
#
# Compressibility (1/GPa) = 0.03589663
#
# Stress axis : x y z
#
# Youngs Moduli (GPa) = 50.40757 58.84503 36.71986
#
# Poissons Ratio (x) = 0.50948 -0.06392
# Poissons Ratio (y) = 0.43643 0.26317
# Poissons Ratio (z) = -0.08775 0.42174
#
# Static dielectric constant tensor:
#      x y z
#    x 3.674610 0.000000 0.000000 
#    y 0.000000 3.851720 0.000000 
#    z 0.000000 0.000000 3.410460 
# 
# 
# High freq. dielectric constant tensor:
#      x y z
#    x 1.785110 0.000000 0.000000 
#    y 0.000000 1.783560 0.000000 
#    z 0.000000 0.000000 1.783300 
# 
# From -- ./inp_files/48789.got.cif
#   From: 2010.03.12/outbox.cif.g09.slc.cpg/sg63_25_cif.got.tgz:48789.got - 2010.04.10 19:34:48.
