data_PCOD8261460
_publ_section_title
;
Structure prediction by ZEFSAII (Michael W. Deem and Ramdas Pophale) SiO2 
 PCOD8261460
Probable space group: C M C A
;
_chemical_formula_sum "Si O2"
_cell_formula_units_Z 112
_cell_length_a 17.033228
_cell_length_b 18.877117
_cell_length_c 18.399274
_cell_angle_alpha 90.000000
_cell_angle_beta 90.000000
_cell_angle_gamma 90.000000
_cell_volume 5916.070140
_symmetry_space_group_name_H-M "C M C A"
_symmetry_group_IT_number 64
_symmetry_cell_setting 'orthorhombic'
loop_
_space_group_symop_operation_xyz
x,y,z
-x,1/2-y,1/2+z
x,-y,-z
-x,1/2+y,1/2-z
-x,-y,-z
x,1/2+y,1/2-z
-x,y,z
x,1/2-y,1/2+z
1/2+x,1/2+y,z
1/2-x,-y,1/2+z
1/2+x,1/2-y,-z
1/2-x,y,1/2-z
1/2-x,1/2-y,-z
1/2+x,y,1/2-z
1/2-x,1/2+y,z
1/2+x,-y,1/2+z
loop_
_atom_site_type_symbol
_atom_site_label
_atom_site_fract_x
_atom_site_fract_y
_atom_site_fract_z
Si Si1 0.192633 0.040362 0.684140
Si Si2 0.909410 0.865341 0.231567
Si Si3 0.090567 0.598383 0.365834
Si Si4 0.407040 0.261341 0.632592
Si Si5 0.842766 0.547156 0.605398
Si Si6 0.091145 0.662470 0.508516
Si Si7 0.406872 0.095736 0.200304
O O1 0.250000 0.019654 0.750000
O O2 0.142781 0.112459 0.698732
O O3 0.248569 0.056103 0.615713
O O4 0.134080 0.974851 0.670830
O O5 0.878740 0.792105 0.196352
O O6 0.895723 0.927705 0.173480
O O7 0.000000 0.861201 0.254846
O O8 0.139698 0.535556 0.402472
O O9 0.103758 0.666222 0.420698
O O10 0.117147 0.615058 0.283571
O O11 0.000000 0.576229 0.366221
O O12 0.500000 0.264148 0.635497
O O13 0.378354 0.232018 0.553232
O O14 0.374984 0.339764 0.649784
O O15 0.864811 0.591767 0.534818
O O16 0.000000 0.652882 0.528309
O O17 0.500000 0.085244 0.193239
#
# Coordination Sequence:
#
# PCOD8261460 Si02
#       7
#    16  16  16  16  16  16  16
#     4  10  18  27  42  66  94 126 158 194 237 287
#     4   9  15  27  45  65  92 122 157 203 241 280
#     4  10  17  26  47  74  99 124 155 194 251 304
#     4   8  16  29  46  68  96 126 160 199 243 284
#     4  10  17  26  42  67 102 126 152 189 241 293
#     4   9  17  29  47  74  99 126 155 194 246 304
#     4  10  18  30  47  71  98 128 161 203 242 285
#
# _framework density 18.931486
#
# number of rings (size 3 to 8) (size 9 to 14) (size 15 to 20)
#    0.000    2.571    2.857    3.000    0.000    1.143 
#    0.000    3.571    0.000    0.857    3.714    0.000 
#    0.000    4.571    0.000    0.000    0.000    0.000 
#
# Total GULP energy -693804.282485 kJ/mol
# GULP energy per Si atom -12389.362187 kJ/mol
# Density = 1.888840 g / cm^3
# Si number density = 18.931486 Si / 1000 Ang^3
#
#
#
# Elastic Constant Matrix: (Units=GPa)
#
#
# Indices 1 2 3 4 5 6 
#
# 1 50.4363 5.0697 9.0221 0.0000 0.0000 0.0000
# 2 5.0697 38.9251 -9.7715 0.0000 0.0000 0.0000
# 3 9.0221 -9.7715 38.5285 0.0000 0.0000 0.0000
# 4 0.0000 0.0000 0.0000 14.4631 0.0000 0.0000
# 5 0.0000 0.0000 0.0000 0.0000 14.9396 0.0000
# 6 0.0000 0.0000 0.0000 0.0000 0.0000 7.7721
#
#
#
# Elastic Compliance Matrix: (Units=1/GPa)
#
#
# Indices 1 2 3 4 5 6 
#
# 1 0.021350 -0.004310 -0.006093 0.000000 0.000000 0.000000
# 2 -0.004310 0.028307 0.008188 0.000000 0.000000 0.000000
# 3 -0.006093 0.008188 0.029458 0.000000 0.000000 0.000000
# 4 0.000000 0.000000 0.000000 0.069141 0.000000 0.000000
# 5 0.000000 0.000000 0.000000 0.000000 0.066936 0.000000
# 6 0.000000 0.000000 0.000000 0.000000 0.000000 0.128666
#
#
# Mechanical properties :
#
#
# Convention : Reuss Voigt Hill
#
# Bulk Modulus (GPa) = 13.38918 15.17006 14.27962
# Shear Modulus (GPa) = 13.39825 15.67293 14.53559
#
# Velocity S-wave (km/s) = 2.66319 2.88041 2.77393
# Velocity P-wave (km/s) = 4.06750 4.36954 4.22122
#
# Compressibility (1/GPa) = 0.07468715
#
# Stress axis : x y z
#
# Youngs Moduli (GPa) = 46.83823 35.32658 33.94637
#
# Poissons Ratio (x) = 0.15226 0.20682
# Poissons Ratio (y) = 0.20188 -0.27797
# Poissons Ratio (z) = 0.28537 -0.28927
#
# Static dielectric constant tensor:
#      x y z
#    x 3.451290 0.000000 0.000000 
#    y 0.000000 3.451290 0.000000 
#    z 0.000000 0.000000 3.439060 
# 
# 
# High freq. dielectric constant tensor:
#      x y z
#    x 1.714100 0.000000 0.000000 
#    y 0.000000 1.717200 0.000000 
#    z 0.000000 0.000000 1.707400 
# 
# From -- ./inp_files/33606.got.cif
#   From: 2010.03.12/outbox.cif.g09.slc.cpg/sg64_17_cif.got.tgz:33606.got - 2010.04.10 20:19:32.
