data_PCOD8261664
_publ_section_title
;
Structure prediction by ZEFSAII (Michael W. Deem and Ramdas Pophale) SiO2 
 PCOD8261664
Probable space group: C M C A
;
_chemical_formula_sum "Si O2"
_cell_formula_units_Z 88
_cell_length_a 17.544884
_cell_length_b 9.536139
_cell_length_c 26.020316
_cell_angle_alpha 90.000000
_cell_angle_beta 90.000000
_cell_angle_gamma 90.000000
_cell_volume 4353.470846
_symmetry_space_group_name_H-M "C M C A"
_symmetry_group_IT_number 64
_symmetry_cell_setting 'orthorhombic'
loop_
_space_group_symop_operation_xyz
x,y,z
-x,1/2-y,1/2+z
x,-y,-z
-x,1/2+y,1/2-z
-x,-y,-z
x,1/2+y,1/2-z
-x,y,z
x,1/2-y,1/2+z
1/2+x,1/2+y,z
1/2-x,-y,1/2+z
1/2+x,1/2-y,-z
1/2-x,y,1/2-z
1/2-x,1/2-y,-z
1/2+x,y,1/2-z
1/2-x,1/2+y,z
1/2+x,-y,1/2+z
loop_
_atom_site_type_symbol
_atom_site_label
_atom_site_fract_x
_atom_site_fract_y
_atom_site_fract_z
Si Si1 0.801677 0.616762 0.920148
Si Si2 0.802390 0.000000 0.000000
Si Si3 0.869023 0.916304 0.812696
Si Si4 0.338098 0.695817 0.766142
Si Si5 0.783576 0.648960 0.142737
Si Si6 0.914725 0.653795 0.423211
O O1 0.818003 0.460390 0.898336
O O2 0.753416 0.714386 0.882492
O O3 0.884985 0.686232 0.927180
O O4 0.753847 0.611603 0.973072
O O5 0.855269 0.936519 0.955880
O O6 0.882299 0.774696 0.779873
O O7 0.780618 0.936539 0.826719
O O8 0.917956 0.904856 0.864894
O O9 0.885931 0.054466 0.778472
O O10 0.250000 0.667611 0.750000
O O11 0.345086 0.796387 0.816325
O O12 0.000000 0.645723 0.446167
#
# Coordination Sequence:
#
# PCOD8261664 Si02
#       6
#    16   8  16  16  16  16
#     4  11  21  37  66  95 122 158 212 264 306 364
#     4  12  21  42  71  94 116 164 222 262 303 384
#     4  10  20  33  55  85 122 160 207 251 304 367
#     4  10  18  29  55  91 122 156 203 262 306 355
#     4  10  18  33  56  92 125 153 201 263 305 353
#     4  11  25  42  61  90 132 169 202 259 327 379
#
# _framework density 20.213756
#
# number of rings (size 3 to 8) (size 9 to 14) (size 15 to 20)
#    0.000    1.455    5.455    2.455    5.091    0.000 
#    0.000    1.364    0.000    1.091    0.000    0.000 
#    0.000    0.000    0.000    0.000    0.000    0.000 
#
# Total GULP energy -545305.464269 kJ/mol
# GULP energy per Si atom -12393.306006 kJ/mol
# Density = 2.016775 g / cm^3
# Si number density = 20.213756 Si / 1000 Ang^3
#
#
#
# Elastic Constant Matrix: (Units=GPa)
#
#
# Indices 1 2 3 4 5 6 
#
# 1 61.4320 27.4871 28.7358 0.0000 0.0000 0.0000
# 2 27.4871 101.9505 43.5839 0.0000 0.0000 0.0000
# 3 28.7358 43.5839 108.1766 0.0000 0.0000 0.0000
# 4 0.0000 0.0000 0.0000 35.3552 0.0000 0.0000
# 5 0.0000 0.0000 0.0000 0.0000 9.0519 0.0000
# 6 0.0000 0.0000 0.0000 0.0000 0.0000 6.3170
#
#
#
# Elastic Compliance Matrix: (Units=1/GPa)
#
#
# Indices 1 2 3 4 5 6 
#
# 1 0.019685 -0.003711 -0.003734 0.000000 0.000000 0.000000
# 2 -0.003711 0.012549 -0.004070 0.000000 0.000000 0.000000
# 3 -0.003734 -0.004070 0.011876 0.000000 0.000000 0.000000
# 4 0.000000 0.000000 0.000000 0.028284 0.000000 0.000000
# 5 0.000000 0.000000 0.000000 0.000000 0.110474 0.000000
# 6 0.000000 0.000000 0.000000 0.000000 0.000000 0.158303
#
#
# Mechanical properties :
#
#
# Convention : Reuss Voigt Hill
#
# Bulk Modulus (GPa) = 47.43872 52.35251 49.89561
# Shear Modulus (GPa) = 13.46879 21.59498 17.53188
#
# Velocity S-wave (km/s) = 2.58411 3.27208 2.94823
# Velocity P-wave (km/s) = 5.69412 6.34279 6.02719
#
# Compressibility (1/GPa) = 0.02107983
#
# Stress axis : x y z
#
# Youngs Moduli (GPa) = 50.79940 79.68586 84.20405
#
# Poissons Ratio (x) = 0.29572 0.31441
# Poissons Ratio (y) = 0.18852 0.34273
# Poissons Ratio (z) = 0.18968 0.32434
#
# Static dielectric constant tensor:
#      x y z
#    x 3.172740 0.000000 0.000000 
#    y 0.000000 3.820550 0.000000 
#    z 0.000000 0.000000 3.952510 
# 
# 
# High freq. dielectric constant tensor:
#      x y z
#    x 1.721720 0.000000 0.000000 
#    y 0.000000 1.797530 0.000000 
#    z 0.000000 0.000000 1.805680 
# 
# From -- ./inp_files/53556.got.cif
#   From: 2010.03.12/outbox.cif.g09.slc.cpg/sg64_27_cif.got.tgz:53556.got - 2010.04.10 20:19:32.
