data_PCOD8261734
_publ_section_title
;
Structure prediction by ZEFSAII (Michael W. Deem and Ramdas Pophale) SiO2 
 PCOD8261734
Probable space group: C M C A
;
_chemical_formula_sum "Si O2"
_cell_formula_units_Z 80
_cell_length_a 21.546383
_cell_length_b 14.602096
_cell_length_c 14.781093
_cell_angle_alpha 90.000000
_cell_angle_beta 90.000000
_cell_angle_gamma 90.000000
_cell_volume 4650.462260
_symmetry_space_group_name_H-M "C M C A"
_symmetry_group_IT_number 64
_symmetry_cell_setting 'orthorhombic'
loop_
_space_group_symop_operation_xyz
x,y,z
-x,1/2-y,1/2+z
x,-y,-z
-x,1/2+y,1/2-z
-x,-y,-z
x,1/2+y,1/2-z
-x,y,z
x,1/2-y,1/2+z
1/2+x,1/2+y,z
1/2-x,-y,1/2+z
1/2+x,1/2-y,-z
1/2-x,y,1/2-z
1/2-x,1/2-y,-z
1/2+x,y,1/2-z
1/2-x,1/2+y,z
1/2+x,-y,1/2+z
loop_
_atom_site_type_symbol
_atom_site_label
_atom_site_fract_x
_atom_site_fract_y
_atom_site_fract_z
Si Si1 0.801543 0.161423 0.320523
Si Si2 0.369704 0.029260 0.301609
Si Si3 0.630925 0.833044 0.378215
Si Si4 0.500000 0.940511 0.639127
Si Si5 0.788259 0.595185 0.463106
Si Si6 0.000000 0.135625 0.953331
O O1 0.750000 0.194483 0.250000
O O2 0.832935 0.066197 0.286201
O O3 0.852397 0.241247 0.324223
O O4 0.770034 0.146548 0.418167
O O5 0.440506 0.063884 0.295665
O O6 0.342405 0.074402 0.391855
O O7 0.366039 0.918955 0.308785
O O8 0.681359 0.845039 0.457692
O O9 0.562166 0.815821 0.417189
O O10 0.500000 0.860643 0.563046
O O11 0.500000 0.032947 0.581974
O O12 0.761353 0.500000 0.500000
#
# Coordination Sequence:
#
# PCOD8261734 Si02
#       6
#    16  16  16   8  16   8
#     4  10  21  32  45  73 103 130 160 192 240 293
#     4   9  18  31  49  73  97 122 157 203 246 281
#     4  10  18  31  51  73  97 126 164 202 237 281
#     4   9  14  29  52  70  94 119 152 209 248 269
#     4   9  17  31  50  70  94 129 163 195 236 287
#     4   9  16  27  52  76  88 118 167 204 239 277
#
# _framework density 17.202590000000001
#
# number of rings (size 3 to 8) (size 9 to 14) (size 15 to 20)
#    0.000    2.600    2.000    0.600    0.000    4.800 
#    0.000    0.000    0.000    0.000    0.000    1.400 
#    0.000    0.000    0.000    0.000    0.000    0.000 
#
# Total GULP energy -495873.191131 kJ/mol
# GULP energy per Si atom -12396.829778 kJ/mol
# Density = 1.716344 g / cm^3
# Si number density = 17.202590 Si / 1000 Ang^3
#
#
#
# Elastic Constant Matrix: (Units=GPa)
#
#
# Indices 1 2 3 4 5 6 
#
# 1 115.8212 49.4288 40.0692 0.0000 0.0000 0.0000
# 2 49.4288 79.3384 32.4893 0.0000 0.0000 0.0000
# 3 40.0692 32.4893 58.9387 0.0000 0.0000 0.0000
# 4 0.0000 0.0000 0.0000 16.3324 0.0000 0.0000
# 5 0.0000 0.0000 0.0000 0.0000 7.8749 0.0000
# 6 0.0000 0.0000 0.0000 0.0000 0.0000 22.2983
#
#
#
# Elastic Compliance Matrix: (Units=1/GPa)
#
#
# Indices 1 2 3 4 5 6 
#
# 1 0.013087 -0.005825 -0.005686 0.000000 0.000000 0.000000
# 2 -0.005825 0.018871 -0.006443 0.000000 0.000000 0.000000
# 3 -0.005686 -0.006443 0.024384 0.000000 0.000000 0.000000
# 4 0.000000 0.000000 0.000000 0.061228 0.000000 0.000000
# 5 0.000000 0.000000 0.000000 0.000000 0.126986 0.000000
# 6 0.000000 0.000000 0.000000 0.000000 0.000000 0.044846
#
#
# Mechanical properties :
#
#
# Convention : Reuss Voigt Hill
#
# Bulk Modulus (GPa) = 48.93585 55.34142 52.13863
# Shear Modulus (GPa) = 15.05469 18.10852 16.58161
#
# Velocity S-wave (km/s) = 2.96149 3.24800 3.10804
# Velocity P-wave (km/s) = 6.34054 6.80487 6.57680
#
# Compressibility (1/GPa) = 0.02043492
#
# Stress axis : x y z
#
# Youngs Moduli (GPa) = 76.41132 52.98997 41.01042
#
# Poissons Ratio (x) = 0.30866 0.23320
# Poissons Ratio (y) = 0.44508 0.26422
# Poissons Ratio (z) = 0.43450 0.34140
#
# Static dielectric constant tensor:
#      x y z
#    x 3.372440 0.000000 0.000000 
#    y 0.000000 2.956540 0.000000 
#    z 0.000000 0.000000 3.059990 
# 
# 
# High freq. dielectric constant tensor:
#      x y z
#    x 1.671080 0.000000 0.000000 
#    y 0.000000 1.640580 0.000000 
#    z 0.000000 0.000000 1.641330 
# 
# From -- ./inp_files/17065.got.cif
#   From: 2010.03.12/outbox.cif.g09.slc.cpg/sg64_9_cif.got.tgz:17065.got - 2010.04.10 20:19:32.
