data_PCOD8261033
_publ_section_title
;
Structure prediction by ZEFSAII (Michael W. Deem and Ramdas Pophale) SiO2 
 PCOD8261033
Probable space group: C M C M
;
_chemical_formula_sum "Si O2"
_cell_formula_units_Z 96
_cell_length_a 15.881348
_cell_length_b 11.388507
_cell_length_c 25.776536
_cell_angle_alpha 90.000000
_cell_angle_beta 90.000000
_cell_angle_gamma 90.000000
_cell_volume 4662.069133
_symmetry_space_group_name_H-M "C M C M"
_symmetry_group_IT_number 63
_symmetry_cell_setting 'orthorhombic'
loop_
_space_group_symop_operation_xyz
x,y,z
-x,-y,1/2+z
x,-y,-z
-x,y,1/2-z
-x,-y,-z
x,y,1/2-z
-x,y,z
x,-y,1/2+z
1/2+x,1/2+y,z
1/2-x,1/2-y,1/2+z
1/2+x,1/2-y,-z
1/2-x,1/2+y,1/2-z
1/2-x,1/2-y,-z
1/2+x,1/2+y,1/2-z
1/2-x,1/2+y,z
1/2+x,1/2-y,1/2+z
loop_
_atom_site_type_symbol
_atom_site_label
_atom_site_fract_x
_atom_site_fract_y
_atom_site_fract_z
Si Si1 0.316268 0.670869 0.563758
Si Si2 0.000000 0.710691 0.188438
Si Si3 0.909855 0.164936 0.038796
Si Si4 0.364683 0.914902 0.046874
Si Si5 0.000000 0.017478 0.810935
Si Si6 0.664505 0.539754 0.367476
Si Si7 0.344069 0.105840 0.127869
O O1 0.382735 0.634942 0.519775
O O2 0.226043 0.646153 0.538343
O O3 0.328970 0.595731 0.615969
O O4 0.330304 0.804785 0.580312
O O5 0.084248 0.647813 0.167459
O O6 0.000000 0.698410 0.250000
O O7 0.000000 0.846742 0.170663
O O8 0.926101 0.304044 0.046948
O O9 0.844271 0.116499 0.080556
O O10 0.000000 0.103021 0.047976
O O11 0.372034 0.983570 0.101402
O O12 0.388397 0.000000 0.000000
O O13 0.000000 0.010190 0.750000
O O14 0.915888 0.948784 0.829732
O O15 0.753676 0.584042 0.342509
#
# Coordination Sequence:
#
# PCOD8261033 Si02
#       7
#    16   8  16  16   8  16  16
#     4  11  21  37  58  92 126 174 210 248 307 370
#     4  11  26  48  71  97 121 156 216 281 332 382
#     4  12  24  34  56  90 135 174 211 248 304 376
#     4  11  22  37  57  87 133 175 211 249 299 373
#     4  11  24  44  71  96 121 155 216 281 329 379
#     4  11  23  41  63  95 128 169 211 260 320 378
#     4  11  23  40  69  91 130 168 210 264 317 381
#
# _framework density 20.591715000000001
#
# number of rings (size 3 to 8) (size 9 to 14) (size 15 to 20)
#    0.000    0.833    5.833    3.000    3.500    1.667 
#    0.000    0.000    0.000    2.000    0.000    0.000 
#    0.000    0.000    0.000    0.000    0.000    0.000 
#
# Total GULP energy -595074.388444 kJ/mol
# GULP energy per Si atom -12397.383093 kJ/mol
# Density = 2.054485 g / cm^3
# Si number density = 20.591715 Si / 1000 Ang^3
#
#
#
# Elastic Constant Matrix: (Units=GPa)
#
#
# Indices 1 2 3 4 5 6 
#
# 1 151.6003 19.5312 44.2887 0.0000 0.0000 0.0000
# 2 19.5312 56.9661 14.5486 0.0000 0.0000 0.0000
# 3 44.2887 14.5486 64.7692 0.0000 0.0000 0.0000
# 4 0.0000 0.0000 0.0000 24.4636 0.0000 0.0000
# 5 0.0000 0.0000 0.0000 0.0000 25.2436 0.0000
# 6 0.0000 0.0000 0.0000 0.0000 0.0000 26.5513
#
#
#
# Elastic Compliance Matrix: (Units=1/GPa)
#
#
# Indices 1 2 3 4 5 6 
#
# 1 0.008361 -0.001492 -0.005382 0.000000 0.000000 0.000000
# 2 -0.001492 0.018889 -0.003223 0.000000 0.000000 0.000000
# 3 -0.005382 -0.003223 0.019843 0.000000 0.000000 0.000000
# 4 0.000000 0.000000 0.000000 0.040877 0.000000 0.000000
# 5 0.000000 0.000000 0.000000 0.000000 0.039614 0.000000
# 6 0.000000 0.000000 0.000000 0.000000 0.000000 0.037663
#
#
# Mechanical properties :
#
#
# Convention : Reuss Voigt Hill
#
# Bulk Modulus (GPa) = 37.17481 47.78585 42.48033
# Shear Modulus (GPa) = 25.71927 28.24952 26.98440
#
# Velocity S-wave (km/s) = 3.53797 3.70792 3.62394
# Velocity P-wave (km/s) = 5.89764 6.44890 6.17942
#
# Compressibility (1/GPa) = 0.02689994
#
# Stress axis : x y z
#
# Youngs Moduli (GPa) = 119.60585 52.94120 50.39460
#
# Poissons Ratio (x) = 0.07899 0.27122
# Poissons Ratio (y) = 0.17846 0.16240
# Poissons Ratio (z) = 0.64371 0.17061
#
# Static dielectric constant tensor:
#      x y z
#    x 3.833690 0.000000 0.000000 
#    y 0.000000 3.894030 0.000000 
#    z 0.000000 0.000000 3.234340 
# 
# 
# High freq. dielectric constant tensor:
#      x y z
#    x 1.823200 0.000000 0.000000 
#    y 0.000000 1.815140 0.000000 
#    z 0.000000 0.000000 1.760310 
# 
# From -- ./inp_files/63734.got.cif
#   From: 2010.03.12/outbox.cif.g09.slc.cpg/sg63_32_cif.got.tgz:63734.got - 2010.04.10 19:34:48.
