data_PCOD8261010
_publ_section_title
;
Structure prediction by ZEFSAII (Michael W. Deem and Ramdas Pophale) SiO2 
 PCOD8261010
Probable space group: C M C M
;
_chemical_formula_sum "Si O2"
_cell_formula_units_Z 80
_cell_length_a 25.392608
_cell_length_b 9.542301
_cell_length_c 17.780733
_cell_angle_alpha 90.000000
_cell_angle_beta 90.000000
_cell_angle_gamma 90.000000
_cell_volume 4308.341106
_symmetry_space_group_name_H-M "C M C M"
_symmetry_group_IT_number 63
_symmetry_cell_setting 'orthorhombic'
loop_
_space_group_symop_operation_xyz
x,y,z
-x,-y,1/2+z
x,-y,-z
-x,y,1/2-z
-x,-y,-z
x,y,1/2-z
-x,y,z
x,-y,1/2+z
1/2+x,1/2+y,z
1/2-x,1/2-y,1/2+z
1/2+x,1/2-y,-z
1/2-x,1/2+y,1/2-z
1/2-x,1/2-y,-z
1/2+x,1/2+y,1/2-z
1/2-x,1/2+y,z
1/2+x,1/2-y,1/2+z
loop_
_atom_site_type_symbol
_atom_site_label
_atom_site_fract_x
_atom_site_fract_y
_atom_site_fract_z
Si Si1 0.224726 0.231251 0.582187
Si Si2 0.646834 0.925717 0.663135
Si Si3 0.866058 0.990876 0.416017
Si Si4 0.058411 0.215231 0.837907
Si Si5 0.669814 0.763586 0.164151
O O1 0.250000 0.250000 0.500000
O O2 0.191136 0.367605 0.606090
O O3 0.188768 0.093377 0.586136
O O4 0.269693 0.209679 0.643608
O O5 0.662720 0.892250 0.750000
O O6 0.591129 0.854976 0.642245
O O7 0.639045 0.090918 0.650965
O O8 0.911625 0.921053 0.367562
O O9 0.887688 0.000000 0.500000
O O10 0.856701 0.147572 0.387619
O O11 0.053406 0.194604 0.750000
O O12 0.000000 0.227615 0.873838
O O13 0.666464 0.713550 0.250000
#
# Coordination Sequence:
#
# PCOD8261010 Si02
#       5
#    16  16  16  16  16
#     4  11  21  35  53  81 115 155 190 220 273 336
#     4   9  20  36  55  81 111 146 190 234 278 333
#     4  11  22  37  55  85 117 149 188 237 287 340
#     4   9  19  39  63  81 105 147 194 238 288 344
#     4  11  22  35  55  83 117 152 189 234 281 336
#
# _framework density 18.568631
#
# number of rings (size 3 to 8) (size 9 to 14) (size 15 to 20)
#    0.000    1.800    2.000    2.400    0.000    4.400 
#    0.000    1.000    0.000    4.800    0.000    0.000 
#    0.000    0.000    0.000    0.000    0.000    0.000 
#
# Total GULP energy -496078.433263 kJ/mol
# GULP energy per Si atom -12401.960832 kJ/mol
# Density = 1.852637 g / cm^3
# Si number density = 18.568631 Si / 1000 Ang^3
#
#
#
# Elastic Constant Matrix: (Units=GPa)
#
#
# Indices 1 2 3 4 5 6 
#
# 1 127.0039 51.9695 32.6914 0.0000 0.0000 0.0000
# 2 51.9695 120.0889 37.1307 0.0000 0.0000 0.0000
# 3 32.6914 37.1307 67.7799 0.0000 0.0000 0.0000
# 4 0.0000 0.0000 0.0000 26.5263 0.0000 0.0000
# 5 0.0000 0.0000 0.0000 0.0000 22.3910 0.0000
# 6 0.0000 0.0000 0.0000 0.0000 0.0000 7.9212
#
#
#
# Elastic Compliance Matrix: (Units=1/GPa)
#
#
# Indices 1 2 3 4 5 6 
#
# 1 0.010040 -0.003428 -0.002964 0.000000 0.000000 0.000000
# 2 -0.003428 0.011196 -0.004480 0.000000 0.000000 0.000000
# 3 -0.002964 -0.004480 0.018637 0.000000 0.000000 0.000000
# 4 0.000000 0.000000 0.000000 0.037698 0.000000 0.000000
# 5 0.000000 0.000000 0.000000 0.000000 0.044661 0.000000
# 6 0.000000 0.000000 0.000000 0.000000 0.000000 0.126243
#
#
# Mechanical properties :
#
#
# Convention : Reuss Voigt Hill
#
# Bulk Modulus (GPa) = 55.16194 62.05067 58.60631
# Shear Modulus (GPa) = 18.09874 24.23979 21.16926
#
# Velocity S-wave (km/s) = 3.12540 3.61697 3.38013
# Velocity P-wave (km/s) = 6.54184 7.13672 6.84575
#
# Compressibility (1/GPa) = 0.01812844
#
# Stress axis : x y z
#
# Youngs Moduli (GPa) = 99.60560 89.31872 53.65552
#
# Poissons Ratio (x) = 0.30620 0.15905
# Poissons Ratio (y) = 0.34147 0.24036
# Poissons Ratio (z) = 0.29526 0.40013
#
# Static dielectric constant tensor:
#      x y z
#    x 3.518150 0.000000 0.000000 
#    y 0.000000 3.420030 0.000000 
#    z 0.000000 0.000000 3.482220 
# 
# 
# High freq. dielectric constant tensor:
#      x y z
#    x 1.703940 0.000000 0.000000 
#    y 0.000000 1.726860 0.000000 
#    z 0.000000 0.000000 1.724830 
# 
# From -- ./inp_files/48773.got.cif
#   From: 2010.03.12/outbox.cif.g09.slc.cpg/sg63_25_cif.got.tgz:48773.got - 2010.04.10 19:34:48.
