data_PCOD8261791
_publ_section_title
;
Structure prediction by ZEFSAII (Michael W. Deem and Ramdas Pophale) SiO2 
 PCOD8261791
Probable space group: C M C A
;
_chemical_formula_sum "Si O2"
_cell_formula_units_Z 104
_cell_length_a 28.369243
_cell_length_b 8.955696
_cell_length_c 22.052990
_cell_angle_alpha 90.000000
_cell_angle_beta 90.000000
_cell_angle_gamma 90.000000
_cell_volume 5602.921927
_symmetry_space_group_name_H-M "C M C A"
_symmetry_group_IT_number 64
_symmetry_cell_setting 'orthorhombic'
loop_
_space_group_symop_operation_xyz
x,y,z
-x,1/2-y,1/2+z
x,-y,-z
-x,1/2+y,1/2-z
-x,-y,-z
x,1/2+y,1/2-z
-x,y,z
x,1/2-y,1/2+z
1/2+x,1/2+y,z
1/2-x,-y,1/2+z
1/2+x,1/2-y,-z
1/2-x,y,1/2-z
1/2-x,1/2-y,-z
1/2+x,y,1/2-z
1/2-x,1/2+y,z
1/2+x,-y,1/2+z
loop_
_atom_site_type_symbol
_atom_site_label
_atom_site_fract_x
_atom_site_fract_y
_atom_site_fract_z
Si Si1 0.815932 0.047501 0.142803
Si Si2 0.241168 0.120455 0.454608
Si Si3 0.500000 0.432278 0.825321
Si Si4 0.000000 0.290279 0.807597
Si Si5 0.178052 0.279008 0.846294
Si Si6 0.250000 0.862428 0.750000
Si Si7 0.906897 0.196599 0.177341
Si Si8 0.909200 0.950754 0.693216
O O1 0.841873 0.887105 0.143566
O O2 0.779701 0.045828 0.199855
O O3 0.788544 0.066874 0.079601
O O4 0.856871 0.173518 0.143728
O O5 0.250000 0.250000 0.500000
O O6 0.204150 0.167710 0.405339
O O7 0.219365 0.000000 0.500000
O O8 0.500000 0.610915 0.815320
O O9 0.500000 0.338711 0.762565
O O10 0.452139 0.374337 0.859088
O O11 0.953714 0.365690 0.837606
O O12 0.212059 0.266253 0.787481
O O13 0.137446 0.400807 0.841014
O O14 0.915057 0.371103 0.190067
O O15 0.903214 0.098954 0.237876
#
# Coordination Sequence:
#
# PCOD8261791 Si02
#       8
#    16  16   8   8  16   8  16  16
#     4  11  22  36  57  81 114 149 187 234 283 336
#     4  11  24  43  60  79 110 149 198 242 280 330
#     4  10  18  32  52  74 112 150 182 224 272 336
#     4  10  18  32  52  74 112 150 182 224 272 335
#     4  11  22  36  57  81 114 149 187 234 283 335
#     4  10  22  32  56  80 118 142 186 222 290 328
#     4  11  21  33  52  81 115 148 187 224 280 338
#     4  11  21  33  52  81 115 148 187 224 280 339
#
# _framework density 18.561743
#
# number of rings (size 3 to 8) (size 9 to 14) (size 15 to 20)
#    0.000    1.231    3.077    6.462    2.154    1.231 
#    0.000    0.000    0.000    0.000    0.000    2.154 
#    0.000    0.000    0.000    0.000    0.000    0.000 
#
# Total GULP energy -644222.089657 kJ/mol
# GULP energy per Si atom -12388.886340 kJ/mol
# Density = 1.851950 g / cm^3
# Si number density = 18.561743 Si / 1000 Ang^3
#
#
#
# Elastic Constant Matrix: (Units=GPa)
#
#
# Indices 1 2 3 4 5 6 
#
# 1 115.8742 39.4222 25.5836 0.0000 0.0000 0.0000
# 2 39.4222 148.3080 22.1083 0.0000 0.0000 0.0000
# 3 25.5836 22.1083 76.4180 0.0000 0.0000 0.0000
# 4 0.0000 0.0000 0.0000 19.5448 0.0000 0.0000
# 5 0.0000 0.0000 0.0000 0.0000 12.8068 0.0000
# 6 0.0000 0.0000 0.0000 0.0000 0.0000 27.8287
#
#
#
# Elastic Compliance Matrix: (Units=1/GPa)
#
#
# Indices 1 2 3 4 5 6 
#
# 1 0.009992 -0.002254 -0.002693 0.000000 0.000000 0.000000
# 2 -0.002254 0.007555 -0.001431 0.000000 0.000000 0.000000
# 3 -0.002693 -0.001431 0.014401 0.000000 0.000000 0.000000
# 4 0.000000 0.000000 0.000000 0.051165 0.000000 0.000000
# 5 0.000000 0.000000 0.000000 0.000000 0.078083 0.000000
# 6 0.000000 0.000000 0.000000 0.000000 0.000000 0.035934
#
#
# Mechanical properties :
#
#
# Convention : Reuss Voigt Hill
#
# Bulk Modulus (GPa) = 52.10581 57.20314 54.65448
# Shear Modulus (GPa) = 23.11771 28.93514 26.02642
#
# Velocity S-wave (km/s) = 3.53292 3.95252 3.74860
# Velocity P-wave (km/s) = 6.69138 7.19128 6.94583
#
# Compressibility (1/GPa) = 0.01919172
#
# Stress axis : x y z
#
# Youngs Moduli (GPa) = 100.08412 132.35711 69.43745
#
# Poissons Ratio (x) = 0.29840 0.18698
# Poissons Ratio (y) = 0.22564 0.09937
# Poissons Ratio (z) = 0.26951 0.18941
#
# Static dielectric constant tensor:
#      x y z
#    x 4.131460 0.000000 0.000000 
#    y 0.000000 3.508660 0.000000 
#    z 0.000000 0.000000 3.053340 
# 
# 
# High freq. dielectric constant tensor:
#      x y z
#    x 1.733840 0.000000 0.000000 
#    y 0.000000 1.739990 0.000000 
#    z 0.000000 0.000000 1.665320 
# 
# From -- ./inp_files/42105.got.cif
#   From: 2010.03.12/outbox.cif.g09.slc.cpg/sg64_22_cif.got.tgz:42105.got - 2010.04.10 20:19:32.
