data_PCOD8261201
_publ_section_title
;
Structure prediction by ZEFSAII (Michael W. Deem and Ramdas Pophale) SiO2 
 PCOD8261201
Probable space group: C M C M
;
_chemical_formula_sum "Si O2"
_cell_formula_units_Z 56
_cell_length_a 17.630609
_cell_length_b 8.934044
_cell_length_c 14.570918
_cell_angle_alpha 90.000000
_cell_angle_beta 90.000000
_cell_angle_gamma 90.000000
_cell_volume 2295.103711
_symmetry_space_group_name_H-M "C M C M"
_symmetry_group_IT_number 63
_symmetry_cell_setting 'orthorhombic'
loop_
_space_group_symop_operation_xyz
x,y,z
-x,-y,1/2+z
x,-y,-z
-x,y,1/2-z
-x,-y,-z
x,y,1/2-z
-x,y,z
x,-y,1/2+z
1/2+x,1/2+y,z
1/2-x,1/2-y,1/2+z
1/2+x,1/2-y,-z
1/2-x,1/2+y,1/2-z
1/2-x,1/2-y,-z
1/2+x,1/2+y,1/2-z
1/2-x,1/2+y,z
1/2+x,1/2-y,1/2+z
loop_
_atom_site_type_symbol
_atom_site_label
_atom_site_fract_x
_atom_site_fract_y
_atom_site_fract_z
Si Si1 0.858759 0.000000 0.000000
Si Si2 0.413938 0.969884 0.602677
Si Si3 0.704095 0.720340 0.647662
Si Si4 0.874923 0.207512 0.350044
O O1 0.910134 0.891224 0.934328
O O2 0.807949 0.095135 0.929297
O O3 0.500000 0.909324 0.607627
O O4 0.408690 0.126796 0.655279
O O5 0.386631 0.000000 0.500000
O O6 0.360020 0.847369 0.647261
O O7 0.703758 0.647492 0.750000
O O8 0.785321 0.793659 0.628476
O O9 0.892084 0.134589 0.250000
#
# Coordination Sequence:
#
# PCOD8261201 Si02
#       4
#     8  16  16  16
#     4  12  22  38  63  92 133 170 208 274 336 380
#     4  11  24  45  71  98 131 179 230 272 327 399
#     4  11  24  41  66 100 133 174 227 273 327 399
#     4  11  24  41  66 100 133 174 227 273 327 399
#
# _framework density 24.399767000000001
#
# number of rings (size 3 to 8) (size 9 to 14) (size 15 to 20)
#    0.000    0.857    2.857    4.286    4.000    6.857 
#    0.000    2.857    0.000    3.429    0.000    0.000 
#    0.000    0.000    0.000    0.000    0.000    0.000 
#
# Total GULP energy -347103.728980 kJ/mol
# GULP energy per Si atom -12396.561749 kJ/mol
# Density = 2.434423 g / cm^3
# Si number density = 24.399767 Si / 1000 Ang^3
#
#
#
# Elastic Constant Matrix: (Units=GPa)
#
#
# Indices 1 2 3 4 5 6 
#
# 1 74.3142 13.1051 5.1925 0.0000 0.0000 0.0000
# 2 13.1051 118.6662 53.6885 0.0000 0.0000 0.0000
# 3 5.1925 53.6885 195.0570 0.0000 0.0000 0.0000
# 4 0.0000 0.0000 0.0000 29.0343 0.0000 0.0000
# 5 0.0000 0.0000 0.0000 0.0000 3.9013 0.0000
# 6 0.0000 0.0000 0.0000 0.0000 0.0000 25.4476
#
#
#
# Elastic Compliance Matrix: (Units=1/GPa)
#
#
# Indices 1 2 3 4 5 6 
#
# 1 0.013724 -0.001542 0.000059 0.000000 0.000000 0.000000
# 2 -0.001542 0.009799 -0.002656 0.000000 0.000000 0.000000
# 3 0.000059 -0.002656 0.005856 0.000000 0.000000 0.000000
# 4 0.000000 0.000000 0.000000 0.034442 0.000000 0.000000
# 5 0.000000 0.000000 0.000000 0.000000 0.256325 0.000000
# 6 0.000000 0.000000 0.000000 0.000000 0.000000 0.039296
#
#
# Mechanical properties :
#
#
# Convention : Reuss Voigt Hill
#
# Bulk Modulus (GPa) = 47.39144 59.11218 53.25181
# Shear Modulus (GPa) = 13.34204 32.74670 23.04437
#
# Velocity S-wave (km/s) = 2.34093 3.66743 3.07653
# Velocity P-wave (km/s) = 5.17414 6.49712 5.87300
#
# Compressibility (1/GPa) = 0.02110086
#
# Stress axis : x y z
#
# Youngs Moduli (GPa) = 72.86370 102.05078 170.75905
#
# Poissons Ratio (x) = 0.15741 -0.01011
# Poissons Ratio (y) = 0.11239 0.45355
# Poissons Ratio (z) = -0.00431 0.27106
#
# Static dielectric constant tensor:
#      x y z
#    x 3.959730 0.000000 0.000000 
#    y 0.000000 4.382700 0.000000 
#    z 0.000000 0.000000 4.886490 
# 
# 
# High freq. dielectric constant tensor:
#      x y z
#    x 1.932780 0.000000 0.000000 
#    y 0.000000 1.966770 0.000000 
#    z 0.000000 0.000000 2.003430 
# 
# From -- ./inp_files/33245.got.cif
#   From: 2010.03.12/outbox.cif.g09.slc.cpg/sg63_17_cif.got.tgz:33245.got - 2010.04.10 19:34:48.
