data_PCOD8261852
_publ_section_title
;
Structure prediction by ZEFSAII (Michael W. Deem and Ramdas Pophale) SiO2 
 PCOD8261852
Probable space group: C M C A
;
_chemical_formula_sum "Si O2"
_cell_formula_units_Z 112
_cell_length_a 19.565172
_cell_length_b 17.847472
_cell_length_c 17.360650
_cell_angle_alpha 90.000000
_cell_angle_beta 90.000000
_cell_angle_gamma 90.000000
_cell_volume 6062.145573
_symmetry_space_group_name_H-M "C M C A"
_symmetry_group_IT_number 64
_symmetry_cell_setting 'orthorhombic'
loop_
_space_group_symop_operation_xyz
x,y,z
-x,1/2-y,1/2+z
x,-y,-z
-x,1/2+y,1/2-z
-x,-y,-z
x,1/2+y,1/2-z
-x,y,z
x,1/2-y,1/2+z
1/2+x,1/2+y,z
1/2-x,-y,1/2+z
1/2+x,1/2-y,-z
1/2-x,y,1/2-z
1/2-x,1/2-y,-z
1/2+x,y,1/2-z
1/2-x,1/2+y,z
1/2+x,-y,1/2+z
loop_
_atom_site_type_symbol
_atom_site_label
_atom_site_fract_x
_atom_site_fract_y
_atom_site_fract_z
Si Si1 0.181317 0.937466 0.795797
Si Si2 0.921242 0.569998 0.693765
Si Si3 0.632427 0.200615 0.219049
Si Si4 0.753366 0.678150 0.105899
Si Si5 0.839867 0.707437 0.972186
Si Si6 0.079358 0.822217 0.330024
Si Si7 0.075613 0.289895 0.409569
O O1 0.250000 0.963090 0.750000
O O2 0.129467 0.886102 0.745246
O O3 0.204476 0.891132 0.871825
O O4 0.134978 0.006731 0.821464
O O5 0.912312 0.602483 0.780000
O O6 0.902143 0.633933 0.632364
O O7 0.000000 0.542495 0.682218
O O8 0.707737 0.208250 0.181789
O O9 0.622333 0.253798 0.293016
O O10 0.577526 0.222077 0.153329
O O11 0.716056 0.753136 0.079943
O O12 0.804742 0.652726 0.036053
O O13 0.891518 0.662156 0.916112
O O14 0.877476 0.774702 0.017395
O O15 0.000000 0.798736 0.334484
O O16 0.000000 0.296334 0.442224
#
# Coordination Sequence:
#
# PCOD8261852 Si02
#       7
#    16  16  16  16  16  16  16
#     4  10  19  36  54  79 108 144 186 230 268 336
#     4   9  20  37  54  79 114 144 183 234 283 332
#     4   9  17  32  56  75 105 135 180 232 273 317
#     4   9  19  33  52  76 110 140 179 222 270 329
#     4  10  18  33  55  81 107 142 177 226 278 323
#     4  10  19  33  56  86 109 137 186 233 277 333
#     4   9  18  34  53  79 108 140 180 224 278 339
#
# _framework density 18.475307000000001
#
# number of rings (size 3 to 8) (size 9 to 14) (size 15 to 20)
#    0.000    2.571    1.429    1.714    0.000    1.143 
#   10.286    0.714    3.143    4.286    0.000   19.000 
#    0.000    0.000    0.000    0.000    0.000    0.000 
#
# Total GULP energy -693844.579574 kJ/mol
# GULP energy per Si atom -12390.081778 kJ/mol
# Density = 1.843326 g / cm^3
# Si number density = 18.475307 Si / 1000 Ang^3
#
#
#
# Elastic Constant Matrix: (Units=GPa)
#
#
# Indices 1 2 3 4 5 6 
#
# 1 87.6981 51.5890 39.1579 0.0000 0.0000 0.0000
# 2 51.5890 74.6893 21.7053 0.0000 0.0000 0.0000
# 3 39.1579 21.7053 82.5019 0.0000 0.0000 0.0000
# 4 0.0000 0.0000 0.0000 16.6549 0.0000 0.0000
# 5 0.0000 0.0000 0.0000 0.0000 33.4869 0.0000
# 6 0.0000 0.0000 0.0000 0.0000 0.0000 36.2542
#
#
#
# Elastic Compliance Matrix: (Units=1/GPa)
#
#
# Indices 1 2 3 4 5 6 
#
# 1 0.022522 -0.013481 -0.007143 0.000000 0.000000 0.000000
# 2 -0.013481 0.022566 0.000461 0.000000 0.000000 0.000000
# 3 -0.007143 0.000461 0.015390 0.000000 0.000000 0.000000
# 4 0.000000 0.000000 0.000000 0.060042 0.000000 0.000000
# 5 0.000000 0.000000 0.000000 0.000000 0.029862 0.000000
# 6 0.000000 0.000000 0.000000 0.000000 0.000000 0.027583
#
#
# Mechanical properties :
#
#
# Convention : Reuss Voigt Hill
#
# Bulk Modulus (GPa) = 49.61916 52.19928 50.90922
# Shear Modulus (GPa) = 22.22139 26.10835 24.16487
#
# Velocity S-wave (km/s) = 3.47185 3.76326 3.62049
# Velocity P-wave (km/s) = 6.55644 6.87006 6.71508
#
# Compressibility (1/GPa) = 0.02015351
#
# Stress axis : x y z
#
# Youngs Moduli (GPa) = 44.40042 44.31459 64.97770
#
# Poissons Ratio (x) = 0.59739 0.46415
# Poissons Ratio (y) = 0.59854 -0.02999
# Poissons Ratio (z) = 0.31716 -0.02045
#
# Static dielectric constant tensor:
#      x y z
#    x 3.515410 0.000000 0.000000 
#    y 0.000000 3.015540 0.000000 
#    z 0.000000 0.000000 3.586830 
# 
# 
# High freq. dielectric constant tensor:
#      x y z
#    x 1.727140 0.000000 0.000000 
#    y 0.000000 1.671260 0.000000 
#    z 0.000000 0.000000 1.723290 
# 
# From -- ./inp_files/34466.got.cif
#   From: 2010.03.12/outbox.cif.g09.slc.cpg/sg64_18_cif.got.tgz:34466.got - 2010.04.10 20:19:32.
