data_PCOD8261524
_publ_section_title
;
Structure prediction by ZEFSAII (Michael W. Deem and Ramdas Pophale) SiO2 
 PCOD8261524
Probable space group: C M C A
;
_chemical_formula_sum "Si O2"
_cell_formula_units_Z 104
_cell_length_a 26.461636
_cell_length_b 9.608277
_cell_length_c 22.472621
_cell_angle_alpha 90.000000
_cell_angle_beta 90.000000
_cell_angle_gamma 90.000000
_cell_volume 5713.680262
_symmetry_space_group_name_H-M "C M C A"
_symmetry_group_IT_number 64
_symmetry_cell_setting 'orthorhombic'
loop_
_space_group_symop_operation_xyz
x,y,z
-x,1/2-y,1/2+z
x,-y,-z
-x,1/2+y,1/2-z
-x,-y,-z
x,1/2+y,1/2-z
-x,y,z
x,1/2-y,1/2+z
1/2+x,1/2+y,z
1/2-x,-y,1/2+z
1/2+x,1/2-y,-z
1/2-x,y,1/2-z
1/2-x,1/2-y,-z
1/2+x,y,1/2-z
1/2-x,1/2+y,z
1/2+x,-y,1/2+z
loop_
_atom_site_type_symbol
_atom_site_label
_atom_site_fract_x
_atom_site_fract_y
_atom_site_fract_z
Si Si1 0.132712 0.000000 0.000000
Si Si2 0.940792 0.727690 0.284096
Si Si3 0.942502 0.141615 0.088025
Si Si4 0.284319 0.197619 0.553399
Si Si5 0.906778 0.443362 0.066160
Si Si6 0.295874 0.998686 0.930188
Si Si7 0.559263 0.028585 0.185263
O O1 0.097276 0.953099 0.946068
O O2 0.165798 0.126853 0.974324
O O3 0.930602 0.630524 0.341664
O O4 0.917082 0.651867 0.225916
O O5 0.000000 0.749943 0.275712
O O6 0.916535 0.880636 0.293700
O O7 0.937504 0.301298 0.068265
O O8 0.000000 0.093231 0.074421
O O9 0.250000 0.250000 0.500000
O O10 0.298099 0.336765 0.591913
O O11 0.252149 0.088354 0.594723
O O12 0.848062 0.422634 0.084091
O O13 0.929395 0.550995 0.115110
O O14 0.912932 0.500000 0.000000
O O15 0.286597 0.000000 0.000000
O O16 0.500000 0.027778 0.196247
#
# Coordination Sequence:
#
# PCOD8261524 Si02
#       7
#     8  16  16  16  16  16  16
#     4  12  19  30  52  72 108 136 173 210 272 316
#     4   8  16  33  51  68  94 134 182 216 249 293
#     4  10  21  34  48  72 111 150 174 210 261 315
#     4  10  17  30  48  70 101 134 168 212 257 313
#     4  10  19  32  51  77 111 136 177 210 268 320
#     4   9  17  29  47  71 102 127 167 212 258 311
#     4   9  17  32  53  72  98 138 176 219 254 298
#
# _framework density 18.201927999999999
#
# number of rings (size 3 to 8) (size 9 to 14) (size 15 to 20)
#    0.000    2.462    2.308    4.385    0.000    1.231 
#    5.538    0.000    0.000    0.000    0.000    1.077 
#    4.615    0.000    0.000    0.000    0.000    0.000 
#
# Total GULP energy -644215.519919 kJ/mol
# GULP energy per Si atom -12388.759998 kJ/mol
# Density = 1.816050 g / cm^3
# Si number density = 18.201928 Si / 1000 Ang^3
#
#
#
# Elastic Constant Matrix: (Units=GPa)
#
#
# Indices 1 2 3 4 5 6 
#
# 1 67.4169 29.4616 19.4719 0.0000 0.0000 0.0000
# 2 29.4616 77.3333 29.5469 0.0000 0.0000 0.0000
# 3 19.4719 29.5469 87.3642 0.0000 0.0000 0.0000
# 4 0.0000 0.0000 0.0000 24.1341 0.0000 0.0000
# 5 0.0000 0.0000 0.0000 0.0000 2.4856 0.0000
# 6 0.0000 0.0000 0.0000 0.0000 0.0000 29.6254
#
#
#
# Elastic Compliance Matrix: (Units=1/GPa)
#
#
# Indices 1 2 3 4 5 6 
#
# 1 0.018081 -0.006142 -0.001953 0.000000 0.000000 0.000000
# 2 -0.006142 0.016937 -0.004359 0.000000 0.000000 0.000000
# 3 -0.001953 -0.004359 0.013356 0.000000 0.000000 0.000000
# 4 0.000000 0.000000 0.000000 0.041435 0.000000 0.000000
# 5 0.000000 0.000000 0.000000 0.000000 0.402316 0.000000
# 6 0.000000 0.000000 0.000000 0.000000 0.000000 0.033755
#
#
# Mechanical properties :
#
#
# Convention : Reuss Voigt Hill
#
# Bulk Modulus (GPa) = 42.61548 43.23059 42.92303
# Shear Modulus (GPa) = 8.95080 21.49126 15.22103
#
# Velocity S-wave (km/s) = 2.21995 3.43988 2.89490
# Velocity P-wave (km/s) = 5.48036 6.29120 5.89972
#
# Compressibility (1/GPa) = 0.02346565
#
# Stress axis : x y z
#
# Youngs Moduli (GPa) = 55.30570 59.04386 74.87398
#
# Poissons Ratio (x) = 0.36267 0.14620
# Poissons Ratio (y) = 0.33971 0.32637
# Poissons Ratio (z) = 0.10799 0.25737
#
# Static dielectric constant tensor:
#      x y z
#    x 3.442320 0.000000 0.000000 
#    y 0.000000 4.845990 0.000000 
#    z 0.000000 0.000000 3.195330 
# 
# 
# High freq. dielectric constant tensor:
#      x y z
#    x 1.690130 0.000000 0.000000 
#    y 0.000000 1.711030 0.000000 
#    z 0.000000 0.000000 1.661940 
# 
# From -- ./inp_files/46886.got.cif
#   From: 2010.03.12/outbox.cif.g09.slc.cpg/sg64_24_cif.got.tgz:46886.got - 2010.04.10 20:19:32.
