data_PCOD8261179
_publ_section_title
;
Structure prediction by ZEFSAII (Michael W. Deem and Ramdas Pophale) SiO2 
 PCOD8261179
Probable space group: C M C M
;
_chemical_formula_sum "Si O2"
_cell_formula_units_Z 60
_cell_length_a 12.027499
_cell_length_b 13.422513
_cell_length_c 18.254959
_cell_angle_alpha 90.000000
_cell_angle_beta 90.000000
_cell_angle_gamma 90.000000
_cell_volume 2947.067103
_symmetry_space_group_name_H-M "C M C M"
_symmetry_group_IT_number 63
_symmetry_cell_setting 'orthorhombic'
loop_
_space_group_symop_operation_xyz
x,y,z
-x,-y,1/2+z
x,-y,-z
-x,y,1/2-z
-x,-y,-z
x,y,1/2-z
-x,y,z
x,-y,1/2+z
1/2+x,1/2+y,z
1/2-x,1/2-y,1/2+z
1/2+x,1/2-y,-z
1/2-x,1/2+y,1/2-z
1/2-x,1/2-y,-z
1/2+x,1/2+y,1/2-z
1/2-x,1/2+y,z
1/2+x,1/2-y,1/2+z
loop_
_atom_site_type_symbol
_atom_site_label
_atom_site_fract_x
_atom_site_fract_y
_atom_site_fract_z
Si Si1 0.180919 0.500000 0.500000
Si Si2 0.500000 0.100227 0.405865
Si Si3 0.225109 0.071845 0.857977
Si Si4 0.749019 0.103250 0.250000
Si Si5 0.500000 0.686721 0.833568
Si Si6 0.000000 0.406649 0.750000
Si Si7 0.631495 0.193159 0.750000
O O1 0.255933 0.435724 0.444998
O O2 0.107922 0.576616 0.452940
O O3 0.500000 0.216419 0.384845
O O4 0.500000 0.035043 0.328695
O O5 0.105276 0.118546 0.846945
O O6 0.319204 0.141499 0.822414
O O7 0.229148 0.962694 0.822122
O O8 0.622805 0.148161 0.250000
O O9 0.837648 0.191276 0.250000
O O10 0.500000 0.727266 0.750000
O O11 0.500000 0.179663 0.750000
#
# Coordination Sequence:
#
# PCOD8261179 Si02
#       7
#     8   8  16   8   8   4   8
#     4  11  26  43  62 104 138 179 223 282 356 392
#     4  11  24  39  71  94 135 175 233 281 326 416
#     4  11  26  43  69 100 137 179 229 279 339 415
#     4  11  23  42  69 101 134 175 224 288 330 397
#     4  12  23  46  71  99 131 180 241 275 332 405
#     4  12  18  38  76  94 114 184 232 266 328 376
#     4  11  26  42  68 105 136 176 230 284 337 395
#
# _framework density 20.359224000000001
#
# number of rings (size 3 to 8) (size 9 to 14) (size 15 to 20)
#    0.000    0.800    6.000    1.600    9.333    1.600 
#    0.000    0.000    0.000    0.000    0.000    0.000 
#    0.000    0.000    0.000    0.000    0.000    0.000 
#
# Total GULP energy -371831.001069 kJ/mol
# GULP energy per Si atom -12394.366702 kJ/mol
# Density = 2.031289 g / cm^3
# Si number density = 20.359224 Si / 1000 Ang^3
#
#
#
# Elastic Constant Matrix: (Units=GPa)
#
#
# Indices 1 2 3 4 5 6 
#
# 1 182.4760 69.1436 61.4849 0.0000 0.0000 0.0000
# 2 69.1436 128.8381 53.8863 0.0000 0.0000 0.0000
# 3 61.4849 53.8863 176.2440 0.0000 0.0000 0.0000
# 4 0.0000 0.0000 0.0000 24.0570 0.0000 0.0000
# 5 0.0000 0.0000 0.0000 0.0000 -7.0589 0.0000
# 6 0.0000 0.0000 0.0000 0.0000 0.0000 31.4040
#
#
#
# Elastic Compliance Matrix: (Units=1/GPa)
#
#
# Indices 1 2 3 4 5 6 
#
# 1 0.007222 -0.003236 -0.001530 0.000000 0.000000 0.000000
# 2 -0.003236 0.010350 -0.002036 0.000000 0.000000 0.000000
# 3 -0.001530 -0.002036 0.006830 0.000000 0.000000 0.000000
# 4 0.000000 0.000000 0.000000 0.041568 0.000000 0.000000
# 5 0.000000 0.000000 0.000000 0.000000 -0.141666 0.000000
# 6 0.000000 0.000000 0.000000 0.000000 0.000000 0.031843
#
#
# Mechanical properties :
#
#
# Convention : Reuss Voigt Hill
#
# Bulk Modulus (GPa) = 92.60359 95.17642 93.89000
# Shear Modulus (GPa) = -187.61160 29.88329 -78.86416
#
# Velocity S-wave (km/s) = -9.60993 3.83535 -6.23060
# Velocity P-wave (km/s) = 8.80629 8.15250 2.35452
#
# Compressibility (1/GPa) = 0.01079872
#
# Stress axis : x y z
#
# Youngs Moduli (GPa) = 138.46898 96.62219 146.41068
#
# Poissons Ratio (x) = 0.31265 0.22402
# Poissons Ratio (y) = 0.44806 0.29802
# Poissons Ratio (z) = 0.21187 0.19668
#
# Static dielectric constant tensor:
#      x y z
#    x 3.818230 0.000000 0.000000 
#    y 0.000000 3.579230 0.000000 
#    z 0.000000 0.000000 4.056260 
# 
# 
# High freq. dielectric constant tensor:
#      x y z
#    x 1.810930 0.000000 0.000000 
#    y 0.000000 1.790240 0.000000 
#    z 0.000000 0.000000 1.798730 
# 
# From -- ./inp_files/41476.got.cif
#   From: 2010.03.12/outbox.cif.g09.slc.cpg/sg63_21_cif.got.tgz:41476.got - 2010.04.10 19:34:48.
