data_PCOD8261809
_publ_section_title
;
Structure prediction by ZEFSAII (Michael W. Deem and Ramdas Pophale) SiO2 
 PCOD8261809
Probable space group: C M C A
;
_chemical_formula_sum "Si O2"
_cell_formula_units_Z 80
_cell_length_a 14.032382
_cell_length_b 24.824613
_cell_length_c 10.737202
_cell_angle_alpha 90.000000
_cell_angle_beta 90.000000
_cell_angle_gamma 90.000000
_cell_volume 3740.287702
_symmetry_space_group_name_H-M "C M C A"
_symmetry_group_IT_number 64
_symmetry_cell_setting 'orthorhombic'
loop_
_space_group_symop_operation_xyz
x,y,z
-x,1/2-y,1/2+z
x,-y,-z
-x,1/2+y,1/2-z
-x,-y,-z
x,1/2+y,1/2-z
-x,y,z
x,1/2-y,1/2+z
1/2+x,1/2+y,z
1/2-x,-y,1/2+z
1/2+x,1/2-y,-z
1/2-x,y,1/2-z
1/2-x,1/2-y,-z
1/2+x,y,1/2-z
1/2-x,1/2+y,z
1/2+x,-y,1/2+z
loop_
_atom_site_type_symbol
_atom_site_label
_atom_site_fract_x
_atom_site_fract_y
_atom_site_fract_z
Si Si1 0.393322 0.653684 0.561300
Si Si2 0.394311 0.525524 0.135579
Si Si3 0.203299 0.873240 0.947298
Si Si4 0.690917 0.240228 0.375805
Si Si5 0.110592 0.412197 0.303541
O O1 0.500000 0.642147 0.510994
O O2 0.317253 0.639698 0.452212
O O3 0.391743 0.714889 0.614725
O O4 0.365262 0.615285 0.674618
O O5 0.500000 0.546210 0.175091
O O6 0.319785 0.575143 0.139401
O O7 0.359667 0.475017 0.219344
O O8 0.399945 0.500000 0.000000
O O9 0.152367 0.821299 0.883122
O O10 0.166839 0.882009 0.087142
O O11 0.750000 0.249953 0.250000
O O12 0.750000 0.250000 0.500000
O O13 0.000000 0.408750 0.340581
#
# Coordination Sequence:
#
# PCOD8261809 Si02
#       5
#    16  16  16  16  16
#     4  10  20  33  53  81 112 148 187 227 277 341
#     4   8  15  29  51  79 106 139 187 235 277 328
#     4  10  18  32  54  80 113 141 180 234 286 332
#     4  10  21  38  57  80 111 147 190 237 283 336
#     4   9  17  32  56  83 109 143 191 237 278 335
#
# _framework density 21.388729999999999
#
# number of rings (size 3 to 8) (size 9 to 14) (size 15 to 20)
#    0.000    2.600    0.000    4.800    0.000    1.600 
#    0.000   12.000    0.000    5.400    0.000    0.000 
#    0.000    0.000    0.000    0.000    0.000    0.000 
#
# Total GULP energy -495566.270876 kJ/mol
# GULP energy per Si atom -12389.156772 kJ/mol
# Density = 2.134005 g / cm^3
# Si number density = 21.388730 Si / 1000 Ang^3
#
#
#
# Elastic Constant Matrix: (Units=GPa)
#
#
# Indices 1 2 3 4 5 6 
#
# 1 91.3874 49.3048 20.5463 0.0000 0.0000 0.0000
# 2 49.3048 179.8687 28.5165 0.0000 0.0000 0.0000
# 3 20.5463 28.5165 50.4449 0.0000 0.0000 0.0000
# 4 0.0000 0.0000 0.0000 28.2430 0.0000 0.0000
# 5 0.0000 0.0000 0.0000 0.0000 11.9205 0.0000
# 6 0.0000 0.0000 0.0000 0.0000 0.0000 26.6008
#
#
#
# Elastic Compliance Matrix: (Units=1/GPa)
#
#
# Indices 1 2 3 4 5 6 
#
# 1 0.013451 -0.003096 -0.003728 0.000000 0.000000 0.000000
# 2 -0.003096 0.006820 -0.002594 0.000000 0.000000 0.000000
# 3 -0.003728 -0.002594 0.022809 0.000000 0.000000 0.000000
# 4 0.000000 0.000000 0.000000 0.035407 0.000000 0.000000
# 5 0.000000 0.000000 0.000000 0.000000 0.083889 0.000000
# 6 0.000000 0.000000 0.000000 0.000000 0.000000 0.037593
#
#
# Mechanical properties :
#
#
# Convention : Reuss Voigt Hill
#
# Bulk Modulus (GPa) = 41.25049 57.60403 49.42726
# Shear Modulus (GPa) = 22.03748 28.24174 25.13961
#
# Velocity S-wave (km/s) = 3.21336 3.63768 3.43208
# Velocity P-wave (km/s) = 5.75287 6.68087 6.23416
#
# Compressibility (1/GPa) = 0.02424214
#
# Stress axis : x y z
#
# Youngs Moduli (GPa) = 74.34367 146.63733 43.84299
#
# Poissons Ratio (x) = 0.45399 0.16347
# Poissons Ratio (y) = 0.23017 0.11373
# Poissons Ratio (z) = 0.27719 0.38039
#
# Static dielectric constant tensor:
#      x y z
#    x 3.696780 0.000000 0.000000 
#    y 0.000000 5.435160 0.000000 
#    z 0.000000 0.000000 3.596650 
# 
# 
# High freq. dielectric constant tensor:
#      x y z
#    x 1.820960 0.000000 0.000000 
#    y 0.000000 1.861390 0.000000 
#    z 0.000000 0.000000 1.807250 
# 
# From -- ./inp_files/14726.got.cif
#   From: 2010.03.12/outbox.cif.g09.slc.cpg/sg64_8_cif.got.tgz:14726.got - 2010.04.10 20:19:32.
