data_PCOD8261472
_publ_section_title
;
Structure prediction by ZEFSAII (Michael W. Deem and Ramdas Pophale) SiO2 
 PCOD8261472
Probable space group: C M C A
;
_chemical_formula_sum "Si O2"
_cell_formula_units_Z 112
_cell_length_a 18.032742
_cell_length_b 20.630261
_cell_length_c 18.909979
_cell_angle_alpha 90.000000
_cell_angle_beta 90.000000
_cell_angle_gamma 90.000000
_cell_volume 7034.893678
_symmetry_space_group_name_H-M "C M C A"
_symmetry_group_IT_number 64
_symmetry_cell_setting 'orthorhombic'
loop_
_space_group_symop_operation_xyz
x,y,z
-x,1/2-y,1/2+z
x,-y,-z
-x,1/2+y,1/2-z
-x,-y,-z
x,1/2+y,1/2-z
-x,y,z
x,1/2-y,1/2+z
1/2+x,1/2+y,z
1/2-x,-y,1/2+z
1/2+x,1/2-y,-z
1/2-x,y,1/2-z
1/2-x,1/2-y,-z
1/2+x,y,1/2-z
1/2-x,1/2+y,z
1/2+x,-y,1/2+z
loop_
_atom_site_type_symbol
_atom_site_label
_atom_site_fract_x
_atom_site_fract_y
_atom_site_fract_z
Si Si1 0.780863 0.621507 0.177294
Si Si2 0.658695 0.725414 0.149795
Si Si3 0.417487 0.252370 0.060148
Si Si4 0.231956 0.068055 0.034157
Si Si5 0.085344 0.795818 0.708699
Si Si6 0.914991 0.634929 0.459824
Si Si7 0.800892 0.692151 0.973200
O O1 0.750000 0.589338 0.250000
O O2 0.735965 0.687674 0.160699
O O3 0.867131 0.639590 0.190099
O O4 0.770680 0.572703 0.111387
O O5 0.619474 0.741458 0.223876
O O6 0.600840 0.681113 0.106763
O O7 0.675800 0.792456 0.108019
O O8 0.500000 0.234058 0.037691
O O9 0.407830 0.254979 0.144494
O O10 0.397885 0.323594 0.030537
O O11 0.370965 0.193904 0.025598
O O12 0.261842 0.123079 0.980612
O O13 0.142547 0.074961 0.041508
O O14 0.252835 0.000000 0.000000
O O15 0.000000 0.816800 0.721477
O O16 0.000000 0.609509 0.456897
O O17 0.750000 0.750000 0.000000
#
# Coordination Sequence:
#
# PCOD8261472 Si02
#       7
#    16  16  16  16  16  16  16
#     4   9  17  31  50  71  98 130 168 212 255 300
#     4   9  17  27  49  74  99 127 165 207 255 304
#     4   9  16  26  47  72  97 127 159 201 252 303
#     4  11  21  32  52  74 102 138 178 214 255 311
#     4  10  17  26  45  78 104 123 162 212 260 302
#     4   9  17  30  47  71 101 130 163 208 260 306
#     4  11  16  32  51  70 100 131 165 209 256 302
#
# _framework density 15.920639
#
# number of rings (size 3 to 8) (size 9 to 14) (size 15 to 20)
#    0.000    2.286    5.714    0.429    0.000    0.857 
#    0.000    0.000    3.143    1.714    0.000    0.000 
#    0.000    0.000    0.000    0.000    0.000    0.000 
#
# Total GULP energy -694040.678256 kJ/mol
# GULP energy per Si atom -12393.583540 kJ/mol
# Density = 1.588440 g / cm^3
# Si number density = 15.920639 Si / 1000 Ang^3
#
#
#
# Elastic Constant Matrix: (Units=GPa)
#
#
# Indices 1 2 3 4 5 6 
#
# 1 94.1437 29.4222 41.6015 0.0000 0.0000 0.0000
# 2 29.4222 68.8451 40.0089 0.0000 0.0000 0.0000
# 3 41.6015 40.0089 116.7846 0.0000 0.0000 0.0000
# 4 0.0000 0.0000 0.0000 19.9256 0.0000 0.0000
# 5 0.0000 0.0000 0.0000 0.0000 23.5206 0.0000
# 6 0.0000 0.0000 0.0000 0.0000 0.0000 11.8232
#
#
#
# Elastic Compliance Matrix: (Units=1/GPa)
#
#
# Indices 1 2 3 4 5 6 
#
# 1 0.013307 -0.003661 -0.003486 0.000000 0.000000 0.000000
# 2 -0.003661 0.019143 -0.005254 0.000000 0.000000 0.000000
# 3 -0.003486 -0.005254 0.011605 0.000000 0.000000 0.000000
# 4 0.000000 0.000000 0.000000 0.050187 0.000000 0.000000
# 5 0.000000 0.000000 0.000000 0.000000 0.042516 0.000000
# 6 0.000000 0.000000 0.000000 0.000000 0.000000 0.084580
#
#
# Mechanical properties :
#
#
# Convention : Reuss Voigt Hill
#
# Bulk Modulus (GPa) = 51.94159 55.75987 53.85073
# Shear Modulus (GPa) = 19.79755 22.30326 21.05041
#
# Velocity S-wave (km/s) = 3.53018 3.74692 3.64016
# Velocity P-wave (km/s) = 7.02227 7.33614 7.18092
#
# Compressibility (1/GPa) = 0.01925239
#
# Stress axis : x y z
#
# Youngs Moduli (GPa) = 75.15051 52.23745 86.17312
#
# Poissons Ratio (x) = 0.19124 0.30039
# Poissons Ratio (y) = 0.27513 0.45276
# Poissons Ratio (z) = 0.26197 0.27446
#
# Static dielectric constant tensor:
#      x y z
#    x 3.669070 0.000000 0.000000 
#    y 0.000000 2.522290 0.000000 
#    z 0.000000 0.000000 3.394780 
# 
# 
# High freq. dielectric constant tensor:
#      x y z
#    x 1.629540 0.000000 0.000000 
#    y 0.000000 1.538520 0.000000 
#    z 0.000000 0.000000 1.625120 
# 
# From -- ./inp_files/33607.got.cif
#   From: 2010.03.12/outbox.cif.g09.slc.cpg/sg64_17_cif.got.tgz:33607.got - 2010.04.10 20:19:32.
