data_PCOD8261627
_publ_section_title
;
Structure prediction by ZEFSAII (Michael W. Deem and Ramdas Pophale) SiO2 
 PCOD8261627
Probable space group: C M C A
;
_chemical_formula_sum "Si O2"
_cell_formula_units_Z 96
_cell_length_a 28.167837
_cell_length_b 10.136223
_cell_length_c 15.845252
_cell_angle_alpha 90.000000
_cell_angle_beta 90.000000
_cell_angle_gamma 90.000000
_cell_volume 4524.064687
_symmetry_space_group_name_H-M "C M C A"
_symmetry_group_IT_number 64
_symmetry_cell_setting 'orthorhombic'
loop_
_space_group_symop_operation_xyz
x,y,z
-x,1/2-y,1/2+z
x,-y,-z
-x,1/2+y,1/2-z
-x,-y,-z
x,1/2+y,1/2-z
-x,y,z
x,1/2-y,1/2+z
1/2+x,1/2+y,z
1/2-x,-y,1/2+z
1/2+x,1/2-y,-z
1/2-x,y,1/2-z
1/2-x,1/2-y,-z
1/2+x,y,1/2-z
1/2-x,1/2+y,z
1/2+x,-y,1/2+z
loop_
_atom_site_type_symbol
_atom_site_label
_atom_site_fract_x
_atom_site_fract_y
_atom_site_fract_z
Si Si1 0.247239 0.378523 0.555709
Si Si2 0.401865 0.639560 0.845460
Si Si3 0.000000 0.542743 0.835292
Si Si4 0.353404 0.621492 0.136660
Si Si5 0.399437 0.888885 0.145703
Si Si6 0.335955 0.628612 0.335152
Si Si7 0.500000 0.732724 0.824897
O O1 0.264915 0.500000 0.500000
O O2 0.250000 0.250000 0.500000
O O3 0.193894 0.401914 0.584750
O O4 0.281193 0.367740 0.637332
O O5 0.389448 0.497570 0.884417
O O6 0.404004 0.628372 0.745241
O O7 0.361060 0.741514 0.872475
O O8 0.452905 0.693345 0.878073
O O9 0.951964 0.571231 0.889437
O O10 0.000000 0.646551 0.759400
O O11 0.000000 0.389785 0.803481
O O12 0.380173 0.753383 0.105493
O O13 0.339115 0.626315 0.234493
O O14 0.361805 0.002446 0.123879
#
# Coordination Sequence:
#
# PCOD8261627 Si02
#       7
#    16  16   8  16  16  16   8
#     4  12  25  40  59  84 112 147 194 242 293 342
#     4   9  18  30  52  81 117 149 185 225 282 334
#     4  10  18  28  48  84 124 152 180 227 285 339
#     4  10  21  37  56  84 114 152 190 234 282 339
#     4   9  18  30  52  81 117 148 185 227 279 335
#     4  10  19  37  58  82 112 153 188 233 282 339
#     4  10  18  28  48  84 124 153 180 227 287 336
#
# _framework density 21.219857000000001
#
# number of rings (size 3 to 8) (size 9 to 14) (size 15 to 20)
#    0.000    2.000    1.667    2.500    7.000    0.000 
#    0.000    6.667    0.000    0.000    0.000   23.333 
#    0.000    0.000    0.000    0.000    0.000    0.000 
#
# Total GULP energy -595067.922474 kJ/mol
# GULP energy per Si atom -12397.248385 kJ/mol
# Density = 2.117156 g / cm^3
# Si number density = 21.219857 Si / 1000 Ang^3
#
#
#
# Elastic Constant Matrix: (Units=GPa)
#
#
# Indices 1 2 3 4 5 6 
#
# 1 139.4054 42.1011 18.8393 0.0000 0.0000 0.0000
# 2 42.1011 165.9871 17.2420 0.0000 0.0000 0.0000
# 3 18.8393 17.2420 24.0158 0.0000 0.0000 0.0000
# 4 0.0000 0.0000 0.0000 16.4659 0.0000 0.0000
# 5 0.0000 0.0000 0.0000 0.0000 6.8321 0.0000
# 6 0.0000 0.0000 0.0000 0.0000 0.0000 40.2128
#
#
#
# Elastic Compliance Matrix: (Units=1/GPa)
#
#
# Indices 1 2 3 4 5 6 
#
# 1 0.008381 -0.001559 -0.005455 0.000000 0.000000 0.000000
# 2 -0.001559 0.006800 -0.003659 0.000000 0.000000 0.000000
# 3 -0.005455 -0.003659 0.048546 0.000000 0.000000 0.000000
# 4 0.000000 0.000000 0.000000 0.060732 0.000000 0.000000
# 5 0.000000 0.000000 0.000000 0.000000 0.146367 0.000000
# 6 0.000000 0.000000 0.000000 0.000000 0.000000 0.024868
#
#
# Mechanical properties :
#
#
# Convention : Reuss Voigt Hill
#
# Bulk Modulus (GPa) = 23.59604 53.97479 38.78542
# Shear Modulus (GPa) = 15.09811 29.45058 22.27434
#
# Velocity S-wave (km/s) = 2.67031 3.72947 3.24341
# Velocity P-wave (km/s) = 4.54437 6.63599 5.68717
#
# Compressibility (1/GPa) = 0.04237999
#
# Stress axis : x y z
#
# Youngs Moduli (GPa) = 119.31100 147.05636 20.59918
#
# Poissons Ratio (x) = 0.22929 0.11238
# Poissons Ratio (y) = 0.18603 0.07537
# Poissons Ratio (z) = 0.65089 0.53807
#
# Static dielectric constant tensor:
#      x y z
#    x 4.377030 0.000000 0.000000 
#    y 0.000000 4.200550 0.000000 
#    z 0.000000 0.000000 3.204960 
# 
# 
# High freq. dielectric constant tensor:
#      x y z
#    x 1.851430 0.000000 0.000000 
#    y 0.000000 1.853130 0.000000 
#    z 0.000000 0.000000 1.772390 
# 
# From -- ./inp_files/34992.got.cif
#   From: 2010.03.12/outbox.cif.g09.slc.cpg/sg64_18_cif.got.tgz:34992.got - 2010.04.10 20:19:32.
