data_PCOD8261955
_publ_section_title
;
Structure prediction by ZEFSAII (Michael W. Deem and Ramdas Pophale) SiO2 
 PCOD8261955
Probable space group: C M C A
;
_chemical_formula_sum "Si O2"
_cell_formula_units_Z 80
_cell_length_a 28.228931
_cell_length_b 9.494097
_cell_length_c 14.786234
_cell_angle_alpha 90.000000
_cell_angle_beta 90.000000
_cell_angle_gamma 90.000000
_cell_volume 3962.832094
_symmetry_space_group_name_H-M "C M C A"
_symmetry_group_IT_number 64
_symmetry_cell_setting 'orthorhombic'
loop_
_space_group_symop_operation_xyz
x,y,z
-x,1/2-y,1/2+z
x,-y,-z
-x,1/2+y,1/2-z
-x,-y,-z
x,1/2+y,1/2-z
-x,y,z
x,1/2-y,1/2+z
1/2+x,1/2+y,z
1/2-x,-y,1/2+z
1/2+x,1/2-y,-z
1/2-x,y,1/2-z
1/2-x,1/2-y,-z
1/2+x,y,1/2-z
1/2-x,1/2+y,z
1/2+x,-y,1/2+z
loop_
_atom_site_type_symbol
_atom_site_label
_atom_site_fract_x
_atom_site_fract_y
_atom_site_fract_z
Si Si1 0.115503 0.915702 0.317504
Si Si2 0.392065 0.762203 0.853799
Si Si3 0.947538 0.662904 0.977243
Si Si4 0.294591 0.390683 0.424354
Si Si5 0.691566 0.864343 0.455656
O O1 0.096886 0.850554 0.223975
O O2 0.088607 0.824668 0.394146
O O3 0.172073 0.901141 0.335601
O O4 0.103359 0.080589 0.314820
O O5 0.339301 0.725022 0.885999
O O6 0.428088 0.746420 0.937931
O O7 0.000000 0.720262 0.952379
O O8 0.950837 0.500000 0.000000
O O9 0.314774 0.500000 0.500000
O O10 0.295616 0.232062 0.459534
O O11 0.239125 0.421239 0.403823
O O12 0.665209 0.000000 0.500000
#
# Coordination Sequence:
#
# PCOD8261955 Si02
#       5
#    16  16  16  16  16
#     4  11  22  38  60  86 121 155 197 246 299 360
#     4  11  23  38  59  90 121 155 197 245 300 358
#     4   9  19  40  65  84 111 152 195 244 304 361
#     4  10  18  38  59  82 117 162 199 241 292 344
#     4  10  21  34  60  86 117 158 203 242 287 344
#
# _framework density 20.187581999999999
#
# number of rings (size 3 to 8) (size 9 to 14) (size 15 to 20)
#    0.000    1.800    4.000    0.600    2.800    1.600 
#    0.000    2.000    0.000    4.200    0.000    0.000 
#    0.000    0.000    0.000    0.000    0.000    0.000 
#
# Total GULP energy -495761.876584 kJ/mol
# GULP energy per Si atom -12394.046915 kJ/mol
# Density = 2.014163 g / cm^3
# Si number density = 20.187582 Si / 1000 Ang^3
#
#
#
# Elastic Constant Matrix: (Units=GPa)
#
#
# Indices 1 2 3 4 5 6 
#
# 1 97.4310 17.4584 33.3843 0.0000 0.0000 0.0000
# 2 17.4584 93.3155 36.3340 0.0000 0.0000 0.0000
# 3 33.3843 36.3340 90.1914 0.0000 0.0000 0.0000
# 4 0.0000 0.0000 0.0000 41.5937 0.0000 0.0000
# 5 0.0000 0.0000 0.0000 0.0000 12.0402 0.0000
# 6 0.0000 0.0000 0.0000 0.0000 0.0000 18.5618
#
#
#
# Elastic Compliance Matrix: (Units=1/GPa)
#
#
# Indices 1 2 3 4 5 6 
#
# 1 0.011783 -0.000600 -0.004120 0.000000 0.000000 0.000000
# 2 -0.000600 0.012741 -0.004910 0.000000 0.000000 0.000000
# 3 -0.004120 -0.004910 0.014591 0.000000 0.000000 0.000000
# 4 0.000000 0.000000 0.000000 0.024042 0.000000 0.000000
# 5 0.000000 0.000000 0.000000 0.000000 0.083055 0.000000
# 6 0.000000 0.000000 0.000000 0.000000 0.000000 0.053874
#
#
# Mechanical properties :
#
#
# Convention : Reuss Voigt Hill
#
# Bulk Modulus (GPa) = 50.36941 50.58791 50.47866
# Shear Modulus (GPa) = 22.12744 27.35655 24.74199
#
# Velocity S-wave (km/s) = 3.31432 3.68519 3.50466
# Velocity P-wave (km/s) = 6.29691 6.57425 6.43708
#
# Compressibility (1/GPa) = 0.01985332
#
# Stress axis : x y z
#
# Youngs Moduli (GPa) = 84.86948 78.48920 68.53761
#
# Poissons Ratio (x) = 0.04713 0.28234
# Poissons Ratio (y) = 0.05096 0.33654
# Poissons Ratio (z) = 0.34962 0.38541
#
# Static dielectric constant tensor:
#      x y z
#    x 3.875480 0.000000 0.000000 
#    y 0.000000 3.629780 0.000000 
#    z 0.000000 0.000000 3.438680 
# 
# 
# High freq. dielectric constant tensor:
#      x y z
#    x 1.780960 0.000000 0.000000 
#    y 0.000000 1.783610 0.000000 
#    z 0.000000 0.000000 1.759740 
# 
# From -- ./inp_files/19585.got.cif
#   From: 2010.03.12/outbox.cif.g09.slc.cpg/sg64_10_cif.got.tgz:19585.got - 2010.04.10 20:19:32.
