data_PCOD8261041
_publ_section_title
;
Structure prediction by ZEFSAII (Michael W. Deem and Ramdas Pophale) SiO2 
 PCOD8261041
Probable space group: C M C M
;
_chemical_formula_sum "Si O2"
_cell_formula_units_Z 80
_cell_length_a 20.318668
_cell_length_b 10.015382
_cell_length_c 21.450797
_cell_angle_alpha 90.000000
_cell_angle_beta 90.000000
_cell_angle_gamma 90.000000
_cell_volume 4365.220495
_symmetry_space_group_name_H-M "C M C M"
_symmetry_group_IT_number 63
_symmetry_cell_setting 'orthorhombic'
loop_
_space_group_symop_operation_xyz
x,y,z
-x,-y,1/2+z
x,-y,-z
-x,y,1/2-z
-x,-y,-z
x,y,1/2-z
-x,y,z
x,-y,1/2+z
1/2+x,1/2+y,z
1/2-x,1/2-y,1/2+z
1/2+x,1/2-y,-z
1/2-x,1/2+y,1/2-z
1/2-x,1/2-y,-z
1/2+x,1/2+y,1/2-z
1/2-x,1/2+y,z
1/2+x,1/2-y,1/2+z
loop_
_atom_site_type_symbol
_atom_site_label
_atom_site_fract_x
_atom_site_fract_y
_atom_site_fract_z
Si Si1 0.627801 0.031852 0.881094
Si Si2 0.754148 0.123264 0.544496
Si Si3 0.000000 0.612884 0.949616
Si Si4 0.000000 0.860382 0.034254
Si Si5 0.623116 0.285450 0.383323
Si Si6 0.425011 0.030179 0.750000
Si Si7 0.926959 0.783459 0.250000
O O1 0.689070 0.101736 0.914445
O O2 0.563663 0.097848 0.908540
O O3 0.621183 0.069789 0.808349
O O4 0.629767 0.873368 0.892823
O O5 0.750000 0.250000 0.500000
O O6 0.811670 0.140543 0.594441
O O7 0.769494 0.000000 0.500000
O O8 0.000000 0.500000 0.000000
O O9 0.000000 0.757565 0.978378
O O10 0.063209 0.841343 0.076980
O O11 0.000000 0.000000 0.000000
O O12 0.612981 0.327128 0.311371
O O13 0.500000 0.093632 0.750000
O O14 0.436702 0.873629 0.750000
O O15 0.000000 0.849139 0.250000
#
# Coordination Sequence:
#
# PCOD8261041 Si02
#       7
#    16  16   8   8  16   8   8
#     4  11  21  38  63  93 121 159 207 256 302 359
#     4  12  24  40  60  88 130 165 200 248 305 365
#     4  12  20  35  65  87 119 156 206 255 302 355
#     4  12  24  37  59  93 125 158 202 254 312 365
#     4  11  21  39  63  90 124 159 205 257 302 360
#     4   9  18  35  62  96 120 147 200 267 307 348
#     4   9  18  35  64  92 118 153 204 257 303 360
#
# _framework density 18.326678999999999
#
# number of rings (size 3 to 8) (size 9 to 14) (size 15 to 20)
#    0.000    1.000    6.000    2.400    0.000    0.800 
#    0.000    0.000    0.000    4.800    0.000    0.000 
#    0.000    0.000    0.000    0.000    0.000    0.000 
#
# Total GULP energy -495917.179996 kJ/mol
# GULP energy per Si atom -12397.929500 kJ/mol
# Density = 1.828497 g / cm^3
# Si number density = 18.326679 Si / 1000 Ang^3
#
#
#
# Elastic Constant Matrix: (Units=GPa)
#
#
# Indices 1 2 3 4 5 6 
#
# 1 174.6971 51.3600 96.5840 0.0000 0.0000 0.0000
# 2 51.3600 101.6599 67.2831 0.0000 0.0000 0.0000
# 3 96.5840 67.2831 177.6055 0.0000 0.0000 0.0000
# 4 0.0000 0.0000 0.0000 15.4877 0.0000 0.0000
# 5 0.0000 0.0000 0.0000 0.0000 46.0624 0.0000
# 6 0.0000 0.0000 0.0000 0.0000 0.0000 42.8085
#
#
#
# Elastic Compliance Matrix: (Units=1/GPa)
#
#
# Indices 1 2 3 4 5 6 
#
# 1 0.008382 -0.001625 -0.003942 0.000000 0.000000 0.000000
# 2 -0.001625 0.013444 -0.004209 0.000000 0.000000 0.000000
# 3 -0.003942 -0.004209 0.009369 0.000000 0.000000 0.000000
# 4 0.000000 0.000000 0.000000 0.064567 0.000000 0.000000
# 5 0.000000 0.000000 0.000000 0.000000 0.021710 0.000000
# 6 0.000000 0.000000 0.000000 0.000000 0.000000 0.023360
#
#
# Mechanical properties :
#
#
# Convention : Reuss Voigt Hill
#
# Bulk Modulus (GPa) = 85.90508 98.26852 92.08680
# Shear Modulus (GPa) = 30.43874 36.78741 33.61308
#
# Velocity S-wave (km/s) = 4.07983 4.48517 4.28729
# Velocity P-wave (km/s) = 8.31682 8.97548 8.65242
#
# Compressibility (1/GPa) = 0.01164076
#
# Stress axis : x y z
#
# Youngs Moduli (GPa) = 119.30923 74.38501 106.73679
#
# Poissons Ratio (x) = 0.12090 0.42079
# Poissons Ratio (y) = 0.19392 0.44926
# Poissons Ratio (z) = 0.47035 0.31309
#
# Static dielectric constant tensor:
#      x y z
#    x 3.415420 0.000000 0.000000 
#    y 0.000000 3.215170 0.000000 
#    z 0.000000 0.000000 3.784520 
# 
# 
# High freq. dielectric constant tensor:
#      x y z
#    x 1.721370 0.000000 0.000000 
#    y 0.000000 1.685610 0.000000 
#    z 0.000000 0.000000 1.731210 
# 
# From -- ./inp_files/64351.got.cif
#   From: 2010.03.12/outbox.cif.g09.slc.cpg/sg63_33_cif.got.tgz:64351.got - 2010.04.10 19:34:48.
