data_PCOD8261286
_publ_section_title
;
Structure prediction by ZEFSAII (Michael W. Deem and Ramdas Pophale) SiO2 
 PCOD8261286
Probable space group: C M C M
;
_chemical_formula_sum "Si O2"
_cell_formula_units_Z 96
_cell_length_a 30.700128
_cell_length_b 26.795304
_cell_length_c 9.372374
_cell_angle_alpha 90.000000
_cell_angle_beta 90.000000
_cell_angle_gamma 90.000000
_cell_volume 7709.895389
_symmetry_space_group_name_H-M "C M C M"
_symmetry_group_IT_number 63
_symmetry_cell_setting 'orthorhombic'
loop_
_space_group_symop_operation_xyz
x,y,z
-x,-y,1/2+z
x,-y,-z
-x,y,1/2-z
-x,-y,-z
x,y,1/2-z
-x,y,z
x,-y,1/2+z
1/2+x,1/2+y,z
1/2-x,1/2-y,1/2+z
1/2+x,1/2-y,-z
1/2-x,1/2+y,1/2-z
1/2-x,1/2-y,-z
1/2+x,1/2+y,1/2-z
1/2-x,1/2+y,z
1/2+x,1/2-y,1/2+z
loop_
_atom_site_type_symbol
_atom_site_label
_atom_site_fract_x
_atom_site_fract_y
_atom_site_fract_z
Si Si1 0.249087 0.674083 0.910740
Si Si2 0.314352 0.731627 0.089058
Si Si3 0.548715 0.140858 0.419928
Si Si4 0.621905 0.788360 0.590672
Si Si5 0.314426 0.881942 0.591881
Si Si6 0.107744 0.550749 0.081677
O O1 0.262724 0.659845 0.750000
O O2 0.217236 0.721112 0.910030
O O3 0.292224 0.686755 0.001076
O O4 0.225032 0.626479 0.981491
O O5 0.323585 0.713486 0.250000
O O6 0.360239 0.745680 0.014837
O O7 0.548420 0.140122 0.250000
O O8 0.500000 0.144132 0.483532
O O9 0.576131 0.189693 0.469122
O O10 0.571600 0.090117 0.473631
O O11 0.616425 0.765700 0.750000
O O12 0.655616 0.833467 0.598519
O O13 0.294919 0.891306 0.750000
O O14 0.343976 0.928774 0.543541
O O15 0.103425 0.541799 0.250000
O O16 0.098878 0.500000 0.000000
#
# Coordination Sequence:
#
# PCOD8261286 Si02
#       6
#    16  16  16  16  16  16
#     4   9  15  21  31  47  63  79  99 119 139 171
#     4   9  15  21  30  45  65  84  97 113 141 177
#     4   8  14  25  39  51  62  79 104 134 170 208
#     4   8  13  22  35  47  59  77 101 126 150 183
#     4   8  14  24  34  44  60  80  99 121 153 189
#     4   9  17  27  38  50  63  80 103 133 169 208
#
# _framework density 12.451530999999999
#
# number of rings (size 3 to 8) (size 9 to 14) (size 15 to 20)
#    0.000    3.500    0.000    3.000    0.000    5.000 
#    0.000    2.500    0.000    1.500    0.000    0.000 
#    0.000    0.000    0.000    0.000    0.000    0.000 
#
# Total GULP energy -594834.879524 kJ/mol
# GULP energy per Si atom -12392.393323 kJ/mol
# Density = 1.242319 g / cm^3
# Si number density = 12.451531 Si / 1000 Ang^3
#
#
#
# Elastic Constant Matrix: (Units=GPa)
#
#
# Indices 1 2 3 4 5 6 
#
# 1 78.9473 42.9252 44.6453 0.0000 0.0000 0.0000
# 2 42.9252 24.1481 24.6690 0.0000 0.0000 0.0000
# 3 44.6453 24.6690 74.5673 0.0000 0.0000 0.0000
# 4 0.0000 0.0000 0.0000 16.4236 0.0000 0.0000
# 5 0.0000 0.0000 0.0000 0.0000 12.1674 0.0000
# 6 0.0000 0.0000 0.0000 0.0000 0.0000 15.1539
#
#
#
# Elastic Compliance Matrix: (Units=1/GPa)
#
#
# Indices 1 2 3 4 5 6 
#
# 1 0.380001 -0.669235 -0.006113 0.000000 0.000000 0.000000
# 2 -0.669235 1.241171 -0.009927 0.000000 0.000000 0.000000
# 3 -0.006113 -0.009927 0.020355 0.000000 0.000000 0.000000
# 4 0.000000 0.000000 0.000000 0.060888 0.000000 0.000000
# 5 0.000000 0.000000 0.000000 0.000000 0.082187 0.000000
# 6 0.000000 0.000000 0.000000 0.000000 0.000000 0.065990
#
#
# Mechanical properties :
#
#
# Convention : Reuss Voigt Hill
#
# Bulk Modulus (GPa) = 3.69038 44.68243 24.18641
# Shear Modulus (GPa) = 1.50990 13.11052 7.31021
#
# Velocity S-wave (km/s) = 1.10239 3.24840 2.42563
# Velocity P-wave (km/s) = 2.14256 7.07336 5.22604
#
# Compressibility (1/GPa) = 0.27097452
#
# Stress axis : x y z
#
# Youngs Moduli (GPa) = 2.63158 0.80569 49.12768
#
# Poissons Ratio (x) = 0.53920 0.30034
# Poissons Ratio (y) = 1.76114 0.48770
# Poissons Ratio (z) = 0.01609 0.00800
#
# Static dielectric constant tensor:
#      x y z
#    x 2.641160 0.000000 0.000000 
#    y 0.000000 2.254320 0.000000 
#    z 0.000000 0.000000 2.620130 
# 
# 
# High freq. dielectric constant tensor:
#      x y z
#    x 1.449030 0.000000 0.000000 
#    y 0.000000 1.421440 0.000000 
#    z 0.000000 0.000000 1.471760 
# 
# From -- ./inp_files/24267.got.cif
#   From: 2010.03.12/outbox.cif.g09.slc.cpg/sg63_13_cif.got.tgz:24267.got - 2010.04.10 19:34:48.
