data_PCOD8261867
_publ_section_title
;
Structure prediction by ZEFSAII (Michael W. Deem and Ramdas Pophale) SiO2 
 PCOD8261867
Probable space group: C M C A
;
_chemical_formula_sum "Si O2"
_cell_formula_units_Z 64
_cell_length_a 8.791032
_cell_length_b 15.154411
_cell_length_c 27.164005
_cell_angle_alpha 90.000000
_cell_angle_beta 90.000000
_cell_angle_gamma 90.000000
_cell_volume 3618.867849
_symmetry_space_group_name_H-M "C M C A"
_symmetry_group_IT_number 64
_symmetry_cell_setting 'orthorhombic'
loop_
_space_group_symop_operation_xyz
x,y,z
-x,1/2-y,1/2+z
x,-y,-z
-x,1/2+y,1/2-z
-x,-y,-z
x,1/2+y,1/2-z
-x,y,z
x,1/2-y,1/2+z
1/2+x,1/2+y,z
1/2-x,-y,1/2+z
1/2+x,1/2-y,-z
1/2-x,y,1/2-z
1/2-x,1/2-y,-z
1/2+x,y,1/2-z
1/2-x,1/2+y,z
1/2+x,-y,1/2+z
loop_
_atom_site_type_symbol
_atom_site_label
_atom_site_fract_x
_atom_site_fract_y
_atom_site_fract_z
Si Si1 0.672186 0.421547 0.609220
Si Si2 0.179317 0.498078 0.303358
Si Si3 0.680050 0.231853 0.447441
Si Si4 0.328028 0.613694 0.622321
O O1 0.500000 0.385407 0.613696
O O2 0.752096 0.421857 0.663319
O O3 0.767386 0.363239 0.571356
O O4 0.672923 0.523194 0.589634
O O5 0.250000 0.505062 0.250000
O O6 0.226536 0.404107 0.328665
O O7 0.000000 0.506938 0.300070
O O8 0.500000 0.235412 0.451978
O O9 0.750000 0.250000 0.500000
O O10 0.740258 0.306471 0.409555
O O11 0.500000 0.635620 0.639309
#
# Coordination Sequence:
#
# PCOD8261867 Si02
#       4
#    16  16  16  16
#     4   9  19  37  56  79 110 143 181 224 270 319
#     4  10  18  33  58  83 109 142 179 220 270 323
#     4  11  22  37  56  81 111 145 183 225 272 323
#     4   8  19  37  55  77 111 145 178 221 270 320
#
# _framework density 17.685089999999999
#
# number of rings (size 3 to 8) (size 9 to 14) (size 15 to 20)
#    1.500    1.000    0.000    3.000    0.000    3.000 
#    0.000    6.250    0.000    6.000    0.000    0.000 
#    0.000    0.000    0.000    0.000    0.000    0.000 
#
# Total GULP energy -396470.148020 kJ/mol
# GULP energy per Si atom -12389.692126 kJ/mol
# Density = 1.764484 g / cm^3
# Si number density = 17.685090 Si / 1000 Ang^3
#
#
#
# Elastic Constant Matrix: (Units=GPa)
#
#
# Indices 1 2 3 4 5 6 
#
# 1 103.6491 16.3082 36.3274 0.0000 0.0000 0.0000
# 2 16.3082 40.8709 1.9764 0.0000 0.0000 0.0000
# 3 36.3274 1.9764 70.2609 0.0000 0.0000 0.0000
# 4 0.0000 0.0000 0.0000 31.6125 0.0000 0.0000
# 5 0.0000 0.0000 0.0000 0.0000 35.3559 0.0000
# 6 0.0000 0.0000 0.0000 0.0000 0.0000 26.7661
#
#
#
# Elastic Compliance Matrix: (Units=1/GPa)
#
#
# Indices 1 2 3 4 5 6 
#
# 1 0.012636 -0.004732 -0.006400 0.000000 0.000000 0.000000
# 2 -0.004732 0.026273 0.001708 0.000000 0.000000 0.000000
# 3 -0.006400 0.001708 0.017494 0.000000 0.000000 0.000000
# 4 0.000000 0.000000 0.000000 0.031633 0.000000 0.000000
# 5 0.000000 0.000000 0.000000 0.000000 0.028284 0.000000
# 6 0.000000 0.000000 0.000000 0.000000 0.000000 0.037361
#
#
# Mechanical properties :
#
#
# Convention : Reuss Voigt Hill
#
# Bulk Modulus (GPa) = 26.62895 36.00055 31.31475
# Shear Modulus (GPa) = 27.02024 29.42484 28.22254
#
# Velocity S-wave (km/s) = 3.91302 4.08342 3.99913
# Velocity P-wave (km/s) = 5.95866 6.52940 6.25055
#
# Compressibility (1/GPa) = 0.03755311
#
# Stress axis : x y z
#
# Youngs Moduli (GPa) = 79.14144 38.06192 57.16371
#
# Poissons Ratio (x) = 0.18012 0.36584
# Poissons Ratio (y) = 0.37452 -0.09762
# Poissons Ratio (z) = 0.50650 -0.06500
#
# Static dielectric constant tensor:
#      x y z
#    x 3.547040 0.000000 0.000000 
#    y 0.000000 3.433040 0.000000 
#    z 0.000000 0.000000 4.370830 
# 
# 
# High freq. dielectric constant tensor:
#      x y z
#    x 1.696520 0.000000 0.000000 
#    y 0.000000 1.665080 0.000000 
#    z 0.000000 0.000000 1.669240 
# 
# From -- ./inp_files/42562.got.cif
#   From: 2010.03.12/outbox.cif.g09.slc.cpg/sg64_22_cif.got.tgz:42562.got - 2010.04.10 20:19:32.
