data_PCOD8261006
_publ_section_title
;
Structure prediction by ZEFSAII (Michael W. Deem and Ramdas Pophale) SiO2 
 PCOD8261006
Probable space group: C M C M
;
_chemical_formula_sum "Si O2"
_cell_formula_units_Z 64
_cell_length_a 8.642209
_cell_length_b 18.813384
_cell_length_c 20.814076
_cell_angle_alpha 90.000000
_cell_angle_beta 90.000000
_cell_angle_gamma 90.000000
_cell_volume 3384.143893
_symmetry_space_group_name_H-M "C M C M"
_symmetry_group_IT_number 63
_symmetry_cell_setting 'orthorhombic'
loop_
_space_group_symop_operation_xyz
x,y,z
-x,-y,1/2+z
x,-y,-z
-x,y,1/2-z
-x,-y,-z
x,y,1/2-z
-x,y,z
x,-y,1/2+z
1/2+x,1/2+y,z
1/2-x,1/2-y,1/2+z
1/2+x,1/2-y,-z
1/2-x,1/2+y,1/2-z
1/2-x,1/2-y,-z
1/2+x,1/2+y,1/2-z
1/2-x,1/2+y,z
1/2+x,1/2-y,1/2+z
loop_
_atom_site_type_symbol
_atom_site_label
_atom_site_fract_x
_atom_site_fract_y
_atom_site_fract_z
Si Si1 0.668522 0.585960 0.250000
Si Si2 0.682705 0.078830 0.616915
Si Si3 0.183515 0.827982 0.005326
Si Si4 0.171109 0.082114 0.750000
Si Si5 0.815344 0.075121 0.387170
O O1 0.500000 0.622749 0.250000
O O2 0.652216 0.501668 0.250000
O O3 0.751526 0.605137 0.181967
O O4 0.500000 0.075179 0.614948
O O5 0.743835 0.136323 0.567298
O O6 0.736084 0.105883 0.686832
O O7 0.748399 0.002130 0.597086
O O8 0.000000 0.826632 0.011659
O O9 0.250000 0.750000 0.000000
O O10 0.236557 0.871015 0.942155
O O11 0.000000 0.117340 0.750000
O O12 0.000000 0.067241 0.382136
#
# Coordination Sequence:
#
# PCOD8261006 Si02
#       5
#     8  16  16   8  16
#     4   7  12  27  52  79 102 127 167 217 265 313
#     4  11  21  34  56  85 112 140 179 225 272 325
#     4  11  23  38  54  75 108 149 190 230 275 325
#     4   9  17  33  56  81 110 141 175 219 269 321
#     4   9  18  34  57  81 106 141 181 222 272 327
#
# _framework density 18.911726000000002
#
# number of rings (size 3 to 8) (size 9 to 14) (size 15 to 20)
#    0.000    2.250    0.000    5.625    0.000    5.000 
#    0.000    1.250    0.000    3.000    0.000    0.000 
#    0.000    0.000    0.000    0.000    0.000    0.000 
#
# Total GULP energy -396616.956825 kJ/mol
# GULP energy per Si atom -12394.279901 kJ/mol
# Density = 1.886868 g / cm^3
# Si number density = 18.911726 Si / 1000 Ang^3
#
#
#
# Elastic Constant Matrix: (Units=GPa)
#
#
# Indices 1 2 3 4 5 6 
#
# 1 78.2692 39.0028 47.5394 0.0000 0.0000 0.0000
# 2 39.0028 108.7462 84.6843 0.0000 0.0000 0.0000
# 3 47.5394 84.6843 189.0032 0.0000 0.0000 0.0000
# 4 0.0000 0.0000 0.0000 -0.6875 0.0000 0.0000
# 5 0.0000 0.0000 0.0000 0.0000 23.6944 0.0000
# 6 0.0000 0.0000 0.0000 0.0000 0.0000 26.7991
#
#
#
# Elastic Compliance Matrix: (Units=1/GPa)
#
#
# Indices 1 2 3 4 5 6 
#
# 1 0.016159 -0.004040 -0.002254 0.000000 0.000000 0.000000
# 2 -0.004040 0.015134 -0.005765 0.000000 0.000000 0.000000
# 3 -0.002254 -0.005765 0.008441 0.000000 0.000000 0.000000
# 4 0.000000 0.000000 0.000000 -1.454548 0.000000 0.000000
# 5 0.000000 0.000000 0.000000 0.000000 0.042204 0.000000
# 6 0.000000 0.000000 0.000000 0.000000 0.000000 0.037315
#
#
# Mechanical properties :
#
#
# Convention : Reuss Voigt Hill
#
# Bulk Modulus (GPa) = 64.03844 79.83017 71.93430
# Shear Modulus (GPa) = -3.82856 23.61398 9.89271
#
# Velocity S-wave (km/s) = -1.42437 3.53745 2.28962
# Velocity P-wave (km/s) = 5.58840 7.68039 6.71634
#
# Compressibility (1/GPa) = 0.01561562
#
# Stress axis : x y z
#
# Youngs Moduli (GPa) = 61.88566 66.07699 118.47225
#
# Poissons Ratio (x) = 0.26696 0.26706
# Poissons Ratio (y) = 0.25002 0.68295
# Poissons Ratio (z) = 0.13950 0.38091
#
# Static dielectric constant tensor:
#      x y z
#    x 3.384990 0.000000 0.000000 
#    y 0.000000 3.140000 0.000000 
#    z 0.000000 0.000000 4.186760 
# 
# 
# High freq. dielectric constant tensor:
#      x y z
#    x 1.727090 0.000000 0.000000 
#    y 0.000000 1.697770 0.000000 
#    z 0.000000 0.000000 1.764470 
# 
# From -- ./inp_files/50370.got.cif
#   From: 2010.03.12/outbox.cif.g09.slc.cpg/sg63_26_cif.got.tgz:50370.got - 2010.04.10 19:34:48.
