data_PCOD8261652
_publ_section_title
;
Structure prediction by ZEFSAII (Michael W. Deem and Ramdas Pophale) SiO2 
 PCOD8261652
Probable space group: C M C A
;
_chemical_formula_sum "Si O2"
_cell_formula_units_Z 128
_cell_length_a 17.863869
_cell_length_b 18.769294
_cell_length_c 23.393917
_cell_angle_alpha 90.000000
_cell_angle_beta 90.000000
_cell_angle_gamma 90.000000
_cell_volume 7843.798114
_symmetry_space_group_name_H-M "C M C A"
_symmetry_group_IT_number 64
_symmetry_cell_setting 'orthorhombic'
loop_
_space_group_symop_operation_xyz
x,y,z
-x,1/2-y,1/2+z
x,-y,-z
-x,1/2+y,1/2-z
-x,-y,-z
x,1/2+y,1/2-z
-x,y,z
x,1/2-y,1/2+z
1/2+x,1/2+y,z
1/2-x,-y,1/2+z
1/2+x,1/2-y,-z
1/2-x,y,1/2-z
1/2-x,1/2-y,-z
1/2+x,y,1/2-z
1/2-x,1/2+y,z
1/2+x,-y,1/2+z
loop_
_atom_site_type_symbol
_atom_site_label
_atom_site_fract_x
_atom_site_fract_y
_atom_site_fract_z
Si Si1 0.585960 0.492494 0.262167
Si Si2 0.171762 0.772967 0.664347
Si Si3 0.335177 0.144683 0.738735
Si Si4 0.087110 0.648733 0.068050
Si Si5 0.845670 0.246318 0.658753
Si Si6 0.412938 0.345896 0.436203
Si Si7 0.085726 0.149214 0.236941
Si Si8 0.088804 0.496494 0.109607
O O1 0.500000 0.472641 0.268005
O O2 0.623529 0.429107 0.227044
O O3 0.599136 0.565318 0.227917
O O4 0.620147 0.498043 0.325931
O O5 0.150690 0.692278 0.682229
O O6 0.133656 0.794212 0.604886
O O7 0.261328 0.775861 0.659444
O O8 0.143089 0.824954 0.714356
O O9 0.250000 0.126449 0.750000
O O10 0.364761 0.185311 0.794899
O O11 0.117497 0.568303 0.078343
O O12 0.000000 0.654246 0.085481
O O13 0.099968 0.669356 0.002606
O O14 0.867218 0.215175 0.597117
O O15 0.897732 0.313286 0.676270
O O16 0.500000 0.340458 0.419278
O O17 0.381693 0.425033 0.421582
O O18 0.000000 0.163358 0.256723
O O19 0.000000 0.497289 0.107202
#
# Coordination Sequence:
#
# PCOD8261652 Si02
#       8
#    16  16  16  16  16  16  16  16
#     4  10  18  29  49  73  94 123 157 189 237 289
#     4  10  20  33  47  69  99 129 161 196 234 284
#     4   9  19  32  46  67  96 127 156 192 231 281
#     4  10  19  32  50  73  97 126 162 196 238 285
#     4  10  20  33  47  70  99 128 163 194 235 283
#     4  10  19  31  51  73  96 128 161 196 239 284
#     4  10  19  32  50  71  98 126 158 199 236 282
#     4   9  16  29  47  73 100 120 152 196 238 287
#
# _framework density 16.318624
#
# number of rings (size 3 to 8) (size 9 to 14) (size 15 to 20)
#    0.000    2.250    2.500    2.250    0.000    5.500 
#    0.000    0.000    0.000    0.000    0.000    0.875 
#    0.000    4.000    0.000    0.000    0.000    0.250 
#
# Total GULP energy -793438.639756 kJ/mol
# GULP energy per Si atom -12397.478746 kJ/mol
# Density = 1.628148 g / cm^3
# Si number density = 16.318624 Si / 1000 Ang^3
#
#
#
# Elastic Constant Matrix: (Units=GPa)
#
#
# Indices 1 2 3 4 5 6 
#
# 1 63.1987 60.3008 33.6786 0.0000 0.0000 0.0000
# 2 60.3008 118.1639 56.9637 0.0000 0.0000 0.0000
# 3 33.6786 56.9637 82.4760 0.0000 0.0000 0.0000
# 4 0.0000 0.0000 0.0000 27.2521 0.0000 0.0000
# 5 0.0000 0.0000 0.0000 0.0000 19.6051 0.0000
# 6 0.0000 0.0000 0.0000 0.0000 0.0000 20.5099
#
#
#
# Elastic Compliance Matrix: (Units=1/GPa)
#
#
# Indices 1 2 3 4 5 6 
#
# 1 0.031211 -0.014667 -0.002615 0.000000 0.000000 0.000000
# 2 -0.014667 0.019579 -0.007534 0.000000 0.000000 0.000000
# 3 -0.002615 -0.007534 0.018396 0.000000 0.000000 0.000000
# 4 0.000000 0.000000 0.000000 0.036694 0.000000 0.000000
# 5 0.000000 0.000000 0.000000 0.000000 0.051007 0.000000
# 6 0.000000 0.000000 0.000000 0.000000 0.000000 0.048757
#
#
# Mechanical properties :
#
#
# Convention : Reuss Voigt Hill
#
# Bulk Modulus (GPa) = 51.13726 62.85831 56.99778
# Shear Modulus (GPa) = 19.09899 20.99979 20.04939
#
# Velocity S-wave (km/s) = 3.42479 3.59117 3.50897
# Velocity P-wave (km/s) = 6.85884 7.46983 7.17085
#
# Compressibility (1/GPa) = 0.01955521
#
# Stress axis : x y z
#
# Youngs Moduli (GPa) = 32.04009 51.07418 54.36017
#
# Poissons Ratio (x) = 0.74910 0.14214
# Poissons Ratio (y) = 0.46993 0.40954
# Poissons Ratio (z) = 0.08378 0.38478
#
# Static dielectric constant tensor:
#      x y z
#    x 2.940560 0.000000 0.000000 
#    y 0.000000 3.169970 0.000000 
#    z 0.000000 0.000000 2.944690 
# 
# 
# High freq. dielectric constant tensor:
#      x y z
#    x 1.609270 0.000000 0.000000 
#    y 0.000000 1.630670 0.000000 
#    z 0.000000 0.000000 1.606260 
# 
# From -- ./inp_files/46024.got.cif
#   From: 2010.03.12/outbox.cif.g09.slc.cpg/sg64_24_cif.got.tgz:46024.got - 2010.04.10 20:19:32.
