data_PCOD8261740
_publ_section_title
;
Structure prediction by ZEFSAII (Michael W. Deem and Ramdas Pophale) SiO2 
 PCOD8261740
Probable space group: C M C A
;
_chemical_formula_sum "Si O2"
_cell_formula_units_Z 80
_cell_length_a 9.014064
_cell_length_b 25.138250
_cell_length_c 19.925016
_cell_angle_alpha 90.000000
_cell_angle_beta 90.000000
_cell_angle_gamma 90.000000
_cell_volume 4514.964678
_symmetry_space_group_name_H-M "C M C A"
_symmetry_group_IT_number 64
_symmetry_cell_setting 'orthorhombic'
loop_
_space_group_symop_operation_xyz
x,y,z
-x,1/2-y,1/2+z
x,-y,-z
-x,1/2+y,1/2-z
-x,-y,-z
x,1/2+y,1/2-z
-x,y,z
x,1/2-y,1/2+z
1/2+x,1/2+y,z
1/2-x,-y,1/2+z
1/2+x,1/2-y,-z
1/2-x,y,1/2-z
1/2-x,1/2-y,-z
1/2+x,y,1/2-z
1/2-x,1/2+y,z
1/2+x,-y,1/2+z
loop_
_atom_site_type_symbol
_atom_site_label
_atom_site_fract_x
_atom_site_fract_y
_atom_site_fract_z
Si Si1 0.332871 0.012713 0.921820
Si Si2 0.327934 0.590563 0.101011
Si Si3 0.672890 0.116460 0.552847
Si Si4 0.173967 0.693072 0.319854
Si Si5 0.324442 0.274693 0.434889
O O1 0.500000 0.022289 0.896269
O O2 0.235118 0.065015 0.907933
O O3 0.263838 0.962662 0.882336
O O4 0.329478 0.000000 0.000000
O O5 0.500000 0.576784 0.109994
O O6 0.273002 0.635981 0.151912
O O7 0.297932 0.611800 0.026309
O O8 0.500000 0.122762 0.569239
O O9 0.761650 0.166996 0.580233
O O10 0.250000 0.705878 0.250000
O O11 0.219560 0.738827 0.371626
O O12 0.000000 0.692192 0.308610
O O13 0.500000 0.276632 0.446444
O O14 0.250000 0.250000 0.500000
#
# Coordination Sequence:
#
# PCOD8261740 Si02
#       5
#    16  16  16  16  16
#     4   9  17  28  45  75 106 134 170 210 256 311
#     4   9  17  32  50  72 105 139 172 214 263 316
#     4  10  18  31  51  77 107 140 174 216 270 317
#     4  10  22  38  54  77 108 143 182 222 270 325
#     4  11  21  35  54  79 109 141 181 227 271 323
#
# _framework density 17.718854
#
# number of rings (size 3 to 8) (size 9 to 14) (size 15 to 20)
#    0.000    2.200    2.000    1.800    0.000    5.600 
#    0.000    0.000    0.000    1.200    0.000    8.400 
#    0.000    0.000    0.000    0.000    0.000    0.000 
#
# Total GULP energy -496070.883552 kJ/mol
# GULP energy per Si atom -12401.772089 kJ/mol
# Density = 1.767852 g / cm^3
# Si number density = 17.718854 Si / 1000 Ang^3
#
#
#
# Elastic Constant Matrix: (Units=GPa)
#
#
# Indices 1 2 3 4 5 6 
#
# 1 94.5721 69.9571 48.2674 0.0000 0.0000 0.0000
# 2 69.9571 160.4091 60.4661 0.0000 0.0000 0.0000
# 3 48.2674 60.4661 79.5078 0.0000 0.0000 0.0000
# 4 0.0000 0.0000 0.0000 19.7977 0.0000 0.0000
# 5 0.0000 0.0000 0.0000 0.0000 22.5735 0.0000
# 6 0.0000 0.0000 0.0000 0.0000 0.0000 39.6491
#
#
#
# Elastic Compliance Matrix: (Units=1/GPa)
#
#
# Indices 1 2 3 4 5 6 
#
# 1 0.017983 -0.005225 -0.006943 0.000000 0.000000 0.000000
# 2 -0.005225 0.010258 -0.004629 0.000000 0.000000 0.000000
# 3 -0.006943 -0.004629 0.020313 0.000000 0.000000 0.000000
# 4 0.000000 0.000000 0.000000 0.050511 0.000000 0.000000
# 5 0.000000 0.000000 0.000000 0.000000 0.044300 0.000000
# 6 0.000000 0.000000 0.000000 0.000000 0.000000 0.025221
#
#
# Mechanical properties :
#
#
# Convention : Reuss Voigt Hill
#
# Bulk Modulus (GPa) = 66.85103 76.87444 71.86274
# Shear Modulus (GPa) = 24.13522 26.79062 25.46292
#
# Velocity S-wave (km/s) = 3.69470 3.89264 3.79496
# Velocity P-wave (km/s) = 7.48410 7.98019 7.73612
#
# Compressibility (1/GPa) = 0.01495863
#
# Stress axis : x y z
#
# Youngs Moduli (GPa) = 55.60835 97.48658 49.23056
#
# Poissons Ratio (x) = 0.50941 0.34181
# Poissons Ratio (y) = 0.29058 0.22788
# Poissons Ratio (z) = 0.38609 0.45125
#
# Static dielectric constant tensor:
#      x y z
#    x 3.368270 0.000000 0.000000 
#    y 0.000000 3.680650 0.000000 
#    z 0.000000 0.000000 3.694630 
# 
# 
# High freq. dielectric constant tensor:
#      x y z
#    x 1.694360 0.000000 0.000000 
#    y 0.000000 1.703170 0.000000 
#    z 0.000000 0.000000 1.634970 
# 
# From -- ./inp_files/29713.got.cif
#   From: 2010.03.12/outbox.cif.g09.slc.cpg/sg64_15_cif.got.tgz:29713.got - 2010.04.10 20:19:32.
