data_PCOD8261088
_publ_section_title
;
Structure prediction by ZEFSAII (Michael W. Deem and Ramdas Pophale) SiO2 
 PCOD8261088
Probable space group: C M C M
;
_chemical_formula_sum "Si O2"
_cell_formula_units_Z 64
_cell_length_a 8.896319
_cell_length_b 15.159048
_cell_length_c 27.246946
_cell_angle_alpha 90.000000
_cell_angle_beta 90.000000
_cell_angle_gamma 90.000000
_cell_volume 3674.515692
_symmetry_space_group_name_H-M "C M C M"
_symmetry_group_IT_number 63
_symmetry_cell_setting 'orthorhombic'
loop_
_space_group_symop_operation_xyz
x,y,z
-x,-y,1/2+z
x,-y,-z
-x,y,1/2-z
-x,-y,-z
x,y,1/2-z
-x,y,z
x,-y,1/2+z
1/2+x,1/2+y,z
1/2-x,1/2-y,1/2+z
1/2+x,1/2-y,-z
1/2-x,1/2+y,1/2-z
1/2-x,1/2-y,-z
1/2+x,1/2+y,1/2-z
1/2-x,1/2+y,z
1/2+x,1/2-y,1/2+z
loop_
_atom_site_type_symbol
_atom_site_label
_atom_site_fract_x
_atom_site_fract_y
_atom_site_fract_z
Si Si1 0.678163 0.733859 0.447766
Si Si2 0.677141 0.500273 0.193984
Si Si3 0.669679 0.889621 0.121242
Si Si4 0.169812 0.417732 0.609056
O O1 0.500000 0.736012 0.453083
O O2 0.750000 0.750000 0.500000
O O3 0.736274 0.810317 0.411031
O O4 0.730760 0.640024 0.427395
O O5 0.731270 0.504216 0.250000
O O6 0.500000 0.510498 0.189347
O O7 0.729287 0.406325 0.170074
O O8 0.756743 0.580489 0.163937
O O9 0.500000 0.867224 0.138071
O O10 0.670820 0.980817 0.089260
O O11 0.000000 0.380492 0.611871
#
# Coordination Sequence:
#
# PCOD8261088 Si02
#       4
#    16  16  16  16
#     4  11  22  37  55  79 108 141 178 220 266 315
#     4   9  17  32  56  82 107 136 173 218 264 310
#     4   8  19  36  54  76 108 141 174 214 261 314
#     4   9  19  36  55  78 107 140 177 218 260 313
#
# _framework density 17.417262000000001
#
# number of rings (size 3 to 8) (size 9 to 14) (size 15 to 20)
#    1.500    1.250    0.000    1.500    0.000    5.000 
#    0.000    6.250    0.000    1.500    0.000    0.000 
#    0.000    0.000    0.000    0.000    0.000    0.000 
#
# Total GULP energy -396442.107989 kJ/mol
# GULP energy per Si atom -12388.815875 kJ/mol
# Density = 1.737762 g / cm^3
# Si number density = 17.417262 Si / 1000 Ang^3
#
#
#
# Elastic Constant Matrix: (Units=GPa)
#
#
# Indices 1 2 3 4 5 6 
#
# 1 74.3226 17.2335 34.5041 0.0000 0.0000 0.0000
# 2 17.2335 43.5404 7.5224 0.0000 0.0000 0.0000
# 3 34.5041 7.5224 79.0257 0.0000 0.0000 0.0000
# 4 0.0000 0.0000 0.0000 31.9040 0.0000 0.0000
# 5 0.0000 0.0000 0.0000 0.0000 32.6957 0.0000
# 6 0.0000 0.0000 0.0000 0.0000 0.0000 26.6809
#
#
#
# Elastic Compliance Matrix: (Units=1/GPa)
#
#
# Indices 1 2 3 4 5 6 
#
# 1 0.018277 -0.005953 -0.007413 0.000000 0.000000 0.000000
# 2 -0.005953 0.025290 0.000192 0.000000 0.000000 0.000000
# 3 -0.007413 0.000192 0.015873 0.000000 0.000000 0.000000
# 4 0.000000 0.000000 0.000000 0.031344 0.000000 0.000000
# 5 0.000000 0.000000 0.000000 0.000000 0.030585 0.000000
# 6 0.000000 0.000000 0.000000 0.000000 0.000000 0.037480
#
#
# Mechanical properties :
#
#
# Convention : Reuss Voigt Hill
#
# Bulk Modulus (GPa) = 30.22012 35.04541 32.63276
# Shear Modulus (GPa) = 25.48049 27.43137 26.45593
#
# Velocity S-wave (km/s) = 3.82900 3.97287 3.90160
# Velocity P-wave (km/s) = 6.07755 6.41948 6.25085
#
# Compressibility (1/GPa) = 0.03309054
#
# Stress axis : x y z
#
# Youngs Moduli (GPa) = 54.71387 39.54077 63.00145
#
# Poissons Ratio (x) = 0.23540 0.46705
# Poissons Ratio (y) = 0.32573 -0.01209
# Poissons Ratio (z) = 0.40561 -0.00759
#
# Static dielectric constant tensor:
#      x y z
#    x 3.238840 0.000000 0.000000 
#    y 0.000000 3.280800 0.000000 
#    z 0.000000 0.000000 3.101210 
# 
# 
# High freq. dielectric constant tensor:
#      x y z
#    x 1.684660 0.000000 0.000000 
#    y 0.000000 1.654520 0.000000 
#    z 0.000000 0.000000 1.656640 
# 
# From -- ./inp_files/66433.got.cif
#   From: 2010.03.12/outbox.cif.g09.slc.cpg/sg63_34_cif.got.tgz:66433.got - 2010.04.10 19:34:48.
