data_PCOD8261368
_publ_section_title
;
Structure prediction by ZEFSAII (Michael W. Deem and Ramdas Pophale) SiO2 
 PCOD8261368
Probable space group: C M C M
;
_chemical_formula_sum "Si O2"
_cell_formula_units_Z 48
_cell_length_a 9.000000
_cell_length_b 24.000000
_cell_length_c 27.000000
_cell_angle_alpha 90.000000
_cell_angle_beta 90.000000
_cell_angle_gamma 90.000000
_cell_volume 5832.000000
_symmetry_space_group_name_H-M "C M C M"
_symmetry_group_IT_number 63
_symmetry_cell_setting 'orthorhombic'
loop_
_space_group_symop_operation_xyz
x,y,z
-x,-y,1/2+z
x,-y,-z
-x,y,1/2-z
-x,-y,-z
x,y,1/2-z
-x,y,z
x,-y,1/2+z
1/2+x,1/2+y,z
1/2-x,1/2-y,1/2+z
1/2+x,1/2-y,-z
1/2-x,1/2+y,1/2-z
1/2-x,1/2-y,-z
1/2+x,1/2+y,1/2-z
1/2-x,1/2+y,z
1/2+x,1/2-y,1/2+z
loop_
_atom_site_type_symbol
_atom_site_label
_atom_site_fract_x
_atom_site_fract_y
_atom_site_fract_z
Si Si1 0.680060 0.257365 0.384243
Si Si2 0.820021 0.356916 0.435389
Si Si3 0.822240 0.021952 0.944949
Si Si4 0.833416 0.916495 0.886005
Si Si5 0.677529 0.673811 0.308858
Si Si6 0.172064 0.821094 0.963632
O O1 0.500000 0.259375 0.382585
O O2 0.749977 0.319891 0.390056
O O3 0.741790 0.227428 0.333944
O O4 0.738295 0.224215 0.432135
O O5 0.761554 0.420499 0.432112
O O6 0.759633 0.328670 0.485431
O O7 0.000000 0.356030 0.433532
O O8 0.000000 0.031180 0.941883
O O9 0.765183 0.976289 0.903432
O O10 0.779682 0.000000 0.000000
O O11 0.764341 0.882356 0.838507
O O12 0.826526 0.879288 0.935057
O O13 0.000000 0.929395 0.869882
O O14 0.717086 0.669868 0.250000
O O15 0.500000 0.680574 0.316681
O O16 0.000000 0.802351 0.972631
#
# Coordination Sequence:
#
# PCOD8261368 Si02
#       6
#    16  16  16  16  16  16
#     4  11  22  35  51  75 104 136 175 219 265 314
#     4  12  23  33  47  72 106 144 182 218 260 309
#     4  10  18  32  51  72 102 145 184 216 253 301
#     4   8  15  29  51  76 102 134 173 212 255 307
#     4   9  18  35  59  83 105 132 167 213 269 325
#     4  10  18  33  52  73 103 140 176 213 259 312
#
# _framework density 8.2304530000000007
#
# number of rings (size 3 to 8) (size 9 to 14) (size 15 to 20)
#    0.000    2.000    1.667    5.000    0.000    0.667 
#    0.000    0.833    0.000    1.000    0.000    2.333 
#    0.000    0.000    0.000    0.000    0.000    0.000 
#
# Total GULP energy -594680.430053 kJ/mol
# GULP energy per Si atom -12389.175626 kJ/mol
# Density = 0.821172 g / cm^3
# Si number density = 8.230453 Si / 1000 Ang^3
#
#
#
# Elastic Constant Matrix: (Units=GPa)
#
#
# Indices 1 2 3 4 5 6 
#
# 1 117.2805 45.1920 34.4939 0.0000 0.0000 0.0000
# 2 45.1920 133.8326 55.5472 0.0000 0.0000 0.0000
# 3 34.4939 55.5472 115.9311 0.0000 0.0000 0.0000
# 4 0.0000 0.0000 0.0000 24.4547 0.0000 0.0000
# 5 0.0000 0.0000 0.0000 0.0000 26.0267 0.0000
# 6 0.0000 0.0000 0.0000 0.0000 0.0000 33.0974
#
#
#
# Elastic Compliance Matrix: (Units=1/GPa)
#
#
# Indices 1 2 3 4 5 6 
#
# 1 0.010065 -0.002691 -0.001705 0.000000 0.000000 0.000000
# 2 -0.002691 0.010046 -0.004013 0.000000 0.000000 0.000000
# 3 -0.001705 -0.004013 0.011056 0.000000 0.000000 0.000000
# 4 0.000000 0.000000 0.000000 0.040892 0.000000 0.000000
# 5 0.000000 0.000000 0.000000 0.000000 0.038422 0.000000
# 6 0.000000 0.000000 0.000000 0.000000 0.000000 0.030214
#
#
# Mechanical properties :
#
#
# Convention : Reuss Voigt Hill
#
# Bulk Modulus (GPa) = 69.69212 70.83449 70.26331
# Shear Modulus (GPa) = 30.80781 32.16983 31.48882
#
# Velocity S-wave (km/s) = 4.33086 4.42556 4.37847
# Velocity P-wave (km/s) = 8.21209 8.32103 8.26674
#
# Compressibility (1/GPa) = 0.01434882
#
# Stress axis : x y z
#
# Youngs Moduli (GPa) = 99.35376 99.53989 90.44879
#
# Poissons Ratio (x) = 0.26785 0.15425
# Poissons Ratio (y) = 0.26735 0.36296
# Poissons Ratio (z) = 0.16944 0.39944
#
# Static dielectric constant tensor:
#      x y z
#    x 3.214440 0.000000 0.000000 
#    y 0.000000 3.520360 0.000000 
#    z 0.000000 0.000000 3.198600 
# 
# 
# High freq. dielectric constant tensor:
#      x y z
#    x 1.637730 0.000000 0.000000 
#    y 0.000000 1.654530 0.000000 
#    z 0.000000 0.000000 1.620930 
# 
# From -- ./inp_files/67262.got.cif
#   From: 2010.03.12/outbox.ucp.g09.slc.cvg/sg63_34_cif.got.tgz:67262.got - 2010.05.04 19:38:17.
