data_PCOD8261777
_publ_section_title
;
Structure prediction by ZEFSAII (Michael W. Deem and Ramdas Pophale) SiO2 
 PCOD8261777
Probable space group: C M C A
;
_chemical_formula_sum "Si O2"
_cell_formula_units_Z 80
_cell_length_a 16.598923
_cell_length_b 9.212838
_cell_length_c 25.751596
_cell_angle_alpha 90.000000
_cell_angle_beta 90.000000
_cell_angle_gamma 90.000000
_cell_volume 3938.016171
_symmetry_space_group_name_H-M "C M C A"
_symmetry_group_IT_number 64
_symmetry_cell_setting 'orthorhombic'
loop_
_space_group_symop_operation_xyz
x,y,z
-x,1/2-y,1/2+z
x,-y,-z
-x,1/2+y,1/2-z
-x,-y,-z
x,1/2+y,1/2-z
-x,y,z
x,1/2-y,1/2+z
1/2+x,1/2+y,z
1/2-x,-y,1/2+z
1/2+x,1/2-y,-z
1/2-x,y,1/2-z
1/2-x,1/2-y,-z
1/2+x,y,1/2-z
1/2-x,1/2+y,z
1/2+x,-y,1/2+z
loop_
_atom_site_type_symbol
_atom_site_label
_atom_site_fract_x
_atom_site_fract_y
_atom_site_fract_z
Si Si1 0.705107 0.866121 0.965414
Si Si2 0.090290 0.772137 0.111708
Si Si3 0.333206 0.251605 0.280744
Si Si4 0.793328 0.464705 0.636276
Si Si5 0.369128 0.956532 0.806462
O O1 0.628093 0.783787 0.941861
O O2 0.765699 0.927435 0.921839
O O3 0.750000 0.750000 0.000000
O O4 0.674096 0.000000 0.000000
O O5 0.085007 0.630442 0.148752
O O6 0.000000 0.829862 0.101563
O O7 0.144012 0.900980 0.136304
O O8 0.250000 0.293321 0.250000
O O9 0.326215 0.182928 0.338407
O O10 0.377084 0.135576 0.245143
O O11 0.397526 0.383658 0.288710
O O12 0.719868 0.506056 0.673962
#
# Coordination Sequence:
#
# PCOD8261777 Si02
#       5
#    16  16  16  16  16
#     4  11  22  40  67  93 117 157 207 254 304 365
#     4  11  24  41  60  90 127 160 198 254 313 368
#     4  10  18  31  59  92 119 155 207 257 290 344
#     4  10  20  36  60  88 120 157 203 252 298 359
#     4  10  19  34  59  87 120 160 205 247 295 357
#
# _framework density 20.314796000000001
#
# number of rings (size 3 to 8) (size 9 to 14) (size 15 to 20)
#    0.000    1.600    2.000    6.600    2.800    0.400 
#    0.000    7.000    0.000    0.000    0.000    0.000 
#    0.000    0.000    0.000    0.000    0.000    0.000 
#
# Total GULP energy -495543.032593 kJ/mol
# GULP energy per Si atom -12388.575815 kJ/mol
# Density = 2.026856 g / cm^3
# Si number density = 20.314796 Si / 1000 Ang^3
#
#
#
# Elastic Constant Matrix: (Units=GPa)
#
#
# Indices 1 2 3 4 5 6 
#
# 1 90.4717 35.3460 24.3470 0.0000 0.0000 0.0000
# 2 35.3460 138.7445 48.4565 0.0000 0.0000 0.0000
# 3 24.3470 48.4565 109.1625 0.0000 0.0000 0.0000
# 4 0.0000 0.0000 0.0000 47.9261 0.0000 0.0000
# 5 0.0000 0.0000 0.0000 0.0000 8.7898 0.0000
# 6 0.0000 0.0000 0.0000 0.0000 0.0000 14.9462
#
#
#
# Elastic Compliance Matrix: (Units=1/GPa)
#
#
# Indices 1 2 3 4 5 6 
#
# 1 0.012515 -0.002619 -0.001628 0.000000 0.000000 0.000000
# 2 -0.002619 0.009078 -0.003446 0.000000 0.000000 0.000000
# 3 -0.001628 -0.003446 0.011053 0.000000 0.000000 0.000000
# 4 0.000000 0.000000 0.000000 0.020865 0.000000 0.000000
# 5 0.000000 0.000000 0.000000 0.000000 0.113768 0.000000
# 6 0.000000 0.000000 0.000000 0.000000 0.000000 0.066907
#
#
# Mechanical properties :
#
#
# Convention : Reuss Voigt Hill
#
# Bulk Modulus (GPa) = 57.93952 61.63085 59.78518
# Shear Modulus (GPa) = 19.58276 29.68103 24.63189
#
# Velocity S-wave (km/s) = 3.10815 3.82652 3.48589
# Velocity P-wave (km/s) = 6.43922 7.06589 6.75982
#
# Compressibility (1/GPa) = 0.01725938
#
# Stress axis : x y z
#
# Youngs Moduli (GPa) = 79.90529 110.15438 90.47073
#
# Poissons Ratio (x) = 0.28855 0.14733
# Poissons Ratio (y) = 0.20931 0.31172
# Poissons Ratio (z) = 0.13012 0.37954
#
# Static dielectric constant tensor:
#      x y z
#    x 3.342040 0.000000 0.000000 
#    y 0.000000 4.405560 0.000000 
#    z 0.000000 0.000000 3.927170 
# 
# 
# High freq. dielectric constant tensor:
#      x y z
#    x 1.736610 0.000000 0.000000 
#    y 0.000000 1.819730 0.000000 
#    z 0.000000 0.000000 1.804910 
# 
# From -- ./inp_files/50302.got.cif
#   From: 2010.03.12/outbox.cif.g09.slc.cpg/sg64_26_cif.got.tgz:50302.got - 2010.04.10 20:19:32.
