data_PCOD8261312
_publ_section_title
;
Structure prediction by ZEFSAII (Michael W. Deem and Ramdas Pophale) SiO2 
 PCOD8261312
Probable space group: C M C M
;
_chemical_formula_sum "Si O2"
_cell_formula_units_Z 80
_cell_length_a 7.759869
_cell_length_b 19.994159
_cell_length_c 29.537653
_cell_angle_alpha 90.000000
_cell_angle_beta 90.000000
_cell_angle_gamma 90.000000
_cell_volume 4582.827551
_symmetry_space_group_name_H-M "C M C M"
_symmetry_group_IT_number 63
_symmetry_cell_setting 'orthorhombic'
loop_
_space_group_symop_operation_xyz
x,y,z
-x,-y,1/2+z
x,-y,-z
-x,y,1/2-z
-x,-y,-z
x,y,1/2-z
-x,y,z
x,-y,1/2+z
1/2+x,1/2+y,z
1/2-x,1/2-y,1/2+z
1/2+x,1/2-y,-z
1/2-x,1/2+y,1/2-z
1/2-x,1/2-y,-z
1/2+x,1/2+y,1/2-z
1/2-x,1/2+y,z
1/2+x,1/2-y,1/2+z
loop_
_atom_site_type_symbol
_atom_site_label
_atom_site_fract_x
_atom_site_fract_y
_atom_site_fract_z
Si Si1 0.000000 0.453327 0.801179
Si Si2 0.798202 0.198471 0.038460
Si Si3 0.807737 0.206105 0.362281
Si Si4 0.191094 0.952994 0.637718
Si Si5 0.000000 0.293562 0.801033
Si Si6 0.296085 0.449002 0.963502
O O1 0.170480 0.481180 0.826413
O O2 0.000000 0.480682 0.750000
O O3 0.000000 0.373448 0.801977
O O4 0.739052 0.226435 0.087561
O O5 0.716255 0.125306 0.028376
O O6 0.000000 0.188300 0.041495
O O7 0.750000 0.250000 0.000000
O O8 0.815837 0.126549 0.360238
O O9 0.671717 0.234239 0.325756
O O10 0.000000 0.235114 0.352124
O O11 0.248322 0.974656 0.587115
O O12 0.000000 0.981457 0.649447
O O13 0.000000 0.266053 0.750000
O O14 0.500000 0.446049 0.969880
O O15 0.213546 0.500000 0.000000
#
# Coordination Sequence:
#
# PCOD8261312 Si02
#       6
#     8  16  16  16   8  16
#     4   9  16  24  35  55  81 107 140 175 207 257
#     4   9  17  27  42  63  86 119 148 175 219 259
#     4   8  15  26  37  54  81 110 140 170 210 261
#     4   8  14  25  39  54  77 110 140 168 213 256
#     4   9  16  24  38  57  77 109 142 173 215 255
#     4   8  14  27  45  62  84 117 149 179 212 255
#
# _framework density 17.456471000000001
#
# number of rings (size 3 to 8) (size 9 to 14) (size 15 to 20)
#    0.000    3.600    0.000    2.400    1.400    0.800 
#    1.800    4.500    0.000    0.000    0.000    0.000 
#    0.000    1.600    0.800    0.000    0.000    0.000 
#
# Total GULP energy -495600.793873 kJ/mol
# GULP energy per Si atom -12390.019847 kJ/mol
# Density = 1.741674 g / cm^3
# Si number density = 17.456471 Si / 1000 Ang^3
#
#
#
# Elastic Constant Matrix: (Units=GPa)
#
#
# Indices 1 2 3 4 5 6 
#
# 1 91.9099 17.0589 75.6987 0.0000 0.0000 0.0000
# 2 17.0589 31.5826 39.2380 0.0000 0.0000 0.0000
# 3 75.6987 39.2380 174.1020 0.0000 0.0000 0.0000
# 4 0.0000 0.0000 0.0000 17.9698 0.0000 0.0000
# 5 0.0000 0.0000 0.0000 0.0000 31.6227 0.0000
# 6 0.0000 0.0000 0.0000 0.0000 0.0000 6.0986
#
#
#
# Elastic Compliance Matrix: (Units=1/GPa)
#
#
# Indices 1 2 3 4 5 6 
#
# 1 0.016950 0.000001 -0.007370 0.000000 0.000000 0.000000
# 2 0.000001 0.043977 -0.009912 0.000000 0.000000 0.000000
# 3 -0.007370 -0.009912 0.011182 0.000000 0.000000 0.000000
# 4 0.000000 0.000000 0.000000 0.055649 0.000000 0.000000
# 5 0.000000 0.000000 0.000000 0.000000 0.031623 0.000000
# 6 0.000000 0.000000 0.000000 0.000000 0.000000 0.163971
#
#
# Mechanical properties :
#
#
# Convention : Reuss Voigt Hill
#
# Bulk Modulus (GPa) = 26.63289 62.39842 44.51565
# Shear Modulus (GPa) = 13.49786 22.17813 17.83800
#
# Velocity S-wave (km/s) = 2.78372 3.56825 3.20012
# Velocity P-wave (km/s) = 5.06181 7.26631 6.26184
#
# Compressibility (1/GPa) = 0.03754756
#
# Stress axis : x y z
#
# Youngs Moduli (GPa) = 58.99642 22.73941 89.42877
#
# Poissons Ratio (x) = -0.00003 0.65910
# Poissons Ratio (y) = -0.00007 0.88639
# Poissons Ratio (z) = 0.43481 0.22539
#
# Static dielectric constant tensor:
#      x y z
#    x 3.432360 0.000000 0.000000 
#    y 0.000000 2.524070 0.000000 
#    z 0.000000 0.000000 3.308470 
# 
# 
# High freq. dielectric constant tensor:
#      x y z
#    x 1.674870 0.000000 0.000000 
#    y 0.000000 1.592400 0.000000 
#    z 0.000000 0.000000 1.679200 
# 
# From -- ./inp_files/59797.got.cif
#   From: 2010.03.12/outbox.cif.g09.slc.cpg/sg63_30_cif.got.tgz:59797.got - 2010.04.10 19:34:48.
