data_PCOD8261619
_publ_section_title
;
Structure prediction by ZEFSAII (Michael W. Deem and Ramdas Pophale) SiO2 
 PCOD8261619
Probable space group: C M C A
;
_chemical_formula_sum "Si O2"
_cell_formula_units_Z 128
_cell_length_a 23.960507
_cell_length_b 11.880612
_cell_length_c 25.257329
_cell_angle_alpha 90.000000
_cell_angle_beta 90.000000
_cell_angle_gamma 90.000000
_cell_volume 7189.889860
_symmetry_space_group_name_H-M "C M C A"
_symmetry_group_IT_number 64
_symmetry_cell_setting 'orthorhombic'
loop_
_space_group_symop_operation_xyz
x,y,z
-x,1/2-y,1/2+z
x,-y,-z
-x,1/2+y,1/2-z
-x,-y,-z
x,1/2+y,1/2-z
-x,y,z
x,1/2-y,1/2+z
1/2+x,1/2+y,z
1/2-x,-y,1/2+z
1/2+x,1/2-y,-z
1/2-x,y,1/2-z
1/2-x,1/2-y,-z
1/2+x,y,1/2-z
1/2-x,1/2+y,z
1/2+x,-y,1/2+z
loop_
_atom_site_type_symbol
_atom_site_label
_atom_site_fract_x
_atom_site_fract_y
_atom_site_fract_z
Si Si1 0.384082 0.691145 0.793734
Si Si2 0.303582 0.844842 0.854416
Si Si3 0.687666 0.003286 0.755538
Si Si4 0.160329 0.474749 0.559685
Si Si5 0.061671 0.518270 0.637536
Si Si6 0.313176 0.749714 0.613120
Si Si7 0.214559 0.981772 0.438437
Si Si8 0.884975 0.832749 0.801248
O O1 0.347786 0.747448 0.840724
O O2 0.348952 0.614503 0.752711
O O3 0.433051 0.622831 0.822056
O O4 0.409767 0.783375 0.753493
O O5 0.313006 0.945012 0.812613
O O6 0.243701 0.783618 0.856576
O O7 0.312378 0.908174 0.910479
O O8 0.750000 0.046343 0.750000
O O9 0.668027 0.914592 0.710889
O O10 0.142756 0.500000 0.500000
O O11 0.110803 0.526564 0.594736
O O12 0.168192 0.341989 0.569614
O O13 0.219372 0.532894 0.573570
O O14 0.066013 0.403340 0.671084
O O15 0.000000 0.522899 0.611435
O O16 0.312600 0.632503 0.582381
O O17 0.361148 0.740146 0.657927
O O18 0.202784 0.000000 0.500000
#
# Coordination Sequence:
#
# PCOD8261619 Si02
#       8
#    16  16  16  16  16  16  16  16
#     4  10  21  30  50  74 104 133 165 205 247 296
#     4  10  20  30  47  72 102 138 169 199 238 297
#     4  10  18  28  46  75 105 133 167 194 238 297
#     4   9  20  35  51  74 100 126 168 213 250 299
#     4  10  21  37  53  71  96 127 171 220 255 288
#     4  10  18  31  50  70 105 141 164 195 241 298
#     4  10  21  33  49  74 105 140 169 195 244 309
#     4   9  19  33  46  75 101 134 168 197 242 297
#
# _framework density 17.802776000000001
#
# number of rings (size 3 to 8) (size 9 to 14) (size 15 to 20)
#    0.000    2.250    1.250    1.500    5.250    6.250 
#    0.000    0.000    0.000    0.000    0.000    0.875 
#    0.000    9.500    0.000    0.000    0.000    0.000 
#
# Total GULP energy -793028.620033 kJ/mol
# GULP energy per Si atom -12391.072188 kJ/mol
# Density = 1.776226 g / cm^3
# Si number density = 17.802776 Si / 1000 Ang^3
#
#
#
# Elastic Constant Matrix: (Units=GPa)
#
#
# Indices 1 2 3 4 5 6 
#
# 1 55.4884 22.0270 32.7858 0.0000 0.0000 0.0000
# 2 22.0270 73.1609 38.9619 0.0000 0.0000 0.0000
# 3 32.7858 38.9619 94.3188 0.0000 0.0000 0.0000
# 4 0.0000 0.0000 0.0000 32.1777 0.0000 0.0000
# 5 0.0000 0.0000 0.0000 0.0000 14.4138 0.0000
# 6 0.0000 0.0000 0.0000 0.0000 0.0000 6.7362
#
#
#
# Elastic Compliance Matrix: (Units=1/GPa)
#
#
# Indices 1 2 3 4 5 6 
#
# 1 0.023348 -0.003471 -0.006682 0.000000 0.000000 0.000000
# 2 -0.003471 0.018039 -0.006245 0.000000 0.000000 0.000000
# 3 -0.006682 -0.006245 0.015505 0.000000 0.000000 0.000000
# 4 0.000000 0.000000 0.000000 0.031077 0.000000 0.000000
# 5 0.000000 0.000000 0.000000 0.000000 0.069378 0.000000
# 6 0.000000 0.000000 0.000000 0.000000 0.000000 0.148452
#
#
# Mechanical properties :
#
#
# Convention : Reuss Voigt Hill
#
# Bulk Modulus (GPa) = 41.50147 45.61306 43.55727
# Shear Modulus (GPa) = 14.42468 19.27843 16.85156
#
# Velocity S-wave (km/s) = 2.84958 3.29430 3.07997
# Velocity P-wave (km/s) = 5.84715 6.33615 6.09656
#
# Compressibility (1/GPa) = 0.02409553
#
# Stress axis : x y z
#
# Youngs Moduli (GPa) = 42.83061 55.43398 64.49565
#
# Poissons Ratio (x) = 0.19241 0.43096
# Poissons Ratio (y) = 0.14866 0.40280
# Poissons Ratio (z) = 0.28620 0.34620
#
# Static dielectric constant tensor:
#      x y z
#    x 2.880630 0.000000 0.000000 
#    y 0.000000 3.334870 0.000000 
#    z 0.000000 0.000000 3.346400 
# 
# 
# High freq. dielectric constant tensor:
#      x y z
#    x 1.640900 0.000000 0.000000 
#    y 0.000000 1.695560 0.000000 
#    z 0.000000 0.000000 1.692660 
# 
# From -- ./inp_files/46770.got.cif
#   From: 2010.03.12/outbox.cif.g09.slc.cpg/sg64_24_cif.got.tgz:46770.got - 2010.04.10 20:19:32.
