data_PCOD8261530
_publ_section_title
;
Structure prediction by ZEFSAII (Michael W. Deem and Ramdas Pophale) SiO2 
 PCOD8261530
Probable space group: C M C A
;
_chemical_formula_sum "Si O2"
_cell_formula_units_Z 80
_cell_length_a 8.524157
_cell_length_b 25.506976
_cell_length_c 20.109668
_cell_angle_alpha 90.000000
_cell_angle_beta 90.000000
_cell_angle_gamma 90.000000
_cell_volume 4372.353977
_symmetry_space_group_name_H-M "C M C A"
_symmetry_group_IT_number 64
_symmetry_cell_setting 'orthorhombic'
loop_
_space_group_symop_operation_xyz
x,y,z
-x,1/2-y,1/2+z
x,-y,-z
-x,1/2+y,1/2-z
-x,-y,-z
x,1/2+y,1/2-z
-x,y,z
x,1/2-y,1/2+z
1/2+x,1/2+y,z
1/2-x,-y,1/2+z
1/2+x,1/2-y,-z
1/2-x,y,1/2-z
1/2-x,1/2-y,-z
1/2+x,y,1/2-z
1/2-x,1/2+y,z
1/2+x,-y,1/2+z
loop_
_atom_site_type_symbol
_atom_site_label
_atom_site_fract_x
_atom_site_fract_y
_atom_site_fract_z
Si Si1 0.684673 0.153881 0.596813
Si Si2 0.684624 0.636592 0.451152
Si Si3 0.185830 0.479076 0.930677
Si Si4 0.313481 0.439048 0.322024
Si Si5 0.815234 0.758497 0.926673
O O1 0.500000 0.151426 0.586742
O O2 0.767114 0.137161 0.528338
O O3 0.739348 0.115855 0.655424
O O4 0.736614 0.213017 0.618279
O O5 0.500000 0.644852 0.447491
O O6 0.737441 0.581191 0.419508
O O7 0.766061 0.682290 0.406822
O O8 0.247705 0.514766 0.870472
O O9 0.000000 0.482900 0.934807
O O10 0.258463 0.500000 0.000000
O O11 0.500000 0.434217 0.322028
O O12 0.250000 0.453716 0.250000
O O13 0.000000 0.752133 0.924049
O O14 0.750000 0.750000 0.000000
#
# Coordination Sequence:
#
# PCOD8261530 Si02
#       5
#    16  16  16  16  16
#     4  11  20  32  50  76 106 139 176 219 270 321
#     4  10  17  30  52  78 106 139 177 221 269 319
#     4   9  17  32  55  79 105 142 181 221 269 323
#     4  11  22  38  56  78 108 143 182 221 270 326
#     4  10  18  29  46  73 106 138 170 213 265 317
#
# _framework density 18.296779999999998
#
# number of rings (size 3 to 8) (size 9 to 14) (size 15 to 20)
#    0.000    1.800    2.000    7.200    0.000    0.000 
#    0.000    5.000    0.000    1.200    0.000    5.600 
#    0.000    0.000    0.000    0.000    0.000    0.000 
#
# Total GULP energy -495893.069315 kJ/mol
# GULP energy per Si atom -12397.326733 kJ/mol
# Density = 1.825514 g / cm^3
# Si number density = 18.296780 Si / 1000 Ang^3
#
#
#
# Elastic Constant Matrix: (Units=GPa)
#
#
# Indices 1 2 3 4 5 6 
#
# 1 66.6604 36.1769 4.0337 0.0000 0.0000 0.0000
# 2 36.1769 174.7318 60.9996 0.0000 0.0000 0.0000
# 3 4.0337 60.9996 77.3094 0.0000 0.0000 0.0000
# 4 0.0000 0.0000 0.0000 42.2358 0.0000 0.0000
# 5 0.0000 0.0000 0.0000 0.0000 21.3411 0.0000
# 6 0.0000 0.0000 0.0000 0.0000 0.0000 26.8496
#
#
#
# Elastic Compliance Matrix: (Units=1/GPa)
#
#
# Indices 1 2 3 4 5 6 
#
# 1 0.017286 -0.004505 0.002653 0.000000 0.000000 0.000000
# 2 -0.004505 0.009073 -0.006924 0.000000 0.000000 0.000000
# 3 0.002653 -0.006924 0.018260 0.000000 0.000000 0.000000
# 4 0.000000 0.000000 0.000000 0.023677 0.000000 0.000000
# 5 0.000000 0.000000 0.000000 0.000000 0.046858 0.000000
# 6 0.000000 0.000000 0.000000 0.000000 0.000000 0.037244
#
#
# Mechanical properties :
#
#
# Convention : Reuss Voigt Hill
#
# Bulk Modulus (GPa) = 36.94641 57.90245 47.42443
# Shear Modulus (GPa) = 27.93739 32.58471 30.26105
#
# Velocity S-wave (km/s) = 3.91180 4.22465 4.07123
# Velocity P-wave (km/s) = 6.37492 7.45063 6.93366
#
# Compressibility (1/GPa) = 0.02706623
#
# Stress axis : x y z
#
# Youngs Moduli (GPa) = 57.85117 110.21864 54.76540
#
# Poissons Ratio (x) = 0.49653 -0.14527
# Poissons Ratio (y) = 0.26061 0.37918
# Poissons Ratio (z) = -0.15346 0.76313
#
# Static dielectric constant tensor:
#      x y z
#    x 3.299670 0.000000 0.000000 
#    y 0.000000 4.273500 0.000000 
#    z 0.000000 0.000000 2.871720 
# 
# 
# High freq. dielectric constant tensor:
#      x y z
#    x 1.710160 0.000000 0.000000 
#    y 0.000000 1.735630 0.000000 
#    z 0.000000 0.000000 1.651470 
# 
# From -- ./inp_files/29747.got.cif
#   From: 2010.03.12/outbox.cif.g09.slc.cpg/sg64_15_cif.got.tgz:29747.got - 2010.04.10 20:19:32.
