data_PCOD8261790
_publ_section_title
;
Structure prediction by ZEFSAII (Michael W. Deem and Ramdas Pophale) SiO2 
 PCOD8261790
Probable space group: C M C A
;
_chemical_formula_sum "Si O2"
_cell_formula_units_Z 128
_cell_length_a 24.719090
_cell_length_b 11.767747
_cell_length_c 24.596432
_cell_angle_alpha 90.000000
_cell_angle_beta 90.000000
_cell_angle_gamma 90.000000
_cell_volume 7154.806843
_symmetry_space_group_name_H-M "C M C A"
_symmetry_group_IT_number 64
_symmetry_cell_setting 'orthorhombic'
loop_
_space_group_symop_operation_xyz
x,y,z
-x,1/2-y,1/2+z
x,-y,-z
-x,1/2+y,1/2-z
-x,-y,-z
x,1/2+y,1/2-z
-x,y,z
x,1/2-y,1/2+z
1/2+x,1/2+y,z
1/2-x,-y,1/2+z
1/2+x,1/2-y,-z
1/2-x,y,1/2-z
1/2-x,1/2-y,-z
1/2+x,y,1/2-z
1/2-x,1/2+y,z
1/2+x,-y,1/2+z
loop_
_atom_site_type_symbol
_atom_site_label
_atom_site_fract_x
_atom_site_fract_y
_atom_site_fract_z
Si Si1 0.712968 0.897974 0.652602
Si Si2 0.438814 0.549239 0.646368
Si Si3 0.438198 0.558439 0.238412
Si Si4 0.357164 0.033350 0.061399
Si Si5 0.742341 0.546549 0.939438
Si Si6 0.655310 0.406583 0.203231
Si Si7 0.127270 0.262480 0.198766
Si Si8 0.191469 0.756053 0.612252
O O1 0.667603 0.803558 0.659537
O O2 0.771090 0.834842 0.652086
O O3 0.704702 0.961531 0.595243
O O4 0.703468 0.997834 0.698245
O O5 0.500000 0.574115 0.629348
O O6 0.435173 0.466729 0.697863
O O7 0.409867 0.491953 0.595860
O O8 0.410189 0.667298 0.658729
O O9 0.500000 0.554466 0.217212
O O10 0.403459 0.467556 0.203642
O O11 0.412831 0.682802 0.232920
O O12 0.304660 0.961409 0.080319
O O13 0.344155 0.166797 0.071718
O O14 0.371286 0.000000 0.000000
O O15 0.725421 0.676740 0.929386
O O16 0.736751 0.500000 0.000000
O O17 0.662804 0.339422 0.259871
O O18 0.655296 0.320002 0.152479
#
# Coordination Sequence:
#
# PCOD8261790 Si02
#       8
#    16  16  16  16  16  16  16  16
#     4   9  19  32  49  73 101 132 169 204 242 299
#     4  10  20  33  50  72  98 128 164 204 243 289
#     4   9  18  33  53  76  99 126 165 209 252 299
#     4  10  21  34  51  73  98 129 165 204 243 291
#     4   9  19  34  54  77  98 125 165 210 253 299
#     4   9  19  33  48  73 102 133 169 203 244 300
#     4  10  18  32  52  73 101 131 162 203 250 294
#     4  10  19  35  52  71 103 135 163 200 249 297
#
# _framework density 17.890069
#
# number of rings (size 3 to 8) (size 9 to 14) (size 15 to 20)
#    0.000    2.500    0.000    1.875    0.000    6.750 
#    0.000    9.375    0.000    0.000    0.000    0.000 
#    0.000    9.500    0.000    0.000    0.000    0.000 
#
# Total GULP energy -793188.277223 kJ/mol
# GULP energy per Si atom -12393.566832 kJ/mol
# Density = 1.784935 g / cm^3
# Si number density = 17.890069 Si / 1000 Ang^3
#
#
#
# Elastic Constant Matrix: (Units=GPa)
#
#
# Indices 1 2 3 4 5 6 
#
# 1 83.0399 45.2943 57.6662 0.0000 0.0000 0.0000
# 2 45.2943 103.3082 42.2978 0.0000 0.0000 0.0000
# 3 57.6662 42.2978 70.0156 0.0000 0.0000 0.0000
# 4 0.0000 0.0000 0.0000 23.5188 0.0000 0.0000
# 5 0.0000 0.0000 0.0000 0.0000 27.2956 0.0000
# 6 0.0000 0.0000 0.0000 0.0000 0.0000 17.3278
#
#
#
# Elastic Compliance Matrix: (Units=1/GPa)
#
#
# Indices 1 2 3 4 5 6 
#
# 1 0.029292 -0.003939 -0.021746 0.000000 0.000000 0.000000
# 2 -0.003939 0.013391 -0.004845 0.000000 0.000000 0.000000
# 3 -0.021746 -0.004845 0.035120 0.000000 0.000000 0.000000
# 4 0.000000 0.000000 0.000000 0.042519 0.000000 0.000000
# 5 0.000000 0.000000 0.000000 0.000000 0.036636 0.000000
# 6 0.000000 0.000000 0.000000 0.000000 0.000000 0.057711
#
#
# Mechanical properties :
#
#
# Convention : Reuss Voigt Hill
#
# Bulk Modulus (GPa) = 59.72902 60.76447 60.24674
# Shear Modulus (GPa) = 17.77398 21.03547 19.40472
#
# Velocity S-wave (km/s) = 3.15542 3.43274 3.29700
# Velocity P-wave (km/s) = 6.83628 7.05343 6.94570
#
# Compressibility (1/GPa) = 0.01674228
#
# Stress axis : x y z
#
# Youngs Moduli (GPa) = 34.13858 74.67893 28.47393
#
# Poissons Ratio (x) = 0.29419 0.61919
# Poissons Ratio (y) = 0.13449 0.13796
# Poissons Ratio (z) = 0.74237 0.36182
#
# Static dielectric constant tensor:
#      x y z
#    x 3.322830 0.000000 0.000000 
#    y 0.000000 3.573350 0.000000 
#    z 0.000000 0.000000 3.182720 
# 
# 
# High freq. dielectric constant tensor:
#      x y z
#    x 1.676840 0.000000 0.000000 
#    y 0.000000 1.710350 0.000000 
#    z 0.000000 0.000000 1.676650 
# 
# From -- ./inp_files/46737.got.cif
#   From: 2010.03.12/outbox.cif.g09.slc.cpg/sg64_24_cif.got.tgz:46737.got - 2010.04.10 20:19:32.
