data_PCOD8261763
_publ_section_title
;
Structure prediction by ZEFSAII (Michael W. Deem and Ramdas Pophale) SiO2 
 PCOD8261763
Probable space group: C M C A
;
_chemical_formula_sum "Si O2"
_cell_formula_units_Z 128
_cell_length_a 24.363710
_cell_length_b 23.953172
_cell_length_c 12.021638
_cell_angle_alpha 90.000000
_cell_angle_beta 90.000000
_cell_angle_gamma 90.000000
_cell_volume 7015.685314
_symmetry_space_group_name_H-M "C M C A"
_symmetry_group_IT_number 64
_symmetry_cell_setting 'orthorhombic'
loop_
_space_group_symop_operation_xyz
x,y,z
-x,1/2-y,1/2+z
x,-y,-z
-x,1/2+y,1/2-z
-x,-y,-z
x,1/2+y,1/2-z
-x,y,z
x,1/2-y,1/2+z
1/2+x,1/2+y,z
1/2-x,-y,1/2+z
1/2+x,1/2-y,-z
1/2-x,y,1/2-z
1/2-x,1/2-y,-z
1/2+x,y,1/2-z
1/2-x,1/2+y,z
1/2+x,-y,1/2+z
loop_
_atom_site_type_symbol
_atom_site_label
_atom_site_fract_x
_atom_site_fract_y
_atom_site_fract_z
Si Si1 0.563445 0.448920 0.278373
Si Si2 0.362867 0.064022 0.990836
Si Si3 0.806642 0.826559 0.459591
Si Si4 0.886568 0.281084 0.211932
Si Si5 0.064400 0.169130 0.121983
Si Si6 0.284859 0.756544 0.347864
Si Si7 0.062663 0.424709 0.798377
Si Si8 0.062406 0.856877 0.120704
O O1 0.500000 0.433609 0.302590
O O2 0.597377 0.431122 0.385950
O O3 0.570388 0.513567 0.249604
O O4 0.586095 0.414888 0.170947
O O5 0.397205 0.084276 0.097843
O O6 0.310757 0.106344 0.979154
O O7 0.341300 0.000000 0.000000
O O8 0.863846 0.810858 0.398681
O O9 0.751652 0.807928 0.395308
O O10 0.803371 0.793023 0.573379
O O11 0.904195 0.219441 0.180189
O O12 0.839145 0.284855 0.303397
O O13 0.935098 0.312383 0.277568
O O14 0.077765 0.115549 0.196764
O O15 0.000000 0.183387 0.118369
O O16 0.089956 0.160292 0.997546
O O17 0.250000 0.727077 0.250000
O O18 0.000000 0.415000 0.838941
O O19 0.000000 0.866280 0.087140
#
# Coordination Sequence:
#
# PCOD8261763 Si02
#       8
#    16  16  16  16  16  16  16  16
#     4   9  17  31  50  75 106 143 184 218 260 315
#     4  10  18  31  54  82 107 137 177 223 271 321
#     4  10  19  34  53  80 100 130 173 218 274 319
#     4  11  19  34  53  74 102 141 175 219 264 320
#     4  10  21  33  47  75 111 146 183 220 267 317
#     4   9  20  34  54  76  99 129 171 221 268 326
#     4   9  18  31  48  73 108 146 183 223 262 314
#     4  10  20  33  50  76 110 145 179 219 261 317
#
# _framework density 18.244831000000001
#
# number of rings (size 3 to 8) (size 9 to 14) (size 15 to 20)
#    0.000    2.250    1.250    2.250    0.000    2.000 
#    0.000    3.750    0.000    2.250    9.750    0.000 
#    0.000    0.000    0.000    0.000    0.000    0.000 
#
# Total GULP energy -793079.683638 kJ/mol
# GULP energy per Si atom -12391.870057 kJ/mol
# Density = 1.820331 g / cm^3
# Si number density = 18.244831 Si / 1000 Ang^3
#
#
#
# Elastic Constant Matrix: (Units=GPa)
#
#
# Indices 1 2 3 4 5 6 
#
# 1 37.7698 39.6764 23.9234 0.0000 0.0000 0.0000
# 2 39.6764 137.2282 60.0695 0.0000 0.0000 0.0000
# 3 23.9234 60.0695 112.1541 0.0000 0.0000 0.0000
# 4 0.0000 0.0000 0.0000 29.7592 0.0000 0.0000
# 5 0.0000 0.0000 0.0000 0.0000 15.8161 0.0000
# 6 0.0000 0.0000 0.0000 0.0000 0.0000 30.8063
#
#
#
# Elastic Compliance Matrix: (Units=1/GPa)
#
#
# Indices 1 2 3 4 5 6 
#
# 1 0.038763 -0.009912 -0.002960 0.000000 0.000000 0.000000
# 2 -0.009912 0.012053 -0.004341 0.000000 0.000000 0.000000
# 3 -0.002960 -0.004341 0.011873 0.000000 0.000000 0.000000
# 4 0.000000 0.000000 0.000000 0.033603 0.000000 0.000000
# 5 0.000000 0.000000 0.000000 0.000000 0.063227 0.000000
# 6 0.000000 0.000000 0.000000 0.000000 0.000000 0.032461
#
#
# Mechanical properties :
#
#
# Convention : Reuss Voigt Hill
#
# Bulk Modulus (GPa) = 35.38165 59.38787 47.38476
# Shear Modulus (GPa) = 21.20198 26.17518 23.68858
#
# Velocity S-wave (km/s) = 3.41263 3.79180 3.60720
# Velocity P-wave (km/s) = 5.91294 7.19663 6.58614
#
# Compressibility (1/GPa) = 0.02826324
#
# Stress axis : x y z
#
# Youngs Moduli (GPa) = 25.79772 82.96457 84.22538
#
# Poissons Ratio (x) = 0.82234 0.24928
# Poissons Ratio (y) = 0.25570 0.36566
# Poissons Ratio (z) = 0.07635 0.36019
#
# Static dielectric constant tensor:
#      x y z
#    x 3.225930 0.000000 0.000000 
#    y 0.000000 3.382130 0.000000 
#    z 0.000000 0.000000 3.603710 
# 
# 
# High freq. dielectric constant tensor:
#      x y z
#    x 1.680460 0.000000 0.000000 
#    y 0.000000 1.705490 0.000000 
#    z 0.000000 0.000000 1.720260 
# 
# From -- ./inp_files/19399.got.cif
#   From: 2010.03.12/outbox.cif.g09.slc.cpg/sg64_10_cif.got.tgz:19399.got - 2010.04.10 20:19:32.
