data_PCOD8261560
_publ_section_title
;
Structure prediction by ZEFSAII (Michael W. Deem and Ramdas Pophale) SiO2 
 PCOD8261560
Probable space group: C M C A
;
_chemical_formula_sum "Si O2"
_cell_formula_units_Z 96
_cell_length_a 16.488808
_cell_length_b 28.287420
_cell_length_c 10.606107
_cell_angle_alpha 90.000000
_cell_angle_beta 90.000000
_cell_angle_gamma 90.000000
_cell_volume 4946.962337
_symmetry_space_group_name_H-M "C M C A"
_symmetry_group_IT_number 64
_symmetry_cell_setting 'orthorhombic'
loop_
_space_group_symop_operation_xyz
x,y,z
-x,1/2-y,1/2+z
x,-y,-z
-x,1/2+y,1/2-z
-x,-y,-z
x,1/2+y,1/2-z
-x,y,z
x,1/2-y,1/2+z
1/2+x,1/2+y,z
1/2-x,-y,1/2+z
1/2+x,1/2-y,-z
1/2-x,y,1/2-z
1/2-x,1/2-y,-z
1/2+x,y,1/2-z
1/2-x,1/2+y,z
1/2+x,-y,1/2+z
loop_
_atom_site_type_symbol
_atom_site_label
_atom_site_fract_x
_atom_site_fract_y
_atom_site_fract_z
Si Si1 0.594994 0.212859 0.311859
Si Si2 0.094705 0.886337 0.502051
Si Si3 0.403884 0.779759 0.970217
Si Si4 0.840133 0.885367 0.772154
Si Si5 0.657070 0.526157 0.618207
Si Si6 0.160553 0.987257 0.870096
O O1 0.500000 0.222196 0.311826
O O2 0.633695 0.243038 0.427658
O O3 0.611040 0.157402 0.337412
O O4 0.630272 0.227882 0.173129
O O5 0.120023 0.831949 0.481839
O O6 0.116737 0.901866 0.643818
O O7 0.145699 0.917673 0.402230
O O8 0.000000 0.894371 0.478019
O O9 0.500000 0.774748 0.962992
O O10 0.750000 0.865998 0.750000
O O11 0.835282 0.930590 0.863003
O O12 0.613704 0.500000 0.500000
O O13 0.750402 0.510468 0.623434
O O14 0.614934 0.510064 0.749558
O O15 0.113907 0.000000 0.000000
#
# Coordination Sequence:
#
# PCOD8261560 Si02
#       6
#    16  16  16  16  16  16
#     4   9  18  34  57  78 100 139 180 219 266 324
#     4  10  20  35  59  84 105 140 194 234 259 314
#     4   8  16  33  55  77 105 136 174 221 272 319
#     4  11  18  34  56  79 109 147 180 219 273 328
#     4  10  17  33  54  77 100 139 185 221 260 319
#     4  10  19  33  52  74 108 144 180 214 274 332
#
# _framework density 19.405847999999999
#
# number of rings (size 3 to 8) (size 9 to 14) (size 15 to 20)
#    0.000    2.333    3.333    2.500    0.000    0.333 
#    3.000    3.333    3.667    3.500    0.000    0.000 
#    0.000    0.000    0.000    0.000    0.000    0.000 
#
# Total GULP energy -594781.273997 kJ/mol
# GULP energy per Si atom -12391.276542 kJ/mol
# Density = 1.936168 g / cm^3
# Si number density = 19.405848 Si / 1000 Ang^3
#
#
#
# Elastic Constant Matrix: (Units=GPa)
#
#
# Indices 1 2 3 4 5 6 
#
# 1 13.6638 24.7288 20.4267 0.0000 0.0000 0.0000
# 2 24.7288 130.0425 83.0213 0.0000 0.0000 0.0000
# 3 20.4267 83.0213 154.2097 0.0000 0.0000 0.0000
# 4 0.0000 0.0000 0.0000 36.8399 0.0000 0.0000
# 5 0.0000 0.0000 0.0000 0.0000 14.4154 0.0000
# 6 0.0000 0.0000 0.0000 0.0000 0.0000 28.6702
#
#
#
# Elastic Compliance Matrix: (Units=1/GPa)
#
#
# Indices 1 2 3 4 5 6 
#
# 1 0.114303 -0.018391 -0.005240 0.000000 0.000000 0.000000
# 2 -0.018391 0.014676 -0.005465 0.000000 0.000000 0.000000
# 3 -0.005240 -0.005465 0.010121 0.000000 0.000000 0.000000
# 4 0.000000 0.000000 0.000000 0.027144 0.000000 0.000000
# 5 0.000000 0.000000 0.000000 0.000000 0.069370 0.000000
# 6 0.000000 0.000000 0.000000 0.000000 0.000000 0.034879
#
#
# Mechanical properties :
#
#
# Convention : Reuss Voigt Hill
#
# Bulk Modulus (GPa) = 12.35959 61.58552 36.97255
# Shear Modulus (GPa) = 14.05863 27.30106 20.67984
#
# Velocity S-wave (km/s) = 2.69449 3.75487 3.26797
# Velocity P-wave (km/s) = 4.00789 7.11359 5.77349
#
# Compressibility (1/GPa) = 0.08090881
#
# Stress axis : x y z
#
# Youngs Moduli (GPa) = 8.74870 68.13901 98.80569
#
# Poissons Ratio (x) = 1.25312 0.51771
# Poissons Ratio (y) = 0.16089 0.53997
# Poissons Ratio (z) = 0.04584 0.37238
#
# Static dielectric constant tensor:
#      x y z
#    x 3.118930 0.000000 0.000000 
#    y 0.000000 3.593490 0.000000 
#    z 0.000000 0.000000 4.961820 
# 
# 
# High freq. dielectric constant tensor:
#      x y z
#    x 1.710290 0.000000 0.000000 
#    y 0.000000 1.757200 0.000000 
#    z 0.000000 0.000000 1.757330 
# 
# From -- ./inp_files/16322.got.cif
#   From: 2010.03.12/outbox.cif.g09.slc.cpg/sg64_9_cif.got.tgz:16322.got - 2010.04.10 20:19:32.
