data_PCOD8261112
_publ_section_title
;
Structure prediction by ZEFSAII (Michael W. Deem and Ramdas Pophale) SiO2 
 PCOD8261112
Probable space group: C M C M
;
_chemical_formula_sum "Si O2"
_cell_formula_units_Z 104
_cell_length_a 14.675439
_cell_length_b 14.762066
_cell_length_c 22.922591
_cell_angle_alpha 90.000000
_cell_angle_beta 90.000000
_cell_angle_gamma 90.000000
_cell_volume 4965.945509
_symmetry_space_group_name_H-M "C M C M"
_symmetry_group_IT_number 63
_symmetry_cell_setting 'orthorhombic'
loop_
_space_group_symop_operation_xyz
x,y,z
-x,-y,1/2+z
x,-y,-z
-x,y,1/2-z
-x,-y,-z
x,y,1/2-z
-x,y,z
x,-y,1/2+z
1/2+x,1/2+y,z
1/2-x,1/2-y,1/2+z
1/2+x,1/2-y,-z
1/2-x,1/2+y,1/2-z
1/2-x,1/2-y,-z
1/2+x,1/2+y,1/2-z
1/2-x,1/2+y,z
1/2+x,1/2-y,1/2+z
loop_
_atom_site_type_symbol
_atom_site_label
_atom_site_fract_x
_atom_site_fract_y
_atom_site_fract_z
Si Si1 0.099459 0.597860 0.393986
Si Si2 0.900621 0.604210 0.884817
Si Si3 0.827044 0.000000 0.000000
Si Si4 0.606440 0.516825 0.373713
Si Si5 0.269699 0.364083 0.182293
Si Si6 0.244139 0.155283 0.181402
Si Si7 0.692667 0.162129 0.506624
O O1 0.093934 0.494251 0.414431
O O2 0.165664 0.602919 0.338446
O O3 0.133004 0.654821 0.448754
O O4 0.000000 0.634146 0.374972
O O5 0.831269 0.599014 0.830732
O O6 0.000000 0.634574 0.861180
O O7 0.870453 0.672016 0.936258
O O8 0.762430 0.081740 0.982494
O O9 0.888970 0.021953 0.056117
O O10 0.500000 0.517252 0.354718
O O11 0.654095 0.423422 0.351429
O O12 0.656506 0.607056 0.348526
O O13 0.292531 0.373459 0.250000
O O14 0.263261 0.259080 0.162144
O O15 0.229998 0.146361 0.250000
O O16 0.750000 0.250000 0.500000
#
# Coordination Sequence:
#
# PCOD8261112 Si02
#       7
#    16  16   8  16  16  16  16
#     4  11  22  39  65  95 127 166 213 270 332 395
#     4  11  22  39  65  95 127 166 213 270 332 395
#     4  12  23  44  65  94 132 166 219 274 325 396
#     4  12  26  46  71  99 135 179 227 279 341 406
#     4  11  24  44  68  95 132 177 223 276 333 395
#     4  11  24  44  68  95 132 177 223 276 333 395
#     4  12  21  39  66  89 129 177 212 265 335 392
#
# _framework density 20.942639
#
# number of rings (size 3 to 8) (size 9 to 14) (size 15 to 20)
#    0.000    0.615    6.154    2.077    0.000    4.308 
#    0.000    6.154    0.000    0.000    0.000    0.000 
#    0.000    0.000    0.000    0.000    0.000    0.000 
#
# Total GULP energy -644619.072259 kJ/mol
# GULP energy per Si atom -12396.520620 kJ/mol
# Density = 2.089497 g / cm^3
# Si number density = 20.942639 Si / 1000 Ang^3
#
#
#
# Elastic Constant Matrix: (Units=GPa)
#
#
# Indices 1 2 3 4 5 6 
#
# 1 168.6284 35.2730 31.3673 0.0000 0.0000 0.0000
# 2 35.2730 87.7848 12.1771 0.0000 0.0000 0.0000
# 3 31.3673 12.1771 91.7966 0.0000 0.0000 0.0000
# 4 0.0000 0.0000 0.0000 21.6046 0.0000 0.0000
# 5 0.0000 0.0000 0.0000 0.0000 15.9139 0.0000
# 6 0.0000 0.0000 0.0000 0.0000 0.0000 26.7705
#
#
#
# Elastic Compliance Matrix: (Units=1/GPa)
#
#
# Indices 1 2 3 4 5 6 
#
# 1 0.006818 -0.002462 -0.002003 0.000000 0.000000 0.000000
# 2 -0.002462 0.012494 -0.000816 0.000000 0.000000 0.000000
# 3 -0.002003 -0.000816 0.011686 0.000000 0.000000 0.000000
# 4 0.000000 0.000000 0.000000 0.046286 0.000000 0.000000
# 5 0.000000 0.000000 0.000000 0.000000 0.062838 0.000000
# 6 0.000000 0.000000 0.000000 0.000000 0.000000 0.037355
#
#
# Mechanical properties :
#
#
# Convention : Reuss Voigt Hill
#
# Bulk Modulus (GPa) = 48.93294 56.20494 52.56894
# Shear Modulus (GPa) = 25.66064 30.81729 28.23896
#
# Velocity S-wave (km/s) = 3.50420 3.84019 3.67603
# Velocity P-wave (km/s) = 6.30781 6.82338 6.57066
#
# Compressibility (1/GPa) = 0.02043613
#
# Stress axis : x y z
#
# Youngs Moduli (GPa) = 146.67690 80.03963 85.56959
#
# Poissons Ratio (x) = 0.19702 0.17140
# Poissons Ratio (y) = 0.36106 0.06984
# Poissons Ratio (z) = 0.29381 0.06533
#
# Static dielectric constant tensor:
#      x y z
#    x 3.048040 0.000000 0.000000 
#    y 0.000000 4.040490 0.000000 
#    z 0.000000 0.000000 3.703220 
# 
# 
# High freq. dielectric constant tensor:
#      x y z
#    x 1.819910 0.000000 0.000000 
#    y 0.000000 1.823560 0.000000 
#    z 0.000000 0.000000 1.821520 
# 
# From -- ./inp_files/62958.got.cif
#   From: 2010.03.12/outbox.cif.g09.slc.cpg/sg63_32_cif.got.tgz:62958.got - 2010.04.10 19:34:48.
