data_PCOD8261066
_publ_section_title
;
Structure prediction by ZEFSAII (Michael W. Deem and Ramdas Pophale) SiO2 
 PCOD8261066
Probable space group: C M C M
;
_chemical_formula_sum "Si O2"
_cell_formula_units_Z 96
_cell_length_a 28.450793
_cell_length_b 26.023853
_cell_length_c 9.308472
_cell_angle_alpha 90.000000
_cell_angle_beta 90.000000
_cell_angle_gamma 90.000000
_cell_volume 6891.985732
_symmetry_space_group_name_H-M "C M C M"
_symmetry_group_IT_number 63
_symmetry_cell_setting 'orthorhombic'
loop_
_space_group_symop_operation_xyz
x,y,z
-x,-y,1/2+z
x,-y,-z
-x,y,1/2-z
-x,-y,-z
x,y,1/2-z
-x,y,z
x,-y,1/2+z
1/2+x,1/2+y,z
1/2-x,1/2-y,1/2+z
1/2+x,1/2-y,-z
1/2-x,1/2+y,1/2-z
1/2-x,1/2-y,-z
1/2+x,1/2+y,1/2-z
1/2-x,1/2+y,z
1/2+x,1/2-y,1/2+z
loop_
_atom_site_type_symbol
_atom_site_label
_atom_site_fract_x
_atom_site_fract_y
_atom_site_fract_z
Si Si1 0.729909 0.298360 0.083290
Si Si2 0.364630 0.949248 0.918812
Si Si3 0.552190 0.779588 0.417942
Si Si4 0.361664 0.754235 0.586348
Si Si5 0.946168 0.601858 0.914831
Si Si6 0.698595 0.147503 0.083347
O O1 0.744458 0.295978 0.250000
O O2 0.673136 0.294954 0.067515
O O3 0.750000 0.250000 0.000000
O O4 0.752955 0.348776 0.009404
O O5 0.370235 0.959626 0.750000
O O6 0.325565 0.906404 0.951092
O O7 0.415036 0.932635 0.980363
O O8 0.347034 0.000000 0.000000
O O9 0.557971 0.771584 0.250000
O O10 0.500000 0.762060 0.466821
O O11 0.591256 0.744782 0.495303
O O12 0.559743 0.838924 0.459621
O O13 0.377437 0.760623 0.750000
O O14 0.336118 0.806623 0.535093
O O15 0.930203 0.593696 0.750000
O O16 0.000000 0.584568 0.934321
O O17 0.711781 0.153325 0.250000
#
# Coordination Sequence:
#
# PCOD8261066 Si02
#       6
#    16  16  16  16  16  16
#     4   9  17  27  41  61  82 101 125 155 192 237
#     4  11  22  34  46  60  77  99 131 169 209 253
#     4   9  17  27  40  59  80 103 132 163 196 236
#     4   9  16  27  41  60  81 100 126 159 194 233
#     4   9  18  32  46  59  75  97 130 170 210 250
#     4   9  18  31  43  58  79  99 126 163 199 240
#
# _framework density 13.929221999999999
#
# number of rings (size 3 to 8) (size 9 to 14) (size 15 to 20)
#    0.000    2.667    1.667    3.000    0.000    5.667 
#    0.000    1.667    0.000    0.000    0.000    0.000 
#    0.000    0.000    0.000    0.000    0.000    0.833 
#
# Total GULP energy -594984.523956 kJ/mol
# GULP energy per Si atom -12395.510916 kJ/mol
# Density = 1.389752 g / cm^3
# Si number density = 13.929222 Si / 1000 Ang^3
#
#
#
# Elastic Constant Matrix: (Units=GPa)
#
#
# Indices 1 2 3 4 5 6 
#
# 1 96.2292 42.2569 54.9696 0.0000 0.0000 0.0000
# 2 42.2569 40.2710 33.5927 0.0000 0.0000 0.0000
# 3 54.9696 33.5927 73.3350 0.0000 0.0000 0.0000
# 4 0.0000 0.0000 0.0000 18.5974 0.0000 0.0000
# 5 0.0000 0.0000 0.0000 0.0000 28.8660 0.0000
# 6 0.0000 0.0000 0.0000 0.0000 0.0000 17.7234
#
#
#
# Elastic Compliance Matrix: (Units=1/GPa)
#
#
# Indices 1 2 3 4 5 6 
#
# 1 0.023091 -0.015847 -0.010049 0.000000 0.000000 0.000000
# 2 -0.015847 0.051064 -0.011512 0.000000 0.000000 0.000000
# 3 -0.010049 -0.011512 0.026442 0.000000 0.000000 0.000000
# 4 0.000000 0.000000 0.000000 0.053771 0.000000 0.000000
# 5 0.000000 0.000000 0.000000 0.000000 0.034643 0.000000
# 6 0.000000 0.000000 0.000000 0.000000 0.000000 0.056422
#
#
# Mechanical properties :
#
#
# Convention : Reuss Voigt Hill
#
# Bulk Modulus (GPa) = 38.79058 52.38597 45.58828
# Shear Modulus (GPa) = 15.20477 18.30510 16.75494
#
# Velocity S-wave (km/s) = 3.30748 3.62906 3.47199
# Velocity P-wave (km/s) = 6.51880 7.43306 6.99089
#
# Compressibility (1/GPa) = 0.02577945
#
# Stress axis : x y z
#
# Youngs Moduli (GPa) = 43.30610 19.58344 37.81837
#
# Poissons Ratio (x) = 0.31034 0.38005
# Poissons Ratio (y) = 0.68628 0.43537
# Poissons Ratio (z) = 0.43520 0.22545
#
# Static dielectric constant tensor:
#      x y z
#    x 2.914960 0.000000 0.000000 
#    y 0.000000 2.551960 0.000000 
#    z 0.000000 0.000000 2.827110 
# 
# 
# High freq. dielectric constant tensor:
#      x y z
#    x 1.525130 0.000000 0.000000 
#    y 0.000000 1.478760 0.000000 
#    z 0.000000 0.000000 1.542820 
# 
# From -- ./inp_files/12737.got.cif
#   From: 2010.03.12/outbox.cif.g09.slc.cpg/sg63_7_cif.got.tgz:12737.got - 2010.04.10 19:34:48.
