data_PCOD8261313
_publ_section_title
;
Structure prediction by ZEFSAII (Michael W. Deem and Ramdas Pophale) SiO2 
 PCOD8261313
Probable space group: C M C M
;
_chemical_formula_sum "Si O2"
_cell_formula_units_Z 80
_cell_length_a 14.289099
_cell_length_b 34.018762
_cell_length_c 9.666151
_cell_angle_alpha 90.000000
_cell_angle_beta 90.000000
_cell_angle_gamma 90.000000
_cell_volume 4698.691430
_symmetry_space_group_name_H-M "C M C M"
_symmetry_group_IT_number 63
_symmetry_cell_setting 'orthorhombic'
loop_
_space_group_symop_operation_xyz
x,y,z
-x,-y,1/2+z
x,-y,-z
-x,y,1/2-z
-x,-y,-z
x,y,1/2-z
-x,y,z
x,-y,1/2+z
1/2+x,1/2+y,z
1/2-x,1/2-y,1/2+z
1/2+x,1/2-y,-z
1/2-x,1/2+y,1/2-z
1/2-x,1/2-y,-z
1/2+x,1/2+y,1/2-z
1/2-x,1/2+y,z
1/2+x,1/2-y,1/2+z
loop_
_atom_site_type_symbol
_atom_site_label
_atom_site_fract_x
_atom_site_fract_y
_atom_site_fract_z
Si Si1 0.711122 0.614471 0.585867
Si Si2 0.602815 0.848787 0.085664
Si Si3 0.891250 0.962554 0.410496
Si Si4 0.388815 0.238314 0.596072
Si Si5 0.610721 0.691817 0.907829
O O1 0.701986 0.613612 0.750000
O O2 0.819575 0.619408 0.537634
O O3 0.668858 0.573826 0.528823
O O4 0.652132 0.651497 0.529727
O O5 0.594888 0.848139 0.250000
O O6 0.500000 0.859421 0.023070
O O7 0.637041 0.805242 0.039442
O O8 0.868839 0.971217 0.250000
O O9 0.000000 0.952187 0.430744
O O10 0.861447 0.000000 0.500000
O O11 0.347699 0.245185 0.750000
O O12 0.500000 0.241650 0.601023
O O13 0.347648 0.271361 0.493357
O O14 0.643255 0.697879 0.750000
O O15 0.500000 0.689078 0.920085
#
# Coordination Sequence:
#
# PCOD8261313 Si02
#       5
#    16  16  16  16  16
#     4   9  16  26  42  62  82 107 139 172 204 241
#     4   8  14  25  41  60  81 107 142 179 207 233
#     4   9  17  30  48  68  89 111 133 160 199 248
#     4   8  14  25  39  55  79 111 143 174 206 237
#     4   9  16  25  38  58  84 111 138 169 205 245
#
# _framework density 17.026015999999998
#
# number of rings (size 3 to 8) (size 9 to 14) (size 15 to 20)
#    0.000    3.400    0.000    1.800    0.000    3.200 
#    0.000    1.000    0.000    6.600    0.000    0.000 
#    0.000    0.000    0.000    0.000    0.000    0.000 
#
# Total GULP energy -495723.054196 kJ/mol
# GULP energy per Si atom -12393.076355 kJ/mol
# Density = 1.698726 g / cm^3
# Si number density = 17.026016 Si / 1000 Ang^3
#
#
#
# Elastic Constant Matrix: (Units=GPa)
#
#
# Indices 1 2 3 4 5 6 
#
# 1 67.4813 71.5076 23.4327 0.0000 0.0000 0.0000
# 2 71.5076 147.3995 39.8725 0.0000 0.0000 0.0000
# 3 23.4327 39.8725 36.6981 0.0000 0.0000 0.0000
# 4 0.0000 0.0000 0.0000 23.6796 0.0000 0.0000
# 5 0.0000 0.0000 0.0000 0.0000 8.9261 0.0000
# 6 0.0000 0.0000 0.0000 0.0000 0.0000 29.0508
#
#
#
# Elastic Compliance Matrix: (Units=1/GPa)
#
#
# Indices 1 2 3 4 5 6 
#
# 1 0.031108 -0.013764 -0.004910 0.000000 0.000000 0.000000
# 2 -0.013764 0.015698 -0.008267 0.000000 0.000000 0.000000
# 3 -0.004910 -0.008267 0.039366 0.000000 0.000000 0.000000
# 4 0.000000 0.000000 0.000000 0.042231 0.000000 0.000000
# 5 0.000000 0.000000 0.000000 0.000000 0.112032 0.000000
# 6 0.000000 0.000000 0.000000 0.000000 0.000000 0.034422
#
#
# Mechanical properties :
#
#
# Convention : Reuss Voigt Hill
#
# Bulk Modulus (GPa) = 30.96720 57.91160 44.43940
# Shear Modulus (GPa) = 14.72747 20.11569 17.42158
#
# Velocity S-wave (km/s) = 2.94428 3.44098 3.20227
# Velocity P-wave (km/s) = 5.45766 7.06219 6.31112
#
# Compressibility (1/GPa) = 0.03229223
#
# Stress axis : x y z
#
# Youngs Moduli (GPa) = 32.14556 63.70373 25.40233
#
# Poissons Ratio (x) = 0.87679 0.12471
# Poissons Ratio (y) = 0.44244 0.21000
# Poissons Ratio (z) = 0.15782 0.52665
#
# Static dielectric constant tensor:
#      x y z
#    x 3.291790 0.000000 0.000000 
#    y 0.000000 3.279920 0.000000 
#    z 0.000000 0.000000 2.961380 
# 
# 
# High freq. dielectric constant tensor:
#      x y z
#    x 1.657920 0.000000 0.000000 
#    y 0.000000 1.644600 0.000000 
#    z 0.000000 0.000000 1.607680 
# 
# From -- ./inp_files/19383.got.cif
#   From: 2010.03.12/outbox.cif.g09.slc.cpg/sg63_10_cif.got.tgz:19383.got - 2010.04.10 19:34:48.
