data_PCOD8261178
_publ_section_title
;
Structure prediction by ZEFSAII (Michael W. Deem and Ramdas Pophale) SiO2 
 PCOD8261178
Probable space group: C M C M
;
_chemical_formula_sum "Si O2"
_cell_formula_units_Z 68
_cell_length_a 9.463337
_cell_length_b 16.340370
_cell_length_c 19.221277
_cell_angle_alpha 90.000000
_cell_angle_beta 90.000000
_cell_angle_gamma 90.000000
_cell_volume 2972.271175
_symmetry_space_group_name_H-M "C M C M"
_symmetry_group_IT_number 63
_symmetry_cell_setting 'orthorhombic'
loop_
_space_group_symop_operation_xyz
x,y,z
-x,-y,1/2+z
x,-y,-z
-x,y,1/2-z
-x,-y,-z
x,y,1/2-z
-x,y,z
x,-y,1/2+z
1/2+x,1/2+y,z
1/2-x,1/2-y,1/2+z
1/2+x,1/2-y,-z
1/2-x,1/2+y,1/2-z
1/2-x,1/2-y,-z
1/2+x,1/2+y,1/2-z
1/2-x,1/2+y,z
1/2+x,1/2-y,1/2+z
loop_
_atom_site_type_symbol
_atom_site_label
_atom_site_fract_x
_atom_site_fract_y
_atom_site_fract_z
Si Si1 0.334858 0.048705 0.750000
Si Si2 0.210812 0.124792 0.250000
Si Si3 0.000000 0.661252 0.963417
Si Si4 0.500000 0.270516 0.402386
Si Si5 0.000000 0.817376 0.863067
Si Si6 0.261623 0.602930 0.892675
Si Si7 0.000000 0.015944 0.078429
Si Si8 0.000000 0.703759 0.250000
O O1 0.500000 0.020270 0.750000
O O2 0.307732 0.107745 0.683859
O O3 0.217895 0.974569 0.750000
O O4 0.138528 0.166104 0.183148
O O5 0.371969 0.143495 0.250000
O O6 0.862841 0.604064 0.950682
O O7 0.000000 0.731846 0.903538
O O8 0.000000 0.694648 0.043029
O O9 0.642081 0.320932 0.415047
O O10 0.500000 0.254835 0.320315
O O11 0.000000 0.886933 0.920604
O O12 0.355679 0.520807 0.890035
O O13 0.000000 0.000000 0.000000
#
# Coordination Sequence:
#
# PCOD8261178 Si02
#       8
#     8   8   8   8   8  16   8   4
#     4  12  22  43  69 102 142 176 239 294 345 410
#     4  11  24  39  68  95 137 174 224 292 337 407
#     4  12  25  46  69 103 143 181 230 293 351 410
#     4  11  25  43  68  97 139 176 229 286 345 425
#     4  11  23  42  68  99 135 179 226 283 346 403
#     4  11  24  43  71  99 134 190 228 287 347 416
#     4  11  24  43  68  99 136 185 239 279 342 427
#     4  12  24  42  62  98 130 176 222 278 362 408
#
# _framework density 22.878128
#
# number of rings (size 3 to 8) (size 9 to 14) (size 15 to 20)
#    0.000    0.706    4.118    4.235    0.000    5.176 
#    0.000    0.588    0.000    0.000    0.000    0.000 
#    0.000    0.000    0.000    0.000    0.000    0.000 
#
# Total GULP energy -421316.821081 kJ/mol
# GULP energy per Si atom -12391.671208 kJ/mol
# Density = 2.282606 g / cm^3
# Si number density = 22.878128 Si / 1000 Ang^3
#
#
#
# Elastic Constant Matrix: (Units=GPa)
#
#
# Indices 1 2 3 4 5 6 
#
# 1 148.2647 13.8569 19.3657 0.0000 0.0000 0.0000
# 2 13.8569 46.3750 -9.1114 0.0000 0.0000 0.0000
# 3 19.3657 -9.1114 103.7929 0.0000 0.0000 0.0000
# 4 0.0000 0.0000 0.0000 35.7399 0.0000 0.0000
# 5 0.0000 0.0000 0.0000 0.0000 32.1313 0.0000
# 6 0.0000 0.0000 0.0000 0.0000 0.0000 1.1249
#
#
#
# Elastic Compliance Matrix: (Units=1/GPa)
#
#
# Indices 1 2 3 4 5 6 
#
# 1 0.007177 -0.002450 -0.001554 0.000000 0.000000 0.000000
# 2 -0.002450 0.022778 0.002457 0.000000 0.000000 0.000000
# 3 -0.001554 0.002457 0.010140 0.000000 0.000000 0.000000
# 4 0.000000 0.000000 0.000000 0.027980 0.000000 0.000000
# 5 0.000000 0.000000 0.000000 0.000000 0.031122 0.000000
# 6 0.000000 0.000000 0.000000 0.000000 0.000000 0.888950
#
#
# Mechanical properties :
#
#
# Convention : Reuss Voigt Hill
#
# Bulk Modulus (GPa) = 27.02669 38.51723 32.77196
# Shear Modulus (GPa) = 4.98219 32.08732 18.53475
#
# Velocity S-wave (km/s) = 1.47731 3.74910 2.84940
# Velocity P-wave (km/s) = 3.84043 5.96770 5.01808
#
# Compressibility (1/GPa) = 0.03700047
#
# Stress axis : x y z
#
# Youngs Moduli (GPa) = 139.34111 43.90203 98.61755
#
# Poissons Ratio (x) = 0.10755 0.15326
# Poissons Ratio (y) = 0.34135 -0.24227
# Poissons Ratio (z) = 0.21655 -0.10785
#
# Static dielectric constant tensor:
#      x y z
#    x 5.876020 0.000000 0.000000 
#    y 0.000000 2.754410 0.000000 
#    z 0.000000 0.000000 4.119480 
# 
# 
# High freq. dielectric constant tensor:
#      x y z
#    x 1.923160 0.000000 0.000000 
#    y 0.000000 1.886160 0.000000 
#    z 0.000000 0.000000 1.909860 
# 
# From -- ./inp_files/50557.got.cif
#   From: 2010.03.12/outbox.cif.g09.slc.cpg/sg63_26_cif.got.tgz:50557.got - 2010.04.10 19:34:48.
