data_PCOD8261901
_publ_section_title
;
Structure prediction by ZEFSAII (Michael W. Deem and Ramdas Pophale) SiO2 
 PCOD8261901
Probable space group: C M C A
;
_chemical_formula_sum "Si O2"
_cell_formula_units_Z 96
_cell_length_a 13.717352
_cell_length_b 23.147188
_cell_length_c 13.925057
_cell_angle_alpha 90.000000
_cell_angle_beta 90.000000
_cell_angle_gamma 90.000000
_cell_volume 4421.457998
_symmetry_space_group_name_H-M "C M C A"
_symmetry_group_IT_number 64
_symmetry_cell_setting 'orthorhombic'
loop_
_space_group_symop_operation_xyz
x,y,z
-x,1/2-y,1/2+z
x,-y,-z
-x,1/2+y,1/2-z
-x,-y,-z
x,1/2+y,1/2-z
-x,y,z
x,1/2-y,1/2+z
1/2+x,1/2+y,z
1/2-x,-y,1/2+z
1/2+x,1/2-y,-z
1/2-x,y,1/2-z
1/2-x,1/2-y,-z
1/2+x,y,1/2-z
1/2-x,1/2+y,z
1/2+x,-y,1/2+z
loop_
_atom_site_type_symbol
_atom_site_label
_atom_site_fract_x
_atom_site_fract_y
_atom_site_fract_z
Si Si1 0.792459 0.870241 0.570781
Si Si2 0.887392 0.586153 0.759817
Si Si3 0.614273 0.017124 0.110415
Si Si4 0.220481 0.253476 0.357182
Si Si5 0.390393 0.321463 0.403408
Si Si6 0.386922 0.640897 0.935957
O O1 0.819945 0.926277 0.633055
O O2 0.805313 0.813637 0.636138
O O3 0.877344 0.866648 0.490064
O O4 0.683721 0.874173 0.524926
O O5 0.842975 0.529911 0.813015
O O6 0.850256 0.645207 0.809330
O O7 0.866535 0.591734 0.646239
O O8 0.000000 0.583859 0.785099
O O9 0.500000 0.029430 0.128885
O O10 0.633670 0.000000 0.000000
O O11 0.250000 0.267567 0.250000
O O12 0.317178 0.267661 0.422261
O O13 0.132864 0.295130 0.392533
O O14 0.500000 0.298128 0.394563
O O15 0.500000 0.638191 0.968836
#
# Coordination Sequence:
#
# PCOD8261901 Si02
#       6
#    16  16  16  16  16  16
#     4  11  23  35  57  92 125 159 192 248 311 362
#     4   9  17  32  61  91 112 150 204 253 296 343
#     4  10  19  36  60  88 119 148 195 255 304 354
#     4  11  23  37  55  85 126 161 204 246 299 367
#     4  10  18  34  59  86 117 152 197 253 305 350
#     4  10  21  39  61  90 123 160 207 250 293 356
#
# _framework density 21.712295000000001
#
# number of rings (size 3 to 8) (size 9 to 14) (size 15 to 20)
#    0.000    1.833    3.333    2.500    0.000    3.333 
#    0.000    1.667    0.000    0.500    0.000    5.833 
#    0.000    0.000    0.000    0.000    0.000    0.000 
#
# Total GULP energy -594792.487460 kJ/mol
# GULP energy per Si atom -12391.510155 kJ/mol
# Density = 2.166288 g / cm^3
# Si number density = 21.712295 Si / 1000 Ang^3
#
#
#
# Elastic Constant Matrix: (Units=GPa)
#
#
# Indices 1 2 3 4 5 6 
#
# 1 109.3452 47.3743 17.3943 0.0000 0.0000 0.0000
# 2 47.3743 135.9377 19.7195 0.0000 0.0000 0.0000
# 3 17.3943 19.7195 36.5170 0.0000 0.0000 0.0000
# 4 0.0000 0.0000 0.0000 33.5263 0.0000 0.0000
# 5 0.0000 0.0000 0.0000 0.0000 20.2677 0.0000
# 6 0.0000 0.0000 0.0000 0.0000 0.0000 24.4968
#
#
#
# Elastic Compliance Matrix: (Units=1/GPa)
#
#
# Indices 1 2 3 4 5 6 
#
# 1 0.011167 -0.003385 -0.003491 0.000000 0.000000 0.000000
# 2 -0.003385 0.009008 -0.003252 0.000000 0.000000 0.000000
# 3 -0.003491 -0.003252 0.030803 0.000000 0.000000 0.000000
# 4 0.000000 0.000000 0.000000 0.029827 0.000000 0.000000
# 5 0.000000 0.000000 0.000000 0.000000 0.049340 0.000000
# 6 0.000000 0.000000 0.000000 0.000000 0.000000 0.040822
#
#
# Mechanical properties :
#
#
# Convention : Reuss Voigt Hill
#
# Bulk Modulus (GPa) = 32.55000 50.08621 41.31811
# Shear Modulus (GPa) = 24.81821 28.81227 26.81524
#
# Velocity S-wave (km/s) = 3.38457 3.64676 3.51811
# Velocity P-wave (km/s) = 5.50434 6.39140 5.96439
#
# Compressibility (1/GPa) = 0.03072196
#
# Stress axis : x y z
#
# Youngs Moduli (GPa) = 89.54575 111.01451 32.46384
#
# Poissons Ratio (x) = 0.37583 0.11334
# Poissons Ratio (y) = 0.30315 0.10556
# Poissons Ratio (z) = 0.31263 0.36099
#
# Static dielectric constant tensor:
#      x y z
#    x 3.788310 0.000000 0.000000 
#    y 0.000000 3.911000 0.000000 
#    z 0.000000 0.000000 3.707060 
# 
# 
# High freq. dielectric constant tensor:
#      x y z
#    x 1.848660 0.000000 0.000000 
#    y 0.000000 1.844010 0.000000 
#    z 0.000000 0.000000 1.833200 
# 
# From -- ./inp_files/23892.got.cif
#   From: 2010.03.12/outbox.cif.g09.slc.cpg/sg64_12_cif.got.tgz:23892.got - 2010.04.10 20:19:32.
