data_PCOD8261037
_publ_section_title
;
Structure prediction by ZEFSAII (Michael W. Deem and Ramdas Pophale) SiO2 
 PCOD8261037
Probable space group: C M C M
;
_chemical_formula_sum "Si O2"
_cell_formula_units_Z 96
_cell_length_a 8.423563
_cell_length_b 20.423745
_cell_length_c 28.034972
_cell_angle_alpha 90.000000
_cell_angle_beta 90.000000
_cell_angle_gamma 90.000000
_cell_volume 4823.156283
_symmetry_space_group_name_H-M "C M C M"
_symmetry_group_IT_number 63
_symmetry_cell_setting 'orthorhombic'
loop_
_space_group_symop_operation_xyz
x,y,z
-x,-y,1/2+z
x,-y,-z
-x,y,1/2-z
-x,-y,-z
x,y,1/2-z
-x,y,z
x,-y,1/2+z
1/2+x,1/2+y,z
1/2-x,1/2-y,1/2+z
1/2+x,1/2-y,-z
1/2-x,1/2+y,1/2-z
1/2-x,1/2-y,-z
1/2+x,1/2+y,1/2-z
1/2-x,1/2+y,z
1/2+x,1/2-y,1/2+z
loop_
_atom_site_type_symbol
_atom_site_label
_atom_site_fract_x
_atom_site_fract_y
_atom_site_fract_z
Si Si1 0.185045 0.241793 0.397811
Si Si2 0.683907 0.497940 0.397326
Si Si3 0.318363 0.119996 0.449875
Si Si4 0.685696 0.952149 0.303719
Si Si5 0.188422 0.304297 0.198111
Si Si6 0.316915 0.635487 0.948387
O O1 0.285189 0.180405 0.415057
O O2 0.249657 0.258336 0.344571
O O3 0.209796 0.303880 0.432069
O O4 0.000000 0.223437 0.397586
O O5 0.500000 0.512941 0.406705
O O6 0.787858 0.553316 0.421908
O O7 0.719396 0.497539 0.340782
O O8 0.736691 0.428853 0.419795
O O9 0.500000 0.122094 0.466674
O O10 0.205810 0.123759 0.495632
O O11 0.718977 0.977484 0.250000
O O12 0.500000 0.955729 0.315635
O O13 0.750991 0.878116 0.309297
O O14 0.246849 0.277681 0.250000
O O15 0.000000 0.307277 0.197264
O O16 0.500000 0.652152 0.938434
#
# Coordination Sequence:
#
# PCOD8261037 Si02
#       6
#    16  16  16  16  16  16
#     4  11  21  37  62  88 118 153 193 236 287 345
#     4  11  23  39  60  87 119 152 191 240 291 344
#     4  12  26  41  58  81 116 156 197 241 292 348
#     4   9  17  33  59  89 118 149 190 236 281 336
#     4   8  15  30  56  88 116 145 185 231 278 333
#     4  11  23  40  61  86 116 149 193 243 290 343
#
# _framework density 19.903977999999999
#
# number of rings (size 3 to 8) (size 9 to 14) (size 15 to 20)
#    0.000    1.667    1.667    5.000    0.000    4.333 
#    0.000    0.833    0.000    5.000    0.000    0.000 
#    0.000    0.000    0.000    0.000    0.000    0.000 
#
# Total GULP energy -595342.353783 kJ/mol
# GULP energy per Si atom -12402.965704 kJ/mol
# Density = 1.985868 g / cm^3
# Si number density = 19.903978 Si / 1000 Ang^3
#
#
#
# Elastic Constant Matrix: (Units=GPa)
#
#
# Indices 1 2 3 4 5 6 
#
# 1 48.4840 23.4073 12.1108 0.0000 0.0000 0.0000
# 2 23.4073 38.2221 7.6113 0.0000 0.0000 0.0000
# 3 12.1108 7.6113 119.1496 0.0000 0.0000 0.0000
# 4 0.0000 0.0000 0.0000 -487.1418 0.0000 0.0000
# 5 0.0000 0.0000 0.0000 0.0000 26.0233 0.0000
# 6 0.0000 0.0000 0.0000 0.0000 0.0000 25.0127
#
#
#
# Elastic Compliance Matrix: (Units=1/GPa)
#
#
# Indices 1 2 3 4 5 6 
#
# 1 0.029693 -0.017810 -0.001880 0.000000 0.000000 0.000000
# 2 -0.017810 0.037182 -0.000565 0.000000 0.000000 0.000000
# 3 -0.001880 -0.000565 0.008620 0.000000 0.000000 0.000000
# 4 0.000000 0.000000 0.000000 -0.002053 0.000000 0.000000
# 5 0.000000 0.000000 0.000000 0.000000 0.038427 0.000000
# 6 0.000000 0.000000 0.000000 0.000000 0.000000 0.039980
#
#
# Mechanical properties :
#
#
# Convention : Reuss Voigt Hill
#
# Bulk Modulus (GPa) = 28.58359 32.45717 30.52038
# Shear Modulus (GPa) = 24.50717 -76.37275 -25.93279
#
# Velocity S-wave (km/s) = 3.51275 -6.20112 -3.61348
# Velocity P-wave (km/s) = 5.55378 5.91013 1.42918
#
# Compressibility (1/GPa) = 0.03498511
#
# Stress axis : x y z
#
# Youngs Moduli (GPa) = 33.67751 26.89462 116.00884
#
# Poissons Ratio (x) = 0.47899 0.21815
# Poissons Ratio (y) = 0.59979 0.06554
# Poissons Ratio (z) = 0.06333 0.01519
#
# Static dielectric constant tensor:
#      x y z
#    x 3.343220 0.000000 0.000000 
#    y 0.000000 3.488160 0.000000 
#    z 0.000000 0.000000 3.973660 
# 
# 
# High freq. dielectric constant tensor:
#      x y z
#    x 1.763550 0.000000 0.000000 
#    y 0.000000 1.757570 0.000000 
#    z 0.000000 0.000000 1.792930 
# 
# From -- ./inp_files/66870.got.cif
#   From: 2010.03.12/outbox.cif.g09.slc.cpg/sg63_34_cif.got.tgz:66870.got - 2010.04.10 19:34:48.
