data_PCOD8261701
_publ_section_title
;
Structure prediction by ZEFSAII (Michael W. Deem and Ramdas Pophale) SiO2 
 PCOD8261701
Probable space group: C M C A
;
_chemical_formula_sum "Si O2"
_cell_formula_units_Z 96
_cell_length_a 8.691034
_cell_length_b 27.118979
_cell_length_c 19.189655
_cell_angle_alpha 90.000000
_cell_angle_beta 90.000000
_cell_angle_gamma 90.000000
_cell_volume 4522.847562
_symmetry_space_group_name_H-M "C M C A"
_symmetry_group_IT_number 64
_symmetry_cell_setting 'orthorhombic'
loop_
_space_group_symop_operation_xyz
x,y,z
-x,1/2-y,1/2+z
x,-y,-z
-x,1/2+y,1/2-z
-x,-y,-z
x,1/2+y,1/2-z
-x,y,z
x,1/2-y,1/2+z
1/2+x,1/2+y,z
1/2-x,-y,1/2+z
1/2+x,1/2-y,-z
1/2-x,y,1/2-z
1/2-x,1/2-y,-z
1/2+x,y,1/2-z
1/2-x,1/2+y,z
1/2+x,-y,1/2+z
loop_
_atom_site_type_symbol
_atom_site_label
_atom_site_fract_x
_atom_site_fract_y
_atom_site_fract_z
Si Si1 0.180612 0.603164 0.455561
Si Si2 0.680466 0.459820 0.826194
Si Si3 0.321802 0.853937 0.322537
Si Si4 0.176286 0.050419 0.911920
Si Si5 0.318022 0.747910 0.674759
Si Si6 0.181206 0.206642 0.453505
O O1 0.216047 0.586976 0.376084
O O2 0.233447 0.558516 0.508145
O O3 0.270828 0.652225 0.478115
O O4 0.000000 0.613461 0.466806
O O5 0.500000 0.467101 0.815011
O O6 0.750000 0.451284 0.750000
O O7 0.756504 0.507494 0.865750
O O8 0.500000 0.839926 0.311280
O O9 0.250000 0.871681 0.250000
O O10 0.298329 0.897031 0.376758
O O11 0.232224 0.806275 0.351511
O O12 0.000000 0.034137 0.914582
O O13 0.500000 0.752476 0.675286
O O14 0.250000 0.758728 0.750000
O O15 0.247018 0.788628 0.624258
O O16 0.250000 0.250000 0.500000
O O17 0.000000 0.212090 0.455221
#
# Coordination Sequence:
#
# PCOD8261701 Si02
#       6
#    16  16  16  16  16  16
#     4  10  21  39  62  86 115 153 199 246 294 348
#     4  10  21  38  61  88 119 156 196 240 290 348
#     4  10  18  30  51  81 117 154 195 245 300 355
#     4   9  18  34  58  85 113 151 198 244 290 345
#     4  11  22  38  59  85 118 157 202 250 304 361
#     4  12  25  42  63  89 121 157 201 249 303 363
#
# _framework density 21.225567000000002
#
# number of rings (size 3 to 8) (size 9 to 14) (size 15 to 20)
#    0.000    1.667    0.000    6.500    0.000    4.667 
#    0.000    4.167    0.000    2.000    0.000    0.000 
#    0.000    0.000    0.000    0.000    0.000    0.000 
#
# Total GULP energy -595073.842831 kJ/mol
# GULP energy per Si atom -12397.371726 kJ/mol
# Density = 2.117726 g / cm^3
# Si number density = 21.225567 Si / 1000 Ang^3
#
#
#
# Elastic Constant Matrix: (Units=GPa)
#
#
# Indices 1 2 3 4 5 6 
#
# 1 121.2730 42.8701 41.5805 0.0000 0.0000 0.0000
# 2 42.8701 86.0072 48.7894 0.0000 0.0000 0.0000
# 3 41.5805 48.7894 122.7787 0.0000 0.0000 0.0000
# 4 0.0000 0.0000 0.0000 11.4901 0.0000 0.0000
# 5 0.0000 0.0000 0.0000 0.0000 32.4173 0.0000
# 6 0.0000 0.0000 0.0000 0.0000 0.0000 28.9071
#
#
#
# Elastic Compliance Matrix: (Units=1/GPa)
#
#
# Indices 1 2 3 4 5 6 
#
# 1 0.010334 -0.004087 -0.001876 0.000000 0.000000 0.000000
# 2 -0.004087 0.016627 -0.005223 0.000000 0.000000 0.000000
# 3 -0.001876 -0.005223 0.010855 0.000000 0.000000 0.000000
# 4 0.000000 0.000000 0.000000 0.087032 0.000000 0.000000
# 5 0.000000 0.000000 0.000000 0.000000 0.030848 0.000000
# 6 0.000000 0.000000 0.000000 0.000000 0.000000 0.034594
#
#
# Mechanical properties :
#
#
# Convention : Reuss Voigt Hill
#
# Bulk Modulus (GPa) = 64.74592 66.28210 65.51401
# Shear Modulus (GPa) = 22.95595 27.68415 25.32005
#
# Velocity S-wave (km/s) = 3.29222 3.61540 3.45759
# Velocity P-wave (km/s) = 6.70981 6.98022 6.84635
#
# Compressibility (1/GPa) = 0.01544499
#
# Stress axis : x y z
#
# Youngs Moduli (GPa) = 96.77138 60.14349 92.11949
#
# Poissons Ratio (x) = 0.24579 0.17278
# Poissons Ratio (y) = 0.39549 0.48115
# Poissons Ratio (z) = 0.18151 0.31414
#
# Static dielectric constant tensor:
#      x y z
#    x 3.655020 0.000000 0.000000 
#    y 0.000000 4.017630 0.000000 
#    z 0.000000 0.000000 4.061970 
# 
# 
# High freq. dielectric constant tensor:
#      x y z
#    x 1.807410 0.000000 0.000000 
#    y 0.000000 1.834370 0.000000 
#    z 0.000000 0.000000 1.850810 
# 
# From -- ./inp_files/37118.got.cif
#   From: 2010.03.12/outbox.cif.g09.slc.cpg/sg64_19_cif.got.tgz:37118.got - 2010.04.10 20:19:32.
