data_PCOD8261628
_publ_section_title
;
Structure prediction by ZEFSAII (Michael W. Deem and Ramdas Pophale) SiO2 
 PCOD8261628
Probable space group: C M C A
;
_chemical_formula_sum "Si O2"
_cell_formula_units_Z 128
_cell_length_a 18.467189
_cell_length_b 22.257467
_cell_length_c 18.980702
_cell_angle_alpha 90.000000
_cell_angle_beta 90.000000
_cell_angle_gamma 90.000000
_cell_volume 7801.692033
_symmetry_space_group_name_H-M "C M C A"
_symmetry_group_IT_number 64
_symmetry_cell_setting 'orthorhombic'
loop_
_space_group_symop_operation_xyz
x,y,z
-x,1/2-y,1/2+z
x,-y,-z
-x,1/2+y,1/2-z
-x,-y,-z
x,1/2+y,1/2-z
-x,y,z
x,1/2-y,1/2+z
1/2+x,1/2+y,z
1/2-x,-y,1/2+z
1/2+x,1/2-y,-z
1/2-x,y,1/2-z
1/2-x,1/2-y,-z
1/2+x,y,1/2-z
1/2-x,1/2+y,z
1/2+x,-y,1/2+z
loop_
_atom_site_type_symbol
_atom_site_label
_atom_site_fract_x
_atom_site_fract_y
_atom_site_fract_z
Si Si1 0.691523 0.622598 0.194456
Si Si2 0.294210 0.915698 0.057956
Si Si3 0.083060 0.325448 0.039863
Si Si4 0.795257 0.547829 0.101607
Si Si5 0.329628 0.278796 0.919120
Si Si6 0.918339 0.273205 0.888251
Si Si7 0.915723 0.892118 0.689242
Si Si8 0.303288 0.190966 0.571321
O O1 0.750000 0.648405 0.250000
O O2 0.729359 0.569456 0.150600
O O3 0.665090 0.676423 0.145715
O O4 0.621273 0.595889 0.234865
O O5 0.371391 0.882930 0.064440
O O6 0.230703 0.873606 0.090902
O O7 0.296671 0.975768 0.103785
O O8 0.279039 0.928397 0.976207
O O9 0.103465 0.267722 0.087535
O O10 0.000000 0.342704 0.049532
O O11 0.103549 0.308688 0.959569
O O12 0.873248 0.570856 0.129031
O O13 0.254860 0.243277 0.919734
O O14 0.333669 0.315380 0.992029
O O15 0.908175 0.320640 0.825234
O O16 0.869044 0.213399 0.878257
O O17 0.000000 0.249695 0.892853
O O18 0.000000 0.912086 0.689282
#
# Coordination Sequence:
#
# PCOD8261628 Si02
#       8
#    16  16  16  16  16  16  16  16
#     4  10  19  31  49  68  96 129 164 200 232 272
#     4  10  18  28  49  71  98 128 154 197 249 283
#     4   9  17  28  45  72 104 126 145 189 245 295
#     4  10  19  31  46  72  97 125 164 202 235 279
#     4   9  16  26  45  70  94 125 156 191 237 285
#     4   9  16  28  47  73 101 125 152 189 240 293
#     4  10  20  33  50  71  99 129 160 196 235 282
#     4   9  15  27  47  70  99 122 151 193 244 286
#
# _framework density 16.406697000000001
#
# number of rings (size 3 to 8) (size 9 to 14) (size 15 to 20)
#    0.000    2.500    2.500    2.250    0.000    1.000 
#    0.000    1.250    0.000   18.750    0.000    5.250 
#    0.000    0.000    0.000    0.000    0.000    0.000 
#
# Total GULP energy -793282.590810 kJ/mol
# GULP energy per Si atom -12395.040481 kJ/mol
# Density = 1.636935 g / cm^3
# Si number density = 16.406697 Si / 1000 Ang^3
#
#
#
# Elastic Constant Matrix: (Units=GPa)
#
#
# Indices 1 2 3 4 5 6 
#
# 1 98.7489 56.8498 27.2010 0.0000 0.0000 0.0000
# 2 56.8498 99.9281 25.1611 0.0000 0.0000 0.0000
# 3 27.2010 25.1611 52.3190 0.0000 0.0000 0.0000
# 4 0.0000 0.0000 0.0000 19.6188 0.0000 0.0000
# 5 0.0000 0.0000 0.0000 0.0000 15.6516 0.0000
# 6 0.0000 0.0000 0.0000 0.0000 0.0000 20.5130
#
#
#
# Elastic Compliance Matrix: (Units=1/GPa)
#
#
# Indices 1 2 3 4 5 6 
#
# 1 0.015925 -0.007936 -0.004463 0.000000 0.000000 0.000000
# 2 -0.007936 0.015341 -0.003252 0.000000 0.000000 0.000000
# 3 -0.004463 -0.003252 0.022998 0.000000 0.000000 0.000000
# 4 0.000000 0.000000 0.000000 0.050971 0.000000 0.000000
# 5 0.000000 0.000000 0.000000 0.000000 0.063891 0.000000
# 6 0.000000 0.000000 0.000000 0.000000 0.000000 0.048750
#
#
# Mechanical properties :
#
#
# Convention : Reuss Voigt Hill
#
# Bulk Modulus (GPa) = 43.55005 52.15778 47.85392
# Shear Modulus (GPa) = 19.46808 20.60895 20.03852
#
# Velocity S-wave (km/s) = 3.44843 3.54804 3.49859
# Velocity P-wave (km/s) = 6.51593 6.97455 6.74913
#
# Compressibility (1/GPa) = 0.02296209
#
# Stress axis : x y z
#
# Youngs Moduli (GPa) = 62.79517 65.18563 43.48292
#
# Poissons Ratio (x) = 0.51731 0.19406
# Poissons Ratio (y) = 0.49834 0.14139
# Poissons Ratio (z) = 0.28024 0.21196
#
# Static dielectric constant tensor:
#      x y z
#    x 3.134920 0.000000 0.000000 
#    y 0.000000 2.998470 0.000000 
#    z 0.000000 0.000000 2.950200 
# 
# 
# High freq. dielectric constant tensor:
#      x y z
#    x 1.631180 0.000000 0.000000 
#    y 0.000000 1.613310 0.000000 
#    z 0.000000 0.000000 1.606090 
# 
# From -- ./inp_files/33784.got.cif
#   From: 2010.03.12/outbox.cif.g09.slc.cpg/sg64_17_cif.got.tgz:33784.got - 2010.04.10 20:19:32.
