data_PCOD8261754
_publ_section_title
;
Structure prediction by ZEFSAII (Michael W. Deem and Ramdas Pophale) SiO2 
 PCOD8261754
Probable space group: C M C A
;
_chemical_formula_sum "Si O2"
_cell_formula_units_Z 112
_cell_length_a 17.452866
_cell_length_b 19.072567
_cell_length_c 19.476304
_cell_angle_alpha 90.000000
_cell_angle_beta 90.000000
_cell_angle_gamma 90.000000
_cell_volume 6483.095934
_symmetry_space_group_name_H-M "C M C A"
_symmetry_group_IT_number 64
_symmetry_cell_setting 'orthorhombic'
loop_
_space_group_symop_operation_xyz
x,y,z
-x,1/2-y,1/2+z
x,-y,-z
-x,1/2+y,1/2-z
-x,-y,-z
x,1/2+y,1/2-z
-x,y,z
x,1/2-y,1/2+z
1/2+x,1/2+y,z
1/2-x,-y,1/2+z
1/2+x,1/2-y,-z
1/2-x,y,1/2-z
1/2-x,1/2-y,-z
1/2+x,y,1/2-z
1/2-x,1/2+y,z
1/2+x,-y,1/2+z
loop_
_atom_site_type_symbol
_atom_site_label
_atom_site_fract_x
_atom_site_fract_y
_atom_site_fract_z
Si Si1 0.874482 0.475509 0.742551
Si Si2 0.767964 0.513785 0.142682
Si Si3 0.086730 0.129552 0.782488
Si Si4 0.825178 0.925471 0.968341
Si Si5 0.714981 0.865792 0.393419
Si Si6 0.084029 0.357849 0.650211
Si Si7 0.312129 0.730232 0.692931
O O1 0.847929 0.463760 0.821807
O O2 0.800241 0.476304 0.695533
O O3 0.919542 0.548515 0.739276
O O4 0.924929 0.411362 0.714599
O O5 0.752599 0.561503 0.075731
O O6 0.768428 0.432129 0.123616
O O7 0.134832 0.135873 0.852448
O O8 0.128432 0.173519 0.722788
O O9 0.000000 0.157849 0.793761
O O10 0.892542 0.897625 0.919570
O O11 0.806650 0.867547 0.026189
O O12 0.853034 0.000000 0.000000
O O13 0.767062 0.799434 0.373491
O O14 0.145026 0.298858 0.668032
O O15 0.000000 0.324699 0.638418
O O16 0.250000 0.751722 0.750000
#
# Coordination Sequence:
#
# PCOD8261754 Si02
#       7
#    16  16  16  16  16  16  16
#     4   9  16  28  51  74 100 132 170 209 257 304
#     4   8  14  28  50  76 100 125 168 219 248 290
#     4  10  18  31  53  78 104 133 168 215 266 309
#     4   9  19  32  53  78 103 132 170 213 262 303
#     4   9  17  33  51  77 101 134 176 209 248 311
#     4  11  23  34  49  79 113 137 166 214 268 314
#     4  10  21  35  53  75 103 139 180 218 252 301
#
# _framework density 17.275697000000001
#
# number of rings (size 3 to 8) (size 9 to 14) (size 15 to 20)
#    0.000    2.571    1.429    1.714    4.000    1.429 
#    0.000    0.000    0.000    0.000    0.000    4.000 
#    0.000    0.000    0.000    0.000    0.000    0.000 
#
# Total GULP energy -694041.596707 kJ/mol
# GULP energy per Si atom -12393.599941 kJ/mol
# Density = 1.723638 g / cm^3
# Si number density = 17.275697 Si / 1000 Ang^3
#
#
#
# Elastic Constant Matrix: (Units=GPa)
#
#
# Indices 1 2 3 4 5 6 
#
# 1 100.3672 44.9690 51.8283 0.0000 0.0000 0.0000
# 2 44.9690 79.8587 30.7114 0.0000 0.0000 0.0000
# 3 51.8283 30.7114 86.1325 0.0000 0.0000 0.0000
# 4 0.0000 0.0000 0.0000 22.5951 0.0000 0.0000
# 5 0.0000 0.0000 0.0000 0.0000 14.3806 0.0000
# 6 0.0000 0.0000 0.0000 0.0000 0.0000 24.9171
#
#
#
# Elastic Compliance Matrix: (Units=1/GPa)
#
#
# Indices 1 2 3 4 5 6 
#
# 1 0.016950 -0.006516 -0.007876 0.000000 0.000000 0.000000
# 2 -0.006516 0.017017 -0.002147 0.000000 0.000000 0.000000
# 3 -0.007876 -0.002147 0.017115 0.000000 0.000000 0.000000
# 4 0.000000 0.000000 0.000000 0.044257 0.000000 0.000000
# 5 0.000000 0.000000 0.000000 0.000000 0.069538 0.000000
# 6 0.000000 0.000000 0.000000 0.000000 0.000000 0.040133
#
#
# Mechanical properties :
#
#
# Convention : Reuss Voigt Hill
#
# Bulk Modulus (GPa) = 55.54219 57.93063 56.73641
# Shear Modulus (GPa) = 20.48442 21.63520 21.05981
#
# Velocity S-wave (km/s) = 3.44719 3.54269 3.49527
# Velocity P-wave (km/s) = 6.93285 7.09507 7.01443
#
# Compressibility (1/GPa) = 0.01800433
#
# Stress axis : x y z
#
# Youngs Moduli (GPa) = 58.99798 58.76563 58.42956
#
# Poissons Ratio (x) = 0.38290 0.46018
# Poissons Ratio (y) = 0.38441 0.12544
# Poissons Ratio (z) = 0.46466 0.12616
#
# Static dielectric constant tensor:
#      x y z
#    x 3.224940 0.000000 0.000000 
#    y 0.000000 3.132160 0.000000 
#    z 0.000000 0.000000 3.702220 
# 
# 
# High freq. dielectric constant tensor:
#      x y z
#    x 1.648600 0.000000 0.000000 
#    y 0.000000 1.656410 0.000000 
#    z 0.000000 0.000000 1.658720 
# 
# From -- ./inp_files/40412.got.cif
#   From: 2010.03.12/outbox.cif.g09.slc.cpg/sg64_21_cif.got.tgz:40412.got - 2010.04.10 20:19:32.
