data_PCOD8261908
_publ_section_title
;
Structure prediction by ZEFSAII (Michael W. Deem and Ramdas Pophale) SiO2 
 PCOD8261908
Probable space group: C M C A
;
_chemical_formula_sum "Si O2"
_cell_formula_units_Z 64
_cell_length_a 21.460876
_cell_length_b 7.194075
_cell_length_c 17.856393
_cell_angle_alpha 90.000000
_cell_angle_beta 90.000000
_cell_angle_gamma 90.000000
_cell_volume 2756.869077
_symmetry_space_group_name_H-M "C M C A"
_symmetry_group_IT_number 64
_symmetry_cell_setting 'orthorhombic'
loop_
_space_group_symop_operation_xyz
x,y,z
-x,1/2-y,1/2+z
x,-y,-z
-x,1/2+y,1/2-z
-x,-y,-z
x,1/2+y,1/2-z
-x,y,z
x,1/2-y,1/2+z
1/2+x,1/2+y,z
1/2-x,-y,1/2+z
1/2+x,1/2-y,-z
1/2-x,y,1/2-z
1/2-x,1/2-y,-z
1/2+x,y,1/2-z
1/2-x,1/2+y,z
1/2+x,-y,1/2+z
loop_
_atom_site_type_symbol
_atom_site_label
_atom_site_fract_x
_atom_site_fract_y
_atom_site_fract_z
Si Si1 0.130202 0.081922 0.660347
Si Si2 0.687669 0.281453 0.200766
Si Si3 0.866305 0.044594 0.083225
Si Si4 0.500000 0.917125 0.194674
Si Si5 0.000000 0.997993 0.860046
O O1 0.132511 0.197644 0.738466
O O2 0.139389 0.231371 0.593907
O O3 0.061766 0.984698 0.660542
O O4 0.181627 0.917815 0.658731
O O5 0.750000 0.296824 0.250000
O O6 0.682314 0.445763 0.140016
O O7 0.936580 0.963804 0.093246
O O8 0.843622 0.000000 0.000000
O O9 0.500000 0.713808 0.161654
O O10 0.500000 0.885251 0.283764
#
# Coordination Sequence:
#
# PCOD8261908 Si02
#       5
#    16  16  16   8   8
#     4  11  22  40  69  99 131 174 232 286 335 408
#     4  12  24  41  71  97 127 182 240 278 331 410
#     4  11  25  43  67 106 148 181 223 292 366 418
#     4  10  18  34  63 104 121 170 231 282 331 402
#     4  10  19  36  67 103 142 178 224 285 356 419
#
# _framework density 23.214739999999999
#
# number of rings (size 3 to 8) (size 9 to 14) (size 15 to 20)
#    0.000    1.000    5.000    2.625    0.000    2.000 
#    0.000    1.250    0.000    6.000    0.000    0.000 
#    0.000    0.000    0.000    0.000    0.000    0.000 
#
# Total GULP energy -396591.788990 kJ/mol
# GULP energy per Si atom -12393.493406 kJ/mol
# Density = 2.316190 g / cm^3
# Si number density = 23.214740 Si / 1000 Ang^3
#
#
#
# Elastic Constant Matrix: (Units=GPa)
#
#
# Indices 1 2 3 4 5 6 
#
# 1 134.8940 43.2046 37.5504 0.0000 0.0000 0.0000
# 2 43.2046 84.5164 13.3311 0.0000 0.0000 0.0000
# 3 37.5504 13.3311 87.4957 0.0000 0.0000 0.0000
# 4 0.0000 0.0000 0.0000 26.1894 0.0000 0.0000
# 5 0.0000 0.0000 0.0000 0.0000 21.8791 0.0000
# 6 0.0000 0.0000 0.0000 0.0000 0.0000 28.1382
#
#
#
# Elastic Compliance Matrix: (Units=1/GPa)
#
#
# Indices 1 2 3 4 5 6 
#
# 1 0.009828 -0.004466 -0.003538 0.000000 0.000000 0.000000
# 2 -0.004466 0.014153 -0.000240 0.000000 0.000000 0.000000
# 3 -0.003538 -0.000240 0.012984 0.000000 0.000000 0.000000
# 4 0.000000 0.000000 0.000000 0.038183 0.000000 0.000000
# 5 0.000000 0.000000 0.000000 0.000000 0.045706 0.000000
# 6 0.000000 0.000000 0.000000 0.000000 0.000000 0.035539
#
#
# Mechanical properties :
#
#
# Convention : Reuss Voigt Hill
#
# Bulk Modulus (GPa) = 48.83202 55.00872 51.92037
# Shear Modulus (GPa) = 27.82318 29.42934 28.62626
#
# Velocity S-wave (km/s) = 3.46571 3.56434 3.51537
# Velocity P-wave (km/s) = 6.09060 6.37859 6.23626
#
# Compressibility (1/GPa) = 0.02047837
#
# Stress axis : x y z
#
# Youngs Moduli (GPa) = 101.74523 70.65653 77.01871
#
# Poissons Ratio (x) = 0.31557 0.27246
# Poissons Ratio (y) = 0.45442 0.01845
# Poissons Ratio (z) = 0.35993 0.01693
#
# Static dielectric constant tensor:
#      x y z
#    x 4.838670 0.000000 0.000000 
#    y 0.000000 4.066870 0.000000 
#    z 0.000000 0.000000 3.962810 
# 
# 
# High freq. dielectric constant tensor:
#      x y z
#    x 1.928900 0.000000 0.000000 
#    y 0.000000 1.918810 0.000000 
#    z 0.000000 0.000000 1.872230 
# 
# From -- ./inp_files/33907.got.cif
#   From: 2010.03.12/outbox.cif.g09.slc.cpg/sg64_17_cif.got.tgz:33907.got - 2010.04.10 20:19:32.
