data_PCOD8261132
_publ_section_title
;
Structure prediction by ZEFSAII (Michael W. Deem and Ramdas Pophale) SiO2 
 PCOD8261132
Probable space group: C M C M
;
_chemical_formula_sum "Si O2"
_cell_formula_units_Z 80
_cell_length_a 7.810620
_cell_length_b 29.376723
_cell_length_c 18.707494
_cell_angle_alpha 90.000000
_cell_angle_beta 90.000000
_cell_angle_gamma 90.000000
_cell_volume 4292.442359
_symmetry_space_group_name_H-M "C M C M"
_symmetry_group_IT_number 63
_symmetry_cell_setting 'orthorhombic'
loop_
_space_group_symop_operation_xyz
x,y,z
-x,-y,1/2+z
x,-y,-z
-x,y,1/2-z
-x,-y,-z
x,y,1/2-z
-x,y,z
x,-y,1/2+z
1/2+x,1/2+y,z
1/2-x,1/2-y,1/2+z
1/2+x,1/2-y,-z
1/2-x,1/2+y,1/2-z
1/2-x,1/2-y,-z
1/2+x,1/2+y,1/2-z
1/2-x,1/2+y,z
1/2+x,1/2-y,1/2+z
loop_
_atom_site_type_symbol
_atom_site_label
_atom_site_fract_x
_atom_site_fract_y
_atom_site_fract_z
Si Si1 0.801136 0.335644 0.666115
Si Si2 0.690148 0.936273 0.164979
Si Si3 0.500000 0.598847 0.165586
Si Si4 0.298984 0.834692 0.329369
Si Si5 0.694851 0.749949 0.918807
Si Si6 0.000000 0.996958 0.335520
O O1 0.783264 0.326085 0.750000
O O2 0.675634 0.376408 0.641036
O O3 0.722669 0.291004 0.626766
O O4 0.000000 0.347658 0.647089
O O5 0.682887 0.937763 0.250000
O O6 0.500000 0.948355 0.134849
O O7 0.745690 0.885222 0.142102
O O8 0.829942 0.971657 0.135000
O O9 0.500000 0.595082 0.250000
O O10 0.500000 0.547976 0.133106
O O11 0.219886 0.826705 0.250000
O O12 0.500000 0.828340 0.324865
O O13 0.224973 0.799193 0.385240
O O14 0.500000 0.762353 0.915665
O O15 0.750000 0.750000 0.000000
O O16 0.000000 0.996121 0.250000
#
# Coordination Sequence:
#
# PCOD8261132 Si02
#       6
#    16  16   8  16  16   8
#     4   9  19  35  52  73 102 135 174 214 253 306
#     4   8  15  27  43  68 103 134 162 203 252 305
#     4   9  18  30  50  75 101 139 174 209 257 297
#     4   9  18  32  51  75 103 138 172 205 255 311
#     4  11  23  35  50  74 102 135 173 215 263 309
#     4   9  16  26  44  73 103 133 169 207 252 303
#
# _framework density 18.637408000000001
#
# number of rings (size 3 to 8) (size 9 to 14) (size 15 to 20)
#    0.000    2.800    0.000    2.400    4.200    2.000 
#    0.000    4.000    0.000    0.000    0.000    2.800 
#    0.000    6.400    0.000    0.000    0.000    0.000 
#
# Total GULP energy -495710.166609 kJ/mol
# GULP energy per Si atom -12392.754165 kJ/mol
# Density = 1.859499 g / cm^3
# Si number density = 18.637408 Si / 1000 Ang^3
#
#
#
# Elastic Constant Matrix: (Units=GPa)
#
#
# Indices 1 2 3 4 5 6 
#
# 1 103.5378 83.9225 26.8748 0.0000 0.0000 0.0000
# 2 83.9225 156.6204 45.5487 0.0000 0.0000 0.0000
# 3 26.8748 45.5487 54.7470 0.0000 0.0000 0.0000
# 4 0.0000 0.0000 0.0000 13.3494 0.0000 0.0000
# 5 0.0000 0.0000 0.0000 0.0000 16.6097 0.0000
# 6 0.0000 0.0000 0.0000 0.0000 0.0000 33.3393
#
#
#
# Elastic Compliance Matrix: (Units=1/GPa)
#
#
# Indices 1 2 3 4 5 6 
#
# 1 0.017117 -0.008876 -0.001018 0.000000 0.000000 0.000000
# 2 -0.008876 0.013025 -0.006480 0.000000 0.000000 0.000000
# 3 -0.001018 -0.006480 0.024157 0.000000 0.000000 0.000000
# 4 0.000000 0.000000 0.000000 0.074910 0.000000 0.000000
# 5 0.000000 0.000000 0.000000 0.000000 0.060206 0.000000
# 6 0.000000 0.000000 0.000000 0.000000 0.000000 0.029995
#
#
# Mechanical properties :
#
#
# Convention : Reuss Voigt Hill
#
# Bulk Modulus (GPa) = 46.40019 69.73302 58.06660
# Shear Modulus (GPa) = 19.27975 23.23029 21.25502
#
# Velocity S-wave (km/s) = 3.21980 3.53432 3.38072
# Velocity P-wave (km/s) = 6.22681 7.35881 6.81635
#
# Compressibility (1/GPa) = 0.02155164
#
# Stress axis : x y z
#
# Youngs Moduli (GPa) = 58.42245 76.77424 41.39639
#
# Poissons Ratio (x) = 0.68142 0.04214
# Poissons Ratio (y) = 0.51854 0.26824
# Poissons Ratio (z) = 0.05948 0.49748
#
# Static dielectric constant tensor:
#      x y z
#    x 3.699960 0.000000 0.000000 
#    y 0.000000 3.748590 0.000000 
#    z 0.000000 0.000000 2.909800 
# 
# 
# High freq. dielectric constant tensor:
#      x y z
#    x 1.733460 0.000000 0.000000 
#    y 0.000000 1.727050 0.000000 
#    z 0.000000 0.000000 1.666780 
# 
# From -- ./inp_files/40624.got.cif
#   From: 2010.03.12/outbox.cif.g09.slc.cpg/sg63_21_cif.got.tgz:40624.got - 2010.04.10 19:34:48.
