data_PCOD8261669
_publ_section_title
;
Structure prediction by ZEFSAII (Michael W. Deem and Ramdas Pophale) SiO2 
 PCOD8261669
Probable space group: C M C A
;
_chemical_formula_sum "Si O2"
_cell_formula_units_Z 80
_cell_length_a 8.806160
_cell_length_b 23.742300
_cell_length_c 21.394139
_cell_angle_alpha 90.000000
_cell_angle_beta 90.000000
_cell_angle_gamma 90.000000
_cell_volume 4473.054332
_symmetry_space_group_name_H-M "C M C A"
_symmetry_group_IT_number 64
_symmetry_cell_setting 'orthorhombic'
loop_
_space_group_symop_operation_xyz
x,y,z
-x,1/2-y,1/2+z
x,-y,-z
-x,1/2+y,1/2-z
-x,-y,-z
x,1/2+y,1/2-z
-x,y,z
x,1/2-y,1/2+z
1/2+x,1/2+y,z
1/2-x,-y,1/2+z
1/2+x,1/2-y,-z
1/2-x,y,1/2-z
1/2-x,1/2-y,-z
1/2+x,y,1/2-z
1/2-x,1/2+y,z
1/2+x,-y,1/2+z
loop_
_atom_site_type_symbol
_atom_site_label
_atom_site_fract_x
_atom_site_fract_y
_atom_site_fract_z
Si Si1 0.177267 0.811030 0.811665
Si Si2 0.167948 0.661114 0.989957
Si Si3 0.820092 0.432069 0.814821
Si Si4 0.666863 0.258497 0.089787
Si Si5 0.680433 0.046231 0.048469
O O1 0.250000 0.784094 0.750000
O O2 0.266011 0.868539 0.825841
O O3 0.205282 0.764523 0.863942
O O4 0.000000 0.824049 0.804422
O O5 0.278327 0.679972 0.933650
O O6 0.000000 0.645459 0.963956
O O7 0.152395 0.714272 0.034444
O O8 0.239808 0.607322 0.025573
O O9 0.750000 0.457422 0.750000
O O10 0.769678 0.465084 0.878758
O O11 0.000000 0.432784 0.807008
O O12 0.500000 0.265555 0.121065
O O13 0.500000 0.045674 0.046708
O O14 0.747353 0.000000 0.000000
#
# Coordination Sequence:
#
# PCOD8261669 Si02
#       5
#    16  16  16  16  16
#     4  11  20  30  47  71 100 132 164 201 250 301
#     4   9  17  30  47  70  97 127 164 201 245 295
#     4  10  18  31  49  73 101 130 165 207 255 304
#     4  10  18  30  47  70  99 129 160 200 243 295
#     4   9  17  31  52  75 100 131 172 216 254 298
#
# _framework density 17.884871
#
# number of rings (size 3 to 8) (size 9 to 14) (size 15 to 20)
#    0.000    2.200    2.000    4.200    0.000    0.800 
#    0.000    0.000    0.000    6.600    0.000    2.800 
#    0.000    0.000    0.000    0.000    0.000    0.000 
#
# Total GULP energy -495587.613589 kJ/mol
# GULP energy per Si atom -12389.690340 kJ/mol
# Density = 1.784416 g / cm^3
# Si number density = 17.884871 Si / 1000 Ang^3
#
#
#
# Elastic Constant Matrix: (Units=GPa)
#
#
# Indices 1 2 3 4 5 6 
#
# 1 78.9401 15.6464 35.3926 0.0000 0.0000 0.0000
# 2 15.6464 56.8028 42.0507 0.0000 0.0000 0.0000
# 3 35.3926 42.0507 124.4661 0.0000 0.0000 0.0000
# 4 0.0000 0.0000 0.0000 47.9229 0.0000 0.0000
# 5 0.0000 0.0000 0.0000 0.0000 28.0030 0.0000
# 6 0.0000 0.0000 0.0000 0.0000 0.0000 11.9055
#
#
#
# Elastic Compliance Matrix: (Units=1/GPa)
#
#
# Indices 1 2 3 4 5 6 
#
# 1 0.014587 -0.001263 -0.003721 0.000000 0.000000 0.000000
# 2 -0.001263 0.023586 -0.007609 0.000000 0.000000 0.000000
# 3 -0.003721 -0.007609 0.011663 0.000000 0.000000 0.000000
# 4 0.000000 0.000000 0.000000 0.020867 0.000000 0.000000
# 5 0.000000 0.000000 0.000000 0.000000 0.035711 0.000000
# 6 0.000000 0.000000 0.000000 0.000000 0.000000 0.083995
#
#
# Mechanical properties :
#
#
# Convention : Reuss Voigt Hill
#
# Bulk Modulus (GPa) = 40.57030 49.59871 45.08450
# Shear Modulus (GPa) = 22.34030 28.70755 25.52393
#
# Velocity S-wave (km/s) = 3.53812 4.01075 3.78183
# Velocity P-wave (km/s) = 6.27889 7.01717 6.65827
#
# Compressibility (1/GPa) = 0.02464857
#
# Stress axis : x y z
#
# Youngs Moduli (GPa) = 68.55652 42.39845 85.74009
#
# Poissons Ratio (x) = 0.05356 0.31904
# Poissons Ratio (y) = 0.08660 0.65241
# Poissons Ratio (z) = 0.25510 0.32262
#
# Static dielectric constant tensor:
#      x y z
#    x 3.367060 0.000000 0.000000 
#    y 0.000000 3.090010 0.000000 
#    z 0.000000 0.000000 3.262840 
# 
# 
# High freq. dielectric constant tensor:
#      x y z
#    x 1.685120 0.000000 0.000000 
#    y 0.000000 1.647070 0.000000 
#    z 0.000000 0.000000 1.691680 
# 
# From -- ./inp_files/29718.got.cif
#   From: 2010.03.12/outbox.cif.g09.slc.cpg/sg64_15_cif.got.tgz:29718.got - 2010.04.10 20:19:32.
