data_PCOD8261765
_publ_section_title
;
Structure prediction by ZEFSAII (Michael W. Deem and Ramdas Pophale) SiO2 
 PCOD8261765
Probable space group: C M C A
;
_chemical_formula_sum "Si O2"
_cell_formula_units_Z 104
_cell_length_a 19.127848
_cell_length_b 24.487091
_cell_length_c 11.768157
_cell_angle_alpha 90.000000
_cell_angle_beta 90.000000
_cell_angle_gamma 90.000000
_cell_volume 5512.032390
_symmetry_space_group_name_H-M "C M C A"
_symmetry_group_IT_number 64
_symmetry_cell_setting 'orthorhombic'
loop_
_space_group_symop_operation_xyz
x,y,z
-x,1/2-y,1/2+z
x,-y,-z
-x,1/2+y,1/2-z
-x,-y,-z
x,1/2+y,1/2-z
-x,y,z
x,1/2-y,1/2+z
1/2+x,1/2+y,z
1/2-x,-y,1/2+z
1/2+x,1/2-y,-z
1/2-x,y,1/2-z
1/2-x,1/2-y,-z
1/2+x,y,1/2-z
1/2-x,1/2+y,z
1/2+x,-y,1/2+z
loop_
_atom_site_type_symbol
_atom_site_label
_atom_site_fract_x
_atom_site_fract_y
_atom_site_fract_z
Si Si1 0.206835 0.406538 0.030892
Si Si2 0.242881 0.799576 0.122836
Si Si3 0.170961 0.539935 0.405434
Si Si4 0.366986 0.759139 0.525076
Si Si5 0.750000 0.967950 0.250000
Si Si6 0.080045 0.648511 0.069900
Si Si7 0.420084 0.142286 0.331444
O O1 0.240801 0.346756 0.032511
O O2 0.211205 0.431502 0.156180
O O3 0.251248 0.442843 0.944780
O O4 0.127262 0.399305 0.986531
O O5 0.250000 0.821665 0.250000
O O6 0.299585 0.751676 0.105176
O O7 0.163777 0.780151 0.096123
O O8 0.135775 0.500000 0.500000
O O9 0.185140 0.504227 0.294057
O O10 0.123605 0.591954 0.381173
O O11 0.412414 0.705400 0.499054
O O12 0.412601 0.804561 0.588886
O O13 0.102172 0.656080 0.202008
O O14 0.000000 0.629347 0.059417
O O15 0.500000 0.123613 0.335108
#
# Coordination Sequence:
#
# PCOD8261765 Si02
#       7
#    16  16  16  16   8  16  16
#     4  10  19  36  59  83 112 146 184 239 291 336
#     4  10  18  31  54  84 114 140 183 232 277 333
#     4  10  21  37  58  84 108 142 198 243 287 336
#     4  10  20  34  54  83 114 155 185 224 274 341
#     4  10  20  36  62  82 108 142 190 246 294 340
#     4  10  22  37  56  87 120 151 187 228 281 349
#     4  11  22  38  57  79 117 157 190 233 286 338
#
# _framework density 18.867813000000002
#
# number of rings (size 3 to 8) (size 9 to 14) (size 15 to 20)
#    0.000    1.846    2.308    2.308    0.000    0.308 
#    1.385    0.769    0.000   15.231    0.000    0.000 
#    0.000    0.000    0.000    0.000    0.000    0.000 
#
# Total GULP energy -644637.149353 kJ/mol
# GULP energy per Si atom -12396.868257 kJ/mol
# Density = 1.882487 g / cm^3
# Si number density = 18.867813 Si / 1000 Ang^3
#
#
#
# Elastic Constant Matrix: (Units=GPa)
#
#
# Indices 1 2 3 4 5 6 
#
# 1 91.7474 39.2615 46.4849 0.0000 0.0000 0.0000
# 2 39.2615 98.4552 41.7558 0.0000 0.0000 0.0000
# 3 46.4849 41.7558 107.1848 0.0000 0.0000 0.0000
# 4 0.0000 0.0000 0.0000 30.3239 0.0000 0.0000
# 5 0.0000 0.0000 0.0000 0.0000 21.2924 0.0000
# 6 0.0000 0.0000 0.0000 0.0000 0.0000 22.1920
#
#
#
# Elastic Compliance Matrix: (Units=1/GPa)
#
#
# Indices 1 2 3 4 5 6 
#
# 1 0.015119 -0.003891 -0.005041 0.000000 0.000000 0.000000
# 2 -0.003891 0.013169 -0.003443 0.000000 0.000000 0.000000
# 3 -0.005041 -0.003443 0.012857 0.000000 0.000000 0.000000
# 4 0.000000 0.000000 0.000000 0.032977 0.000000 0.000000
# 5 0.000000 0.000000 0.000000 0.000000 0.046965 0.000000
# 6 0.000000 0.000000 0.000000 0.000000 0.000000 0.045061
#
#
# Mechanical properties :
#
#
# Convention : Reuss Voigt Hill
#
# Bulk Modulus (GPa) = 60.99379 61.37686 61.18533
# Shear Modulus (GPa) = 25.46318 26.08735 25.77527
#
# Velocity S-wave (km/s) = 3.67762 3.72242 3.70009
# Velocity P-wave (km/s) = 7.10142 7.14673 7.12411
#
# Compressibility (1/GPa) = 0.01639511
#
# Stress axis : x y z
#
# Youngs Moduli (GPa) = 66.14356 75.93841 77.77863
#
# Poissons Ratio (x) = 0.29548 0.39208
# Poissons Ratio (y) = 0.25737 0.26776
# Poissons Ratio (z) = 0.33343 0.26142
#
# Static dielectric constant tensor:
#      x y z
#    x 3.238300 0.000000 0.000000 
#    y 0.000000 3.483390 0.000000 
#    z 0.000000 0.000000 3.529560 
# 
# 
# High freq. dielectric constant tensor:
#      x y z
#    x 1.710650 0.000000 0.000000 
#    y 0.000000 1.740530 0.000000 
#    z 0.000000 0.000000 1.738390 
# 
# From -- ./inp_files/16437.got.cif
#   From: 2010.03.12/outbox.cif.g09.slc.cpg/sg64_9_cif.got.tgz:16437.got - 2010.04.10 20:19:32.
