data_PCOD8261202
_publ_section_title
;
Structure prediction by ZEFSAII (Michael W. Deem and Ramdas Pophale) SiO2 
 PCOD8261202
Probable space group: C M C M
;
_chemical_formula_sum "Si O2"
_cell_formula_units_Z 96
_cell_length_a 19.815290
_cell_length_b 14.669857
_cell_length_c 15.775820
_cell_angle_alpha 90.000000
_cell_angle_beta 90.000000
_cell_angle_gamma 90.000000
_cell_volume 4585.833214
_symmetry_space_group_name_H-M "C M C M"
_symmetry_group_IT_number 63
_symmetry_cell_setting 'orthorhombic'
loop_
_space_group_symop_operation_xyz
x,y,z
-x,-y,1/2+z
x,-y,-z
-x,y,1/2-z
-x,-y,-z
x,y,1/2-z
-x,y,z
x,-y,1/2+z
1/2+x,1/2+y,z
1/2-x,1/2-y,1/2+z
1/2+x,1/2-y,-z
1/2-x,1/2+y,1/2-z
1/2-x,1/2-y,-z
1/2+x,1/2+y,1/2-z
1/2-x,1/2+y,z
1/2+x,1/2-y,1/2+z
loop_
_atom_site_type_symbol
_atom_site_label
_atom_site_fract_x
_atom_site_fract_y
_atom_site_fract_z
Si Si1 0.729231 0.176591 0.652274
Si Si2 0.072019 0.897282 0.250000
Si Si3 0.129839 0.810484 0.411714
Si Si4 0.663574 0.345823 0.594085
Si Si5 0.075888 0.632519 0.347372
Si Si6 0.427391 0.605429 0.250000
Si Si7 0.794679 0.524917 0.403905
O O1 0.731999 0.204750 0.750000
O O2 0.793480 0.217375 0.603969
O O3 0.671823 0.236409 0.606208
O O4 0.722032 0.068130 0.645302
O O5 0.112268 0.878857 0.336035
O O6 0.000000 0.843315 0.250000
O O7 0.055444 0.001191 0.250000
O O8 0.127257 0.860991 0.502942
O O9 0.083746 0.720339 0.408170
O O10 0.612632 0.374963 0.665414
O O11 0.733265 0.403246 0.604466
O O12 0.084292 0.665100 0.250000
O O13 0.134353 0.559977 0.366662
O O14 0.000000 0.591765 0.361983
O O15 0.500000 0.657874 0.250000
O O16 0.807577 0.500000 0.500000
#
# Coordination Sequence:
#
# PCOD8261202 Si02
#       7
#    16   8  16  16  16   8  16
#     4  12  23  40  68 102 132 176 230 290 343 404
#     4  11  24  41  66 101 133 173 227 278 343 414
#     4  12  22  41  69 103 134 173 230 291 346 402
#     4  12  26  46  69 100 139 180 233 292 343 416
#     4  11  24  43  68 102 144 186 230 285 350 415
#     4  11  28  47  66  95 140 191 231 282 362 424
#     4  12  25  42  68 106 139 178 236 290 346 417
#
# _framework density 20.934037
#
# number of rings (size 3 to 8) (size 9 to 14) (size 15 to 20)
#    0.000    0.333    5.833    3.500    2.333    1.667 
#    0.000    2.500    0.000    0.000    0.000    0.000 
#    0.000    0.000    0.000    0.000    0.000    0.000 
#
# Total GULP energy -594955.448592 kJ/mol
# GULP energy per Si atom -12394.905179 kJ/mol
# Density = 2.088639 g / cm^3
# Si number density = 20.934037 Si / 1000 Ang^3
#
#
#
# Elastic Constant Matrix: (Units=GPa)
#
#
# Indices 1 2 3 4 5 6 
#
# 1 141.8771 42.4613 62.1102 0.0000 0.0000 0.0000
# 2 42.4613 97.3704 28.7459 0.0000 0.0000 0.0000
# 3 62.1102 28.7459 167.4863 0.0000 0.0000 0.0000
# 4 0.0000 0.0000 0.0000 16.0604 0.0000 0.0000
# 5 0.0000 0.0000 0.0000 0.0000 11.6008 0.0000
# 6 0.0000 0.0000 0.0000 0.0000 0.0000 27.1663
#
#
#
# Elastic Compliance Matrix: (Units=1/GPa)
#
#
# Indices 1 2 3 4 5 6 
#
# 1 0.009268 -0.003188 -0.002890 0.000000 0.000000 0.000000
# 2 -0.003188 0.011915 -0.000863 0.000000 0.000000 0.000000
# 3 -0.002890 -0.000863 0.007190 0.000000 0.000000 0.000000
# 4 0.000000 0.000000 0.000000 0.062265 0.000000 0.000000
# 5 0.000000 0.000000 0.000000 0.000000 0.086201 0.000000
# 6 0.000000 0.000000 0.000000 0.000000 0.000000 0.036810
#
#
# Mechanical properties :
#
#
# Convention : Reuss Voigt Hill
#
# Bulk Modulus (GPa) = 69.00431 74.81873 71.91152
# Shear Modulus (GPa) = 21.51826 29.19325 25.35575
#
# Velocity S-wave (km/s) = 3.20958 3.73840 3.48404
# Velocity P-wave (km/s) = 6.83882 7.37916 7.11412
#
# Compressibility (1/GPa) = 0.01449185
#
# Stress axis : x y z
#
# Youngs Moduli (GPa) = 107.90366 83.92708 139.07740
#
# Poissons Ratio (x) = 0.26759 0.40187
# Poissons Ratio (y) = 0.34403 0.11998
# Poissons Ratio (z) = 0.31179 0.07240
#
# Static dielectric constant tensor:
#      x y z
#    x 4.210080 0.000000 0.000000 
#    y 0.000000 3.809950 0.000000 
#    z 0.000000 0.000000 3.842310 
# 
# 
# High freq. dielectric constant tensor:
#      x y z
#    x 1.819970 0.000000 0.000000 
#    y 0.000000 1.815650 0.000000 
#    z 0.000000 0.000000 1.832500 
# 
# From -- ./inp_files/35432.got.cif
#   From: 2010.03.12/outbox.cif.g09.slc.cpg/sg63_18_cif.got.tgz:35432.got - 2010.04.10 19:34:48.
