data_PCOD8261174
_publ_section_title
;
Structure prediction by ZEFSAII (Michael W. Deem and Ramdas Pophale) SiO2 
 PCOD8261174
Probable space group: C M C M
;
_chemical_formula_sum "Si O2"
_cell_formula_units_Z 56
_cell_length_a 33.874868
_cell_length_b 4.912800
_cell_length_c 14.706061
_cell_angle_alpha 90.000000
_cell_angle_beta 90.000000
_cell_angle_gamma 90.000000
_cell_volume 2447.389312
_symmetry_space_group_name_H-M "C M C M"
_symmetry_group_IT_number 63
_symmetry_cell_setting 'orthorhombic'
loop_
_space_group_symop_operation_xyz
x,y,z
-x,-y,1/2+z
x,-y,-z
-x,y,1/2-z
-x,-y,-z
x,y,1/2-z
-x,y,z
x,-y,1/2+z
1/2+x,1/2+y,z
1/2-x,1/2-y,1/2+z
1/2+x,1/2-y,-z
1/2-x,1/2+y,1/2-z
1/2-x,1/2-y,-z
1/2+x,1/2+y,1/2-z
1/2-x,1/2+y,z
1/2+x,1/2-y,1/2+z
loop_
_atom_site_type_symbol
_atom_site_label
_atom_site_fract_x
_atom_site_fract_y
_atom_site_fract_z
Si Si1 0.414179 0.342216 0.911029
Si Si2 0.955940 0.672654 0.150103
Si Si3 0.723817 0.725113 0.250000
Si Si4 0.176472 0.238673 0.063993
O O1 0.433540 0.538313 0.835735
O O2 0.367172 0.337686 0.902998
O O3 0.430619 0.036028 0.910997
O O4 0.429012 0.500000 0.000000
O O5 0.958674 0.541585 0.250000
O O6 0.000000 0.711588 0.109332
O O7 0.737279 0.412524 0.250000
O O8 0.700171 0.786420 0.157185
O O9 0.176755 0.500000 0.000000
O O10 0.194417 0.000000 0.000000
#
# Coordination Sequence:
#
# PCOD8261174 Si02
#       4
#    16  16   8  16
#     4  11  23  42  64  93 127 174 227 271 333 397
#     4  11  24  39  60  93 131 174 222 278 337 387
#     4  12  28  46  74 112 135 180 231 262 346 424
#     4  11  25  47  71 103 143 180 225 284 336 399
#
# _framework density 22.881523999999999
#
# number of rings (size 3 to 8) (size 9 to 14) (size 15 to 20)
#    0.000    0.857    0.000    7.714    4.000    9.143 
#    0.000    0.000    0.000    0.000    0.000    0.000 
#    0.000    0.000    0.000    0.000    0.000    0.000 
#
# Total GULP energy -347103.569311 kJ/mol
# GULP energy per Si atom -12396.556047 kJ/mol
# Density = 2.282945 g / cm^3
# Si number density = 22.881524 Si / 1000 Ang^3
#
#
#
# Elastic Constant Matrix: (Units=GPa)
#
#
# Indices 1 2 3 4 5 6 
#
# 1 104.9771 33.5183 55.8192 0.0000 0.0000 0.0000
# 2 33.5183 131.8714 22.9795 0.0000 0.0000 0.0000
# 3 55.8192 22.9795 118.7360 0.0000 0.0000 0.0000
# 4 0.0000 0.0000 0.0000 36.1952 0.0000 0.0000
# 5 0.0000 0.0000 0.0000 0.0000 25.1119 0.0000
# 6 0.0000 0.0000 0.0000 0.0000 0.0000 35.7366
#
#
#
# Elastic Compliance Matrix: (Units=1/GPa)
#
#
# Indices 1 2 3 4 5 6 
#
# 1 0.013389 -0.002387 -0.005833 0.000000 0.000000 0.000000
# 2 -0.002387 0.008273 -0.000479 0.000000 0.000000 0.000000
# 3 -0.005833 -0.000479 0.011257 0.000000 0.000000 0.000000
# 4 0.000000 0.000000 0.000000 0.027628 0.000000 0.000000
# 5 0.000000 0.000000 0.000000 0.000000 0.039822 0.000000
# 6 0.000000 0.000000 0.000000 0.000000 0.000000 0.027983
#
#
# Mechanical properties :
#
#
# Convention : Reuss Voigt Hill
#
# Bulk Modulus (GPa) = 64.42311 64.46872 64.44591
# Shear Modulus (GPa) = 33.12955 35.62657 34.37806
#
# Velocity S-wave (km/s) = 3.80922 3.95017 3.88033
# Velocity P-wave (km/s) = 6.89660 7.00295 6.94998
#
# Compressibility (1/GPa) = 0.01552238
#
# Stress axis : x y z
#
# Youngs Moduli (GPa) = 74.68647 120.87071 88.83597
#
# Poissons Ratio (x) = 0.28850 0.51814
# Poissons Ratio (y) = 0.17827 0.04256
# Poissons Ratio (z) = 0.43561 0.05791
#
# Static dielectric constant tensor:
#      x y z
#    x 3.976680 0.000000 0.000000 
#    y 0.000000 4.272940 0.000000 
#    z 0.000000 0.000000 4.288080 
# 
# 
# High freq. dielectric constant tensor:
#      x y z
#    x 1.896770 0.000000 0.000000 
#    y 0.000000 1.918180 0.000000 
#    z 0.000000 0.000000 1.919210 
# 
# From -- ./inp_files/38235.got.cif
#   From: 2010.03.12/outbox.cif.g09.slc.cpg/sg63_20_cif.got.tgz:38235.got - 2010.04.10 19:34:48.
