data_PCOD8261323
_publ_section_title
;
Structure prediction by ZEFSAII (Michael W. Deem and Ramdas Pophale) SiO2 
 PCOD8261323
Probable space group: C M C M
;
_chemical_formula_sum "Si O2"
_cell_formula_units_Z 72
_cell_length_a 13.009728
_cell_length_b 32.993210
_cell_length_c 9.625318
_cell_angle_alpha 90.000000
_cell_angle_beta 90.000000
_cell_angle_gamma 90.000000
_cell_volume 4131.501117
_symmetry_space_group_name_H-M "C M C M"
_symmetry_group_IT_number 63
_symmetry_cell_setting 'orthorhombic'
loop_
_space_group_symop_operation_xyz
x,y,z
-x,-y,1/2+z
x,-y,-z
-x,y,1/2-z
-x,-y,-z
x,y,1/2-z
-x,y,z
x,-y,1/2+z
1/2+x,1/2+y,z
1/2-x,1/2-y,1/2+z
1/2+x,1/2-y,-z
1/2-x,1/2+y,1/2-z
1/2-x,1/2-y,-z
1/2+x,1/2+y,1/2-z
1/2-x,1/2+y,z
1/2+x,1/2-y,1/2+z
loop_
_atom_site_type_symbol
_atom_site_label
_atom_site_fract_x
_atom_site_fract_y
_atom_site_fract_z
Si Si1 0.885264 0.393040 0.584941
Si Si2 0.382404 0.276036 0.409092
Si Si3 0.289892 0.190437 0.411743
Si Si4 0.000000 0.038524 0.406403
Si Si5 0.223716 0.040997 0.412462
O O1 0.886180 0.393009 0.750000
O O2 0.848696 0.349109 0.531937
O O3 0.807418 0.427355 0.529581
O O4 0.000000 0.401763 0.527229
O O5 0.353718 0.285265 0.250000
O O6 0.500000 0.285724 0.441084
O O7 0.362006 0.228885 0.442752
O O8 0.316630 0.305422 0.506200
O O9 0.262732 0.186339 0.250000
O O10 0.890929 0.061481 0.433397
O O11 0.000000 0.022267 0.250000
O O12 0.000000 0.000000 0.500000
O O13 0.242829 0.031193 0.250000
O O14 0.235245 0.000000 0.500000
#
# Coordination Sequence:
#
# PCOD8261323 Si02
#       5
#    16  16  16   8  16
#     4   9  17  30  48  70  95 123 157 194 234 278
#     4   9  17  30  48  68  94 126 156 191 237 284
#     4   9  17  30  48  70  92 121 160 197 229 272
#     4   8  14  26  44  64  86 112 146 182 224 270
#     4   9  17  30  48  69  92 121 153 191 232 276
#
# _framework density 17.427081000000001
#
# number of rings (size 3 to 8) (size 9 to 14) (size 15 to 20)
#    0.000    3.111    0.000    0.667    0.000    3.556 
#    2.000    1.111    0.000    3.333    0.000    0.000 
#    0.000    0.000    0.000    0.000    0.000    0.000 
#
# Total GULP energy -446122.906346 kJ/mol
# GULP energy per Si atom -12392.302954 kJ/mol
# Density = 1.738742 g / cm^3
# Si number density = 17.427081 Si / 1000 Ang^3
#
#
#
# Elastic Constant Matrix: (Units=GPa)
#
#
# Indices 1 2 3 4 5 6 
#
# 1 165.4357 72.6347 39.3139 0.0000 0.0000 0.0000
# 2 72.6347 87.4203 22.1735 0.0000 0.0000 0.0000
# 3 39.3139 22.1735 34.4735 0.0000 0.0000 0.0000
# 4 0.0000 0.0000 0.0000 20.2443 0.0000 0.0000
# 5 0.0000 0.0000 0.0000 0.0000 23.4514 0.0000
# 6 0.0000 0.0000 0.0000 0.0000 0.0000 28.8713
#
#
#
# Elastic Compliance Matrix: (Units=1/GPa)
#
#
# Indices 1 2 3 4 5 6 
#
# 1 0.011116 -0.007194 -0.008050 0.000000 0.000000 0.000000
# 2 -0.007194 0.018325 -0.003582 0.000000 0.000000 0.000000
# 3 -0.008050 -0.003582 0.040492 0.000000 0.000000 0.000000
# 4 0.000000 0.000000 0.000000 0.049397 0.000000 0.000000
# 5 0.000000 0.000000 0.000000 0.000000 0.042641 0.000000
# 6 0.000000 0.000000 0.000000 0.000000 0.000000 0.034636
#
#
# Mechanical properties :
#
#
# Convention : Reuss Voigt Hill
#
# Bulk Modulus (GPa) = 30.97828 61.73041 46.35435
# Shear Modulus (GPa) = 20.40645 24.72723 22.56684
#
# Velocity S-wave (km/s) = 3.42564 3.77091 3.60242
# Velocity P-wave (km/s) = 5.78457 7.37961 6.63023
#
# Compressibility (1/GPa) = 0.03228068
#
# Stress axis : x y z
#
# Youngs Moduli (GPa) = 89.95834 54.56969 24.69631
#
# Poissons Ratio (x) = 0.39260 0.19880
# Poissons Ratio (y) = 0.64720 0.08847
# Poissons Ratio (z) = 0.72413 0.19548
#
# Static dielectric constant tensor:
#      x y z
#    x 3.764180 0.000000 0.000000 
#    y 0.000000 3.177770 0.000000 
#    z 0.000000 0.000000 2.998840 
# 
# 
# High freq. dielectric constant tensor:
#      x y z
#    x 1.690400 0.000000 0.000000 
#    y 0.000000 1.650140 0.000000 
#    z 0.000000 0.000000 1.647320 
# 
# From -- ./inp_files/17581.got.cif
#   From: 2010.03.12/outbox.cif.g09.slc.cpg/sg63_9_cif.got.tgz:17581.got - 2010.04.10 19:34:48.
