data_PCOD8261580
_publ_section_title
;
Structure prediction by ZEFSAII (Michael W. Deem and Ramdas Pophale) SiO2 
 PCOD8261580
Probable space group: C M C A
;
_chemical_formula_sum "Si O2"
_cell_formula_units_Z 88
_cell_length_a 14.219642
_cell_length_b 23.617015
_cell_length_c 13.249073
_cell_angle_alpha 90.000000
_cell_angle_beta 90.000000
_cell_angle_gamma 90.000000
_cell_volume 4449.376544
_symmetry_space_group_name_H-M "C M C A"
_symmetry_group_IT_number 64
_symmetry_cell_setting 'orthorhombic'
loop_
_space_group_symop_operation_xyz
x,y,z
-x,1/2-y,1/2+z
x,-y,-z
-x,1/2+y,1/2-z
-x,-y,-z
x,1/2+y,1/2-z
-x,y,z
x,1/2-y,1/2+z
1/2+x,1/2+y,z
1/2-x,-y,1/2+z
1/2+x,1/2-y,-z
1/2-x,y,1/2-z
1/2-x,1/2-y,-z
1/2+x,y,1/2-z
1/2-x,1/2+y,z
1/2+x,-y,1/2+z
loop_
_atom_site_type_symbol
_atom_site_label
_atom_site_fract_x
_atom_site_fract_y
_atom_site_fract_z
Si Si1 0.832618 0.605404 0.825224
Si Si2 0.500000 0.912127 0.447895
Si Si3 0.664702 0.670901 0.182423
Si Si4 0.000000 0.032605 0.732454
Si Si5 0.394879 0.285400 0.215521
Si Si6 0.190632 0.657663 0.542591
Si Si7 0.000000 0.917624 0.828189
O O1 0.750000 0.587039 0.750000
O O2 0.908158 0.554413 0.828698
O O3 0.886810 0.661561 0.790451
O O4 0.781903 0.618264 0.932861
O O5 0.500000 0.951364 0.350367
O O6 0.593554 0.875158 0.441010
O O7 0.500000 0.943810 0.557235
O O8 0.750000 0.649535 0.250000
O O9 0.622014 0.728730 0.222765
O O10 0.700855 0.682110 0.068833
O O11 0.590908 0.620647 0.185929
O O12 0.000000 0.964535 0.739546
O O13 0.500000 0.283827 0.170411
O O14 0.317523 0.291189 0.125353
#
# Coordination Sequence:
#
# PCOD8261580 Si02
#       7
#    16   8  16   8  16  16   8
#     4  10  19  33  60  92 120 151 197 261 302 348
#     4  10  17  37  62  89 117 152 202 265 292 347
#     4  11  24  42  60  86 126 164 197 246 310 376
#     4  12  19  37  63  93 120 156 207 260 302 357
#     4  11  19  35  62  88 119 155 198 249 306 361
#     4  10  20  38  61  93 121 152 205 251 301 369
#     4  10  25  38  61  86 123 162 203 246 313 357
#
# _framework density 19.778051999999999
#
# number of rings (size 3 to 8) (size 9 to 14) (size 15 to 20)
#    0.000    1.455    6.364    1.909    0.000    3.636 
#    0.000    0.909    0.000    1.091    0.000    0.000 
#    0.000    0.000    0.000    0.000    0.000    0.000 
#
# Total GULP energy -545382.586189 kJ/mol
# GULP energy per Si atom -12395.058777 kJ/mol
# Density = 1.973304 g / cm^3
# Si number density = 19.778052 Si / 1000 Ang^3
#
#
#
# Elastic Constant Matrix: (Units=GPa)
#
#
# Indices 1 2 3 4 5 6 
#
# 1 102.8196 29.8743 39.3111 0.0000 0.0000 0.0000
# 2 29.8743 85.9240 39.5302 0.0000 0.0000 0.0000
# 3 39.3111 39.5302 104.7728 0.0000 0.0000 0.0000
# 4 0.0000 0.0000 0.0000 23.2821 0.0000 0.0000
# 5 0.0000 0.0000 0.0000 0.0000 11.0302 0.0000
# 6 0.0000 0.0000 0.0000 0.0000 0.0000 0.3993
#
#
#
# Elastic Compliance Matrix: (Units=1/GPa)
#
#
# Indices 1 2 3 4 5 6 
#
# 1 0.011781 -0.002496 -0.003479 0.000000 0.000000 0.000000
# 2 -0.002496 0.014611 -0.004576 0.000000 0.000000 0.000000
# 3 -0.003479 -0.004576 0.012576 0.000000 0.000000 0.000000
# 4 0.000000 0.000000 0.000000 0.042951 0.000000 0.000000
# 5 0.000000 0.000000 0.000000 0.000000 0.090660 0.000000
# 6 0.000000 0.000000 0.000000 0.000000 0.000000 2.504081
#
#
# Mechanical properties :
#
#
# Convention : Reuss Voigt Hill
#
# Bulk Modulus (GPa) = 55.96860 56.77195 56.37027
# Shear Modulus (GPa) = 1.84931 19.26237 10.55584
#
# Velocity S-wave (km/s) = 0.96802 3.12417 2.31273
# Velocity P-wave (km/s) = 5.44143 6.46380 5.97453
#
# Compressibility (1/GPa) = 0.01786716
#
# Stress axis : x y z
#
# Youngs Moduli (GPa) = 84.88336 68.44021 79.51470
#
# Poissons Ratio (x) = 0.17080 0.27660
# Poissons Ratio (y) = 0.21184 0.36389
# Poissons Ratio (z) = 0.29528 0.31321
#
# Static dielectric constant tensor:
#      x y z
#    x 4.013890 0.000000 0.000000 
#    y 0.000000 3.335340 0.000000 
#    z 0.000000 0.000000 3.744780 
# 
# 
# High freq. dielectric constant tensor:
#      x y z
#    x 1.786660 0.000000 0.000000 
#    y 0.000000 1.749030 0.000000 
#    z 0.000000 0.000000 1.754810 
# 
# From -- ./inp_files/14642.got.cif
#   From: 2010.03.12/outbox.cif.g09.slc.cpg/sg64_8_cif.got.tgz:14642.got - 2010.04.10 20:19:32.
