data_PCOD8261003
_publ_section_title
;
Structure prediction by ZEFSAII (Michael W. Deem and Ramdas Pophale) SiO2 
 PCOD8261003
Probable space group: C M C M
;
_chemical_formula_sum "Si O2"
_cell_formula_units_Z 88
_cell_length_a 27.283870
_cell_length_b 18.751303
_cell_length_c 8.961721
_cell_angle_alpha 90.000000
_cell_angle_beta 90.000000
_cell_angle_gamma 90.000000
_cell_volume 4584.889173
_symmetry_space_group_name_H-M "C M C M"
_symmetry_group_IT_number 63
_symmetry_cell_setting 'orthorhombic'
loop_
_space_group_symop_operation_xyz
x,y,z
-x,-y,1/2+z
x,-y,-z
-x,y,1/2-z
-x,-y,-z
x,y,1/2-z
-x,y,z
x,-y,1/2+z
1/2+x,1/2+y,z
1/2-x,1/2-y,1/2+z
1/2+x,1/2-y,-z
1/2-x,1/2+y,1/2-z
1/2-x,1/2-y,-z
1/2+x,1/2+y,1/2-z
1/2-x,1/2+y,z
1/2+x,1/2-y,1/2+z
loop_
_atom_site_type_symbol
_atom_site_label
_atom_site_fract_x
_atom_site_fract_y
_atom_site_fract_z
Si Si1 0.339801 0.850923 0.079954
Si Si2 0.553903 0.811517 0.079174
Si Si3 0.077123 0.169167 0.924211
Si Si4 0.000000 0.925318 0.925329
Si Si5 0.756894 0.426848 0.576135
Si Si6 0.675019 0.686855 0.077377
O O1 0.328530 0.871248 0.250000
O O2 0.398387 0.860443 0.046318
O O3 0.319383 0.771300 0.046195
O O4 0.311633 0.907181 0.976907
O O5 0.558722 0.783298 0.250000
O O6 0.500000 0.849334 0.057993
O O7 0.556362 0.746497 0.965435
O O8 0.069055 0.155479 0.750000
O O9 0.048786 0.112722 0.021793
O O10 0.133481 0.158562 0.966974
O O11 0.000000 0.932215 0.750000
O O12 0.000000 0.000000 0.000000
O O13 0.738335 0.500000 0.500000
O O14 0.757658 0.441642 0.750000
O O15 0.722838 0.359005 0.535211
O O16 0.660249 0.674945 0.250000
#
# Coordination Sequence:
#
# PCOD8261003 Si02
#       6
#    16  16  16   8  16  16
#     4   9  18  34  57  85 113 143 184 229 278 334
#     4   9  17  32  56  82 111 146 177 217 273 326
#     4  11  21  33  52  80 108 137 178 225 271 319
#     4  12  24  38  52  68 100 144 185 226 273 326
#     4  11  23  38  57  80 110 148 187 229 281 338
#     4   9  20  38  58  80 108 146 187 229 279 331
#
# _framework density 19.193484000000002
#
# number of rings (size 3 to 8) (size 9 to 14) (size 15 to 20)
#    0.000    2.000    0.909    4.636    0.000    5.091 
#    0.000    1.818    0.000    0.545    0.000    0.000 
#    0.000    0.000    0.000    0.000    0.000    0.000 
#
# Total GULP energy -545375.547319 kJ/mol
# GULP energy per Si atom -12394.898803 kJ/mol
# Density = 1.914980 g / cm^3
# Si number density = 19.193484 Si / 1000 Ang^3
#
#
#
# Elastic Constant Matrix: (Units=GPa)
#
#
# Indices 1 2 3 4 5 6 
#
# 1 112.2500 20.7083 31.2930 0.0000 0.0000 0.0000
# 2 20.7083 41.1228 21.1763 0.0000 0.0000 0.0000
# 3 31.2930 21.1763 103.7144 0.0000 0.0000 0.0000
# 4 0.0000 0.0000 0.0000 29.8211 0.0000 0.0000
# 5 0.0000 0.0000 0.0000 0.0000 44.5267 0.0000
# 6 0.0000 0.0000 0.0000 0.0000 0.0000 51.8548
#
#
#
# Elastic Compliance Matrix: (Units=1/GPa)
#
#
# Indices 1 2 3 4 5 6 
#
# 1 0.010284 -0.004002 -0.002286 0.000000 0.000000 0.000000
# 2 -0.004002 0.028732 -0.004659 0.000000 0.000000 0.000000
# 3 -0.002286 -0.004659 0.011283 0.000000 0.000000 0.000000
# 4 0.000000 0.000000 0.000000 0.033533 0.000000 0.000000
# 5 0.000000 0.000000 0.000000 0.000000 0.022458 0.000000
# 6 0.000000 0.000000 0.000000 0.000000 0.000000 0.019285
#
#
# Mechanical properties :
#
#
# Convention : Reuss Voigt Hill
#
# Bulk Modulus (GPa) = 35.20443 44.82692 40.01568
# Shear Modulus (GPa) = 31.85996 37.50116 34.68056
#
# Velocity S-wave (km/s) = 4.07865 4.42503 4.25537
# Velocity P-wave (km/s) = 6.36885 7.03661 6.71104
#
# Compressibility (1/GPa) = 0.02840551
#
# Stress axis : x y z
#
# Youngs Moduli (GPa) = 97.23655 34.80479 88.63010
#
# Poissons Ratio (x) = 0.13928 0.20260
# Poissons Ratio (y) = 0.38911 0.41293
# Poissons Ratio (z) = 0.22227 0.16216
#
# Static dielectric constant tensor:
#      x y z
#    x 3.710430 0.000000 0.000000 
#    y 0.000000 3.167400 0.000000 
#    z 0.000000 0.000000 3.453010 
# 
# 
# High freq. dielectric constant tensor:
#      x y z
#    x 1.759760 0.000000 0.000000 
#    y 0.000000 1.709940 0.000000 
#    z 0.000000 0.000000 1.748780 
# 
# From -- ./inp_files/14173.got.cif
#   From: 2010.03.12/outbox.cif.g09.slc.cpg/sg63_8_cif.got.tgz:14173.got - 2010.04.10 19:34:48.
