data_PCOD8261883
_publ_section_title
;
Structure prediction by ZEFSAII (Michael W. Deem and Ramdas Pophale) SiO2 
 PCOD8261883
Probable space group: C M C A
;
_chemical_formula_sum "Si O2"
_cell_formula_units_Z 128
_cell_length_a 18.349474
_cell_length_b 23.792906
_cell_length_c 16.313101
_cell_angle_alpha 90.000000
_cell_angle_beta 90.000000
_cell_angle_gamma 90.000000
_cell_volume 7122.092884
_symmetry_space_group_name_H-M "C M C A"
_symmetry_group_IT_number 64
_symmetry_cell_setting 'orthorhombic'
loop_
_space_group_symop_operation_xyz
x,y,z
-x,1/2-y,1/2+z
x,-y,-z
-x,1/2+y,1/2-z
-x,-y,-z
x,1/2+y,1/2-z
-x,y,z
x,1/2-y,1/2+z
1/2+x,1/2+y,z
1/2-x,-y,1/2+z
1/2+x,1/2-y,-z
1/2-x,y,1/2-z
1/2-x,1/2-y,-z
1/2+x,y,1/2-z
1/2-x,1/2+y,z
1/2+x,-y,1/2+z
loop_
_atom_site_type_symbol
_atom_site_label
_atom_site_fract_x
_atom_site_fract_y
_atom_site_fract_z
Si Si1 0.821330 0.321141 0.033876
Si Si2 0.718221 0.437100 0.500007
Si Si3 0.417886 0.782028 0.180542
Si Si4 0.415737 0.661088 0.136452
Si Si5 0.155741 0.704394 0.526793
Si Si6 0.799103 0.944222 0.173354
Si Si7 0.917539 0.145968 0.832263
Si Si8 0.299955 0.427928 0.826594
O O1 0.862923 0.308304 0.116303
O O2 0.734698 0.319481 0.050823
O O3 0.839819 0.385201 0.004094
O O4 0.842876 0.272784 0.968415
O O5 0.681939 0.500000 0.500000
O O6 0.765149 0.434854 0.416562
O O7 0.763135 0.425131 0.583319
O O8 0.500000 0.797834 0.152676
O O9 0.413092 0.715040 0.196064
O O10 0.394248 0.809878 0.264203
O O11 0.500000 0.644753 0.115727
O O12 0.374205 0.608298 0.176038
O O13 0.368160 0.682081 0.060704
O O14 0.094498 0.680141 0.585114
O O15 0.750000 0.923351 0.250000
O O16 0.873619 0.910920 0.175589
O O17 0.821986 0.008174 0.189799
O O18 0.000000 0.126456 0.825856
O O19 0.250000 0.406911 0.750000
#
# Coordination Sequence:
#
# PCOD8261883 Si02
#       8
#    16  16  16  16  16  16  16  16
#     4  10  18  34  54  75 106 140 182 216 264 329
#     4  10  19  34  54  78 110 139 178 228 270 315
#     4   9  21  35  51  77 107 143 176 221 279 325
#     4  10  19  37  55  75 111 145 173 214 283 339
#     4  10  20  31  53  84 106 136 180 223 267 326
#     4  10  20  35  55  79 110 145 185 227 272 317
#     4  11  21  34  52  80 112 138 177 225 276 331
#     4  10  21  35  53  81 110 144 186 226 267 322
#
# _framework density 17.972244
#
# number of rings (size 3 to 8) (size 9 to 14) (size 15 to 20)
#    0.000    2.000    2.500    1.125    0.000    2.000 
#    0.000    0.000    0.000    4.875    0.000    1.750 
#    0.000    0.000    0.000    0.000    0.000    0.000 
#
# Total GULP energy -792957.955141 kJ/mol
# GULP energy per Si atom -12389.968049 kJ/mol
# Density = 1.793134 g / cm^3
# Si number density = 17.972244 Si / 1000 Ang^3
#
#
#
# Elastic Constant Matrix: (Units=GPa)
#
#
# Indices 1 2 3 4 5 6 
#
# 1 56.9133 43.1715 24.5023 0.0000 0.0000 0.0000
# 2 43.1715 131.4660 24.3569 0.0000 0.0000 0.0000
# 3 24.5023 24.3569 81.3256 0.0000 0.0000 0.0000
# 4 0.0000 0.0000 0.0000 14.3484 0.0000 0.0000
# 5 0.0000 0.0000 0.0000 0.0000 24.2436 0.0000
# 6 0.0000 0.0000 0.0000 0.0000 0.0000 32.4265
#
#
#
# Elastic Compliance Matrix: (Units=1/GPa)
#
#
# Indices 1 2 3 4 5 6 
#
# 1 0.025516 -0.007363 -0.005482 0.000000 0.000000 0.000000
# 2 -0.007363 0.010178 -0.000830 0.000000 0.000000 0.000000
# 3 -0.005482 -0.000830 0.014197 0.000000 0.000000 0.000000
# 4 0.000000 0.000000 0.000000 0.069694 0.000000 0.000000
# 5 0.000000 0.000000 0.000000 0.000000 0.041248 0.000000
# 6 0.000000 0.000000 0.000000 0.000000 0.000000 0.030839
#
#
# Mechanical properties :
#
#
# Convention : Reuss Voigt Hill
#
# Bulk Modulus (GPa) = 44.36596 50.41849 47.39222
# Shear Modulus (GPa) = 22.07140 26.04864 24.06002
#
# Velocity S-wave (km/s) = 3.50820 3.81120 3.66284
# Velocity P-wave (km/s) = 6.41478 6.89068 6.65698
#
# Compressibility (1/GPa) = 0.02253980
#
# Stress axis : x y z
#
# Youngs Moduli (GPa) = 39.19046 98.24779 70.43950
#
# Poissons Ratio (x) = 0.72345 0.38618
# Poissons Ratio (y) = 0.28858 0.05846
# Poissons Ratio (z) = 0.21486 0.08153
#
# Static dielectric constant tensor:
#      x y z
#    x 3.140780 0.000000 0.000000 
#    y 0.000000 3.759920 0.000000 
#    z 0.000000 0.000000 3.376270 
# 
# 
# High freq. dielectric constant tensor:
#      x y z
#    x 1.671530 0.000000 0.000000 
#    y 0.000000 1.714970 0.000000 
#    z 0.000000 0.000000 1.694960 
# 
# From -- ./inp_files/33751.got.cif
#   From: 2010.03.12/outbox.cif.g09.slc.cpg/sg64_17_cif.got.tgz:33751.got - 2010.04.10 20:19:32.
