data_PCOD8261135
_publ_section_title
;
Structure prediction by ZEFSAII (Michael W. Deem and Ramdas Pophale) SiO2 
 PCOD8261135
Probable space group: C M C M
;
_chemical_formula_sum "Si O2"
_cell_formula_units_Z 64
_cell_length_a 8.745207
_cell_length_b 22.477060
_cell_length_c 16.124704
_cell_angle_alpha 90.000000
_cell_angle_beta 90.000000
_cell_angle_gamma 90.000000
_cell_volume 3169.577313
_symmetry_space_group_name_H-M "C M C M"
_symmetry_group_IT_number 63
_symmetry_cell_setting 'orthorhombic'
loop_
_space_group_symop_operation_xyz
x,y,z
-x,-y,1/2+z
x,-y,-z
-x,y,1/2-z
-x,-y,-z
x,y,1/2-z
-x,y,z
x,-y,1/2+z
1/2+x,1/2+y,z
1/2-x,1/2-y,1/2+z
1/2+x,1/2-y,-z
1/2-x,1/2+y,1/2-z
1/2-x,1/2-y,-z
1/2+x,1/2+y,1/2-z
1/2-x,1/2+y,z
1/2+x,1/2-y,1/2+z
loop_
_atom_site_type_symbol
_atom_site_label
_atom_site_fract_x
_atom_site_fract_y
_atom_site_fract_z
Si Si1 0.671503 0.908966 0.939788
Si Si2 0.329874 0.966704 0.381666
Si Si3 0.320015 0.714263 0.421968
Si Si4 0.174359 0.108574 0.750000
Si Si5 0.183156 0.760050 0.250000
O O1 0.500000 0.884950 0.920571
O O2 0.792241 0.855908 0.934446
O O3 0.715422 0.963240 0.878016
O O4 0.674836 0.939225 0.028322
O O5 0.500000 0.959593 0.344179
O O6 0.210491 0.929357 0.330190
O O7 0.500000 0.727268 0.419483
O O8 0.250000 0.750000 0.500000
O O9 0.245280 0.730358 0.333987
O O10 0.253315 0.173220 0.750000
O O11 0.000000 0.124786 0.750000
O O12 0.000000 0.755160 0.250000
#
# Coordination Sequence:
#
# PCOD8261135 Si02
#       5
#    16  16  16   8   8
#     4   9  19  38  61  86 114 149 194 240 288 350
#     4   9  19  36  60  85 112 149 190 233 289 352
#     4  12  25  41  63  91 123 163 204 249 304 360
#     4  11  23  36  55  84 115 146 188 239 292 345
#     4  11  25  44  63  88 121 160 206 255 302 357
#
# _framework density 20.191966000000001
#
# number of rings (size 3 to 8) (size 9 to 14) (size 15 to 20)
#    0.000    1.750    0.000    6.000    0.000    9.000 
#    0.000    3.750    0.000    0.000    0.000    0.000 
#    0.000    0.000    0.000    0.000    0.000    0.000 
#
# Total GULP energy -396618.698848 kJ/mol
# GULP energy per Si atom -12394.334339 kJ/mol
# Density = 2.014601 g / cm^3
# Si number density = 20.191966 Si / 1000 Ang^3
#
#
#
# Elastic Constant Matrix: (Units=GPa)
#
#
# Indices 1 2 3 4 5 6 
#
# 1 103.1929 44.9150 40.3434 0.0000 0.0000 0.0000
# 2 44.9150 142.9203 46.0900 0.0000 0.0000 0.0000
# 3 40.3434 46.0900 101.6922 0.0000 0.0000 0.0000
# 4 0.0000 0.0000 0.0000 17.1844 0.0000 0.0000
# 5 0.0000 0.0000 0.0000 0.0000 33.7598 0.0000
# 6 0.0000 0.0000 0.0000 0.0000 0.0000 35.8803
#
#
#
# Elastic Compliance Matrix: (Units=1/GPa)
#
#
# Indices 1 2 3 4 5 6 
#
# 1 0.012289 -0.002682 -0.003660 0.000000 0.000000 0.000000
# 2 -0.002682 0.008780 -0.002915 0.000000 0.000000 0.000000
# 3 -0.003660 -0.002915 0.012607 0.000000 0.000000 0.000000
# 4 0.000000 0.000000 0.000000 0.058192 0.000000 0.000000
# 5 0.000000 0.000000 0.000000 0.000000 0.029621 0.000000
# 6 0.000000 0.000000 0.000000 0.000000 0.000000 0.027870
#
#
# Mechanical properties :
#
#
# Convention : Reuss Voigt Hill
#
# Bulk Modulus (GPa) = 65.95591 67.83358 66.89474
# Shear Modulus (GPa) = 28.91399 31.79536 30.35467
#
# Velocity S-wave (km/s) = 3.78822 3.97250 3.88145
# Velocity P-wave (km/s) = 7.20205 7.39650 7.29992
#
# Compressibility (1/GPa) = 0.01516164
#
# Stress axis : x y z
#
# Youngs Moduli (GPa) = 81.37648 113.89711 79.32204
#
# Poissons Ratio (x) = 0.30543 0.29030
# Poissons Ratio (y) = 0.21822 0.23126
# Poissons Ratio (z) = 0.29781 0.33206
#
# Static dielectric constant tensor:
#      x y z
#    x 3.649110 0.000000 0.000000 
#    y 0.000000 3.944400 0.000000 
#    z 0.000000 0.000000 3.424730 
# 
# 
# High freq. dielectric constant tensor:
#      x y z
#    x 1.779520 0.000000 0.000000 
#    y 0.000000 1.807400 0.000000 
#    z 0.000000 0.000000 1.789990 
# 
# From -- ./inp_files/39857.got.cif
#   From: 2010.03.12/outbox.cif.g09.slc.cpg/sg63_20_cif.got.tgz:39857.got - 2010.04.10 19:34:48.
