data_PCOD8261250
_publ_section_title
;
Structure prediction by ZEFSAII (Michael W. Deem and Ramdas Pophale) SiO2 
 PCOD8261250
Probable space group: C M C M
;
_chemical_formula_sum "Si O2"
_cell_formula_units_Z 72
_cell_length_a 20.675047
_cell_length_b 8.628230
_cell_length_c 19.198494
_cell_angle_alpha 90.000000
_cell_angle_beta 90.000000
_cell_angle_gamma 90.000000
_cell_volume 3424.801313
_symmetry_space_group_name_H-M "C M C M"
_symmetry_group_IT_number 63
_symmetry_cell_setting 'orthorhombic'
loop_
_space_group_symop_operation_xyz
x,y,z
-x,-y,1/2+z
x,-y,-z
-x,y,1/2-z
-x,-y,-z
x,y,1/2-z
-x,y,z
x,-y,1/2+z
1/2+x,1/2+y,z
1/2-x,1/2-y,1/2+z
1/2+x,1/2-y,-z
1/2-x,1/2+y,1/2-z
1/2-x,1/2-y,-z
1/2+x,1/2+y,1/2-z
1/2-x,1/2+y,z
1/2+x,1/2-y,1/2+z
loop_
_atom_site_type_symbol
_atom_site_label
_atom_site_fract_x
_atom_site_fract_y
_atom_site_fract_z
Si Si1 0.202572 0.796572 0.889657
Si Si2 0.342895 0.270392 0.250000
Si Si3 0.425116 0.729685 0.887884
Si Si4 0.773794 0.932228 0.750000
Si Si5 0.872786 0.000000 0.500000
Si Si6 0.173658 0.540686 0.423122
O O1 0.184715 0.875115 0.816681
O O2 0.184405 0.616669 0.880029
O O3 0.280215 0.818902 0.897142
O O4 0.169377 0.876249 0.956591
O O5 0.387872 0.300969 0.183765
O O6 0.304021 0.105902 0.250000
O O7 0.280144 0.382345 0.250000
O O8 0.500000 0.749051 0.871105
O O9 0.399179 0.894267 0.918226
O O10 0.416213 0.593630 0.944741
O O11 0.194501 0.500000 0.500000
#
# Coordination Sequence:
#
# PCOD8261250 Si02
#       6
#    16   8  16   8   8  16
#     4  12  23  39  69 102 134 166 215 284 348 384
#     4  12  25  44  71 103 136 169 218 277 337 400
#     4  12  27  46  67  94 135 187 229 266 321 400
#     4  12  24  40  69 105 133 163 210 279 347 394
#     4  12  23  46  70  96 131 176 230 284 328 390
#     4  12  23  40  67 100 135 168 219 279 338 394
#
# _framework density 21.023116999999999
#
# number of rings (size 3 to 8) (size 9 to 14) (size 15 to 20)
#    0.000    0.000    7.778    4.000    0.000    0.444 
#    0.000    0.000    0.000    0.000    0.000    0.000 
#    0.000    0.000    0.000    0.000    0.000    0.000 
#
# Total GULP energy -446286.850530 kJ/mol
# GULP energy per Si atom -12396.856959 kJ/mol
# Density = 2.097527 g / cm^3
# Si number density = 21.023117 Si / 1000 Ang^3
#
#
#
# Elastic Constant Matrix: (Units=GPa)
#
#
# Indices 1 2 3 4 5 6 
#
# 1 134.2826 65.6038 34.6666 0.0000 0.0000 0.0000
# 2 65.6038 114.4683 26.8104 0.0000 0.0000 0.0000
# 3 34.6666 26.8104 121.1647 0.0000 0.0000 0.0000
# 4 0.0000 0.0000 0.0000 20.4899 0.0000 0.0000
# 5 0.0000 0.0000 0.0000 0.0000 22.1193 0.0000
# 6 0.0000 0.0000 0.0000 0.0000 0.0000 26.6362
#
#
#
# Elastic Compliance Matrix: (Units=1/GPa)
#
#
# Indices 1 2 3 4 5 6 
#
# 1 0.010702 -0.005712 -0.001798 0.000000 0.000000 0.000000
# 2 -0.005712 0.012263 -0.001079 0.000000 0.000000 0.000000
# 3 -0.001798 -0.001079 0.009006 0.000000 0.000000 0.000000
# 4 0.000000 0.000000 0.000000 0.048805 0.000000 0.000000
# 5 0.000000 0.000000 0.000000 0.000000 0.045209 0.000000
# 6 0.000000 0.000000 0.000000 0.000000 0.000000 0.037543
#
#
# Mechanical properties :
#
#
# Convention : Reuss Voigt Hill
#
# Bulk Modulus (GPa) = 67.60271 69.34190 68.47231
# Shear Modulus (GPa) = 26.93426 30.03806 28.48616
#
# Velocity S-wave (km/s) = 3.58323 3.78406 3.68502
# Velocity P-wave (km/s) = 7.02464 7.22132 7.12366
#
# Compressibility (1/GPa) = 0.01479231
#
# Stress axis : x y z
#
# Youngs Moduli (GPa) = 93.44125 81.54868 111.03219
#
# Poissons Ratio (x) = 0.46583 0.19963
# Poissons Ratio (y) = 0.53377 0.11980
# Poissons Ratio (z) = 0.16800 0.08799
#
# Static dielectric constant tensor:
#      x y z
#    x 3.440200 0.000000 0.000000 
#    y 0.000000 4.047050 0.000000 
#    z 0.000000 0.000000 4.272370 
# 
# 
# High freq. dielectric constant tensor:
#      x y z
#    x 1.783330 0.000000 0.000000 
#    y 0.000000 1.830350 0.000000 
#    z 0.000000 0.000000 1.858890 
# 
# From -- ./inp_files/56356.got.cif
#   From: 2010.03.12/outbox.cif.g09.slc.cpg/sg63_29_cif.got.tgz:56356.got - 2010.04.10 19:34:48.
