data_PCOD8261774
_publ_section_title
;
Structure prediction by ZEFSAII (Michael W. Deem and Ramdas Pophale) SiO2 
 PCOD8261774
Probable space group: C M C A
;
_chemical_formula_sum "Si O2"
_cell_formula_units_Z 80
_cell_length_a 16.887735
_cell_length_b 28.705009
_cell_length_c 8.438933
_cell_angle_alpha 90.000000
_cell_angle_beta 90.000000
_cell_angle_gamma 90.000000
_cell_volume 4090.878977
_symmetry_space_group_name_H-M "C M C A"
_symmetry_group_IT_number 64
_symmetry_cell_setting 'orthorhombic'
loop_
_space_group_symop_operation_xyz
x,y,z
-x,1/2-y,1/2+z
x,-y,-z
-x,1/2+y,1/2-z
-x,-y,-z
x,1/2+y,1/2-z
-x,y,z
x,1/2-y,1/2+z
1/2+x,1/2+y,z
1/2-x,-y,1/2+z
1/2+x,1/2-y,-z
1/2-x,y,1/2-z
1/2-x,1/2-y,-z
1/2+x,y,1/2-z
1/2-x,1/2+y,z
1/2+x,-y,1/2+z
loop_
_atom_site_type_symbol
_atom_site_label
_atom_site_fract_x
_atom_site_fract_y
_atom_site_fract_z
Si Si1 0.661341 0.800362 0.440866
Si Si2 0.323974 0.385182 0.854105
Si Si3 0.409860 0.610381 0.451214
Si Si4 0.774956 0.950055 0.429839
Si Si5 0.849113 0.796836 0.417525
O O1 0.634777 0.844851 0.542719
O O2 0.755800 0.802342 0.437265
O O3 0.625623 0.803326 0.264987
O O4 0.626556 0.754367 0.523592
O O5 0.250000 0.365551 0.750000
O O6 0.389856 0.403452 0.730675
O O7 0.295343 0.427089 0.966890
O O8 0.500000 0.597225 0.488090
O O9 0.353609 0.581535 0.569010
O O10 0.394968 0.665379 0.477237
O O11 0.750000 0.955105 0.250000
O O12 0.795970 0.000000 0.500000
#
# Coordination Sequence:
#
# PCOD8261774 Si02
#       5
#    16  16  16  16  16
#     4  10  18  31  56  83 110 152 207 249 283 339
#     4  10  19  35  58  85 115 153 197 241 288 344
#     4  11  23  39  58  88 128 159 191 242 306 357
#     4  11  22  41  68  93 115 150 201 250 289 347
#     4  10  19  31  54  84 115 153 199 248 289 342
#
# _framework density 19.555699000000001
#
# number of rings (size 3 to 8) (size 9 to 14) (size 15 to 20)
#    0.000    1.600    4.000    4.200    2.800    0.400 
#    0.000    8.000    0.000    2.400    0.000    0.000 
#    0.000    0.000    0.000    0.000    0.000    0.000 
#
# Total GULP energy -496064.444189 kJ/mol
# GULP energy per Si atom -12401.611105 kJ/mol
# Density = 1.951119 g / cm^3
# Si number density = 19.555699 Si / 1000 Ang^3
#
#
#
# Elastic Constant Matrix: (Units=GPa)
#
#
# Indices 1 2 3 4 5 6 
#
# 1 70.3218 22.0994 22.6680 0.0000 0.0000 0.0000
# 2 22.0994 99.0314 21.8450 0.0000 0.0000 0.0000
# 3 22.6680 21.8450 118.1788 0.0000 0.0000 0.0000
# 4 0.0000 0.0000 0.0000 39.4782 0.0000 0.0000
# 5 0.0000 0.0000 0.0000 0.0000 10.0946 0.0000
# 6 0.0000 0.0000 0.0000 0.0000 0.0000 9.1468
#
#
#
# Elastic Compliance Matrix: (Units=1/GPa)
#
#
# Indices 1 2 3 4 5 6 
#
# 1 0.015975 -0.003012 -0.002507 0.000000 0.000000 0.000000
# 2 -0.003012 0.011095 -0.001473 0.000000 0.000000 0.000000
# 3 -0.002507 -0.001473 0.009215 0.000000 0.000000 0.000000
# 4 0.000000 0.000000 0.000000 0.025330 0.000000 0.000000
# 5 0.000000 0.000000 0.000000 0.000000 0.099063 0.000000
# 6 0.000000 0.000000 0.000000 0.000000 0.000000 0.109328
#
#
# Mechanical properties :
#
#
# Convention : Reuss Voigt Hill
#
# Bulk Modulus (GPa) = 44.84282 46.75074 45.79678
# Shear Modulus (GPa) = 17.15711 26.47190 21.81450
#
# Velocity S-wave (km/s) = 2.96522 3.68321 3.34354
# Velocity P-wave (km/s) = 5.89100 6.48432 6.19477
#
# Compressibility (1/GPa) = 0.02230011
#
# Stress axis : x y z
#
# Youngs Moduli (GPa) = 62.59742 90.13176 108.51850
#
# Poissons Ratio (x) = 0.27146 0.27211
# Poissons Ratio (y) = 0.18853 0.15986
# Poissons Ratio (z) = 0.15696 0.13278
#
# Static dielectric constant tensor:
#      x y z
#    x 3.147560 0.000000 0.000000 
#    y 0.000000 3.608520 0.000000 
#    z 0.000000 0.000000 3.833280 
# 
# 
# High freq. dielectric constant tensor:
#      x y z
#    x 1.709310 0.000000 0.000000 
#    y 0.000000 1.761210 0.000000 
#    z 0.000000 0.000000 1.779400 
# 
# From -- ./inp_files/7127.got.cif
#   From: 2010.03.12/outbox.cif.g09.slc.cpg/sg64_4_cif.got.tgz:7127.got - 2010.04.10 20:19:32.
