data_PCOD8261659
_publ_section_title
;
Structure prediction by ZEFSAII (Michael W. Deem and Ramdas Pophale) SiO2 
 PCOD8261659
Probable space group: C M C A
;
_chemical_formula_sum "Si O2"
_cell_formula_units_Z 112
_cell_length_a 13.920176
_cell_length_b 28.993266
_cell_length_c 14.715051
_cell_angle_alpha 90.000000
_cell_angle_beta 90.000000
_cell_angle_gamma 90.000000
_cell_volume 5938.867527
_symmetry_space_group_name_H-M "C M C A"
_symmetry_group_IT_number 64
_symmetry_cell_setting 'orthorhombic'
loop_
_space_group_symop_operation_xyz
x,y,z
-x,1/2-y,1/2+z
x,-y,-z
-x,1/2+y,1/2-z
-x,-y,-z
x,1/2+y,1/2-z
-x,y,z
x,1/2-y,1/2+z
1/2+x,1/2+y,z
1/2-x,-y,1/2+z
1/2+x,1/2-y,-z
1/2-x,y,1/2-z
1/2-x,1/2-y,-z
1/2+x,y,1/2-z
1/2-x,1/2+y,z
1/2+x,-y,1/2+z
loop_
_atom_site_type_symbol
_atom_site_label
_atom_site_fract_x
_atom_site_fract_y
_atom_site_fract_z
Si Si1 0.610774 0.882992 0.833553
Si Si2 0.390456 0.643429 0.789533
Si Si3 0.709445 0.626286 0.608084
Si Si4 0.224328 0.189136 0.449490
Si Si5 0.111873 0.552092 0.016510
Si Si6 0.109940 0.248174 0.837672
Si Si7 0.610349 0.678254 0.181258
O O1 0.500000 0.869471 0.837046
O O2 0.658733 0.847998 0.901187
O O3 0.641647 0.871346 0.728900
O O4 0.627780 0.934324 0.875760
O O5 0.500000 0.629826 0.814340
O O6 0.371728 0.633008 0.684074
O O7 0.314657 0.614408 0.849901
O O8 0.368465 0.696959 0.805497
O O9 0.720599 0.675102 0.554865
O O10 0.678910 0.583593 0.545941
O O11 0.177422 0.239236 0.425738
O O12 0.332434 0.185584 0.411543
O O13 0.000000 0.558832 0.990110
O O14 0.145147 0.500000 0.000000
O O15 0.135434 0.281730 0.753581
O O16 0.000000 0.254003 0.868008
O O17 0.500000 0.678970 0.151608
#
# Coordination Sequence:
#
# PCOD8261659 Si02
#       7
#    16  16  16  16  16  16  16
#     4   8  14  26  46  75 103 134 167 202 259 313
#     4  10  22  39  54  71 106 145 181 222 264 316
#     4  10  22  35  56  79 102 139 183 219 274 326
#     4  10  18  29  51  74 103 136 175 226 260 303
#     4   9  17  32  57  85 109 130 166 223 269 310
#     4   9  18  32  49  72 102 142 183 219 257 301
#     4   9  17  28  46  71 106 144 174 210 261 316
#
# _framework density 18.858815
#
# number of rings (size 3 to 8) (size 9 to 14) (size 15 to 20)
#    0.000    2.714    0.000    3.429    4.000    2.857 
#    0.000    0.000   12.571    0.429    0.000    0.000 
#    0.000    0.000    0.000    0.000    0.000    0.000 
#
# Total GULP energy -693806.320451 kJ/mol
# GULP energy per Si atom -12389.398579 kJ/mol
# Density = 1.881589 g / cm^3
# Si number density = 18.858815 Si / 1000 Ang^3
#
#
#
# Elastic Constant Matrix: (Units=GPa)
#
#
# Indices 1 2 3 4 5 6 
#
# 1 78.4052 31.0165 40.1537 0.0000 0.0000 0.0000
# 2 31.0165 80.5029 17.6682 0.0000 0.0000 0.0000
# 3 40.1537 17.6682 57.6924 0.0000 0.0000 0.0000
# 4 0.0000 0.0000 0.0000 16.7321 0.0000 0.0000
# 5 0.0000 0.0000 0.0000 0.0000 19.4283 0.0000
# 6 0.0000 0.0000 0.0000 0.0000 0.0000 18.8297
#
#
#
# Elastic Compliance Matrix: (Units=1/GPa)
#
#
# Indices 1 2 3 4 5 6 
#
# 1 0.021838 -0.005444 -0.013532 0.000000 0.000000 0.000000
# 2 -0.005444 0.014674 -0.000705 0.000000 0.000000 0.000000
# 3 -0.013532 -0.000705 0.026967 0.000000 0.000000 0.000000
# 4 0.000000 0.000000 0.000000 0.059765 0.000000 0.000000
# 5 0.000000 0.000000 0.000000 0.000000 0.051471 0.000000
# 6 0.000000 0.000000 0.000000 0.000000 0.000000 0.053108
#
#
# Mechanical properties :
#
#
# Convention : Reuss Voigt Hill
#
# Bulk Modulus (GPa) = 41.46321 43.80857 42.63589
# Shear Modulus (GPa) = 18.16698 19.51548 18.84123
#
# Velocity S-wave (km/s) = 3.10710 3.22035 3.16423
# Velocity P-wave (km/s) = 5.90812 6.09161 6.00057
#
# Compressibility (1/GPa) = 0.02411776
#
# Stress axis : x y z
#
# Youngs Moduli (GPa) = 45.79186 68.14728 37.08191
#
# Poissons Ratio (x) = 0.37099 0.50179
# Poissons Ratio (y) = 0.24929 0.02614
# Poissons Ratio (z) = 0.61965 0.04804
#
# Static dielectric constant tensor:
#      x y z
#    x 3.552270 0.000000 0.000000 
#    y 0.000000 3.388890 0.000000 
#    z 0.000000 0.000000 3.612370 
# 
# 
# High freq. dielectric constant tensor:
#      x y z
#    x 1.744360 0.000000 0.000000 
#    y 0.000000 1.695310 0.000000 
#    z 0.000000 0.000000 1.722890 
# 
# From -- ./inp_files/24384.got.cif
#   From: 2010.03.12/outbox.cif.g09.slc.cpg/sg64_13_cif.got.tgz:24384.got - 2010.04.10 20:19:32.
