data_PCOD8261294
_publ_section_title
;
Structure prediction by ZEFSAII (Michael W. Deem and Ramdas Pophale) SiO2 
 PCOD8261294
Probable space group: C M C M
;
_chemical_formula_sum "Si O2"
_cell_formula_units_Z 80
_cell_length_a 14.424130
_cell_length_b 33.886521
_cell_length_c 9.578837
_cell_angle_alpha 90.000000
_cell_angle_beta 90.000000
_cell_angle_gamma 90.000000
_cell_volume 4681.978281
_symmetry_space_group_name_H-M "C M C M"
_symmetry_group_IT_number 63
_symmetry_cell_setting 'orthorhombic'
loop_
_space_group_symop_operation_xyz
x,y,z
-x,-y,1/2+z
x,-y,-z
-x,y,1/2-z
-x,-y,-z
x,y,1/2-z
-x,y,z
x,-y,1/2+z
1/2+x,1/2+y,z
1/2-x,1/2-y,1/2+z
1/2+x,1/2-y,-z
1/2-x,1/2+y,1/2-z
1/2-x,1/2-y,-z
1/2+x,1/2+y,1/2-z
1/2-x,1/2+y,z
1/2+x,1/2-y,1/2+z
loop_
_atom_site_type_symbol
_atom_site_label
_atom_site_fract_x
_atom_site_fract_y
_atom_site_fract_z
Si Si1 0.110326 0.226429 0.094660
Si Si2 0.896491 0.312290 0.083463
Si Si3 0.107191 0.461683 0.412171
Si Si4 0.895868 0.153217 0.912415
Si Si5 0.785204 0.386278 0.086529
O O1 0.149467 0.217561 0.250000
O O2 0.144600 0.269351 0.037829
O O3 0.000000 0.228584 0.101228
O O4 0.141849 0.191837 0.991251
O O5 0.898142 0.313067 0.250000
O O6 0.834001 0.347530 0.021186
O O7 0.000000 0.318531 0.024239
O O8 0.133906 0.500000 0.500000
O O9 0.128029 0.470405 0.250000
O O10 0.171179 0.426467 0.474235
O O11 0.000000 0.449797 0.433886
O O12 0.893345 0.164078 0.750000
O O13 0.825365 0.117004 0.944623
O O14 0.000000 0.140887 0.959454
O O15 0.806240 0.386818 0.250000
#
# Coordination Sequence:
#
# PCOD8261294 Si02
#       5
#    16  16  16  16  16
#     4   8  14  25  40  57  79 109 143 177 210 240
#     4   8  13  22  38  60  83 106 137 176 209 239
#     4   9  17  30  49  70  89 108 130 160 202 251
#     4   9  17  28  41  58  82 112 144 175 204 235
#     4   9  16  26  42  63  84 108 139 171 202 241
#
# _framework density 17.086794000000001
#
# number of rings (size 3 to 8) (size 9 to 14) (size 15 to 20)
#    0.000    3.400    0.000    1.800    0.000    3.200 
#    0.000    1.000    0.000    1.800    0.000    5.600 
#    0.000    0.000    0.000    0.000    0.000    0.000 
#
# Total GULP energy -495645.505500 kJ/mol
# GULP energy per Si atom -12391.137638 kJ/mol
# Density = 1.704790 g / cm^3
# Si number density = 17.086794 Si / 1000 Ang^3
#
#
#
# Elastic Constant Matrix: (Units=GPa)
#
#
# Indices 1 2 3 4 5 6 
#
# 1 85.2966 71.8879 21.3776 0.0000 0.0000 0.0000
# 2 71.8879 140.6252 37.0346 0.0000 0.0000 0.0000
# 3 21.3776 37.0346 31.4577 0.0000 0.0000 0.0000
# 4 0.0000 0.0000 0.0000 22.0862 0.0000 0.0000
# 5 0.0000 0.0000 0.0000 0.0000 9.8143 0.0000
# 6 0.0000 0.0000 0.0000 0.0000 0.0000 28.4107
#
#
#
# Elastic Compliance Matrix: (Units=1/GPa)
#
#
# Indices 1 2 3 4 5 6 
#
# 1 0.020716 -0.009975 -0.002334 0.000000 0.000000 0.000000
# 2 -0.009975 0.015110 -0.011010 0.000000 0.000000 0.000000
# 3 -0.002334 -0.011010 0.046337 0.000000 0.000000 0.000000
# 4 0.000000 0.000000 0.000000 0.045277 0.000000 0.000000
# 5 0.000000 0.000000 0.000000 0.000000 0.101892 0.000000
# 6 0.000000 0.000000 0.000000 0.000000 0.000000 0.035198
#
#
# Mechanical properties :
#
#
# Convention : Reuss Voigt Hill
#
# Bulk Modulus (GPa) = 28.15000 57.55332 42.85166
# Shear Modulus (GPa) = 15.47942 20.53421 18.00682
#
# Velocity S-wave (km/s) = 3.01313 3.47040 3.24982
# Velocity P-wave (km/s) = 5.34937 7.05792 6.26219
#
# Compressibility (1/GPa) = 0.03552398
#
# Stress axis : x y z
#
# Youngs Moduli (GPa) = 48.27173 66.18108 21.58123
#
# Poissons Ratio (x) = 0.66018 0.05037
# Poissons Ratio (y) = 0.48153 0.23761
# Poissons Ratio (z) = 0.11267 0.72864
#
# Static dielectric constant tensor:
#      x y z
#    x 3.221150 0.000000 0.000000 
#    y 0.000000 3.301580 0.000000 
#    z 0.000000 0.000000 2.891860 
# 
# 
# High freq. dielectric constant tensor:
#      x y z
#    x 1.654010 0.000000 0.000000 
#    y 0.000000 1.646360 0.000000 
#    z 0.000000 0.000000 1.613780 
# 
# From -- ./inp_files/19370.got.cif
#   From: 2010.03.12/outbox.cif.g09.slc.cpg/sg63_10_cif.got.tgz:19370.got - 2010.04.10 19:34:48.
