data_PCOD8261353
_publ_section_title
;
Structure prediction by ZEFSAII (Michael W. Deem and Ramdas Pophale) SiO2 
 PCOD8261353
Probable space group: C M C M
;
_chemical_formula_sum "Si O2"
_cell_formula_units_Z 80
_cell_length_a 28.644852
_cell_length_b 17.470837
_cell_length_c 9.328812
_cell_angle_alpha 90.000000
_cell_angle_beta 90.000000
_cell_angle_gamma 90.000000
_cell_volume 4668.599676
_symmetry_space_group_name_H-M "C M C M"
_symmetry_group_IT_number 63
_symmetry_cell_setting 'orthorhombic'
loop_
_space_group_symop_operation_xyz
x,y,z
-x,-y,1/2+z
x,-y,-z
-x,y,1/2-z
-x,-y,-z
x,y,1/2-z
-x,y,z
x,-y,1/2+z
1/2+x,1/2+y,z
1/2-x,1/2-y,1/2+z
1/2+x,1/2-y,-z
1/2-x,1/2+y,1/2-z
1/2-x,1/2-y,-z
1/2+x,1/2+y,1/2-z
1/2-x,1/2+y,z
1/2+x,1/2-y,1/2+z
loop_
_atom_site_type_symbol
_atom_site_label
_atom_site_fract_x
_atom_site_fract_y
_atom_site_fract_z
Si Si1 0.352604 0.718486 0.584638
Si Si2 0.051855 0.719147 0.413741
Si Si3 0.715794 0.194662 0.916621
Si Si4 0.445049 0.069839 0.909490
Si Si5 0.709222 0.422761 0.085678
O O1 0.338464 0.732121 0.750000
O O2 0.408936 0.714936 0.564959
O O3 0.334232 0.791992 0.492587
O O4 0.329193 0.639400 0.530995
O O5 0.052122 0.689734 0.250000
O O6 0.066341 0.648899 0.512963
O O7 0.000000 0.751029 0.453380
O O8 0.712424 0.217099 0.750000
O O9 0.737811 0.109632 0.933989
O O10 0.750000 0.250000 0.000000
O O11 0.422821 0.071051 0.750000
O O12 0.500000 0.057356 0.897519
O O13 0.422730 0.000000 0.000000
O O14 0.699267 0.442226 0.250000
O O15 0.702521 0.500000 0.000000
#
# Coordination Sequence:
#
# PCOD8261353 Si02
#       5
#    16  16  16  16  16
#     4   9  18  32  49  71  97 124 158 197 235 280
#     4   9  17  30  48  68  92 126 165 202 240 280
#     4   9  17  30  48  70  94 120 151 187 230 281
#     4   9  16  26  41  61  85 113 148 191 235 278
#     4   9  18  31  48  71  96 121 152 189 230 281
#
# _framework density 17.135757999999999
#
# number of rings (size 3 to 8) (size 9 to 14) (size 15 to 20)
#    0.000    3.000    0.000    2.400    0.000    7.200 
#    0.000    1.000    0.000    3.000    0.000    0.000 
#    0.000    0.000    0.000    0.000    0.000    0.400 
#
# Total GULP energy -495586.635022 kJ/mol
# GULP energy per Si atom -12389.665876 kJ/mol
# Density = 1.709676 g / cm^3
# Si number density = 17.135758 Si / 1000 Ang^3
#
#
#
# Elastic Constant Matrix: (Units=GPa)
#
#
# Indices 1 2 3 4 5 6 
#
# 1 98.2568 49.8465 36.4386 0.0000 0.0000 0.0000
# 2 49.8465 93.7235 48.9983 0.0000 0.0000 0.0000
# 3 36.4386 48.9983 89.5487 0.0000 0.0000 0.0000
# 4 0.0000 0.0000 0.0000 29.6239 0.0000 0.0000
# 5 0.0000 0.0000 0.0000 0.0000 18.5749 0.0000
# 6 0.0000 0.0000 0.0000 0.0000 0.0000 18.4253
#
#
#
# Elastic Compliance Matrix: (Units=1/GPa)
#
#
# Indices 1 2 3 4 5 6 
#
# 1 0.014273 -0.006380 -0.002317 0.000000 0.000000 0.000000
# 2 -0.006380 0.017796 -0.007142 0.000000 0.000000 0.000000
# 3 -0.002317 -0.007142 0.016018 0.000000 0.000000 0.000000
# 4 0.000000 0.000000 0.000000 0.033757 0.000000 0.000000
# 5 0.000000 0.000000 0.000000 0.000000 0.053836 0.000000
# 6 0.000000 0.000000 0.000000 0.000000 0.000000 0.054273
#
#
# Mechanical properties :
#
#
# Convention : Reuss Voigt Hill
#
# Bulk Modulus (GPa) = 60.93776 61.34396 61.14086
# Shear Modulus (GPa) = 22.01672 23.07453 22.54563
#
# Velocity S-wave (km/s) = 3.58836 3.67355 3.63120
# Velocity P-wave (km/s) = 7.26687 7.33960 7.30333
#
# Compressibility (1/GPa) = 0.01641019
#
# Stress axis : x y z
#
# Youngs Moduli (GPa) = 70.06116 56.19137 62.43114
#
# Poissons Ratio (x) = 0.35849 0.14466
# Poissons Ratio (y) = 0.44697 0.44586
# Poissons Ratio (z) = 0.16234 0.40130
#
# Static dielectric constant tensor:
#      x y z
#    x 3.563180 0.000000 0.000000 
#    y 0.000000 2.939140 0.000000 
#    z 0.000000 0.000000 3.493040 
# 
# 
# High freq. dielectric constant tensor:
#      x y z
#    x 1.647380 0.000000 0.000000 
#    y 0.000000 1.625370 0.000000 
#    z 0.000000 0.000000 1.671450 
# 
# From -- ./inp_files/11984.got.cif
#   From: 2010.03.12/outbox.cif.g09.slc.cpg/sg63_6_cif.got.tgz:11984.got - 2010.04.10 19:34:48.
