data_PCOD8261857
_publ_section_title
;
Structure prediction by ZEFSAII (Michael W. Deem and Ramdas Pophale) SiO2 
 PCOD8261857
Probable space group: C M C A
;
_chemical_formula_sum "Si O2"
_cell_formula_units_Z 128
_cell_length_a 19.629466
_cell_length_b 21.521759
_cell_length_c 16.846313
_cell_angle_alpha 90.000000
_cell_angle_beta 90.000000
_cell_angle_gamma 90.000000
_cell_volume 7116.904114
_symmetry_space_group_name_H-M "C M C A"
_symmetry_group_IT_number 64
_symmetry_cell_setting 'orthorhombic'
loop_
_space_group_symop_operation_xyz
x,y,z
-x,1/2-y,1/2+z
x,-y,-z
-x,1/2+y,1/2-z
-x,-y,-z
x,1/2+y,1/2-z
-x,y,z
x,1/2-y,1/2+z
1/2+x,1/2+y,z
1/2-x,-y,1/2+z
1/2+x,1/2-y,-z
1/2-x,y,1/2-z
1/2-x,1/2-y,-z
1/2+x,y,1/2-z
1/2-x,1/2+y,z
1/2+x,-y,1/2+z
loop_
_atom_site_type_symbol
_atom_site_label
_atom_site_fract_x
_atom_site_fract_y
_atom_site_fract_z
Si Si1 0.690953 0.770391 0.816757
Si Si2 0.638198 0.580394 0.139746
Si Si3 0.262470 0.523038 0.839759
Si Si4 0.852137 0.954650 0.566888
Si Si5 0.749383 0.348925 0.555081
Si Si6 0.920455 0.875538 0.699157
Si Si7 0.180825 0.644975 0.606362
Si Si8 0.923061 0.432100 0.483346
O O1 0.750000 0.774585 0.750000
O O2 0.717546 0.788750 0.904070
O O3 0.625725 0.813372 0.798064
O O4 0.666439 0.699404 0.829924
O O5 0.667065 0.509977 0.133256
O O6 0.703989 0.623978 0.126758
O O7 0.598825 0.587352 0.221926
O O8 0.585328 0.599188 0.069988
O O9 0.250000 0.504501 0.750000
O O10 0.196865 0.500571 0.886431
O O11 0.267895 0.596782 0.852271
O O12 0.806816 0.899739 0.528553
O O13 0.907029 0.921246 0.624350
O O14 0.886854 0.000000 0.500000
O O15 0.788777 0.328947 0.476144
O O16 0.000000 0.856640 0.698369
O O17 0.112085 0.608032 0.585248
O O18 0.890512 0.500000 0.500000
O O19 0.000000 0.437804 0.455193
#
# Coordination Sequence:
#
# PCOD8261857 Si02
#       8
#    16  16  16  16  16  16  16  16
#     4  11  22  39  56  82 113 150 196 243 278 336
#     4  10  18  33  56  81 110 137 187 232 282 336
#     4  11  19  31  54  88 113 142 179 234 293 346
#     4  10  19  33  56  86 116 144 181 235 293 340
#     4   9  19  32  57  83 108 142 181 235 286 332
#     4  11  23  38  59  82 110 156 201 238 281 338
#     4  11  21  34  56  85 113 145 186 234 292 345
#     4  10  20  34  53  82 118 146 176 227 291 355
#
# _framework density 17.985348999999999
#
# number of rings (size 3 to 8) (size 9 to 14) (size 15 to 20)
#    0.000    1.625    5.000    1.125    0.000    0.750 
#    0.000    0.000    0.000    0.000    0.000    0.000 
#    0.000    0.000    0.000    0.000    0.000    0.000 
#
# Total GULP energy -792916.475375 kJ/mol
# GULP energy per Si atom -12389.319928 kJ/mol
# Density = 1.794441 g / cm^3
# Si number density = 17.985349 Si / 1000 Ang^3
#
#
#
# Elastic Constant Matrix: (Units=GPa)
#
#
# Indices 1 2 3 4 5 6 
#
# 1 89.1654 40.0717 28.8794 0.0000 0.0000 0.0000
# 2 40.0717 101.2960 26.3721 0.0000 0.0000 0.0000
# 3 28.8794 26.3721 65.7891 0.0000 0.0000 0.0000
# 4 0.0000 0.0000 0.0000 155.7498 0.0000 0.0000
# 5 0.0000 0.0000 0.0000 0.0000 17.3827 0.0000
# 6 0.0000 0.0000 0.0000 0.0000 0.0000 23.5719
#
#
#
# Elastic Compliance Matrix: (Units=1/GPa)
#
#
# Indices 1 2 3 4 5 6 
#
# 1 0.014806 -0.004650 -0.004635 0.000000 0.000000 0.000000
# 2 -0.004650 0.012483 -0.002963 0.000000 0.000000 0.000000
# 3 -0.004635 -0.002963 0.018422 0.000000 0.000000 0.000000
# 4 0.000000 0.000000 0.000000 0.006421 0.000000 0.000000
# 5 0.000000 0.000000 0.000000 0.000000 0.057529 0.000000
# 6 0.000000 0.000000 0.000000 0.000000 0.000000 0.042423
#
#
# Mechanical properties :
#
#
# Convention : Reuss Voigt Hill
#
# Bulk Modulus (GPa) = 47.13616 49.65521 48.39569
# Shear Modulus (GPa) = 27.22529 50.06936 38.64732
#
# Velocity S-wave (km/s) = 3.89491 5.28199 4.64057
# Velocity P-wave (km/s) = 6.81851 8.05406 7.46190
#
# Compressibility (1/GPa) = 0.02121514
#
# Stress axis : x y z
#
# Youngs Moduli (GPa) = 67.53838 80.10882 54.28168
#
# Poissons Ratio (x) = 0.37254 0.25162
# Poissons Ratio (y) = 0.31408 0.16081
# Poissons Ratio (z) = 0.31307 0.23732
#
# Static dielectric constant tensor:
#      x y z
#    x 3.212580 0.000000 0.000000 
#    y 0.000000 3.251310 0.000000 
#    z 0.000000 0.000000 3.138190 
# 
# 
# High freq. dielectric constant tensor:
#      x y z
#    x 1.668600 0.000000 0.000000 
#    y 0.000000 1.691180 0.000000 
#    z 0.000000 0.000000 1.701420 
# 
# From -- ./inp_files/34669.got.cif
#   From: 2010.03.12/outbox.cif.g09.slc.cpg/sg64_18_cif.got.tgz:34669.got - 2010.04.10 20:19:32.
