data_PCOD8261280
_publ_section_title
;
Structure prediction by ZEFSAII (Michael W. Deem and Ramdas Pophale) SiO2 
 PCOD8261280
Probable space group: C M C M
;
_chemical_formula_sum "Si O2"
_cell_formula_units_Z 96
_cell_length_a 9.397962
_cell_length_b 27.885275
_cell_length_c 23.899396
_cell_angle_alpha 90.000000
_cell_angle_beta 90.000000
_cell_angle_gamma 90.000000
_cell_volume 6263.189353
_symmetry_space_group_name_H-M "C M C M"
_symmetry_group_IT_number 63
_symmetry_cell_setting 'orthorhombic'
loop_
_space_group_symop_operation_xyz
x,y,z
-x,-y,1/2+z
x,-y,-z
-x,y,1/2-z
-x,-y,-z
x,y,1/2-z
-x,y,z
x,-y,1/2+z
1/2+x,1/2+y,z
1/2-x,1/2-y,1/2+z
1/2+x,1/2-y,-z
1/2-x,1/2+y,1/2-z
1/2-x,1/2-y,-z
1/2+x,1/2+y,1/2-z
1/2-x,1/2+y,z
1/2+x,1/2-y,1/2+z
loop_
_atom_site_type_symbol
_atom_site_label
_atom_site_fract_x
_atom_site_fract_y
_atom_site_fract_z
Si Si1 0.668895 0.519101 0.084764
Si Si2 0.167153 0.079456 0.313044
Si Si3 0.166953 0.178452 0.516810
Si Si4 0.831095 0.927631 0.024764
Si Si5 0.164005 0.674703 0.187429
Si Si6 0.664331 0.227747 0.078429
O O1 0.500000 0.518407 0.084392
O O2 0.723565 0.538150 0.144835
O O3 0.725466 0.464941 0.072263
O O4 0.723517 0.554786 0.036000
O O5 0.204837 0.063022 0.250000
O O6 0.243063 0.128861 0.328596
O O7 0.000000 0.088372 0.320418
O O8 0.224008 0.126309 0.536674
O O9 0.243329 0.192363 0.459376
O O10 0.203306 0.216824 0.565484
O O11 0.000000 0.176704 0.503728
O O12 0.000000 0.928223 0.025442
O O13 0.201354 0.693282 0.250000
O O14 0.197790 0.717281 0.143584
O O15 0.000000 0.659034 0.183663
O O16 0.500000 0.217915 0.064078
#
# Coordination Sequence:
#
# PCOD8261280 Si02
#       6
#    16  16  16  16  16  16
#     4   8  13  21  34  54  77  97 118 147 183 218
#     4   9  16  25  39  59  79  97 121 156 192 222
#     4   9  16  26  41  59  77  99 128 159 190 227
#     4   8  13  21  35  54  74  97 123 148 176 217
#     4   9  17  28  40  54  76 105 130 152 184 227
#     4   9  17  27  39  57  79 101 126 158 194 227
#
# _framework density 15.327653
#
# number of rings (size 3 to 8) (size 9 to 14) (size 15 to 20)
#    0.000    3.333    0.000    2.000    0.000    2.000 
#    0.000    0.000    0.000    2.000    0.000   11.667 
#    0.000    0.000    0.000    8.333    0.000    9.000 
#
# Total GULP energy -594792.810030 kJ/mol
# GULP energy per Si atom -12391.516876 kJ/mol
# Density = 1.529277 g / cm^3
# Si number density = 15.327653 Si / 1000 Ang^3
#
#
#
# Elastic Constant Matrix: (Units=GPa)
#
#
# Indices 1 2 3 4 5 6 
#
# 1 18.6585 22.8556 22.0782 0.0000 0.0000 0.0000
# 2 22.8556 139.4511 79.2577 0.0000 0.0000 0.0000
# 3 22.0782 79.2577 118.6614 0.0000 0.0000 0.0000
# 4 0.0000 0.0000 0.0000 26.2063 0.0000 0.0000
# 5 0.0000 0.0000 0.0000 0.0000 14.7325 0.0000
# 6 0.0000 0.0000 0.0000 0.0000 0.0000 15.2454
#
#
#
# Elastic Compliance Matrix: (Units=1/GPa)
#
#
# Indices 1 2 3 4 5 6 
#
# 1 0.072513 -0.006797 -0.008952 0.000000 0.000000 0.000000
# 2 -0.006797 0.012196 -0.006882 0.000000 0.000000 0.000000
# 3 -0.008952 -0.006882 0.014689 0.000000 0.000000 0.000000
# 4 0.000000 0.000000 0.000000 0.038159 0.000000 0.000000
# 5 0.000000 0.000000 0.000000 0.000000 0.067877 0.000000
# 6 0.000000 0.000000 0.000000 0.000000 0.000000 0.065593
#
#
# Mechanical properties :
#
#
# Convention : Reuss Voigt Hill
#
# Bulk Modulus (GPa) = 18.47135 58.35045 38.41090
# Shear Modulus (GPa) = 14.95508 21.40882 18.18195
#
# Velocity S-wave (km/s) = 3.12700 3.74136 3.44789
# Velocity P-wave (km/s) = 5.01145 7.53758 6.40038
#
# Compressibility (1/GPa) = 0.05413790
#
# Stress axis : x y z
#
# Youngs Moduli (GPa) = 13.79061 81.99338 68.07645
#
# Poissons Ratio (x) = 0.55729 0.60942
# Poissons Ratio (y) = 0.09373 0.46847
# Poissons Ratio (z) = 0.12345 0.56424
#
# Static dielectric constant tensor:
#      x y z
#    x 2.678570 0.000000 0.000000 
#    y 0.000000 3.224190 0.000000 
#    z 0.000000 0.000000 3.105680 
# 
# 
# High freq. dielectric constant tensor:
#      x y z
#    x 1.555720 0.000000 0.000000 
#    y 0.000000 1.581690 0.000000 
#    z 0.000000 0.000000 1.580590 
# 
# From -- ./inp_files/53267.got.cif
#   From: 2010.03.12/outbox.cif.g09.slc.cpg/sg63_27_cif.got.tgz:53267.got - 2010.04.10 19:34:48.
