data_PCOD8261928
_publ_section_title
;
Structure prediction by ZEFSAII (Michael W. Deem and Ramdas Pophale) SiO2 
 PCOD8261928
Probable space group: C M C A
;
_chemical_formula_sum "Si O2"
_cell_formula_units_Z 112
_cell_length_a 22.199711
_cell_length_b 15.449929
_cell_length_c 19.437867
_cell_angle_alpha 90.000000
_cell_angle_beta 90.000000
_cell_angle_gamma 90.000000
_cell_volume 6666.876574
_symmetry_space_group_name_H-M "C M C A"
_symmetry_group_IT_number 64
_symmetry_cell_setting 'orthorhombic'
loop_
_space_group_symop_operation_xyz
x,y,z
-x,1/2-y,1/2+z
x,-y,-z
-x,1/2+y,1/2-z
-x,-y,-z
x,1/2+y,1/2-z
-x,y,z
x,1/2-y,1/2+z
1/2+x,1/2+y,z
1/2-x,-y,1/2+z
1/2+x,1/2-y,-z
1/2-x,y,1/2-z
1/2-x,1/2-y,-z
1/2+x,y,1/2-z
1/2-x,1/2+y,z
1/2+x,-y,1/2+z
loop_
_atom_site_type_symbol
_atom_site_label
_atom_site_fract_x
_atom_site_fract_y
_atom_site_fract_z
Si Si1 0.769413 0.055019 0.675168
Si Si2 0.680096 0.767285 0.987983
Si Si3 0.228110 0.934054 0.560002
Si Si4 0.181711 0.279484 0.229122
Si Si5 0.151768 0.161795 0.109345
Si Si6 0.149580 0.856388 0.133736
Si Si7 0.429193 0.005665 0.420267
O O1 0.750000 0.017741 0.750000
O O2 0.816417 0.133519 0.682887
O O3 0.710449 0.088007 0.635026
O O4 0.799515 0.982355 0.627037
O O5 0.676398 0.868971 0.968185
O O6 0.652148 0.711595 0.927256
O O7 0.750000 0.750000 0.000000
O O8 0.642203 0.742085 0.056288
O O9 0.287433 0.885512 0.586281
O O10 0.246701 0.000000 0.500000
O O11 0.250000 0.255944 0.250000
O O12 0.154704 0.199909 0.186477
O O13 0.141217 0.300878 0.296029
O O14 0.096978 0.094866 0.109902
O O15 0.094898 0.922615 0.121546
O O16 0.500000 0.008245 0.409951
O O17 0.410367 0.000000 0.500000
#
# Coordination Sequence:
#
# PCOD8261928 Si02
#       7
#    16  16  16  16  16  16  16
#     4   9  17  28  45  69 106 138 165 191 243 310
#     4  10  19  27  47  69 103 137 165 196 245 305
#     4  11  18  26  45  73 105 138 167 198 239 300
#     4   9  19  33  48  74 112 143 163 190 254 323
#     4  11  19  32  50  72 105 135 169 208 251 302
#     4  10  18  36  47  73 105 137 167 211 255 299
#     4  11  22  37  58  77  95 127 179 230 264 290
#
# _framework density 16.799472000000002
#
# number of rings (size 3 to 8) (size 9 to 14) (size 15 to 20)
#    0.000    2.143    2.857    6.429    0.000    1.714 
#    0.000    0.714    0.000    0.000    0.000    0.000 
#    0.000    2.571    0.000    0.000    0.000    0.000 
#
# Total GULP energy -694101.518227 kJ/mol
# GULP energy per Si atom -12394.669968 kJ/mol
# Density = 1.676124 g / cm^3
# Si number density = 16.799472 Si / 1000 Ang^3
#
#
#
# Elastic Constant Matrix: (Units=GPa)
#
#
# Indices 1 2 3 4 5 6 
#
# 1 44.0659 29.3431 26.9184 0.0000 0.0000 0.0000
# 2 29.3431 99.1725 63.7896 0.0000 0.0000 0.0000
# 3 26.9184 63.7896 115.3081 0.0000 0.0000 0.0000
# 4 0.0000 0.0000 0.0000 49.1475 0.0000 0.0000
# 5 0.0000 0.0000 0.0000 0.0000 10.6845 0.0000
# 6 0.0000 0.0000 0.0000 0.0000 0.0000 15.6637
#
#
#
# Elastic Compliance Matrix: (Units=1/GPa)
#
#
# Indices 1 2 3 4 5 6 
#
# 1 0.028975 -0.006555 -0.003138 0.000000 0.000000 0.000000
# 2 -0.006555 0.017136 -0.007950 0.000000 0.000000 0.000000
# 3 -0.003138 -0.007950 0.013803 0.000000 0.000000 0.000000
# 4 0.000000 0.000000 0.000000 0.020347 0.000000 0.000000
# 5 0.000000 0.000000 0.000000 0.000000 0.093594 0.000000
# 6 0.000000 0.000000 0.000000 0.000000 0.000000 0.063842
#
#
# Mechanical properties :
#
#
# Convention : Reuss Voigt Hill
#
# Bulk Modulus (GPa) = 40.60233 55.40540 48.00386
# Shear Modulus (GPa) = 17.78148 24.33215 21.05682
#
# Velocity S-wave (km/s) = 3.25692 3.80990 3.54421
# Velocity P-wave (km/s) = 6.19392 7.23919 6.73686
#
# Compressibility (1/GPa) = 0.02462913
#
# Stress axis : x y z
#
# Youngs Moduli (GPa) = 34.51265 58.35573 72.44859
#
# Poissons Ratio (x) = 0.38250 0.22735
# Poissons Ratio (y) = 0.22622 0.57595
# Poissons Ratio (z) = 0.10830 0.46392
#
# Static dielectric constant tensor:
#      x y z
#    x 2.888570 0.000000 0.000000 
#    y 0.000000 3.627400 0.000000 
#    z 0.000000 0.000000 3.450170 
# 
# 
# High freq. dielectric constant tensor:
#      x y z
#    x 1.568690 0.000000 0.000000 
#    y 0.000000 1.659000 0.000000 
#    z 0.000000 0.000000 1.665690 
# 
# From -- ./inp_files/34470.got.cif
#   From: 2010.03.12/outbox.cif.g09.slc.cpg/sg64_18_cif.got.tgz:34470.got - 2010.04.10 20:19:32.
