data_PCOD8261572
_publ_section_title
;
Structure prediction by ZEFSAII (Michael W. Deem and Ramdas Pophale) SiO2 
 PCOD8261572
Probable space group: C M C A
;
_chemical_formula_sum "Si O2"
_cell_formula_units_Z 56
_cell_length_a 23.062686
_cell_length_b 22.700509
_cell_length_c 5.157923
_cell_angle_alpha 90.000000
_cell_angle_beta 90.000000
_cell_angle_gamma 90.000000
_cell_volume 2700.351728
_symmetry_space_group_name_H-M "C M C A"
_symmetry_group_IT_number 64
_symmetry_cell_setting 'orthorhombic'
loop_
_space_group_symop_operation_xyz
x,y,z
-x,1/2-y,1/2+z
x,-y,-z
-x,1/2+y,1/2-z
-x,-y,-z
x,1/2+y,1/2-z
-x,y,z
x,1/2-y,1/2+z
1/2+x,1/2+y,z
1/2-x,-y,1/2+z
1/2+x,1/2-y,-z
1/2-x,y,1/2-z
1/2-x,1/2-y,-z
1/2+x,y,1/2-z
1/2-x,1/2+y,z
1/2+x,-y,1/2+z
loop_
_atom_site_type_symbol
_atom_site_label
_atom_site_fract_x
_atom_site_fract_y
_atom_site_fract_z
Si Si1 0.376182 0.662476 0.804330
Si Si2 0.809406 0.562916 0.904700
Si Si3 0.312156 0.176736 0.187373
Si Si4 0.500000 0.289081 0.196222
O O1 0.358375 0.593467 0.779623
O O2 0.341697 0.700479 0.580571
O O3 0.444599 0.668983 0.768680
O O4 0.356659 0.688100 0.079715
O O5 0.750000 0.554247 0.750000
O O6 0.832785 0.500000 0.000000
O O7 0.800167 0.606550 0.148740
O O8 0.250000 0.207170 0.250000
O O9 0.500000 0.238333 0.410660
#
# Coordination Sequence:
#
# PCOD8261572 Si02
#       4
#    16  16  16   8
#     4  10  22  37  61  91 123 161 208 262 307 356
#     4  10  20  31  61  97 135 167 199 230 298 382
#     4  10  17  35  58  89 128 160 192 244 304 372
#     4  12  26  48  71  85 109 165 232 272 314 370
#
# _framework density 20.738038
#
# number of rings (size 3 to 8) (size 9 to 14) (size 15 to 20)
#    1.714    0.000    2.857    3.429    0.000    0.000 
#    0.000    0.714    0.000   30.857    0.000    0.000 
#    0.000    0.000    0.000    0.000    0.000    0.000 
#
# Total GULP energy -346919.651008 kJ/mol
# GULP energy per Si atom -12389.987536 kJ/mol
# Density = 2.069084 g / cm^3
# Si number density = 20.738038 Si / 1000 Ang^3
#
#
#
# Elastic Constant Matrix: (Units=GPa)
#
#
# Indices 1 2 3 4 5 6 
#
# 1 150.0465 23.2624 27.9631 0.0000 0.0000 0.0000
# 2 23.2624 66.8008 -11.1343 0.0000 0.0000 0.0000
# 3 27.9631 -11.1343 127.3846 0.0000 0.0000 0.0000
# 4 0.0000 0.0000 0.0000 -28.4481 0.0000 0.0000
# 5 0.0000 0.0000 0.0000 0.0000 32.5541 0.0000
# 6 0.0000 0.0000 0.0000 0.0000 0.0000 21.7522
#
#
#
# Elastic Compliance Matrix: (Units=1/GPa)
#
#
# Indices 1 2 3 4 5 6 
#
# 1 0.007470 -0.002917 -0.001895 0.000000 0.000000 0.000000
# 2 -0.002917 0.016330 0.002068 0.000000 0.000000 0.000000
# 3 -0.001895 0.002068 0.008447 0.000000 0.000000 0.000000
# 4 0.000000 0.000000 0.000000 -0.035152 0.000000 0.000000
# 5 0.000000 0.000000 0.000000 0.000000 0.030718 0.000000
# 6 0.000000 0.000000 0.000000 0.000000 0.000000 0.045972
#
#
# Mechanical properties :
#
#
# Convention : Reuss Voigt Hill
#
# Bulk Modulus (GPa) = 37.37064 47.15716 42.26390
# Shear Modulus (GPa) = 56.69325 25.44768 41.07046
#
# Velocity S-wave (km/s) = 5.23423 3.50680 4.45504
# Velocity P-wave (km/s) = 7.38844 6.25985 6.84743
#
# Compressibility (1/GPa) = 0.02675897
#
# Stress axis : x y z
#
# Youngs Moduli (GPa) = 133.86934 61.23558 118.38641
#
# Poissons Ratio (x) = 0.17863 0.22431
# Poissons Ratio (y) = 0.39051 -0.24479
# Poissons Ratio (z) = 0.25365 -0.12662
#
# Static dielectric constant tensor:
#      x y z
#    x 3.543250 0.000000 0.000000 
#    y 0.000000 3.666590 0.000000 
#    z 0.000000 0.000000 3.815000 
# 
# 
# High freq. dielectric constant tensor:
#      x y z
#    x 1.792450 0.000000 0.000000 
#    y 0.000000 1.793230 0.000000 
#    z 0.000000 0.000000 1.825850 
# 
# From -- ./inp_files/1743.got.cif
#   From: 2010.03.12/outbox.cif.g09.slc.cpg/sg64_1_cif.got.tgz:1743.got - 2010.04.10 20:19:32.
