data_PCOD8261592
_publ_section_title
;
Structure prediction by ZEFSAII (Michael W. Deem and Ramdas Pophale) SiO2 
 PCOD8261592
Probable space group: C M C A
;
_chemical_formula_sum "Si O2"
_cell_formula_units_Z 96
_cell_length_a 9.577418
_cell_length_b 23.693655
_cell_length_c 25.595292
_cell_angle_alpha 90.000000
_cell_angle_beta 90.000000
_cell_angle_gamma 90.000000
_cell_volume 5808.187011
_symmetry_space_group_name_H-M "C M C A"
_symmetry_group_IT_number 64
_symmetry_cell_setting 'orthorhombic'
loop_
_space_group_symop_operation_xyz
x,y,z
-x,1/2-y,1/2+z
x,-y,-z
-x,1/2+y,1/2-z
-x,-y,-z
x,1/2+y,1/2-z
-x,y,z
x,1/2-y,1/2+z
1/2+x,1/2+y,z
1/2-x,-y,1/2+z
1/2+x,1/2-y,-z
1/2-x,y,1/2-z
1/2-x,1/2-y,-z
1/2+x,y,1/2-z
1/2-x,1/2+y,z
1/2+x,-y,1/2+z
loop_
_atom_site_type_symbol
_atom_site_label
_atom_site_fract_x
_atom_site_fract_y
_atom_site_fract_z
Si Si1 0.341336 0.087421 0.106409
Si Si2 0.161867 0.251990 0.389834
Si Si3 0.659934 0.525610 0.554721
Si Si4 0.844077 0.367150 0.430000
Si Si5 0.159758 0.828748 0.954697
Si Si6 0.340749 0.833793 0.801244
O O1 0.500000 0.104733 0.090598
O O2 0.233479 0.115049 0.066552
O O3 0.311291 0.109440 0.164983
O O4 0.323003 0.020058 0.101278
O O5 0.189640 0.319537 0.385833
O O6 0.258629 0.226287 0.435161
O O7 0.198836 0.221627 0.335125
O O8 0.000000 0.240159 0.404252
O O9 0.718149 0.500000 0.500000
O O10 0.500000 0.543461 0.546323
O O11 0.740196 0.580827 0.573490
O O12 0.832591 0.331809 0.483200
O O13 0.000000 0.391630 0.422806
O O14 0.000000 0.826561 0.934882
O O15 0.500000 0.831135 0.783040
O O16 0.250000 0.835827 0.750000
#
# Coordination Sequence:
#
# PCOD8261592 Si02
#       6
#    16  16  16  16  16  16
#     4   9  18  33  49  69  98 131 161 194 240 287
#     4   9  19  34  48  66  96 131 159 192 243 295
#     4  10  19  31  49  70  96 134 171 195 225 282
#     4  10  20  31  45  68 100 133 163 194 235 279
#     4  10  18  27  44  71  98 126 161 200 230 271
#     4   9  18  33  54  73  92 118 154 202 250 293
#
# _framework density 16.528393999999999
#
# number of rings (size 3 to 8) (size 9 to 14) (size 15 to 20)
#    0.000    2.500    1.667    2.000    0.000    5.000 
#    0.000    0.000    0.000    1.000    0.000    7.000 
#    0.000    0.000    0.000    0.000    0.000    0.000 
#
# Total GULP energy -594999.654979 kJ/mol
# GULP energy per Si atom -12395.826145 kJ/mol
# Density = 1.649077 g / cm^3
# Si number density = 16.528394 Si / 1000 Ang^3
#
#
#
# Elastic Constant Matrix: (Units=GPa)
#
#
# Indices 1 2 3 4 5 6 
#
# 1 80.7006 56.7558 37.0154 0.0000 0.0000 0.0000
# 2 56.7558 128.1789 48.1814 0.0000 0.0000 0.0000
# 3 37.0154 48.1814 78.8392 0.0000 0.0000 0.0000
# 4 0.0000 0.0000 0.0000 15.4118 0.0000 0.0000
# 5 0.0000 0.0000 0.0000 0.0000 25.1155 0.0000
# 6 0.0000 0.0000 0.0000 0.0000 0.0000 31.0112
#
#
#
# Elastic Compliance Matrix: (Units=1/GPa)
#
#
# Indices 1 2 3 4 5 6 
#
# 1 0.019410 -0.006710 -0.005012 0.000000 0.000000 0.000000
# 2 -0.006710 0.012448 -0.004457 0.000000 0.000000 0.000000
# 3 -0.005012 -0.004457 0.017761 0.000000 0.000000 0.000000
# 4 0.000000 0.000000 0.000000 0.064886 0.000000 0.000000
# 5 0.000000 0.000000 0.000000 0.000000 0.039816 0.000000
# 6 0.000000 0.000000 0.000000 0.000000 0.000000 0.032246
#
#
# Mechanical properties :
#
#
# Convention : Reuss Voigt Hill
#
# Bulk Modulus (GPa) = 57.93673 63.51375 60.72524
# Shear Modulus (GPa) = 22.25396 24.02542 23.13969
#
# Velocity S-wave (km/s) = 3.67332 3.81673 3.74571
# Velocity P-wave (km/s) = 7.28835 7.61142 7.45163
#
# Compressibility (1/GPa) = 0.01726021
#
# Stress axis : x y z
#
# Youngs Moduli (GPa) = 51.52064 80.33297 56.30302
#
# Poissons Ratio (x) = 0.53906 0.28219
# Poissons Ratio (y) = 0.34572 0.25094
# Poissons Ratio (z) = 0.25822 0.35804
#
# Static dielectric constant tensor:
#      x y z
#    x 3.167500 0.000000 0.000000 
#    y 0.000000 3.188120 0.000000 
#    z 0.000000 0.000000 2.815000 
# 
# 
# High freq. dielectric constant tensor:
#      x y z
#    x 1.642190 0.000000 0.000000 
#    y 0.000000 1.635910 0.000000 
#    z 0.000000 0.000000 1.599180 
# 
# From -- ./inp_files/42967.got.cif
#   From: 2010.03.12/outbox.cif.g09.slc.cpg/sg64_22_cif.got.tgz:42967.got - 2010.04.10 20:19:32.
