data_PCOD8261593
_publ_section_title
;
Structure prediction by ZEFSAII (Michael W. Deem and Ramdas Pophale) SiO2 
 PCOD8261593
Probable space group: C M C A
;
_chemical_formula_sum "Si O2"
_cell_formula_units_Z 80
_cell_length_a 9.321489
_cell_length_b 25.014808
_cell_length_c 21.036473
_cell_angle_alpha 90.000000
_cell_angle_beta 90.000000
_cell_angle_gamma 90.000000
_cell_volume 4905.185011
_symmetry_space_group_name_H-M "C M C A"
_symmetry_group_IT_number 64
_symmetry_cell_setting 'orthorhombic'
loop_
_space_group_symop_operation_xyz
x,y,z
-x,1/2-y,1/2+z
x,-y,-z
-x,1/2+y,1/2-z
-x,-y,-z
x,1/2+y,1/2-z
-x,y,z
x,1/2-y,1/2+z
1/2+x,1/2+y,z
1/2-x,-y,1/2+z
1/2+x,1/2-y,-z
1/2-x,y,1/2-z
1/2-x,1/2-y,-z
1/2+x,y,1/2-z
1/2-x,1/2+y,z
1/2+x,-y,1/2+z
loop_
_atom_site_type_symbol
_atom_site_label
_atom_site_fract_x
_atom_site_fract_y
_atom_site_fract_z
Si Si1 0.833259 0.626385 0.685001
Si Si2 0.330819 0.074167 0.447910
Si Si3 0.166054 0.674967 0.043298
Si Si4 0.836362 0.791614 0.078247
Si Si5 0.830639 0.040399 0.913211
O O1 0.750000 0.631198 0.750000
O O2 0.806011 0.680720 0.645650
O O3 0.771289 0.575621 0.645210
O O4 0.000000 0.618381 0.700293
O O5 0.500000 0.084893 0.444174
O O6 0.246638 0.125934 0.421647
O O7 0.276076 0.063977 0.519860
O O8 0.287659 0.022055 0.405949
O O9 0.189275 0.728106 0.085714
O O10 0.000000 0.660650 0.035763
O O11 0.231110 0.683662 0.973588
O O12 0.000000 0.803290 0.056060
O O13 0.000000 0.045671 0.915502
#
# Coordination Sequence:
#
# PCOD8261593 Si02
#       5
#    16  16  16  16  16
#     4  10  19  33  50  68  92 123 158 194 227 268
#     4   9  15  28  49  69  91 123 153 185 229 282
#     4  10  18  27  45  73  98 119 148 194 240 275
#     4   9  18  32  47  64  93 129 158 184 229 285
#     4   8  15  28  48  68  89 122 161 184 218 280
#
# _framework density 16.309272
#
# number of rings (size 3 to 8) (size 9 to 14) (size 15 to 20)
#    0.000    2.800    2.000    1.800    0.000    1.600 
#    0.000    3.000    0.000    1.200    0.000    8.400 
#    0.000    0.000    0.000    0.000    0.000    0.000 
#
# Total GULP energy -495786.308878 kJ/mol
# GULP energy per Si atom -12394.657722 kJ/mol
# Density = 1.627215 g / cm^3
# Si number density = 16.309272 Si / 1000 Ang^3
#
#
#
# Elastic Constant Matrix: (Units=GPa)
#
#
# Indices 1 2 3 4 5 6 
#
# 1 63.7158 57.6565 33.8540 0.0000 0.0000 0.0000
# 2 57.6565 154.3286 53.3093 0.0000 0.0000 0.0000
# 3 33.8540 53.3093 83.5587 0.0000 0.0000 0.0000
# 4 0.0000 0.0000 0.0000 20.7930 0.0000 0.0000
# 5 0.0000 0.0000 0.0000 0.0000 21.9992 0.0000
# 6 0.0000 0.0000 0.0000 0.0000 0.0000 28.6629
#
#
#
# Elastic Compliance Matrix: (Units=1/GPa)
#
#
# Indices 1 2 3 4 5 6 
#
# 1 0.025514 -0.007646 -0.005459 0.000000 0.000000 0.000000
# 2 -0.007646 0.010603 -0.003667 0.000000 0.000000 0.000000
# 3 -0.005459 -0.003667 0.016519 0.000000 0.000000 0.000000
# 4 0.000000 0.000000 0.000000 0.048093 0.000000 0.000000
# 5 0.000000 0.000000 0.000000 0.000000 0.045456 0.000000
# 6 0.000000 0.000000 0.000000 0.000000 0.000000 0.034888
#
#
# Mechanical properties :
#
#
# Convention : Reuss Voigt Hill
#
# Bulk Modulus (GPa) = 52.37766 65.69362 59.03564
# Shear Modulus (GPa) = 22.62637 24.74325 23.68481
#
# Velocity S-wave (km/s) = 3.72873 3.89926 3.81495
# Velocity P-wave (km/s) = 7.12200 7.78715 7.46199
#
# Compressibility (1/GPa) = 0.01909211
#
# Stress axis : x y z
#
# Youngs Moduli (GPa) = 39.19350 94.31410 60.53815
#
# Poissons Ratio (x) = 0.72117 0.33047
# Poissons Ratio (y) = 0.29969 0.22196
# Poissons Ratio (z) = 0.21395 0.34580
#
# Static dielectric constant tensor:
#      x y z
#    x 2.916740 0.000000 0.000000 
#    y 0.000000 3.561970 0.000000 
#    z 0.000000 0.000000 2.760470 
# 
# 
# High freq. dielectric constant tensor:
#      x y z
#    x 1.610880 0.000000 0.000000 
#    y 0.000000 1.648700 0.000000 
#    z 0.000000 0.000000 1.577410 
# 
# From -- ./inp_files/29982.got.cif
#   From: 2010.03.12/outbox.cif.g09.slc.cpg/sg64_15_cif.got.tgz:29982.got - 2010.04.10 20:19:32.
