data_PCOD8261988
_publ_section_title
;
Structure prediction by ZEFSAII (Michael W. Deem and Ramdas Pophale) SiO2 
 PCOD8261988
Probable space group: C M C A
;
_chemical_formula_sum "Si O2"
_cell_formula_units_Z 96
_cell_length_a 8.961181
_cell_length_b 30.244438
_cell_length_c 20.006366
_cell_angle_alpha 90.000000
_cell_angle_beta 90.000000
_cell_angle_gamma 90.000000
_cell_volume 5422.243014
_symmetry_space_group_name_H-M "C M C A"
_symmetry_group_IT_number 64
_symmetry_cell_setting 'orthorhombic'
loop_
_space_group_symop_operation_xyz
x,y,z
-x,1/2-y,1/2+z
x,-y,-z
-x,1/2+y,1/2-z
-x,-y,-z
x,1/2+y,1/2-z
-x,y,z
x,1/2-y,1/2+z
1/2+x,1/2+y,z
1/2-x,-y,1/2+z
1/2+x,1/2-y,-z
1/2-x,y,1/2-z
1/2-x,1/2-y,-z
1/2+x,y,1/2-z
1/2-x,1/2+y,z
1/2+x,-y,1/2+z
loop_
_atom_site_type_symbol
_atom_site_label
_atom_site_fract_x
_atom_site_fract_y
_atom_site_fract_z
Si Si1 0.331640 0.285324 0.588162
Si Si2 0.674840 0.387903 0.046692
Si Si3 0.675151 0.952313 0.818773
Si Si4 0.175548 0.126449 0.106739
Si Si5 0.168050 0.699591 0.930695
Si Si6 0.673879 0.977141 0.068027
O O1 0.500000 0.285926 0.616162
O O2 0.237733 0.324689 0.621764
O O3 0.255201 0.238796 0.607407
O O4 0.331477 0.290973 0.509014
O O5 0.500000 0.383729 0.057960
O O6 0.751116 0.346728 0.084120
O O7 0.734795 0.432455 0.080265
O O8 0.716452 0.388257 0.968379
O O9 0.500000 0.945315 0.809296
O O10 0.750000 0.967344 0.750000
O O11 0.745672 0.906425 0.842279
O O12 0.711099 0.990596 0.871339
O O13 0.000000 0.126168 0.119416
O O14 0.000000 0.697419 0.902902
O O15 0.500000 0.965204 0.063037
O O16 0.729588 0.000000 0.000000
#
# Coordination Sequence:
#
# PCOD8261988 Si02
#       6
#    16  16  16  16  16  16
#     4   9  16  26  42  65  96 132 168 205 249 298
#     4  10  19  29  47  74 103 133 170 215 260 308
#     4  11  23  38  55  75 103 137 174 218 265 316
#     4  10  19  31  48  72 101 134 171 209 256 310
#     4   9  16  26  41  64  98 134 167 205 251 302
#     4  10  20  35  54  75 101 135 175 217 265 318
#
# _framework density 17.70485
#
# number of rings (size 3 to 8) (size 9 to 14) (size 15 to 20)
#    0.000    2.167    1.667    2.500    0.000    7.000 
#    0.000    0.000    0.000    0.000    0.000    1.167 
#    0.000    2.667    0.000    0.000    0.000    0.000 
#
# Total GULP energy -595340.628566 kJ/mol
# GULP energy per Si atom -12402.929762 kJ/mol
# Density = 1.766455 g / cm^3
# Si number density = 17.704850 Si / 1000 Ang^3
#
#
#
# Elastic Constant Matrix: (Units=GPa)
#
#
# Indices 1 2 3 4 5 6 
#
# 1 114.7281 72.6376 41.0708 0.0000 0.0000 0.0000
# 2 72.6376 155.3738 42.2121 0.0000 0.0000 0.0000
# 3 41.0708 42.2121 60.6983 0.0000 0.0000 0.0000
# 4 0.0000 0.0000 0.0000 13.6079 0.0000 0.0000
# 5 0.0000 0.0000 0.0000 0.0000 20.3808 0.0000
# 6 0.0000 0.0000 0.0000 0.0000 0.0000 39.6937
#
#
#
# Elastic Compliance Matrix: (Units=1/GPa)
#
#
# Indices 1 2 3 4 5 6 
#
# 1 0.013982 -0.004890 -0.006060 0.000000 0.000000 0.000000
# 2 -0.004890 0.009646 -0.003399 0.000000 0.000000 0.000000
# 3 -0.006060 -0.003399 0.022939 0.000000 0.000000 0.000000
# 4 0.000000 0.000000 0.000000 0.073487 0.000000 0.000000
# 5 0.000000 0.000000 0.000000 0.000000 0.049066 0.000000
# 6 0.000000 0.000000 0.000000 0.000000 0.000000 0.025193
#
#
# Mechanical properties :
#
#
# Convention : Reuss Voigt Hill
#
# Bulk Modulus (GPa) = 55.96474 71.40457 63.68465
# Shear Modulus (GPa) = 21.83727 26.39511 24.11619
#
# Velocity S-wave (km/s) = 3.51580 3.86533 3.69470
# Velocity P-wave (km/s) = 6.93971 7.76782 7.36541
#
# Compressibility (1/GPa) = 0.01786839
#
# Stress axis : x y z
#
# Youngs Moduli (GPa) = 71.52251 103.67285 43.59373
#
# Poissons Ratio (x) = 0.50697 0.26417
# Poissons Ratio (y) = 0.34975 0.14818
# Poissons Ratio (z) = 0.43341 0.35240
#
# Static dielectric constant tensor:
#      x y z
#    x 3.402850 0.000000 0.000000 
#    y 0.000000 3.406370 0.000000 
#    z 0.000000 0.000000 2.814700 
# 
# 
# High freq. dielectric constant tensor:
#      x y z
#    x 1.701470 0.000000 0.000000 
#    y 0.000000 1.699680 0.000000 
#    z 0.000000 0.000000 1.620520 
# 
# From -- ./inp_files/37066.got.cif
#   From: 2010.03.12/outbox.cif.g09.slc.cpg/sg64_19_cif.got.tgz:37066.got - 2010.04.10 20:19:32.
