data_PCOD8261262
_publ_section_title
;
Structure prediction by ZEFSAII (Michael W. Deem and Ramdas Pophale) SiO2 
 PCOD8261262
Probable space group: C M C M
;
_chemical_formula_sum "Si O2"
_cell_formula_units_Z 72
_cell_length_a 26.966600
_cell_length_b 14.147801
_cell_length_c 9.447821
_cell_angle_alpha 90.000000
_cell_angle_beta 90.000000
_cell_angle_gamma 90.000000
_cell_volume 3604.514627
_symmetry_space_group_name_H-M "C M C M"
_symmetry_group_IT_number 63
_symmetry_cell_setting 'orthorhombic'
loop_
_space_group_symop_operation_xyz
x,y,z
-x,-y,1/2+z
x,-y,-z
-x,y,1/2-z
-x,-y,-z
x,y,1/2-z
-x,y,z
x,-y,1/2+z
1/2+x,1/2+y,z
1/2-x,1/2-y,1/2+z
1/2+x,1/2-y,-z
1/2-x,1/2+y,1/2-z
1/2-x,1/2-y,-z
1/2+x,1/2+y,1/2-z
1/2-x,1/2+y,z
1/2+x,1/2-y,1/2+z
loop_
_atom_site_type_symbol
_atom_site_label
_atom_site_fract_x
_atom_site_fract_y
_atom_site_fract_z
Si Si1 0.888281 0.586397 0.415213
Si Si2 0.779868 0.627983 0.404527
Si Si3 0.695633 0.344267 0.096234
Si Si4 0.085809 0.202771 0.583504
Si Si5 0.500000 0.599873 0.421923
O O1 0.914253 0.500000 0.500000
O O2 0.889298 0.563047 0.250000
O O3 0.831621 0.593315 0.471905
O O4 0.916475 0.684646 0.443811
O O5 0.772691 0.582622 0.250000
O O6 0.732307 0.595475 0.496345
O O7 0.782070 0.740259 0.389614
O O8 0.695642 0.393062 0.250000
O O9 0.639262 0.339667 0.039961
O O10 0.074109 0.182177 0.750000
O O11 0.047902 0.155904 0.475509
O O12 0.500000 0.500000 0.500000
O O13 0.500000 0.590392 0.250000
#
# Coordination Sequence:
#
# PCOD8261262 Si02
#       5
#    16  16  16  16   8
#     4   9  18  32  52  80 116 156 192 226 267 319
#     4   8  14  25  42  69 106 145 183 221 261 305
#     4   8  14  26  47  73 101 138 181 222 266 314
#     4   9  19  38  60  82 112 147 183 229 283 331
#     4  12  26  44  67  90 107 130 171 224 284 344
#
# _framework density 19.974948999999999
#
# number of rings (size 3 to 8) (size 9 to 14) (size 15 to 20)
#    0.000    3.111    0.000    3.667    0.000    2.667 
#    0.000    6.111    0.000    2.667    0.000    0.000 
#    0.000    0.000    0.000    0.000    0.000    0.000 
#
# Total GULP energy -446039.028824 kJ/mol
# GULP energy per Si atom -12389.973023 kJ/mol
# Density = 1.992948 g / cm^3
# Si number density = 19.974949 Si / 1000 Ang^3
#
#
#
# Elastic Constant Matrix: (Units=GPa)
#
#
# Indices 1 2 3 4 5 6 
#
# 1 108.7602 33.7368 65.1011 0.0000 0.0000 0.0000
# 2 33.7368 82.7639 53.7394 0.0000 0.0000 0.0000
# 3 65.1011 53.7394 110.0079 0.0000 0.0000 0.0000
# 4 0.0000 0.0000 0.0000 29.8412 0.0000 0.0000
# 5 0.0000 0.0000 0.0000 0.0000 36.5165 0.0000
# 6 0.0000 0.0000 0.0000 0.0000 0.0000 6.7675
#
#
#
# Elastic Compliance Matrix: (Units=1/GPa)
#
#
# Indices 1 2 3 4 5 6 
#
# 1 0.014252 -0.000488 -0.008196 0.000000 0.000000 0.000000
# 2 -0.000488 0.017712 -0.008364 0.000000 0.000000 0.000000
# 3 -0.008196 -0.008364 0.018026 0.000000 0.000000 0.000000
# 4 0.000000 0.000000 0.000000 0.033511 0.000000 0.000000
# 5 0.000000 0.000000 0.000000 0.000000 0.027385 0.000000
# 6 0.000000 0.000000 0.000000 0.000000 0.000000 0.147765
#
#
# Mechanical properties :
#
#
# Convention : Reuss Voigt Hill
#
# Bulk Modulus (GPa) = 62.91155 67.40962 65.16059
# Shear Modulus (GPa) = 16.77610 24.55535 20.66572
#
# Velocity S-wave (km/s) = 2.90117 3.50995 3.21998
# Velocity P-wave (km/s) = 6.54110 7.08849 6.82029
#
# Compressibility (1/GPa) = 0.01589533
#
# Stress axis : x y z
#
# Youngs Moduli (GPa) = 70.16804 56.45867 55.47554
#
# Poissons Ratio (x) = 0.02754 0.45465
# Poissons Ratio (y) = 0.03423 0.46398
# Poissons Ratio (z) = 0.57506 0.47220
#
# Static dielectric constant tensor:
#      x y z
#    x 3.530040 0.000000 0.000000 
#    y 0.000000 3.447030 0.000000 
#    z 0.000000 0.000000 4.101340 
# 
# 
# High freq. dielectric constant tensor:
#      x y z
#    x 1.763740 0.000000 0.000000 
#    y 0.000000 1.767300 0.000000 
#    z 0.000000 0.000000 1.770830 
# 
# From -- ./inp_files/11726.got.cif
#   From: 2010.03.12/outbox.cif.g09.slc.cpg/sg63_6_cif.got.tgz:11726.got - 2010.04.10 19:34:48.
