data_PCOD8261889
_publ_section_title
;
Structure prediction by ZEFSAII (Michael W. Deem and Ramdas Pophale) SiO2 
 PCOD8261889
Probable space group: C M C A
;
_chemical_formula_sum "Si O2"
_cell_formula_units_Z 112
_cell_length_a 14.580230
_cell_length_b 23.840345
_cell_length_c 13.773338
_cell_angle_alpha 90.000000
_cell_angle_beta 90.000000
_cell_angle_gamma 90.000000
_cell_volume 4787.580794
_symmetry_space_group_name_H-M "C M C A"
_symmetry_group_IT_number 64
_symmetry_cell_setting 'orthorhombic'
loop_
_space_group_symop_operation_xyz
x,y,z
-x,1/2-y,1/2+z
x,-y,-z
-x,1/2+y,1/2-z
-x,-y,-z
x,1/2+y,1/2-z
-x,y,z
x,1/2-y,1/2+z
1/2+x,1/2+y,z
1/2-x,-y,1/2+z
1/2+x,1/2-y,-z
1/2-x,y,1/2-z
1/2-x,1/2-y,-z
1/2+x,y,1/2-z
1/2-x,1/2+y,z
1/2+x,-y,1/2+z
loop_
_atom_site_type_symbol
_atom_site_label
_atom_site_fract_x
_atom_site_fract_y
_atom_site_fract_z
Si Si1 0.147337 0.081761 0.734978
Si Si2 0.395207 0.462935 0.701122
Si Si3 0.102247 0.390842 0.448994
Si Si4 0.101080 0.300109 0.178166
Si Si5 0.714036 0.420156 0.882250
Si Si6 0.269461 0.208710 0.359620
Si Si7 0.100755 0.732039 0.596925
O O1 0.250000 0.061446 0.750000
O O2 0.098830 0.091809 0.837454
O O3 0.146403 0.137813 0.669029
O O4 0.097030 0.029693 0.682385
O O5 0.500000 0.438137 0.691261
O O6 0.351724 0.453055 0.807847
O O7 0.322294 0.435735 0.624706
O O8 0.174996 0.429250 0.508743
O O9 0.129489 0.324924 0.460211
O O10 0.000000 0.399936 0.491407
O O11 0.152200 0.254084 0.109940
O O12 0.098048 0.282570 0.289732
O O13 0.000000 0.304464 0.134283
O O14 0.698052 0.354776 0.860808
O O15 0.250000 0.226678 0.250000
O O16 0.177227 0.220148 0.422881
O O17 0.000000 0.753460 0.564786
#
# Coordination Sequence:
#
# PCOD8261889 Si02
#       7
#    16  16  16  16  16  16  16
#     4  11  20  40  67  92 123 158 209 271 319 371
#     4  11  23  42  63  88 124 169 217 262 311 377
#     4  10  21  38  64  96 127 157 205 266 322 374
#     4   9  17  29  54  88 115 152 201 249 305 358
#     4  11  23  40  58  95 129 170 208 255 321 383
#     4  10  18  34  55  84 127 164 205 249 305 379
#     4   8  16  31  52  83 114 152 196 247 306 359
#
# _framework density 23.393861000000001
#
# number of rings (size 3 to 8) (size 9 to 14) (size 15 to 20)
#    0.000    2.000    2.857    4.714    0.000    2.857 
#    0.000    1.429    0.000    6.000    0.000    0.000 
#    0.000    0.000    0.000    0.000    0.000    0.000 
#
# Total GULP energy -694001.988927 kJ/mol
# GULP energy per Si atom -12392.892659 kJ/mol
# Density = 2.334062 g / cm^3
# Si number density = 23.393861 Si / 1000 Ang^3
#
#
#
# Elastic Constant Matrix: (Units=GPa)
#
#
# Indices 1 2 3 4 5 6 
#
# 1 142.1004 36.0664 2.3581 0.0000 0.0000 0.0000
# 2 36.0664 128.1536 10.8585 0.0000 0.0000 0.0000
# 3 2.3581 10.8585 20.1498 0.0000 0.0000 0.0000
# 4 0.0000 0.0000 0.0000 9.7309 0.0000 0.0000
# 5 0.0000 0.0000 0.0000 0.0000 23.7440 0.0000
# 6 0.0000 0.0000 0.0000 0.0000 0.0000 10.0668
#
#
#
# Elastic Compliance Matrix: (Units=1/GPa)
#
#
# Indices 1 2 3 4 5 6 
#
# 1 0.007580 -0.002157 0.000275 0.000000 0.000000 0.000000
# 2 -0.002157 0.008790 -0.004484 0.000000 0.000000 0.000000
# 3 0.000275 -0.004484 0.052013 0.000000 0.000000 0.000000
# 4 0.000000 0.000000 0.000000 0.102766 0.000000 0.000000
# 5 0.000000 0.000000 0.000000 0.000000 0.042116 0.000000
# 6 0.000000 0.000000 0.000000 0.000000 0.000000 0.099337
#
#
# Mechanical properties :
#
#
# Convention : Reuss Voigt Hill
#
# Bulk Modulus (GPa) = 17.96917 43.21885 30.59401
# Shear Modulus (GPa) = 14.53980 24.78305 19.66143
#
# Velocity S-wave (km/s) = 2.49574 3.25835 2.90220
# Velocity P-wave (km/s) = 4.00035 5.71579 4.93321
#
# Compressibility (1/GPa) = 0.05565087
#
# Stress axis : x y z
#
# Youngs Moduli (GPa) = 131.92487 113.76519 19.22607
#
# Poissons Ratio (x) = 0.24534 -0.00529
# Poissons Ratio (y) = 0.28451 0.08622
# Poissons Ratio (z) = -0.03629 0.51018
#
# Static dielectric constant tensor:
#      x y z
#    x 4.617800 0.000000 0.000000 
#    y 0.000000 4.107120 0.000000 
#    z 0.000000 0.000000 3.885270 
# 
# 
# High freq. dielectric constant tensor:
#      x y z
#    x 1.937400 0.000000 0.000000 
#    y 0.000000 1.918250 0.000000 
#    z 0.000000 0.000000 1.892440 
# 
# From -- ./inp_files/24195.got.cif
#   From: 2010.03.12/outbox.cif.g09.slc.cpg/sg64_13_cif.got.tgz:24195.got - 2010.04.10 20:19:32.
