data_PCOD8261793
_publ_section_title
;
Structure prediction by ZEFSAII (Michael W. Deem and Ramdas Pophale) SiO2 
 PCOD8261793
Probable space group: C M C A
;
_chemical_formula_sum "Si O2"
_cell_formula_units_Z 96
_cell_length_a 8.585214
_cell_length_b 25.428481
_cell_length_c 24.961876
_cell_angle_alpha 90.000000
_cell_angle_beta 90.000000
_cell_angle_gamma 90.000000
_cell_volume 5449.400967
_symmetry_space_group_name_H-M "C M C A"
_symmetry_group_IT_number 64
_symmetry_cell_setting 'orthorhombic'
loop_
_space_group_symop_operation_xyz
x,y,z
-x,1/2-y,1/2+z
x,-y,-z
-x,1/2+y,1/2-z
-x,-y,-z
x,1/2+y,1/2-z
-x,y,z
x,1/2-y,1/2+z
1/2+x,1/2+y,z
1/2-x,-y,1/2+z
1/2+x,1/2-y,-z
1/2-x,y,1/2-z
1/2-x,1/2-y,-z
1/2+x,y,1/2-z
1/2-x,1/2+y,z
1/2+x,-y,1/2+z
loop_
_atom_site_type_symbol
_atom_site_label
_atom_site_fract_x
_atom_site_fract_y
_atom_site_fract_z
Si Si1 0.684751 0.939391 0.612588
Si Si2 0.683778 0.859052 0.309244
Si Si3 0.318076 0.555358 0.613017
Si Si4 0.815561 0.252168 0.190421
Si Si5 0.316580 0.354486 0.690965
Si Si6 0.671560 0.437878 0.005155
O O1 0.500000 0.938376 0.621778
O O2 0.771940 0.903901 0.655258
O O3 0.727641 0.917230 0.553100
O O4 0.745188 0.998209 0.620399
O O5 0.500000 0.855004 0.305724
O O6 0.750000 0.867232 0.250000
O O7 0.733607 0.907851 0.344757
O O8 0.750396 0.805444 0.336720
O O9 0.500000 0.553907 0.624906
O O10 0.289347 0.577603 0.552730
O O11 0.750000 0.251285 0.250000
O O12 0.754042 0.198376 0.163195
O O13 0.000000 0.253155 0.189536
O O14 0.500000 0.348483 0.695054
O O15 0.250000 0.363943 0.750000
O O16 0.500000 0.415198 0.019225
O O17 0.659473 0.500000 0.000000
#
# Coordination Sequence:
#
# PCOD8261793 Si02
#       6
#    16  16  16  16  16  16
#     4  10  20  35  53  75 103 135 170 208 252 299
#     4  11  21  35  53  75 103 134 169 208 252 299
#     4  11  21  33  51  77 105 134 169 207 250 300
#     4  10  18  32  52  74  99 130 169 208 247 293
#     4  11  21  34  52  76 104 135 170 207 251 299
#     4   8  16  32  52  72  97 131 169 207 247 293
#
# _framework density 17.616614999999999
#
# number of rings (size 3 to 8) (size 9 to 14) (size 15 to 20)
#    0.000    1.833    0.000    9.500    0.000    4.333 
#    0.000    3.333    0.000    1.000    0.000    0.000 
#    0.000    0.000    0.000    0.000    0.000    0.000 
#
# Total GULP energy -595017.211228 kJ/mol
# GULP energy per Si atom -12396.191901 kJ/mol
# Density = 1.757652 g / cm^3
# Si number density = 17.616615 Si / 1000 Ang^3
#
#
#
# Elastic Constant Matrix: (Units=GPa)
#
#
# Indices 1 2 3 4 5 6 
#
# 1 161.9603 51.1062 44.3183 0.0000 0.0000 0.0000
# 2 51.1062 102.1316 52.7163 0.0000 0.0000 0.0000
# 3 44.3183 52.7163 85.2821 0.0000 0.0000 0.0000
# 4 0.0000 0.0000 0.0000 -2.1604 0.0000 0.0000
# 5 0.0000 0.0000 0.0000 0.0000 26.4718 0.0000
# 6 0.0000 0.0000 0.0000 0.0000 0.0000 30.0736
#
#
#
# Elastic Compliance Matrix: (Units=1/GPa)
#
#
# Indices 1 2 3 4 5 6 
#
# 1 0.007643 -0.002606 -0.002361 0.000000 0.000000 0.000000
# 2 -0.002606 0.015267 -0.008083 0.000000 0.000000 0.000000
# 3 -0.002361 -0.008083 0.017949 0.000000 0.000000 0.000000
# 4 0.000000 0.000000 0.000000 -0.462876 0.000000 0.000000
# 5 0.000000 0.000000 0.000000 0.000000 0.037776 0.000000
# 6 0.000000 0.000000 0.000000 0.000000 0.000000 0.033252
#
#
# Mechanical properties :
#
#
# Convention : Reuss Voigt Hill
#
# Bulk Modulus (GPa) = 67.75313 71.73953 69.74633
# Shear Modulus (GPa) = -15.62651 24.29253 4.33301
#
# Velocity S-wave (km/s) = -2.98154 3.71746 1.57002
# Velocity P-wave (km/s) = 5.16629 7.69656 6.55468
#
# Compressibility (1/GPa) = 0.01475947
#
# Stress axis : x y z
#
# Youngs Moduli (GPa) = 130.84525 65.49867 55.71241
#
# Poissons Ratio (x) = 0.17067 0.13153
# Poissons Ratio (y) = 0.34095 0.45034
# Poissons Ratio (z) = 0.30891 0.52945
#
# Static dielectric constant tensor:
#      x y z
#    x 3.421020 0.000000 0.000000 
#    y 0.000000 3.576970 0.000000 
#    z 0.000000 0.000000 3.383510 
# 
# 
# High freq. dielectric constant tensor:
#      x y z
#    x 1.700890 0.000000 0.000000 
#    y 0.000000 1.672780 0.000000 
#    z 0.000000 0.000000 1.661130 
# 
# From -- ./inp_files/48345.got.cif
#   From: 2010.03.12/outbox.cif.g09.slc.cpg/sg64_25_cif.got.tgz:48345.got - 2010.04.10 20:19:32.
