data_PCOD8261502
_publ_section_title
;
Structure prediction by ZEFSAII (Michael W. Deem and Ramdas Pophale) SiO2 
 PCOD8261502
Probable space group: C M C A
;
_chemical_formula_sum "Si O2"
_cell_formula_units_Z 80
_cell_length_a 17.239231
_cell_length_b 26.950287
_cell_length_c 9.197367
_cell_angle_alpha 90.000000
_cell_angle_beta 90.000000
_cell_angle_gamma 90.000000
_cell_volume 4273.117155
_symmetry_space_group_name_H-M "C M C A"
_symmetry_group_IT_number 64
_symmetry_cell_setting 'orthorhombic'
loop_
_space_group_symop_operation_xyz
x,y,z
-x,1/2-y,1/2+z
x,-y,-z
-x,1/2+y,1/2-z
-x,-y,-z
x,1/2+y,1/2-z
-x,y,z
x,1/2-y,1/2+z
1/2+x,1/2+y,z
1/2-x,-y,1/2+z
1/2+x,1/2-y,-z
1/2-x,y,1/2-z
1/2-x,1/2-y,-z
1/2+x,y,1/2-z
1/2-x,1/2+y,z
1/2+x,-y,1/2+z
loop_
_atom_site_type_symbol
_atom_site_label
_atom_site_fract_x
_atom_site_fract_y
_atom_site_fract_z
Si Si1 0.359948 0.301552 0.533402
Si Si2 0.704706 0.544519 0.392258
Si Si3 0.086582 0.117561 0.273313
Si Si4 0.794439 0.139295 0.024949
Si Si5 0.164478 0.207959 0.787854
O O1 0.418919 0.341013 0.601682
O O2 0.271217 0.319681 0.561010
O O3 0.374885 0.248243 0.606865
O O4 0.381888 0.298216 0.362736
O O5 0.686034 0.500000 0.500000
O O6 0.750000 0.525082 0.250000
O O7 0.623578 0.567602 0.339016
O O8 0.755870 0.585020 0.479652
O O9 0.139182 0.140538 0.146099
O O10 0.000000 0.105322 0.216871
O O11 0.832324 0.154411 0.870236
O O12 0.250000 0.227178 0.750000
#
# Coordination Sequence:
#
# PCOD8261502 Si02
#       5
#    16  16  16  16  16
#     4  10  18  30  50  75 100 133 173 213 251 295
#     4   9  19  34  56  80 100 125 163 209 256 303
#     4  10  20  35  51  71 104 139 170 203 245 297
#     4   9  18  33  52  75  99 130 169 210 253 296
#     4  10  17  28  51  77 101 129 171 217 256 294
#
# _framework density 18.721696999999999
#
# number of rings (size 3 to 8) (size 9 to 14) (size 15 to 20)
#    0.000    2.400    0.000    6.600    0.000    4.400 
#    0.000    5.000    0.000    9.600    0.000    0.000 
#    0.000    0.000    0.000    0.000    0.000    0.000 
#
# Total GULP energy -495862.893835 kJ/mol
# GULP energy per Si atom -12396.572346 kJ/mol
# Density = 1.867909 g / cm^3
# Si number density = 18.721697 Si / 1000 Ang^3
#
#
#
# Elastic Constant Matrix: (Units=GPa)
#
#
# Indices 1 2 3 4 5 6 
#
# 1 77.6237 25.4971 33.2853 0.0000 0.0000 0.0000
# 2 25.4971 83.0217 58.2629 0.0000 0.0000 0.0000
# 3 33.2853 58.2629 129.8393 0.0000 0.0000 0.0000
# 4 0.0000 0.0000 0.0000 47.0871 0.0000 0.0000
# 5 0.0000 0.0000 0.0000 0.0000 11.0802 0.0000
# 6 0.0000 0.0000 0.0000 0.0000 0.0000 7.5134
#
#
#
# Elastic Compliance Matrix: (Units=1/GPa)
#
#
# Indices 1 2 3 4 5 6 
#
# 1 0.014897 -0.002766 -0.002578 0.000000 0.000000 0.000000
# 2 -0.002766 0.018095 -0.007411 0.000000 0.000000 0.000000
# 3 -0.002578 -0.007411 0.011688 0.000000 0.000000 0.000000
# 4 0.000000 0.000000 0.000000 0.021237 0.000000 0.000000
# 5 0.000000 0.000000 0.000000 0.000000 0.090251 0.000000
# 6 0.000000 0.000000 0.000000 0.000000 0.000000 0.133095
#
#
# Mechanical properties :
#
#
# Convention : Reuss Voigt Hill
#
# Bulk Modulus (GPa) = 52.16223 58.28615 55.22419
# Shear Modulus (GPa) = 15.56844 24.69877 20.13361
#
# Velocity S-wave (km/s) = 2.88683 3.63610 3.28291
# Velocity P-wave (km/s) = 6.24773 6.98776 6.62808
#
# Compressibility (1/GPa) = 0.01917096
#
# Stress axis : x y z
#
# Youngs Moduli (GPa) = 67.12978 55.26305 85.55721
#
# Poissons Ratio (x) = 0.15286 0.22054
# Poissons Ratio (y) = 0.18568 0.63405
# Poissons Ratio (z) = 0.17304 0.40954
#
# Static dielectric constant tensor:
#      x y z
#    x 3.030180 0.000000 0.000000 
#    y 0.000000 3.259670 0.000000 
#    z 0.000000 0.000000 3.692000 
# 
# 
# High freq. dielectric constant tensor:
#      x y z
#    x 1.685520 0.000000 0.000000 
#    y 0.000000 1.714050 0.000000 
#    z 0.000000 0.000000 1.736160 
# 
# From -- ./inp_files/7038.got.cif
#   From: 2010.03.12/outbox.cif.g09.slc.cpg/sg64_4_cif.got.tgz:7038.got - 2010.04.10 20:19:32.
