data_PCOD8261912
_publ_section_title
;
Structure prediction by ZEFSAII (Michael W. Deem and Ramdas Pophale) SiO2 
 PCOD8261912
Probable space group: C M C A
;
_chemical_formula_sum "Si O2"
_cell_formula_units_Z 80
_cell_length_a 10.010310
_cell_length_b 25.146227
_cell_length_c 17.017083
_cell_angle_alpha 90.000000
_cell_angle_beta 90.000000
_cell_angle_gamma 90.000000
_cell_volume 4283.566128
_symmetry_space_group_name_H-M "C M C A"
_symmetry_group_IT_number 64
_symmetry_cell_setting 'orthorhombic'
loop_
_space_group_symop_operation_xyz
x,y,z
-x,1/2-y,1/2+z
x,-y,-z
-x,1/2+y,1/2-z
-x,-y,-z
x,1/2+y,1/2-z
-x,y,z
x,1/2-y,1/2+z
1/2+x,1/2+y,z
1/2-x,-y,1/2+z
1/2+x,1/2-y,-z
1/2-x,y,1/2-z
1/2-x,1/2-y,-z
1/2+x,y,1/2-z
1/2-x,1/2+y,z
1/2+x,-y,1/2+z
loop_
_atom_site_type_symbol
_atom_site_label
_atom_site_fract_x
_atom_site_fract_y
_atom_site_fract_z
Si Si1 0.338165 0.703555 0.327802
Si Si2 0.755001 0.124675 0.454502
Si Si3 0.500000 0.380545 0.162535
Si Si4 0.742086 0.813635 0.390110
Si Si5 0.000000 0.938060 0.486986
Si Si6 0.500000 0.129263 0.836487
Si Si7 0.000000 0.436955 0.497393
O O1 0.500000 0.702593 0.313193
O O2 0.250000 0.709048 0.250000
O O3 0.286880 0.650043 0.370044
O O4 0.294673 0.751908 0.383901
O O5 0.747763 0.172007 0.517989
O O6 0.622677 0.089104 0.456138
O O7 0.870885 0.083799 0.471296
O O8 0.370520 0.345318 0.154774
O O9 0.500000 0.400934 0.252440
O O10 0.500000 0.426100 0.096378
O O11 0.877840 0.830166 0.347195
O O12 0.000000 0.920281 0.396072
O O13 0.000000 0.000000 0.500000
O O14 0.000000 0.500000 0.500000
#
# Coordination Sequence:
#
# PCOD8261912 Si02
#       7
#    16  16   8  16   8   8   8
#     4  12  25  40  59  89 125 163 199 238 293 360
#     4  10  22  41  61  86 119 157 200 250 297 358
#     4  10  18  35  55  87 119 147 192 255 297 342
#     4  10  21  36  60  84 119 158 195 238 295 357
#     4  10  20  39  63  85 113 157 210 251 301 356
#     4  10  20  33  57  89 115 149 196 253 303 342
#     4  10  22  39  63  87 117 157 200 247 303 360
#
# _framework density 18.676029
#
# number of rings (size 3 to 8) (size 9 to 14) (size 15 to 20)
#    0.000    1.600    2.000    3.000    2.800    0.000 
#    0.000    2.000    0.000    0.000    0.000    0.000 
#    0.000    0.000    0.000    0.000    0.000    0.000 
#
# Total GULP energy -495814.267025 kJ/mol
# GULP energy per Si atom -12395.356676 kJ/mol
# Density = 1.863352 g / cm^3
# Si number density = 18.676029 Si / 1000 Ang^3
#
#
#
# Elastic Constant Matrix: (Units=GPa)
#
#
# Indices 1 2 3 4 5 6 
#
# 1 173.6861 60.6026 35.3776 0.0000 0.0000 0.0000
# 2 60.6026 130.4239 42.9270 0.0000 0.0000 0.0000
# 3 35.3776 42.9270 54.2889 0.0000 0.0000 0.0000
# 4 0.0000 0.0000 0.0000 17.2065 0.0000 0.0000
# 5 0.0000 0.0000 0.0000 0.0000 38.8833 0.0000
# 6 0.0000 0.0000 0.0000 0.0000 0.0000 129.6798
#
#
#
# Elastic Compliance Matrix: (Units=1/GPa)
#
#
# Indices 1 2 3 4 5 6 
#
# 1 0.007163 -0.002423 -0.002753 0.000000 0.000000 0.000000
# 2 -0.002423 0.011184 -0.007265 0.000000 0.000000 0.000000
# 3 -0.002753 -0.007265 0.025958 0.000000 0.000000 0.000000
# 4 0.000000 0.000000 0.000000 0.058118 0.000000 0.000000
# 5 0.000000 0.000000 0.000000 0.000000 0.025718 0.000000
# 6 0.000000 0.000000 0.000000 0.000000 0.000000 0.007711
#
#
# Mechanical properties :
#
#
# Convention : Reuss Voigt Hill
#
# Bulk Modulus (GPa) = 51.47782 70.69038 61.08410
# Shear Modulus (GPa) = 29.90302 51.78670 40.84486
#
# Velocity S-wave (km/s) = 4.00577 5.27154 4.68163
# Velocity P-wave (km/s) = 7.00131 8.65940 7.87412
#
# Compressibility (1/GPa) = 0.01942584
#
# Stress axis : x y z
#
# Youngs Moduli (GPa) = 139.59718 89.41309 38.52391
#
# Poissons Ratio (x) = 0.21661 0.10604
# Poissons Ratio (y) = 0.33819 0.27986
# Poissons Ratio (z) = 0.38424 0.64956
#
# Static dielectric constant tensor:
#      x y z
#    x 3.705100 0.000000 0.000000 
#    y 0.000000 3.372010 0.000000 
#    z 0.000000 0.000000 3.441540 
# 
# 
# High freq. dielectric constant tensor:
#      x y z
#    x 1.752000 0.000000 0.000000 
#    y 0.000000 1.709480 0.000000 
#    z 0.000000 0.000000 1.721050 
# 
# From -- ./inp_files/29884.got.cif
#   From: 2010.03.12/outbox.cif.g09.slc.cpg/sg64_15_cif.got.tgz:29884.got - 2010.04.10 20:19:32.
