data_PCOD8261094
_publ_section_title
;
Structure prediction by ZEFSAII (Michael W. Deem and Ramdas Pophale) SiO2 
 PCOD8261094
Probable space group: C M C M
;
_chemical_formula_sum "Si O2"
_cell_formula_units_Z 64
_cell_length_a 24.143512
_cell_length_b 13.829534
_cell_length_c 9.295552
_cell_angle_alpha 90.000000
_cell_angle_beta 90.000000
_cell_angle_gamma 90.000000
_cell_volume 3103.724578
_symmetry_space_group_name_H-M "C M C M"
_symmetry_group_IT_number 63
_symmetry_cell_setting 'orthorhombic'
loop_
_space_group_symop_operation_xyz
x,y,z
-x,-y,1/2+z
x,-y,-z
-x,y,1/2-z
-x,-y,-z
x,y,1/2-z
-x,y,z
x,-y,1/2+z
1/2+x,1/2+y,z
1/2-x,1/2-y,1/2+z
1/2+x,1/2-y,-z
1/2-x,1/2+y,1/2-z
1/2-x,1/2-y,-z
1/2+x,1/2+y,1/2-z
1/2-x,1/2+y,z
1/2+x,1/2-y,1/2+z
loop_
_atom_site_type_symbol
_atom_site_label
_atom_site_fract_x
_atom_site_fract_y
_atom_site_fract_z
Si Si1 0.065920 0.149807 0.750000
Si Si2 0.842850 0.409623 0.085085
Si Si3 0.565099 0.426324 0.750000
Si Si4 0.877394 0.207438 0.471425
Si Si5 0.229013 0.096109 0.423298
O O1 0.094472 0.208098 0.623926
O O2 0.000000 0.161991 0.750000
O O3 0.083592 0.037656 0.750000
O O4 0.828347 0.439195 0.250000
O O5 0.883309 0.316724 0.088726
O O6 0.871053 0.500000 0.000000
O O7 0.788296 0.381601 0.993861
O O8 0.500000 0.417267 0.750000
O O9 0.588807 0.373663 0.887617
O O10 0.812348 0.182241 0.465639
O O11 0.232824 0.084934 0.250000
O O12 0.205096 0.000000 0.500000
#
# Coordination Sequence:
#
# PCOD8261094 Si02
#       5
#     8  16   8  16  16
#     4  11  26  42  66  97 127 161 204 258 318 381
#     4  11  24  42  63  93 129 168 211 257 305 362
#     4  11  22  44  66  93 127 159 200 260 320 377
#     4  12  24  39  66  94 126 168 210 251 313 375
#     4  11  22  37  61  96 132 167 205 251 308 375
#
# _framework density 20.620387000000001
#
# number of rings (size 3 to 8) (size 9 to 14) (size 15 to 20)
#    0.000    0.750    2.500    6.750    7.000    2.000 
#    0.000    0.000    0.000    4.500    0.000    0.000 
#    0.000    0.000    0.000    0.000    0.000    0.000 
#
# Total GULP energy -396627.925594 kJ/mol
# GULP energy per Si atom -12394.622675 kJ/mol
# Density = 2.057345 g / cm^3
# Si number density = 20.620387 Si / 1000 Ang^3
#
#
#
# Elastic Constant Matrix: (Units=GPa)
#
#
# Indices 1 2 3 4 5 6 
#
# 1 44.6726 27.1753 32.0308 0.0000 0.0000 0.0000
# 2 27.1753 121.8371 32.4649 0.0000 0.0000 0.0000
# 3 32.0308 32.4649 176.1471 0.0000 0.0000 0.0000
# 4 0.0000 0.0000 0.0000 31.9867 0.0000 0.0000
# 5 0.0000 0.0000 0.0000 0.0000 40.5623 0.0000
# 6 0.0000 0.0000 0.0000 0.0000 0.0000 21.1809
#
#
#
# Elastic Compliance Matrix: (Units=1/GPa)
#
#
# Indices 1 2 3 4 5 6 
#
# 1 0.028619 -0.005255 -0.004236 0.000000 0.000000 0.000000
# 2 -0.005255 0.009596 -0.000813 0.000000 0.000000 0.000000
# 3 -0.004236 -0.000813 0.006597 0.000000 0.000000 0.000000
# 4 0.000000 0.000000 0.000000 0.031263 0.000000 0.000000
# 5 0.000000 0.000000 0.000000 0.000000 0.024653 0.000000
# 6 0.000000 0.000000 0.000000 0.000000 0.000000 0.047212
#
#
# Mechanical properties :
#
#
# Convention : Reuss Voigt Hill
#
# Bulk Modulus (GPa) = 41.31318 58.44430 49.87874
# Shear Modulus (GPa) = 28.31000 35.47838 31.89419
#
# Velocity S-wave (km/s) = 3.70930 4.15245 3.93712
# Velocity P-wave (km/s) = 6.19870 7.16903 6.70145
#
# Compressibility (1/GPa) = 0.02420535
#
# Stress axis : x y z
#
# Youngs Moduli (GPa) = 34.94239 104.20600 151.58079
#
# Poissons Ratio (x) = 0.54756 0.64203
# Poissons Ratio (y) = 0.18361 0.12326
# Poissons Ratio (z) = 0.14800 0.08474
#
# Static dielectric constant tensor:
#      x y z
#    x 3.508160 0.000000 0.000000 
#    y 0.000000 3.986600 0.000000 
#    z 0.000000 0.000000 3.849520 
# 
# 
# High freq. dielectric constant tensor:
#      x y z
#    x 1.777180 0.000000 0.000000 
#    y 0.000000 1.816140 0.000000 
#    z 0.000000 0.000000 1.827700 
# 
# From -- ./inp_files/9657.got.cif
#   From: 2010.03.12/outbox.cif.g09.slc.cpg/sg63_5_cif.got.tgz:9657.got - 2010.04.10 19:34:48.
