data_PCOD8261390
_publ_section_title
;
Structure prediction by ZEFSAII (Michael W. Deem and Ramdas Pophale) SiO2 
 PCOD8261390
Probable space group: C M C A
;
_chemical_formula_sum "Si O2"
_cell_formula_units_Z 88
_cell_length_a 21.850128
_cell_length_b 17.075220
_cell_length_c 15.083273
_cell_angle_alpha 90.000000
_cell_angle_beta 90.000000
_cell_angle_gamma 90.000000
_cell_volume 5627.504941
_symmetry_space_group_name_H-M "C M C A"
_symmetry_group_IT_number 64
_symmetry_cell_setting 'orthorhombic'
loop_
_space_group_symop_operation_xyz
x,y,z
-x,1/2-y,1/2+z
x,-y,-z
-x,1/2+y,1/2-z
-x,-y,-z
x,1/2+y,1/2-z
-x,y,z
x,1/2-y,1/2+z
1/2+x,1/2+y,z
1/2-x,-y,1/2+z
1/2+x,1/2-y,-z
1/2-x,y,1/2-z
1/2-x,1/2-y,-z
1/2+x,y,1/2-z
1/2-x,1/2+y,z
1/2+x,-y,1/2+z
loop_
_atom_site_type_symbol
_atom_site_label
_atom_site_fract_x
_atom_site_fract_y
_atom_site_fract_z
Si Si1 0.648783 0.449392 0.711475
Si Si2 0.929963 0.538910 0.904917
Si Si3 0.763712 0.921593 0.550977
Si Si4 0.750000 0.940643 0.250000
Si Si5 0.679310 0.652946 0.608773
Si Si6 0.805883 0.320105 0.682657
O O1 0.582620 0.480711 0.679453
O O2 0.685837 0.450910 0.619484
O O3 0.690377 0.505745 0.775385
O O4 0.642194 0.364756 0.758355
O O5 0.887180 0.613472 0.887613
O O6 0.000000 0.566190 0.901098
O O7 0.915041 0.500000 0.000000
O O8 0.794166 0.854439 0.489806
O O9 0.709432 0.877892 0.601801
O O10 0.740632 0.000000 0.500000
O O11 0.731786 0.886228 0.168402
O O12 0.667967 0.741259 0.640933
O O13 0.750000 0.304168 0.750000
#
# Coordination Sequence:
#
# PCOD8261390 Si02
#       6
#    16  16  16   8  16  16
#     4  10  16  31  45  67  94 125 155 188 228 282
#     4  10  19  32  52  70  87 122 168 202 230 268
#     4  11  16  28  46  69  97 126 152 187 226 291
#     4  10  16  26  48  62  98 126 148 184 232 282
#     4  11  18  30  44  73  99 125 151 195 241 284
#     4  10  20  28  44  70 104 124 146 185 247 289
#
# _framework density 15.637480999999999
#
# number of rings (size 3 to 8) (size 9 to 14) (size 15 to 20)
#    0.000    1.636    9.091    0.545    0.000    0.000 
#    0.000    0.909    0.000    0.000    0.000    0.000 
#    0.000   18.909    0.000    0.000    0.000    0.000 
#
# Total GULP energy -545075.767086 kJ/mol
# GULP energy per Si atom -12388.085616 kJ/mol
# Density = 1.560189 g / cm^3
# Si number density = 15.637481 Si / 1000 Ang^3
#
#
#
# Elastic Constant Matrix: (Units=GPa)
#
#
# Indices 1 2 3 4 5 6 
#
# 1 65.8049 33.2106 37.9220 0.0000 0.0000 0.0000
# 2 33.2106 113.2301 53.8650 0.0000 0.0000 0.0000
# 3 37.9220 53.8650 67.1974 0.0000 0.0000 0.0000
# 4 0.0000 0.0000 0.0000 30.1148 0.0000 0.0000
# 5 0.0000 0.0000 0.0000 0.0000 16.3576 0.0000
# 6 0.0000 0.0000 0.0000 0.0000 0.0000 10.7564
#
#
#
# Elastic Compliance Matrix: (Units=1/GPa)
#
#
# Indices 1 2 3 4 5 6 
#
# 1 0.022578 -0.000906 -0.012015 0.000000 0.000000 0.000000
# 2 -0.000906 0.014311 -0.010960 0.000000 0.000000 0.000000
# 3 -0.012015 -0.010960 0.030448 0.000000 0.000000 0.000000
# 4 0.000000 0.000000 0.000000 0.033206 0.000000 0.000000
# 5 0.000000 0.000000 0.000000 0.000000 0.061134 0.000000
# 6 0.000000 0.000000 0.000000 0.000000 0.000000 0.092968
#
#
# Mechanical properties :
#
#
# Convention : Reuss Voigt Hill
#
# Bulk Modulus (GPa) = 51.08947 55.13641 53.11294
# Shear Modulus (GPa) = 16.18475 19.52809 17.85642
#
# Velocity S-wave (km/s) = 3.22063 3.53767 3.38287
# Velocity P-wave (km/s) = 6.82437 7.21266 7.02120
#
# Compressibility (1/GPa) = 0.01957351
#
# Stress axis : x y z
#
# Youngs Moduli (GPa) = 44.29116 69.87412 32.84310
#
# Poissons Ratio (x) = 0.06334 0.39461
# Poissons Ratio (y) = 0.04015 0.35997
# Poissons Ratio (z) = 0.53215 0.76585
#
# Static dielectric constant tensor:
#      x y z
#    x 2.671240 0.000000 0.000000 
#    y 0.000000 3.065260 0.000000 
#    z 0.000000 0.000000 3.233950 
# 
# 
# High freq. dielectric constant tensor:
#      x y z
#    x 1.549680 0.000000 0.000000 
#    y 0.000000 1.602490 0.000000 
#    z 0.000000 0.000000 1.609660 
# 
# From -- ./inp_files/26482.got.cif
#   From: 2010.03.12/outbox.cif.g09.slc.cpg/sg64_14_cif.got.tgz:26482.got - 2010.04.10 20:19:32.
