data_PCOD8261030
_publ_section_title
;
Structure prediction by ZEFSAII (Michael W. Deem and Ramdas Pophale) SiO2 
 PCOD8261030
Probable space group: C M C M
;
_chemical_formula_sum "Si O2"
_cell_formula_units_Z 96
_cell_length_a 9.893300
_cell_length_b 22.512522
_cell_length_c 21.883490
_cell_angle_alpha 90.000000
_cell_angle_beta 90.000000
_cell_angle_gamma 90.000000
_cell_volume 4873.959474
_symmetry_space_group_name_H-M "C M C M"
_symmetry_group_IT_number 63
_symmetry_cell_setting 'orthorhombic'
loop_
_space_group_symop_operation_xyz
x,y,z
-x,-y,1/2+z
x,-y,-z
-x,y,1/2-z
-x,-y,-z
x,y,1/2-z
-x,y,z
x,-y,1/2+z
1/2+x,1/2+y,z
1/2-x,1/2-y,1/2+z
1/2+x,1/2-y,-z
1/2-x,1/2+y,1/2-z
1/2-x,1/2-y,-z
1/2+x,1/2+y,1/2-z
1/2-x,1/2+y,z
1/2+x,1/2-y,1/2+z
loop_
_atom_site_type_symbol
_atom_site_label
_atom_site_fract_x
_atom_site_fract_y
_atom_site_fract_z
Si Si1 0.652684 0.254650 0.319080
Si Si2 0.746810 0.371954 0.130802
Si Si3 0.500000 0.074546 0.318577
Si Si4 0.666082 0.811297 0.493236
Si Si5 0.500000 0.557217 0.677811
Si Si6 0.000000 0.915672 0.677862
Si Si7 0.739584 0.140206 0.119239
Si Si8 0.000000 0.565431 0.818572
O O1 0.648568 0.232656 0.250000
O O2 0.500000 0.259133 0.345888
O O3 0.725897 0.317758 0.322504
O O4 0.737433 0.207697 0.357381
O O5 0.770216 0.344838 0.064312
O O6 0.624323 0.417418 0.139243
O O7 0.873285 0.410952 0.146296
O O8 0.500000 0.099035 0.250000
O O9 0.369762 0.098442 0.351118
O O10 0.500000 0.004607 0.320378
O O11 0.500000 0.801830 0.489731
O O12 0.750000 0.750000 0.500000
O O13 0.708098 0.856007 0.547459
O O14 0.500000 0.577036 0.750000
O O15 0.500000 0.486433 0.674293
O O16 0.121726 0.889222 0.638938
O O17 0.000000 0.896108 0.750000
O O18 0.000000 0.589671 0.750000
#
# Coordination Sequence:
#
# PCOD8261030 Si02
#       8
#    16  16   8  16   8   8  16   8
#     4  11  21  36  63  98 131 165 218 281 340 407
#     4  12  24  42  67 101 136 177 231 280 339 404
#     4  11  22  42  71  96 130 182 228 273 338 411
#     4  12  27  47  69  99 140 187 229 281 340 411
#     4  11  24  46  73 100 138 186 228 275 342 417
#     4  11  26  46  69 104 142 176 224 287 346 401
#     4  12  24  43  68 100 135 176 228 278 339 405
#     4  11  24  42  65  98 138 178 222 283 348 397
#
# _framework density 19.696511999999998
#
# number of rings (size 3 to 8) (size 9 to 14) (size 15 to 20)
#    0.000    0.500    5.000    4.000    2.333    3.333 
#    0.000    6.667    0.000    0.000    0.000    0.000 
#    0.000    0.000    0.000    0.000    0.000    0.000 
#
# Total GULP energy -594974.777580 kJ/mol
# GULP energy per Si atom -12395.307866 kJ/mol
# Density = 1.965168 g / cm^3
# Si number density = 19.696512 Si / 1000 Ang^3
#
#
#
# Elastic Constant Matrix: (Units=GPa)
#
#
# Indices 1 2 3 4 5 6 
#
# 1 169.8082 48.3859 60.3687 0.0000 0.0000 0.0000
# 2 48.3859 83.8927 47.3171 0.0000 0.0000 0.0000
# 3 60.3687 47.3171 133.0642 0.0000 0.0000 0.0000
# 4 0.0000 0.0000 0.0000 4.5101 0.0000 0.0000
# 5 0.0000 0.0000 0.0000 0.0000 36.9027 0.0000
# 6 0.0000 0.0000 0.0000 0.0000 0.0000 57.4862
#
#
#
# Elastic Compliance Matrix: (Units=1/GPa)
#
#
# Indices 1 2 3 4 5 6 
#
# 1 0.007598 -0.003050 -0.002363 0.000000 0.000000 0.000000
# 2 -0.003050 0.016135 -0.004354 0.000000 0.000000 0.000000
# 3 -0.002363 -0.004354 0.010135 0.000000 0.000000 0.000000
# 4 0.000000 0.000000 0.000000 0.221727 0.000000 0.000000
# 5 0.000000 0.000000 0.000000 0.000000 0.027098 0.000000
# 6 0.000000 0.000000 0.000000 0.000000 0.000000 0.017395
#
#
# Mechanical properties :
#
#
# Convention : Reuss Voigt Hill
#
# Bulk Modulus (GPa) = 69.75638 77.65649 73.70644
# Shear Modulus (GPa) = 15.41313 35.15933 25.28623
#
# Velocity S-wave (km/s) = 2.80041 4.22957 3.58689
# Velocity P-wave (km/s) = 6.77856 7.96018 7.39302
#
# Compressibility (1/GPa) = 0.01433561
#
# Stress axis : x y z
#
# Youngs Moduli (GPa) = 131.61542 61.97887 98.66567
#
# Poissons Ratio (x) = 0.18901 0.23311
# Poissons Ratio (y) = 0.40138 0.42957
# Poissons Ratio (z) = 0.31095 0.26985
#
# Static dielectric constant tensor:
#      x y z
#    x 3.785290 0.000000 0.000000 
#    y 0.000000 3.740110 0.000000 
#    z 0.000000 0.000000 4.279680 
# 
# 
# High freq. dielectric constant tensor:
#      x y z
#    x 1.781570 0.000000 0.000000 
#    y 0.000000 1.779890 0.000000 
#    z 0.000000 0.000000 1.774290 
# 
# From -- ./inp_files/60131.got.cif
#   From: 2010.03.12/outbox.cif.g09.slc.cpg/sg63_31_cif.got.tgz:60131.got - 2010.04.10 19:34:48.
