data_PCOD8261994
_publ_section_title
;
Structure prediction by ZEFSAII (Michael W. Deem and Ramdas Pophale) SiO2 
 PCOD8261994
Probable space group: C M C A
;
_chemical_formula_sum "Si O2"
_cell_formula_units_Z 112
_cell_length_a 9.368062
_cell_length_b 25.085718
_cell_length_c 28.759106
_cell_angle_alpha 90.000000
_cell_angle_beta 90.000000
_cell_angle_gamma 90.000000
_cell_volume 6758.521096
_symmetry_space_group_name_H-M "C M C A"
_symmetry_group_IT_number 64
_symmetry_cell_setting 'orthorhombic'
loop_
_space_group_symop_operation_xyz
x,y,z
-x,1/2-y,1/2+z
x,-y,-z
-x,1/2+y,1/2-z
-x,-y,-z
x,1/2+y,1/2-z
-x,y,z
x,1/2-y,1/2+z
1/2+x,1/2+y,z
1/2-x,-y,1/2+z
1/2+x,1/2-y,-z
1/2-x,y,1/2-z
1/2-x,1/2-y,-z
1/2+x,y,1/2-z
1/2-x,1/2+y,z
1/2+x,-y,1/2+z
loop_
_atom_site_type_symbol
_atom_site_label
_atom_site_fract_x
_atom_site_fract_y
_atom_site_fract_z
Si Si1 0.165907 0.249255 0.796937
Si Si2 0.333326 0.188369 0.545664
Si Si3 0.335023 0.554444 0.795445
Si Si4 0.667607 0.932292 0.703161
Si Si5 0.831569 0.348993 0.356599
Si Si6 0.835994 0.646871 0.142658
Si Si7 0.164116 0.688282 0.042838
O O1 0.250000 0.260426 0.750000
O O2 0.227976 0.196252 0.821732
O O3 0.193211 0.298016 0.831410
O O4 0.000000 0.243017 0.784498
O O5 0.500000 0.178070 0.538730
O O6 0.271731 0.157869 0.591117
O O7 0.255438 0.165498 0.500061
O O8 0.297488 0.250411 0.552980
O O9 0.500000 0.562729 0.783366
O O10 0.250000 0.572038 0.750000
O O11 0.302261 0.493784 0.809522
O O12 0.288276 0.592607 0.837911
O O13 0.500000 0.920746 0.710025
O O14 0.750000 0.915751 0.750000
O O15 0.770424 0.898313 0.839094
O O16 0.000000 0.340393 0.359375
O O17 0.800222 0.654052 0.088419
O O18 0.000000 0.628878 0.149828
O O19 0.000000 0.682809 0.028874
#
# Coordination Sequence:
#
# PCOD8261994 Si02
#       7
#    16  16  16  16  16  16  16
#     4  10  19  30  44  66  95 124 152 183 226 281
#     4   9  16  29  49  70  93 123 155 189 231 282
#     4   9  18  32  50  70  93 123 159 197 233 274
#     4  10  20  33  49  70  94 123 162 200 232 271
#     4   9  16  30  50  69  93 124 154 187 233 283
#     4  10  19  32  49  68  95 128 157 190 235 282
#     4   9  17  30  47  69  96 124 154 191 234 280
#
# _framework density 16.571674000000002
#
# number of rings (size 3 to 8) (size 9 to 14) (size 15 to 20)
#    0.000    2.571    1.429    1.286    0.000    2.857 
#    0.000    1.429    0.000    0.857    0.000    6.000 
#    0.000    0.000    0.000    0.000    0.000    0.000 
#
# Total GULP energy -694409.305174 kJ/mol
# GULP energy per Si atom -12400.166164 kJ/mol
# Density = 1.653396 g / cm^3
# Si number density = 16.571674 Si / 1000 Ang^3
#
#
#
# Elastic Constant Matrix: (Units=GPa)
#
#
# Indices 1 2 3 4 5 6 
#
# 1 58.3877 37.2634 54.7988 0.0000 0.0000 0.0000
# 2 37.2634 71.9727 48.8331 0.0000 0.0000 0.0000
# 3 54.7988 48.8331 125.1600 0.0000 0.0000 0.0000
# 4 0.0000 0.0000 0.0000 21.5745 0.0000 0.0000
# 5 0.0000 0.0000 0.0000 0.0000 28.4830 0.0000
# 6 0.0000 0.0000 0.0000 0.0000 0.0000 18.6468
#
#
#
# Elastic Compliance Matrix: (Units=1/GPa)
#
#
# Indices 1 2 3 4 5 6 
#
# 1 0.033752 -0.010130 -0.010825 0.000000 0.000000 0.000000
# 2 -0.010130 0.021937 -0.004124 0.000000 0.000000 0.000000
# 3 -0.010825 -0.004124 0.014338 0.000000 0.000000 0.000000
# 4 0.000000 0.000000 0.000000 0.046351 0.000000 0.000000
# 5 0.000000 0.000000 0.000000 0.000000 0.035109 0.000000
# 6 0.000000 0.000000 0.000000 0.000000 0.000000 0.053628
#
#
# Mechanical properties :
#
#
# Convention : Reuss Voigt Hill
#
# Bulk Modulus (GPa) = 50.32947 59.70122 55.01534
# Shear Modulus (GPa) = 19.09158 21.38254 20.23706
#
# Velocity S-wave (km/s) = 3.39789 3.59598 3.49834
# Velocity P-wave (km/s) = 6.76985 7.30381 7.04190
#
# Compressibility (1/GPa) = 0.01986907
#
# Stress axis : x y z
#
# Youngs Moduli (GPa) = 29.62823 45.58540 69.74312
#
# Poissons Ratio (x) = 0.46177 0.75498
# Poissons Ratio (y) = 0.30013 0.28761
# Poissons Ratio (z) = 0.32073 0.18799
#
# Static dielectric constant tensor:
#      x y z
#    x 3.004730 0.000000 0.000000 
#    y 0.000000 3.040830 0.000000 
#    z 0.000000 0.000000 3.257620 
# 
# 
# High freq. dielectric constant tensor:
#      x y z
#    x 1.625040 0.000000 0.000000 
#    y 0.000000 1.621750 0.000000 
#    z 0.000000 0.000000 1.640490 
# 
# From -- ./inp_files/38579.got.cif
#   From: 2010.03.12/outbox.cif.g09.slc.cpg/sg64_20_cif.got.tgz:38579.got - 2010.04.10 20:19:32.
