data_PCOD8261449
_publ_section_title
;
Structure prediction by ZEFSAII (Michael W. Deem and Ramdas Pophale) SiO2 
 PCOD8261449
Probable space group: C M C A
;
_chemical_formula_sum "Si O2"
_cell_formula_units_Z 88
_cell_length_a 19.736624
_cell_length_b 11.439467
_cell_length_c 18.281926
_cell_angle_alpha 90.000000
_cell_angle_beta 90.000000
_cell_angle_gamma 90.000000
_cell_volume 4127.628515
_symmetry_space_group_name_H-M "C M C A"
_symmetry_group_IT_number 64
_symmetry_cell_setting 'orthorhombic'
loop_
_space_group_symop_operation_xyz
x,y,z
-x,1/2-y,1/2+z
x,-y,-z
-x,1/2+y,1/2-z
-x,-y,-z
x,1/2+y,1/2-z
-x,y,z
x,1/2-y,1/2+z
1/2+x,1/2+y,z
1/2-x,-y,1/2+z
1/2+x,1/2-y,-z
1/2-x,y,1/2-z
1/2-x,1/2-y,-z
1/2+x,y,1/2-z
1/2-x,1/2+y,z
1/2+x,-y,1/2+z
loop_
_atom_site_type_symbol
_atom_site_label
_atom_site_fract_x
_atom_site_fract_y
_atom_site_fract_z
Si Si1 0.077872 0.512601 0.850611
Si Si2 0.149193 0.715402 0.119017
Si Si3 0.800643 0.131009 0.129987
Si Si4 0.325407 0.076318 0.725367
Si Si5 0.849748 0.834750 0.455613
Si Si6 0.733219 0.500000 0.000000
O O1 0.092871 0.374188 0.850463
O O2 0.123026 0.582935 0.792198
O O3 0.095414 0.567785 0.930868
O O4 0.000000 0.533444 0.831471
O O5 0.220541 0.652551 0.133332
O O6 0.146952 0.838409 0.161404
O O7 0.133345 0.731340 0.031963
O O8 0.843588 0.246902 0.113681
O O9 0.824447 0.060626 0.201429
O O10 0.815766 0.045211 0.062625
O O11 0.250000 0.117943 0.750000
O O12 0.777280 0.895678 0.465382
#
# Coordination Sequence:
#
# PCOD8261449 Si02
#       6
#    16  16  16  16  16   8
#     4  12  27  45  65  94 135 181 227 273 333 412
#     4  11  23  41  67  96 130 174 223 275 330 390
#     4  11  20  35  65 100 131 166 210 276 337 383
#     4  12  25  42  66 101 138 177 222 277 342 400
#     4  11  21  40  66  98 133 171 223 278 330 389
#     4  10  16  36  59 104 133 158 214 270 334 382
#
# _framework density 21.319748000000001
#
# number of rings (size 3 to 8) (size 9 to 14) (size 15 to 20)
#    0.000    0.727    5.455    5.455    5.091    2.182 
#    0.000    0.000    0.000    0.000    0.000    5.091 
#    0.000    0.000    0.000    0.000    0.000    0.000 
#
# Total GULP energy -545430.347351 kJ/mol
# GULP energy per Si atom -12396.144258 kJ/mol
# Density = 2.127122 g / cm^3
# Si number density = 21.319748 Si / 1000 Ang^3
#
#
#
# Elastic Constant Matrix: (Units=GPa)
#
#
# Indices 1 2 3 4 5 6 
#
# 1 93.2830 17.1479 42.9339 0.0000 0.0000 0.0000
# 2 17.1479 97.5770 50.3994 0.0000 0.0000 0.0000
# 3 42.9339 50.3994 97.7574 0.0000 0.0000 0.0000
# 4 0.0000 0.0000 0.0000 54.0783 0.0000 0.0000
# 5 0.0000 0.0000 0.0000 0.0000 15.1923 0.0000
# 6 0.0000 0.0000 0.0000 0.0000 0.0000 14.1435
#
#
#
# Elastic Compliance Matrix: (Units=1/GPa)
#
#
# Indices 1 2 3 4 5 6 
#
# 1 0.013499 0.000940 -0.006413 0.000000 0.000000 0.000000
# 2 0.000940 0.014033 -0.007648 0.000000 0.000000 0.000000
# 3 -0.006413 -0.007648 0.016989 0.000000 0.000000 0.000000
# 4 0.000000 0.000000 0.000000 0.018492 0.000000 0.000000
# 5 0.000000 0.000000 0.000000 0.000000 0.065823 0.000000
# 6 0.000000 0.000000 0.000000 0.000000 0.000000 0.070704
#
#
# Mechanical properties :
#
#
# Convention : Reuss Voigt Hill
#
# Bulk Modulus (GPa) = 54.70666 56.61997 55.66331
# Shear Modulus (GPa) = 21.56339 28.55857 25.06098
#
# Velocity S-wave (km/s) = 3.18375 3.66394 3.43225
# Velocity P-wave (km/s) = 6.26345 6.67191 6.47090
#
# Compressibility (1/GPa) = 0.01827931
#
# Stress axis : x y z
#
# Youngs Moduli (GPa) = 74.07953 71.25914 58.86158
#
# Poissons Ratio (x) = -0.06700 0.37750
# Poissons Ratio (y) = -0.06966 0.45017
# Poissons Ratio (z) = 0.47510 0.54498
#
# Static dielectric constant tensor:
#      x y z
#    x 3.259190 0.000000 0.000000 
#    y 0.000000 4.026070 0.000000 
#    z 0.000000 0.000000 4.285490 
# 
# 
# High freq. dielectric constant tensor:
#      x y z
#    x 1.764300 0.000000 0.000000 
#    y 0.000000 1.848980 0.000000 
#    z 0.000000 0.000000 1.856110 
# 
# From -- ./inp_files/34121.got.cif
#   From: 2010.03.12/outbox.cif.g09.slc.cpg/sg64_18_cif.got.tgz:34121.got - 2010.04.10 20:19:32.
