data_PCOD8261334
_publ_section_title
;
Structure prediction by ZEFSAII (Michael W. Deem and Ramdas Pophale) SiO2 
 PCOD8261334
Probable space group: C M C M
;
_chemical_formula_sum "Si O2"
_cell_formula_units_Z 80
_cell_length_a 9.355905
_cell_length_b 19.677434
_cell_length_c 25.489517
_cell_angle_alpha 90.000000
_cell_angle_beta 90.000000
_cell_angle_gamma 90.000000
_cell_volume 4692.625258
_symmetry_space_group_name_H-M "C M C M"
_symmetry_group_IT_number 63
_symmetry_cell_setting 'orthorhombic'
loop_
_space_group_symop_operation_xyz
x,y,z
-x,-y,1/2+z
x,-y,-z
-x,y,1/2-z
-x,-y,-z
x,y,1/2-z
-x,y,z
x,-y,1/2+z
1/2+x,1/2+y,z
1/2-x,1/2-y,1/2+z
1/2+x,1/2-y,-z
1/2-x,1/2+y,1/2-z
1/2-x,1/2-y,-z
1/2+x,1/2+y,1/2-z
1/2-x,1/2+y,z
1/2+x,1/2-y,1/2+z
loop_
_atom_site_type_symbol
_atom_site_label
_atom_site_fract_x
_atom_site_fract_y
_atom_site_fract_z
Si Si1 0.669837 0.435070 0.307982
Si Si2 0.165810 0.680421 0.996473
Si Si3 0.838337 0.679676 0.112537
Si Si4 0.331893 0.662728 0.899488
Si Si5 0.832983 0.912908 0.809874
O O1 0.727158 0.414334 0.250000
O O2 0.500000 0.435056 0.306628
O O3 0.725635 0.381606 0.350773
O O4 0.723444 0.510957 0.322272
O O5 0.243737 0.636906 0.950824
O O6 0.000000 0.693052 0.982017
O O7 0.250000 0.750000 0.000000
O O8 0.177880 0.646682 0.054243
O O9 0.795533 0.759009 0.112355
O O10 0.738911 0.641011 0.152508
O O11 0.000000 0.672134 0.132402
O O12 0.500000 0.652112 0.910151
O O13 0.796609 0.893774 0.750000
O O14 0.000000 0.908777 0.820462
#
# Coordination Sequence:
#
# PCOD8261334 Si02
#       5
#    16  16  16  16  16
#     4   8  15  30  50  69  91 121 157 194 229 269
#     4   9  17  30  47  68  95 124 153 187 229 274
#     4   9  18  30  46  70  95 120 151 186 229 278
#     4   9  17  30  50  73  93 118 155 193 229 271
#     4   9  18  32  49  68  91 122 157 191 229 271
#
# _framework density 17.048027000000001
#
# number of rings (size 3 to 8) (size 9 to 14) (size 15 to 20)
#    0.000    3.200    0.000    3.000    0.000    5.200 
#    0.000    4.000    0.000    7.800    0.000    0.000 
#    0.000    0.000    0.000    0.000    0.000    0.000 
#
# Total GULP energy -495685.264089 kJ/mol
# GULP energy per Si atom -12392.131602 kJ/mol
# Density = 1.700923 g / cm^3
# Si number density = 17.048027 Si / 1000 Ang^3
#
#
#
# Elastic Constant Matrix: (Units=GPa)
#
#
# Indices 1 2 3 4 5 6 
#
# 1 61.4027 33.2086 61.2814 0.0000 0.0000 0.0000
# 2 33.2086 68.8193 68.3420 0.0000 0.0000 0.0000
# 3 61.2814 68.3420 136.8844 0.0000 0.0000 0.0000
# 4 0.0000 0.0000 0.0000 5.2858 0.0000 0.0000
# 5 0.0000 0.0000 0.0000 0.0000 33.2880 0.0000
# 6 0.0000 0.0000 0.0000 0.0000 0.0000 19.6287
#
#
#
# Elastic Compliance Matrix: (Units=1/GPa)
#
#
# Indices 1 2 3 4 5 6 
#
# 1 0.029611 -0.002230 -0.012143 0.000000 0.000000 0.000000
# 2 -0.002230 0.028988 -0.013474 0.000000 0.000000 0.000000
# 3 -0.012143 -0.013474 0.019469 0.000000 0.000000 0.000000
# 4 0.000000 0.000000 0.000000 0.189186 0.000000 0.000000
# 5 0.000000 0.000000 0.000000 0.000000 0.030041 0.000000
# 6 0.000000 0.000000 0.000000 0.000000 0.000000 0.050946
#
#
# Mechanical properties :
#
#
# Convention : Reuss Voigt Hill
#
# Bulk Modulus (GPa) = 44.69636 65.86337 55.27987
# Shear Modulus (GPa) = 12.15381 18.59212 15.37297
#
# Velocity S-wave (km/s) = 2.67295 3.30597 3.00616
# Velocity P-wave (km/s) = 5.98339 7.30003 6.67426
#
# Compressibility (1/GPa) = 0.02237319
#
# Stress axis : x y z
#
# Youngs Moduli (GPa) = 33.77106 34.49734 51.36317
#
# Poissons Ratio (x) = 0.07692 0.62372
# Poissons Ratio (y) = 0.07530 0.69209
# Poissons Ratio (z) = 0.41009 0.46483
#
# Static dielectric constant tensor:
#      x y z
#    x 3.070410 0.000000 0.000000 
#    y 0.000000 3.065320 0.000000 
#    z 0.000000 0.000000 3.809180 
# 
# 
# High freq. dielectric constant tensor:
#      x y z
#    x 1.639840 0.000000 0.000000 
#    y 0.000000 1.629490 0.000000 
#    z 0.000000 0.000000 1.671490 
# 
# From -- ./inp_files/66604.got.cif
#   From: 2010.03.12/outbox.cif.g09.slc.cpg/sg63_34_cif.got.tgz:66604.got - 2010.04.10 19:34:48.
