data_PCOD8261111
_publ_section_title
;
Structure prediction by ZEFSAII (Michael W. Deem and Ramdas Pophale) SiO2 
 PCOD8261111
Probable space group: C M C M
;
_chemical_formula_sum "Si O2"
_cell_formula_units_Z 72
_cell_length_a 18.037979
_cell_length_b 9.036083
_cell_length_c 21.459704
_cell_angle_alpha 90.000000
_cell_angle_beta 90.000000
_cell_angle_gamma 90.000000
_cell_volume 3497.774568
_symmetry_space_group_name_H-M "C M C M"
_symmetry_group_IT_number 63
_symmetry_cell_setting 'orthorhombic'
loop_
_space_group_symop_operation_xyz
x,y,z
-x,-y,1/2+z
x,-y,-z
-x,y,1/2-z
-x,-y,-z
x,y,1/2-z
-x,y,z
x,-y,1/2+z
1/2+x,1/2+y,z
1/2-x,1/2-y,1/2+z
1/2+x,1/2-y,-z
1/2-x,1/2+y,1/2-z
1/2-x,1/2-y,-z
1/2+x,1/2+y,1/2-z
1/2-x,1/2+y,z
1/2+x,1/2-y,1/2+z
loop_
_atom_site_type_symbol
_atom_site_label
_atom_site_fract_x
_atom_site_fract_y
_atom_site_fract_z
Si Si1 0.300860 0.056824 0.107560
Si Si2 0.086169 0.221325 0.930375
Si Si3 0.083751 0.001244 0.319674
Si Si4 0.184516 0.000000 0.500000
Si Si5 0.697489 0.246493 0.677625
O O1 0.377282 0.116499 0.077351
O O2 0.274803 0.177035 0.158765
O O3 0.235891 0.045458 0.057155
O O4 0.317229 0.900585 0.138562
O O5 0.000000 0.237987 0.949029
O O6 0.096508 0.134370 0.865733
O O7 0.130864 0.137655 0.984717
O O8 0.105542 0.947351 0.250000
O O9 0.132281 0.140640 0.339680
O O10 0.000000 0.058083 0.322274
O O11 0.699488 0.204179 0.750000
#
# Coordination Sequence:
#
# PCOD8261111 Si02
#       5
#    16  16  16   8  16
#     4  12  24  40  64  95 127 165 211 268 313 374
#     4  11  24  42  66  94 125 167 213 258 313 378
#     4   9  19  38  63  91 126 166 208 259 318 376
#     4  12  23  44  67  88 128 172 212 258 319 374
#     4  11  22  39  64  93 126 166 214 260 318 384
#
# _framework density 20.584517000000002
#
# number of rings (size 3 to 8) (size 9 to 14) (size 15 to 20)
#    0.000    1.111    4.444    1.667    0.000    4.444 
#    0.000    0.556    0.000    0.000    0.000    0.000 
#    0.000    0.000    0.000    0.000    0.000    0.000 
#
# Total GULP energy -446475.977286 kJ/mol
# GULP energy per Si atom -12402.110480 kJ/mol
# Density = 2.053767 g / cm^3
# Si number density = 20.584517 Si / 1000 Ang^3
#
#
#
# Elastic Constant Matrix: (Units=GPa)
#
#
# Indices 1 2 3 4 5 6 
#
# 1 131.1803 36.0472 33.5343 0.0000 0.0000 0.0000
# 2 36.0472 70.9872 9.5635 0.0000 0.0000 0.0000
# 3 33.5343 9.5635 68.7779 0.0000 0.0000 0.0000
# 4 0.0000 0.0000 0.0000 12.6827 0.0000 0.0000
# 5 0.0000 0.0000 0.0000 0.0000 30.5885 0.0000
# 6 0.0000 0.0000 0.0000 0.0000 0.0000 36.9939
#
#
#
# Elastic Compliance Matrix: (Units=1/GPa)
#
#
# Indices 1 2 3 4 5 6 
#
# 1 0.009932 -0.004475 -0.004220 0.000000 0.000000 0.000000
# 2 -0.004475 0.016372 -0.000095 0.000000 0.000000 0.000000
# 3 -0.004220 -0.000095 0.016610 0.000000 0.000000 0.000000
# 4 0.000000 0.000000 0.000000 0.078848 0.000000 0.000000
# 5 0.000000 0.000000 0.000000 0.000000 0.032692 0.000000
# 6 0.000000 0.000000 0.000000 0.000000 0.000000 0.027031
#
#
# Mechanical properties :
#
#
# Convention : Reuss Voigt Hill
#
# Bulk Modulus (GPa) = 39.47150 47.69281 43.58216
# Shear Modulus (GPa) = 24.09531 28.83971 26.46751
#
# Velocity S-wave (km/s) = 3.42505 3.74711 3.58969
# Velocity P-wave (km/s) = 5.90409 6.47616 6.19673
#
# Compressibility (1/GPa) = 0.02533473
#
# Stress axis : x y z
#
# Youngs Moduli (GPa) = 100.68961 61.07973 60.20334
#
# Poissons Ratio (x) = 0.27331 0.25407
# Poissons Ratio (y) = 0.45055 0.00571
# Poissons Ratio (z) = 0.42492 0.00579
#
# Static dielectric constant tensor:
#      x y z
#    x 3.901350 0.000000 0.000000 
#    y 0.000000 3.608100 0.000000 
#    z 0.000000 0.000000 3.954360 
# 
# 
# High freq. dielectric constant tensor:
#      x y z
#    x 1.811880 0.000000 0.000000 
#    y 0.000000 1.797730 0.000000 
#    z 0.000000 0.000000 1.815120 
# 
# From -- ./inp_files/56308.got.cif
#   From: 2010.03.12/outbox.cif.g09.slc.cpg/sg63_29_cif.got.tgz:56308.got - 2010.04.10 19:34:48.
