data_PCOD8261311
_publ_section_title
;
Structure prediction by ZEFSAII (Michael W. Deem and Ramdas Pophale) SiO2 
 PCOD8261311
Probable space group: C M C M
;
_chemical_formula_sum "Si O2"
_cell_formula_units_Z 128
_cell_length_a 21.210972
_cell_length_b 21.992739
_cell_length_c 18.170996
_cell_angle_alpha 90.000000
_cell_angle_beta 90.000000
_cell_angle_gamma 90.000000
_cell_volume 8476.540155
_symmetry_space_group_name_H-M "C M C M"
_symmetry_group_IT_number 63
_symmetry_cell_setting 'orthorhombic'
loop_
_space_group_symop_operation_xyz
x,y,z
-x,-y,1/2+z
x,-y,-z
-x,y,1/2-z
-x,-y,-z
x,y,1/2-z
-x,y,z
x,-y,1/2+z
1/2+x,1/2+y,z
1/2-x,1/2-y,1/2+z
1/2+x,1/2-y,-z
1/2-x,1/2+y,1/2-z
1/2-x,1/2-y,-z
1/2+x,1/2+y,1/2-z
1/2-x,1/2+y,z
1/2+x,1/2-y,1/2+z
loop_
_atom_site_type_symbol
_atom_site_label
_atom_site_fract_x
_atom_site_fract_y
_atom_site_fract_z
Si Si1 0.321957 0.694433 0.836619
Si Si2 0.837310 0.994341 0.335191
Si Si3 0.930489 0.894480 0.163437
Si Si4 0.736617 0.418562 0.575601
Si Si5 0.851450 0.489482 0.420569
Si Si6 0.069891 0.423733 0.663612
Si Si7 0.679227 0.834280 0.663435
Si Si8 0.751340 0.400589 0.408210
O O1 0.312292 0.686114 0.750000
O O2 0.383551 0.658072 0.866349
O O3 0.330683 0.764468 0.857693
O O4 0.259736 0.667943 0.878362
O O5 0.832655 0.013859 0.250000
O O6 0.904327 0.962447 0.353736
O O7 0.784895 0.943288 0.350624
O O8 0.826439 0.054308 0.385609
O O9 0.935656 0.885366 0.250000
O O10 0.000000 0.887520 0.127304
O O11 0.788731 0.470366 0.583328
O O12 0.760349 0.358737 0.618719
O O13 0.722469 0.404952 0.490561
O O14 0.883618 0.500000 0.500000
O O15 0.902568 0.510611 0.360912
O O16 0.825987 0.420070 0.408531
O O17 0.065273 0.425287 0.750000
O O18 0.115985 0.369618 0.637427
O O19 0.000000 0.413283 0.629995
O O20 0.691433 0.844112 0.750000
#
# Coordination Sequence:
#
# PCOD8261311 Si02
#       8
#    16  16  16  16  16  16  16  16
#     4   9  17  27  40  58  78 103 133 160 190 228
#     4   9  15  24  40  59  78 102 129 158 195 233
#     4   8  14  24  38  57  79 101 127 158 188 223
#     4   9  16  26  40  57  79 103 128 159 195 233
#     4   8  15  26  39  56  76 100 126 154 189 231
#     4   9  17  27  39  57  79 102 128 157 189 225
#     4   9  17  28  40  56  79 104 131 161 190 226
#     4   9  16  26  40  58  80 101 128 161 194 232
#
# _framework density 15.1005
#
# number of rings (size 3 to 8) (size 9 to 14) (size 15 to 20)
#    0.000    3.250    0.000    2.625    0.000    4.750 
#    0.000    2.500    0.000    6.000    0.000    0.000 
#    0.000    1.000    0.000    6.250    0.000    0.500 
#
# Total GULP energy -792951.433001 kJ/mol
# GULP energy per Si atom -12389.866141 kJ/mol
# Density = 1.506613 g / cm^3
# Si number density = 15.100500 Si / 1000 Ang^3
#
#
#
# Elastic Constant Matrix: (Units=GPa)
#
#
# Indices 1 2 3 4 5 6 
#
# 1 58.8092 51.3306 17.3785 0.0000 0.0000 0.0000
# 2 51.3306 87.5606 35.6333 0.0000 0.0000 0.0000
# 3 17.3785 35.6333 39.3169 0.0000 0.0000 0.0000
# 4 0.0000 0.0000 0.0000 16.8604 0.0000 0.0000
# 5 0.0000 0.0000 0.0000 0.0000 9.8533 0.0000
# 6 0.0000 0.0000 0.0000 0.0000 0.0000 15.7578
#
#
#
# Elastic Compliance Matrix: (Units=1/GPa)
#
#
# Indices 1 2 3 4 5 6 
#
# 1 0.035435 -0.022813 0.005013 0.000000 0.000000 0.000000
# 2 -0.022813 0.032781 -0.019627 0.000000 0.000000 0.000000
# 3 0.005013 -0.019627 0.041006 0.000000 0.000000 0.000000
# 4 0.000000 0.000000 0.000000 0.059311 0.000000 0.000000
# 5 0.000000 0.000000 0.000000 0.000000 0.101489 0.000000
# 6 0.000000 0.000000 0.000000 0.000000 0.000000 0.063461
#
#
# Mechanical properties :
#
#
# Convention : Reuss Voigt Hill
#
# Bulk Modulus (GPa) = 29.09557 43.81904 36.45730
# Shear Modulus (GPa) = 11.91068 13.91726 12.91397
#
# Velocity S-wave (km/s) = 2.81153 3.03915 2.92756
# Velocity P-wave (km/s) = 5.46346 6.43401 5.96850
#
# Compressibility (1/GPa) = 0.03436950
#
# Stress axis : x y z
#
# Youngs Moduli (GPa) = 28.22101 30.50509 24.38656
#
# Poissons Ratio (x) = 0.69591 -0.12225
# Poissons Ratio (y) = 0.64380 0.47862
# Poissons Ratio (z) = -0.14148 0.59871
#
# Static dielectric constant tensor:
#      x y z
#    x 3.041180 0.000000 0.000000 
#    y 0.000000 2.967040 0.000000 
#    z 0.000000 0.000000 2.915160 
# 
# 
# High freq. dielectric constant tensor:
#      x y z
#    x 1.550160 0.000000 0.000000 
#    y 0.000000 1.560110 0.000000 
#    z 0.000000 0.000000 1.569010 
# 
# From -- ./inp_files/47593.got.cif
#   From: 2010.03.12/outbox.cif.g09.slc.cpg/sg63_24_cif.got.tgz:47593.got - 2010.04.10 19:34:48.
