data_PCOD8261382
_publ_section_title
;
Structure prediction by ZEFSAII (Michael W. Deem and Ramdas Pophale) SiO2 
 PCOD8261382
Probable space group: C M C A
;
_chemical_formula_sum "Si O2"
_cell_formula_units_Z 96
_cell_length_a 13.532014
_cell_length_b 23.120304
_cell_length_c 18.581734
_cell_angle_alpha 90.000000
_cell_angle_beta 90.000000
_cell_angle_gamma 90.000000
_cell_volume 5813.560781
_symmetry_space_group_name_H-M "C M C A"
_symmetry_group_IT_number 64
_symmetry_cell_setting 'orthorhombic'
loop_
_space_group_symop_operation_xyz
x,y,z
-x,1/2-y,1/2+z
x,-y,-z
-x,1/2+y,1/2-z
-x,-y,-z
x,1/2+y,1/2-z
-x,y,z
x,1/2-y,1/2+z
1/2+x,1/2+y,z
1/2-x,-y,1/2+z
1/2+x,1/2-y,-z
1/2-x,y,1/2-z
1/2-x,1/2-y,-z
1/2+x,y,1/2-z
1/2-x,1/2+y,z
1/2+x,-y,1/2+z
loop_
_atom_site_type_symbol
_atom_site_label
_atom_site_fract_x
_atom_site_fract_y
_atom_site_fract_z
Si Si1 0.611341 0.747094 0.923568
Si Si2 0.281269 0.712468 0.168867
Si Si3 0.609258 0.015522 0.583534
Si Si4 0.295909 0.128854 0.555587
Si Si5 0.882783 0.389976 0.600591
Si Si6 0.611911 0.301610 0.423677
O O1 0.500000 0.757646 0.896829
O O2 0.682465 0.789921 0.879687
O O3 0.642699 0.681052 0.908368
O O4 0.622319 0.758946 0.008360
O O5 0.250000 0.723103 0.250000
O O6 0.340464 0.652131 0.161936
O O7 0.352368 0.765148 0.145164
O O8 0.500000 0.035467 0.607684
O O9 0.682782 0.069064 0.598486
O O10 0.608025 0.000000 0.500000
O O11 0.639844 0.956386 0.624939
O O12 0.327048 0.124019 0.473101
O O13 0.179156 0.141721 0.563451
O O14 0.000000 0.380543 0.589430
O O15 0.500000 0.322960 0.412266
#
# Coordination Sequence:
#
# PCOD8261382 Si02
#       6
#    16  16  16  16  16  16
#     4  10  18  30  49  71  97 128 163 203 247 297
#     4  11  21  32  47  71 100 132 165 201 247 302
#     4   8  15  24  43  74  99 121 155 199 241 281
#     4  10  15  28  49  74  97 124 158 203 249 289
#     4  10  17  29  48  71 100 129 160 202 249 290
#     4  10  19  32  51  72  99 132 163 201 251 300
#
# _framework density 16.513116
#
# number of rings (size 3 to 8) (size 9 to 14) (size 15 to 20)
#    0.000    2.167    3.333    4.000    0.000    1.333 
#    0.000    0.000    0.000    9.500    0.000    4.667 
#    0.000    0.000    0.000    0.000    0.000    0.000 
#
# Total GULP energy -595015.505799 kJ/mol
# GULP energy per Si atom -12396.156371 kJ/mol
# Density = 1.647553 g / cm^3
# Si number density = 16.513116 Si / 1000 Ang^3
#
#
#
# Elastic Constant Matrix: (Units=GPa)
#
#
# Indices 1 2 3 4 5 6 
#
# 1 143.0671 69.0753 31.6205 0.0000 0.0000 0.0000
# 2 69.0753 119.4817 23.5103 0.0000 0.0000 0.0000
# 3 31.6205 23.5103 61.3797 0.0000 0.0000 0.0000
# 4 0.0000 0.0000 0.0000 7.6143 0.0000 0.0000
# 5 0.0000 0.0000 0.0000 0.0000 14.3535 0.0000
# 6 0.0000 0.0000 0.0000 0.0000 0.0000 28.3472
#
#
#
# Elastic Compliance Matrix: (Units=1/GPa)
#
#
# Indices 1 2 3 4 5 6 
#
# 1 0.010266 -0.005293 -0.003261 0.000000 0.000000 0.000000
# 2 -0.005293 0.011781 -0.001786 0.000000 0.000000 0.000000
# 3 -0.003261 -0.001786 0.018656 0.000000 0.000000 0.000000
# 4 0.000000 0.000000 0.000000 0.131332 0.000000 0.000000
# 5 0.000000 0.000000 0.000000 0.000000 0.069669 0.000000
# 6 0.000000 0.000000 0.000000 0.000000 0.000000 0.035277
#
#
# Mechanical properties :
#
#
# Convention : Reuss Voigt Hill
#
# Bulk Modulus (GPa) = 49.94277 63.59342 56.76809
# Shear Modulus (GPa) = 16.42918 23.37782 19.90350
#
# Velocity S-wave (km/s) = 3.15765 3.76668 3.47553
# Velocity P-wave (km/s) = 6.60336 7.58364 7.11041
#
# Compressibility (1/GPa) = 0.02002292
#
# Stress axis : x y z
#
# Youngs Moduli (GPa) = 97.40598 84.88161 53.60197
#
# Poissons Ratio (x) = 0.44932 0.17481
# Poissons Ratio (y) = 0.51562 0.09571
# Poissons Ratio (z) = 0.31767 0.15156
#
# Static dielectric constant tensor:
#      x y z
#    x 3.272470 0.000000 0.000000 
#    y 0.000000 3.351150 0.000000 
#    z 0.000000 0.000000 2.667290 
# 
# 
# High freq. dielectric constant tensor:
#      x y z
#    x 1.640670 0.000000 0.000000 
#    y 0.000000 1.632770 0.000000 
#    z 0.000000 0.000000 1.583880 
# 
# From -- ./inp_files/39537.got.cif
#   From: 2010.03.12/outbox.cif.g09.slc.cpg/sg64_20_cif.got.tgz:39537.got - 2010.04.10 20:19:32.
