data_PCOD8261536
_publ_section_title
;
Structure prediction by ZEFSAII (Michael W. Deem and Ramdas Pophale) SiO2 
 PCOD8261536
Probable space group: C M C A
;
_chemical_formula_sum "Si O2"
_cell_formula_units_Z 112
_cell_length_a 22.578354
_cell_length_b 11.180027
_cell_length_c 24.550360
_cell_angle_alpha 90.000000
_cell_angle_beta 90.000000
_cell_angle_gamma 90.000000
_cell_volume 6197.164084
_symmetry_space_group_name_H-M "C M C A"
_symmetry_group_IT_number 64
_symmetry_cell_setting 'orthorhombic'
loop_
_space_group_symop_operation_xyz
x,y,z
-x,1/2-y,1/2+z
x,-y,-z
-x,1/2+y,1/2-z
-x,-y,-z
x,1/2+y,1/2-z
-x,y,z
x,1/2-y,1/2+z
1/2+x,1/2+y,z
1/2-x,-y,1/2+z
1/2+x,1/2-y,-z
1/2-x,y,1/2-z
1/2-x,1/2-y,-z
1/2+x,y,1/2-z
1/2-x,1/2+y,z
1/2+x,-y,1/2+z
loop_
_atom_site_type_symbol
_atom_site_label
_atom_site_fract_x
_atom_site_fract_y
_atom_site_fract_z
Si Si1 0.565754 0.125063 0.029402
Si Si2 0.889760 0.510215 0.129653
Si Si3 0.334919 0.888316 0.299446
Si Si4 0.124741 0.857287 0.828964
Si Si5 0.067081 0.774626 0.420935
Si Si6 0.204872 0.362238 0.180459
Si Si7 0.431442 0.811085 0.783199
O O1 0.500000 0.167891 0.048862
O O2 0.608734 0.111433 0.081933
O O3 0.593715 0.212158 0.982709
O O4 0.557728 0.000000 0.000000
O O5 0.930666 0.397957 0.113529
O O6 0.823750 0.454834 0.136927
O O7 0.915668 0.566627 0.185090
O O8 0.274758 0.847922 0.329976
O O9 0.315315 0.917502 0.238084
O O10 0.387038 0.791350 0.304677
O O11 0.356702 0.006298 0.329209
O O12 0.098128 0.832019 0.888475
O O13 0.181643 0.773116 0.821810
O O14 0.077346 0.832004 0.781123
O O15 0.000000 0.737580 0.428773
O O16 0.500000 0.774678 0.793299
#
# Coordination Sequence:
#
# PCOD8261536 Si02
#       7
#    16  16  16  16  16  16  16
#     4   8  14  26  48  76 103 130 168 216 262 302
#     4  10  17  31  51  80 101 132 168 223 257 292
#     4  10  21  35  50  72 104 140 172 206 250 319
#     4  10  20  34  49  74 101 138 170 209 255 309
#     4   9  17  30  50  77 105 137 172 208 256 310
#     4   9  20  33  53  72  95 135 180 213 251 298
#     4  11  22  32  48  79 111 138 166 208 265 310
#
# _framework density 18.072782
#
# number of rings (size 3 to 8) (size 9 to 14) (size 15 to 20)
#    0.000    2.429    1.429    2.571    2.000    2.286 
#    0.000    0.000    0.000    1.714    7.429    3.000 
#    0.000    0.000    0.000    0.000    0.000    0.000 
#
# Total GULP energy -693898.119540 kJ/mol
# GULP energy per Si atom -12391.037849 kJ/mol
# Density = 1.803165 g / cm^3
# Si number density = 18.072782 Si / 1000 Ang^3
#
#
#
# Elastic Constant Matrix: (Units=GPa)
#
#
# Indices 1 2 3 4 5 6 
#
# 1 116.2501 25.9575 12.4261 0.0000 0.0000 0.0000
# 2 25.9575 50.9073 -1.4039 0.0000 0.0000 0.0000
# 3 12.4261 -1.4039 34.6015 0.0000 0.0000 0.0000
# 4 0.0000 0.0000 0.0000 20.5410 0.0000 0.0000
# 5 0.0000 0.0000 0.0000 0.0000 18.5546 0.0000
# 6 0.0000 0.0000 0.0000 0.0000 0.0000 17.9747
#
#
#
# Elastic Compliance Matrix: (Units=1/GPa)
#
#
# Indices 1 2 3 4 5 6 
#
# 1 0.010202 -0.005309 -0.003879 0.000000 0.000000 0.000000
# 2 -0.005309 0.022428 0.002817 0.000000 0.000000 0.000000
# 3 -0.003879 0.002817 0.030408 0.000000 0.000000 0.000000
# 4 0.000000 0.000000 0.000000 0.048683 0.000000 0.000000
# 5 0.000000 0.000000 0.000000 0.000000 0.053895 0.000000
# 6 0.000000 0.000000 0.000000 0.000000 0.000000 0.055634
#
#
# Mechanical properties :
#
#
# Convention : Reuss Voigt Hill
#
# Bulk Modulus (GPa) = 19.88266 30.63534 25.25900
# Shear Modulus (GPa) = 19.93948 22.39935 21.16942
#
# Velocity S-wave (km/s) = 3.32518 3.52433 3.42620
# Velocity P-wave (km/s) = 5.07620 5.79215 5.44595
#
# Compressibility (1/GPa) = 0.05029509
#
# Stress axis : x y z
#
# Youngs Moduli (GPa) = 98.01738 44.58646 32.88615
#
# Poissons Ratio (x) = 0.23671 0.12757
# Poissons Ratio (y) = 0.52038 -0.09263
# Poissons Ratio (z) = 0.38024 -0.12558
#
# Static dielectric constant tensor:
#      x y z
#    x 3.298030 0.000000 0.000000 
#    y 0.000000 3.071480 0.000000 
#    z 0.000000 0.000000 3.630580 
# 
# 
# High freq. dielectric constant tensor:
#      x y z
#    x 1.686820 0.000000 0.000000 
#    y 0.000000 1.676550 0.000000 
#    z 0.000000 0.000000 1.687110 
# 
# From -- ./inp_files/46701.got.cif
#   From: 2010.03.12/outbox.cif.g09.slc.cpg/sg64_24_cif.got.tgz:46701.got - 2010.04.10 20:19:32.
