data_PCOD8261930
_publ_section_title
;
Structure prediction by ZEFSAII (Michael W. Deem and Ramdas Pophale) SiO2 
 PCOD8261930
Probable space group: C M C A
;
_chemical_formula_sum "Si O2"
_cell_formula_units_Z 72
_cell_length_a 14.973514
_cell_length_b 25.014116
_cell_length_c 9.036844
_cell_angle_alpha 90.000000
_cell_angle_beta 90.000000
_cell_angle_gamma 90.000000
_cell_volume 3384.742836
_symmetry_space_group_name_H-M "C M C A"
_symmetry_group_IT_number 64
_symmetry_cell_setting 'orthorhombic'
loop_
_space_group_symop_operation_xyz
x,y,z
-x,1/2-y,1/2+z
x,-y,-z
-x,1/2+y,1/2-z
-x,-y,-z
x,1/2+y,1/2-z
-x,y,z
x,1/2-y,1/2+z
1/2+x,1/2+y,z
1/2-x,-y,1/2+z
1/2+x,1/2-y,-z
1/2-x,y,1/2-z
1/2-x,1/2-y,-z
1/2+x,y,1/2-z
1/2-x,1/2+y,z
1/2+x,-y,1/2+z
loop_
_atom_site_type_symbol
_atom_site_label
_atom_site_fract_x
_atom_site_fract_y
_atom_site_fract_z
Si Si1 0.500000 0.000745 0.251987
Si Si2 0.643338 0.000000 0.500000
Si Si3 0.670613 0.385012 0.936026
Si Si4 0.141859 0.351895 0.883233
Si Si5 0.500000 0.417933 0.481456
Si Si6 0.500000 0.675026 0.968047
Si Si7 0.000000 0.272280 0.779636
O O1 0.586471 0.006681 0.352236
O O2 0.500000 0.041735 0.118254
O O3 0.500000 0.942227 0.180992
O O4 0.699045 0.944136 0.500628
O O5 0.756602 0.345238 0.943165
O O6 0.640165 0.388316 0.765099
O O7 0.587916 0.362192 0.030806
O O8 0.088303 0.382179 0.010322
O O9 0.091619 0.296334 0.848683
O O10 0.500000 0.709258 0.816357
O O11 0.500000 0.717195 0.104129
#
# Coordination Sequence:
#
# PCOD8261930 Si02
#       7
#     8   8  16  16   8   8   8
#     4  10  20  30  56  78 110 153 197 227 279 323
#     4  11  20  36  54  87 116 160 188 237 272 345
#     4  10  20  36  61  84 117 153 198 225 282 346
#     4   9  19  38  58  83 112 156 191 230 279 358
#     4  10  18  36  52  77 111 151 190 235 271 335
#     4  10  20  39  61  86 109 150 191 244 287 345
#     4   9  20  38  65  82 111 146 193 238 298 334
#
# _framework density 21.271927000000002
#
# number of rings (size 3 to 8) (size 9 to 14) (size 15 to 20)
#    0.000    2.222    2.222    2.000    0.000    2.667 
#    8.000    0.000    0.000    0.000    0.000    0.000 
#    0.000    0.000    0.000    0.000    0.000    0.000 
#
# Total GULP energy -446104.538309 kJ/mol
# GULP energy per Si atom -12391.792731 kJ/mol
# Density = 2.122351 g / cm^3
# Si number density = 21.271927 Si / 1000 Ang^3
#
#
#
# Elastic Constant Matrix: (Units=GPa)
#
#
# Indices 1 2 3 4 5 6 
#
# 1 116.8353 21.6797 2.4226 0.0000 0.0000 0.0000
# 2 21.6797 80.1759 8.5947 0.0000 0.0000 0.0000
# 3 2.4226 8.5947 44.0262 0.0000 0.0000 0.0000
# 4 0.0000 0.0000 0.0000 38.0771 0.0000 0.0000
# 5 0.0000 0.0000 0.0000 0.0000 44.7671 0.0000
# 6 0.0000 0.0000 0.0000 0.0000 0.0000 21.6523
#
#
#
# Elastic Compliance Matrix: (Units=1/GPa)
#
#
# Indices 1 2 3 4 5 6 
#
# 1 0.009011 -0.002434 -0.000021 0.000000 0.000000 0.000000
# 2 -0.002434 0.013397 -0.002481 0.000000 0.000000 0.000000
# 3 -0.000021 -0.002481 0.023199 0.000000 0.000000 0.000000
# 4 0.000000 0.000000 0.000000 0.026263 0.000000 0.000000
# 5 0.000000 0.000000 0.000000 0.000000 0.022338 0.000000
# 6 0.000000 0.000000 0.000000 0.000000 0.000000 0.046184
#
#
# Mechanical properties :
#
#
# Convention : Reuss Voigt Hill
#
# Bulk Modulus (GPa) = 27.98410 34.04793 31.01601
# Shear Modulus (GPa) = 30.83061 34.78866 32.80963
#
# Velocity S-wave (km/s) = 3.81117 4.04843 3.93159
# Velocity P-wave (km/s) = 5.70532 6.15579 5.93483
#
# Compressibility (1/GPa) = 0.03573458
#
# Stress axis : x y z
#
# Youngs Moduli (GPa) = 110.97282 74.64446 43.10473
#
# Poissons Ratio (x) = 0.18172 0.00089
# Poissons Ratio (y) = 0.27016 0.10696
# Poissons Ratio (z) = 0.00229 0.18522
#
# Static dielectric constant tensor:
#      x y z
#    x 3.817940 0.000000 0.000000 
#    y 0.000000 3.702340 0.000000 
#    z 0.000000 0.000000 3.645430 
# 
# 
# High freq. dielectric constant tensor:
#      x y z
#    x 1.827540 0.000000 0.000000 
#    y 0.000000 1.819690 0.000000 
#    z 0.000000 0.000000 1.813850 
# 
# From -- ./inp_files/5905.got.cif
#   From: 2010.03.12/outbox.cif.g09.slc.cpg/sg64_3_cif.got.tgz:5905.got - 2010.04.10 20:19:32.
