data_PCOD8261633
_publ_section_title
;
Structure prediction by ZEFSAII (Michael W. Deem and Ramdas Pophale) SiO2 
 PCOD8261633
Probable space group: C M C A
;
_chemical_formula_sum "Si O2"
_cell_formula_units_Z 96
_cell_length_a 8.594910
_cell_length_b 27.769170
_cell_length_c 23.804075
_cell_angle_alpha 90.000000
_cell_angle_beta 90.000000
_cell_angle_gamma 90.000000
_cell_volume 5681.402297
_symmetry_space_group_name_H-M "C M C A"
_symmetry_group_IT_number 64
_symmetry_cell_setting 'orthorhombic'
loop_
_space_group_symop_operation_xyz
x,y,z
-x,1/2-y,1/2+z
x,-y,-z
-x,1/2+y,1/2-z
-x,-y,-z
x,1/2+y,1/2-z
-x,y,z
x,1/2-y,1/2+z
1/2+x,1/2+y,z
1/2-x,-y,1/2+z
1/2+x,1/2-y,-z
1/2-x,y,1/2-z
1/2-x,1/2-y,-z
1/2+x,y,1/2-z
1/2-x,1/2+y,z
1/2+x,-y,1/2+z
loop_
_atom_site_type_symbol
_atom_site_label
_atom_site_fract_x
_atom_site_fract_y
_atom_site_fract_z
Si Si1 0.316913 0.819041 0.472870
Si Si2 0.180558 0.768042 0.912088
Si Si3 0.684690 0.073399 0.524119
Si Si4 0.315507 0.075286 0.309253
Si Si5 0.815207 0.980918 0.915518
Si Si6 0.182737 0.179447 0.309089
O O1 0.500000 0.814208 0.461190
O O2 0.225755 0.786256 0.428483
O O3 0.277622 0.803398 0.536459
O O4 0.251806 0.873118 0.463967
O O5 0.278986 0.782717 0.857754
O O6 0.000000 0.770760 0.896633
O O7 0.500000 0.076141 0.520504
O O8 0.750053 0.053596 0.464838
O O9 0.737599 0.036270 0.573319
O O10 0.500000 0.076280 0.306963
O O11 0.250000 0.057260 0.250000
O O12 0.251842 0.037905 0.355927
O O13 0.257704 0.128353 0.324884
O O14 0.000000 0.978171 0.916575
O O15 0.250000 0.198722 0.250000
O O16 0.000000 0.172742 0.302725
#
# Coordination Sequence:
#
# PCOD8261633 Si02
#       6
#    16  16  16  16  16  16
#     4   9  17  29  47  70  95 124 157 193 231 273
#     4  10  19  31  47  69  96 123 153 191 234 278
#     4   8  13  24  43  67  91 116 150 189 227 267
#     4  10  18  29  45  67  93 120 149 182 223 268
#     4   8  14  24  42  67  92 117 148 188 228 266
#     4  11  21  33  49  69  93 121 153 188 229 276
#
# _framework density 16.897235999999999
#
# number of rings (size 3 to 8) (size 9 to 14) (size 15 to 20)
#    0.000    2.667    0.000    5.500    0.000    3.333 
#    0.000    0.000    0.000    3.000    0.000    9.333 
#    0.000    0.000    0.000    0.000    0.000    0.000 
#
# Total GULP energy -595061.249930 kJ/mol
# GULP energy per Si atom -12397.109374 kJ/mol
# Density = 1.685878 g / cm^3
# Si number density = 16.897236 Si / 1000 Ang^3
#
#
#
# Elastic Constant Matrix: (Units=GPa)
#
#
# Indices 1 2 3 4 5 6 
#
# 1 50.5447 19.2313 28.8173 0.0000 0.0000 0.0000
# 2 19.2313 133.1832 69.6656 0.0000 0.0000 0.0000
# 3 28.8173 69.6656 121.6935 0.0000 0.0000 0.0000
# 4 0.0000 0.0000 0.0000 28.4505 0.0000 0.0000
# 5 0.0000 0.0000 0.0000 0.0000 20.7436 0.0000
# 6 0.0000 0.0000 0.0000 0.0000 0.0000 16.4460
#
#
#
# Elastic Compliance Matrix: (Units=1/GPa)
#
#
# Indices 1 2 3 4 5 6 
#
# 1 0.022914 -0.000672 -0.005042 0.000000 0.000000 0.000000
# 2 -0.000672 0.010738 -0.005988 0.000000 0.000000 0.000000
# 3 -0.005042 -0.005988 0.012839 0.000000 0.000000 0.000000
# 4 0.000000 0.000000 0.000000 0.035149 0.000000 0.000000
# 5 0.000000 0.000000 0.000000 0.000000 0.048208 0.000000
# 6 0.000000 0.000000 0.000000 0.000000 0.000000 0.060805
#
#
# Mechanical properties :
#
#
# Convention : Reuss Voigt Hill
#
# Bulk Modulus (GPa) = 43.31109 60.09444 51.70277
# Shear Modulus (GPa) = 22.54780 25.64185 24.09482
#
# Velocity S-wave (km/s) = 3.65692 3.89976 3.78029
# Velocity P-wave (km/s) = 6.59685 7.47792 7.05116
#
# Compressibility (1/GPa) = 0.02308877
#
# Stress axis : x y z
#
# Youngs Moduli (GPa) = 43.64061 93.13084 77.88681
#
# Poissons Ratio (x) = 0.06254 0.39269
# Poissons Ratio (y) = 0.02931 0.46638
# Poissons Ratio (z) = 0.22003 0.55766
#
# Static dielectric constant tensor:
#      x y z
#    x 2.926410 0.000000 0.000000 
#    y 0.000000 3.312950 0.000000 
#    z 0.000000 0.000000 3.241240 
# 
# 
# High freq. dielectric constant tensor:
#      x y z
#    x 1.632150 0.000000 0.000000 
#    y 0.000000 1.644730 0.000000 
#    z 0.000000 0.000000 1.643510 
# 
# From -- ./inp_files/43159.got.cif
#   From: 2010.03.12/outbox.cif.g09.slc.cpg/sg64_22_cif.got.tgz:43159.got - 2010.04.10 20:19:32.
