data_PCOD8261751
_publ_section_title
;
Structure prediction by ZEFSAII (Michael W. Deem and Ramdas Pophale) SiO2 
 PCOD8261751
Probable space group: C M C A
;
_chemical_formula_sum "Si O2"
_cell_formula_units_Z 128
_cell_length_a 22.450535
_cell_length_b 18.342994
_cell_length_c 18.271110
_cell_angle_alpha 90.000000
_cell_angle_beta 90.000000
_cell_angle_gamma 90.000000
_cell_volume 7524.226335
_symmetry_space_group_name_H-M "C M C A"
_symmetry_group_IT_number 64
_symmetry_cell_setting 'orthorhombic'
loop_
_space_group_symop_operation_xyz
x,y,z
-x,1/2-y,1/2+z
x,-y,-z
-x,1/2+y,1/2-z
-x,-y,-z
x,1/2+y,1/2-z
-x,y,z
x,1/2-y,1/2+z
1/2+x,1/2+y,z
1/2-x,-y,1/2+z
1/2+x,1/2-y,-z
1/2-x,y,1/2-z
1/2-x,1/2-y,-z
1/2+x,y,1/2-z
1/2-x,1/2+y,z
1/2+x,-y,1/2+z
loop_
_atom_site_type_symbol
_atom_site_label
_atom_site_fract_x
_atom_site_fract_y
_atom_site_fract_z
Si Si1 0.932502 0.832650 0.544210
Si Si2 0.823811 0.824748 0.304967
Si Si3 0.332788 0.724619 0.951977
Si Si4 0.933389 0.116595 0.619610
Si Si5 0.134403 0.523872 0.081107
Si Si6 0.281972 0.698710 0.106305
Si Si7 0.708956 0.889082 0.349284
Si Si8 0.255359 0.045953 0.334844
O O1 0.897812 0.758004 0.563596
O O2 0.931487 0.843330 0.457668
O O3 0.899542 0.899565 0.582850
O O4 0.000000 0.826215 0.573628
O O5 0.892087 0.839550 0.324247
O O6 0.806644 0.740711 0.321818
O O7 0.780159 0.873864 0.356483
O O8 0.814240 0.844746 0.220906
O O9 0.285150 0.778208 0.913746
O O10 0.326634 0.643170 0.918494
O O11 0.324289 0.718931 0.038688
O O12 0.000000 0.116843 0.651822
O O13 0.912464 0.033560 0.612786
O O14 0.190969 0.527834 0.133319
O O15 0.155537 0.500000 0.000000
O O16 0.284742 0.612849 0.122006
O O17 0.700619 0.976050 0.343907
O O18 0.250000 0.066053 0.250000
#
# Coordination Sequence:
#
# PCOD8261751 Si02
#       8
#    16  16  16  16  16  16  16  16
#     4  10  19  33  52  79 109 143 184 225 271 325
#     4  10  18  36  49  78 106 142 176 229 260 327
#     4  10  20  35  51  81 103 147 175 227 269 318
#     4  10  18  31  53  76 109 148 183 220 273 330
#     4  10  20  31  50  79 116 145 181 224 272 334
#     4  10  22  31  55  75 111 141 182 216 277 322
#     4  10  21  33  55  73 115 143 179 223 280 315
#     4  12  22  34  52  84 109 152 180 223 279 337
#
# _framework density 17.011716
#
# number of rings (size 3 to 8) (size 9 to 14) (size 15 to 20)
#    0.000    1.750    5.000    0.375    5.250    1.500 
#    0.000    0.625    0.000    0.000    0.000    7.000 
#    0.000    0.000    0.000    0.000    0.000    0.000 
#
# Total GULP energy -793549.253665 kJ/mol
# GULP energy per Si atom -12399.207089 kJ/mol
# Density = 1.697300 g / cm^3
# Si number density = 17.011716 Si / 1000 Ang^3
#
#
#
# Elastic Constant Matrix: (Units=GPa)
#
#
# Indices 1 2 3 4 5 6 
#
# 1 102.8225 37.4389 39.1666 0.0000 0.0000 0.0000
# 2 37.4389 110.6870 34.2907 0.0000 0.0000 0.0000
# 3 39.1666 34.2907 59.1036 0.0000 0.0000 0.0000
# 4 0.0000 0.0000 0.0000 22.7361 0.0000 0.0000
# 5 0.0000 0.0000 0.0000 0.0000 18.9698 0.0000
# 6 0.0000 0.0000 0.0000 0.0000 0.0000 19.9691
#
#
#
# Elastic Compliance Matrix: (Units=1/GPa)
#
#
# Indices 1 2 3 4 5 6 
#
# 1 0.013426 -0.002176 -0.007635 0.000000 0.000000 0.000000
# 2 -0.002176 0.011367 -0.005153 0.000000 0.000000 0.000000
# 3 -0.007635 -0.005153 0.024968 0.000000 0.000000 0.000000
# 4 0.000000 0.000000 0.000000 0.043983 0.000000 0.000000
# 5 0.000000 0.000000 0.000000 0.000000 0.052715 0.000000
# 6 0.000000 0.000000 0.000000 0.000000 0.000000 0.050077
#
#
# Mechanical properties :
#
#
# Convention : Reuss Voigt Hill
#
# Bulk Modulus (GPa) = 50.41791 54.93393 52.67592
# Shear Modulus (GPa) = 21.45232 23.11613 22.28422
#
# Velocity S-wave (km/s) = 3.55495 3.69024 3.62323
# Velocity P-wave (km/s) = 6.82289 7.10768 6.96674
#
# Compressibility (1/GPa) = 0.01983422
#
# Stress axis : x y z
#
# Youngs Moduli (GPa) = 74.48267 87.97527 40.05084
#
# Poissons Ratio (x) = 0.19144 0.30577
# Poissons Ratio (y) = 0.16208 0.20637
# Poissons Ratio (z) = 0.56864 0.45332
#
# Static dielectric constant tensor:
#      x y z
#    x 3.105080 0.000000 0.000000 
#    y 0.000000 3.214710 0.000000 
#    z 0.000000 0.000000 3.039110 
# 
# 
# High freq. dielectric constant tensor:
#      x y z
#    x 1.631430 0.000000 0.000000 
#    y 0.000000 1.658230 0.000000 
#    z 0.000000 0.000000 1.643910 
# 
# From -- ./inp_files/35162.got.cif
#   From: 2010.03.12/outbox.cif.g09.slc.cpg/sg64_18_cif.got.tgz:35162.got - 2010.04.10 20:19:32.
