data_PCOD8261110
_publ_section_title
;
Structure prediction by ZEFSAII (Michael W. Deem and Ramdas Pophale) SiO2 
 PCOD8261110
Probable space group: C M C M
;
_chemical_formula_sum "Si O2"
_cell_formula_units_Z 64
_cell_length_a 35.479429
_cell_length_b 9.638368
_cell_length_c 9.931693
_cell_angle_alpha 90.000000
_cell_angle_beta 90.000000
_cell_angle_gamma 90.000000
_cell_volume 3396.279411
_symmetry_space_group_name_H-M "C M C M"
_symmetry_group_IT_number 63
_symmetry_cell_setting 'orthorhombic'
loop_
_space_group_symop_operation_xyz
x,y,z
-x,-y,1/2+z
x,-y,-z
-x,y,1/2-z
-x,-y,-z
x,y,1/2-z
-x,y,z
x,-y,1/2+z
1/2+x,1/2+y,z
1/2-x,1/2-y,1/2+z
1/2+x,1/2-y,-z
1/2-x,1/2+y,1/2-z
1/2-x,1/2-y,-z
1/2+x,1/2+y,1/2-z
1/2-x,1/2+y,z
1/2+x,1/2-y,1/2+z
loop_
_atom_site_type_symbol
_atom_site_label
_atom_site_fract_x
_atom_site_fract_y
_atom_site_fract_z
Si Si1 0.162738 0.500000 0.000000
Si Si2 0.617817 0.256540 0.597131
Si Si3 0.958100 0.370177 0.404421
Si Si4 0.785077 0.932572 0.250000
Si Si5 0.709608 0.106477 0.250000
Si Si6 0.664664 0.500000 0.500000
O O1 0.136513 0.607364 0.922107
O O2 0.187191 0.421587 0.887534
O O3 0.623457 0.305859 0.750000
O O4 0.573254 0.246063 0.561500
O O5 0.637477 0.367162 0.501059
O O6 0.951553 0.500000 0.500000
O O7 0.952927 0.420422 0.250000
O O8 0.000000 0.306878 0.426818
O O9 0.778304 0.767484 0.250000
O O10 0.744875 0.004917 0.250000
O O11 0.808103 0.987858 0.124796
#
# Coordination Sequence:
#
# PCOD8261110 Si02
#       6
#     8  16  16   8   8   8
#     4  12  23  40  63  90 118 156 202 244 299 362
#     4  11  22  39  64  92 121 161 202 251 295 355
#     4   9  18  34  58  91 127 160 196 243 298 353
#     4  12  28  44  64  88 121 156 200 251 314 369
#     4  12  28  42  62  90 119 156 198 251 306 373
#     4  12  25  44  63  88 120 162 204 252 301 360
#
# _framework density 18.844151
#
# number of rings (size 3 to 8) (size 9 to 14) (size 15 to 20)
#    0.000    1.000    6.250    0.750    3.500    2.000 
#    2.250    0.625    0.000    0.000    0.000    0.000 
#    0.000    0.000    0.000    0.000    0.000    0.000 
#
# Total GULP energy -396817.730097 kJ/mol
# GULP energy per Si atom -12400.554066 kJ/mol
# Density = 1.880126 g / cm^3
# Si number density = 18.844151 Si / 1000 Ang^3
#
#
#
# Elastic Constant Matrix: (Units=GPa)
#
#
# Indices 1 2 3 4 5 6 
#
# 1 123.8176 35.3753 33.0656 0.0000 0.0000 0.0000
# 2 35.3753 80.8508 3.2873 0.0000 0.0000 0.0000
# 3 33.0656 3.2873 81.0633 0.0000 0.0000 0.0000
# 4 0.0000 0.0000 0.0000 22.7983 0.0000 0.0000
# 5 0.0000 0.0000 0.0000 0.0000 16.4556 0.0000
# 6 0.0000 0.0000 0.0000 0.0000 0.0000 19.0812
#
#
#
# Elastic Compliance Matrix: (Units=1/GPa)
#
#
# Indices 1 2 3 4 5 6 
#
# 1 0.010419 -0.004393 -0.004072 0.000000 0.000000 0.000000
# 2 -0.004393 0.014241 0.001214 0.000000 0.000000 0.000000
# 3 -0.004072 0.001214 0.013948 0.000000 0.000000 0.000000
# 4 0.000000 0.000000 0.000000 0.043863 0.000000 0.000000
# 5 0.000000 0.000000 0.000000 0.000000 0.060769 0.000000
# 6 0.000000 0.000000 0.000000 0.000000 0.000000 0.052408
#
#
# Mechanical properties :
#
#
# Convention : Reuss Voigt Hill
#
# Bulk Modulus (GPa) = 41.48175 47.68757 44.58466
# Shear Modulus (GPa) = 22.91644 25.93394 24.42519
#
# Velocity S-wave (km/s) = 3.49105 3.71379 3.60414
# Velocity P-wave (km/s) = 6.18957 6.61444 6.40553
#
# Compressibility (1/GPa) = 0.02410699
#
# Stress axis : x y z
#
# Youngs Moduli (GPa) = 95.97973 70.21869 71.69680
#
# Poissons Ratio (x) = 0.30848 0.29193
# Poissons Ratio (y) = 0.42165 -0.08707
# Poissons Ratio (z) = 0.39080 -0.08527
#
# Static dielectric constant tensor:
#      x y z
#    x 3.757660 0.000000 0.000000 
#    y 0.000000 3.290050 0.000000 
#    z 0.000000 0.000000 3.258850 
# 
# 
# High freq. dielectric constant tensor:
#      x y z
#    x 1.751770 0.000000 0.000000 
#    y 0.000000 1.714210 0.000000 
#    z 0.000000 0.000000 1.744590 
# 
# From -- ./inp_files/25540.got.cif
#   From: 2010.03.12/outbox.cif.g09.slc.cpg/sg63_13_cif.got.tgz:25540.got - 2010.04.10 19:34:48.
