data_PCOD8261452
_publ_section_title
;
Structure prediction by ZEFSAII (Michael W. Deem and Ramdas Pophale) SiO2 
 PCOD8261452
Probable space group: C M C A
;
_chemical_formula_sum "Si O2"
_cell_formula_units_Z 64
_cell_length_a 16.941496
_cell_length_b 34.294660
_cell_length_c 5.256113
_cell_angle_alpha 90.000000
_cell_angle_beta 90.000000
_cell_angle_gamma 90.000000
_cell_volume 3053.816608
_symmetry_space_group_name_H-M "C M C A"
_symmetry_group_IT_number 64
_symmetry_cell_setting 'orthorhombic'
loop_
_space_group_symop_operation_xyz
x,y,z
-x,1/2-y,1/2+z
x,-y,-z
-x,1/2+y,1/2-z
-x,-y,-z
x,1/2+y,1/2-z
-x,y,z
x,1/2-y,1/2+z
1/2+x,1/2+y,z
1/2-x,-y,1/2+z
1/2+x,1/2-y,-z
1/2-x,y,1/2-z
1/2-x,1/2-y,-z
1/2+x,y,1/2-z
1/2-x,1/2+y,z
1/2+x,-y,1/2+z
loop_
_atom_site_type_symbol
_atom_site_label
_atom_site_fract_x
_atom_site_fract_y
_atom_site_fract_z
Si Si1 0.339543 0.646103 0.228327
Si Si2 0.842479 0.891735 0.267452
Si Si3 0.409111 0.024221 0.745454
Si Si4 0.661763 0.265161 0.933372
O O1 0.250000 0.631420 0.250000
O O2 0.380257 0.631620 0.491362
O O3 0.342183 0.692096 0.184123
O O4 0.382237 0.625024 0.990410
O O5 0.750000 0.882639 0.250000
O O6 0.857196 0.937515 0.282573
O O7 0.500000 0.036146 0.705879
O O8 0.378956 0.000000 0.500000
O O9 0.396607 0.000000 0.000000
O O10 0.620204 0.238418 0.711584
O O11 0.750000 0.250000 0.000000
#
# Coordination Sequence:
#
# PCOD8261452 Si02
#       4
#    16  16  16  16
#     4  10  18  29  43  68 107 139 163 199 257 297
#     4  10  21  32  49  75 106 136 158 209 256 312
#     4  10  21  38  58  76  97 129 173 215 250 301
#     4  10  17  24  41  63  95 143 169 202 235 298
#
# _framework density 20.957383
#
# number of rings (size 3 to 8) (size 9 to 14) (size 15 to 20)
#    0.000    2.000    2.500    3.000    7.000    1.000 
#    0.000    0.000    0.000    0.000    0.000    0.000 
#    0.000   20.000    0.000    0.000    0.000    0.000 
#
# Total GULP energy -396431.681457 kJ/mol
# GULP energy per Si atom -12388.490046 kJ/mol
# Density = 2.090968 g / cm^3
# Si number density = 20.957383 Si / 1000 Ang^3
#
#
#
# Elastic Constant Matrix: (Units=GPa)
#
#
# Indices 1 2 3 4 5 6 
#
# 1 5.8458 5.9952 12.2205 0.0000 0.0000 0.0000
# 2 5.9952 141.3095 87.6107 0.0000 0.0000 0.0000
# 3 12.2205 87.6107 255.3926 0.0000 0.0000 0.0000
# 4 0.0000 0.0000 0.0000 48.0304 0.0000 0.0000
# 5 0.0000 0.0000 0.0000 0.0000 -1.6805 0.0000
# 6 0.0000 0.0000 0.0000 0.0000 0.0000 -1.0408
#
#
#
# Elastic Compliance Matrix: (Units=1/GPa)
#
#
# Indices 1 2 3 4 5 6 
#
# 1 0.191136 -0.003098 -0.008083 0.000000 0.000000 0.000000
# 2 -0.003098 0.009039 -0.002952 0.000000 0.000000 0.000000
# 3 -0.008083 -0.002952 0.005315 0.000000 0.000000 0.000000
# 4 0.000000 0.000000 0.000000 0.020820 0.000000 0.000000
# 5 0.000000 0.000000 0.000000 0.000000 -0.595048 0.000000
# 6 0.000000 0.000000 0.000000 0.000000 0.000000 -0.960799
#
#
# Mechanical properties :
#
#
# Convention : Reuss Voigt Hill
#
# Bulk Modulus (GPa) = 5.64260 68.24452 36.94356
# Shear Modulus (GPa) = -4.02513 28.84325 12.40906
#
# Velocity S-wave (km/s) = -1.38737 3.71385 2.43597
# Velocity P-wave (km/s) = 0.36313 7.14314 5.05748
#
# Compressibility (1/GPa) = 0.17722333
#
# Stress axis : x y z
#
# Youngs Moduli (GPa) = 5.23187 110.63733 188.14262
#
# Poissons Ratio (x) = 0.34271 1.52080
# Poissons Ratio (y) = 0.01621 0.55547
# Poissons Ratio (z) = 0.04229 0.32664
#
# Static dielectric constant tensor:
#      x y z
#    x 3.063940 0.000000 0.000000 
#    y 0.000000 3.709880 0.000000 
#    z 0.000000 0.000000 7.676810 
# 
# 
# High freq. dielectric constant tensor:
#      x y z
#    x 1.730950 0.000000 0.000000 
#    y 0.000000 1.825710 0.000000 
#    z 0.000000 0.000000 1.868970 
# 
# From -- ./inp_files/1334.got.cif
#   From: 2010.03.12/outbox.cif.g09.slc.cpg/sg64_1_cif.got.tgz:1334.got - 2010.04.10 20:19:32.
