data_PCOD8261208
_publ_section_title
;
Structure prediction by ZEFSAII (Michael W. Deem and Ramdas Pophale) SiO2 
 PCOD8261208
Probable space group: C M C M
;
_chemical_formula_sum "Si O2"
_cell_formula_units_Z 72
_cell_length_a 27.016119
_cell_length_b 14.569027
_cell_length_c 8.581612
_cell_angle_alpha 90.000000
_cell_angle_beta 90.000000
_cell_angle_gamma 90.000000
_cell_volume 3377.710187
_symmetry_space_group_name_H-M "C M C M"
_symmetry_group_IT_number 63
_symmetry_cell_setting 'orthorhombic'
loop_
_space_group_symop_operation_xyz
x,y,z
-x,-y,1/2+z
x,-y,-z
-x,y,1/2-z
-x,-y,-z
x,y,1/2-z
-x,y,z
x,-y,1/2+z
1/2+x,1/2+y,z
1/2-x,1/2-y,1/2+z
1/2+x,1/2-y,-z
1/2-x,1/2+y,1/2-z
1/2-x,1/2-y,-z
1/2+x,1/2+y,1/2-z
1/2-x,1/2+y,z
1/2+x,1/2-y,1/2+z
loop_
_atom_site_type_symbol
_atom_site_label
_atom_site_fract_x
_atom_site_fract_y
_atom_site_fract_z
Si Si1 0.167414 0.091286 0.933703
Si Si2 0.410806 0.285119 0.569850
Si Si3 0.500000 0.397850 0.431170
Si Si4 0.868534 0.595184 0.932104
Si Si5 0.236148 0.651525 0.065252
O O1 0.161498 0.098755 0.750000
O O2 0.142609 0.179154 0.014431
O O3 0.224345 0.083594 0.986438
O O4 0.140314 0.000000 0.000000
O O5 0.419648 0.306955 0.750000
O O6 0.452639 0.337391 0.474697
O O7 0.409478 0.175219 0.539482
O O8 0.500000 0.500000 0.500000
O O9 0.500000 0.413687 0.250000
O O10 0.856792 0.585517 0.750000
O O11 0.890384 0.500000 0.000000
O O12 0.818173 0.618619 0.020709
O O13 0.241764 0.650759 0.250000
O O14 0.250000 0.750000 0.000000
#
# Coordination Sequence:
#
# PCOD8261208 Si02
#       5
#    16  16   8  16  16
#     4  12  24  39  61  90 127 169 214 263 318 381
#     4  11  24  44  68  95 129 166 212 265 322 384
#     4  12  26  46  73 102 133 166 207 258 324 392
#     4  11  24  42  66  94 130 173 219 268 321 380
#     4  12  23  38  60  89 128 171 219 267 319 378
#
# _framework density 21.316215
#
# number of rings (size 3 to 8) (size 9 to 14) (size 15 to 20)
#    0.000    0.444    2.222    7.667    0.000    2.667 
#    0.000    0.556    0.000    0.000    0.000    0.000 
#    0.000    0.000    0.000    0.000    0.000    0.000 
#
# Total GULP energy -446449.753419 kJ/mol
# GULP energy per Si atom -12401.382039 kJ/mol
# Density = 2.126770 g / cm^3
# Si number density = 21.316215 Si / 1000 Ang^3
#
#
#
# Elastic Constant Matrix: (Units=GPa)
#
#
# Indices 1 2 3 4 5 6 
#
# 1 83.0582 39.7073 25.7772 0.0000 0.0000 0.0000
# 2 39.7073 161.0864 62.0515 0.0000 0.0000 0.0000
# 3 25.7772 62.0515 125.5717 0.0000 0.0000 0.0000
# 4 0.0000 0.0000 0.0000 39.4829 0.0000 0.0000
# 5 0.0000 0.0000 0.0000 0.0000 35.1848 0.0000
# 6 0.0000 0.0000 0.0000 0.0000 0.0000 35.0956
#
#
#
# Elastic Compliance Matrix: (Units=1/GPa)
#
#
# Indices 1 2 3 4 5 6 
#
# 1 0.013852 -0.002864 -0.001428 0.000000 0.000000 0.000000
# 2 -0.002864 0.008260 -0.003494 0.000000 0.000000 0.000000
# 3 -0.001428 -0.003494 0.009983 0.000000 0.000000 0.000000
# 4 0.000000 0.000000 0.000000 0.025327 0.000000 0.000000
# 5 0.000000 0.000000 0.000000 0.000000 0.028421 0.000000
# 6 0.000000 0.000000 0.000000 0.000000 0.000000 0.028494
#
#
# Mechanical properties :
#
#
# Convention : Reuss Voigt Hill
#
# Bulk Modulus (GPa) = 60.52198 69.42091 64.97145
# Shear Modulus (GPa) = 36.92291 38.09801 37.51046
#
# Velocity S-wave (km/s) = 4.16643 4.23221 4.19945
# Velocity P-wave (km/s) = 7.18329 7.51798 7.35254
#
# Compressibility (1/GPa) = 0.01652292
#
# Stress axis : x y z
#
# Youngs Moduli (GPa) = 72.18987 121.07052 100.16954
#
# Poissons Ratio (x) = 0.34680 0.14305
# Poissons Ratio (y) = 0.20678 0.34994
# Poissons Ratio (z) = 0.10310 0.42296
#
# Static dielectric constant tensor:
#      x y z
#    x 3.736620 0.000000 0.000000 
#    y 0.000000 4.274540 0.000000 
#    z 0.000000 0.000000 3.912200 
# 
# 
# High freq. dielectric constant tensor:
#      x y z
#    x 1.812630 0.000000 0.000000 
#    y 0.000000 1.860530 0.000000 
#    z 0.000000 0.000000 1.852800 
# 
# From -- ./inp_files/11729.got.cif
#   From: 2010.03.12/outbox.cif.g09.slc.cpg/sg63_6_cif.got.tgz:11729.got - 2010.04.10 19:34:48.
