data_PCOD8261062
_publ_section_title
;
Structure prediction by ZEFSAII (Michael W. Deem and Ramdas Pophale) SiO2 
 PCOD8261062
Probable space group: C M C M
;
_chemical_formula_sum "Si O2"
_cell_formula_units_Z 96
_cell_length_a 11.721106
_cell_length_b 27.530770
_cell_length_c 17.118272
_cell_angle_alpha 90.000000
_cell_angle_beta 90.000000
_cell_angle_gamma 90.000000
_cell_volume 5523.913567
_symmetry_space_group_name_H-M "C M C M"
_symmetry_group_IT_number 63
_symmetry_cell_setting 'orthorhombic'
loop_
_space_group_symop_operation_xyz
x,y,z
-x,-y,1/2+z
x,-y,-z
-x,y,1/2-z
-x,-y,-z
x,y,1/2-z
-x,y,z
x,-y,1/2+z
1/2+x,1/2+y,z
1/2-x,1/2-y,1/2+z
1/2+x,1/2-y,-z
1/2-x,1/2+y,1/2-z
1/2-x,1/2-y,-z
1/2+x,1/2+y,1/2-z
1/2-x,1/2+y,z
1/2+x,1/2-y,1/2+z
loop_
_atom_site_type_symbol
_atom_site_label
_atom_site_fract_x
_atom_site_fract_y
_atom_site_fract_z
Si Si1 0.632270 0.289678 0.341486
Si Si2 0.000000 0.208753 0.338446
Si Si3 0.129094 0.392639 0.664778
Si Si4 0.717463 0.852135 0.435548
Si Si5 0.365976 0.945206 0.989015
Si Si6 0.000000 0.322937 0.337567
Si Si7 0.244457 0.194316 0.100664
O O1 0.658623 0.293959 0.250000
O O2 0.500000 0.279754 0.357849
O O3 0.670219 0.339831 0.384109
O O4 0.707889 0.247190 0.378698
O O5 0.108705 0.191637 0.388438
O O6 0.000000 0.186731 0.250000
O O7 0.000000 0.265822 0.330864
O O8 0.146719 0.416580 0.750000
O O9 0.160313 0.433005 0.601084
O O10 0.204164 0.344464 0.660378
O O11 0.000000 0.374865 0.652118
O O12 0.709767 0.909226 0.457349
O O13 0.609474 0.839938 0.383844
O O14 0.718118 0.819159 0.513198
O O15 0.500000 0.939395 0.009824
O O16 0.323532 0.000000 0.000000
O O17 0.000000 0.345470 0.250000
#
# Coordination Sequence:
#
# PCOD8261062 Si02
#       7
#    16   8  16  16  16   8  16
#     4  11  23  36  52  76 110 146 182 221 257 310
#     4  11  22  34  50  75 112 148 180 225 268 310
#     4   9  17  31  51  75 105 137 172 212 264 321
#     4  11  22  35  56  78 107 142 181 220 271 327
#     4   9  18  34  55  79 106 132 167 221 273 321
#     4  11  22  36  53  77 113 148 181 219 272 324
#     4  11  22  32  53  77 108 145 183 220 265 316
#
# _framework density 17.378983000000002
#
# number of rings (size 3 to 8) (size 9 to 14) (size 15 to 20)
#    0.000    1.667    2.500    3.000    3.500    1.333 
#    0.000    1.667    0.000    0.500    0.000    0.000 
#    0.000    0.000    0.000    0.000    0.000    0.000 
#
# Total GULP energy -595133.730134 kJ/mol
# GULP energy per Si atom -12398.619378 kJ/mol
# Density = 1.733943 g / cm^3
# Si number density = 17.378983 Si / 1000 Ang^3
#
#
#
# Elastic Constant Matrix: (Units=GPa)
#
#
# Indices 1 2 3 4 5 6 
#
# 1 92.0600 42.2916 49.6165 0.0000 0.0000 0.0000
# 2 42.2916 110.6181 51.1186 0.0000 0.0000 0.0000
# 3 49.6165 51.1186 120.5472 0.0000 0.0000 0.0000
# 4 0.0000 0.0000 0.0000 13.6282 0.0000 0.0000
# 5 0.0000 0.0000 0.0000 0.0000 32.8521 0.0000
# 6 0.0000 0.0000 0.0000 0.0000 0.0000 21.8627
#
#
#
# Elastic Compliance Matrix: (Units=1/GPa)
#
#
# Indices 1 2 3 4 5 6 
#
# 1 0.015024 -0.003590 -0.004662 0.000000 0.000000 0.000000
# 2 -0.003590 0.012101 -0.003654 0.000000 0.000000 0.000000
# 3 -0.004662 -0.003654 0.011764 0.000000 0.000000 0.000000
# 4 0.000000 0.000000 0.000000 0.073377 0.000000 0.000000
# 5 0.000000 0.000000 0.000000 0.000000 0.030439 0.000000
# 6 0.000000 0.000000 0.000000 0.000000 0.000000 0.045740
#
#
# Mechanical properties :
#
#
# Convention : Reuss Voigt Hill
#
# Bulk Modulus (GPa) = 66.32120 67.69764 67.00942
# Shear Modulus (GPa) = 23.01154 25.68183 24.34668
#
# Velocity S-wave (km/s) = 3.64277 3.84832 3.74696
# Velocity P-wave (km/s) = 7.47914 7.66710 7.57371
#
# Compressibility (1/GPa) = 0.01507813
#
# Stress axis : x y z
#
# Youngs Moduli (GPa) = 66.56027 82.63679 85.00769
#
# Poissons Ratio (x) = 0.29665 0.39626
# Poissons Ratio (y) = 0.23894 0.31062
# Poissons Ratio (z) = 0.31027 0.30195
#
# Static dielectric constant tensor:
#      x y z
#    x 3.406760 0.000000 0.000000 
#    y 0.000000 3.086030 0.000000 
#    z 0.000000 0.000000 3.550550 
# 
# 
# High freq. dielectric constant tensor:
#      x y z
#    x 1.662730 0.000000 0.000000 
#    y 0.000000 1.640440 0.000000 
#    z 0.000000 0.000000 1.690970 
# 
# From -- ./inp_files/42741.got.cif
#   From: 2010.03.12/outbox.cif.g09.slc.cpg/sg63_22_cif.got.tgz:42741.got - 2010.04.10 19:34:48.
