data_PCOD8261855
_publ_section_title
;
Structure prediction by ZEFSAII (Michael W. Deem and Ramdas Pophale) SiO2 
 PCOD8261855
Probable space group: C M C A
;
_chemical_formula_sum "Si O2"
_cell_formula_units_Z 112
_cell_length_a 16.525674
_cell_length_b 25.832558
_cell_length_c 13.982429
_cell_angle_alpha 90.000000
_cell_angle_beta 90.000000
_cell_angle_gamma 90.000000
_cell_volume 5969.104982
_symmetry_space_group_name_H-M "C M C A"
_symmetry_group_IT_number 64
_symmetry_cell_setting 'orthorhombic'
loop_
_space_group_symop_operation_xyz
x,y,z
-x,1/2-y,1/2+z
x,-y,-z
-x,1/2+y,1/2-z
-x,-y,-z
x,1/2+y,1/2-z
-x,y,z
x,1/2-y,1/2+z
1/2+x,1/2+y,z
1/2-x,-y,1/2+z
1/2+x,1/2-y,-z
1/2-x,y,1/2-z
1/2-x,1/2-y,-z
1/2+x,y,1/2-z
1/2-x,1/2+y,z
1/2+x,-y,1/2+z
loop_
_atom_site_type_symbol
_atom_site_label
_atom_site_fract_x
_atom_site_fract_y
_atom_site_fract_z
Si Si1 0.797202 0.073319 0.043005
Si Si2 0.093293 0.985507 0.822710
Si Si3 0.406231 0.305827 0.136876
Si Si4 0.590974 0.667646 0.073323
Si Si5 0.671701 0.093467 0.185758
Si Si6 0.092689 0.799451 0.720664
Si Si7 0.322709 0.587776 0.823669
O O1 0.848286 0.025213 0.085879
O O2 0.845646 0.122058 0.085381
O O3 0.704549 0.073849 0.082381
O O4 0.790920 0.074347 0.929496
O O5 0.109622 0.947477 0.732540
O O6 0.000000 0.980047 0.853319
O O7 0.111353 0.044804 0.792474
O O8 0.500000 0.311439 0.164581
O O9 0.367942 0.253401 0.180385
O O10 0.361531 0.355525 0.179907
O O11 0.393396 0.300483 0.023053
O O12 0.500000 0.643722 0.071827
O O13 0.602026 0.704371 0.164740
O O14 0.750000 0.097052 0.250000
O O15 0.633472 0.150141 0.174732
O O16 0.000000 0.801988 0.688378
O O17 0.250000 0.585252 0.750000
#
# Coordination Sequence:
#
# PCOD8261855 Si02
#       7
#    16  16  16  16  16  16  16
#     4  10  20  35  56  85 111 144 178 227 280 328
#     4  11  21  35  61  89 109 138 182 233 281 325
#     4   9  20  36  54  79 109 146 186 230 274 320
#     4   9  16  31  54  81 108 135 183 234 269 312
#     4  10  19  33  55  86 114 136 175 230 281 329
#     4  10  18  33  56  78 111 147 182 228 276 323
#     4  11  23  39  54  79 116 151 185 224 275 335
#
# _framework density 18.763282
#
# number of rings (size 3 to 8) (size 9 to 14) (size 15 to 20)
#    0.000    2.000    2.857    3.000    0.000    2.857 
#    2.571    1.429    0.000    3.429    0.000    0.000 
#    0.000    0.000    0.000    0.000    0.000    0.000 
#
# Total GULP energy -694187.219734 kJ/mol
# GULP energy per Si atom -12396.200352 kJ/mol
# Density = 1.872058 g / cm^3
# Si number density = 18.763282 Si / 1000 Ang^3
#
#
#
# Elastic Constant Matrix: (Units=GPa)
#
#
# Indices 1 2 3 4 5 6 
#
# 1 70.3695 40.2318 41.8765 0.0000 0.0000 0.0000
# 2 40.2318 136.4290 43.3678 0.0000 0.0000 0.0000
# 3 41.8765 43.3678 76.5094 0.0000 0.0000 0.0000
# 4 0.0000 0.0000 0.0000 24.7217 0.0000 0.0000
# 5 0.0000 0.0000 0.0000 0.0000 17.8025 0.0000
# 6 0.0000 0.0000 0.0000 0.0000 0.0000 17.1826
#
#
#
# Elastic Compliance Matrix: (Units=1/GPa)
#
#
# Indices 1 2 3 4 5 6 
#
# 1 0.022214 -0.003276 -0.010302 0.000000 0.000000 0.000000
# 2 -0.003276 0.009424 -0.003549 0.000000 0.000000 0.000000
# 3 -0.010302 -0.003549 0.020720 0.000000 0.000000 0.000000
# 4 0.000000 0.000000 0.000000 0.040450 0.000000 0.000000
# 5 0.000000 0.000000 0.000000 0.000000 0.056172 0.000000
# 6 0.000000 0.000000 0.000000 0.000000 0.000000 0.058198
#
#
# Mechanical properties :
#
#
# Convention : Reuss Voigt Hill
#
# Bulk Modulus (GPa) = 55.23165 59.36223 57.29694
# Shear Modulus (GPa) = 20.20472 22.46349 21.33411
#
# Velocity S-wave (km/s) = 3.28506 3.46382 3.37562
# Velocity P-wave (km/s) = 6.62486 6.90677 6.76728
#
# Compressibility (1/GPa) = 0.01810556
#
# Stress axis : x y z
#
# Youngs Moduli (GPa) = 45.01625 106.11262 48.26192
#
# Poissons Ratio (x) = 0.34764 0.49718
# Poissons Ratio (y) = 0.14748 0.17126
# Poissons Ratio (z) = 0.46374 0.37655
#
# Static dielectric constant tensor:
#      x y z
#    x 3.508190 0.000000 0.000000 
#    y 0.000000 3.636080 0.000000 
#    z 0.000000 0.000000 3.587190 
# 
# 
# High freq. dielectric constant tensor:
#      x y z
#    x 1.715270 0.000000 0.000000 
#    y 0.000000 1.733270 0.000000 
#    z 0.000000 0.000000 1.719050 
# 
# From -- ./inp_files/24278.got.cif
#   From: 2010.03.12/outbox.cif.g09.slc.cpg/sg64_13_cif.got.tgz:24278.got - 2010.04.10 20:19:32.
