data_PCOD8261145
_publ_section_title
;
Structure prediction by ZEFSAII (Michael W. Deem and Ramdas Pophale) SiO2 
 PCOD8261145
Probable space group: C M C M
;
_chemical_formula_sum "Si O2"
_cell_formula_units_Z 40
_cell_length_a 8.942924
_cell_length_b 35.586858
_cell_length_c 7.269282
_cell_angle_alpha 90.000000
_cell_angle_beta 90.000000
_cell_angle_gamma 90.000000
_cell_volume 2313.453114
_symmetry_space_group_name_H-M "C M C M"
_symmetry_group_IT_number 63
_symmetry_cell_setting 'orthorhombic'
loop_
_space_group_symop_operation_xyz
x,y,z
-x,-y,1/2+z
x,-y,-z
-x,y,1/2-z
-x,-y,-z
x,y,1/2-z
-x,y,z
x,-y,1/2+z
1/2+x,1/2+y,z
1/2-x,1/2-y,1/2+z
1/2+x,1/2-y,-z
1/2-x,1/2+y,1/2-z
1/2-x,1/2-y,-z
1/2+x,1/2+y,1/2-z
1/2-x,1/2+y,z
1/2+x,1/2-y,1/2+z
loop_
_atom_site_type_symbol
_atom_site_label
_atom_site_fract_x
_atom_site_fract_y
_atom_site_fract_z
Si Si1 0.825499 0.660147 0.250000
Si Si2 0.170874 0.789164 0.462034
Si Si3 0.000000 0.043915 0.965073
Si Si4 0.842833 0.912431 0.750000
O O1 0.753975 0.677816 0.431304
O O2 0.798171 0.615203 0.250000
O O3 0.000000 0.668428 0.250000
O O4 0.180720 0.800030 0.250000
O O5 0.250000 0.750000 0.500000
O O6 0.000000 0.785848 0.528326
O O7 0.000000 0.054194 0.750000
O O8 0.851133 0.061274 0.065674
O O9 0.000000 0.000000 0.000000
O O10 0.000000 0.888228 0.750000
#
# Coordination Sequence:
#
# PCOD8261145 Si02
#       4
#     8  16   8   8
#     4  12  24  40  56  80 124 158 196 245 294 348
#     4  11  23  38  60  83 110 151 203 253 302 350
#     4   9  15  32  61  93 114 143 183 236 293 351
#     4   8  20  32  56  88 114 140 192 231 290 330
#
# _framework density 17.29017
#
# number of rings (size 3 to 8) (size 9 to 14) (size 15 to 20)
#    1.200    0.400    4.000    3.000    0.000    4.000 
#    0.000    0.000    0.000    1.200    0.000    0.000 
#    0.000    0.000    0.000    0.000    0.000    0.000 
#
# Total GULP energy -247802.624535 kJ/mol
# GULP energy per Si atom -12390.131227 kJ/mol
# Density = 1.725082 g / cm^3
# Si number density = 17.290170 Si / 1000 Ang^3
#
#
#
# Elastic Constant Matrix: (Units=GPa)
#
#
# Indices 1 2 3 4 5 6 
#
# 1 122.2858 46.9845 45.6131 0.0000 0.0000 0.0000
# 2 46.9845 117.8528 51.4586 0.0000 0.0000 0.0000
# 3 45.6131 51.4586 145.2545 0.0000 0.0000 0.0000
# 4 0.0000 0.0000 0.0000 31.7762 0.0000 0.0000
# 5 0.0000 0.0000 0.0000 0.0000 19.6569 0.0000
# 6 0.0000 0.0000 0.0000 0.0000 0.0000 30.7285
#
#
#
# Elastic Compliance Matrix: (Units=1/GPa)
#
#
# Indices 1 2 3 4 5 6 
#
# 1 0.010160 -0.003144 -0.002077 0.000000 0.000000 0.000000
# 2 -0.003144 0.011011 -0.002913 0.000000 0.000000 0.000000
# 3 -0.002077 -0.002913 0.008569 0.000000 0.000000 0.000000
# 4 0.000000 0.000000 0.000000 0.031470 0.000000 0.000000
# 5 0.000000 0.000000 0.000000 0.000000 0.050873 0.000000
# 6 0.000000 0.000000 0.000000 0.000000 0.000000 0.032543
#
#
# Mechanical properties :
#
#
# Convention : Reuss Voigt Hill
#
# Bulk Modulus (GPa) = 74.23086 74.83395 74.53240
# Shear Modulus (GPa) = 30.23268 32.52143 31.37706
#
# Velocity S-wave (km/s) = 4.18610 4.34166 4.26459
# Velocity P-wave (km/s) = 8.14802 8.27699 8.21276
#
# Compressibility (1/GPa) = 0.01347149
#
# Stress axis : x y z
#
# Youngs Moduli (GPa) = 98.42421 90.82149 116.70298
#
# Poissons Ratio (x) = 0.28552 0.24237
# Poissons Ratio (y) = 0.30942 0.34001
# Poissons Ratio (z) = 0.20440 0.26461
#
# Static dielectric constant tensor:
#      x y z
#    x 3.166100 0.000000 0.000000 
#    y 0.000000 3.070870 0.000000 
#    z 0.000000 0.000000 3.149010 
# 
# 
# High freq. dielectric constant tensor:
#      x y z
#    x 1.641570 0.000000 0.000000 
#    y 0.000000 1.661600 0.000000 
#    z 0.000000 0.000000 1.684890 
# 
# From -- ./inp_files/1877.got.cif
#   From: 2010.03.12/outbox.cif.g09.slc.cpg/sg63_1_cif.got.tgz:1877.got - 2010.04.10 19:34:48.
