data_PCOD8261297
_publ_section_title
;
Structure prediction by ZEFSAII (Michael W. Deem and Ramdas Pophale) SiO2 
 PCOD8261297
Probable space group: C M C M
;
_chemical_formula_sum "Si O2"
_cell_formula_units_Z 96
_cell_length_a 26.479607
_cell_length_b 29.059720
_cell_length_c 9.277421
_cell_angle_alpha 90.000000
_cell_angle_beta 90.000000
_cell_angle_gamma 90.000000
_cell_volume 7138.882362
_symmetry_space_group_name_H-M "C M C M"
_symmetry_group_IT_number 63
_symmetry_cell_setting 'orthorhombic'
loop_
_space_group_symop_operation_xyz
x,y,z
-x,-y,1/2+z
x,-y,-z
-x,y,1/2-z
-x,-y,-z
x,y,1/2-z
-x,y,z
x,-y,1/2+z
1/2+x,1/2+y,z
1/2-x,1/2-y,1/2+z
1/2+x,1/2-y,-z
1/2-x,1/2+y,1/2-z
1/2-x,1/2-y,-z
1/2+x,1/2+y,1/2-z
1/2-x,1/2+y,z
1/2+x,1/2-y,1/2+z
loop_
_atom_site_type_symbol
_atom_site_label
_atom_site_fract_x
_atom_site_fract_y
_atom_site_fract_z
Si Si1 0.443589 0.638708 0.421154
Si Si2 0.797201 0.728310 0.419047
Si Si3 0.739752 0.642519 0.083053
Si Si4 0.778648 0.044017 0.414999
Si Si5 0.645707 0.702449 0.078947
Si Si6 0.397855 0.544227 0.415456
O O1 0.442165 0.635905 0.250000
O O2 0.500000 0.648549 0.479124
O O3 0.407372 0.680440 0.470420
O O4 0.423896 0.589848 0.481457
O O5 0.796298 0.740897 0.250000
O O6 0.750000 0.750000 0.500000
O O7 0.790762 0.672874 0.440143
O O8 0.847575 0.748545 0.495329
O O9 0.727747 0.634731 0.250000
O O10 0.745876 0.591030 0.018201
O O11 0.690358 0.668850 0.022526
O O12 0.763293 0.036282 0.250000
O O13 0.838283 0.049447 0.434854
O O14 0.757401 0.000000 0.500000
O O15 0.648642 0.711266 0.250000
O O16 0.418707 0.500000 0.500000
O O17 0.412997 0.537457 0.250000
#
# Coordination Sequence:
#
# PCOD8261297 Si02
#       6
#    16  16  16  16  16  16
#     4   9  16  26  41  56  68  92 128 157 187 230
#     4   9  16  25  39  57  73  91 114 142 178 220
#     4   8  13  23  38  51  67  91 115 139 174 216
#     4   9  15  24  36  50  68  92 118 145 178 213
#     4   9  15  26  40  53  71  92 116 152 186 216
#     4   9  16  26  39  51  66  89 120 157 193 227
#
# _framework density 13.447483999999999
#
# number of rings (size 3 to 8) (size 9 to 14) (size 15 to 20)
#    0.000    3.167    1.667    1.500    0.000    0.333 
#    0.000    5.000    0.000    1.500    0.000    0.000 
#    0.000    0.000    0.000    0.000    0.000    0.833 
#
# Total GULP energy -594669.071325 kJ/mol
# GULP energy per Si atom -12388.938986 kJ/mol
# Density = 1.341688 g / cm^3
# Si number density = 13.447484 Si / 1000 Ang^3
#
#
#
# Elastic Constant Matrix: (Units=GPa)
#
#
# Indices 1 2 3 4 5 6 
#
# 1 48.4618 51.9787 21.5391 0.0000 0.0000 0.0000
# 2 51.9787 114.6437 37.5009 0.0000 0.0000 0.0000
# 3 21.5391 37.5009 41.0060 0.0000 0.0000 0.0000
# 4 0.0000 0.0000 0.0000 21.2863 0.0000 0.0000
# 5 0.0000 0.0000 0.0000 0.0000 10.3391 0.0000
# 6 0.0000 0.0000 0.0000 0.0000 0.0000 19.8868
#
#
#
# Elastic Compliance Matrix: (Units=1/GPa)
#
#
# Indices 1 2 3 4 5 6 
#
# 1 0.041358 -0.016616 -0.006528 0.000000 0.000000 0.000000
# 2 -0.016616 0.019121 -0.008759 0.000000 0.000000 0.000000
# 3 -0.006528 -0.008759 0.035826 0.000000 0.000000 0.000000
# 4 0.000000 0.000000 0.000000 0.046978 0.000000 0.000000
# 5 0.000000 0.000000 0.000000 0.000000 0.096720 0.000000
# 6 0.000000 0.000000 0.000000 0.000000 0.000000 0.050285
#
#
# Mechanical properties :
#
#
# Convention : Reuss Voigt Hill
#
# Bulk Modulus (GPa) = 30.77033 47.34988 39.06010
# Shear Modulus (GPa) = 13.70129 16.50864 15.10497
#
# Velocity S-wave (km/s) = 3.19544 3.50757 3.35514
# Velocity P-wave (km/s) = 6.04533 7.18968 6.64219
#
# Compressibility (1/GPa) = 0.03249884
#
# Stress axis : x y z
#
# Youngs Moduli (GPa) = 24.17899 52.29718 27.91244
#
# Poissons Ratio (x) = 0.86897 0.18222
# Poissons Ratio (y) = 0.40176 0.24449
# Poissons Ratio (z) = 0.15785 0.45808
#
# Static dielectric constant tensor:
#      x y z
#    x 2.549500 0.000000 0.000000 
#    y 0.000000 3.056420 0.000000 
#    z 0.000000 0.000000 2.571440 
# 
# 
# High freq. dielectric constant tensor:
#      x y z
#    x 1.461880 0.000000 0.000000 
#    y 0.000000 1.513730 0.000000 
#    z 0.000000 0.000000 1.491700 
# 
# From -- ./inp_files/24266.got.cif
#   From: 2010.03.12/outbox.cif.g09.slc.cpg/sg63_13_cif.got.tgz:24266.got - 2010.04.10 19:34:48.
