data_PCOD8261086
_publ_section_title
;
Structure prediction by ZEFSAII (Michael W. Deem and Ramdas Pophale) SiO2 
 PCOD8261086
Probable space group: C M C M
;
_chemical_formula_sum "Si O2"
_cell_formula_units_Z 96
_cell_length_a 8.683270
_cell_length_b 19.893362
_cell_length_c 28.735470
_cell_angle_alpha 90.000000
_cell_angle_beta 90.000000
_cell_angle_gamma 90.000000
_cell_volume 4963.748808
_symmetry_space_group_name_H-M "C M C M"
_symmetry_group_IT_number 63
_symmetry_cell_setting 'orthorhombic'
loop_
_space_group_symop_operation_xyz
x,y,z
-x,-y,1/2+z
x,-y,-z
-x,y,1/2-z
-x,-y,-z
x,y,1/2-z
-x,y,z
x,-y,1/2+z
1/2+x,1/2+y,z
1/2-x,1/2-y,1/2+z
1/2+x,1/2-y,-z
1/2-x,1/2+y,1/2-z
1/2-x,1/2-y,-z
1/2+x,1/2+y,1/2-z
1/2-x,1/2+y,z
1/2+x,1/2-y,1/2+z
loop_
_atom_site_type_symbol
_atom_site_label
_atom_site_fract_x
_atom_site_fract_y
_atom_site_fract_z
Si Si1 0.824754 0.395543 0.195463
Si Si2 0.821114 0.438220 0.467539
Si Si3 0.679624 0.510029 0.875237
Si Si4 0.683222 0.744425 0.301821
Si Si5 0.819344 0.182504 0.019436
Si Si6 0.682792 0.357084 0.879158
O O1 0.813449 0.408082 0.250000
O O2 0.712050 0.449195 0.171745
O O3 0.768207 0.319903 0.183358
O O4 0.000000 0.406122 0.178154
O O5 0.774989 0.500000 0.500000
O O6 0.779693 0.455218 0.414969
O O7 0.720815 0.375521 0.483323
O O8 0.000000 0.419774 0.471514
O O9 0.500000 0.512666 0.888254
O O10 0.734953 0.433206 0.868664
O O11 0.747158 0.727416 0.250000
O O12 0.500000 0.740638 0.300439
O O13 0.752005 0.691507 0.339049
O O14 0.751223 0.165626 0.070644
O O15 0.000000 0.190892 0.022901
O O16 0.750000 0.250000 0.000000
O O17 0.500000 0.351560 0.879097
#
# Coordination Sequence:
#
# PCOD8261086 Si02
#       6
#    16  16  16  16  16  16
#     4   9  19  36  58  84 114 149 191 239 288 343
#     4  11  23  40  61  83 112 155 200 240 288 348
#     4  11  22  36  57  86 117 151 188 238 297 346
#     4   8  15  31  55  80 107 143 187 230 275 335
#     4  11  23  39  58  85 120 153 192 240 290 348
#     4   9  19  34  53  80 114 148 185 233 286 336
#
# _framework density 19.340219999999999
#
# number of rings (size 3 to 8) (size 9 to 14) (size 15 to 20)
#    0.000    2.167    1.667    2.500    2.333    1.667 
#    0.000    1.667    0.000    2.000    0.000    0.000 
#    0.000    0.000    0.000    0.000    0.000    0.000 
#
# Total GULP energy -595264.226818 kJ/mol
# GULP energy per Si atom -12401.338059 kJ/mol
# Density = 1.929620 g / cm^3
# Si number density = 19.340220 Si / 1000 Ang^3
#
#
#
# Elastic Constant Matrix: (Units=GPa)
#
#
# Indices 1 2 3 4 5 6 
#
# 1 34.5230 28.5744 17.1070 0.0000 0.0000 0.0000
# 2 28.5744 159.4375 86.0496 0.0000 0.0000 0.0000
# 3 17.1070 86.0496 108.2368 0.0000 0.0000 0.0000
# 4 0.0000 0.0000 0.0000 43.1025 0.0000 0.0000
# 5 0.0000 0.0000 0.0000 0.0000 22.0302 0.0000
# 6 0.0000 0.0000 0.0000 0.0000 0.0000 23.9805
#
#
#
# Elastic Compliance Matrix: (Units=1/GPa)
#
#
# Indices 1 2 3 4 5 6 
#
# 1 0.034065 -0.005604 -0.000929 0.000000 0.000000 0.000000
# 2 -0.005604 0.011908 -0.008581 0.000000 0.000000 0.000000
# 3 -0.000929 -0.008581 0.016208 0.000000 0.000000 0.000000
# 4 0.000000 0.000000 0.000000 0.023200 0.000000 0.000000
# 5 0.000000 0.000000 0.000000 0.000000 0.045392 0.000000
# 6 0.000000 0.000000 0.000000 0.000000 0.000000 0.041701
#
#
# Mechanical properties :
#
#
# Convention : Reuss Voigt Hill
#
# Bulk Modulus (GPa) = 31.29625 62.85104 47.07364
# Shear Modulus (GPa) = 23.43548 29.18705 26.31126
#
# Velocity S-wave (km/s) = 3.48479 3.88898 3.69242
# Velocity P-wave (km/s) = 5.69287 7.26179 6.52466
#
# Compressibility (1/GPa) = 0.03195271
#
# Stress axis : x y z
#
# Youngs Moduli (GPa) = 29.35595 83.98010 61.69855
#
# Poissons Ratio (x) = 0.47060 0.05732
# Poissons Ratio (y) = 0.16450 0.52944
# Poissons Ratio (z) = 0.02727 0.72063
#
# Static dielectric constant tensor:
#      x y z
#    x 3.197120 0.000000 0.000000 
#    y 0.000000 3.635720 0.000000 
#    z 0.000000 0.000000 3.684160 
# 
# 
# High freq. dielectric constant tensor:
#      x y z
#    x 1.720160 0.000000 0.000000 
#    y 0.000000 1.763420 0.000000 
#    z 0.000000 0.000000 1.760860 
# 
# From -- ./inp_files/66933.got.cif
#   From: 2010.03.12/outbox.cif.g09.slc.cpg/sg63_34_cif.got.tgz:66933.got - 2010.04.10 19:34:48.
