data_PCOD8261142
_publ_section_title
;
Structure prediction by ZEFSAII (Michael W. Deem and Ramdas Pophale) SiO2 
 PCOD8261142
Probable space group: C M C M
;
_chemical_formula_sum "Si O2"
_cell_formula_units_Z 112
_cell_length_a 26.208557
_cell_length_b 14.314643
_cell_length_c 14.610890
_cell_angle_alpha 90.000000
_cell_angle_beta 90.000000
_cell_angle_gamma 90.000000
_cell_volume 5481.511159
_symmetry_space_group_name_H-M "C M C M"
_symmetry_group_IT_number 63
_symmetry_cell_setting 'orthorhombic'
loop_
_space_group_symop_operation_xyz
x,y,z
-x,-y,1/2+z
x,-y,-z
-x,y,1/2-z
-x,-y,-z
x,y,1/2-z
-x,y,z
x,-y,1/2+z
1/2+x,1/2+y,z
1/2-x,1/2-y,1/2+z
1/2+x,1/2-y,-z
1/2-x,1/2+y,1/2-z
1/2-x,1/2-y,-z
1/2+x,1/2+y,1/2-z
1/2-x,1/2+y,z
1/2+x,1/2-y,1/2+z
loop_
_atom_site_type_symbol
_atom_site_label
_atom_site_fract_x
_atom_site_fract_y
_atom_site_fract_z
Si Si1 0.788996 0.321631 0.857781
Si Si2 0.794970 0.039118 0.401599
Si Si3 0.059378 0.756771 0.981951
Si Si4 0.059983 0.880136 0.148281
Si Si5 0.234906 0.365683 0.350709
Si Si6 0.143099 0.390784 0.007433
Si Si7 0.595267 0.579708 0.353137
O O1 0.793067 0.345638 0.750000
O O2 0.745591 0.378876 0.910700
O O3 0.775104 0.214604 0.877279
O O4 0.841483 0.349925 0.907944
O O5 0.769081 0.957993 0.342724
O O6 0.810643 0.000000 0.500000
O O7 0.843556 0.085405 0.353310
O O8 0.069185 0.837883 0.909004
O O9 0.000000 0.728011 0.979372
O O10 0.076015 0.796298 0.081352
O O11 0.092866 0.665164 0.959634
O O12 0.082913 0.860250 0.250000
O O13 0.000000 0.888223 0.153475
O O14 0.080399 0.977877 0.107652
O O15 0.211450 0.345495 0.250000
O O16 0.188516 0.375095 0.420702
O O17 0.129535 0.500000 0.000000
O O18 0.574800 0.589683 0.250000
#
# Coordination Sequence:
#
# PCOD8261142 Si02
#       7
#    16  16  16  16  16  16  16
#     4  11  23  39  61  89 124 166 207 251 310 375
#     4  12  22  37  60  92 132 168 199 247 299 370
#     4  11  25  43  65  90 122 164 216 272 321 372
#     4   9  19  38  63  92 126 161 203 259 321 382
#     4  11  23  39  62  92 127 165 206 251 305 372
#     4  12  25  43  64  88 120 166 216 267 319 363
#     4  11  23  37  61  97 134 169 204 247 310 387
#
# _framework density 20.432321999999999
#
# number of rings (size 3 to 8) (size 9 to 14) (size 15 to 20)
#    0.000    1.000    2.857    4.286    4.000    4.571 
#    0.000    0.000    0.000    0.000    0.000    4.000 
#    0.000    0.000    0.000    0.000    0.000    0.000 
#
# Total GULP energy -694457.779086 kJ/mol
# GULP energy per Si atom -12401.031769 kJ/mol
# Density = 2.038582 g / cm^3
# Si number density = 20.432322 Si / 1000 Ang^3
#
#
#
# Elastic Constant Matrix: (Units=GPa)
#
#
# Indices 1 2 3 4 5 6 
#
# 1 58.9076 48.7805 32.9968 0.0000 0.0000 0.0000
# 2 48.7805 96.6628 21.8668 0.0000 0.0000 0.0000
# 3 32.9968 21.8668 88.2291 0.0000 0.0000 0.0000
# 4 0.0000 0.0000 0.0000 20.0745 0.0000 0.0000
# 5 0.0000 0.0000 0.0000 0.0000 -5.1050 0.0000
# 6 0.0000 0.0000 0.0000 0.0000 0.0000 42.6727
#
#
#
# Elastic Compliance Matrix: (Units=1/GPa)
#
#
# Indices 1 2 3 4 5 6 
#
# 1 0.035089 -0.015614 -0.009253 0.000000 0.000000 0.000000
# 2 -0.015614 0.017908 0.001401 0.000000 0.000000 0.000000
# 3 -0.009253 0.001401 0.014447 0.000000 0.000000 0.000000
# 4 0.000000 0.000000 0.000000 0.049814 0.000000 0.000000
# 5 0.000000 0.000000 0.000000 0.000000 -0.195887 0.000000
# 6 0.000000 0.000000 0.000000 0.000000 0.000000 0.023434
#
#
# Mechanical properties :
#
#
# Convention : Reuss Voigt Hill
#
# Bulk Modulus (GPa) = 48.75176 50.12086 49.43631
# Shear Modulus (GPa) = -3507.46800 20.87213 -1743.29793
#
# Velocity S-wave (km/s) = -41.47715 3.19960 -29.24138
# Velocity P-wave (km/s) = 47.64340 6.18331 33.40404
#
# Compressibility (1/GPa) = 0.02051208
#
# Stress axis : x y z
#
# Youngs Moduli (GPa) = 28.49928 55.84129 69.21680
#
# Poissons Ratio (x) = 0.87191 0.64046
# Poissons Ratio (y) = 0.44499 -0.09699
# Poissons Ratio (z) = 0.26370 -0.07825
#
# Static dielectric constant tensor:
#      x y z
#    x 3.555450 0.000000 0.000000 
#    y 0.000000 3.696090 0.000000 
#    z 0.000000 0.000000 4.868220 
# 
# 
# High freq. dielectric constant tensor:
#      x y z
#    x 1.784970 0.000000 0.000000 
#    y 0.000000 1.795250 0.000000 
#    z 0.000000 0.000000 1.811200 
# 
# From -- ./inp_files/36862.got.cif
#   From: 2010.03.12/outbox.cif.g09.slc.cpg/sg63_19_cif.got.tgz:36862.got - 2010.04.10 19:34:48.
