data_PCOD8261934
_publ_section_title
;
Structure prediction by ZEFSAII (Michael W. Deem and Ramdas Pophale) SiO2 
 PCOD8261934
Probable space group: C M C A
;
_chemical_formula_sum "Si O2"
_cell_formula_units_Z 112
_cell_length_a 15.877763
_cell_length_b 14.277268
_cell_length_c 26.691779
_cell_angle_alpha 90.000000
_cell_angle_beta 90.000000
_cell_angle_gamma 90.000000
_cell_volume 6050.788144
_symmetry_space_group_name_H-M "C M C A"
_symmetry_group_IT_number 64
_symmetry_cell_setting 'orthorhombic'
loop_
_space_group_symop_operation_xyz
x,y,z
-x,1/2-y,1/2+z
x,-y,-z
-x,1/2+y,1/2-z
-x,-y,-z
x,1/2+y,1/2-z
-x,y,z
x,1/2-y,1/2+z
1/2+x,1/2+y,z
1/2-x,-y,1/2+z
1/2+x,1/2-y,-z
1/2-x,y,1/2-z
1/2-x,1/2-y,-z
1/2+x,y,1/2-z
1/2-x,1/2+y,z
1/2+x,-y,1/2+z
loop_
_atom_site_type_symbol
_atom_site_label
_atom_site_fract_x
_atom_site_fract_y
_atom_site_fract_z
Si Si1 0.306333 0.861301 0.702306
Si Si2 0.761495 0.902866 0.125772
Si Si3 0.094895 0.949331 0.195389
Si Si4 0.692956 0.232783 0.953584
Si Si5 0.096635 0.396556 0.979783
Si Si6 0.243404 0.106700 0.402803
Si Si7 0.166701 0.653863 0.782616
O O1 0.250000 0.883227 0.750000
O O2 0.241511 0.861041 0.655275
O O3 0.356180 0.762508 0.706179
O O4 0.374197 0.943560 0.697456
O O5 0.849141 0.890688 0.155779
O O6 0.750367 0.819775 0.087132
O O7 0.683556 0.901480 0.165448
O O8 0.762504 0.997311 0.093510
O O9 0.096097 0.900048 0.250383
O O10 0.000000 0.948772 0.175633
O O11 0.678468 0.335824 0.929015
O O12 0.750000 0.250000 0.000000
O O13 0.611946 0.174851 0.972959
O O14 0.155231 0.373056 0.931786
O O15 0.000000 0.386635 0.962695
O O16 0.116690 0.500000 0.000000
O O17 0.250000 0.651722 0.750000
#
# Coordination Sequence:
#
# PCOD8261934 Si02
#       7
#    16  16  16  16  16  16  16
#     4  10  19  35  60  82 111 147 195 229 269 342
#     4  10  18  36  57  80 110 146 193 229 270 346
#     4  10  21  35  52  81 115 149 181 229 285 326
#     4  10  20  34  57  83 108 148 190 222 282 347
#     4  10  20  36  57  87 119 142 182 250 300 325
#     4  10  19  34  60  83 110 153 193 224 281 347
#     4   9  18  34  57  78 109 147 190 230 269 325
#
# _framework density 18.509986000000001
#
# number of rings (size 3 to 8) (size 9 to 14) (size 15 to 20)
#    0.000    2.143    2.857    2.143    0.000    0.571 
#    0.000    9.286    0.000    0.000    0.000   12.000 
#    0.000    0.000    0.000    0.000    0.000    0.000 
#
# Total GULP energy -693850.456874 kJ/mol
# GULP energy per Si atom -12390.186730 kJ/mol
# Density = 1.846786 g / cm^3
# Si number density = 18.509986 Si / 1000 Ang^3
#
#
#
# Elastic Constant Matrix: (Units=GPa)
#
#
# Indices 1 2 3 4 5 6 
#
# 1 83.0227 19.0276 41.4029 0.0000 0.0000 0.0000
# 2 19.0276 91.2906 35.8253 0.0000 0.0000 0.0000
# 3 41.4029 35.8253 113.0856 0.0000 0.0000 0.0000
# 4 0.0000 0.0000 0.0000 38.5328 0.0000 0.0000
# 5 0.0000 0.0000 0.0000 0.0000 18.9078 0.0000
# 6 0.0000 0.0000 0.0000 0.0000 0.0000 9.6818
#
#
#
# Elastic Compliance Matrix: (Units=1/GPa)
#
#
# Indices 1 2 3 4 5 6 
#
# 1 0.014831 -0.001097 -0.005082 0.000000 0.000000 0.000000
# 2 -0.001097 0.012590 -0.003587 0.000000 0.000000 0.000000
# 3 -0.005082 -0.003587 0.011840 0.000000 0.000000 0.000000
# 4 0.000000 0.000000 0.000000 0.025952 0.000000 0.000000
# 5 0.000000 0.000000 0.000000 0.000000 0.052888 0.000000
# 6 0.000000 0.000000 0.000000 0.000000 0.000000 0.103287
#
#
# Mechanical properties :
#
#
# Convention : Reuss Voigt Hill
#
# Bulk Modulus (GPa) = 50.68735 53.32338 52.00537
# Shear Modulus (GPa) = 20.20231 26.16736 23.18483
#
# Velocity S-wave (km/s) = 3.30726 3.76398 3.54299
# Velocity P-wave (km/s) = 6.48284 6.91090 6.70029
#
# Compressibility (1/GPa) = 0.01972879
#
# Stress axis : x y z
#
# Youngs Moduli (GPa) = 67.42715 79.42634 84.45930
#
# Poissons Ratio (x) = 0.08710 0.42926
# Poissons Ratio (y) = 0.07394 0.30296
# Poissons Ratio (z) = 0.34269 0.28491
#
# Static dielectric constant tensor:
#      x y z
#    x 3.020090 0.000000 0.000000 
#    y 0.000000 3.952910 0.000000 
#    z 0.000000 0.000000 3.927930 
# 
# 
# High freq. dielectric constant tensor:
#      x y z
#    x 1.664060 0.000000 0.000000 
#    y 0.000000 1.737570 0.000000 
#    z 0.000000 0.000000 1.731470 
# 
# From -- ./inp_files/50081.got.cif
#   From: 2010.03.12/outbox.cif.g09.slc.cpg/sg64_26_cif.got.tgz:50081.got - 2010.04.10 20:19:32.
