data_PCOD8261521
_publ_section_title
;
Structure prediction by ZEFSAII (Michael W. Deem and Ramdas Pophale) SiO2 
 PCOD8261521
Probable space group: C M C A
;
_chemical_formula_sum "Si O2"
_cell_formula_units_Z 88
_cell_length_a 18.993918
_cell_length_b 20.062725
_cell_length_c 13.700397
_cell_angle_alpha 90.000000
_cell_angle_beta 90.000000
_cell_angle_gamma 90.000000
_cell_volume 5220.806908
_symmetry_space_group_name_H-M "C M C A"
_symmetry_group_IT_number 64
_symmetry_cell_setting 'orthorhombic'
loop_
_space_group_symop_operation_xyz
x,y,z
-x,1/2-y,1/2+z
x,-y,-z
-x,1/2+y,1/2-z
-x,-y,-z
x,1/2+y,1/2-z
-x,y,z
x,1/2-y,1/2+z
1/2+x,1/2+y,z
1/2-x,-y,1/2+z
1/2+x,1/2-y,-z
1/2-x,y,1/2-z
1/2-x,1/2-y,-z
1/2+x,y,1/2-z
1/2-x,1/2+y,z
1/2+x,-y,1/2+z
loop_
_atom_site_type_symbol
_atom_site_label
_atom_site_fract_x
_atom_site_fract_y
_atom_site_fract_z
Si Si1 0.805158 0.804895 0.531417
Si Si2 0.577999 0.633243 0.963543
Si Si3 0.726149 0.928678 0.457207
Si Si4 0.750000 0.123560 0.750000
Si Si5 0.578300 0.251132 0.401987
Si Si6 0.868433 0.725274 0.697444
O O1 0.750000 0.750000 0.500000
O O2 0.766113 0.875767 0.526669
O O3 0.869673 0.803149 0.455036
O O4 0.829805 0.786490 0.641129
O O5 0.500000 0.598878 0.961629
O O6 0.641167 0.580059 0.957562
O O7 0.580245 0.686773 0.876035
O O8 0.589072 0.675497 0.061838
O O9 0.754616 0.922606 0.346374
O O10 0.745805 0.000000 0.500000
O O11 0.816231 0.171489 0.756976
O O12 0.500000 0.277164 0.425152
O O13 0.588109 0.244770 0.286230
#
# Coordination Sequence:
#
# PCOD8261521 Si02
#       6
#    16  16  16   8  16  16
#     4  11  18  35  55  82 107 140 178 230 269 312
#     4   9  19  33  50  78 110 139 178 223 271 321
#     4  11  22  37  54  81 111 146 185 219 272 324
#     4  10  18  34  56  76 106 138 178 228 266 322
#     4  10  18  30  53  83 110 136 174 225 276 320
#     4  10  17  29  56  78 107 135 180 219 275 320
#
# _framework density 16.855632
#
# number of rings (size 3 to 8) (size 9 to 14) (size 15 to 20)
#    0.000    1.818    7.273    0.545    0.000    1.091 
#    3.273    0.000    0.000    0.545    0.000    0.000 
#    0.000    0.000    0.000    0.000    0.000    0.000 
#
# Total GULP energy -545369.202010 kJ/mol
# GULP energy per Si atom -12394.754591 kJ/mol
# Density = 1.681727 g / cm^3
# Si number density = 16.855632 Si / 1000 Ang^3
#
#
#
# Elastic Constant Matrix: (Units=GPa)
#
#
# Indices 1 2 3 4 5 6 
#
# 1 94.1969 35.8151 30.4083 0.0000 0.0000 0.0000
# 2 35.8151 96.0434 42.5835 0.0000 0.0000 0.0000
# 3 30.4083 42.5835 104.5075 0.0000 0.0000 0.0000
# 4 0.0000 0.0000 0.0000 23.1506 0.0000 0.0000
# 5 0.0000 0.0000 0.0000 0.0000 24.5764 0.0000
# 6 0.0000 0.0000 0.0000 0.0000 0.0000 12.3220
#
#
#
# Elastic Compliance Matrix: (Units=1/GPa)
#
#
# Indices 1 2 3 4 5 6 
#
# 1 0.012759 -0.003798 -0.002165 0.000000 0.000000 0.000000
# 2 -0.003798 0.013838 -0.004534 0.000000 0.000000 0.000000
# 3 -0.002165 -0.004534 0.012046 0.000000 0.000000 0.000000
# 4 0.000000 0.000000 0.000000 0.043195 0.000000 0.000000
# 5 0.000000 0.000000 0.000000 0.000000 0.040689 0.000000
# 6 0.000000 0.000000 0.000000 0.000000 0.000000 0.081155
#
#
# Mechanical properties :
#
#
# Convention : Reuss Voigt Hill
#
# Bulk Modulus (GPa) = 56.65644 56.92906 56.79275
# Shear Modulus (GPa) = 21.68633 24.40587 23.04610
#
# Velocity S-wave (km/s) = 3.59080 3.80930 3.70166
# Velocity P-wave (km/s) = 7.13285 7.29353 7.21364
#
# Compressibility (1/GPa) = 0.01765025
#
# Stress axis : x y z
#
# Youngs Moduli (GPa) = 78.37619 72.26287 83.01589
#
# Poissons Ratio (x) = 0.27446 0.17972
# Poissons Ratio (y) = 0.29768 0.37636
# Poissons Ratio (z) = 0.16967 0.32761
#
# Static dielectric constant tensor:
#      x y z
#    x 3.388870 0.000000 0.000000 
#    y 0.000000 2.492550 0.000000 
#    z 0.000000 0.000000 2.877060 
# 
# 
# High freq. dielectric constant tensor:
#      x y z
#    x 1.662130 0.000000 0.000000 
#    y 0.000000 1.600940 0.000000 
#    z 0.000000 0.000000 1.659380 
# 
# From -- ./inp_files/25410.got.cif
#   From: 2010.03.12/outbox.cif.g09.slc.cpg/sg64_13_cif.got.tgz:25410.got - 2010.04.10 20:19:32.
