data_PCOD8261317
_publ_section_title
;
Structure prediction by ZEFSAII (Michael W. Deem and Ramdas Pophale) SiO2 
 PCOD8261317
Probable space group: C M C M
;
_chemical_formula_sum "Si O2"
_cell_formula_units_Z 64
_cell_length_a 9.687541
_cell_length_b 39.828285
_cell_length_c 9.900100
_cell_angle_alpha 90.000000
_cell_angle_beta 90.000000
_cell_angle_gamma 90.000000
_cell_volume 3819.836208
_symmetry_space_group_name_H-M "C M C M"
_symmetry_group_IT_number 63
_symmetry_cell_setting 'orthorhombic'
loop_
_space_group_symop_operation_xyz
x,y,z
-x,-y,1/2+z
x,-y,-z
-x,y,1/2-z
-x,-y,-z
x,y,1/2-z
-x,y,z
x,-y,1/2+z
1/2+x,1/2+y,z
1/2-x,1/2-y,1/2+z
1/2+x,1/2-y,-z
1/2-x,1/2+y,1/2-z
1/2-x,1/2-y,-z
1/2+x,1/2+y,1/2-z
1/2-x,1/2+y,z
1/2+x,1/2-y,1/2+z
loop_
_atom_site_type_symbol
_atom_site_label
_atom_site_fract_x
_atom_site_fract_y
_atom_site_fract_z
Si Si1 0.159915 0.603109 0.592380
Si Si2 0.840183 0.850223 0.595514
Si Si3 0.659152 0.727265 0.404505
Si Si4 0.664005 0.027675 0.899373
O O1 0.187747 0.609868 0.750000
O O2 0.249128 0.628144 0.504567
O O3 0.204727 0.565149 0.554037
O O4 0.000000 0.609019 0.557854
O O5 0.803722 0.859395 0.750000
O O6 0.806272 0.811462 0.567288
O O7 0.000000 0.857724 0.566543
O O8 0.693344 0.736353 0.250000
O O9 0.500000 0.734651 0.436173
O O10 0.750000 0.750000 0.500000
O O11 0.723480 0.020457 0.750000
O O12 0.500000 0.024793 0.895447
O O13 0.728561 0.000000 0.000000
#
# Coordination Sequence:
#
# PCOD8261317 Si02
#       4
#    16  16  16  16
#     4   9  18  31  47  71 100 125 154 195 238 279
#     4   9  19  35  51  68  94 127 160 193 231 277
#     4   9  19  35  52  71  96 124 155 193 235 278
#     4   8  14  25  41  63  92 122 151 187 231 276
#
# _framework density 16.754643999999999
#
# number of rings (size 3 to 8) (size 9 to 14) (size 15 to 20)
#    0.000    3.250    0.000    3.000    0.000    4.500 
#    0.000   10.000    0.000    0.750    0.000    0.000 
#    0.000    0.000    0.000    0.000    0.000    0.000 
#
# Total GULP energy -396686.249321 kJ/mol
# GULP energy per Si atom -12396.445291 kJ/mol
# Density = 1.671651 g / cm^3
# Si number density = 16.754644 Si / 1000 Ang^3
#
#
#
# Elastic Constant Matrix: (Units=GPa)
#
#
# Indices 1 2 3 4 5 6 
#
# 1 67.4393 71.1368 68.8054 0.0000 0.0000 0.0000
# 2 71.1368 128.6448 98.5940 0.0000 0.0000 0.0000
# 3 68.8054 98.5940 116.7731 0.0000 0.0000 0.0000
# 4 0.0000 0.0000 0.0000 41.9509 0.0000 0.0000
# 5 0.0000 0.0000 0.0000 0.0000 32.5149 0.0000
# 6 0.0000 0.0000 0.0000 0.0000 0.0000 20.2477
#
#
#
# Elastic Compliance Matrix: (Units=1/GPa)
#
#
# Indices 1 2 3 4 5 6 
#
# 1 0.043196 -0.012410 -0.014974 0.000000 0.000000 0.000000
# 2 -0.012410 0.025592 -0.014296 0.000000 0.000000 0.000000
# 3 -0.014974 -0.014296 0.029457 0.000000 0.000000 0.000000
# 4 0.000000 0.000000 0.000000 0.023837 0.000000 0.000000
# 5 0.000000 0.000000 0.000000 0.000000 0.030755 0.000000
# 6 0.000000 0.000000 0.000000 0.000000 0.000000 0.049388
#
#
# Mechanical properties :
#
#
# Convention : Reuss Voigt Hill
#
# Bulk Modulus (GPa) = 67.17991 87.76998 77.47495
# Shear Modulus (GPa) = 17.20901 23.89744 20.55323
#
# Velocity S-wave (km/s) = 3.20835 3.78076 3.50625
# Velocity P-wave (km/s) = 7.34221 8.45920 7.92042
#
# Compressibility (1/GPa) = 0.01488540
#
# Stress axis : x y z
#
# Youngs Moduli (GPa) = 23.15047 39.07508 33.94810
#
# Poissons Ratio (x) = 0.48491 0.50834
# Poissons Ratio (y) = 0.28729 0.48531
# Poissons Ratio (z) = 0.34666 0.55860
#
# Static dielectric constant tensor:
#      x y z
#    x 2.833580 0.000000 0.000000 
#    y 0.000000 3.197400 0.000000 
#    z 0.000000 0.000000 3.236710 
# 
# 
# High freq. dielectric constant tensor:
#      x y z
#    x 1.617060 0.000000 0.000000 
#    y 0.000000 1.651650 0.000000 
#    z 0.000000 0.000000 1.650620 
# 
# From -- ./inp_files/3101.got.cif
#   From: 2010.03.12/outbox.cif.g09.slc.cpg/sg63_2_cif.got.tgz:3101.got - 2010.04.10 19:34:48.
