data_PCOD8261393
_publ_section_title
;
Structure prediction by ZEFSAII (Michael W. Deem and Ramdas Pophale) SiO2 
 PCOD8261393
Probable space group: C M C A
;
_chemical_formula_sum "Si O2"
_cell_formula_units_Z 96
_cell_length_a 15.911900
_cell_length_b 25.765171
_cell_length_c 13.555501
_cell_angle_alpha 90.000000
_cell_angle_beta 90.000000
_cell_angle_gamma 90.000000
_cell_volume 5557.387032
_symmetry_space_group_name_H-M "C M C A"
_symmetry_group_IT_number 64
_symmetry_cell_setting 'orthorhombic'
loop_
_space_group_symop_operation_xyz
x,y,z
-x,1/2-y,1/2+z
x,-y,-z
-x,1/2+y,1/2-z
-x,-y,-z
x,1/2+y,1/2-z
-x,y,z
x,1/2-y,1/2+z
1/2+x,1/2+y,z
1/2-x,-y,1/2+z
1/2+x,1/2-y,-z
1/2-x,y,1/2-z
1/2-x,1/2-y,-z
1/2+x,y,1/2-z
1/2-x,1/2+y,z
1/2+x,-y,1/2+z
loop_
_atom_site_type_symbol
_atom_site_label
_atom_site_fract_x
_atom_site_fract_y
_atom_site_fract_z
Si Si1 0.403810 0.237475 0.656987
Si Si2 0.000000 0.081133 0.043900
Si Si3 0.339396 0.425479 0.220665
Si Si4 0.500000 0.519489 0.839984
Si Si5 0.148308 0.140490 0.971612
Si Si6 0.199485 0.800772 0.526658
Si Si7 0.099036 0.670630 0.838008
O O1 0.500000 0.254685 0.657590
O O2 0.391222 0.191836 0.577074
O O3 0.349126 0.288535 0.628860
O O4 0.375612 0.217450 0.764326
O O5 0.917357 0.116981 0.050029
O O6 0.000000 0.041465 0.135120
O O7 0.000000 0.052910 0.938884
O O8 0.250000 0.452065 0.250000
O O9 0.415680 0.467086 0.222075
O O10 0.356321 0.381580 0.302178
O O11 0.330609 0.401097 0.112467
O O12 0.233504 0.152410 0.033098
O O13 0.250000 0.750000 0.500000
O O14 0.129367 0.813839 0.445508
O O15 0.000000 0.661109 0.836389
#
# Coordination Sequence:
#
# PCOD8261393 Si02
#       7
#    16   8  16   8  16  16  16
#     4   9  17  28  43  66  97 134 175 205 233 278
#     4   9  16  30  46  65  98 116 152 191 256 306
#     4  10  16  27  46  70 100 121 154 199 263 304
#     4   9  18  28  46  77  92 117 148 197 250 326
#     4   9  16  26  43  64  93 131 154 199 245 288
#     4  10  19  27  42  70  97 129 179 202 230 288
#     4  10  18  30  46  66 100 137 164 205 253 286
#
# _framework density 17.274304999999998
#
# number of rings (size 3 to 8) (size 9 to 14) (size 15 to 20)
#    0.000    2.500    3.333    0.500    0.000    0.000 
#    0.000    0.000    0.000    0.000    8.667    0.000 
#    2.500    4.500    0.000    0.000    0.000    0.000 
#
# Total GULP energy -594920.751226 kJ/mol
# GULP energy per Si atom -12394.182317 kJ/mol
# Density = 1.723499 g / cm^3
# Si number density = 17.274305 Si / 1000 Ang^3
#
#
#
# Elastic Constant Matrix: (Units=GPa)
#
#
# Indices 1 2 3 4 5 6 
#
# 1 123.5279 39.6366 33.7456 0.0000 0.0000 0.0000
# 2 39.6366 46.0087 19.4002 0.0000 0.0000 0.0000
# 3 33.7456 19.4002 34.0838 0.0000 0.0000 0.0000
# 4 0.0000 0.0000 0.0000 12.9037 0.0000 0.0000
# 5 0.0000 0.0000 0.0000 0.0000 22.0199 0.0000
# 6 0.0000 0.0000 0.0000 0.0000 0.0000 19.5227
#
#
#
# Elastic Compliance Matrix: (Units=1/GPa)
#
#
# Indices 1 2 3 4 5 6 
#
# 1 0.012791 -0.007473 -0.008410 0.000000 0.000000 0.000000
# 2 -0.007473 0.032965 -0.011365 0.000000 0.000000 0.000000
# 3 -0.008410 -0.011365 0.044135 0.000000 0.000000 0.000000
# 4 0.000000 0.000000 0.000000 0.077497 0.000000 0.000000
# 5 0.000000 0.000000 0.000000 0.000000 0.045413 0.000000
# 6 0.000000 0.000000 0.000000 0.000000 0.000000 0.051222
#
#
# Mechanical properties :
#
#
# Convention : Reuss Voigt Hill
#
# Bulk Modulus (GPa) = 28.25259 43.24280 35.74769
# Shear Modulus (GPa) = 15.13693 18.27845 16.70769
#
# Velocity S-wave (km/s) = 2.96339 3.25642 3.11336
# Velocity P-wave (km/s) = 5.30092 6.26310 5.80199
#
# Compressibility (1/GPa) = 0.03539499
#
# Stress axis : x y z
#
# Youngs Moduli (GPa) = 78.18165 30.33514 22.65776
#
# Poissons Ratio (x) = 0.22669 0.19056
# Poissons Ratio (y) = 0.58425 0.25750
# Poissons Ratio (z) = 0.65753 0.34475
#
# Static dielectric constant tensor:
#      x y z
#    x 3.634810 0.000000 0.000000 
#    y 0.000000 3.145800 0.000000 
#    z 0.000000 0.000000 2.734330 
# 
# 
# High freq. dielectric constant tensor:
#      x y z
#    x 1.691090 0.000000 0.000000 
#    y 0.000000 1.625010 0.000000 
#    z 0.000000 0.000000 1.626070 
# 
# From -- ./inp_files/16281.got.cif
#   From: 2010.03.12/outbox.cif.g09.slc.cpg/sg64_9_cif.got.tgz:16281.got - 2010.04.10 20:19:32.
