data_PCOD8261306
_publ_section_title
;
Structure prediction by ZEFSAII (Michael W. Deem and Ramdas Pophale) SiO2 
 PCOD8261306
Probable space group: C M C M
;
_chemical_formula_sum "Si O2"
_cell_formula_units_Z 80
_cell_length_a 26.776485
_cell_length_b 18.523058
_cell_length_c 9.557880
_cell_angle_alpha 90.000000
_cell_angle_beta 90.000000
_cell_angle_gamma 90.000000
_cell_volume 4740.540115
_symmetry_space_group_name_H-M "C M C M"
_symmetry_group_IT_number 63
_symmetry_cell_setting 'orthorhombic'
loop_
_space_group_symop_operation_xyz
x,y,z
-x,-y,1/2+z
x,-y,-z
-x,y,1/2-z
-x,-y,-z
x,y,1/2-z
-x,y,z
x,-y,1/2+z
1/2+x,1/2+y,z
1/2-x,1/2-y,1/2+z
1/2+x,1/2-y,-z
1/2-x,1/2+y,1/2-z
1/2-x,1/2-y,-z
1/2+x,1/2+y,1/2-z
1/2-x,1/2+y,z
1/2+x,1/2-y,1/2+z
loop_
_atom_site_type_symbol
_atom_site_label
_atom_site_fract_x
_atom_site_fract_y
_atom_site_fract_z
Si Si1 0.600235 0.784700 0.914301
Si Si2 0.444959 0.639311 0.583534
Si Si3 0.058904 0.433000 0.589750
Si Si4 0.655793 0.568831 0.914371
Si Si5 0.795397 0.219822 0.587928
O O1 0.590411 0.787515 0.750000
O O2 0.566859 0.719320 0.976693
O O3 0.583665 0.861369 0.977610
O O4 0.657981 0.770925 0.948259
O O5 0.443421 0.643250 0.750000
O O6 0.500000 0.614352 0.530084
O O7 0.401286 0.584826 0.535301
O O8 0.078922 0.500000 0.500000
O O9 0.075287 0.445317 0.750000
O O10 0.000000 0.424274 0.576568
O O11 0.657665 0.551609 0.750000
O O12 0.691020 0.637052 0.950163
O O13 0.675781 0.500000 0.000000
O O14 0.781169 0.225225 0.750000
O O15 0.750000 0.250000 0.500000
#
# Coordination Sequence:
#
# PCOD8261306 Si02
#       5
#    16  16  16  16  16
#     4   8  14  26  44  64  86 113 147 184 218 258
#     4   8  13  23  42  67  91 116 148 182 212 249
#     4   9  16  26  42  64  89 117 146 176 215 262
#     4   9  18  31  47  69  95 120 147 180 219 264
#     4   9  18  33  51  69  88 113 149 190 228 265
#
# _framework density 16.875715
#
# number of rings (size 3 to 8) (size 9 to 14) (size 15 to 20)
#    0.000    3.400    0.000    3.000    0.000    3.600 
#    0.000    2.000    0.000    6.000    0.000    0.000 
#    0.000    0.000    0.000    0.000    0.000    0.000 
#
# Total GULP energy -495708.183675 kJ/mol
# GULP energy per Si atom -12392.704592 kJ/mol
# Density = 1.683731 g / cm^3
# Si number density = 16.875715 Si / 1000 Ang^3
#
#
#
# Elastic Constant Matrix: (Units=GPa)
#
#
# Indices 1 2 3 4 5 6 
#
# 1 76.8163 40.1439 32.0581 0.0000 0.0000 0.0000
# 2 40.1439 126.6994 43.9267 0.0000 0.0000 0.0000
# 3 32.0581 43.9267 40.2917 0.0000 0.0000 0.0000
# 4 0.0000 0.0000 0.0000 27.5419 0.0000 0.0000
# 5 0.0000 0.0000 0.0000 0.0000 21.0304 0.0000
# 6 0.0000 0.0000 0.0000 0.0000 0.0000 19.9541
#
#
#
# Elastic Compliance Matrix: (Units=1/GPa)
#
#
# Indices 1 2 3 4 5 6 
#
# 1 0.019621 -0.001293 -0.014201 0.000000 0.000000 0.000000
# 2 -0.001293 0.012774 -0.012898 0.000000 0.000000 0.000000
# 3 -0.014201 -0.012898 0.050180 0.000000 0.000000 0.000000
# 4 0.000000 0.000000 0.000000 0.036308 0.000000 0.000000
# 5 0.000000 0.000000 0.000000 0.000000 0.047550 0.000000
# 6 0.000000 0.000000 0.000000 0.000000 0.000000 0.050115
#
#
# Mechanical properties :
#
#
# Convention : Reuss Voigt Hill
#
# Bulk Modulus (GPa) = 38.77472 52.89610 45.83541
# Shear Modulus (GPa) = 17.73500 22.21720 19.97610
#
# Velocity S-wave (km/s) = 3.24530 3.63232 3.44425
# Velocity P-wave (km/s) = 6.08845 7.00030 6.56024
#
# Compressibility (1/GPa) = 0.02579000
#
# Stress axis : x y z
#
# Youngs Moduli (GPa) = 50.96706 78.28397 19.92840
#
# Poissons Ratio (x) = 0.10122 0.28301
# Poissons Ratio (y) = 0.06590 0.25703
# Poissons Ratio (z) = 0.72380 1.00968
#
# Static dielectric constant tensor:
#      x y z
#    x 3.121310 0.000000 0.000000 
#    y 0.000000 3.539690 0.000000 
#    z 0.000000 0.000000 2.918070 
# 
# 
# High freq. dielectric constant tensor:
#      x y z
#    x 1.640310 0.000000 0.000000 
#    y 0.000000 1.657670 0.000000 
#    z 0.000000 0.000000 1.605040 
# 
# From -- ./inp_files/11997.got.cif
#   From: 2010.03.12/outbox.cif.g09.slc.cpg/sg63_6_cif.got.tgz:11997.got - 2010.04.10 19:34:48.
