data_PCOD8261805
_publ_section_title
;
Structure prediction by ZEFSAII (Michael W. Deem and Ramdas Pophale) SiO2 
 PCOD8261805
Probable space group: C M C A
;
_chemical_formula_sum "Si O2"
_cell_formula_units_Z 80
_cell_length_a 16.751131
_cell_length_b 26.601026
_cell_length_c 8.358975
_cell_angle_alpha 90.000000
_cell_angle_beta 90.000000
_cell_angle_gamma 90.000000
_cell_volume 3724.736451
_symmetry_space_group_name_H-M "C M C A"
_symmetry_group_IT_number 64
_symmetry_cell_setting 'orthorhombic'
loop_
_space_group_symop_operation_xyz
x,y,z
-x,1/2-y,1/2+z
x,-y,-z
-x,1/2+y,1/2-z
-x,-y,-z
x,1/2+y,1/2-z
-x,y,z
x,1/2-y,1/2+z
1/2+x,1/2+y,z
1/2-x,-y,1/2+z
1/2+x,1/2-y,-z
1/2-x,y,1/2-z
1/2-x,1/2-y,-z
1/2+x,y,1/2-z
1/2-x,1/2+y,z
1/2+x,-y,1/2+z
loop_
_atom_site_type_symbol
_atom_site_label
_atom_site_fract_x
_atom_site_fract_y
_atom_site_fract_z
Si Si1 0.411637 0.698866 0.004290
Si Si2 0.095672 0.198586 0.358331
Si Si3 0.250000 0.455767 0.750000
Si Si4 0.365586 0.600287 0.858248
Si Si5 0.859803 0.000000 0.000000
Si Si6 0.811398 0.110910 0.518208
O O1 0.500000 0.716871 0.048363
O O2 0.371674 0.688987 0.177613
O O3 0.375027 0.745295 0.905411
O O4 0.417967 0.649222 0.894110
O O5 0.145220 0.162562 0.475198
O O6 0.000000 0.188949 0.376083
O O7 0.195515 0.493304 0.652463
O O8 0.310763 0.424331 0.638028
O O9 0.405273 0.551965 0.953258
O O10 0.280359 0.617079 0.930761
O O11 0.360677 0.588135 0.669104
#
# Coordination Sequence:
#
# PCOD8261805 Si02
#       6
#    16  16   8  16   8  16
#     4  10  21  37  56  79 108 141 176 215 263 318
#     4  10  20  35  56  79 106 141 175 212 264 321
#     4  10  18  32  54  78 108 138 174 220 262 312
#     4  10  21  35  54  80 107 140 179 220 263 309
#     4  10  18  32  53  78 105 140 178 216 266 310
#     4  10  20  34  54  82 109 138 176 218 263 313
#
# _framework density 21.478027999999998
#
# number of rings (size 3 to 8) (size 9 to 14) (size 15 to 20)
#    0.000    2.000    0.000    6.000    0.000    3.200 
#    0.000    2.500    0.000    1.200    0.000   22.400 
#    0.000    0.000    0.000    0.000    0.000    0.000 
#
# Total GULP energy -495533.290034 kJ/mol
# GULP energy per Si atom -12388.332251 kJ/mol
# Density = 2.142914 g / cm^3
# Si number density = 21.478028 Si / 1000 Ang^3
#
#
#
# Elastic Constant Matrix: (Units=GPa)
#
#
# Indices 1 2 3 4 5 6 
#
# 1 28.9221 14.2280 11.1573 0.0000 0.0000 0.0000
# 2 14.2280 135.5226 42.4667 0.0000 0.0000 0.0000
# 3 11.1573 42.4667 140.3655 0.0000 0.0000 0.0000
# 4 0.0000 0.0000 0.0000 46.6762 0.0000 0.0000
# 5 0.0000 0.0000 0.0000 0.0000 20.6472 0.0000
# 6 0.0000 0.0000 0.0000 0.0000 0.0000 35.5028
#
#
#
# Elastic Compliance Matrix: (Units=1/GPa)
#
#
# Indices 1 2 3 4 5 6 
#
# 1 0.036934 -0.003267 -0.001947 0.000000 0.000000 0.000000
# 2 -0.003267 0.008441 -0.002294 0.000000 0.000000 0.000000
# 3 -0.001947 -0.002294 0.007973 0.000000 0.000000 0.000000
# 4 0.000000 0.000000 0.000000 0.021424 0.000000 0.000000
# 5 0.000000 0.000000 0.000000 0.000000 0.048433 0.000000
# 6 0.000000 0.000000 0.000000 0.000000 0.000000 0.028167
#
#
# Mechanical properties :
#
#
# Convention : Reuss Voigt Hill
#
# Bulk Modulus (GPa) = 26.08873 48.94602 37.51737
# Shear Modulus (GPa) = 27.90709 36.36243 32.13476
#
# Velocity S-wave (km/s) = 3.60854 4.11908 3.87223
# Velocity P-wave (km/s) = 5.43462 6.74246 6.12356
#
# Compressibility (1/GPa) = 0.03833073
#
# Stress axis : x y z
#
# Youngs Moduli (GPa) = 27.07515 118.47360 125.42220
#
# Poissons Ratio (x) = 0.38710 0.24423
# Poissons Ratio (y) = 0.08846 0.28771
# Poissons Ratio (z) = 0.05272 0.27177
#
# Static dielectric constant tensor:
#      x y z
#    x 3.387800 0.000000 0.000000 
#    y 0.000000 3.871740 0.000000 
#    z 0.000000 0.000000 1.067350 
# 
# 
# High freq. dielectric constant tensor:
#      x y z
#    x 1.792970 0.000000 0.000000 
#    y 0.000000 1.851260 0.000000 
#    z 0.000000 0.000000 1.866010 
# 
# From -- ./inp_files/7151.got.cif
#   From: 2010.03.12/outbox.cif.g09.slc.cpg/sg64_4_cif.got.tgz:7151.got - 2010.04.10 20:19:32.
