data_PCOD8261575
_publ_section_title
;
Structure prediction by ZEFSAII (Michael W. Deem and Ramdas Pophale) SiO2 
 PCOD8261575
Probable space group: C M C A
;
_chemical_formula_sum "Si O2"
_cell_formula_units_Z 112
_cell_length_a 18.041319
_cell_length_b 18.278330
_cell_length_c 18.621245
_cell_angle_alpha 90.000000
_cell_angle_beta 90.000000
_cell_angle_gamma 90.000000
_cell_volume 6140.638252
_symmetry_space_group_name_H-M "C M C A"
_symmetry_group_IT_number 64
_symmetry_cell_setting 'orthorhombic'
loop_
_space_group_symop_operation_xyz
x,y,z
-x,1/2-y,1/2+z
x,-y,-z
-x,1/2+y,1/2-z
-x,-y,-z
x,1/2+y,1/2-z
-x,y,z
x,1/2-y,1/2+z
1/2+x,1/2+y,z
1/2-x,-y,1/2+z
1/2+x,1/2-y,-z
1/2-x,y,1/2-z
1/2-x,1/2-y,-z
1/2+x,y,1/2-z
1/2-x,1/2+y,z
1/2+x,-y,1/2+z
loop_
_atom_site_type_symbol
_atom_site_label
_atom_site_fract_x
_atom_site_fract_y
_atom_site_fract_z
Si Si1 0.793453 0.507515 0.821143
Si Si2 0.081642 0.343809 0.378909
Si Si3 0.805767 0.742213 0.898931
Si Si4 0.583344 0.285508 0.517650
Si Si5 0.294403 0.380333 0.579274
Si Si6 0.218169 0.901824 0.058954
Si Si7 0.336037 0.149582 0.769086
O O1 0.750000 0.483671 0.750000
O O2 0.823125 0.432629 0.856579
O O3 0.739662 0.541011 0.880728
O O4 0.856708 0.569413 0.803738
O O5 0.077349 0.263328 0.411669
O O6 0.129483 0.395240 0.431790
O O7 0.115323 0.334205 0.299791
O O8 0.000000 0.378794 0.372798
O O9 0.754755 0.813757 0.888650
O O10 0.752011 0.679084 0.928156
O O11 0.844099 0.716920 0.824290
O O12 0.873084 0.757303 0.954107
O O13 0.500000 0.307308 0.491885
O O14 0.630504 0.356880 0.538651
O O15 0.243085 0.424695 0.521346
O O16 0.250000 0.139684 0.750000
#
# Coordination Sequence:
#
# PCOD8261575 Si02
#       7
#    16  16  16  16  16  16  16
#     4  10  20  32  54  78 108 137 186 225 271 307
#     4  11  19  32  58  82 104 141 184 222 265 320
#     4  10  18  32  58  77 105 137 183 226 271 322
#     4  10  20  34  53  81 115 142 174 227 279 322
#     4  11  19  32  55  86 104 141 184 229 278 324
#     4  10  17  36  54  78 103 139 185 229 255 321
#     4  10  18  35  54  77 105 141 186 225 257 320
#
# _framework density 18.239146000000002
#
# number of rings (size 3 to 8) (size 9 to 14) (size 15 to 20)
#    0.000    1.714    7.143    1.286    0.000    2.286 
#    0.000    0.714    0.000   13.714    0.000    0.000 
#    0.000    0.000    0.000    0.000    0.000    0.000 
#
# Total GULP energy -693910.017371 kJ/mol
# GULP energy per Si atom -12391.250310 kJ/mol
# Density = 1.819763 g / cm^3
# Si number density = 18.239146 Si / 1000 Ang^3
#
#
#
# Elastic Constant Matrix: (Units=GPa)
#
#
# Indices 1 2 3 4 5 6 
#
# 1 105.9248 18.5792 28.2959 0.0000 0.0000 0.0000
# 2 18.5792 61.3247 32.8115 0.0000 0.0000 0.0000
# 3 28.2959 32.8115 99.2510 0.0000 0.0000 0.0000
# 4 0.0000 0.0000 0.0000 30.5162 0.0000 0.0000
# 5 0.0000 0.0000 0.0000 0.0000 23.6807 0.0000
# 6 0.0000 0.0000 0.0000 0.0000 0.0000 10.7312
#
#
#
# Elastic Compliance Matrix: (Units=1/GPa)
#
#
# Indices 1 2 3 4 5 6 
#
# 1 0.010398 -0.001900 -0.002336 0.000000 0.000000 0.000000
# 2 -0.001900 0.020158 -0.006122 0.000000 0.000000 0.000000
# 3 -0.002336 -0.006122 0.012765 0.000000 0.000000 0.000000
# 4 0.000000 0.000000 0.000000 0.032770 0.000000 0.000000
# 5 0.000000 0.000000 0.000000 0.000000 0.042229 0.000000
# 6 0.000000 0.000000 0.000000 0.000000 0.000000 0.093186
#
#
# Mechanical properties :
#
#
# Convention : Reuss Voigt Hill
#
# Bulk Modulus (GPa) = 44.23990 47.31927 45.77958
# Shear Modulus (GPa) = 20.85436 25.43988 23.14712
#
# Velocity S-wave (km/s) = 3.38507 3.73875 3.56629
# Velocity P-wave (km/s) = 6.29177 6.68115 6.48938
#
# Compressibility (1/GPa) = 0.02260403
#
# Stress axis : x y z
#
# Youngs Moduli (GPa) = 96.17195 49.60791 78.33623
#
# Poissons Ratio (x) = 0.09427 0.18301
# Poissons Ratio (y) = 0.18275 0.47960
# Poissons Ratio (z) = 0.22468 0.30372
#
# Static dielectric constant tensor:
#      x y z
#    x 3.349710 0.000000 0.000000 
#    y 0.000000 3.355450 0.000000 
#    z 0.000000 0.000000 3.751700 
# 
# 
# High freq. dielectric constant tensor:
#      x y z
#    x 1.674160 0.000000 0.000000 
#    y 0.000000 1.690320 0.000000 
#    z 0.000000 0.000000 1.719880 
# 
# From -- ./inp_files/40405.got.cif
#   From: 2010.03.12/outbox.cif.g09.slc.cpg/sg64_21_cif.got.tgz:40405.got - 2010.04.10 20:19:32.
