data_PCOD8261787
_publ_section_title
;
Structure prediction by ZEFSAII (Michael W. Deem and Ramdas Pophale) SiO2 
 PCOD8261787
Probable space group: C M C A
;
_chemical_formula_sum "Si O2"
_cell_formula_units_Z 96
_cell_length_a 8.849666
_cell_length_b 23.735253
_cell_length_c 25.589352
_cell_angle_alpha 90.000000
_cell_angle_beta 90.000000
_cell_angle_gamma 90.000000
_cell_volume 5375.019371
_symmetry_space_group_name_H-M "C M C A"
_symmetry_group_IT_number 64
_symmetry_cell_setting 'orthorhombic'
loop_
_space_group_symop_operation_xyz
x,y,z
-x,1/2-y,1/2+z
x,-y,-z
-x,1/2+y,1/2-z
-x,-y,-z
x,1/2+y,1/2-z
-x,y,z
x,1/2-y,1/2+z
1/2+x,1/2+y,z
1/2-x,-y,1/2+z
1/2+x,1/2-y,-z
1/2-x,y,1/2-z
1/2-x,1/2-y,-z
1/2+x,y,1/2-z
1/2-x,1/2+y,z
1/2+x,-y,1/2+z
loop_
_atom_site_type_symbol
_atom_site_label
_atom_site_fract_x
_atom_site_fract_y
_atom_site_fract_z
Si Si1 0.322932 0.172859 0.694396
Si Si2 0.821281 0.762648 0.608667
Si Si3 0.820706 0.515851 0.058466
Si Si4 0.828918 0.182350 0.532270
Si Si5 0.321024 0.633792 0.069567
Si Si6 0.168183 0.408835 0.122511
O O1 0.500000 0.171617 0.701276
O O2 0.250000 0.183365 0.750000
O O3 0.270169 0.224386 0.657384
O O4 0.272605 0.113084 0.669758
O O5 0.758214 0.737360 0.553859
O O6 0.747640 0.824671 0.614170
O O7 0.000000 0.767111 0.605243
O O8 0.738134 0.571125 0.079591
O O9 0.770048 0.467098 0.098640
O O10 0.000000 0.525467 0.058467
O O11 0.766381 0.500000 0.000000
O O12 0.736035 0.154558 0.486163
O O13 0.834845 0.136449 0.577123
O O14 0.000000 0.198161 0.514760
O O15 0.500000 0.634888 0.072430
O O16 0.000000 0.417580 0.145142
#
# Coordination Sequence:
#
# PCOD8261787 Si02
#       6
#    16  16  16  16  16  16
#     4  10  21  37  60  84 106 132 170 220 275 324
#     4  10  21  36  52  75 104 137 176 220 266 318
#     4  10  19  35  54  75 106 148 187 218 259 310
#     4  10  18  32  51  73 104 142 179 218 260 311
#     4  12  23  32  47  74 108 147 182 217 259 310
#     4   9  18  33  55  79 106 140 179 220 264 311
#
# _framework density 17.860399999999998
#
# number of rings (size 3 to 8) (size 9 to 14) (size 15 to 20)
#    0.000    1.833    1.667    3.500    0.000    3.667 
#    0.000    0.000    0.000    1.000    0.000    4.667 
#    0.000    0.000    0.000    0.000    0.000    0.000 
#
# Total GULP energy -595226.026215 kJ/mol
# GULP energy per Si atom -12400.542213 kJ/mol
# Density = 1.781975 g / cm^3
# Si number density = 17.860400 Si / 1000 Ang^3
#
#
#
# Elastic Constant Matrix: (Units=GPa)
#
#
# Indices 1 2 3 4 5 6 
#
# 1 85.7853 50.2744 32.2630 0.0000 0.0000 0.0000
# 2 50.2744 111.2878 25.7828 0.0000 0.0000 0.0000
# 3 32.2630 25.7828 75.8506 0.0000 0.0000 0.0000
# 4 0.0000 0.0000 0.0000 10.7895 0.0000 0.0000
# 5 0.0000 0.0000 0.0000 0.0000 23.6560 0.0000
# 6 0.0000 0.0000 0.0000 0.0000 0.0000 31.1295
#
#
#
# Elastic Compliance Matrix: (Units=1/GPa)
#
#
# Indices 1 2 3 4 5 6 
#
# 1 0.017546 -0.006727 -0.005177 0.000000 0.000000 0.000000
# 2 -0.006727 0.012333 -0.001331 0.000000 0.000000 0.000000
# 3 -0.005177 -0.001331 0.015838 0.000000 0.000000 0.000000
# 4 0.000000 0.000000 0.000000 0.092682 0.000000 0.000000
# 5 0.000000 0.000000 0.000000 0.000000 0.042273 0.000000
# 6 0.000000 0.000000 0.000000 0.000000 0.000000 0.032124
#
#
# Mechanical properties :
#
#
# Convention : Reuss Voigt Hill
#
# Bulk Modulus (GPa) = 51.95306 54.39601 53.17453
# Shear Modulus (GPa) = 20.35152 24.08857 22.22005
#
# Velocity S-wave (km/s) = 3.37928 3.67647 3.53100
# Velocity P-wave (km/s) = 6.66165 6.96737 6.81622
#
# Compressibility (1/GPa) = 0.01924814
#
# Stress axis : x y z
#
# Youngs Moduli (GPa) = 56.99166 81.08267 63.13913
#
# Poissons Ratio (x) = 0.54547 0.32685
# Poissons Ratio (y) = 0.38340 0.08402
# Poissons Ratio (z) = 0.29503 0.10790
#
# Static dielectric constant tensor:
#      x y z
#    x 3.414230 0.000000 0.000000 
#    y 0.000000 3.607520 0.000000 
#    z 0.000000 0.000000 3.140210 
# 
# 
# High freq. dielectric constant tensor:
#      x y z
#    x 1.698560 0.000000 0.000000 
#    y 0.000000 1.698830 0.000000 
#    z 0.000000 0.000000 1.658740 
# 
# From -- ./inp_files/48395.got.cif
#   From: 2010.03.12/outbox.cif.g09.slc.cpg/sg64_25_cif.got.tgz:48395.got - 2010.04.10 20:19:32.
