data_PCOD8261801
_publ_section_title
;
Structure prediction by ZEFSAII (Michael W. Deem and Ramdas Pophale) SiO2 
 PCOD8261801
Probable space group: C M C A
;
_chemical_formula_sum "Si O2"
_cell_formula_units_Z 80
_cell_length_a 8.803968
_cell_length_b 19.780282
_cell_length_c 27.273723
_cell_angle_alpha 90.000000
_cell_angle_beta 90.000000
_cell_angle_gamma 90.000000
_cell_volume 4749.581667
_symmetry_space_group_name_H-M "C M C A"
_symmetry_group_IT_number 64
_symmetry_cell_setting 'orthorhombic'
loop_
_space_group_symop_operation_xyz
x,y,z
-x,1/2-y,1/2+z
x,-y,-z
-x,1/2+y,1/2-z
-x,-y,-z
x,1/2+y,1/2-z
-x,y,z
x,1/2-y,1/2+z
1/2+x,1/2+y,z
1/2-x,-y,1/2+z
1/2+x,1/2-y,-z
1/2-x,y,1/2-z
1/2-x,1/2-y,-z
1/2+x,y,1/2-z
1/2-x,1/2+y,z
1/2+x,-y,1/2+z
loop_
_atom_site_type_symbol
_atom_site_label
_atom_site_fract_x
_atom_site_fract_y
_atom_site_fract_z
Si Si1 0.319774 0.009068 0.698111
Si Si2 0.321222 0.299949 0.933516
Si Si3 0.672416 0.589621 0.368390
Si Si4 0.827736 0.944989 0.393497
Si Si5 0.321210 0.836047 0.457351
O O1 0.500000 0.008767 0.700857
O O2 0.250000 0.029285 0.750000
O O3 0.257506 0.934810 0.681463
O O4 0.261379 0.064834 0.658365
O O5 0.500000 0.293182 0.928568
O O6 0.259624 0.347249 0.890749
O O7 0.248515 0.226167 0.926910
O O8 0.272858 0.330920 0.985889
O O9 0.500000 0.610700 0.355807
O O10 0.674221 0.525535 0.406153
O O11 0.744097 0.905954 0.436942
O O12 0.000000 0.918489 0.387872
O O13 0.500000 0.834882 0.450791
#
# Coordination Sequence:
#
# PCOD8261801 Si02
#       5
#    16  16  16  16  16
#     4  10  18  32  53  76 101 128 162 203 251 299
#     4  10  20  33  50  72 101 137 172 206 247 295
#     4   9  19  33  50  75 101 130 167 207 249 292
#     4   9  19  33  50  75 101 130 167 207 249 292
#     4  10  20  33  50  72 101 137 172 206 247 295
#
# _framework density 16.843588
#
# number of rings (size 3 to 8) (size 9 to 14) (size 15 to 20)
#    1.200    1.200    0.000    3.600    0.000    3.200 
#    0.000    4.000    0.000    1.200    0.000    8.400 
#    0.000    0.000    0.000    0.000    0.000    0.000 
#
# Total GULP energy -495742.541627 kJ/mol
# GULP energy per Si atom -12393.563541 kJ/mol
# Density = 1.680525 g / cm^3
# Si number density = 16.843588 Si / 1000 Ang^3
#
#
#
# Elastic Constant Matrix: (Units=GPa)
#
#
# Indices 1 2 3 4 5 6 
#
# 1 103.1609 8.1265 14.4990 0.0000 0.0000 0.0000
# 2 8.1265 26.3197 -5.5101 0.0000 0.0000 0.0000
# 3 14.4990 -5.5101 29.8548 0.0000 0.0000 0.0000
# 4 0.0000 0.0000 0.0000 17.5486 0.0000 0.0000
# 5 0.0000 0.0000 0.0000 0.0000 29.7518 0.0000
# 6 0.0000 0.0000 0.0000 0.0000 0.0000 31.2472
#
#
#
# Elastic Compliance Matrix: (Units=1/GPa)
#
#
# Indices 1 2 3 4 5 6 
#
# 1 0.010928 -0.004665 -0.006168 0.000000 0.000000 0.000000
# 2 -0.004665 0.041513 0.009928 0.000000 0.000000 0.000000
# 3 -0.006168 0.009928 0.038323 0.000000 0.000000 0.000000
# 4 0.000000 0.000000 0.000000 0.056984 0.000000 0.000000
# 5 0.000000 0.000000 0.000000 0.000000 0.033611 0.000000
# 6 0.000000 0.000000 0.000000 0.000000 0.000000 0.032003
#
#
# Mechanical properties :
#
#
# Convention : Reuss Voigt Hill
#
# Bulk Modulus (GPa) = 11.24201 21.50737 16.37469
# Shear Modulus (GPa) = 20.42262 25.19085 22.80674
#
# Velocity S-wave (km/s) = 3.48586 3.87146 3.68371
# Velocity P-wave (km/s) = 4.78439 5.72546 5.27595
#
# Compressibility (1/GPa) = 0.08895207
#
# Stress axis : x y z
#
# Youngs Moduli (GPa) = 91.50763 24.08873 26.09379
#
# Poissons Ratio (x) = 0.11239 0.16095
# Poissons Ratio (y) = 0.42693 -0.25905
# Poissons Ratio (z) = 0.56444 -0.23914
#
# Static dielectric constant tensor:
#      x y z
#    x 3.250560 0.000000 0.000000 
#    y 0.000000 2.953950 0.000000 
#    z 0.000000 0.000000 2.971200 
# 
# 
# High freq. dielectric constant tensor:
#      x y z
#    x 1.672540 0.000000 0.000000 
#    y 0.000000 1.626540 0.000000 
#    z 0.000000 0.000000 1.624520 
# 
# From -- ./inp_files/51937.got.cif
#   From: 2010.03.12/outbox.cif.g09.slc.cpg/sg64_26_cif.got.tgz:51937.got - 2010.04.10 20:19:32.
