data_PCOD8261570
_publ_section_title
;
Structure prediction by ZEFSAII (Michael W. Deem and Ramdas Pophale) SiO2 
 PCOD8261570
Probable space group: C M C A
;
_chemical_formula_sum "Si O2"
_cell_formula_units_Z 64
_cell_length_a 18.060857
_cell_length_b 17.064138
_cell_length_c 12.143426
_cell_angle_alpha 90.000000
_cell_angle_beta 90.000000
_cell_angle_gamma 90.000000
_cell_volume 3742.518358
_symmetry_space_group_name_H-M "C M C A"
_symmetry_group_IT_number 64
_symmetry_cell_setting 'orthorhombic'
loop_
_space_group_symop_operation_xyz
x,y,z
-x,1/2-y,1/2+z
x,-y,-z
-x,1/2+y,1/2-z
-x,-y,-z
x,1/2+y,1/2-z
-x,y,z
x,1/2-y,1/2+z
1/2+x,1/2+y,z
1/2-x,-y,1/2+z
1/2+x,1/2-y,-z
1/2-x,y,1/2-z
1/2-x,1/2-y,-z
1/2+x,y,1/2-z
1/2-x,1/2+y,z
1/2+x,-y,1/2+z
loop_
_atom_site_type_symbol
_atom_site_label
_atom_site_fract_x
_atom_site_fract_y
_atom_site_fract_z
Si Si1 0.617640 0.972774 0.829944
Si Si2 0.500000 0.833018 0.336314
Si Si3 0.877966 0.947750 0.094562
Si Si4 0.238842 0.000000 0.500000
Si Si5 0.000000 0.592258 0.894613
Si Si6 0.500000 0.849361 0.870204
O O1 0.573384 0.890935 0.821919
O O2 0.629554 0.002839 0.706716
O O3 0.571452 0.036887 0.898096
O O4 0.692766 0.961742 0.899682
O O5 0.574540 0.868732 0.390818
O O6 0.500000 0.851751 0.208776
O O7 0.500000 0.740693 0.340213
O O8 0.793375 0.932039 0.051398
O O9 0.918575 0.000000 0.000000
O O10 0.000000 0.648207 0.998488
#
# Coordination Sequence:
#
# PCOD8261570 Si02
#       6
#    16   8  16   8   8   8
#     4  10  17  35  56  83  99 133 193 206 258 303
#     4  10  21  36  49  83 109 135 173 206 286 305
#     4   9  21  33  56  77 106 143 172 222 248 311
#     4  10  18  32  60  78 100 142 180 214 250 304
#     4   9  18  34  56  75 101 143 173 226 243 305
#     4  11  20  32  60  78 106 135 167 236 251 306
#
# _framework density 17.100784000000001
#
# number of rings (size 3 to 8) (size 9 to 14) (size 15 to 20)
#    0.750    1.500    2.500    2.625    0.000    2.000 
#    0.000    1.250    0.000    3.000    0.000    0.000 
#    0.000    0.000    0.000    0.000    0.000    0.000 
#
# Total GULP energy -396441.954455 kJ/mol
# GULP energy per Si atom -12388.811077 kJ/mol
# Density = 1.706186 g / cm^3
# Si number density = 17.100784 Si / 1000 Ang^3
#
#
#
# Elastic Constant Matrix: (Units=GPa)
#
#
# Indices 1 2 3 4 5 6 
#
# 1 123.2974 51.2932 38.4217 0.0000 0.0000 0.0000
# 2 51.2932 123.6121 34.8073 0.0000 0.0000 0.0000
# 3 38.4217 34.8073 88.2010 0.0000 0.0000 0.0000
# 4 0.0000 0.0000 0.0000 19.2777 0.0000 0.0000
# 5 0.0000 0.0000 0.0000 0.0000 9.9155 0.0000
# 6 0.0000 0.0000 0.0000 0.0000 0.0000 9.4231
#
#
#
# Elastic Compliance Matrix: (Units=1/GPa)
#
#
# Indices 1 2 3 4 5 6 
#
# 1 0.010562 -0.003473 -0.003230 0.000000 0.000000 0.000000
# 2 -0.003473 0.010243 -0.002529 0.000000 0.000000 0.000000
# 3 -0.003230 -0.002529 0.013743 0.000000 0.000000 0.000000
# 4 0.000000 0.000000 0.000000 0.051873 0.000000 0.000000
# 5 0.000000 0.000000 0.000000 0.000000 0.100853 0.000000
# 6 0.000000 0.000000 0.000000 0.000000 0.000000 0.106122
#
#
# Mechanical properties :
#
#
# Convention : Reuss Voigt Hill
#
# Bulk Modulus (GPa) = 62.17894 64.90609 63.54252
# Shear Modulus (GPa) = 15.76179 21.76248 18.76214
#
# Velocity S-wave (km/s) = 3.03924 3.57122 3.31592
# Velocity P-wave (km/s) = 6.98249 7.41905 7.20408
#
# Compressibility (1/GPa) = 0.01608261
#
# Stress axis : x y z
#
# Youngs Moduli (GPa) = 94.67949 97.62534 72.76365
#
# Poissons Ratio (x) = 0.33906 0.23505
# Poissons Ratio (y) = 0.32883 0.18405
# Poissons Ratio (z) = 0.30585 0.24693
#
# Static dielectric constant tensor:
#      x y z
#    x 3.350770 0.000000 0.000000 
#    y 0.000000 2.749300 0.000000 
#    z 0.000000 0.000000 3.393610 
# 
# 
# High freq. dielectric constant tensor:
#      x y z
#    x 1.664380 0.000000 0.000000 
#    y 0.000000 1.609520 0.000000 
#    z 0.000000 0.000000 1.686350 
# 
# From -- ./inp_files/15574.got.cif
#   From: 2010.03.12/outbox.cif.g09.slc.cpg/sg64_8_cif.got.tgz:15574.got - 2010.04.10 20:19:32.
