data_PCOD8261830
_publ_section_title
;
Structure prediction by ZEFSAII (Michael W. Deem and Ramdas Pophale) SiO2 
 PCOD8261830
Probable space group: C M C A
;
_chemical_formula_sum "Si O2"
_cell_formula_units_Z 72
_cell_length_a 16.859921
_cell_length_b 15.346494
_cell_length_c 14.658844
_cell_angle_alpha 90.000000
_cell_angle_beta 90.000000
_cell_angle_gamma 90.000000
_cell_volume 3792.839213
_symmetry_space_group_name_H-M "C M C A"
_symmetry_group_IT_number 64
_symmetry_cell_setting 'orthorhombic'
loop_
_space_group_symop_operation_xyz
x,y,z
-x,1/2-y,1/2+z
x,-y,-z
-x,1/2+y,1/2-z
-x,-y,-z
x,1/2+y,1/2-z
-x,y,z
x,1/2-y,1/2+z
1/2+x,1/2+y,z
1/2-x,-y,1/2+z
1/2+x,1/2-y,-z
1/2-x,y,1/2-z
1/2-x,1/2-y,-z
1/2+x,y,1/2-z
1/2-x,1/2+y,z
1/2+x,-y,1/2+z
loop_
_atom_site_type_symbol
_atom_site_label
_atom_site_fract_x
_atom_site_fract_y
_atom_site_fract_z
Si Si1 0.162428 0.795374 0.821546
Si Si2 0.676676 0.278044 0.130972
Si Si3 0.750000 0.451633 0.750000
Si Si4 0.773471 0.935554 0.418657
Si Si5 0.589282 0.697408 0.531392
O O1 0.242026 0.775739 0.879642
O O2 0.150077 0.728392 0.736872
O O3 0.174832 0.893800 0.786047
O O4 0.092653 0.776536 0.893714
O O5 0.695530 0.376665 0.100210
O O6 0.609971 0.235589 0.067653
O O7 0.789840 0.509211 0.828069
O O8 0.852605 0.880919 0.440368
O O9 0.751561 0.000000 0.500000
O O10 0.500000 0.661165 0.527539
#
# Coordination Sequence:
#
# PCOD8261830 Si02
#       5
#    16  16   8  16  16
#     4   9  18  36  57  75  98 136 181 215 250 304
#     4   9  18  35  55  75  99 134 180 214 246 300
#     4  10  18  32  58  82  98 122 174 232 264 288
#     4  11  19  32  55  80 103 128 170 225 266 295
#     4  11  22  35  51  75 110 145 171 200 251 320
#
# _framework density 18.983139999999999
#
# number of rings (size 3 to 8) (size 9 to 14) (size 15 to 20)
#    0.000    2.222    0.000    9.333    0.000    1.333 
#    0.000    1.111    0.000    6.000    0.000    0.000 
#    0.000    0.000    0.000    0.000    0.000    0.000 
#
# Total GULP energy -446146.013094 kJ/mol
# GULP energy per Si atom -12392.944808 kJ/mol
# Density = 1.893993 g / cm^3
# Si number density = 18.983140 Si / 1000 Ang^3
#
#
#
# Elastic Constant Matrix: (Units=GPa)
#
#
# Indices 1 2 3 4 5 6 
#
# 1 61.8788 20.9206 45.0891 0.0000 0.0000 0.0000
# 2 20.9206 94.3324 42.3103 0.0000 0.0000 0.0000
# 3 45.0891 42.3103 109.4383 0.0000 0.0000 0.0000
# 4 0.0000 0.0000 0.0000 43.9841 0.0000 0.0000
# 5 0.0000 0.0000 0.0000 0.0000 14.2878 0.0000
# 6 0.0000 0.0000 0.0000 0.0000 0.0000 -12.1989
#
#
#
# Elastic Compliance Matrix: (Units=1/GPa)
#
#
# Indices 1 2 3 4 5 6 
#
# 1 0.023177 -0.001037 -0.009148 0.000000 0.000000 0.000000
# 2 -0.001037 0.012871 -0.004549 0.000000 0.000000 0.000000
# 3 -0.009148 -0.004549 0.014665 0.000000 0.000000 0.000000
# 4 0.000000 0.000000 0.000000 0.022735 0.000000 0.000000
# 5 0.000000 0.000000 0.000000 0.000000 0.069990 0.000000
# 6 0.000000 0.000000 0.000000 0.000000 0.000000 -0.081975
#
#
# Mechanical properties :
#
#
# Convention : Reuss Voigt Hill
#
# Bulk Modulus (GPa) = 47.06882 53.58772 50.32827
# Shear Modulus (GPa) = 51.01313 19.70325 35.35819
#
# Velocity S-wave (km/s) = 5.18953 3.22519 4.32048
# Velocity P-wave (km/s) = 7.79469 6.49304 7.17345
#
# Compressibility (1/GPa) = 0.02124549
#
# Stress axis : x y z
#
# Youngs Moduli (GPa) = 43.14586 77.69370 68.18804
#
# Poissons Ratio (x) = 0.08056 0.62380
# Poissons Ratio (y) = 0.04474 0.31018
# Poissons Ratio (z) = 0.39471 0.35342
#
# Static dielectric constant tensor:
#      x y z
#    x 3.044810 0.000000 0.000000 
#    y 0.000000 3.666740 0.000000 
#    z 0.000000 0.000000 3.790000 
# 
# 
# High freq. dielectric constant tensor:
#      x y z
#    x 1.679630 0.000000 0.000000 
#    y 0.000000 1.733820 0.000000 
#    z 0.000000 0.000000 1.766150 
# 
# From -- ./inp_files/25125.got.cif
#   From: 2010.03.12/outbox.cif.g09.slc.cpg/sg64_13_cif.got.tgz:25125.got - 2010.04.10 20:19:32.
