data_PCOD8261197
_publ_section_title
;
Structure prediction by ZEFSAII (Michael W. Deem and Ramdas Pophale) SiO2 
 PCOD8261197
Probable space group: C M C M
;
_chemical_formula_sum "Si O2"
_cell_formula_units_Z 80
_cell_length_a 9.221456
_cell_length_b 14.698764
_cell_length_c 29.932238
_cell_angle_alpha 90.000000
_cell_angle_beta 90.000000
_cell_angle_gamma 90.000000
_cell_volume 4057.135432
_symmetry_space_group_name_H-M "C M C M"
_symmetry_group_IT_number 63
_symmetry_cell_setting 'orthorhombic'
loop_
_space_group_symop_operation_xyz
x,y,z
-x,-y,1/2+z
x,-y,-z
-x,y,1/2-z
-x,-y,-z
x,y,1/2-z
-x,y,z
x,-y,1/2+z
1/2+x,1/2+y,z
1/2-x,1/2-y,1/2+z
1/2+x,1/2-y,-z
1/2-x,1/2+y,1/2-z
1/2-x,1/2-y,-z
1/2+x,1/2+y,1/2-z
1/2-x,1/2+y,z
1/2+x,1/2-y,1/2+z
loop_
_atom_site_type_symbol
_atom_site_label
_atom_site_fract_x
_atom_site_fract_y
_atom_site_fract_z
Si Si1 0.834697 0.606645 0.606187
Si Si2 0.667194 0.105599 0.116274
Si Si3 0.829033 0.755942 0.046744
Si Si4 0.168783 0.094505 0.201198
Si Si5 0.663858 0.088641 0.797606
O O1 0.796948 0.499412 0.605839
O O2 0.724902 0.655098 0.572937
O O3 0.811409 0.646635 0.656980
O O4 0.000000 0.623133 0.590147
O O5 0.500000 0.120427 0.126656
O O6 0.714735 0.165547 0.073959
O O7 0.750182 0.143511 0.160191
O O8 0.000000 0.764193 0.039167
O O9 0.750000 0.750000 0.000000
O O10 0.200365 0.140195 0.250000
O O11 0.000000 0.096673 0.190370
O O12 0.220182 0.990895 0.203284
O O13 0.677768 0.143832 0.750000
O O14 0.500000 0.047354 0.801227
#
# Coordination Sequence:
#
# PCOD8261197 Si02
#       5
#    16  16  16  16  16
#     4   9  18  35  58  82 109 143 181 220 262 312
#     4   9  20  38  58  79 108 147 182 213 261 326
#     4  11  24  41  59  80 106 137 177 226 277 326
#     4   9  16  26  46  79 113 142 176 220 263 302
#     4   8  14  27  49  76 108 148 185 212 251 314
#
# _framework density 19.718344999999999
#
# number of rings (size 3 to 8) (size 9 to 14) (size 15 to 20)
#    0.000    2.800    0.000    2.400    0.000    6.800 
#    0.000    5.000    0.000    3.600    0.000    0.000 
#    0.000    0.000    0.000    0.000    0.000    0.000 
#
# Total GULP energy -495537.454690 kJ/mol
# GULP energy per Si atom -12388.436367 kJ/mol
# Density = 1.967347 g / cm^3
# Si number density = 19.718345 Si / 1000 Ang^3
#
#
#
# Elastic Constant Matrix: (Units=GPa)
#
#
# Indices 1 2 3 4 5 6 
#
# 1 89.6345 38.6672 88.7567 0.0000 0.0000 0.0000
# 2 38.6672 61.2605 55.7614 0.0000 0.0000 0.0000
# 3 88.7567 55.7614 206.3809 0.0000 0.0000 0.0000
# 4 0.0000 0.0000 0.0000 -115.7970 0.0000 0.0000
# 5 0.0000 0.0000 0.0000 0.0000 38.3113 0.0000
# 6 0.0000 0.0000 0.0000 0.0000 0.0000 22.8213
#
#
#
# Elastic Compliance Matrix: (Units=1/GPa)
#
#
# Indices 1 2 3 4 5 6 
#
# 1 0.021370 -0.006794 -0.007355 0.000000 0.000000 0.000000
# 2 -0.006794 0.023808 -0.003511 0.000000 0.000000 0.000000
# 3 -0.007355 -0.003511 0.008957 0.000000 0.000000 0.000000
# 4 0.000000 0.000000 0.000000 -0.008636 0.000000 0.000000
# 5 0.000000 0.000000 0.000000 0.000000 0.026102 0.000000
# 6 0.000000 0.000000 0.000000 0.000000 0.000000 0.043819
#
#
# Mechanical properties :
#
#
# Convention : Reuss Voigt Hill
#
# Bulk Modulus (GPa) = 53.14724 80.40518 66.77621
# Shear Modulus (GPa) = 31.84507 0.67316 16.25912
#
# Velocity S-wave (km/s) = 4.02306 0.58492 2.87464
# Velocity P-wave (km/s) = 6.97078 6.42818 6.70497
#
# Compressibility (1/GPa) = 0.01881565
#
# Stress axis : x y z
#
# Youngs Moduli (GPa) = 46.79448 42.00348 111.64492
#
# Poissons Ratio (x) = 0.28537 0.82113
# Poissons Ratio (y) = 0.31792 0.39195
# Poissons Ratio (z) = 0.34416 0.14746
#
# Static dielectric constant tensor:
#      x y z
#    x 3.563140 0.000000 0.000000 
#    y 0.000000 3.213670 0.000000 
#    z 0.000000 0.000000 4.059630 
# 
# 
# High freq. dielectric constant tensor:
#      x y z
#    x 1.767800 0.000000 0.000000 
#    y 0.000000 1.727570 0.000000 
#    z 0.000000 0.000000 1.788260 
# 
# From -- ./inp_files/66642.got.cif
#   From: 2010.03.12/outbox.cif.g09.slc.cpg/sg63_34_cif.got.tgz:66642.got - 2010.04.10 19:34:48.
