data_PCOD8261845
_publ_section_title
;
Structure prediction by ZEFSAII (Michael W. Deem and Ramdas Pophale) SiO2 
 PCOD8261845
Probable space group: C M C A
;
_chemical_formula_sum "Si O2"
_cell_formula_units_Z 80
_cell_length_a 15.701406
_cell_length_b 13.929910
_cell_length_c 19.895421
_cell_angle_alpha 90.000000
_cell_angle_beta 90.000000
_cell_angle_gamma 90.000000
_cell_volume 4351.510017
_symmetry_space_group_name_H-M "C M C A"
_symmetry_group_IT_number 64
_symmetry_cell_setting 'orthorhombic'
loop_
_space_group_symop_operation_xyz
x,y,z
-x,1/2-y,1/2+z
x,-y,-z
-x,1/2+y,1/2-z
-x,-y,-z
x,1/2+y,1/2-z
-x,y,z
x,1/2-y,1/2+z
1/2+x,1/2+y,z
1/2-x,-y,1/2+z
1/2+x,1/2-y,-z
1/2-x,y,1/2-z
1/2-x,1/2-y,-z
1/2+x,y,1/2-z
1/2-x,1/2+y,z
1/2+x,-y,1/2+z
loop_
_atom_site_type_symbol
_atom_site_label
_atom_site_fract_x
_atom_site_fract_y
_atom_site_fract_z
Si Si1 0.660649 0.379153 0.781510
Si Si2 0.768579 0.405849 0.471495
Si Si3 0.904396 0.944700 0.136718
Si Si4 0.771323 0.777116 0.905695
Si Si5 0.094705 0.729370 0.157553
O O1 0.750000 0.410279 0.750000
O O2 0.618177 0.474987 0.808894
O O3 0.674443 0.300463 0.839975
O O4 0.600921 0.330078 0.726351
O O5 0.717834 0.500000 0.500000
O O6 0.846493 0.450411 0.429504
O O7 0.803976 0.341942 0.532958
O O8 0.712700 0.335654 0.423792
O O9 0.894307 0.842229 0.173862
O O10 0.000000 0.961361 0.111430
O O11 0.669875 0.798993 0.894521
O O12 0.000000 0.709635 0.126670
#
# Coordination Sequence:
#
# PCOD8261845 Si02
#       5
#    16  16  16  16  16
#     4  10  19  33  52  78 102 136 171 210 252 305
#     4  10  18  33  53  74 104 135 167 213 252 304
#     4  10  20  33  52  78 104 134 169 213 265 301
#     4   9  19  33  51  78 101 133 173 206 259 301
#     4   9  19  35  52  72 104 136 167 210 256 305
#
# _framework density 18.384423000000002
#
# number of rings (size 3 to 8) (size 9 to 14) (size 15 to 20)
#    0.000    2.400    2.000    0.600    0.000    4.400 
#    0.000    0.000    0.000    0.600    0.000    0.000 
#    0.000    0.000    0.000    0.000    0.000    0.000 
#
# Total GULP energy -495712.500792 kJ/mol
# GULP energy per Si atom -12392.812520 kJ/mol
# Density = 1.834258 g / cm^3
# Si number density = 18.384423 Si / 1000 Ang^3
#
#
#
# Elastic Constant Matrix: (Units=GPa)
#
#
# Indices 1 2 3 4 5 6 
#
# 1 42.7050 21.4118 10.6748 0.0000 0.0000 0.0000
# 2 21.4118 110.2757 36.9957 0.0000 0.0000 0.0000
# 3 10.6748 36.9957 77.6693 0.0000 0.0000 0.0000
# 4 0.0000 0.0000 0.0000 44.7226 0.0000 0.0000
# 5 0.0000 0.0000 0.0000 0.0000 13.4795 0.0000
# 6 0.0000 0.0000 0.0000 0.0000 0.0000 17.9403
#
#
#
# Elastic Compliance Matrix: (Units=1/GPa)
#
#
# Indices 1 2 3 4 5 6 
#
# 1 0.026068 -0.004594 -0.001395 0.000000 0.000000 0.000000
# 2 -0.004594 0.011602 -0.004895 0.000000 0.000000 0.000000
# 3 -0.001395 -0.004895 0.015398 0.000000 0.000000 0.000000
# 4 0.000000 0.000000 0.000000 0.022360 0.000000 0.000000
# 5 0.000000 0.000000 0.000000 0.000000 0.074187 0.000000
# 6 0.000000 0.000000 0.000000 0.000000 0.000000 0.055740
#
#
# Mechanical properties :
#
#
# Convention : Reuss Voigt Hill
#
# Bulk Modulus (GPa) = 31.94678 40.97940 36.46309
# Shear Modulus (GPa) = 21.04755 25.99965 23.52360
#
# Velocity S-wave (km/s) = 3.38725 3.76469 3.58095
# Velocity P-wave (km/s) = 5.71950 6.42152 6.08065
#
# Compressibility (1/GPa) = 0.03130206
#
# Stress axis : x y z
#
# Youngs Moduli (GPa) = 38.36073 86.18942 64.94152
#
# Poissons Ratio (x) = 0.39593 0.09058
# Poissons Ratio (y) = 0.17622 0.31790
# Poissons Ratio (z) = 0.05350 0.42191
#
# Static dielectric constant tensor:
#      x y z
#    x 3.229080 0.000000 0.000000 
#    y 0.000000 3.569530 0.000000 
#    z 0.000000 0.000000 3.412000 
# 
# 
# High freq. dielectric constant tensor:
#      x y z
#    x 1.680870 0.000000 0.000000 
#    y 0.000000 1.724500 0.000000 
#    z 0.000000 0.000000 1.712670 
# 
# From -- ./inp_files/32987.got.cif
#   From: 2010.03.12/outbox.cif.g09.slc.cpg/sg64_17_cif.got.tgz:32987.got - 2010.04.10 20:19:32.
