data_PCOD8261596
_publ_section_title
;
Structure prediction by ZEFSAII (Michael W. Deem and Ramdas Pophale) SiO2 
 PCOD8261596
Probable space group: C M C A
;
_chemical_formula_sum "Si O2"
_cell_formula_units_Z 48
_cell_length_a 5.251551
_cell_length_b 13.712979
_cell_length_c 32.382533
_cell_angle_alpha 90.000000
_cell_angle_beta 90.000000
_cell_angle_gamma 90.000000
_cell_volume 2332.008962
_symmetry_space_group_name_H-M "C M C A"
_symmetry_group_IT_number 64
_symmetry_cell_setting 'orthorhombic'
loop_
_space_group_symop_operation_xyz
x,y,z
-x,1/2-y,1/2+z
x,-y,-z
-x,1/2+y,1/2-z
-x,-y,-z
x,1/2+y,1/2-z
-x,y,z
x,1/2-y,1/2+z
1/2+x,1/2+y,z
1/2-x,-y,1/2+z
1/2+x,1/2-y,-z
1/2-x,y,1/2-z
1/2-x,1/2-y,-z
1/2+x,y,1/2-z
1/2-x,1/2+y,z
1/2+x,-y,1/2+z
loop_
_atom_site_type_symbol
_atom_site_label
_atom_site_fract_x
_atom_site_fract_y
_atom_site_fract_z
Si Si1 0.500000 0.673908 0.456071
Si Si2 0.000000 0.899043 0.232559
Si Si3 0.500000 0.115858 0.267415
Si Si4 0.000000 0.706214 0.948604
Si Si5 0.000000 0.491427 0.099511
Si Si6 0.500000 0.007555 0.346459
O O1 0.749671 0.729934 0.440127
O O2 0.500000 0.664125 0.505274
O O3 0.500000 0.564879 0.438887
O O4 0.250000 0.843168 0.250000
O O5 0.000000 0.007401 0.253731
O O6 0.000000 0.910191 0.182614
O O7 0.250000 0.171754 0.250000
O O8 0.500000 0.104690 0.317320
O O9 0.000000 0.618026 0.916792
O O10 0.750089 0.509795 0.126135
#
# Coordination Sequence:
#
# PCOD8261596 Si02
#       6
#     8   8   8   8   8   8
#     4  10  22  40  58  77 106 144 182 217 261 324
#     4   8  13  24  40  62 104 140 168 212 248 300
#     4   8  13  24  40  62 104 140 168 212 248 300
#     4  10  22  40  58  77 106 144 182 217 261 324
#     4  12  21  33  56  84 111 136 175 226 276 311
#     4  10  18  27  45  80 113 134 171 226 265 307
#
# _framework density 20.583110999999999
#
# number of rings (size 3 to 8) (size 9 to 14) (size 15 to 20)
#    1.000    1.333    0.000    4.500    0.000    0.000 
#    0.000    6.667    0.000    0.000    0.000    0.000 
#    0.000  373.333    0.000    0.000    0.000    0.000 
#
# Total GULP energy -297423.611758 kJ/mol
# GULP energy per Si atom -12392.650490 kJ/mol
# Density = 2.053626 g / cm^3
# Si number density = 20.583111 Si / 1000 Ang^3
#
#
#
# Elastic Constant Matrix: (Units=GPa)
#
#
# Indices 1 2 3 4 5 6 
#
# 1 211.8411 9.7299 40.4255 0.0000 0.0000 0.0000
# 2 9.7299 43.7097 14.0947 0.0000 0.0000 0.0000
# 3 40.4255 14.0947 72.4773 0.0000 0.0000 0.0000
# 4 0.0000 0.0000 0.0000 -3.7837 0.0000 0.0000
# 5 0.0000 0.0000 0.0000 0.0000 14.8079 0.0000
# 6 0.0000 0.0000 0.0000 0.0000 0.0000 -18.2608
#
#
#
# Elastic Compliance Matrix: (Units=1/GPa)
#
#
# Indices 1 2 3 4 5 6 
#
# 1 0.005285 -0.000241 -0.002901 0.000000 0.000000 0.000000
# 2 -0.000241 0.024420 -0.004615 0.000000 0.000000 0.000000
# 3 -0.002901 -0.004615 0.016313 0.000000 0.000000 0.000000
# 4 0.000000 0.000000 0.000000 -0.264291 0.000000 0.000000
# 5 0.000000 0.000000 0.000000 0.000000 0.067532 0.000000
# 6 0.000000 0.000000 0.000000 0.000000 0.000000 -0.054762
#
#
# Mechanical properties :
#
#
# Convention : Reuss Voigt Hill
#
# Bulk Modulus (GPa) = 32.78169 50.72538 41.75353
# Shear Modulus (GPa) = -27.80531 16.13786 -5.83373
#
# Velocity S-wave (km/s) = -3.67942 2.80310 -1.68534
# Velocity P-wave (km/s) = 1.44560 5.93078 4.06721
#
# Compressibility (1/GPa) = 0.03050483
#
# Stress axis : x y z
#
# Youngs Moduli (GPa) = 189.20785 40.95021 61.30108
#
# Poissons Ratio (x) = 0.00987 0.17784
# Poissons Ratio (y) = 0.04560 0.28288
# Poissons Ratio (z) = 0.54890 0.18897
#
# Static dielectric constant tensor:
#      x y z
#    x 4.527190 0.000000 0.000000 
#    y 0.000000 3.200050 0.000000 
#    z 0.000000 0.000000 3.546130 
# 
# 
# High freq. dielectric constant tensor:
#      x y z
#    x 1.836430 0.000000 0.000000 
#    y 0.000000 1.770920 0.000000 
#    z 0.000000 0.000000 1.795130 
# 
# From -- ./inp_files/51373.got.cif
#   From: 2010.03.12/outbox.cif.g09.slc.cpg/sg64_26_cif.got.tgz:51373.got - 2010.04.10 20:19:32.
