data_PCOD8261265
_publ_section_title
;
Structure prediction by ZEFSAII (Michael W. Deem and Ramdas Pophale) SiO2 
 PCOD8261265
Probable space group: C M C M
;
_chemical_formula_sum "Si O2"
_cell_formula_units_Z 80
_cell_length_a 23.052851
_cell_length_b 28.763402
_cell_length_c 9.871844
_cell_angle_alpha 90.000000
_cell_angle_beta 90.000000
_cell_angle_gamma 90.000000
_cell_volume 6545.806728
_symmetry_space_group_name_H-M "C M C M"
_symmetry_group_IT_number 63
_symmetry_cell_setting 'orthorhombic'
loop_
_space_group_symop_operation_xyz
x,y,z
-x,-y,1/2+z
x,-y,-z
-x,y,1/2-z
-x,-y,-z
x,y,1/2-z
-x,y,z
x,-y,1/2+z
1/2+x,1/2+y,z
1/2-x,1/2-y,1/2+z
1/2+x,1/2-y,-z
1/2-x,1/2+y,1/2-z
1/2-x,1/2-y,-z
1/2+x,1/2+y,1/2-z
1/2-x,1/2+y,z
1/2+x,1/2-y,1/2+z
loop_
_atom_site_type_symbol
_atom_site_label
_atom_site_fract_x
_atom_site_fract_y
_atom_site_fract_z
Si Si1 0.874759 0.863225 0.589358
Si Si2 0.064322 0.772015 0.588534
Si Si3 0.825968 0.719921 0.901138
Si Si4 0.239834 0.182562 0.400946
Si Si5 0.932275 0.042758 0.406517
O O1 0.880034 0.861504 0.750000
O O2 0.914914 0.821870 0.529230
O O3 0.807512 0.855156 0.547030
O O4 0.897043 0.912865 0.536752
O O5 0.064550 0.774783 0.750000
O O6 0.109063 0.731274 0.544194
O O7 0.000000 0.760658 0.532487
O O8 0.827965 0.698447 0.750000
O O9 0.790659 0.767632 0.898045
O O10 0.795180 0.682681 0.999467
O O11 0.261728 0.169865 0.250000
O O12 0.917160 0.031575 0.250000
O O13 0.000000 0.053846 0.422774
O O14 0.913039 0.000000 0.500000
#
# Coordination Sequence:
#
# PCOD8261265 Si02
#       5
#    16  16  16  16  16
#     4   8  13  21  33  47  60  77 105 135 157 181
#     4   8  12  18  30  47  63  79 103 133 157 177
#     4   8  13  20  30  45  62  77  96 124 155 182
#     4   8  13  21  32  44  58  77 100 125 152 181
#     4   9  16  25  36  48  62  80 102 130 163 194
#
# _framework density 12.221565
#
# number of rings (size 3 to 8) (size 9 to 14) (size 15 to 20)
#    0.000    3.800    0.000    3.000    0.000    2.400 
#    0.000    1.000    0.000    1.800    0.000    0.000 
#    0.000    0.000    0.000    0.000    0.000    1.000 
#
# Total GULP energy -495596.194562 kJ/mol
# GULP energy per Si atom -12389.904864 kJ/mol
# Density = 1.219375 g / cm^3
# Si number density = 12.221565 Si / 1000 Ang^3
#
#
#
# Elastic Constant Matrix: (Units=GPa)
#
#
# Indices 1 2 3 4 5 6 
#
# 1 96.3128 45.3686 35.5484 0.0000 0.0000 0.0000
# 2 45.3686 48.8199 24.5669 0.0000 0.0000 0.0000
# 3 35.5484 24.5669 38.2127 0.0000 0.0000 0.0000
# 4 0.0000 0.0000 0.0000 13.4287 0.0000 0.0000
# 5 0.0000 0.0000 0.0000 0.0000 15.1352 0.0000
# 6 0.0000 0.0000 0.0000 0.0000 0.0000 20.4760
#
#
#
# Elastic Compliance Matrix: (Units=1/GPa)
#
#
# Indices 1 2 3 4 5 6 
#
# 1 0.020879 -0.014234 -0.010273 0.000000 0.000000 0.000000
# 2 -0.014234 0.039983 -0.012464 0.000000 0.000000 0.000000
# 3 -0.010273 -0.012464 0.043738 0.000000 0.000000 0.000000
# 4 0.000000 0.000000 0.000000 0.074467 0.000000 0.000000
# 5 0.000000 0.000000 0.000000 0.000000 0.066071 0.000000
# 6 0.000000 0.000000 0.000000 0.000000 0.000000 0.048838
#
#
# Mechanical properties :
#
#
# Convention : Reuss Voigt Hill
#
# Bulk Modulus (GPa) = 32.61508 43.81258 38.21383
# Shear Modulus (GPa) = 13.22272 14.99875 14.11073
#
# Velocity S-wave (km/s) = 3.29282 3.50699 3.40159
# Velocity P-wave (km/s) = 6.41882 7.23361 6.83836
#
# Compressibility (1/GPa) = 0.03066067
#
# Stress axis : x y z
#
# Youngs Moduli (GPa) = 47.89419 25.01060 22.86319
#
# Poissons Ratio (x) = 0.35600 0.23486
# Poissons Ratio (y) = 0.68173 0.28496
# Poissons Ratio (z) = 0.49200 0.31172
#
# Static dielectric constant tensor:
#      x y z
#    x 2.736390 0.000000 0.000000 
#    y 0.000000 2.375910 0.000000 
#    z 0.000000 0.000000 2.410400 
# 
# 
# High freq. dielectric constant tensor:
#      x y z
#    x 1.456110 0.000000 0.000000 
#    y 0.000000 1.420870 0.000000 
#    z 0.000000 0.000000 1.437780 
# 
# From -- ./inp_files/10955.got.cif
#   From: 2010.03.12/outbox.cif.g09.slc.cpg/sg63_6_cif.got.tgz:10955.got - 2010.04.10 19:34:48.
