data_PCOD8261781
_publ_section_title
;
Structure prediction by ZEFSAII (Michael W. Deem and Ramdas Pophale) SiO2 
 PCOD8261781
Probable space group: C M C A
;
_chemical_formula_sum "Si O2"
_cell_formula_units_Z 112
_cell_length_a 18.516866
_cell_length_b 25.930817
_cell_length_c 12.303230
_cell_angle_alpha 90.000000
_cell_angle_beta 90.000000
_cell_angle_gamma 90.000000
_cell_volume 5907.487712
_symmetry_space_group_name_H-M "C M C A"
_symmetry_group_IT_number 64
_symmetry_cell_setting 'orthorhombic'
loop_
_space_group_symop_operation_xyz
x,y,z
-x,1/2-y,1/2+z
x,-y,-z
-x,1/2+y,1/2-z
-x,-y,-z
x,1/2+y,1/2-z
-x,y,z
x,1/2-y,1/2+z
1/2+x,1/2+y,z
1/2-x,-y,1/2+z
1/2+x,1/2-y,-z
1/2-x,y,1/2-z
1/2-x,1/2-y,-z
1/2+x,y,1/2-z
1/2-x,1/2+y,z
1/2+x,-y,1/2+z
loop_
_atom_site_type_symbol
_atom_site_label
_atom_site_fract_x
_atom_site_fract_y
_atom_site_fract_z
Si Si1 0.158980 0.257592 0.411530
Si Si2 0.915411 0.444611 0.543048
Si Si3 0.668935 0.881538 0.723300
Si Si4 0.918175 0.177780 0.654677
Si Si5 0.917592 0.157860 0.415884
Si Si6 0.919717 0.641079 0.622795
Si Si7 0.810810 0.265474 0.655674
O O1 0.094437 0.217894 0.384068
O O2 0.136781 0.316387 0.413504
O O3 0.222254 0.242889 0.321572
O O4 0.187403 0.246460 0.531579
O O5 0.889466 0.500000 0.500000
O O6 0.869118 0.423370 0.644807
O O7 0.899123 0.411031 0.436647
O O8 0.000000 0.444553 0.576330
O O9 0.750000 0.899597 0.750000
O O10 0.628228 0.879974 0.839174
O O11 0.666504 0.824965 0.667929
O O12 0.892350 0.151598 0.542035
O O13 0.916318 0.133223 0.746544
O O14 0.868975 0.224536 0.706065
O O15 0.000000 0.199390 0.637979
O O16 0.000000 0.142630 0.398480
O O17 0.000000 0.659083 0.587687
#
# Coordination Sequence:
#
# PCOD8261781 Si02
#       7
#    16  16  16  16  16  16  16
#     4  10  18  32  49  78 118 156 190 228 274 339
#     4  10  23  43  67  88 107 141 199 260 301 335
#     4  12  22  37  60  84 117 155 186 238 296 351
#     4   9  20  33  49  78 119 159 192 227 273 343
#     4  10  20  33  51  81 120 156 191 226 276 350
#     4  10  19  34  57  80 109 149 191 239 284 326
#     4  10  20  31  49  79 119 158 190 223 275 343
#
# _framework density 18.95899
#
# number of rings (size 3 to 8) (size 9 to 14) (size 15 to 20)
#    0.000    1.857    2.857    1.714    0.000    2.857 
#    0.000    0.000    6.286    0.000    0.000    5.000 
#    0.000    0.000    0.000    0.000    0.000    0.000 
#
# Total GULP energy -694093.183631 kJ/mol
# GULP energy per Si atom -12394.521136 kJ/mol
# Density = 1.891584 g / cm^3
# Si number density = 18.958990 Si / 1000 Ang^3
#
#
#
# Elastic Constant Matrix: (Units=GPa)
#
#
# Indices 1 2 3 4 5 6 
#
# 1 94.7960 41.2458 51.3741 0.0000 0.0000 0.0000
# 2 41.2458 97.0866 52.3446 0.0000 0.0000 0.0000
# 3 51.3741 52.3446 112.6865 0.0000 0.0000 0.0000
# 4 0.0000 0.0000 0.0000 26.5716 0.0000 0.0000
# 5 0.0000 0.0000 0.0000 0.0000 31.2729 0.0000
# 6 0.0000 0.0000 0.0000 0.0000 0.0000 20.9040
#
#
#
# Elastic Compliance Matrix: (Units=1/GPa)
#
#
# Indices 1 2 3 4 5 6 
#
# 1 0.014876 -0.003553 -0.005131 0.000000 0.000000 0.000000
# 2 -0.003553 0.014590 -0.005158 0.000000 0.000000 0.000000
# 3 -0.005131 -0.005158 0.013609 0.000000 0.000000 0.000000
# 4 0.000000 0.000000 0.000000 0.037634 0.000000 0.000000
# 5 0.000000 0.000000 0.000000 0.000000 0.031977 0.000000
# 6 0.000000 0.000000 0.000000 0.000000 0.000000 0.047838
#
#
# Mechanical properties :
#
#
# Convention : Reuss Voigt Hill
#
# Bulk Modulus (GPa) = 64.97186 66.05535 65.51360
# Shear Modulus (GPa) = 25.86134 26.39000 26.12567
#
# Velocity S-wave (km/s) = 3.69733 3.73493 3.71618
# Velocity P-wave (km/s) = 7.25059 7.31549 7.28312
#
# Compressibility (1/GPa) = 0.01539128
#
# Stress axis : x y z
#
# Youngs Moduli (GPa) = 67.22267 68.53876 73.47877
#
# Poissons Ratio (x) = 0.24353 0.37706
# Poissons Ratio (y) = 0.23885 0.37897
# Poissons Ratio (z) = 0.34495 0.35349
#
# Static dielectric constant tensor:
#      x y z
#    x 3.710940 0.000000 0.000000 
#    y 0.000000 3.013610 0.000000 
#    z 0.000000 0.000000 4.064720 
# 
# 
# High freq. dielectric constant tensor:
#      x y z
#    x 1.746690 0.000000 0.000000 
#    y 0.000000 1.675190 0.000000 
#    z 0.000000 0.000000 1.781670 
# 
# From -- ./inp_files/17694.got.cif
#   From: 2010.03.12/outbox.cif.g09.slc.cpg/sg64_9_cif.got.tgz:17694.got - 2010.04.10 20:19:32.
