data_PCOD8261622
_publ_section_title
;
Structure prediction by ZEFSAII (Michael W. Deem and Ramdas Pophale) SiO2 
 PCOD8261622
Probable space group: C M C A
;
_chemical_formula_sum "Si O2"
_cell_formula_units_Z 80
_cell_length_a 15.184608
_cell_length_b 21.039515
_cell_length_c 14.215053
_cell_angle_alpha 90.000000
_cell_angle_beta 90.000000
_cell_angle_gamma 90.000000
_cell_volume 4541.379471
_symmetry_space_group_name_H-M "C M C A"
_symmetry_group_IT_number 64
_symmetry_cell_setting 'orthorhombic'
loop_
_space_group_symop_operation_xyz
x,y,z
-x,1/2-y,1/2+z
x,-y,-z
-x,1/2+y,1/2-z
-x,-y,-z
x,1/2+y,1/2-z
-x,y,z
x,1/2-y,1/2+z
1/2+x,1/2+y,z
1/2-x,-y,1/2+z
1/2+x,1/2-y,-z
1/2-x,y,1/2-z
1/2-x,1/2-y,-z
1/2+x,y,1/2-z
1/2-x,1/2+y,z
1/2+x,-y,1/2+z
loop_
_atom_site_type_symbol
_atom_site_label
_atom_site_fract_x
_atom_site_fract_y
_atom_site_fract_z
Si Si1 0.396386 0.073553 0.010600
Si Si2 0.397066 0.772334 0.328965
Si Si3 0.783757 0.144968 0.347935
Si Si4 0.401223 0.172521 0.861633
Si Si5 0.837183 0.713143 0.474840
O O1 0.500000 0.086786 0.022269
O O2 0.348232 0.094283 0.105453
O O3 0.357044 0.115448 0.922864
O O4 0.374827 0.000000 0.000000
O O5 0.500000 0.755300 0.313238
O O6 0.338420 0.709315 0.330636
O O7 0.360321 0.816114 0.242683
O O8 0.384765 0.809389 0.428501
O O9 0.750000 0.116326 0.250000
O O10 0.694688 0.154644 0.410373
O O11 0.500000 0.150293 0.845202
O O12 0.400313 0.238828 0.918509
O O13 0.750000 0.750000 0.500000
#
# Coordination Sequence:
#
# PCOD8261622 Si02
#       5
#    16  16  16  16  16
#     4  10  21  38  56  73 102 144 185 216 247 305
#     4  10  19  30  48  77 109 135 166 210 262 321
#     4  11  20  33  51  77 107 133 170 216 272 312
#     4  10  18  30  50  76 101 132 172 209 255 312
#     4  10  18  28  47  74 106 134 157 212 267 313
#
# _framework density 17.615791999999999
#
# number of rings (size 3 to 8) (size 9 to 14) (size 15 to 20)
#    0.000    1.800    6.000    1.200    0.000    0.000 
#    0.000    2.000    0.000    0.000    0.000    0.000 
#    0.000    9.600    0.000    0.000    0.000    0.000 
#
# Total GULP energy -495611.254628 kJ/mol
# GULP energy per Si atom -12390.281366 kJ/mol
# Density = 1.757570 g / cm^3
# Si number density = 17.615792 Si / 1000 Ang^3
#
#
#
# Elastic Constant Matrix: (Units=GPa)
#
#
# Indices 1 2 3 4 5 6 
#
# 1 45.3659 27.6993 35.3551 0.0000 0.0000 0.0000
# 2 27.6993 85.6626 61.4609 0.0000 0.0000 0.0000
# 3 35.3551 61.4609 179.7259 0.0000 0.0000 0.0000
# 4 0.0000 0.0000 0.0000 16.9897 0.0000 0.0000
# 5 0.0000 0.0000 0.0000 0.0000 31.9086 0.0000
# 6 0.0000 0.0000 0.0000 0.0000 0.0000 16.3591
#
#
#
# Elastic Compliance Matrix: (Units=1/GPa)
#
#
# Indices 1 2 3 4 5 6 
#
# 1 0.028867 -0.006970 -0.003295 0.000000 0.000000 0.000000
# 2 -0.006970 0.017152 -0.004494 0.000000 0.000000 0.000000
# 3 -0.003295 -0.004494 0.007749 0.000000 0.000000 0.000000
# 4 0.000000 0.000000 0.000000 0.058859 0.000000 0.000000
# 5 0.000000 0.000000 0.000000 0.000000 0.031339 0.000000
# 6 0.000000 0.000000 0.000000 0.000000 0.000000 0.061128
#
#
# Mechanical properties :
#
#
# Convention : Reuss Voigt Hill
#
# Bulk Modulus (GPa) = 41.23877 62.19836 51.71857
# Shear Modulus (GPa) = 20.60187 25.46742 23.03465
#
# Velocity S-wave (km/s) = 3.42352 3.80638 3.62002
# Velocity P-wave (km/s) = 6.25206 7.39615 6.84804
#
# Compressibility (1/GPa) = 0.02424903
#
# Stress axis : x y z
#
# Youngs Moduli (GPa) = 34.64207 58.30182 129.04624
#
# Poissons Ratio (x) = 0.40637 0.42521
# Poissons Ratio (y) = 0.24146 0.57998
# Poissons Ratio (z) = 0.11415 0.26203
#
# Static dielectric constant tensor:
#      x y z
#    x 2.472620 0.000000 0.000000 
#    y 0.000000 3.266490 0.000000 
#    z 0.000000 0.000000 4.093120 
# 
# 
# High freq. dielectric constant tensor:
#      x y z
#    x 1.676660 0.000000 0.000000 
#    y 0.000000 1.620540 0.000000 
#    z 0.000000 0.000000 1.703880 
# 
# From -- ./inp_files/23647.got.cif
#   From: 2010.03.12/outbox.cif.g09.slc.cpg/sg64_12_cif.got.tgz:23647.got - 2010.04.10 20:19:32.
