data_PCOD8261618
_publ_section_title
;
Structure prediction by ZEFSAII (Michael W. Deem and Ramdas Pophale) SiO2 
 PCOD8261618
Probable space group: C M C A
;
_chemical_formula_sum "Si O2"
_cell_formula_units_Z 80
_cell_length_a 8.918816
_cell_length_b 25.256162
_cell_length_c 21.141096
_cell_angle_alpha 90.000000
_cell_angle_beta 90.000000
_cell_angle_gamma 90.000000
_cell_volume 4762.138885
_symmetry_space_group_name_H-M "C M C A"
_symmetry_group_IT_number 64
_symmetry_cell_setting 'orthorhombic'
loop_
_space_group_symop_operation_xyz
x,y,z
-x,1/2-y,1/2+z
x,-y,-z
-x,1/2+y,1/2-z
-x,-y,-z
x,1/2+y,1/2-z
-x,y,z
x,1/2-y,1/2+z
1/2+x,1/2+y,z
1/2-x,-y,1/2+z
1/2+x,1/2-y,-z
1/2-x,y,1/2-z
1/2-x,1/2-y,-z
1/2+x,y,1/2-z
1/2-x,1/2+y,z
1/2+x,-y,1/2+z
loop_
_atom_site_type_symbol
_atom_site_label
_atom_site_fract_x
_atom_site_fract_y
_atom_site_fract_z
Si Si1 0.176024 0.790558 0.586135
Si Si2 0.824840 0.125041 0.317170
Si Si3 0.673509 0.179912 0.541889
Si Si4 0.675368 0.563336 0.949743
Si Si5 0.676209 0.462193 0.581307
O O1 0.238551 0.822434 0.646927
O O2 0.236002 0.817038 0.522704
O O3 0.220053 0.728110 0.589072
O O4 0.000000 0.799399 0.584022
O O5 0.750000 0.119190 0.250000
O O6 0.785592 0.073115 0.358009
O O7 0.000000 0.130137 0.305772
O O8 0.500000 0.185571 0.523506
O O9 0.705139 0.123319 0.575030
O O10 0.500000 0.549328 0.947487
O O11 0.767181 0.522360 0.905568
O O12 0.732499 0.559745 0.021637
O O13 0.500000 0.461678 0.565781
#
# Coordination Sequence:
#
# PCOD8261618 Si02
#       5
#    16  16  16  16  16
#     4   9  17  31  47  68  96 125 157 192 235 282
#     4  10  21  34  50  69  94 127 163 199 236 278
#     4   9  17  28  47  72  98 124 152 191 238 284
#     4  10  18  28  46  73  99 125 153 193 240 283
#     4  10  19  31  46  68  95 127 160 193 237 285
#
# _framework density 16.799173
#
# number of rings (size 3 to 8) (size 9 to 14) (size 15 to 20)
#    0.000    2.400    2.000    2.400    0.000    3.200 
#    0.000    0.000    0.000    1.200    0.000    5.600 
#    0.000    0.000    0.000    0.000    0.000    0.000 
#
# Total GULP energy -495733.784609 kJ/mol
# GULP energy per Si atom -12393.344615 kJ/mol
# Density = 1.676094 g / cm^3
# Si number density = 16.799173 Si / 1000 Ang^3
#
#
#
# Elastic Constant Matrix: (Units=GPa)
#
#
# Indices 1 2 3 4 5 6 
#
# 1 40.0355 34.0155 28.3936 0.0000 0.0000 0.0000
# 2 34.0155 154.9307 59.3995 0.0000 0.0000 0.0000
# 3 28.3936 59.3995 93.3763 0.0000 0.0000 0.0000
# 4 0.0000 0.0000 0.0000 22.6378 0.0000 0.0000
# 5 0.0000 0.0000 0.0000 0.0000 23.6208 0.0000
# 6 0.0000 0.0000 0.0000 0.0000 0.0000 23.4594
#
#
#
# Elastic Compliance Matrix: (Units=1/GPa)
#
#
# Indices 1 2 3 4 5 6 
#
# 1 0.034213 -0.004659 -0.007439 0.000000 0.000000 0.000000
# 2 -0.004659 0.009171 -0.004417 0.000000 0.000000 0.000000
# 3 -0.007439 -0.004417 0.015781 0.000000 0.000000 0.000000
# 4 0.000000 0.000000 0.000000 0.044174 0.000000 0.000000
# 5 0.000000 0.000000 0.000000 0.000000 0.042336 0.000000
# 6 0.000000 0.000000 0.000000 0.000000 0.000000 0.042627
#
#
# Mechanical properties :
#
#
# Convention : Reuss Voigt Hill
#
# Bulk Modulus (GPa) = 38.26525 59.10663 48.68594
# Shear Modulus (GPa) = 21.73497 25.04586 23.39041
#
# Velocity S-wave (km/s) = 3.60086 3.86540 3.73548
# Velocity P-wave (km/s) = 6.33370 7.42849 6.90283
#
# Compressibility (1/GPa) = 0.02613337
#
# Stress axis : x y z
#
# Youngs Moduli (GPa) = 29.22900 109.03985 63.36574
#
# Poissons Ratio (x) = 0.50804 0.47140
# Poissons Ratio (y) = 0.13619 0.27990
# Poissons Ratio (z) = 0.21745 0.48165
#
# Static dielectric constant tensor:
#      x y z
#    x 3.179610 0.000000 0.000000 
#    y 0.000000 3.781230 0.000000 
#    z 0.000000 0.000000 2.820870 
# 
# 
# High freq. dielectric constant tensor:
#      x y z
#    x 1.652100 0.000000 0.000000 
#    y 0.000000 1.671410 0.000000 
#    z 0.000000 0.000000 1.593580 
# 
# From -- ./inp_files/29980.got.cif
#   From: 2010.03.12/outbox.cif.g09.slc.cpg/sg64_15_cif.got.tgz:29980.got - 2010.04.10 20:19:32.
