data_PCOD8261779
_publ_section_title
;
Structure prediction by ZEFSAII (Michael W. Deem and Ramdas Pophale) SiO2 
 PCOD8261779
Probable space group: C M C A
;
_chemical_formula_sum "Si O2"
_cell_formula_units_Z 64
_cell_length_a 10.069718
_cell_length_b 39.009637
_cell_length_c 9.258105
_cell_angle_alpha 90.000000
_cell_angle_beta 90.000000
_cell_angle_gamma 90.000000
_cell_volume 3636.732180
_symmetry_space_group_name_H-M "C M C A"
_symmetry_group_IT_number 64
_symmetry_cell_setting 'orthorhombic'
loop_
_space_group_symop_operation_xyz
x,y,z
-x,1/2-y,1/2+z
x,-y,-z
-x,1/2+y,1/2-z
-x,-y,-z
x,1/2+y,1/2-z
-x,y,z
x,1/2-y,1/2+z
1/2+x,1/2+y,z
1/2-x,-y,1/2+z
1/2+x,1/2-y,-z
1/2-x,y,1/2-z
1/2-x,1/2-y,-z
1/2+x,y,1/2-z
1/2-x,1/2+y,z
1/2+x,-y,1/2+z
loop_
_atom_site_type_symbol
_atom_site_label
_atom_site_fract_x
_atom_site_fract_y
_atom_site_fract_z
Si Si1 0.000000 0.779150 0.886717
Si Si2 0.348113 0.527793 0.116049
Si Si3 0.736517 0.826773 0.579315
Si Si4 0.848968 0.396944 0.617962
Si Si5 0.500000 0.208711 0.046730
O O1 0.127548 0.797936 0.953579
O O2 0.000000 0.779025 0.712759
O O3 0.000000 0.740383 0.938794
O O4 0.500000 0.521144 0.167457
O O5 0.250000 0.524181 0.250000
O O6 0.339071 0.565782 0.041454
O O7 0.302455 0.500000 0.000000
O O8 0.750000 0.831393 0.750000
O O9 0.694063 0.864417 0.517324
O O10 0.873380 0.814618 0.508695
O O11 0.750000 0.399180 0.750000
O O12 0.000000 0.390215 0.672208
#
# Coordination Sequence:
#
# PCOD8261779 Si02
#       5
#     8  16  16  16   8
#     4  10  18  32  46  68  89 120 148 190 231 276
#     4   9  18  32  51  75 103 132 163 202 246 292
#     4   9  17  28  45  68  91 118 150 195 231 269
#     4   9  16  27  46  71  95 121 156 198 236 271
#     4  10  20  30  48  66  93 116 154 186 235 276
#
# _framework density 17.598215
#
# number of rings (size 3 to 8) (size 9 to 14) (size 15 to 20)
#    0.000    2.750    1.250    0.750    5.250    0.500 
#    0.000    0.000    0.000    3.000    0.000    0.000 
#    0.000    0.000    0.000    0.000    0.000    0.000 
#
# Total GULP energy -396465.692978 kJ/mol
# GULP energy per Si atom -12389.552906 kJ/mol
# Density = 1.755816 g / cm^3
# Si number density = 17.598215 Si / 1000 Ang^3
#
#
#
# Elastic Constant Matrix: (Units=GPa)
#
#
# Indices 1 2 3 4 5 6 
#
# 1 136.9226 70.5944 25.6383 0.0000 0.0000 0.0000
# 2 70.5944 169.8821 37.1883 0.0000 0.0000 0.0000
# 3 25.6383 37.1883 28.4897 0.0000 0.0000 0.0000
# 4 0.0000 0.0000 0.0000 21.4838 0.0000 0.0000
# 5 0.0000 0.0000 0.0000 0.0000 13.7538 0.0000
# 6 0.0000 0.0000 0.0000 0.0000 0.0000 30.5073
#
#
#
# Elastic Compliance Matrix: (Units=1/GPa)
#
#
# Indices 1 2 3 4 5 6 
#
# 1 0.009757 -0.002986 -0.004883 0.000000 0.000000 0.000000
# 2 -0.002986 0.009155 -0.009263 0.000000 0.000000 0.000000
# 3 -0.004883 -0.009263 0.051587 0.000000 0.000000 0.000000
# 4 0.000000 0.000000 0.000000 0.046547 0.000000 0.000000
# 5 0.000000 0.000000 0.000000 0.000000 0.072707 0.000000
# 6 0.000000 0.000000 0.000000 0.000000 0.000000 0.032779
#
#
# Mechanical properties :
#
#
# Convention : Reuss Voigt Hill
#
# Bulk Modulus (GPa) = 27.59837 66.90403 47.25120
# Shear Modulus (GPa) = 18.59606 26.60721 22.60163
#
# Velocity S-wave (km/s) = 3.25422 3.89257 3.58762
# Velocity P-wave (km/s) = 5.46228 7.63563 6.63850
#
# Compressibility (1/GPa) = 0.03623402
#
# Stress axis : x y z
#
# Youngs Moduli (GPa) = 102.48958 109.23142 19.38482
#
# Poissons Ratio (x) = 0.32611 0.09467
# Poissons Ratio (y) = 0.30599 0.17957
# Poissons Ratio (z) = 0.50051 1.01185
#
# Static dielectric constant tensor:
#      x y z
#    x 3.606430 0.000000 0.000000 
#    y 0.000000 4.018940 0.000000 
#    z 0.000000 0.000000 2.593980 
# 
# 
# High freq. dielectric constant tensor:
#      x y z
#    x 1.704140 0.000000 0.000000 
#    y 0.000000 1.709850 0.000000 
#    z 0.000000 0.000000 1.595100 
# 
# From -- ./inp_files/12169.got.cif
#   From: 2010.03.12/outbox.cif.g09.slc.cpg/sg64_7_cif.got.tgz:12169.got - 2010.04.10 20:19:32.
