data_PCOD8261523
_publ_section_title
;
Structure prediction by ZEFSAII (Michael W. Deem and Ramdas Pophale) SiO2 
 PCOD8261523
Probable space group: C M C A
;
_chemical_formula_sum "Si O2"
_cell_formula_units_Z 88
_cell_length_a 26.640663
_cell_length_b 5.302268
_cell_length_c 35.460088
_cell_angle_alpha 90.000000
_cell_angle_beta 90.000000
_cell_angle_gamma 90.000000
_cell_volume 5008.947883
_symmetry_space_group_name_H-M "C M C A"
_symmetry_group_IT_number 64
_symmetry_cell_setting 'orthorhombic'
loop_
_space_group_symop_operation_xyz
x,y,z
-x,1/2-y,1/2+z
x,-y,-z
-x,1/2+y,1/2-z
-x,-y,-z
x,1/2+y,1/2-z
-x,y,z
x,1/2-y,1/2+z
1/2+x,1/2+y,z
1/2-x,-y,1/2+z
1/2+x,1/2-y,-z
1/2-x,y,1/2-z
1/2-x,1/2-y,-z
1/2+x,y,1/2-z
1/2-x,1/2+y,z
1/2+x,-y,1/2+z
loop_
_atom_site_type_symbol
_atom_site_label
_atom_site_fract_x
_atom_site_fract_y
_atom_site_fract_z
Si Si1 0.440556 0.268668 0.644235
Si Si2 0.269361 0.055751 0.428876
Si Si3 0.709495 0.000000 0.000000
Si Si4 0.634193 0.137487 0.462193
Si Si5 0.559422 0.266388 0.899226
Si Si6 0.940119 0.772616 0.729068
O O1 0.500000 0.277423 0.646229
O O2 0.421378 0.516083 0.622145
O O3 0.418701 0.272089 0.686553
O O4 0.423101 0.012438 0.623937
O O5 0.259192 0.324146 0.407411
O O6 0.245284 0.152591 0.470189
O O7 0.328263 0.977532 0.434386
O O8 0.670842 0.861753 0.027462
O O9 0.584788 0.227475 0.440299
O O10 0.615392 0.000000 0.500000
O O11 0.500000 0.262086 0.905589
O O12 0.919875 0.522931 0.750097
O O13 0.000000 0.771806 0.728986
#
# Coordination Sequence:
#
# PCOD8261523 Si02
#       6
#    16  16   8  16  16  16
#     4   9  18  34  46  60  91 122 150 186 224 272
#     4  10  17  30  47  68  86 102 130 191 243 301
#     4  10  18  32  47  70  85 104 138 208 246 300
#     4  11  20  31  49  64  85 114 161 205 230 270
#     4  10  22  34  45  60  88 130 163 187 227 263
#     4   9  15  24  45  71  86 104 142 187 223 257
#
# _framework density 17.568560999999999
#
# number of rings (size 3 to 8) (size 9 to 14) (size 15 to 20)
#    0.000    2.182    2.727    2.182    2.545    4.727 
#    0.000    0.455    0.000    0.000    0.000    0.000 
#    0.000    0.000    0.000    0.000    0.000  254.545 
#
# Total GULP energy -545133.405772 kJ/mol
# GULP energy per Si atom -12389.395586 kJ/mol
# Density = 1.752857 g / cm^3
# Si number density = 17.568561 Si / 1000 Ang^3
#
#
#
# Elastic Constant Matrix: (Units=GPa)
#
#
# Indices 1 2 3 4 5 6 
#
# 1 45.0328 21.8401 33.5078 0.0000 0.0000 0.0000
# 2 21.8401 131.2294 37.1510 0.0000 0.0000 0.0000
# 3 33.5078 37.1510 76.3917 0.0000 0.0000 0.0000
# 4 0.0000 0.0000 0.0000 22.3262 0.0000 0.0000
# 5 0.0000 0.0000 0.0000 0.0000 0.5843 0.0000
# 6 0.0000 0.0000 0.0000 0.0000 0.0000 335.4212
#
#
#
# Elastic Compliance Matrix: (Units=1/GPa)
#
#
# Indices 1 2 3 4 5 6 
#
# 1 0.033263 -0.001630 -0.013798 0.000000 0.000000 0.000000
# 2 -0.001630 0.008917 -0.003622 0.000000 0.000000 0.000000
# 3 -0.013798 -0.003622 0.020904 0.000000 0.000000 0.000000
# 4 0.000000 0.000000 0.000000 0.044790 0.000000 0.000000
# 5 0.000000 0.000000 0.000000 0.000000 1.711421 0.000000
# 6 0.000000 0.000000 0.000000 0.000000 0.000000 0.002981
#
#
# Mechanical properties :
#
#
# Convention : Reuss Voigt Hill
#
# Bulk Modulus (GPa) = 40.02304 48.62797 44.32551
# Shear Modulus (GPa) = 2.67565 82.34333 42.50949
#
# Velocity S-wave (km/s) = 1.23543 6.85357 4.92431
# Velocity P-wave (km/s) = 4.98654 9.50619 7.59056
#
# Compressibility (1/GPa) = 0.02498561
#
# Stress axis : x y z
#
# Youngs Moduli (GPa) = 30.06349 112.14864 47.83828
#
# Poissons Ratio (x) = 0.18277 0.66005
# Poissons Ratio (y) = 0.04900 0.17325
# Poissons Ratio (z) = 0.41480 0.40615
#
# Static dielectric constant tensor:
#      x y z
#    x 2.849440 0.000000 0.000000 
#    y 0.000000 3.582410 0.000000 
#    z 0.000000 0.000000 3.040280 
# 
# 
# High freq. dielectric constant tensor:
#      x y z
#    x 1.629030 0.000000 0.000000 
#    y 0.000000 1.706590 0.000000 
#    z 0.000000 0.000000 1.639890 
# 
# From -- ./inp_files/53885.got.cif
#   From: 2010.03.12/outbox.cif.g09.slc.cpg/sg64_27_cif.got.tgz:53885.got - 2010.04.10 20:19:32.
