data_PCOD8261919
_publ_section_title
;
Structure prediction by ZEFSAII (Michael W. Deem and Ramdas Pophale) SiO2 
 PCOD8261919
Probable space group: C M C A
;
_chemical_formula_sum "Si O2"
_cell_formula_units_Z 128
_cell_length_a 26.704937
_cell_length_b 21.800790
_cell_length_c 11.725425
_cell_angle_alpha 90.000000
_cell_angle_beta 90.000000
_cell_angle_gamma 90.000000
_cell_volume 6826.410213
_symmetry_space_group_name_H-M "C M C A"
_symmetry_group_IT_number 64
_symmetry_cell_setting 'orthorhombic'
loop_
_space_group_symop_operation_xyz
x,y,z
-x,1/2-y,1/2+z
x,-y,-z
-x,1/2+y,1/2-z
-x,-y,-z
x,1/2+y,1/2-z
-x,y,z
x,1/2-y,1/2+z
1/2+x,1/2+y,z
1/2-x,-y,1/2+z
1/2+x,1/2-y,-z
1/2-x,y,1/2-z
1/2-x,1/2-y,-z
1/2+x,y,1/2-z
1/2-x,1/2+y,z
1/2+x,-y,1/2+z
loop_
_atom_site_type_symbol
_atom_site_label
_atom_site_fract_x
_atom_site_fract_y
_atom_site_fract_z
Si Si1 0.096517 0.538302 0.850465
Si Si2 0.187203 0.878462 0.395450
Si Si3 0.057099 0.410773 0.938852
Si Si4 0.627648 0.030091 0.610623
Si Si5 0.803734 0.724101 0.709617
Si Si6 0.698212 0.574594 0.196353
Si Si7 0.705105 0.873600 0.460295
Si Si8 0.854362 0.841128 0.631353
O O1 0.153364 0.560905 0.876464
O O2 0.087168 0.469023 0.890100
O O3 0.087931 0.541222 0.713410
O O4 0.059481 0.583324 0.922210
O O5 0.177844 0.829998 0.293510
O O6 0.244679 0.901672 0.401136
O O7 0.175174 0.842972 0.512553
O O8 0.086092 0.350205 0.894469
O O9 0.000000 0.408386 0.896856
O O10 0.672143 0.984870 0.645833
O O11 0.599843 0.000000 0.500000
O O12 0.654401 0.093275 0.579621
O O13 0.750000 0.751042 0.750000
O O14 0.798541 0.696562 0.581890
O O15 0.844455 0.778243 0.699889
O O16 0.750000 0.553112 0.250000
O O17 0.662291 0.602682 0.290672
O O18 0.709176 0.624398 0.096912
#
# Coordination Sequence:
#
# PCOD8261919 Si02
#       8
#    16  16  16  16  16  16  16  16
#     4  10  18  35  59  84 109 135 184 227 291 341
#     4  10  21  34  52  80 116 154 193 230 265 321
#     4  10  22  39  63  86 106 134 178 248 303 340
#     4  10  21  33  50  80 116 156 180 223 274 338
#     4  10  22  34  53  77 118 160 195 226 264 320
#     4  11  21  32  50  79 115 151 195 229 265 324
#     4  10  21  35  48  76 118 164 192 219 262 321
#     4  11  22  36  54  82 105 150 195 235 278 326
#
# _framework density 18.750703999999999
#
# number of rings (size 3 to 8) (size 9 to 14) (size 15 to 20)
#    0.000    1.750    3.750    1.125    3.500    1.000 
#    4.500    0.000    0.000    5.250    0.000    0.000 
#    0.000    0.000    0.000    0.000    0.000    0.000 
#
# Total GULP energy -793173.878036 kJ/mol
# GULP energy per Si atom -12393.341844 kJ/mol
# Density = 1.870803 g / cm^3
# Si number density = 18.750704 Si / 1000 Ang^3
#
#
#
# Elastic Constant Matrix: (Units=GPa)
#
#
# Indices 1 2 3 4 5 6 
#
# 1 81.3607 39.2390 22.8141 0.0000 0.0000 0.0000
# 2 39.2390 57.8045 19.1778 0.0000 0.0000 0.0000
# 3 22.8141 19.1778 104.5012 0.0000 0.0000 0.0000
# 4 0.0000 0.0000 0.0000 24.5368 0.0000 0.0000
# 5 0.0000 0.0000 0.0000 0.0000 16.2541 0.0000
# 6 0.0000 0.0000 0.0000 0.0000 0.0000 14.8781
#
#
#
# Elastic Compliance Matrix: (Units=1/GPa)
#
#
# Indices 1 2 3 4 5 6 
#
# 1 0.018606 -0.012014 -0.001857 0.000000 0.000000 0.000000
# 2 -0.012014 0.026179 -0.002181 0.000000 0.000000 0.000000
# 3 -0.001857 -0.002181 0.010375 0.000000 0.000000 0.000000
# 4 0.000000 0.000000 0.000000 0.040755 0.000000 0.000000
# 5 0.000000 0.000000 0.000000 0.000000 0.061523 0.000000
# 6 0.000000 0.000000 0.000000 0.000000 0.000000 0.067213
#
#
# Mechanical properties :
#
#
# Convention : Reuss Voigt Hill
#
# Bulk Modulus (GPa) = 43.37533 45.12537 44.25035
# Shear Modulus (GPa) = 18.90785 21.96283 20.43534
#
# Velocity S-wave (km/s) = 3.17895 3.42615 3.30486
# Velocity P-wave (km/s) = 6.05451 6.30631 6.18169
#
# Compressibility (1/GPa) = 0.02305458
#
# Stress axis : x y z
#
# Youngs Moduli (GPa) = 53.74661 38.19893 96.38506
#
# Poissons Ratio (x) = 0.45892 0.17900
# Poissons Ratio (y) = 0.64571 0.21026
# Poissons Ratio (z) = 0.09982 0.08333
#
# Static dielectric constant tensor:
#      x y z
#    x 3.057860 0.000000 0.000000 
#    y 0.000000 3.174360 0.000000 
#    z 0.000000 0.000000 3.975650 
# 
# 
# High freq. dielectric constant tensor:
#      x y z
#    x 1.680400 0.000000 0.000000 
#    y 0.000000 1.709370 0.000000 
#    z 0.000000 0.000000 1.749500 
# 
# From -- ./inp_files/19400.got.cif
#   From: 2010.03.12/outbox.cif.g09.slc.cpg/sg64_10_cif.got.tgz:19400.got - 2010.04.10 20:19:32.
