data_PCOD8261687
_publ_section_title
;
Structure prediction by ZEFSAII (Michael W. Deem and Ramdas Pophale) SiO2 
 PCOD8261687
Probable space group: C M C A
;
_chemical_formula_sum "Si O2"
_cell_formula_units_Z 96
_cell_length_a 8.806644
_cell_length_b 20.891490
_cell_length_c 28.360732
_cell_angle_alpha 90.000000
_cell_angle_beta 90.000000
_cell_angle_gamma 90.000000
_cell_volume 5217.918507
_symmetry_space_group_name_H-M "C M C A"
_symmetry_group_IT_number 64
_symmetry_cell_setting 'orthorhombic'
loop_
_space_group_symop_operation_xyz
x,y,z
-x,1/2-y,1/2+z
x,-y,-z
-x,1/2+y,1/2-z
-x,-y,-z
x,1/2+y,1/2-z
-x,y,z
x,1/2-y,1/2+z
1/2+x,1/2+y,z
1/2-x,-y,1/2+z
1/2+x,1/2-y,-z
1/2-x,y,1/2-z
1/2-x,1/2-y,-z
1/2+x,y,1/2-z
1/2-x,1/2+y,z
1/2+x,-y,1/2+z
loop_
_atom_site_type_symbol
_atom_site_label
_atom_site_fract_x
_atom_site_fract_y
_atom_site_fract_z
Si Si1 0.179802 0.496231 0.896372
Si Si2 0.323259 0.243947 0.396954
Si Si3 0.677124 0.192540 0.297053
Si Si4 0.680259 0.372887 0.548800
Si Si5 0.319295 0.625181 0.557901
Si Si6 0.679307 0.945060 0.797736
O O1 0.246234 0.436060 0.925560
O O2 0.248641 0.562061 0.916786
O O3 0.225259 0.490304 0.841422
O O4 0.000000 0.496289 0.902179
O O5 0.500000 0.235464 0.408739
O O6 0.293079 0.239409 0.340974
O O7 0.234015 0.189871 0.424602
O O8 0.261553 0.312648 0.413887
O O9 0.500000 0.180565 0.288487
O O10 0.750000 0.223842 0.250000
O O11 0.755596 0.125071 0.307742
O O12 0.500000 0.373576 0.549607
O O13 0.742269 0.372003 0.495430
O O14 0.500000 0.622266 0.558473
O O15 0.500000 0.939521 0.792096
O O16 0.750000 0.974700 0.750000
#
# Coordination Sequence:
#
# PCOD8261687 Si02
#       6
#    16  16  16  16  16  16
#     4   9  17  30  50  76 100 127 166 208 243 282
#     4  10  20  33  50  74 103 133 161 200 253 298
#     4  10  19  31  49  72  97 126 162 202 243 291
#     4  10  18  31  54  77  97 128 172 211 238 282
#     4   9  18  32  50  73 102 133 166 203 244 291
#     4  10  18  30  50  75  99 124 160 205 248 290
#
# _framework density 18.398140999999999
#
# number of rings (size 3 to 8) (size 9 to 14) (size 15 to 20)
#    0.000    2.333    1.667    3.000    0.000    2.667 
#    0.000    0.833    0.000    7.000    0.000    0.000 
#    0.000    0.000    0.000    0.000    0.000    0.000 
#
# Total GULP energy -595139.963464 kJ/mol
# GULP energy per Si atom -12398.749239 kJ/mol
# Density = 1.835627 g / cm^3
# Si number density = 18.398141 Si / 1000 Ang^3
#
#
#
# Elastic Constant Matrix: (Units=GPa)
#
#
# Indices 1 2 3 4 5 6 
#
# 1 43.4285 19.1569 37.3847 0.0000 0.0000 0.0000
# 2 19.1569 139.6233 85.8709 0.0000 0.0000 0.0000
# 3 37.3847 85.8709 176.1410 0.0000 0.0000 0.0000
# 4 0.0000 0.0000 0.0000 19.7856 0.0000 0.0000
# 5 0.0000 0.0000 0.0000 0.0000 18.0161 0.0000
# 6 0.0000 0.0000 0.0000 0.0000 0.0000 14.3487
#
#
#
# Elastic Compliance Matrix: (Units=1/GPa)
#
#
# Indices 1 2 3 4 5 6 
#
# 1 0.028181 -0.000269 -0.005850 0.000000 0.000000 0.000000
# 2 -0.000269 0.010232 -0.004931 0.000000 0.000000 0.000000
# 3 -0.005850 -0.004931 0.009323 0.000000 0.000000 0.000000
# 4 0.000000 0.000000 0.000000 0.050542 0.000000 0.000000
# 5 0.000000 0.000000 0.000000 0.000000 0.055506 0.000000
# 6 0.000000 0.000000 0.000000 0.000000 0.000000 0.069693
#
#
# Mechanical properties :
#
#
# Convention : Reuss Voigt Hill
#
# Bulk Modulus (GPa) = 39.00803 71.55754 55.28278
# Shear Modulus (GPa) = 19.67567 24.88210 22.27889
#
# Velocity S-wave (km/s) = 3.27377 3.68152 3.48362
# Velocity P-wave (km/s) = 5.96140 7.55313 6.80397
#
# Compressibility (1/GPa) = 0.02563575
#
# Stress axis : x y z
#
# Youngs Moduli (GPa) = 35.48500 97.73579 107.26262
#
# Poissons Ratio (x) = 0.02624 0.62752
# Poissons Ratio (y) = 0.00953 0.52892
# Poissons Ratio (z) = 0.20760 0.48194
#
# Static dielectric constant tensor:
#      x y z
#    x 3.090500 0.000000 0.000000 
#    y 0.000000 3.418610 0.000000 
#    z 0.000000 0.000000 3.758780 
# 
# 
# High freq. dielectric constant tensor:
#      x y z
#    x 1.681840 0.000000 0.000000 
#    y 0.000000 1.698340 0.000000 
#    z 0.000000 0.000000 1.734200 
# 
# From -- ./inp_files/48096.got.cif
#   From: 2010.03.12/outbox.cif.g09.slc.cpg/sg64_25_cif.got.tgz:48096.got - 2010.04.10 20:19:32.
