data_PCOD8261997
_publ_section_title
;
Structure prediction by ZEFSAII (Michael W. Deem and Ramdas Pophale) SiO2 
 PCOD8261997
Probable space group: C M C A
;
_chemical_formula_sum "Si O2"
_cell_formula_units_Z 96
_cell_length_a 9.729643
_cell_length_b 14.868720
_cell_length_c 31.111396
_cell_angle_alpha 90.000000
_cell_angle_beta 90.000000
_cell_angle_gamma 90.000000
_cell_volume 4500.802824
_symmetry_space_group_name_H-M "C M C A"
_symmetry_group_IT_number 64
_symmetry_cell_setting 'orthorhombic'
loop_
_space_group_symop_operation_xyz
x,y,z
-x,1/2-y,1/2+z
x,-y,-z
-x,1/2+y,1/2-z
-x,-y,-z
x,1/2+y,1/2-z
-x,y,z
x,1/2-y,1/2+z
1/2+x,1/2+y,z
1/2-x,-y,1/2+z
1/2+x,1/2-y,-z
1/2-x,y,1/2-z
1/2-x,1/2-y,-z
1/2+x,y,1/2-z
1/2-x,1/2+y,z
1/2+x,-y,1/2+z
loop_
_atom_site_type_symbol
_atom_site_label
_atom_site_fract_x
_atom_site_fract_y
_atom_site_fract_z
Si Si1 0.152158 0.474082 0.045904
Si Si2 0.346421 0.754145 0.287122
Si Si3 0.344804 0.256502 0.117017
Si Si4 0.655884 0.736291 0.541540
Si Si5 0.153494 0.970614 0.118801
Si Si6 0.653374 0.531834 0.786462
O O1 0.141727 0.368194 0.050973
O O2 0.246008 0.515361 0.083667
O O3 0.000000 0.517569 0.049489
O O4 0.218695 0.500000 0.000000
O O5 0.500000 0.718476 0.278800
O O6 0.250000 0.711678 0.250000
O O7 0.297804 0.725223 0.335127
O O8 0.343997 0.861148 0.283931
O O9 0.500000 0.221662 0.107009
O O10 0.235713 0.218157 0.082066
O O11 0.346789 0.363750 0.114684
O O12 0.500000 0.776459 0.536064
O O13 0.750000 0.750000 0.500000
O O14 0.204908 0.999062 0.166360
O O15 0.000000 0.007297 0.110620
O O16 0.500000 0.496279 0.778167
O O17 0.750000 0.488544 0.750000
#
# Coordination Sequence:
#
# PCOD8261997 Si02
#       6
#    16  16  16  16  16  16
#     4   9  18  31  45  62  84 110 141 175 210 249
#     4   8  13  20  31  48  72 102 132 163 198 237
#     4   8  14  25  38  53  77 107 137 169 205 244
#     4  10  19  30  45  63  84 111 141 175 212 250
#     4   8  14  24  37  54  77 105 136 169 205 244
#     4   8  13  20  30  47  72 101 132 163 196 237
#
# _framework density 21.329529000000001
#
# number of rings (size 3 to 8) (size 9 to 14) (size 15 to 20)
#    0.000    3.500    0.000    2.500    0.000    2.333 
#    0.000    6.667    0.000    0.000    0.000    0.000 
#    0.000    1.333    0.000   11.333    0.000   19.500 
#
# Total GULP energy -594771.341939 kJ/mol
# GULP energy per Si atom -12391.069624 kJ/mol
# Density = 2.128098 g / cm^3
# Si number density = 21.329529 Si / 1000 Ang^3
#
#
#
# Elastic Constant Matrix: (Units=GPa)
#
#
# Indices 1 2 3 4 5 6 
#
# 1 159.3060 0.4143 136.4314 0.0000 0.0000 0.0000
# 2 0.4143 3.4140 -5.0548 0.0000 0.0000 0.0000
# 3 136.4314 -5.0548 233.4606 0.0000 0.0000 0.0000
# 4 0.0000 0.0000 0.0000 14.3996 0.0000 0.0000
# 5 0.0000 0.0000 0.0000 0.0000 51.4271 0.0000
# 6 0.0000 0.0000 0.0000 0.0000 0.0000 6.7445
#
#
#
# Elastic Compliance Matrix: (Units=1/GPa)
#
#
# Indices 1 2 3 4 5 6 
#
# 1 0.013133 -0.013386 -0.007965 0.000000 0.000000 0.000000
# 2 -0.013386 0.316255 0.014670 0.000000 0.000000 0.000000
# 3 -0.007965 0.014670 0.009255 0.000000 0.000000 0.000000
# 4 0.000000 0.000000 0.000000 0.069446 0.000000 0.000000
# 5 0.000000 0.000000 0.000000 0.000000 0.019445 0.000000
# 6 0.000000 0.000000 0.000000 0.000000 0.000000 0.148269
#
#
# Mechanical properties :
#
#
# Convention : Reuss Voigt Hill
#
# Bulk Modulus (GPa) = 3.07425 73.30693 38.19059
# Shear Modulus (GPa) = 7.16750 32.14022 19.65386
#
# Velocity S-wave (km/s) = 1.83512 3.88602 3.03881
# Velocity P-wave (km/s) = 2.43611 7.38771 5.50058
#
# Compressibility (1/GPa) = 0.32528262
#
# Stress axis : x y z
#
# Youngs Moduli (GPa) = 76.14389 3.16200 108.04461
#
# Poissons Ratio (x) = 0.04233 0.86053
# Poissons Ratio (y) = 1.01929 -1.58505
# Poissons Ratio (z) = 0.60646 -0.04639
#
# Static dielectric constant tensor:
#      x y z
#    x 4.307530 0.000000 0.000000 
#    y 0.000000 3.080780 0.000000 
#    z 0.000000 0.000000 4.243530 
# 
# 
# High freq. dielectric constant tensor:
#      x y z
#    x 1.833990 0.000000 0.000000 
#    y 0.000000 1.775690 0.000000 
#    z 0.000000 0.000000 1.849050 
# 
# From -- ./inp_files/48612.got.cif
#   From: 2010.03.12/outbox.cif.g09.slc.cpg/sg64_25_cif.got.tgz:48612.got - 2010.04.10 20:19:32.
