data_PCOD8261214
_publ_section_title
;
Structure prediction by ZEFSAII (Michael W. Deem and Ramdas Pophale) SiO2 
 PCOD8261214
Probable space group: C M C M
;
_chemical_formula_sum "Si O2"
_cell_formula_units_Z 64
_cell_length_a 9.537481
_cell_length_b 9.869250
_cell_length_c 33.616199
_cell_angle_alpha 90.000000
_cell_angle_beta 90.000000
_cell_angle_gamma 90.000000
_cell_volume 3164.218330
_symmetry_space_group_name_H-M "C M C M"
_symmetry_group_IT_number 63
_symmetry_cell_setting 'orthorhombic'
loop_
_space_group_symop_operation_xyz
x,y,z
-x,-y,1/2+z
x,-y,-z
-x,y,1/2-z
-x,-y,-z
x,y,1/2-z
-x,y,z
x,-y,1/2+z
1/2+x,1/2+y,z
1/2-x,1/2-y,1/2+z
1/2+x,1/2-y,-z
1/2-x,1/2+y,1/2-z
1/2-x,1/2-y,-z
1/2+x,1/2+y,1/2-z
1/2-x,1/2+y,z
1/2+x,1/2-y,1/2+z
loop_
_atom_site_type_symbol
_atom_site_label
_atom_site_fract_x
_atom_site_fract_y
_atom_site_fract_z
Si Si1 0.000000 0.525748 0.293824
Si Si2 0.161934 0.360897 0.476448
Si Si3 0.243781 0.897834 0.847347
Si Si4 0.837670 0.849440 0.101623
Si Si5 0.500000 0.290219 0.794059
O O1 0.131372 0.572014 0.318358
O O2 0.000000 0.594895 0.250000
O O3 0.000000 0.367741 0.287924
O O4 0.166434 0.500000 0.500000
O O5 0.250000 0.250000 0.500000
O O6 0.234668 0.385808 0.434301
O O7 0.000000 0.313477 0.470653
O O8 0.292769 0.796820 0.882035
O O9 0.133134 0.828650 0.819247
O O10 0.180552 0.034875 0.865464
O O11 0.000000 0.843912 0.087624
O O12 0.500000 0.359582 0.750000
#
# Coordination Sequence:
#
# PCOD8261214 Si02
#       5
#     8  16  16  16   8
#     4  11  24  43  67  95 135 177 221 280 333 387
#     4  11  26  46  70 101 133 172 219 269 326 395
#     4  12  24  43  65 100 131 175 225 271 330 392
#     4  12  26  42  68  97 136 173 216 273 328 392
#     4  11  24  43  67  97 133 176 223 277 335 391
#
# _framework density 20.226163
#
# number of rings (size 3 to 8) (size 9 to 14) (size 15 to 20)
#    0.000    0.500    5.000    3.000    3.500    6.000 
#    0.000    1.250    0.000    0.000    0.000    0.000 
#    0.000    0.000    0.000    0.000    0.000    0.000 
#
# Total GULP energy -396879.217101 kJ/mol
# GULP energy per Si atom -12402.475534 kJ/mol
# Density = 2.018013 g / cm^3
# Si number density = 20.226163 Si / 1000 Ang^3
#
#
#
# Elastic Constant Matrix: (Units=GPa)
#
#
# Indices 1 2 3 4 5 6 
#
# 1 183.7308 30.5404 60.5714 0.0000 0.0000 0.0000
# 2 30.5404 72.7001 14.1231 0.0000 0.0000 0.0000
# 3 60.5714 14.1231 115.0601 0.0000 0.0000 0.0000
# 4 0.0000 0.0000 0.0000 39.2538 0.0000 0.0000
# 5 0.0000 0.0000 0.0000 0.0000 46.3728 0.0000
# 6 0.0000 0.0000 0.0000 0.0000 0.0000 30.2280
#
#
#
# Elastic Compliance Matrix: (Units=1/GPa)
#
#
# Indices 1 2 3 4 5 6 
#
# 1 0.006929 -0.002256 -0.003371 0.000000 0.000000 0.000000
# 2 -0.002256 0.014826 -0.000632 0.000000 0.000000 0.000000
# 3 -0.003371 -0.000632 0.010543 0.000000 0.000000 0.000000
# 4 0.000000 0.000000 0.000000 0.025475 0.000000 0.000000
# 5 0.000000 0.000000 0.000000 0.000000 0.021564 0.000000
# 6 0.000000 0.000000 0.000000 0.000000 0.000000 0.033082
#
#
# Mechanical properties :
#
#
# Convention : Reuss Voigt Hill
#
# Bulk Modulus (GPa) = 50.55591 64.66229 57.60910
# Shear Modulus (GPa) = 38.01403 40.92134 39.46769
#
# Velocity S-wave (km/s) = 4.33996 4.50287 4.42217
# Velocity P-wave (km/s) = 7.08260 7.68592 7.39042
#
# Compressibility (1/GPa) = 0.01978008
#
# Stress axis : x y z
#
# Youngs Moduli (GPa) = 144.32136 67.45065 94.84813
#
# Poissons Ratio (x) = 0.15217 0.31971
# Poissons Ratio (y) = 0.32558 0.05996
# Poissons Ratio (z) = 0.48647 0.04264
#
# Static dielectric constant tensor:
#      x y z
#    x 3.898610 0.000000 0.000000 
#    y 0.000000 3.793250 0.000000 
#    z 0.000000 0.000000 4.050270 
# 
# 
# High freq. dielectric constant tensor:
#      x y z
#    x 1.812410 0.000000 0.000000 
#    y 0.000000 1.797800 0.000000 
#    z 0.000000 0.000000 1.807350 
# 
# From -- ./inp_files/71376.got.cif
#   From: 2010.03.12/outbox.cif.g09.slc.cpg/sg63_36_cif.got.tgz:71376.got - 2010.04.10 19:34:48.
