data_PCOD8261215
_publ_section_title
;
Structure prediction by ZEFSAII (Michael W. Deem and Ramdas Pophale) SiO2 
 PCOD8261215
Probable space group: C M C M
;
_chemical_formula_sum "Si O2"
_cell_formula_units_Z 64
_cell_length_a 15.222526
_cell_length_b 9.076940
_cell_length_c 22.375176
_cell_angle_alpha 90.000000
_cell_angle_beta 90.000000
_cell_angle_gamma 90.000000
_cell_volume 3091.666565
_symmetry_space_group_name_H-M "C M C M"
_symmetry_group_IT_number 63
_symmetry_cell_setting 'orthorhombic'
loop_
_space_group_symop_operation_xyz
x,y,z
-x,-y,1/2+z
x,-y,-z
-x,y,1/2-z
-x,-y,-z
x,y,1/2-z
-x,y,z
x,-y,1/2+z
1/2+x,1/2+y,z
1/2-x,1/2-y,1/2+z
1/2+x,1/2-y,-z
1/2-x,1/2+y,1/2-z
1/2-x,1/2-y,-z
1/2+x,1/2+y,1/2-z
1/2-x,1/2+y,z
1/2+x,1/2-y,1/2+z
loop_
_atom_site_type_symbol
_atom_site_label
_atom_site_fract_x
_atom_site_fract_y
_atom_site_fract_z
Si Si1 0.159338 0.307041 0.872085
Si Si2 0.103099 0.539695 0.250000
Si Si3 0.166038 0.958638 0.867981
Si Si4 0.500000 0.855699 0.537395
Si Si5 0.895167 0.803356 0.750000
Si Si6 0.500000 0.608756 0.446865
O O1 0.137767 0.380191 0.808734
O O2 0.246479 0.387584 0.896735
O O3 0.084411 0.333191 0.920996
O O4 0.175154 0.134051 0.862394
O O5 0.131733 0.368528 0.250000
O O6 0.000000 0.552996 0.250000
O O7 0.149781 0.884613 0.804641
O O8 0.085691 0.914130 0.908444
O O9 0.500000 0.763809 0.477229
O O10 0.500000 0.000000 0.500000
O O11 0.000000 0.824602 0.750000
O O12 0.500000 0.500000 0.500000
#
# Coordination Sequence:
#
# PCOD8261215 Si02
#       6
#    16   8  16   8   8   8
#     4  12  26  47  71 107 138 185 226 290 345 412
#     4  11  24  43  74 104 144 174 232 281 353 413
#     4  12  26  45  75 102 143 178 234 283 350 409
#     4  12  30  47  74  99 141 186 237 284 344 404
#     4  11  24  43  74 108 136 184 222 289 349 415
#     4  12  26  51  70 101 137 188 235 282 338 412
#
# _framework density 20.700809
#
# number of rings (size 3 to 8) (size 9 to 14) (size 15 to 20)
#    0.000    0.250    5.000    3.000    7.000    3.000 
#    0.000    0.000    0.000    0.000    0.000    0.000 
#    0.000    0.000    0.000    0.000    0.000    0.000 
#
# Total GULP energy -396716.103965 kJ/mol
# GULP energy per Si atom -12397.378249 kJ/mol
# Density = 2.065369 g / cm^3
# Si number density = 20.700809 Si / 1000 Ang^3
#
#
#
# Elastic Constant Matrix: (Units=GPa)
#
#
# Indices 1 2 3 4 5 6 
#
# 1 172.2357 84.7801 65.7642 0.0000 0.0000 0.0000
# 2 84.7801 214.3203 70.3440 0.0000 0.0000 0.0000
# 3 65.7642 70.3440 119.7383 0.0000 0.0000 0.0000
# 4 0.0000 0.0000 0.0000 46.6706 0.0000 0.0000
# 5 0.0000 0.0000 0.0000 0.0000 38.7002 0.0000
# 6 0.0000 0.0000 0.0000 0.0000 0.0000 36.6060
#
#
#
# Elastic Compliance Matrix: (Units=1/GPa)
#
#
# Indices 1 2 3 4 5 6 
#
# 1 0.008077 -0.002154 -0.003170 0.000000 0.000000 0.000000
# 2 -0.002154 0.006355 -0.002550 0.000000 0.000000 0.000000
# 3 -0.003170 -0.002550 0.011591 0.000000 0.000000 0.000000
# 4 0.000000 0.000000 0.000000 0.021427 0.000000 0.000000
# 5 0.000000 0.000000 0.000000 0.000000 0.025840 0.000000
# 6 0.000000 0.000000 0.000000 0.000000 0.000000 0.027318
#
#
# Mechanical properties :
#
#
# Convention : Reuss Voigt Hill
#
# Bulk Modulus (GPa) = 97.34293 105.34121 101.34207
# Shear Modulus (GPa) = 41.74231 43.42242 42.58236
#
# Velocity S-wave (km/s) = 4.49537 4.58495 4.54038
# Velocity P-wave (km/s) = 8.60641 8.88971 8.74921
#
# Compressibility (1/GPa) = 0.01027296
#
# Stress axis : x y z
#
# Youngs Moduli (GPa) = 123.80706 157.35084 86.27313
#
# Poissons Ratio (x) = 0.33901 0.27353
# Poissons Ratio (y) = 0.26674 0.22002
# Poissons Ratio (z) = 0.39253 0.40128
#
# Static dielectric constant tensor:
#      x y z
#    x 4.180620 0.000000 0.000000 
#    y 0.000000 4.137820 0.000000 
#    z 0.000000 0.000000 3.562150 
# 
# 
# High freq. dielectric constant tensor:
#      x y z
#    x 1.832910 0.000000 0.000000 
#    y 0.000000 1.836490 0.000000 
#    z 0.000000 0.000000 1.820480 
# 
# From -- ./inp_files/62395.got.cif
#   From: 2010.03.12/outbox.cif.g09.slc.cpg/sg63_32_cif.got.tgz:62395.got - 2010.04.10 19:34:48.
