data_PCOD8261481
_publ_section_title
;
Structure prediction by ZEFSAII (Michael W. Deem and Ramdas Pophale) SiO2 
 PCOD8261481
Probable space group: C M C A
;
_chemical_formula_sum "Si O2"
_cell_formula_units_Z 128
_cell_length_a 22.576490
_cell_length_b 14.325425
_cell_length_c 23.444194
_cell_angle_alpha 90.000000
_cell_angle_beta 90.000000
_cell_angle_gamma 90.000000
_cell_volume 7582.269981
_symmetry_space_group_name_H-M "C M C A"
_symmetry_group_IT_number 64
_symmetry_cell_setting 'orthorhombic'
loop_
_space_group_symop_operation_xyz
x,y,z
-x,1/2-y,1/2+z
x,-y,-z
-x,1/2+y,1/2-z
-x,-y,-z
x,1/2+y,1/2-z
-x,y,z
x,1/2-y,1/2+z
1/2+x,1/2+y,z
1/2-x,-y,1/2+z
1/2+x,1/2-y,-z
1/2-x,y,1/2-z
1/2-x,1/2-y,-z
1/2+x,y,1/2-z
1/2-x,1/2+y,z
1/2+x,-y,1/2+z
loop_
_atom_site_type_symbol
_atom_site_label
_atom_site_fract_x
_atom_site_fract_y
_atom_site_fract_z
Si Si1 0.935089 0.713786 0.341043
Si Si2 0.346398 0.820804 0.348210
Si Si3 0.068614 0.890621 0.059238
Si Si4 0.606661 0.061715 0.264704
Si Si5 0.387203 0.410959 0.934833
Si Si6 0.567852 0.862656 0.245496
Si Si7 0.700397 0.512703 0.139576
Si Si8 0.208789 0.641975 0.195885
O O1 0.936869 0.641916 0.287554
O O2 0.895894 0.678400 0.393741
O O3 0.914575 0.813674 0.314900
O O4 0.000000 0.723321 0.367134
O O5 0.395720 0.822680 0.398218
O O6 0.383144 0.828580 0.290001
O O7 0.305626 0.728772 0.345344
O O8 0.296436 0.900487 0.359221
O O9 0.000000 0.859231 0.055592
O O10 0.070332 0.999385 0.079345
O O11 0.102184 0.879060 0.999089
O O12 0.646676 0.034633 0.318102
O O13 0.646307 0.100942 0.214042
O O14 0.570336 0.974410 0.239869
O O15 0.319956 0.447744 0.922715
O O16 0.500000 0.834877 0.262458
O O17 0.760755 0.560385 0.159063
O O18 0.250000 0.671278 0.250000
#
# Coordination Sequence:
#
# PCOD8261481 Si02
#       8
#    16  16  16  16  16  16  16  16
#     4  10  17  27  45  70 101 133 158 196 245 294
#     4  10  19  32  49  72 100 127 163 205 245 300
#     4  10  18  30  52  78 102 130 158 202 260 307
#     4   9  17  30  44  66  97 127 165 199 240 297
#     4   9  17  31  49  72 101 127 166 205 250 302
#     4  10  19  29  45  71 103 134 161 197 249 303
#     4   8  18  31  46  68  92 127 162 206 244 283
#     4  10  19  33  48  68  96 134 169 203 245 292
#
# _framework density 16.881488000000001
#
# number of rings (size 3 to 8) (size 9 to 14) (size 15 to 20)
#    0.000    2.500    1.250    3.000    0.000    2.500 
#    0.000    0.625    0.000    0.000    0.000    0.000 
#    0.000    3.000    0.000    0.000    0.000    0.000 
#
# Total GULP energy -792917.563465 kJ/mol
# GULP energy per Si atom -12389.336929 kJ/mol
# Density = 1.684307 g / cm^3
# Si number density = 16.881488 Si / 1000 Ang^3
#
#
#
# Elastic Constant Matrix: (Units=GPa)
#
#
# Indices 1 2 3 4 5 6 
#
# 1 40.8900 17.9145 26.4879 0.0000 0.0000 0.0000
# 2 17.9145 70.6091 27.6207 0.0000 0.0000 0.0000
# 3 26.4879 27.6207 73.9405 0.0000 0.0000 0.0000
# 4 0.0000 0.0000 0.0000 22.9137 0.0000 0.0000
# 5 0.0000 0.0000 0.0000 0.0000 18.8214 0.0000
# 6 0.0000 0.0000 0.0000 0.0000 0.0000 24.5916
#
#
#
# Elastic Compliance Matrix: (Units=1/GPa)
#
#
# Indices 1 2 3 4 5 6 
#
# 1 0.032966 -0.004385 -0.010171 0.000000 0.000000 0.000000
# 2 -0.004385 0.017169 -0.004843 0.000000 0.000000 0.000000
# 3 -0.010171 -0.004843 0.018977 0.000000 0.000000 0.000000
# 4 0.000000 0.000000 0.000000 0.043642 0.000000 0.000000
# 5 0.000000 0.000000 0.000000 0.000000 0.053131 0.000000
# 6 0.000000 0.000000 0.000000 0.000000 0.000000 0.040664
#
#
# Mechanical properties :
#
#
# Convention : Reuss Voigt Hill
#
# Bulk Modulus (GPa) = 32.98815 36.60953 34.79884
# Shear Modulus (GPa) = 19.57307 20.82645 20.19976
#
# Velocity S-wave (km/s) = 3.40875 3.51620 3.46289
# Velocity P-wave (km/s) = 5.92252 6.18208 6.05369
#
# Compressibility (1/GPa) = 0.03031392
#
# Stress axis : x y z
#
# Youngs Moduli (GPa) = 30.33437 58.24308 52.69492
#
# Poissons Ratio (x) = 0.25540 0.53598
# Poissons Ratio (y) = 0.13302 0.25519
# Poissons Ratio (z) = 0.30854 0.28206
#
# Static dielectric constant tensor:
#      x y z
#    x 3.033840 0.000000 0.000000 
#    y 0.000000 3.249880 0.000000 
#    z 0.000000 0.000000 3.062200 
# 
# 
# High freq. dielectric constant tensor:
#      x y z
#    x 1.637710 0.000000 0.000000 
#    y 0.000000 1.639000 0.000000 
#    z 0.000000 0.000000 1.626470 
# 
# From -- ./inp_files/46983.got.cif
#   From: 2010.03.12/outbox.cif.g09.slc.cpg/sg64_24_cif.got.tgz:46983.got - 2010.04.10 20:19:32.
