data_PCOD8261744
_publ_section_title
;
Structure prediction by ZEFSAII (Michael W. Deem and Ramdas Pophale) SiO2 
 PCOD8261744
Probable space group: C M C A
;
_chemical_formula_sum "Si O2"
_cell_formula_units_Z 80
_cell_length_a 17.722002
_cell_length_b 25.933880
_cell_length_c 9.470377
_cell_angle_alpha 90.000000
_cell_angle_beta 90.000000
_cell_angle_gamma 90.000000
_cell_volume 4352.587857
_symmetry_space_group_name_H-M "C M C A"
_symmetry_group_IT_number 64
_symmetry_cell_setting 'orthorhombic'
loop_
_space_group_symop_operation_xyz
x,y,z
-x,1/2-y,1/2+z
x,-y,-z
-x,1/2+y,1/2-z
-x,-y,-z
x,1/2+y,1/2-z
-x,y,z
x,1/2-y,1/2+z
1/2+x,1/2+y,z
1/2-x,-y,1/2+z
1/2+x,1/2-y,-z
1/2-x,y,1/2-z
1/2-x,1/2-y,-z
1/2+x,y,1/2-z
1/2-x,1/2+y,z
1/2+x,-y,1/2+z
loop_
_atom_site_type_symbol
_atom_site_label
_atom_site_fract_x
_atom_site_fract_y
_atom_site_fract_z
Si Si1 0.085867 0.639483 0.302322
Si Si2 0.155474 0.206114 0.984474
Si Si3 0.088659 0.943355 0.031448
Si Si4 0.336377 0.872143 0.249281
Si Si5 0.174358 0.676296 0.039787
O O1 0.091068 0.688145 0.407380
O O2 0.110924 0.590042 0.394472
O O3 0.144893 0.646077 0.176042
O O4 0.000000 0.634704 0.246185
O O5 0.146154 0.181038 0.830913
O O6 0.141015 0.266455 0.969077
O O7 0.235753 0.185641 0.045343
O O8 0.119912 0.919723 0.178363
O O9 0.000000 0.945703 0.052662
O O10 0.122249 0.000000 0.000000
O O11 0.250000 0.888357 0.250000
O O12 0.356905 0.859336 0.087614
#
# Coordination Sequence:
#
# PCOD8261744 Si02
#       5
#    16  16  16  16  16
#     4  10  20  32  49  75 101 128 167 209 248 293
#     4   9  18  33  51  71 103 143 166 185 239 310
#     4   9  19  38  57  69  94 138 174 203 257 323
#     4   9  18  32  51  77 102 126 167 212 246 290
#     4  10  18  31  52  76 102 132 167 204 240 288
#
# _framework density 18.37987
#
# number of rings (size 3 to 8) (size 9 to 14) (size 15 to 20)
#    0.000    2.600    0.000    1.800    0.000    4.800 
#    0.000   11.000    0.000    3.600    0.000    0.000 
#    0.000    0.000    0.000    0.000    0.000    0.000 
#
# Total GULP energy -495704.677000 kJ/mol
# GULP energy per Si atom -12392.616925 kJ/mol
# Density = 1.833804 g / cm^3
# Si number density = 18.379870 Si / 1000 Ang^3
#
#
#
# Elastic Constant Matrix: (Units=GPa)
#
#
# Indices 1 2 3 4 5 6 
#
# 1 27.6894 23.6271 35.4171 0.0000 0.0000 0.0000
# 2 23.6271 128.5635 53.3516 0.0000 0.0000 0.0000
# 3 35.4171 53.3516 116.8245 0.0000 0.0000 0.0000
# 4 0.0000 0.0000 0.0000 12.5573 0.0000 0.0000
# 5 0.0000 0.0000 0.0000 0.0000 32.1814 0.0000
# 6 0.0000 0.0000 0.0000 0.0000 0.0000 21.9498
#
#
#
# Elastic Compliance Matrix: (Units=1/GPa)
#
#
# Indices 1 2 3 4 5 6 
#
# 1 0.060905 -0.004356 -0.016475 0.000000 0.000000 0.000000
# 2 -0.004356 0.009909 -0.003204 0.000000 0.000000 0.000000
# 3 -0.016475 -0.003204 0.015018 0.000000 0.000000 0.000000
# 4 0.000000 0.000000 0.000000 0.079635 0.000000 0.000000
# 5 0.000000 0.000000 0.000000 0.000000 0.031074 0.000000
# 6 0.000000 0.000000 0.000000 0.000000 0.000000 0.045559
#
#
# Mechanical properties :
#
#
# Convention : Reuss Voigt Hill
#
# Bulk Modulus (GPa) = 26.48286 55.31880 40.90083
# Shear Modulus (GPa) = 16.51495 24.04981 20.28238
#
# Velocity S-wave (km/s) = 3.00081 3.62122 3.32552
# Velocity P-wave (km/s) = 5.14260 6.90269 6.08661
#
# Compressibility (1/GPa) = 0.03776027
#
# Stress axis : x y z
#
# Youngs Moduli (GPa) = 16.41913 100.92228 66.58761
#
# Poissons Ratio (x) = 0.43964 1.09701
# Poissons Ratio (y) = 0.07152 0.21338
# Poissons Ratio (z) = 0.27050 0.32340
#
# Static dielectric constant tensor:
#      x y z
#    x 3.238070 0.000000 0.000000 
#    y 0.000000 3.428380 0.000000 
#    z 0.000000 0.000000 3.512250 
# 
# 
# High freq. dielectric constant tensor:
#      x y z
#    x 1.697700 0.000000 0.000000 
#    y 0.000000 1.699340 0.000000 
#    z 0.000000 0.000000 1.717340 
# 
# From -- ./inp_files/7009.got.cif
#   From: 2010.03.12/outbox.cif.g09.slc.cpg/sg64_4_cif.got.tgz:7009.got - 2010.04.10 20:19:32.
