data_PCOD8261964
_publ_section_title
;
Structure prediction by ZEFSAII (Michael W. Deem and Ramdas Pophale) SiO2 
 PCOD8261964
Probable space group: C M C A
;
_chemical_formula_sum "Si O2"
_cell_formula_units_Z 56
_cell_length_a 9.784286
_cell_length_b 11.832677
_cell_length_c 19.105963
_cell_angle_alpha 90.000000
_cell_angle_beta 90.000000
_cell_angle_gamma 90.000000
_cell_volume 2211.979414
_symmetry_space_group_name_H-M "C M C A"
_symmetry_group_IT_number 64
_symmetry_cell_setting 'orthorhombic'
loop_
_space_group_symop_operation_xyz
x,y,z
-x,1/2-y,1/2+z
x,-y,-z
-x,1/2+y,1/2-z
-x,-y,-z
x,1/2+y,1/2-z
-x,y,z
x,1/2-y,1/2+z
1/2+x,1/2+y,z
1/2-x,-y,1/2+z
1/2+x,1/2-y,-z
1/2-x,y,1/2-z
1/2-x,1/2-y,-z
1/2+x,y,1/2-z
1/2-x,1/2+y,z
1/2+x,-y,1/2+z
loop_
_atom_site_type_symbol
_atom_site_label
_atom_site_fract_x
_atom_site_fract_y
_atom_site_fract_z
Si Si1 0.500000 0.639120 0.955588
Si Si2 0.000000 0.284331 0.756214
Si Si3 0.283980 0.067154 0.899124
Si Si4 0.500000 0.890510 0.896765
Si Si5 0.500000 0.759596 0.597730
Si Si6 0.750000 0.128027 0.750000
O O1 0.634028 0.570752 0.932131
O O2 0.500000 0.765660 0.926762
O O3 0.500000 0.641979 0.040039
O O4 0.000000 0.320508 0.674101
O O5 0.871665 0.207827 0.774551
O O6 0.000000 0.388271 0.811267
O O7 0.365196 0.183439 0.913241
O O8 0.281886 0.048136 0.815455
O O9 0.366571 0.957025 0.926439
#
# Coordination Sequence:
#
# PCOD8261964 Si02
#       6
#     8   8  16   8   8   8
#     4  12  22  46  74  97 146 195 217 295 360 410
#     4  10  20  40  69 101 130 184 234 278 357 407
#     4  10  22  40  69 106 135 178 243 291 340 420
#     4  11  24  42  71 102 132 186 239 289 351 416
#     4   9  22  41  72 100 146 189 228 285 361 420
#     4  10  18  40  64  96 136 170 230 302 334 404
#
# _framework density 25.316690999999999
#
# number of rings (size 3 to 8) (size 9 to 14) (size 15 to 20)
#    0.000    1.714    2.857    1.714    0.000    3.429 
#    0.000    4.286    6.286    3.429    0.000    0.000 
#    0.000    0.000    0.000    0.000    0.000    0.000 
#
# Total GULP energy -347198.997992 kJ/mol
# GULP energy per Si atom -12399.964214 kJ/mol
# Density = 2.525907 g / cm^3
# Si number density = 25.316691 Si / 1000 Ang^3
#
#
#
# Elastic Constant Matrix: (Units=GPa)
#
#
# Indices 1 2 3 4 5 6 
#
# 1 196.7978 63.0534 17.8330 0.0000 0.0000 0.0000
# 2 63.0534 95.7917 35.0452 0.0000 0.0000 0.0000
# 3 17.8330 35.0452 98.6725 0.0000 0.0000 0.0000
# 4 0.0000 0.0000 0.0000 19.8798 0.0000 0.0000
# 5 0.0000 0.0000 0.0000 0.0000 21.4183 0.0000
# 6 0.0000 0.0000 0.0000 0.0000 0.0000 23.6611
#
#
#
# Elastic Compliance Matrix: (Units=1/GPa)
#
#
# Indices 1 2 3 4 5 6 
#
# 1 0.006453 -0.004391 0.000393 0.000000 0.000000 0.000000
# 2 -0.004391 0.014987 -0.004529 0.000000 0.000000 0.000000
# 3 0.000393 -0.004529 0.011672 0.000000 0.000000 0.000000
# 4 0.000000 0.000000 0.000000 0.050302 0.000000 0.000000
# 5 0.000000 0.000000 0.000000 0.000000 0.046689 0.000000
# 6 0.000000 0.000000 0.000000 0.000000 0.000000 0.042263
#
#
# Mechanical properties :
#
#
# Convention : Reuss Voigt Hill
#
# Bulk Modulus (GPa) = 62.27634 69.23614 65.75624
# Shear Modulus (GPa) = 25.67092 31.34720 28.50906
#
# Velocity S-wave (km/s) = 3.18778 3.52263 3.35938
# Velocity P-wave (km/s) = 6.18074 6.62968 6.40914
#
# Compressibility (1/GPa) = 0.01605746
#
# Stress axis : x y z
#
# Youngs Moduli (GPa) = 154.97464 66.72528 85.67480
#
# Poissons Ratio (x) = 0.29301 -0.03371
# Poissons Ratio (y) = 0.68054 0.38804
# Poissons Ratio (z) = -0.06098 0.30221
#
# Static dielectric constant tensor:
#      x y z
#    x 4.752290 0.000000 0.000000 
#    y 0.000000 4.028360 0.000000 
#    z 0.000000 0.000000 4.861230 
# 
# 
# High freq. dielectric constant tensor:
#      x y z
#    x 2.025490 0.000000 0.000000 
#    y 0.000000 1.984080 0.000000 
#    z 0.000000 0.000000 2.025180 
# 
# From -- ./inp_files/36198.got.cif
#   From: 2010.03.12/outbox.cif.g09.slc.cpg/sg64_19_cif.got.tgz:36198.got - 2010.04.10 20:19:32.
