data_PCOD8261510
_publ_section_title
;
Structure prediction by ZEFSAII (Michael W. Deem and Ramdas Pophale) SiO2 
 PCOD8261510
Probable space group: C M C A
;
_chemical_formula_sum "Si O2"
_cell_formula_units_Z 112
_cell_length_a 17.549248
_cell_length_b 19.419737
_cell_length_c 19.256318
_cell_angle_alpha 90.000000
_cell_angle_beta 90.000000
_cell_angle_gamma 90.000000
_cell_volume 6562.587464
_symmetry_space_group_name_H-M "C M C A"
_symmetry_group_IT_number 64
_symmetry_cell_setting 'orthorhombic'
loop_
_space_group_symop_operation_xyz
x,y,z
-x,1/2-y,1/2+z
x,-y,-z
-x,1/2+y,1/2-z
-x,-y,-z
x,1/2+y,1/2-z
-x,y,z
x,1/2-y,1/2+z
1/2+x,1/2+y,z
1/2-x,-y,1/2+z
1/2+x,1/2-y,-z
1/2-x,y,1/2-z
1/2-x,1/2-y,-z
1/2+x,y,1/2-z
1/2-x,1/2+y,z
1/2+x,-y,1/2+z
loop_
_atom_site_type_symbol
_atom_site_label
_atom_site_fract_x
_atom_site_fract_y
_atom_site_fract_z
Si Si1 0.660135 0.122435 0.250081
Si Si2 0.910841 0.664952 0.758239
Si Si3 0.409795 0.276324 0.650086
Si Si4 0.590492 0.552153 0.942377
Si Si5 0.909577 0.298825 0.483789
Si Si6 0.589959 0.277836 0.861897
Si Si7 0.090482 0.480702 0.286922
O O1 0.750000 0.125865 0.250000
O O2 0.630016 0.154657 0.177787
O O3 0.628359 0.162583 0.316841
O O4 0.632725 0.044150 0.251839
O O5 0.879145 0.712107 0.695770
O O6 0.890784 0.702000 0.831220
O O7 0.879078 0.587313 0.754047
O O8 0.000000 0.658846 0.746154
O O9 0.500000 0.285525 0.658727
O O10 0.385888 0.261128 0.570459
O O11 0.500000 0.554873 0.945932
O O12 0.623811 0.627966 0.958511
O O13 0.616340 0.526389 0.866902
O O14 0.623353 0.500000 0.000000
O O15 0.877545 0.280130 0.559935
O O16 0.000000 0.303759 0.486796
O O17 0.500000 0.292070 0.859145
O O18 0.000000 0.491151 0.280574
#
# Coordination Sequence:
#
# PCOD8261510 Si02
#       7
#    16  16  16  16  16  16  16
#     4  11  22  33  45  68  98 135 170 203 233 284
#     4   8  14  26  47  72  96 121 154 194 238 291
#     4   9  16  31  52  74  98 125 158 197 244 294
#     4   9  15  22  40  73 104 120 139 184 246 302
#     4   9  15  26  49  80 102 119 151 200 254 301
#     4   9  17  31  52  77 100 121 155 204 252 297
#     4  10  17  29  48  70  96 126 159 199 246 288
#
# _framework density 17.06644
#
# number of rings (size 3 to 8) (size 9 to 14) (size 15 to 20)
#    0.000    2.714    1.429    3.000    0.000    2.286 
#    0.000    3.571    0.000    0.857    3.714    5.000 
#    0.000    0.000    0.000    0.000    0.000    0.000 
#
# Total GULP energy -694114.955567 kJ/mol
# GULP energy per Si atom -12394.909921 kJ/mol
# Density = 1.702760 g / cm^3
# Si number density = 17.066440 Si / 1000 Ang^3
#
#
#
# Elastic Constant Matrix: (Units=GPa)
#
#
# Indices 1 2 3 4 5 6 
#
# 1 38.5396 29.2523 21.3648 0.0000 0.0000 0.0000
# 2 29.2523 135.2722 61.8130 0.0000 0.0000 0.0000
# 3 21.3648 61.8130 102.8583 0.0000 0.0000 0.0000
# 4 0.0000 0.0000 0.0000 28.5510 0.0000 0.0000
# 5 0.0000 0.0000 0.0000 0.0000 6.1523 0.0000
# 6 0.0000 0.0000 0.0000 0.0000 0.0000 2.1227
#
#
#
# Elastic Compliance Matrix: (Units=1/GPa)
#
#
# Indices 1 2 3 4 5 6 
#
# 1 0.031891 -0.005334 -0.003418 0.000000 0.000000 0.000000
# 2 -0.005334 0.011083 -0.005553 0.000000 0.000000 0.000000
# 3 -0.003418 -0.005553 0.013769 0.000000 0.000000 0.000000
# 4 0.000000 0.000000 0.000000 0.035025 0.000000 0.000000
# 5 0.000000 0.000000 0.000000 0.000000 0.162540 0.000000
# 6 0.000000 0.000000 0.000000 0.000000 0.000000 0.471100
#
#
# Mechanical properties :
#
#
# Convention : Reuss Voigt Hill
#
# Bulk Modulus (GPa) = 35.54564 55.72559 45.63561
# Shear Modulus (GPa) = 6.54967 18.31455 12.43211
#
# Velocity S-wave (km/s) = 1.96114 3.27942 2.70192
# Velocity P-wave (km/s) = 5.09913 6.86021 6.04416
#
# Compressibility (1/GPa) = 0.02813284
#
# Stress axis : x y z
#
# Youngs Moduli (GPa) = 31.35656 90.22602 72.62707
#
# Poissons Ratio (x) = 0.48129 0.24827
# Poissons Ratio (y) = 0.16727 0.40326
# Poissons Ratio (z) = 0.10719 0.50098
#
# Static dielectric constant tensor:
#      x y z
#    x 2.667950 0.000000 0.000000 
#    y 0.000000 3.362170 0.000000 
#    z 0.000000 0.000000 3.369200 
# 
# 
# High freq. dielectric constant tensor:
#      x y z
#    x 1.600180 0.000000 0.000000 
#    y 0.000000 1.661440 0.000000 
#    z 0.000000 0.000000 1.658130 
# 
# From -- ./inp_files/41120.got.cif
#   From: 2010.03.12/outbox.cif.g09.slc.cpg/sg64_21_cif.got.tgz:41120.got - 2010.04.10 20:19:32.
