data_PCOD8261821
_publ_section_title
;
Structure prediction by ZEFSAII (Michael W. Deem and Ramdas Pophale) SiO2 
 PCOD8261821
Probable space group: C M C A
;
_chemical_formula_sum "Si O2"
_cell_formula_units_Z 96
_cell_length_a 23.979186
_cell_length_b 22.613713
_cell_length_c 9.565655
_cell_angle_alpha 90.000000
_cell_angle_beta 90.000000
_cell_angle_gamma 90.000000
_cell_volume 5187.057064
_symmetry_space_group_name_H-M "C M C A"
_symmetry_group_IT_number 64
_symmetry_cell_setting 'orthorhombic'
loop_
_space_group_symop_operation_xyz
x,y,z
-x,1/2-y,1/2+z
x,-y,-z
-x,1/2+y,1/2-z
-x,-y,-z
x,1/2+y,1/2-z
-x,y,z
x,1/2-y,1/2+z
1/2+x,1/2+y,z
1/2-x,-y,1/2+z
1/2+x,1/2-y,-z
1/2-x,y,1/2-z
1/2-x,1/2-y,-z
1/2+x,y,1/2-z
1/2-x,1/2+y,z
1/2+x,-y,1/2+z
loop_
_atom_site_type_symbol
_atom_site_label
_atom_site_fract_x
_atom_site_fract_y
_atom_site_fract_z
Si Si1 0.895452 0.632098 0.916965
Si Si2 0.000000 0.210727 0.534345
Si Si3 0.110268 0.392020 0.759740
Si Si4 0.712971 0.307140 0.382048
Si Si5 0.937215 0.988839 0.335643
Si Si6 0.000000 0.820913 0.778906
Si Si7 0.789268 0.324892 0.619190
O O1 0.946593 0.676657 0.907971
O O2 0.842209 0.658124 0.838973
O O3 0.909727 0.575263 0.822787
O O4 0.878006 0.622567 0.078444
O O5 0.000000 0.276817 0.591272
O O6 0.000000 0.214699 0.366743
O O7 0.100824 0.463136 0.753096
O O8 0.053804 0.361829 0.708747
O O9 0.159527 0.369246 0.656306
O O10 0.750000 0.297283 0.250000
O O11 0.749240 0.345929 0.492799
O O12 0.692079 0.241374 0.430338
O O13 0.000000 0.990128 0.273522
O O14 0.940852 0.000000 0.500000
O O15 0.750000 0.320963 0.750000
#
# Coordination Sequence:
#
# PCOD8261821 Si02
#       7
#    16   8  16  16  16   8  16
#     4  10  18  33  55  80 109 143 187 227 278 338
#     4  10  20  33  53  83 113 140 175 230 280 332
#     4  10  18  32  56  80 108 143 187 232 276 333
#     4  10  21  35  55  79 111 149 185 226 283 341
#     4   9  16  30  54  81 105 142 182 228 275 321
#     4  10  20  33  51  83 115 138 177 228 280 338
#     4  10  19  35  55  79 111 145 182 228 279 332
#
# _framework density 18.507604000000001
#
# number of rings (size 3 to 8) (size 9 to 14) (size 15 to 20)
#    0.000    2.167    3.333    1.000    0.000    0.000 
#    3.000    0.833    0.000    0.000    0.000    2.333 
#    0.000    0.000    0.000    0.000    0.000    0.000 
#
# Total GULP energy -594740.589117 kJ/mol
# GULP energy per Si atom -12390.428940 kJ/mol
# Density = 1.846548 g / cm^3
# Si number density = 18.507604 Si / 1000 Ang^3
#
#
#
# Elastic Constant Matrix: (Units=GPa)
#
#
# Indices 1 2 3 4 5 6 
#
# 1 131.2083 51.5103 23.6304 0.0000 0.0000 0.0000
# 2 51.5103 79.4108 17.4417 0.0000 0.0000 0.0000
# 3 23.6304 17.4417 41.1291 0.0000 0.0000 0.0000
# 4 0.0000 0.0000 0.0000 26.6193 0.0000 0.0000
# 5 0.0000 0.0000 0.0000 0.0000 75.5964 0.0000
# 6 0.0000 0.0000 0.0000 0.0000 0.0000 13.7219
#
#
#
# Elastic Compliance Matrix: (Units=1/GPa)
#
#
# Indices 1 2 3 4 5 6 
#
# 1 0.010669 -0.006147 -0.003523 0.000000 0.000000 0.000000
# 2 -0.006147 0.017427 -0.003859 0.000000 0.000000 0.000000
# 3 -0.003523 -0.003859 0.027974 0.000000 0.000000 0.000000
# 4 0.000000 0.000000 0.000000 0.037567 0.000000 0.000000
# 5 0.000000 0.000000 0.000000 0.000000 0.013228 0.000000
# 6 0.000000 0.000000 0.000000 0.000000 0.000000 0.072876
#
#
# Mechanical properties :
#
#
# Convention : Reuss Voigt Hill
#
# Bulk Modulus (GPa) = 34.46708 48.54590 41.50649
# Shear Modulus (GPa) = 23.09779 33.79857 28.44818
#
# Velocity S-wave (km/s) = 3.53656 4.27804 3.92485
# Velocity P-wave (km/s) = 5.94474 7.11965 6.55856
#
# Compressibility (1/GPa) = 0.02901319
#
# Stress axis : x y z
#
# Youngs Moduli (GPa) = 93.72857 57.38074 35.74700
#
# Poissons Ratio (x) = 0.35271 0.12594
# Poissons Ratio (y) = 0.57613 0.13795
# Poissons Ratio (z) = 0.33022 0.22143
#
# Static dielectric constant tensor:
#      x y z
#    x 3.407840 0.000000 0.000000 
#    y 0.000000 3.512700 0.000000 
#    z 0.000000 0.000000 2.964980 
# 
# 
# High freq. dielectric constant tensor:
#      x y z
#    x 1.726010 0.000000 0.000000 
#    y 0.000000 1.707810 0.000000 
#    z 0.000000 0.000000 1.684540 
# 
# From -- ./inp_files/9562.got.cif
#   From: 2010.03.12/outbox.cif.g09.slc.cpg/sg64_5_cif.got.tgz:9562.got - 2010.04.10 20:19:32.
