data_PCOD8261469
_publ_section_title
;
Structure prediction by ZEFSAII (Michael W. Deem and Ramdas Pophale) SiO2 
 PCOD8261469
Probable space group: C M C A
;
_chemical_formula_sum "Si O2"
_cell_formula_units_Z 120
_cell_length_a 21.556969
_cell_length_b 18.859051
_cell_length_c 19.112432
_cell_angle_alpha 90.000000
_cell_angle_beta 90.000000
_cell_angle_gamma 90.000000
_cell_volume 7770.044130
_symmetry_space_group_name_H-M "C M C A"
_symmetry_group_IT_number 64
_symmetry_cell_setting 'orthorhombic'
loop_
_space_group_symop_operation_xyz
x,y,z
-x,1/2-y,1/2+z
x,-y,-z
-x,1/2+y,1/2-z
-x,-y,-z
x,1/2+y,1/2-z
-x,y,z
x,1/2-y,1/2+z
1/2+x,1/2+y,z
1/2-x,-y,1/2+z
1/2+x,1/2-y,-z
1/2-x,y,1/2-z
1/2-x,1/2-y,-z
1/2+x,y,1/2-z
1/2-x,1/2+y,z
1/2+x,-y,1/2+z
loop_
_atom_site_type_symbol
_atom_site_label
_atom_site_fract_x
_atom_site_fract_y
_atom_site_fract_z
Si Si1 0.427976 0.784629 0.957847
Si Si2 0.364351 0.248101 0.182686
Si Si3 0.250000 0.691361 0.250000
Si Si4 0.572706 0.764773 0.608545
Si Si5 0.872100 0.133741 0.211047
Si Si6 0.073088 0.512660 0.207699
Si Si7 0.571818 0.052904 0.056803
Si Si8 0.572747 0.349432 0.278507
O O1 0.500000 0.769030 0.938818
O O2 0.382098 0.756603 0.898238
O O3 0.418010 0.867894 0.969948
O O4 0.406667 0.745682 0.028546
O O5 0.289750 0.240490 0.195738
O O6 0.398595 0.185141 0.226744
O O7 0.389062 0.323149 0.211062
O O8 0.202856 0.640315 0.292543
O O9 0.500000 0.772694 0.612983
O O10 0.601887 0.838066 0.637102
O O11 0.593984 0.696585 0.654095
O O12 0.893604 0.053941 0.228192
O O13 0.100227 0.542450 0.134256
O O14 0.091069 0.430575 0.210091
O O15 0.000000 0.525189 0.215553
O O16 0.500000 0.032077 0.063397
O O17 0.603096 0.000000 0.000000
O O18 0.500000 0.340876 0.263914
#
# Coordination Sequence:
#
# PCOD8261469 Si02
#       8
#    16  16   8  16  16  16  16  16
#     4  10  17  26  44  71  95 121 152 185 242 300
#     4   9  17  31  48  61  91 121 160 198 224 259
#     4   8  18  32  48  64  86 118 172 208 206 260
#     4   9  17  28  45  71  99 121 147 190 243 293
#     4   9  17  31  48  61  91 123 159 197 227 262
#     4  10  17  26  44  71  94 119 150 182 238 298
#     4   9  15  22  35  61  98 123 132 167 228 296
#     4   9  17  28  45  70  98 121 147 190 240 287
#
# _framework density 15.443928
#
# number of rings (size 3 to 8) (size 9 to 14) (size 15 to 20)
#    0.800    2.000    1.333    1.600    0.000    4.267 
#    0.000    1.333    0.000    0.800    0.000    3.733 
#    4.000    0.000    0.000    0.000    0.000    0.000 
#
# Total GULP energy -743576.274076 kJ/mol
# GULP energy per Si atom -12392.937901 kJ/mol
# Density = 1.540878 g / cm^3
# Si number density = 15.443928 Si / 1000 Ang^3
#
#
#
# Elastic Constant Matrix: (Units=GPa)
#
#
# Indices 1 2 3 4 5 6 
#
# 1 45.1086 28.7845 45.1230 0.0000 0.0000 0.0000
# 2 28.7845 48.3988 36.4715 0.0000 0.0000 0.0000
# 3 45.1230 36.4715 104.3297 0.0000 0.0000 0.0000
# 4 0.0000 0.0000 0.0000 24.3468 0.0000 0.0000
# 5 0.0000 0.0000 0.0000 0.0000 17.5498 0.0000
# 6 0.0000 0.0000 0.0000 0.0000 0.0000 15.0115
#
#
#
# Elastic Compliance Matrix: (Units=1/GPa)
#
#
# Indices 1 2 3 4 5 6 
#
# 1 0.047974 -0.017509 -0.014628 0.000000 0.000000 0.000000
# 2 -0.017509 0.034441 -0.004467 0.000000 0.000000 0.000000
# 3 -0.014628 -0.004467 0.017474 0.000000 0.000000 0.000000
# 4 0.000000 0.000000 0.000000 0.041073 0.000000 0.000000
# 5 0.000000 0.000000 0.000000 0.000000 0.056981 0.000000
# 6 0.000000 0.000000 0.000000 0.000000 0.000000 0.066615
#
#
# Mechanical properties :
#
#
# Convention : Reuss Voigt Hill
#
# Bulk Modulus (GPa) = 37.48104 46.51056 41.99580
# Shear Modulus (GPa) = 14.42333 17.21216 15.81774
#
# Velocity S-wave (km/s) = 3.05932 3.34202 3.20379
# Velocity P-wave (km/s) = 6.06639 6.71367 6.39822
#
# Compressibility (1/GPa) = 0.02668016
#
# Stress axis : x y z
#
# Youngs Moduli (GPa) = 20.84450 29.03500 57.22945
#
# Poissons Ratio (x) = 0.50836 0.83717
# Poissons Ratio (y) = 0.36496 0.25566
# Poissons Ratio (z) = 0.30492 0.12971
#
# Static dielectric constant tensor:
#      x y z
#    x 2.627570 0.000000 0.000000 
#    y 0.000000 2.804300 0.000000 
#    z 0.000000 0.000000 2.930260 
# 
# 
# High freq. dielectric constant tensor:
#      x y z
#    x 1.555500 0.000000 0.000000 
#    y 0.000000 1.578530 0.000000 
#    z 0.000000 0.000000 1.582260 
# 
# From -- ./inp_files/35573.got.cif
#   From: 2010.03.12/outbox.cif.g09.slc.cpg/sg64_18_cif.got.tgz:35573.got - 2010.04.10 20:19:32.
