data_PCOD8261607
_publ_section_title
;
Structure prediction by ZEFSAII (Michael W. Deem and Ramdas Pophale) SiO2 
 PCOD8261607
Probable space group: C M C A
;
_chemical_formula_sum "Si O2"
_cell_formula_units_Z 80
_cell_length_a 18.720671
_cell_length_b 16.589193
_cell_length_c 15.751118
_cell_angle_alpha 90.000000
_cell_angle_beta 90.000000
_cell_angle_gamma 90.000000
_cell_volume 4891.680190
_symmetry_space_group_name_H-M "C M C A"
_symmetry_group_IT_number 64
_symmetry_cell_setting 'orthorhombic'
loop_
_space_group_symop_operation_xyz
x,y,z
-x,1/2-y,1/2+z
x,-y,-z
-x,1/2+y,1/2-z
-x,-y,-z
x,1/2+y,1/2-z
-x,y,z
x,1/2-y,1/2+z
1/2+x,1/2+y,z
1/2-x,-y,1/2+z
1/2+x,1/2-y,-z
1/2-x,y,1/2-z
1/2-x,1/2-y,-z
1/2+x,y,1/2-z
1/2-x,1/2+y,z
1/2+x,-y,1/2+z
loop_
_atom_site_type_symbol
_atom_site_label
_atom_site_fract_x
_atom_site_fract_y
_atom_site_fract_z
Si Si1 0.768845 0.304971 0.385474
Si Si2 0.250000 0.318232 0.750000
Si Si3 0.250000 0.070596 0.750000
Si Si4 0.000000 0.372513 0.024205
Si Si5 0.150722 0.438901 0.823141
Si Si6 0.000000 0.983144 0.639542
Si Si7 0.650834 0.675998 0.478950
O O1 0.731548 0.233414 0.332697
O O2 0.793321 0.374059 0.318543
O O3 0.710790 0.339675 0.450271
O O4 0.836091 0.262864 0.433113
O O5 0.178481 0.371847 0.757747
O O6 0.196743 0.019319 0.691452
O O7 0.000000 0.423096 0.111872
O O8 0.071893 0.318602 0.020216
O O9 0.000000 0.430819 0.944570
O O10 0.158129 0.402204 0.917882
O O11 0.068904 0.461879 0.803746
#
# Coordination Sequence:
#
# PCOD8261607 Si02
#       7
#    16   8   8   8  16   8  16
#     4   9  17  29  45  64  86 113 146 179 211 254
#     4   8  16  30  44  62  88 116 144 176 216 256
#     4  10  18  28  44  66  88 110 142 182 216 252
#     4   9  16  26  42  64  86 107 139 179 212 245
#     4   9  17  29  45  64  88 115 142 177 219 256
#     4   9  16  26  42  64  86 109 139 175 212 251
#     4   9  17  30  46  63  86 116 145 175 214 258
#
# _framework density 16.354299000000001
#
# number of rings (size 3 to 8) (size 9 to 14) (size 15 to 20)
#    0.000    3.000    0.000    1.200    0.000    2.400 
#    0.000    2.000    0.000    7.200    0.000    0.000 
#    0.000   12.800    0.000    0.000    0.000    0.000 
#
# Total GULP energy -495553.468669 kJ/mol
# GULP energy per Si atom -12388.836717 kJ/mol
# Density = 1.631708 g / cm^3
# Si number density = 16.354299 Si / 1000 Ang^3
#
#
#
# Elastic Constant Matrix: (Units=GPa)
#
#
# Indices 1 2 3 4 5 6 
#
# 1 128.5127 52.5720 38.6962 0.0000 0.0000 0.0000
# 2 52.5720 85.2782 34.5924 0.0000 0.0000 0.0000
# 3 38.6962 34.5924 55.0169 0.0000 0.0000 0.0000
# 4 0.0000 0.0000 0.0000 17.2845 0.0000 0.0000
# 5 0.0000 0.0000 0.0000 0.0000 20.0663 0.0000
# 6 0.0000 0.0000 0.0000 0.0000 0.0000 18.6092
#
#
#
# Elastic Compliance Matrix: (Units=1/GPa)
#
#
# Indices 1 2 3 4 5 6 
#
# 1 0.011269 -0.005010 -0.004776 0.000000 0.000000 0.000000
# 2 -0.005010 0.017968 -0.007774 0.000000 0.000000 0.000000
# 3 -0.004776 -0.007774 0.026424 0.000000 0.000000 0.000000
# 4 0.000000 0.000000 0.000000 0.057855 0.000000 0.000000
# 5 0.000000 0.000000 0.000000 0.000000 0.049835 0.000000
# 6 0.000000 0.000000 0.000000 0.000000 0.000000 0.053737
#
#
# Mechanical properties :
#
#
# Convention : Reuss Voigt Hill
#
# Bulk Modulus (GPa) = 48.68344 57.83657 53.26001
# Shear Modulus (GPa) = 19.30100 20.72182 20.01141
#
# Velocity S-wave (km/s) = 3.43910 3.56343 3.50182
# Velocity P-wave (km/s) = 6.75296 7.23687 6.99910
#
# Compressibility (1/GPa) = 0.02054086
#
# Stress axis : x y z
#
# Youngs Moduli (GPa) = 88.74091 55.65406 37.84493
#
# Poissons Ratio (x) = 0.27880 0.18075
# Poissons Ratio (y) = 0.44455 0.29421
# Poissons Ratio (z) = 0.42384 0.43266
#
# Static dielectric constant tensor:
#      x y z
#    x 3.142700 0.000000 0.000000 
#    y 0.000000 3.189280 0.000000 
#    z 0.000000 0.000000 3.065500 
# 
# 
# High freq. dielectric constant tensor:
#      x y z
#    x 1.609490 0.000000 0.000000 
#    y 0.000000 1.628580 0.000000 
#    z 0.000000 0.000000 1.619820 
# 
# From -- ./inp_files/26469.got.cif
#   From: 2010.03.12/outbox.cif.g09.slc.cpg/sg64_14_cif.got.tgz:26469.got - 2010.04.10 20:19:32.
