data_PCOD8261815
_publ_section_title
;
Structure prediction by ZEFSAII (Michael W. Deem and Ramdas Pophale) SiO2 
 PCOD8261815
Probable space group: C M C A
;
_chemical_formula_sum "Si O2"
_cell_formula_units_Z 88
_cell_length_a 9.024399
_cell_length_b 20.062789
_cell_length_c 25.091397
_cell_angle_alpha 90.000000
_cell_angle_beta 90.000000
_cell_angle_gamma 90.000000
_cell_volume 4542.913173
_symmetry_space_group_name_H-M "C M C A"
_symmetry_group_IT_number 64
_symmetry_cell_setting 'orthorhombic'
loop_
_space_group_symop_operation_xyz
x,y,z
-x,1/2-y,1/2+z
x,-y,-z
-x,1/2+y,1/2-z
-x,-y,-z
x,1/2+y,1/2-z
-x,y,z
x,1/2-y,1/2+z
1/2+x,1/2+y,z
1/2-x,-y,1/2+z
1/2+x,1/2-y,-z
1/2-x,y,1/2-z
1/2-x,1/2-y,-z
1/2+x,y,1/2-z
1/2-x,1/2+y,z
1/2+x,-y,1/2+z
loop_
_atom_site_type_symbol
_atom_site_label
_atom_site_fract_x
_atom_site_fract_y
_atom_site_fract_z
Si Si1 0.165867 0.030102 0.614044
Si Si2 0.826547 0.078392 0.306306
Si Si3 0.165397 0.145987 0.013331
Si Si4 0.177540 0.825559 0.407411
Si Si5 0.826045 0.304566 0.883090
Si Si6 0.258591 0.500000 0.000000
O O1 0.236367 0.104302 0.617092
O O2 0.000000 0.036354 0.634477
O O3 0.244559 0.977838 0.654058
O O4 0.160265 0.003424 0.553382
O O5 0.750000 0.072231 0.250000
O O6 0.796654 0.151122 0.330892
O O7 0.000000 0.066856 0.298822
O O8 0.253283 0.157647 0.067435
O O9 0.000000 0.177096 0.016511
O O10 0.258307 0.182384 0.967017
O O11 0.144371 0.066984 0.002931
O O12 0.245662 0.766044 0.372302
O O13 0.000000 0.822322 0.409408
O O14 0.000000 0.294468 0.893807
#
# Coordination Sequence:
#
# PCOD8261815 Si02
#       6
#    16  16  16  16  16   8
#     4   9  18  35  59  85 115 150 190 234 286 348
#     4  10  22  41  62  86 111 148 196 243 289 341
#     4  11  21  33  52  83 121 155 190 231 285 345
#     4  10  21  36  57  84 117 154 190 231 286 347
#     4  11  22  38  58  81 114 152 194 239 285 339
#     4  10  18  32  54  86 119 150 189 236 291 340
#
# _framework density 19.370829000000001
#
# number of rings (size 3 to 8) (size 9 to 14) (size 15 to 20)
#    0.000    1.818    1.818    2.727    0.000    2.909 
#    0.000    2.727    0.000    4.364    0.000    0.000 
#    0.000    0.000    0.000    0.000    0.000    0.000 
#
# Total GULP energy -545380.499201 kJ/mol
# GULP energy per Si atom -12395.011345 kJ/mol
# Density = 1.932674 g / cm^3
# Si number density = 19.370829 Si / 1000 Ang^3
#
#
#
# Elastic Constant Matrix: (Units=GPa)
#
#
# Indices 1 2 3 4 5 6 
#
# 1 85.7341 42.3923 37.1763 0.0000 0.0000 0.0000
# 2 42.3923 134.9719 69.3688 0.0000 0.0000 0.0000
# 3 37.1763 69.3688 127.6787 0.0000 0.0000 0.0000
# 4 0.0000 0.0000 0.0000 22.3631 0.0000 0.0000
# 5 0.0000 0.0000 0.0000 0.0000 26.8938 0.0000
# 6 0.0000 0.0000 0.0000 0.0000 0.0000 24.7350
#
#
#
# Elastic Compliance Matrix: (Units=1/GPa)
#
#
# Indices 1 2 3 4 5 6 
#
# 1 0.014317 -0.003266 -0.002394 0.000000 0.000000 0.000000
# 2 -0.003266 0.011024 -0.005039 0.000000 0.000000 0.000000
# 3 -0.002394 -0.005039 0.011267 0.000000 0.000000 0.000000
# 4 0.000000 0.000000 0.000000 0.044717 0.000000 0.000000
# 5 0.000000 0.000000 0.000000 0.000000 0.037183 0.000000
# 6 0.000000 0.000000 0.000000 0.000000 0.000000 0.040429
#
#
# Mechanical properties :
#
#
# Convention : Reuss Voigt Hill
#
# Bulk Modulus (GPa) = 65.74496 71.80663 68.77580
# Shear Modulus (GPa) = 26.96800 28.09487 27.53143
#
# Velocity S-wave (km/s) = 3.73526 3.81250 3.77408
# Velocity P-wave (km/s) = 7.25374 7.51866 7.38739
#
# Compressibility (1/GPa) = 0.01521029
#
# Stress axis : x y z
#
# Youngs Moduli (GPa) = 69.84609 90.70764 88.75656
#
# Poissons Ratio (x) = 0.29628 0.21250
# Poissons Ratio (y) = 0.22814 0.44721
# Poissons Ratio (z) = 0.16722 0.45704
#
# Static dielectric constant tensor:
#      x y z
#    x 3.321250 0.000000 0.000000 
#    y 0.000000 3.961920 0.000000 
#    z 0.000000 0.000000 3.365390 
# 
# 
# High freq. dielectric constant tensor:
#      x y z
#    x 1.741760 0.000000 0.000000 
#    y 0.000000 1.776060 0.000000 
#    z 0.000000 0.000000 1.722290 
# 
# From -- ./inp_files/42824.got.cif
#   From: 2010.03.12/outbox.cif.g09.slc.cpg/sg64_22_cif.got.tgz:42824.got - 2010.04.10 20:19:32.
