data_PCOD8261651
_publ_section_title
;
Structure prediction by ZEFSAII (Michael W. Deem and Ramdas Pophale) SiO2 
 PCOD8261651
Probable space group: C M C A
;
_chemical_formula_sum "Si O2"
_cell_formula_units_Z 104
_cell_length_a 14.619217
_cell_length_b 21.236342
_cell_length_c 20.503935
_cell_angle_alpha 90.000000
_cell_angle_beta 90.000000
_cell_angle_gamma 90.000000
_cell_volume 6365.624841
_symmetry_space_group_name_H-M "C M C A"
_symmetry_group_IT_number 64
_symmetry_cell_setting 'orthorhombic'
loop_
_space_group_symop_operation_xyz
x,y,z
-x,1/2-y,1/2+z
x,-y,-z
-x,1/2+y,1/2-z
-x,-y,-z
x,1/2+y,1/2-z
-x,y,z
x,1/2-y,1/2+z
1/2+x,1/2+y,z
1/2-x,-y,1/2+z
1/2+x,1/2-y,-z
1/2-x,y,1/2-z
1/2-x,1/2-y,-z
1/2+x,y,1/2-z
1/2-x,1/2+y,z
1/2+x,-y,1/2+z
loop_
_atom_site_type_symbol
_atom_site_label
_atom_site_fract_x
_atom_site_fract_y
_atom_site_fract_z
Si Si1 0.606479 0.296033 0.018578
Si Si2 0.398828 0.264146 0.809539
Si Si3 0.399446 0.321322 0.436934
Si Si4 0.722205 0.370926 0.111474
Si Si5 0.108239 0.872130 0.895074
Si Si6 0.250000 0.184580 0.750000
Si Si7 0.894871 0.009674 0.923515
O O1 0.500000 0.309104 0.032477
O O2 0.663512 0.312333 0.083523
O O3 0.622769 0.223010 0.999390
O O4 0.645758 0.343097 0.962793
O O5 0.500000 0.270701 0.778811
O O6 0.402736 0.223833 0.875053
O O7 0.358175 0.332554 0.831604
O O8 0.336808 0.230581 0.756012
O O9 0.500000 0.353492 0.445802
O O10 0.320539 0.373385 0.426028
O O11 0.736922 0.360300 0.188079
O O12 0.671226 0.436577 0.102559
O O13 0.000000 0.863942 0.899032
O O14 0.135852 0.945117 0.887825
O O15 0.000000 0.027133 0.906916
O O16 0.883362 0.000000 0.000000
#
# Coordination Sequence:
#
# PCOD8261651 Si02
#       7
#    16  16  16  16  16   8  16
#     4   9  15  26  47  74  97 116 144 195 249 289
#     4   8  15  30  48  63  89 126 156 191 233 277
#     4   8  16  29  45  66  92 123 159 193 232 282
#     4  11  19  29  45  68 102 130 156 192 239 281
#     4   8  14  27  47  71  95 117 148 187 240 294
#     4  10  22  32  42  70  98 126 170 190 216 288
#     4  10  18  29  48  78 103 117 147 199 254 297
#
# _framework density 16.337752999999999
#
# number of rings (size 3 to 8) (size 9 to 14) (size 15 to 20)
#    0.000    2.923    1.538    2.769    0.000    1.231 
#    0.000    0.769    0.000    0.462    0.000    1.077 
#    0.000    0.000    0.000    0.000    0.000    0.000 
#
# Total GULP energy -644407.799923 kJ/mol
# GULP energy per Si atom -12392.457691 kJ/mol
# Density = 1.630057 g / cm^3
# Si number density = 16.337753 Si / 1000 Ang^3
#
#
#
# Elastic Constant Matrix: (Units=GPa)
#
#
# Indices 1 2 3 4 5 6 
#
# 1 90.6455 51.3688 33.2820 0.0000 0.0000 0.0000
# 2 51.3688 89.9685 26.4677 0.0000 0.0000 0.0000
# 3 33.2820 26.4677 52.9263 0.0000 0.0000 0.0000
# 4 0.0000 0.0000 0.0000 12.5993 0.0000 0.0000
# 5 0.0000 0.0000 0.0000 0.0000 20.2723 0.0000
# 6 0.0000 0.0000 0.0000 0.0000 0.0000 24.3682
#
#
#
# Elastic Compliance Matrix: (Units=1/GPa)
#
#
# Indices 1 2 3 4 5 6 
#
# 1 0.018518 -0.008380 -0.007454 0.000000 0.000000 0.000000
# 2 -0.008380 0.016825 -0.003144 0.000000 0.000000 0.000000
# 3 -0.007454 -0.003144 0.025154 0.000000 0.000000 0.000000
# 4 0.000000 0.000000 0.000000 0.079370 0.000000 0.000000
# 5 0.000000 0.000000 0.000000 0.000000 0.049328 0.000000
# 6 0.000000 0.000000 0.000000 0.000000 0.000000 0.041037
#
#
# Mechanical properties :
#
#
# Convention : Reuss Voigt Hill
#
# Bulk Modulus (GPa) = 44.36536 50.64193 47.50365
# Shear Modulus (GPa) = 18.13558 19.60941 18.87250
#
# Velocity S-wave (km/s) = 3.33534 3.46822 3.40243
# Velocity P-wave (km/s) = 6.48435 6.86311 6.67641
#
# Compressibility (1/GPa) = 0.02254011
#
# Stress axis : x y z
#
# Youngs Moduli (GPa) = 54.00190 59.43626 39.75547
#
# Poissons Ratio (x) = 0.49809 0.29633
# Poissons Ratio (y) = 0.45255 0.12499
# Poissons Ratio (z) = 0.40252 0.18687
#
# Static dielectric constant tensor:
#      x y z
#    x 3.328230 0.000000 0.000000 
#    y 0.000000 3.161040 0.000000 
#    z 0.000000 0.000000 2.859100 
# 
# 
# High freq. dielectric constant tensor:
#      x y z
#    x 1.623550 0.000000 0.000000 
#    y 0.000000 1.607230 0.000000 
#    z 0.000000 0.000000 1.600050 
# 
# From -- ./inp_files/39606.got.cif
#   From: 2010.03.12/outbox.cif.g09.slc.cpg/sg64_20_cif.got.tgz:39606.got - 2010.04.10 20:19:32.
