data_PCOD8261406
_publ_section_title
;
Structure prediction by ZEFSAII (Michael W. Deem and Ramdas Pophale) SiO2 
 PCOD8261406
Probable space group: C M C A
;
_chemical_formula_sum "Si O2"
_cell_formula_units_Z 128
_cell_length_a 17.698932
_cell_length_b 17.117871
_cell_length_c 23.008633
_cell_angle_alpha 90.000000
_cell_angle_beta 90.000000
_cell_angle_gamma 90.000000
_cell_volume 6970.880324
_symmetry_space_group_name_H-M "C M C A"
_symmetry_group_IT_number 64
_symmetry_cell_setting 'orthorhombic'
loop_
_space_group_symop_operation_xyz
x,y,z
-x,1/2-y,1/2+z
x,-y,-z
-x,1/2+y,1/2-z
-x,-y,-z
x,1/2+y,1/2-z
-x,y,z
x,1/2-y,1/2+z
1/2+x,1/2+y,z
1/2-x,-y,1/2+z
1/2+x,1/2-y,-z
1/2-x,y,1/2-z
1/2-x,1/2-y,-z
1/2+x,y,1/2-z
1/2-x,1/2+y,z
1/2+x,-y,1/2+z
loop_
_atom_site_type_symbol
_atom_site_label
_atom_site_fract_x
_atom_site_fract_y
_atom_site_fract_z
Si Si1 0.585419 0.534261 0.313884
Si Si2 0.411147 0.642713 0.109945
Si Si3 0.587530 0.910290 0.485737
Si Si4 0.415176 0.290793 0.676645
Si Si5 0.837757 0.642075 0.630701
Si Si6 0.300933 0.904799 0.193739
Si Si7 0.584543 0.499162 0.819442
Si Si8 0.085970 0.231443 0.698160
O O1 0.500000 0.509466 0.333814
O O2 0.604755 0.619821 0.339648
O O3 0.652125 0.476667 0.334539
O O4 0.588128 0.535190 0.244485
O O5 0.500000 0.638262 0.122857
O O6 0.375354 0.564016 0.138016
O O7 0.381753 0.720796 0.142252
O O8 0.393512 0.643964 0.041460
O O9 0.500000 0.901366 0.467510
O O10 0.640984 0.879890 0.434801
O O11 0.605792 0.000000 0.500000
O O12 0.500000 0.269944 0.656304
O O13 0.359499 0.231523 0.643968
O O14 0.409442 0.287255 0.746182
O O15 0.748495 0.631441 0.641360
O O16 0.875980 0.583066 0.676668
O O17 0.250000 0.928552 0.250000
O O18 0.362395 0.841788 0.213163
O O19 0.500000 0.514237 0.841141
O O20 0.000000 0.202308 0.687496
#
# Coordination Sequence:
#
# PCOD8261406 Si02
#       8
#    16  16  16  16  16  16  16  16
#     4  10  20  36  55  78 110 151 197 232 272 336
#     4   9  17  31  55  84 105 139 189 228 276 334
#     4  10  19  33  57  85 113 148 189 236 285 340
#     4  10  19  33  55  81 111 150 187 230 281 334
#     4  12  22  34  49  83 122 148 178 228 291 345
#     4  12  23  36  49  81 113 151 191 227 288 347
#     4  10  16  28  52  79 109 143 178 220 271 335
#     4  10  19  36  57  77 108 148 194 238 276 338
#
# _framework density 18.362099000000001
#
# number of rings (size 3 to 8) (size 9 to 14) (size 15 to 20)
#    0.000    1.625    5.000    1.500    0.000    2.000 
#    4.500    0.625    0.000    0.000    0.000    0.000 
#    0.000    6.000    0.000    0.000    0.000    0.000 
#
# Total GULP energy -793304.427798 kJ/mol
# GULP energy per Si atom -12395.381684 kJ/mol
# Density = 1.832031 g / cm^3
# Si number density = 18.362099 Si / 1000 Ang^3
#
#
#
# Elastic Constant Matrix: (Units=GPa)
#
#
# Indices 1 2 3 4 5 6 
#
# 1 87.7565 51.1414 23.5272 0.0000 0.0000 0.0000
# 2 51.1414 107.9507 19.5401 0.0000 0.0000 0.0000
# 3 23.5272 19.5401 66.1599 0.0000 0.0000 0.0000
# 4 0.0000 0.0000 0.0000 26.6537 0.0000 0.0000
# 5 0.0000 0.0000 0.0000 0.0000 12.3654 0.0000
# 6 0.0000 0.0000 0.0000 0.0000 0.0000 19.0717
#
#
#
# Elastic Compliance Matrix: (Units=1/GPa)
#
#
# Indices 1 2 3 4 5 6 
#
# 1 0.016590 -0.007175 -0.003780 0.000000 0.000000 0.000000
# 2 -0.007175 0.012890 -0.001255 0.000000 0.000000 0.000000
# 3 -0.003780 -0.001255 0.016830 0.000000 0.000000 0.000000
# 4 0.000000 0.000000 0.000000 0.037518 0.000000 0.000000
# 5 0.000000 0.000000 0.000000 0.000000 0.080871 0.000000
# 6 0.000000 0.000000 0.000000 0.000000 0.000000 0.052434
#
#
# Mechanical properties :
#
#
# Convention : Reuss Voigt Hill
#
# Bulk Modulus (GPa) = 45.68725 50.03161 47.85943
# Shear Modulus (GPa) = 20.09232 22.79539 21.44385
#
# Velocity S-wave (km/s) = 3.31150 3.52723 3.42106
# Velocity P-wave (km/s) = 6.28941 6.62531 6.45955
#
# Compressibility (1/GPa) = 0.02188794
#
# Stress axis : x y z
#
# Youngs Moduli (GPa) = 60.27661 77.57958 59.41753
#
# Poissons Ratio (x) = 0.55665 0.22463
# Poissons Ratio (y) = 0.43250 0.07459
# Poissons Ratio (z) = 0.22787 0.09739
#
# Static dielectric constant tensor:
#      x y z
#    x 3.384830 0.000000 0.000000 
#    y 0.000000 3.408740 0.000000 
#    z 0.000000 0.000000 3.113740 
# 
# 
# High freq. dielectric constant tensor:
#      x y z
#    x 1.691170 0.000000 0.000000 
#    y 0.000000 1.714970 0.000000 
#    z 0.000000 0.000000 1.677580 
# 
# From -- ./inp_files/46004.got.cif
#   From: 2010.03.12/outbox.cif.g09.slc.cpg/sg64_24_cif.got.tgz:46004.got - 2010.04.10 20:19:32.
