data_PCOD8261330
_publ_section_title
;
Structure prediction by ZEFSAII (Michael W. Deem and Ramdas Pophale) SiO2 
 PCOD8261330
Probable space group: C M C M
;
_chemical_formula_sum "Si O2"
_cell_formula_units_Z 80
_cell_length_a 25.436033
_cell_length_b 20.031572
_cell_length_c 9.189913
_cell_angle_alpha 90.000000
_cell_angle_beta 90.000000
_cell_angle_gamma 90.000000
_cell_volume 4682.478717
_symmetry_space_group_name_H-M "C M C M"
_symmetry_group_IT_number 63
_symmetry_cell_setting 'orthorhombic'
loop_
_space_group_symop_operation_xyz
x,y,z
-x,-y,1/2+z
x,-y,-z
-x,y,1/2-z
-x,-y,-z
x,y,1/2-z
-x,y,z
x,-y,1/2+z
1/2+x,1/2+y,z
1/2-x,1/2-y,1/2+z
1/2+x,1/2-y,-z
1/2-x,1/2+y,1/2-z
1/2-x,1/2-y,-z
1/2+x,1/2+y,1/2-z
1/2-x,1/2+y,z
1/2+x,1/2-y,1/2+z
loop_
_atom_site_type_symbol
_atom_site_label
_atom_site_fract_x
_atom_site_fract_y
_atom_site_fract_z
Si Si1 0.145127 0.327086 0.421965
Si Si2 0.244783 0.319517 0.580464
Si Si3 0.139553 0.823383 0.918123
Si Si4 0.060156 0.067908 0.420714
Si Si5 0.440314 0.066076 0.919799
O O1 0.156154 0.327503 0.250000
O O2 0.196617 0.358369 0.502701
O O3 0.134976 0.251872 0.482187
O O4 0.095177 0.371321 0.465841
O O5 0.232032 0.309167 0.750000
O O6 0.250000 0.250000 0.500000
O O7 0.301804 0.354743 0.560237
O O8 0.125423 0.816599 0.750000
O O9 0.096815 0.873427 0.987800
O O10 0.070115 0.057461 0.250000
O O11 0.000000 0.087632 0.453407
O O12 0.075966 0.000000 0.500000
O O13 0.435865 0.051677 0.750000
O O14 0.500000 0.083109 0.965995
O O15 0.419835 0.000000 0.000000
#
# Coordination Sequence:
#
# PCOD8261330 Si02
#       5
#    16  16  16  16  16
#     4   9  17  30  48  70  93 117 152 193 229 269
#     4   9  16  28  46  67  93 122 151 185 228 274
#     4   8  15  28  46  67  89 114 146 183 220 262
#     4   9  17  30  47  65  87 116 147 180 221 266
#     4   9  18  32  49  68  92 122 153 188 232 280
#
# _framework density 17.084968
#
# number of rings (size 3 to 8) (size 9 to 14) (size 15 to 20)
#    0.000    3.200    0.000    1.800    0.000    1.600 
#    0.000   10.000    0.000    4.800    0.000    5.600 
#    0.000    0.000    0.000    0.000    0.000    0.000 
#
# Total GULP energy -495681.195887 kJ/mol
# GULP energy per Si atom -12392.029897 kJ/mol
# Density = 1.704608 g / cm^3
# Si number density = 17.084968 Si / 1000 Ang^3
#
#
#
# Elastic Constant Matrix: (Units=GPa)
#
#
# Indices 1 2 3 4 5 6 
#
# 1 131.4408 81.3893 41.5521 0.0000 0.0000 0.0000
# 2 81.3893 100.1638 30.1333 0.0000 0.0000 0.0000
# 3 41.5521 30.1333 42.6266 0.0000 0.0000 0.0000
# 4 0.0000 0.0000 0.0000 22.6828 0.0000 0.0000
# 5 0.0000 0.0000 0.0000 0.0000 26.4912 0.0000
# 6 0.0000 0.0000 0.0000 0.0000 0.0000 16.4876
#
#
#
# Elastic Compliance Matrix: (Units=1/GPa)
#
#
# Indices 1 2 3 4 5 6 
#
# 1 0.017659 -0.011648 -0.008980 0.000000 0.000000 0.000000
# 2 -0.011648 0.020363 -0.003041 0.000000 0.000000 0.000000
# 3 -0.008980 -0.003041 0.034363 0.000000 0.000000 0.000000
# 4 0.000000 0.000000 0.000000 0.044086 0.000000 0.000000
# 5 0.000000 0.000000 0.000000 0.000000 0.037748 0.000000
# 6 0.000000 0.000000 0.000000 0.000000 0.000000 0.060652
#
#
# Mechanical properties :
#
#
# Convention : Reuss Voigt Hill
#
# Bulk Modulus (GPa) = 39.92367 64.48673 52.20520
# Shear Modulus (GPa) = 18.48035 21.20940 19.84487
#
# Velocity S-wave (km/s) = 3.29245 3.52718 3.41183
# Velocity P-wave (km/s) = 6.15403 7.37663 6.79289
#
# Compressibility (1/GPa) = 0.02504779
#
# Stress axis : x y z
#
# Youngs Moduli (GPa) = 56.62787 49.10916 29.10117
#
# Poissons Ratio (x) = 0.57200 0.26133
# Poissons Ratio (y) = 0.65958 0.08849
# Poissons Ratio (z) = 0.50853 0.14933
#
# Static dielectric constant tensor:
#      x y z
#    x 3.930240 0.000000 0.000000 
#    y 0.000000 3.186230 0.000000 
#    z 0.000000 0.000000 3.133340 
# 
# 
# High freq. dielectric constant tensor:
#      x y z
#    x 1.672030 0.000000 0.000000 
#    y 0.000000 1.632060 0.000000 
#    z 0.000000 0.000000 1.640490 
# 
# From -- ./inp_files/11972.got.cif
#   From: 2010.03.12/outbox.cif.g09.slc.cpg/sg63_6_cif.got.tgz:11972.got - 2010.04.10 19:34:48.
