data_PCOD8261775
_publ_section_title
;
Structure prediction by ZEFSAII (Michael W. Deem and Ramdas Pophale) SiO2 
 PCOD8261775
Probable space group: C M C A
;
_chemical_formula_sum "Si O2"
_cell_formula_units_Z 112
_cell_length_a 21.927914
_cell_length_b 19.376192
_cell_length_c 12.492969
_cell_angle_alpha 90.000000
_cell_angle_beta 90.000000
_cell_angle_gamma 90.000000
_cell_volume 5308.006070
_symmetry_space_group_name_H-M "C M C A"
_symmetry_group_IT_number 64
_symmetry_cell_setting 'orthorhombic'
loop_
_space_group_symop_operation_xyz
x,y,z
-x,1/2-y,1/2+z
x,-y,-z
-x,1/2+y,1/2-z
-x,-y,-z
x,1/2+y,1/2-z
-x,y,z
x,1/2-y,1/2+z
1/2+x,1/2+y,z
1/2-x,-y,1/2+z
1/2+x,1/2-y,-z
1/2-x,y,1/2-z
1/2-x,1/2-y,-z
1/2+x,y,1/2-z
1/2-x,1/2+y,z
1/2+x,-y,1/2+z
loop_
_atom_site_type_symbol
_atom_site_label
_atom_site_fract_x
_atom_site_fract_y
_atom_site_fract_z
Si Si1 0.568683 0.434257 0.936010
Si Si2 0.360816 0.821235 0.449457
Si Si3 0.429196 0.117782 0.077288
Si Si4 0.930849 0.494231 0.217462
Si Si5 0.929565 0.259681 0.779325
Si Si6 0.642368 0.801244 0.091255
Si Si7 0.314757 0.102202 0.740571
O O1 0.500000 0.418593 0.975518
O O2 0.570137 0.449205 0.810662
O O3 0.594990 0.500000 0.000000
O O4 0.610725 0.368842 0.958622
O O5 0.413499 0.798586 0.366710
O O6 0.329493 0.754116 0.506252
O O7 0.313499 0.865189 0.378506
O O8 0.500000 0.131254 0.052747
O O9 0.417943 0.037631 0.109080
O O10 0.406933 0.166771 0.174610
O O11 0.392645 0.136483 0.969685
O O12 0.876991 0.439599 0.237356
O O13 0.000000 0.460705 0.212769
O O14 0.902376 0.244235 0.663655
O O15 0.000000 0.260680 0.758666
O O16 0.691014 0.837067 0.169958
O O17 0.250000 0.060288 0.750000
#
# Coordination Sequence:
#
# PCOD8261775 Si02
#       7
#    16  16  16  16  16  16  16
#     4  10  18  31  57  91 121 154 193 240 293 341
#     4  10  20  36  58  84 112 150 196 243 289 347
#     4   9  18  33  55  87 122 158 196 239 290 344
#     4  10  21  38  60  86 122 159 197 240 285 343
#     4   9  17  30  53  87 125 155 189 241 292 340
#     4  10  21  36  57  83 114 153 195 238 296 355
#     4  11  25  43  61  84 115 151 193 245 295 354
#
# _framework density 21.100200999999998
#
# number of rings (size 3 to 8) (size 9 to 14) (size 15 to 20)
#    0.000    2.143    1.429    1.714    0.000    6.857 
#    0.000    4.286    0.000    8.571    0.000    0.000 
#    0.000    0.000    0.000    0.000    0.000    0.000 
#
# Total GULP energy -693842.627739 kJ/mol
# GULP energy per Si atom -12390.046924 kJ/mol
# Density = 2.105218 g / cm^3
# Si number density = 21.100201 Si / 1000 Ang^3
#
#
#
# Elastic Constant Matrix: (Units=GPa)
#
#
# Indices 1 2 3 4 5 6 
#
# 1 92.8580 31.7933 18.9485 0.0000 0.0000 0.0000
# 2 31.7933 62.2079 19.2872 0.0000 0.0000 0.0000
# 3 18.9485 19.2872 86.9764 0.0000 0.0000 0.0000
# 4 0.0000 0.0000 0.0000 38.5242 0.0000 0.0000
# 5 0.0000 0.0000 0.0000 0.0000 6.1913 0.0000
# 6 0.0000 0.0000 0.0000 0.0000 0.0000 10.5219
#
#
#
# Elastic Compliance Matrix: (Units=1/GPa)
#
#
# Indices 1 2 3 4 5 6 
#
# 1 0.013230 -0.006301 -0.001485 0.000000 0.000000 0.000000
# 2 -0.006301 0.020263 -0.003121 0.000000 0.000000 0.000000
# 3 -0.001485 -0.003121 0.012513 0.000000 0.000000 0.000000
# 4 0.000000 0.000000 0.000000 0.025958 0.000000 0.000000
# 5 0.000000 0.000000 0.000000 0.000000 0.161518 0.000000
# 6 0.000000 0.000000 0.000000 0.000000 0.000000 0.095040
#
#
# Mechanical properties :
#
#
# Convention : Reuss Voigt Hill
#
# Bulk Modulus (GPa) = 41.33542 42.45560 41.89551
# Shear Modulus (GPa) = 13.95098 22.51502 18.23300
#
# Velocity S-wave (km/s) = 2.57413 3.27012 2.94277
# Velocity P-wave (km/s) = 5.33549 5.86710 5.60760
#
# Compressibility (1/GPa) = 0.02419233
#
# Stress axis : x y z
#
# Youngs Moduli (GPa) = 75.58860 49.35109 79.91763
#
# Poissons Ratio (x) = 0.31096 0.11867
# Poissons Ratio (y) = 0.47628 0.24940
# Poissons Ratio (z) = 0.11224 0.15401
#
# Static dielectric constant tensor:
#      x y z
#    x 3.350760 0.000000 0.000000 
#    y 0.000000 3.781660 0.000000 
#    z 0.000000 0.000000 4.023400 
# 
# 
# High freq. dielectric constant tensor:
#      x y z
#    x 1.779300 0.000000 0.000000 
#    y 0.000000 1.824340 0.000000 
#    z 0.000000 0.000000 1.845690 
# 
# From -- ./inp_files/18523.got.cif
#   From: 2010.03.12/outbox.cif.g09.slc.cpg/sg64_10_cif.got.tgz:18523.got - 2010.04.10 20:19:32.
