data_PCOD8261365
_publ_section_title
;
Structure prediction by ZEFSAII (Michael W. Deem and Ramdas Pophale) SiO2 
 PCOD8261365
Probable space group: C M C M
;
_chemical_formula_sum "Si O2"
_cell_formula_units_Z 96
_cell_length_a 9.750310
_cell_length_b 22.978559
_cell_length_c 23.595627
_cell_angle_alpha 90.000000
_cell_angle_beta 90.000000
_cell_angle_gamma 90.000000
_cell_volume 5286.554775
_symmetry_space_group_name_H-M "C M C M"
_symmetry_group_IT_number 63
_symmetry_cell_setting 'orthorhombic'
loop_
_space_group_symop_operation_xyz
x,y,z
-x,-y,1/2+z
x,-y,-z
-x,y,1/2-z
-x,-y,-z
x,y,1/2-z
-x,y,z
x,-y,1/2+z
1/2+x,1/2+y,z
1/2-x,1/2-y,1/2+z
1/2+x,1/2-y,-z
1/2-x,1/2+y,1/2-z
1/2-x,1/2-y,-z
1/2+x,1/2+y,1/2-z
1/2-x,1/2+y,z
1/2+x,1/2-y,1/2+z
loop_
_atom_site_type_symbol
_atom_site_label
_atom_site_fract_x
_atom_site_fract_y
_atom_site_fract_z
Si Si1 0.659173 0.027500 0.101439
Si Si2 0.339942 0.858542 0.531107
Si Si3 0.656868 0.297189 0.882159
Si Si4 0.845924 0.914231 0.685497
Si Si5 0.837688 0.601916 0.588589
Si Si6 0.163107 0.315486 0.185788
O O1 0.500000 0.025514 0.117541
O O2 0.689327 0.076429 0.054528
O O3 0.741814 0.040543 0.158270
O O4 0.712370 0.964491 0.080580
O O5 0.500000 0.842629 0.538033
O O6 0.251090 0.809392 0.562903
O O7 0.290848 0.859728 0.465623
O O8 0.500000 0.287096 0.902560
O O9 0.669157 0.350738 0.840205
O O10 0.713375 0.242308 0.846849
O O11 0.803839 0.908482 0.750000
O O12 0.000000 0.937918 0.677261
O O13 0.783930 0.630113 0.647583
O O14 0.000000 0.602528 0.588822
O O15 0.224249 0.319198 0.250000
O O16 0.000000 0.314724 0.189977
#
# Coordination Sequence:
#
# PCOD8261365 Si02
#       6
#    16  16  16  16  16  16
#     4   9  17  29  46  68  93 121 153 189 228 270
#     4   9  17  30  48  70  95 121 149 185 231 276
#     4   9  17  30  48  69  91 116 150 191 231 270
#     4   9  17  29  45  65  90 120 152 188 231 274
#     4   9  17  29  46  68  94 123 153 186 225 270
#     4   9  17  29  46  68  92 119 153 191 227 265
#
# _framework density 18.159275000000001
#
# number of rings (size 3 to 8) (size 9 to 14) (size 15 to 20)
#    0.000    3.000    0.000    1.000    0.000    5.667 
#    0.000    2.500    0.000    6.500    0.000    0.000 
#    0.000    0.000    0.000    0.000    0.000    0.000 
#
# Total GULP energy -594943.975571 kJ/mol
# GULP energy per Si atom -12394.666158 kJ/mol
# Density = 1.811794 g / cm^3
# Si number density = 18.159275 Si / 1000 Ang^3
#
#
#
# Elastic Constant Matrix: (Units=GPa)
#
#
# Indices 1 2 3 4 5 6 
#
# 1 32.1354 15.6802 25.5712 0.0000 0.0000 0.0000
# 2 15.6802 63.6792 36.7548 0.0000 0.0000 0.0000
# 3 25.5712 36.7548 115.3883 0.0000 0.0000 0.0000
# 4 0.0000 0.0000 0.0000 23.2549 0.0000 0.0000
# 5 0.0000 0.0000 0.0000 0.0000 24.7112 0.0000
# 6 0.0000 0.0000 0.0000 0.0000 0.0000 14.3525
#
#
#
# Elastic Compliance Matrix: (Units=1/GPa)
#
#
# Indices 1 2 3 4 5 6 
#
# 1 0.039407 -0.005713 -0.006913 0.000000 0.000000 0.000000
# 2 -0.005713 0.020070 -0.005127 0.000000 0.000000 0.000000
# 3 -0.006913 -0.005127 0.011831 0.000000 0.000000 0.000000
# 4 0.000000 0.000000 0.000000 0.043002 0.000000 0.000000
# 5 0.000000 0.000000 0.000000 0.000000 0.040468 0.000000
# 6 0.000000 0.000000 0.000000 0.000000 0.000000 0.069674
#
#
# Mechanical properties :
#
#
# Convention : Reuss Voigt Hill
#
# Bulk Modulus (GPa) = 27.93151 40.80171 34.36661
# Shear Modulus (GPa) = 18.38966 21.34348 19.86657
#
# Velocity S-wave (km/s) = 3.18573 3.43206 3.31118
# Velocity P-wave (km/s) = 5.38020 6.18247 5.79524
#
# Compressibility (1/GPa) = 0.03580186
#
# Stress axis : x y z
#
# Youngs Moduli (GPa) = 25.37612 49.82665 84.52074
#
# Poissons Ratio (x) = 0.28468 0.58430
# Poissons Ratio (y) = 0.14498 0.43331
# Poissons Ratio (z) = 0.17543 0.25544
#
# Static dielectric constant tensor:
#      x y z
#    x 3.080100 0.000000 0.000000 
#    y 0.000000 3.473580 0.000000 
#    z 0.000000 0.000000 3.588680 
# 
# 
# High freq. dielectric constant tensor:
#      x y z
#    x 1.657080 0.000000 0.000000 
#    y 0.000000 1.703180 0.000000 
#    z 0.000000 0.000000 1.711750 
# 
# From -- ./inp_files/52867.got.cif
#   From: 2010.03.12/outbox.cif.g09.slc.cpg/sg63_27_cif.got.tgz:52867.got - 2010.04.10 19:34:48.
