data_PCOD8261532
_publ_section_title
;
Structure prediction by ZEFSAII (Michael W. Deem and Ramdas Pophale) SiO2 
 PCOD8261532
Probable space group: C M C A
;
_chemical_formula_sum "Si O2"
_cell_formula_units_Z 88
_cell_length_a 14.056516
_cell_length_b 23.122984
_cell_length_c 13.099029
_cell_angle_alpha 90.000000
_cell_angle_beta 90.000000
_cell_angle_gamma 90.000000
_cell_volume 4257.558986
_symmetry_space_group_name_H-M "C M C A"
_symmetry_group_IT_number 64
_symmetry_cell_setting 'orthorhombic'
loop_
_space_group_symop_operation_xyz
x,y,z
-x,1/2-y,1/2+z
x,-y,-z
-x,1/2+y,1/2-z
-x,-y,-z
x,1/2+y,1/2-z
-x,y,z
x,1/2-y,1/2+z
1/2+x,1/2+y,z
1/2-x,-y,1/2+z
1/2+x,1/2-y,-z
1/2-x,y,1/2-z
1/2-x,1/2-y,-z
1/2+x,y,1/2-z
1/2-x,1/2+y,z
1/2+x,-y,1/2+z
loop_
_atom_site_type_symbol
_atom_site_label
_atom_site_fract_x
_atom_site_fract_y
_atom_site_fract_z
Si Si1 0.111698 0.165742 0.238812
Si Si2 0.216812 0.608564 0.909398
Si Si3 0.392047 0.959688 0.673663
Si Si4 0.235130 0.000000 0.000000
Si Si5 0.392117 0.410145 0.219736
Si Si6 0.759462 0.302889 0.921681
O O1 0.132291 0.096032 0.245370
O O2 0.160703 0.200694 0.332294
O O3 0.157220 0.187634 0.131925
O O4 0.000000 0.180069 0.238805
O O5 0.197381 0.541618 0.935567
O O6 0.325615 0.614793 0.869667
O O7 0.139161 0.623058 0.822903
O O8 0.202398 0.645285 0.009608
O O9 0.500000 0.953985 0.636120
O O10 0.329488 0.958852 0.571567
O O11 0.376460 0.020486 0.733063
O O12 0.500000 0.394103 0.192991
O O13 0.750000 0.250000 0.000000
#
# Coordination Sequence:
#
# PCOD8261532 Si02
#       6
#    16  16  16   8  16  16
#     4  10  23  42  64  88 118 157 200 249 301 356
#     4  10  21  35  58  85 117 157 195 238 300 354
#     4   9  17  32  56  88 123 155 192 238 294 359
#     4  10  17  30  57  88 118 152 192 238 296 364
#     4   9  20  35  55  89 127 156 189 238 294 358
#     4  11  25  43  62  87 119 156 207 255 296 349
#
# _framework density 20.669121000000001
#
# number of rings (size 3 to 8) (size 9 to 14) (size 15 to 20)
#    0.000    2.182    1.818    0.273    2.545    7.273 
#    0.000    2.273    0.000    0.000    0.000    0.000 
#    0.000    0.000    0.000    0.000    0.000    0.000 
#
# Total GULP energy -545199.887688 kJ/mol
# GULP energy per Si atom -12390.906538 kJ/mol
# Density = 2.062208 g / cm^3
# Si number density = 20.669121 Si / 1000 Ang^3
#
#
#
# Elastic Constant Matrix: (Units=GPa)
#
#
# Indices 1 2 3 4 5 6 
#
# 1 80.9909 10.1780 13.9653 0.0000 0.0000 0.0000
# 2 10.1780 47.7328 26.9284 0.0000 0.0000 0.0000
# 3 13.9653 26.9284 96.7366 0.0000 0.0000 0.0000
# 4 0.0000 0.0000 0.0000 42.6847 0.0000 0.0000
# 5 0.0000 0.0000 0.0000 0.0000 20.9604 0.0000
# 6 0.0000 0.0000 0.0000 0.0000 0.0000 15.4454
#
#
#
# Elastic Compliance Matrix: (Units=1/GPa)
#
#
# Indices 1 2 3 4 5 6 
#
# 1 0.012822 -0.002005 -0.001293 0.000000 0.000000 0.000000
# 2 -0.002005 0.025166 -0.006716 0.000000 0.000000 0.000000
# 3 -0.001293 -0.006716 0.012394 0.000000 0.000000 0.000000
# 4 0.000000 0.000000 0.000000 0.023428 0.000000 0.000000
# 5 0.000000 0.000000 0.000000 0.000000 0.047709 0.000000
# 6 0.000000 0.000000 0.000000 0.000000 0.000000 0.064744
#
#
# Mechanical properties :
#
#
# Convention : Reuss Voigt Hill
#
# Bulk Modulus (GPa) = 32.94414 36.40041 34.67228
# Shear Modulus (GPa) = 23.10450 27.44400 25.27425
#
# Velocity S-wave (km/s) = 3.34702 3.64782 3.50065
# Velocity P-wave (km/s) = 5.55969 5.94907 5.75767
#
# Compressibility (1/GPa) = 0.03035441
#
# Stress axis : x y z
#
# Youngs Moduli (GPa) = 77.99136 39.73574 80.68699
#
# Poissons Ratio (x) = 0.07965 0.10433
# Poissons Ratio (y) = 0.15634 0.54190
# Poissons Ratio (z) = 0.10085 0.26687
#
# Static dielectric constant tensor:
#      x y z
#    x 3.633350 0.000000 0.000000 
#    y 0.000000 3.731170 0.000000 
#    z 0.000000 0.000000 3.687700 
# 
# 
# High freq. dielectric constant tensor:
#      x y z
#    x 1.797640 0.000000 0.000000 
#    y 0.000000 1.786390 0.000000 
#    z 0.000000 0.000000 1.813090 
# 
# From -- ./inp_files/14604.got.cif
#   From: 2010.03.12/outbox.cif.g09.slc.cpg/sg64_8_cif.got.tgz:14604.got - 2010.04.10 20:19:32.
