data_PCOD8261477
_publ_section_title
;
Structure prediction by ZEFSAII (Michael W. Deem and Ramdas Pophale) SiO2 
 PCOD8261477
Probable space group: C M C A
;
_chemical_formula_sum "Si O2"
_cell_formula_units_Z 96
_cell_length_a 17.311825
_cell_length_b 29.678008
_cell_length_c 9.497747
_cell_angle_alpha 90.000000
_cell_angle_beta 90.000000
_cell_angle_gamma 90.000000
_cell_volume 4879.757021
_symmetry_space_group_name_H-M "C M C A"
_symmetry_group_IT_number 64
_symmetry_cell_setting 'orthorhombic'
loop_
_space_group_symop_operation_xyz
x,y,z
-x,1/2-y,1/2+z
x,-y,-z
-x,1/2+y,1/2-z
-x,-y,-z
x,1/2+y,1/2-z
-x,y,z
x,1/2-y,1/2+z
1/2+x,1/2+y,z
1/2-x,-y,1/2+z
1/2+x,1/2-y,-z
1/2-x,y,1/2-z
1/2-x,1/2-y,-z
1/2+x,y,1/2-z
1/2-x,1/2+y,z
1/2+x,-y,1/2+z
loop_
_atom_site_type_symbol
_atom_site_label
_atom_site_fract_x
_atom_site_fract_y
_atom_site_fract_z
Si Si1 0.909524 0.703122 0.495073
Si Si2 0.091899 0.789240 0.318831
Si Si3 0.586421 0.972087 0.643860
Si Si4 0.159419 0.390734 0.529772
Si Si5 0.409365 0.435987 0.249245
Si Si6 0.305854 0.629092 0.616801
O O1 0.881364 0.711411 0.655565
O O2 0.882158 0.742918 0.392169
O O3 0.878133 0.656813 0.430192
O O4 0.000000 0.700232 0.495155
O O5 0.139677 0.827499 0.401501
O O6 0.000000 0.798149 0.334199
O O7 0.500000 0.953564 0.670011
O O8 0.643920 0.929088 0.648706
O O9 0.588785 0.000000 0.500000
O O10 0.609383 0.010466 0.757192
O O11 0.119148 0.410148 0.390051
O O12 0.250947 0.381106 0.516455
O O13 0.500000 0.426826 0.264418
O O14 0.362098 0.414087 0.376315
O O15 0.250000 0.635426 0.750000
#
# Coordination Sequence:
#
# PCOD8261477 Si02
#       6
#    16  16  16  16  16  16
#     4  10  19  32  52  74 102 136 175 219 263 308
#     4  10  20  34  50  74 101 137 181 219 259 307
#     4   8  14  24  43  71  95 123 158 210 263 298
#     4  10  17  27  44  74 105 127 166 210 269 312
#     4   9  15  26  46  71 101 127 166 212 255 303
#     4  10  18  28  45  75 101 138 165 209 258 319
#
# _framework density 19.673110999999999
#
# number of rings (size 3 to 8) (size 9 to 14) (size 15 to 20)
#    0.000    2.500    3.333    3.000    0.000    0.667 
#    0.000    0.000    0.000    0.000   34.667    0.000 
#    0.000   53.333    0.000    0.000    0.000    0.000 
#
# Total GULP energy -594762.093203 kJ/mol
# GULP energy per Si atom -12390.876942 kJ/mol
# Density = 1.962833 g / cm^3
# Si number density = 19.673111 Si / 1000 Ang^3
#
#
#
# Elastic Constant Matrix: (Units=GPa)
#
#
# Indices 1 2 3 4 5 6 
#
# 1 31.3982 56.0226 9.0811 0.0000 0.0000 0.0000
# 2 56.0226 187.6114 36.6979 0.0000 0.0000 0.0000
# 3 9.0811 36.6979 17.9662 0.0000 0.0000 0.0000
# 4 0.0000 0.0000 0.0000 22.3720 0.0000 0.0000
# 5 0.0000 0.0000 0.0000 0.0000 10.2756 0.0000
# 6 0.0000 0.0000 0.0000 0.0000 0.0000 25.5340
#
#
#
# Elastic Compliance Matrix: (Units=1/GPa)
#
#
# Indices 1 2 3 4 5 6 
#
# 1 0.069722 -0.023193 0.012133 0.000000 0.000000 0.000000
# 2 -0.023193 0.016592 -0.022168 0.000000 0.000000 0.000000
# 3 0.012133 -0.022168 0.094808 0.000000 0.000000 0.000000
# 4 0.000000 0.000000 0.000000 0.044699 0.000000 0.000000
# 5 0.000000 0.000000 0.000000 0.000000 0.097318 0.000000
# 6 0.000000 0.000000 0.000000 0.000000 0.000000 0.039163
#
#
# Mechanical properties :
#
#
# Convention : Reuss Voigt Hill
#
# Bulk Modulus (GPa) = 8.72094 48.95323 28.83709
# Shear Modulus (GPa) = 10.70706 20.64792 15.67749
#
# Velocity S-wave (km/s) = 2.33544 3.24319 2.82600
# Velocity P-wave (km/s) = 3.42271 6.24193 5.03372
#
# Compressibility (1/GPa) = 0.11466650
#
# Stress axis : x y z
#
# Youngs Moduli (GPa) = 14.34258 60.26964 10.54761
#
# Poissons Ratio (x) = 1.39784 -0.12798
# Poissons Ratio (y) = 0.33265 0.23382
# Poissons Ratio (z) = -0.17402 1.33607
#
# Static dielectric constant tensor:
#      x y z
#    x 3.786250 0.000000 0.000000 
#    y 0.000000 4.103840 0.000000 
#    z 0.000000 0.000000 3.311600 
# 
# 
# High freq. dielectric constant tensor:
#      x y z
#    x 1.767300 0.000000 0.000000 
#    y 0.000000 1.782900 0.000000 
#    z 0.000000 0.000000 1.698350 
# 
# From -- ./inp_files/16341.got.cif
#   From: 2010.03.12/outbox.cif.g09.slc.cpg/sg64_9_cif.got.tgz:16341.got - 2010.04.10 20:19:32.
