data_PCOD8261004
_publ_section_title
;
Structure prediction by ZEFSAII (Michael W. Deem and Ramdas Pophale) SiO2 
 PCOD8261004
Probable space group: C M C M
;
_chemical_formula_sum "Si O2"
_cell_formula_units_Z 96
_cell_length_a 8.683618
_cell_length_b 25.569657
_cell_length_c 23.691056
_cell_angle_alpha 90.000000
_cell_angle_beta 90.000000
_cell_angle_gamma 90.000000
_cell_volume 5260.294170
_symmetry_space_group_name_H-M "C M C M"
_symmetry_group_IT_number 63
_symmetry_cell_setting 'orthorhombic'
loop_
_space_group_symop_operation_xyz
x,y,z
-x,-y,1/2+z
x,-y,-z
-x,y,1/2-z
-x,-y,-z
x,y,1/2-z
-x,y,z
x,-y,1/2+z
1/2+x,1/2+y,z
1/2-x,1/2-y,1/2+z
1/2+x,1/2-y,-z
1/2-x,1/2+y,1/2-z
1/2-x,1/2-y,-z
1/2+x,1/2+y,1/2-z
1/2-x,1/2+y,z
1/2+x,1/2-y,1/2+z
loop_
_atom_site_type_symbol
_atom_site_label
_atom_site_fract_x
_atom_site_fract_y
_atom_site_fract_z
Si Si1 0.183121 0.349580 0.617181
Si Si2 0.319048 0.654144 0.885457
Si Si3 0.179727 0.563513 0.684648
Si Si4 0.182012 0.692085 0.998547
Si Si5 0.683379 0.751464 0.686993
Si Si6 0.182954 0.445823 0.687302
O O1 0.239346 0.340278 0.553326
O O2 0.247571 0.302727 0.655893
O O3 0.249040 0.404343 0.641779
O O4 0.000000 0.349892 0.619860
O O5 0.500000 0.658616 0.895383
O O6 0.279490 0.599643 0.856068
O O7 0.236410 0.658430 0.945486
O O8 0.256518 0.700665 0.845979
O O9 0.215529 0.576458 0.750000
O O10 0.232636 0.504394 0.670367
O O11 0.000000 0.571765 0.671849
O O12 0.000000 0.697936 0.998547
O O13 0.250000 0.750000 0.000000
O O14 0.751732 0.749974 0.750000
O O15 0.500000 0.751778 0.688558
O O16 0.245932 0.431996 0.750000
O O17 0.000000 0.443131 0.689155
#
# Coordination Sequence:
#
# PCOD8261004 Si02
#       6
#    16  16  16  16  16  16
#     4   9  16  28  48  75 102 129 168 213 260 310
#     4  11  21  34  51  75 104 140 182 215 251 304
#     4   9  18  33  53  79 108 135 165 207 263 317
#     4  11  21  35  53  75 104 140 177 217 264 315
#     4   9  16  26  44  73 103 125 157 210 260 302
#     4   8  14  27  50  78 105 131 162 208 264 314
#
# _framework density 18.249929000000002
#
# number of rings (size 3 to 8) (size 9 to 14) (size 15 to 20)
#    0.000    2.500    1.667    3.000    0.000    3.000 
#    0.000    0.833    0.000    7.000    0.000    0.000 
#    0.000    0.000    0.000    0.000    0.000    0.000 
#
# Total GULP energy -595101.630122 kJ/mol
# GULP energy per Si atom -12397.950628 kJ/mol
# Density = 1.820839 g / cm^3
# Si number density = 18.249929 Si / 1000 Ang^3
#
#
#
# Elastic Constant Matrix: (Units=GPa)
#
#
# Indices 1 2 3 4 5 6 
#
# 1 29.2015 16.6536 22.8487 0.0000 0.0000 0.0000
# 2 16.6536 142.4731 83.7683 0.0000 0.0000 0.0000
# 3 22.8487 83.7683 159.4899 0.0000 0.0000 0.0000
# 4 0.0000 0.0000 0.0000 30.2253 0.0000 0.0000
# 5 0.0000 0.0000 0.0000 0.0000 21.2344 0.0000
# 6 0.0000 0.0000 0.0000 0.0000 0.0000 22.1989
#
#
#
# Elastic Compliance Matrix: (Units=1/GPa)
#
#
# Indices 1 2 3 4 5 6 
#
# 1 0.038898 -0.001838 -0.004607 0.000000 0.000000 0.000000
# 2 -0.001838 0.010242 -0.005116 0.000000 0.000000 0.000000
# 3 -0.004607 -0.005116 0.009617 0.000000 0.000000 0.000000
# 4 0.000000 0.000000 0.000000 0.033085 0.000000 0.000000
# 5 0.000000 0.000000 0.000000 0.000000 0.047093 0.000000
# 6 0.000000 0.000000 0.000000 0.000000 0.000000 0.045047
#
#
# Mechanical properties :
#
#
# Convention : Reuss Voigt Hill
#
# Bulk Modulus (GPa) = 28.06265 64.18952 46.12609
# Shear Modulus (GPa) = 22.83289 28.59131 25.71210
#
# Velocity S-wave (km/s) = 3.54096 3.96239 3.75759
# Velocity P-wave (km/s) = 5.66816 7.49552 6.64496
#
# Compressibility (1/GPa) = 0.03563455
#
# Stress axis : x y z
#
# Youngs Moduli (GPa) = 25.70831 97.64088 103.98233
#
# Poissons Ratio (x) = 0.17945 0.47907
# Poissons Ratio (y) = 0.04725 0.53196
# Poissons Ratio (z) = 0.11844 0.49952
#
# Static dielectric constant tensor:
#      x y z
#    x 2.919540 0.000000 0.000000 
#    y 0.000000 3.550330 0.000000 
#    z 0.000000 0.000000 3.622590 
# 
# 
# High freq. dielectric constant tensor:
#      x y z
#    x 1.661690 0.000000 0.000000 
#    y 0.000000 1.711880 0.000000 
#    z 0.000000 0.000000 1.713430 
# 
# From -- ./inp_files/51333.got.cif
#   From: 2010.03.12/outbox.cif.g09.slc.cpg/sg63_26_cif.got.tgz:51333.got - 2010.04.10 19:34:48.
