data_PCOD8261338
_publ_section_title
;
Structure prediction by ZEFSAII (Michael W. Deem and Ramdas Pophale) SiO2 
 PCOD8261338
Probable space group: C M C M
;
_chemical_formula_sum "Si O2"
_cell_formula_units_Z 96
_cell_length_a 9.617640
_cell_length_b 32.134736
_cell_length_c 18.134050
_cell_angle_alpha 90.000000
_cell_angle_beta 90.000000
_cell_angle_gamma 90.000000
_cell_volume 5604.515338
_symmetry_space_group_name_H-M "C M C M"
_symmetry_group_IT_number 63
_symmetry_cell_setting 'orthorhombic'
loop_
_space_group_symop_operation_xyz
x,y,z
-x,-y,1/2+z
x,-y,-z
-x,y,1/2-z
-x,-y,-z
x,y,1/2-z
-x,y,z
x,-y,1/2+z
1/2+x,1/2+y,z
1/2-x,1/2-y,1/2+z
1/2+x,1/2-y,-z
1/2-x,1/2+y,1/2-z
1/2-x,1/2-y,-z
1/2+x,1/2+y,1/2-z
1/2-x,1/2+y,z
1/2+x,1/2-y,1/2+z
loop_
_atom_site_type_symbol
_atom_site_label
_atom_site_fract_x
_atom_site_fract_y
_atom_site_fract_z
Si Si1 0.165272 0.905933 0.463436
Si Si2 0.339741 0.744097 0.105529
Si Si3 0.834345 0.053014 0.112933
Si Si4 0.834748 0.801073 0.750000
Si Si5 0.339552 0.311337 0.464380
Si Si6 0.665499 0.536139 0.666548
Si Si7 0.665873 0.606258 0.250000
O O1 0.224410 0.931315 0.534033
O O2 0.217704 0.858411 0.466468
O O3 0.217860 0.926864 0.387155
O O4 0.000000 0.906870 0.467321
O O5 0.500000 0.757544 0.111486
O O6 0.281106 0.723692 0.179412
O O7 0.250881 0.785608 0.093742
O O8 0.318454 0.709026 0.043950
O O9 0.778696 0.083407 0.176892
O O10 0.000000 0.053041 0.111263
O O11 0.778855 0.006884 0.131402
O O12 0.771794 0.847371 0.750000
O O13 0.000000 0.804474 0.750000
O O14 0.500000 0.309997 0.439537
O O15 0.723726 0.542531 0.750000
O O16 0.500000 0.535062 0.669660
O O17 0.500000 0.606351 0.250000
#
# Coordination Sequence:
#
# PCOD8261338 Si02
#       7
#    16  16  16   8  16  16   8
#     4   9  16  24  36  53  76 109 143 169 199 250
#     4   9  17  30  47  63  85 113 144 183 223 260
#     4   9  14  21  33  51  75 104 138 172 206 245
#     4   9  16  26  41  62  81 107 145 183 221 257
#     4   9  17  30  45  64  87 115 147 178 216 259
#     4   9  15  23  32  47  76 111 140 166 201 246
#     4   9  14  20  34  54  75  97 131 179 215 243
#
# _framework density 17.129045999999999
#
# number of rings (size 3 to 8) (size 9 to 14) (size 15 to 20)
#    0.000    3.000    0.833    1.500    0.000    6.000 
#    1.500    0.417    0.000    0.000    0.000    0.000 
#    0.000    2.667    0.000    1.000    0.000    0.000 
#
# Total GULP energy -595009.364216 kJ/mol
# GULP energy per Si atom -12396.028421 kJ/mol
# Density = 1.709006 g / cm^3
# Si number density = 17.129046 Si / 1000 Ang^3
#
#
#
# Elastic Constant Matrix: (Units=GPa)
#
#
# Indices 1 2 3 4 5 6 
#
# 1 15.4903 23.1508 16.4063 0.0000 0.0000 0.0000
# 2 23.1508 146.0235 84.9228 0.0000 0.0000 0.0000
# 3 16.4063 84.9228 133.4912 0.0000 0.0000 0.0000
# 4 0.0000 0.0000 0.0000 27.4975 0.0000 0.0000
# 5 0.0000 0.0000 0.0000 0.0000 9.1929 0.0000
# 6 0.0000 0.0000 0.0000 0.0000 0.0000 15.5430
#
#
#
# Elastic Compliance Matrix: (Units=1/GPa)
#
#
# Indices 1 2 3 4 5 6 
#
# 1 0.085346 -0.011794 -0.002986 0.000000 0.000000 0.000000
# 2 -0.011794 0.012500 -0.006502 0.000000 0.000000 0.000000
# 3 -0.002986 -0.006502 0.011995 0.000000 0.000000 0.000000
# 4 0.000000 0.000000 0.000000 0.036367 0.000000 0.000000
# 5 0.000000 0.000000 0.000000 0.000000 0.108779 0.000000
# 6 0.000000 0.000000 0.000000 0.000000 0.000000 0.064338
#
#
# Mechanical properties :
#
#
# Convention : Reuss Voigt Hill
#
# Bulk Modulus (GPa) = 14.86437 60.44053 37.65245
# Shear Modulus (GPa) = 13.01017 21.81502 17.41259
#
# Velocity S-wave (km/s) = 2.75896 3.57258 3.19180
# Velocity P-wave (km/s) = 4.34118 7.23739 5.96765
#
# Compressibility (1/GPa) = 0.06727497
#
# Stress axis : x y z
#
# Youngs Moduli (GPa) = 11.71702 80.00208 83.37013
#
# Poissons Ratio (x) = 0.94357 0.24894
# Poissons Ratio (y) = 0.13819 0.54210
# Poissons Ratio (z) = 0.03499 0.52020
#
# Static dielectric constant tensor:
#      x y z
#    x 2.492900 0.000000 0.000000 
#    y 0.000000 3.387450 0.000000 
#    z 0.000000 0.000000 3.424000 
# 
# 
# High freq. dielectric constant tensor:
#      x y z
#    x 1.573710 0.000000 0.000000 
#    y 0.000000 1.672650 0.000000 
#    z 0.000000 0.000000 1.672430 
# 
# From -- ./inp_files/30355.got.cif
#   From: 2010.03.12/outbox.cif.g09.slc.cpg/sg63_16_cif.got.tgz:30355.got - 2010.04.10 19:34:48.
