data_PCOD8261840
_publ_section_title
;
Structure prediction by ZEFSAII (Michael W. Deem and Ramdas Pophale) SiO2 
 PCOD8261840
Probable space group: C M C A
;
_chemical_formula_sum "Si O2"
_cell_formula_units_Z 80
_cell_length_a 17.644778
_cell_length_b 12.658690
_cell_length_c 18.776887
_cell_angle_alpha 90.000000
_cell_angle_beta 90.000000
_cell_angle_gamma 90.000000
_cell_volume 4194.001252
_symmetry_space_group_name_H-M "C M C A"
_symmetry_group_IT_number 64
_symmetry_cell_setting 'orthorhombic'
loop_
_space_group_symop_operation_xyz
x,y,z
-x,1/2-y,1/2+z
x,-y,-z
-x,1/2+y,1/2-z
-x,-y,-z
x,1/2+y,1/2-z
-x,y,z
x,1/2-y,1/2+z
1/2+x,1/2+y,z
1/2-x,-y,1/2+z
1/2+x,1/2-y,-z
1/2-x,y,1/2-z
1/2-x,1/2-y,-z
1/2+x,y,1/2-z
1/2-x,1/2+y,z
1/2+x,-y,1/2+z
loop_
_atom_site_type_symbol
_atom_site_label
_atom_site_fract_x
_atom_site_fract_y
_atom_site_fract_z
Si Si1 0.150119 0.600797 0.916982
Si Si2 0.830236 0.298821 0.667257
Si Si3 0.845067 0.243870 0.819802
Si Si4 0.085381 0.389153 0.933315
Si Si5 0.210127 0.973883 0.172653
O O1 0.127563 0.715499 0.884632
O O2 0.092829 0.504979 0.896241
O O3 0.231514 0.562177 0.888565
O O4 0.146331 0.616816 0.002397
O O5 0.870635 0.287518 0.743467
O O6 0.742302 0.269832 0.668179
O O7 0.833958 0.421773 0.644890
O O8 0.898088 0.295766 0.878591
O O9 0.853500 0.116823 0.819903
O O10 0.000000 0.375241 0.962162
O O11 0.250000 0.993583 0.250000
#
# Coordination Sequence:
#
# PCOD8261840 Si02
#       5
#    16  16  16  16  16
#     4  10  20  35  57  84 112 153 192 229 287 333
#     4  10  18  32  60  88 116 137 180 247 292 342
#     4  10  19  33  57  86 114 150 180 230 297 335
#     4  11  23  41  56  77 119 160 199 231 266 338
#     4  11  17  32  57  91 121 137 174 247 302 343
#
# _framework density 19.074863000000001
#
# number of rings (size 3 to 8) (size 9 to 14) (size 15 to 20)
#    0.000    1.600    8.000    1.200    0.000    3.200 
#    0.000    2.000    0.000    3.600    0.000    0.000 
#    0.000    0.000    0.000    0.000    0.000    0.000 
#
# Total GULP energy -495573.529156 kJ/mol
# GULP energy per Si atom -12389.338229 kJ/mol
# Density = 1.903145 g / cm^3
# Si number density = 19.074863 Si / 1000 Ang^3
#
#
#
# Elastic Constant Matrix: (Units=GPa)
#
#
# Indices 1 2 3 4 5 6 
#
# 1 36.2846 22.2648 36.1420 0.0000 0.0000 0.0000
# 2 22.2648 193.2163 59.1869 0.0000 0.0000 0.0000
# 3 36.1420 59.1869 96.6931 0.0000 0.0000 0.0000
# 4 0.0000 0.0000 0.0000 35.1728 0.0000 0.0000
# 5 0.0000 0.0000 0.0000 0.0000 11.7874 0.0000
# 6 0.0000 0.0000 0.0000 0.0000 0.0000 10.8685
#
#
#
# Elastic Compliance Matrix: (Units=1/GPa)
#
#
# Indices 1 2 3 4 5 6 
#
# 1 0.043907 -0.000040 -0.016387 0.000000 0.000000 0.000000
# 2 -0.000040 0.006370 -0.003884 0.000000 0.000000 0.000000
# 3 -0.016387 -0.003884 0.018845 0.000000 0.000000 0.000000
# 4 0.000000 0.000000 0.000000 0.028431 0.000000 0.000000
# 5 0.000000 0.000000 0.000000 0.000000 0.084836 0.000000
# 6 0.000000 0.000000 0.000000 0.000000 0.000000 0.092009
#
#
# Mechanical properties :
#
#
# Convention : Reuss Voigt Hill
#
# Bulk Modulus (GPa) = 35.08851 62.37570 48.73210
# Shear Modulus (GPa) = 15.40734 25.47245 20.43989
#
# Velocity S-wave (km/s) = 2.84514 3.65827 3.27702
# Velocity P-wave (km/s) = 5.40631 7.11445 6.31837
#
# Compressibility (1/GPa) = 0.02849936
#
# Stress axis : x y z
#
# Youngs Moduli (GPa) = 22.77537 156.98648 53.06485
#
# Poissons Ratio (x) = 0.00623 0.86959
# Poissons Ratio (y) = 0.00090 0.20612
# Poissons Ratio (z) = 0.37323 0.60978
#
# Static dielectric constant tensor:
#      x y z
#    x 2.946740 0.000000 0.000000 
#    y 0.000000 4.271960 0.000000 
#    z 0.000000 0.000000 3.491730 
# 
# 
# High freq. dielectric constant tensor:
#      x y z
#    x 1.672570 0.000000 0.000000 
#    y 0.000000 1.768760 0.000000 
#    z 0.000000 0.000000 1.734350 
# 
# From -- ./inp_files/34211.got.cif
#   From: 2010.03.12/outbox.cif.g09.slc.cpg/sg64_18_cif.got.tgz:34211.got - 2010.04.10 20:19:32.
