data_PCOD8261077
_publ_section_title
;
Structure prediction by ZEFSAII (Michael W. Deem and Ramdas Pophale) SiO2 
 PCOD8261077
Probable space group: C M C M
;
_chemical_formula_sum "Si O2"
_cell_formula_units_Z 104
_cell_length_a 32.179253
_cell_length_b 19.769729
_cell_length_c 8.694867
_cell_angle_alpha 90.000000
_cell_angle_beta 90.000000
_cell_angle_gamma 90.000000
_cell_volume 5531.457981
_symmetry_space_group_name_H-M "C M C M"
_symmetry_group_IT_number 63
_symmetry_cell_setting 'orthorhombic'
loop_
_space_group_symop_operation_xyz
x,y,z
-x,-y,1/2+z
x,-y,-z
-x,y,1/2-z
-x,-y,-z
x,y,1/2-z
-x,y,z
x,-y,1/2+z
1/2+x,1/2+y,z
1/2-x,1/2-y,1/2+z
1/2+x,1/2-y,-z
1/2-x,1/2+y,1/2-z
1/2-x,1/2-y,-z
1/2+x,1/2+y,1/2-z
1/2-x,1/2+y,z
1/2+x,1/2-y,1/2+z
loop_
_atom_site_type_symbol
_atom_site_label
_atom_site_fract_x
_atom_site_fract_y
_atom_site_fract_z
Si Si1 0.500000 0.424861 0.068169
Si Si2 0.776063 0.838106 0.072738
Si Si3 0.149714 0.072400 0.571389
Si Si4 0.401320 0.195383 0.932989
Si Si5 0.689839 0.794296 0.070505
Si Si6 0.047284 0.569224 0.568015
Si Si7 0.577105 0.344898 0.931646
O O1 0.500000 0.431662 0.250000
O O2 0.500000 0.500000 0.000000
O O3 0.540459 0.384142 0.016202
O O4 0.777969 0.814570 0.250000
O O5 0.801789 0.907203 0.048360
O O6 0.727398 0.845827 0.022339
O O7 0.797573 0.781269 0.971586
O O8 0.137242 0.071481 0.750000
O O9 0.121270 0.125401 0.481947
O O10 0.141975 0.000000 0.500000
O O11 0.400219 0.192023 0.750000
O O12 0.354734 0.187895 0.004921
O O13 0.427762 0.133129 0.000084
O O14 0.422800 0.266117 0.981778
O O15 0.682542 0.797018 0.250000
O O16 0.066312 0.500000 0.500000
O O17 0.050722 0.566241 0.750000
O O18 0.000000 0.577751 0.512472
O O19 0.571128 0.353404 0.750000
#
# Coordination Sequence:
#
# PCOD8261077 Si02
#       7
#     8  16  16  16  16  16  16
#     4  12  26  44  60  80 111 150 185 228 279 330
#     4   9  18  31  50  75 105 137 175 223 269 314
#     4  11  22  36  53  77 110 149 188 232 278 325
#     4   9  18  32  56  84 109 141 180 223 270 324
#     4   9  16  31  53  77 103 136 176 217 267 323
#     4   9  18  34  55  78 106 139 174 212 259 319
#     4  11  22  38  60  85 109 142 186 231 275 330
#
# _framework density 18.801552999999998
#
# number of rings (size 3 to 8) (size 9 to 14) (size 15 to 20)
#    0.000    2.154    1.538    2.077    1.077    0.615 
#    0.000    3.077    0.000    0.000    0.000    0.000 
#    0.000    0.000    0.000    0.000    0.000    0.000 
#
# Total GULP energy -644557.693817 kJ/mol
# GULP energy per Si atom -12395.340266 kJ/mol
# Density = 1.875876 g / cm^3
# Si number density = 18.801553 Si / 1000 Ang^3
#
#
#
# Elastic Constant Matrix: (Units=GPa)
#
#
# Indices 1 2 3 4 5 6 
#
# 1 131.2213 74.7753 31.2465 0.0000 0.0000 0.0000
# 2 74.7753 148.3409 31.8402 0.0000 0.0000 0.0000
# 3 31.2465 31.8402 45.5617 0.0000 0.0000 0.0000
# 4 0.0000 0.0000 0.0000 24.0368 0.0000 0.0000
# 5 0.0000 0.0000 0.0000 0.0000 21.0863 0.0000
# 6 0.0000 0.0000 0.0000 0.0000 0.0000 29.3742
#
#
#
# Elastic Compliance Matrix: (Units=1/GPa)
#
#
# Indices 1 2 3 4 5 6 
#
# 1 0.011420 -0.004795 -0.004481 0.000000 0.000000 0.000000
# 2 -0.004795 0.009944 -0.003661 0.000000 0.000000 0.000000
# 3 -0.004481 -0.003661 0.027580 0.000000 0.000000 0.000000
# 4 0.000000 0.000000 0.000000 0.041603 0.000000 0.000000
# 5 0.000000 0.000000 0.000000 0.000000 0.047424 0.000000
# 6 0.000000 0.000000 0.000000 0.000000 0.000000 0.034043
#
#
# Mechanical properties :
#
#
# Convention : Reuss Voigt Hill
#
# Bulk Modulus (GPa) = 43.34606 66.76085 55.05346
# Shear Modulus (GPa) = 24.32167 27.38359 25.85263
#
# Velocity S-wave (km/s) = 3.60057 3.82049 3.71216
# Velocity P-wave (km/s) = 6.35531 7.41935 6.90785
#
# Compressibility (1/GPa) = 0.02307014
#
# Stress axis : x y z
#
# Youngs Moduli (GPa) = 87.56563 100.56385 36.25833
#
# Poissons Ratio (x) = 0.48218 0.16248
# Poissons Ratio (y) = 0.41985 0.13274
# Poissons Ratio (z) = 0.39240 0.36816
#
# Static dielectric constant tensor:
#      x y z
#    x 4.031630 0.000000 0.000000 
#    y 0.000000 3.459410 0.000000 
#    z 0.000000 0.000000 3.382730 
# 
# 
# High freq. dielectric constant tensor:
#      x y z
#    x 1.743460 0.000000 0.000000 
#    y 0.000000 1.718770 0.000000 
#    z 0.000000 0.000000 1.714650 
# 
# From -- ./inp_files/14485.got.cif
#   From: 2010.03.12/outbox.cif.g09.slc.cpg/sg63_8_cif.got.tgz:14485.got - 2010.04.10 19:34:48.
