data_PCOD8261959
_publ_section_title
;
Structure prediction by ZEFSAII (Michael W. Deem and Ramdas Pophale) SiO2 
 PCOD8261959
Probable space group: C M C A
;
_chemical_formula_sum "Si O2"
_cell_formula_units_Z 72
_cell_length_a 13.669125
_cell_length_b 12.650538
_cell_length_c 18.712962
_cell_angle_alpha 90.000000
_cell_angle_beta 90.000000
_cell_angle_gamma 90.000000
_cell_volume 3235.878796
_symmetry_space_group_name_H-M "C M C A"
_symmetry_group_IT_number 64
_symmetry_cell_setting 'orthorhombic'
loop_
_space_group_symop_operation_xyz
x,y,z
-x,1/2-y,1/2+z
x,-y,-z
-x,1/2+y,1/2-z
-x,-y,-z
x,1/2+y,1/2-z
-x,y,z
x,1/2-y,1/2+z
1/2+x,1/2+y,z
1/2-x,-y,1/2+z
1/2+x,1/2-y,-z
1/2-x,y,1/2-z
1/2-x,1/2-y,-z
1/2+x,y,1/2-z
1/2-x,1/2+y,z
1/2+x,-y,1/2+z
loop_
_atom_site_type_symbol
_atom_site_label
_atom_site_fract_x
_atom_site_fract_y
_atom_site_fract_z
Si Si1 0.607725 0.285120 0.841283
Si Si2 0.110900 0.148804 0.316647
Si Si3 0.250000 0.989526 0.250000
Si Si4 0.386591 0.470994 0.132613
Si Si5 0.717987 0.208974 0.576380
O O1 0.500000 0.247504 0.864629
O O2 0.618308 0.283072 0.756072
O O3 0.626467 0.403246 0.872765
O O4 0.685197 0.203797 0.874174
O O5 0.136822 0.216655 0.386525
O O6 0.000000 0.104745 0.324629
O O7 0.190456 0.056465 0.309729
O O8 0.331799 0.926047 0.295381
O O9 0.500000 0.439065 0.136736
O O10 0.332569 0.407229 0.068427
O O11 0.750000 0.250000 0.500000
#
# Coordination Sequence:
#
# PCOD8261959 Si02
#       5
#    16  16   8  16  16
#     4   9  20  42  66  89 120 164 218 269 312 370
#     4  10  19  38  64  89 123 162 207 270 322 361
#     4  10  18  38  70  96 124 156 216 266 322 368
#     4  10  22  40  66  94 120 162 215 259 309 375
#     4  12  24  38  59  91 135 170 207 255 318 383
#
# _framework density 22.250523000000001
#
# number of rings (size 3 to 8) (size 9 to 14) (size 15 to 20)
#    0.000    1.778    4.444    2.667    3.111    2.667 
#    0.000    3.333    0.000    1.333    0.000    0.000 
#    0.000    0.000    0.000    0.000    0.000    0.000 
#
# Total GULP energy -446068.205814 kJ/mol
# GULP energy per Si atom -12390.783495 kJ/mol
# Density = 2.219988 g / cm^3
# Si number density = 22.250523 Si / 1000 Ang^3
#
#
#
# Elastic Constant Matrix: (Units=GPa)
#
#
# Indices 1 2 3 4 5 6 
#
# 1 183.8152 31.5535 32.7158 0.0000 0.0000 0.0000
# 2 31.5535 56.1547 15.0591 0.0000 0.0000 0.0000
# 3 32.7158 15.0591 76.2229 0.0000 0.0000 0.0000
# 4 0.0000 0.0000 0.0000 23.5552 0.0000 0.0000
# 5 0.0000 0.0000 0.0000 0.0000 22.6727 0.0000
# 6 0.0000 0.0000 0.0000 0.0000 0.0000 36.3471
#
#
#
# Elastic Compliance Matrix: (Units=1/GPa)
#
#
# Indices 1 2 3 4 5 6 
#
# 1 0.006332 -0.002987 -0.002127 0.000000 0.000000 0.000000
# 2 -0.002987 0.020214 -0.002711 0.000000 0.000000 0.000000
# 3 -0.002127 -0.002711 0.014568 0.000000 0.000000 0.000000
# 4 0.000000 0.000000 0.000000 0.042453 0.000000 0.000000
# 5 0.000000 0.000000 0.000000 0.000000 0.044106 0.000000
# 6 0.000000 0.000000 0.000000 0.000000 0.000000 0.027513
#
#
# Mechanical properties :
#
#
# Convention : Reuss Voigt Hill
#
# Bulk Modulus (GPa) = 39.27521 52.76105 46.01813
# Shear Modulus (GPa) = 27.88239 32.30596 30.09418
#
# Velocity S-wave (km/s) = 3.54377 3.81454 3.68165
# Velocity P-wave (km/s) = 5.86806 6.56998 6.22892
#
# Compressibility (1/GPa) = 0.02546135
#
# Stress axis : x y z
#
# Youngs Moduli (GPa) = 157.93582 49.47164 68.64259
#
# Poissons Ratio (x) = 0.14779 0.14603
# Poissons Ratio (y) = 0.47180 0.18611
# Poissons Ratio (z) = 0.33600 0.13414
#
# Static dielectric constant tensor:
#      x y z
#    x 4.536220 0.000000 0.000000 
#    y 0.000000 3.705650 0.000000 
#    z 0.000000 0.000000 3.750770 
# 
# 
# High freq. dielectric constant tensor:
#      x y z
#    x 1.909730 0.000000 0.000000 
#    y 0.000000 1.845080 0.000000 
#    z 0.000000 0.000000 1.838830 
# 
# From -- ./inp_files/31863.got.cif
#   From: 2010.03.12/outbox.cif.g09.slc.cpg/sg64_16_cif.got.tgz:31863.got - 2010.04.10 20:19:32.
