data_PCOD8261372
_publ_section_title
;
Structure prediction by ZEFSAII (Michael W. Deem and Ramdas Pophale) SiO2 
 PCOD8261372
Probable space group: C M C M
;
_chemical_formula_sum "Si O2"
_cell_formula_units_Z 40
_cell_length_a 9.000000
_cell_length_b 18.000000
_cell_length_c 27.000000
_cell_angle_alpha 90.000000
_cell_angle_beta 90.000000
_cell_angle_gamma 90.000000
_cell_volume 4374.000000
_symmetry_space_group_name_H-M "C M C M"
_symmetry_group_IT_number 63
_symmetry_cell_setting 'orthorhombic'
loop_
_space_group_symop_operation_xyz
x,y,z
-x,-y,1/2+z
x,-y,-z
-x,y,1/2-z
-x,-y,-z
x,y,1/2-z
-x,y,z
x,-y,1/2+z
1/2+x,1/2+y,z
1/2-x,1/2-y,1/2+z
1/2+x,1/2-y,-z
1/2-x,1/2+y,1/2-z
1/2-x,1/2-y,-z
1/2+x,1/2+y,1/2-z
1/2-x,1/2+y,z
1/2+x,1/2-y,1/2+z
loop_
_atom_site_type_symbol
_atom_site_label
_atom_site_fract_x
_atom_site_fract_y
_atom_site_fract_z
Si Si1 0.324136 0.915761 0.054200
Si Si2 0.824009 0.414484 0.943412
Si Si3 0.675688 0.336764 0.650076
Si Si4 0.676004 0.577730 0.250000
Si Si5 0.676392 0.832623 0.348573
Si Si6 0.177064 0.417746 0.250000
O O1 0.500000 0.912046 0.055252
O O2 0.258301 0.867247 0.099928
O O3 0.273165 0.000307 0.062673
O O4 0.273380 0.887661 0.999065
O O5 0.746363 0.368544 0.900057
O O6 0.000000 0.405895 0.937273
O O7 0.500000 0.341630 0.643957
O O8 0.726772 0.378853 0.700199
O O9 0.730248 0.252060 0.655431
O O10 0.500000 0.566477 0.250000
O O11 0.756338 0.499363 0.250000
O O12 0.500000 0.837431 0.349737
O O13 0.734407 0.875827 0.299650
O O14 0.000000 0.422926 0.250000
#
# Coordination Sequence:
#
# PCOD8261372 Si02
#       6
#    16  16  16   8  16   8
#     4   8  15  29  49  71  97 128 160 199 243 280
#     4   9  17  31  51  73  96 125 163 203 240 278
#     4  10  20  33  49  70  99 131 158 191 239 291
#     4  10  21  35  49  69  99 128 152 190 248 294
#     4   9  17  30  49  73  98 125 160 197 234 282
#     4  10  19  33  57  79  91 118 168 208 228 272
#
# _framework density 9.1449470000000002
#
# number of rings (size 3 to 8) (size 9 to 14) (size 15 to 20)
#    0.000    2.800    0.000    3.000    0.000    5.600 
#    0.000    3.000    0.000    3.600    0.000    0.000 
#    0.000    0.000    0.000    0.000    0.000    0.000 
#
# Total GULP energy -495752.526461 kJ/mol
# GULP energy per Si atom -12393.813162 kJ/mol
# Density = 0.912413 g / cm^3
# Si number density = 9.144947 Si / 1000 Ang^3
#
#
#
# Elastic Constant Matrix: (Units=GPa)
#
#
# Indices 1 2 3 4 5 6 
#
# 1 19.5344 25.1628 28.2275 0.0000 0.0000 0.0000
# 2 25.1628 152.1380 108.3197 0.0000 0.0000 0.0000
# 3 28.2275 108.3197 230.8984 0.0000 0.0000 0.0000
# 4 0.0000 0.0000 0.0000 42.1819 0.0000 0.0000
# 5 0.0000 0.0000 0.0000 0.0000 27.8089 0.0000
# 6 0.0000 0.0000 0.0000 0.0000 0.0000 22.7862
#
#
#
# Elastic Compliance Matrix: (Units=1/GPa)
#
#
# Indices 1 2 3 4 5 6 
#
# 1 0.068115 -0.008014 -0.004568 0.000000 0.000000 0.000000
# 2 -0.008014 0.010812 -0.004093 0.000000 0.000000 0.000000
# 3 -0.004568 -0.004093 0.006809 0.000000 0.000000 0.000000
# 4 0.000000 0.000000 0.000000 0.023707 0.000000 0.000000
# 5 0.000000 0.000000 0.000000 0.000000 0.035960 0.000000
# 6 0.000000 0.000000 0.000000 0.000000 0.000000 0.043886
#
#
# Mechanical properties :
#
#
# Convention : Reuss Voigt Hill
#
# Bulk Modulus (GPa) = 19.08821 80.66563 49.87692
# Shear Modulus (GPa) = 20.82467 34.61279 27.71873
#
# Velocity S-wave (km/s) = 3.37796 4.35495 3.89719
# Velocity P-wave (km/s) = 5.06688 8.33590 6.89784
#
# Compressibility (1/GPa) = 0.05238837
#
# Stress axis : x y z
#
# Youngs Moduli (GPa) = 14.68109 92.48761 146.85931
#
# Poissons Ratio (x) = 0.74117 0.67080
# Poissons Ratio (y) = 0.11765 0.60104
# Poissons Ratio (z) = 0.06706 0.37851
#
# Static dielectric constant tensor:
#      x y z
#    x 2.898110 0.000000 0.000000 
#    y 0.000000 3.504380 0.000000 
#    z 0.000000 0.000000 4.057150 
# 
# 
# High freq. dielectric constant tensor:
#      x y z
#    x 1.659890 0.000000 0.000000 
#    y 0.000000 1.714000 0.000000 
#    z 0.000000 0.000000 1.751470 
# 
# From -- ./inp_files/52430.got.cif
#   From: 2010.03.12/outbox.ucp.g09.slc.cvg/sg63_27_cif.got.tgz:52430.got - 2010.05.04 19:38:17.
