data_PCOD8261974
_publ_section_title
;
Structure prediction by ZEFSAII (Michael W. Deem and Ramdas Pophale) SiO2 
 PCOD8261974
Probable space group: C M C A
;
_chemical_formula_sum "Si O2"
_cell_formula_units_Z 96
_cell_length_a 8.788002
_cell_length_b 23.835002
_cell_length_c 26.526154
_cell_angle_alpha 90.000000
_cell_angle_beta 90.000000
_cell_angle_gamma 90.000000
_cell_volume 5556.222469
_symmetry_space_group_name_H-M "C M C A"
_symmetry_group_IT_number 64
_symmetry_cell_setting 'orthorhombic'
loop_
_space_group_symop_operation_xyz
x,y,z
-x,1/2-y,1/2+z
x,-y,-z
-x,1/2+y,1/2-z
-x,-y,-z
x,1/2+y,1/2-z
-x,y,z
x,1/2-y,1/2+z
1/2+x,1/2+y,z
1/2-x,-y,1/2+z
1/2+x,1/2-y,-z
1/2-x,y,1/2-z
1/2-x,1/2-y,-z
1/2+x,y,1/2-z
1/2-x,1/2+y,z
1/2+x,-y,1/2+z
loop_
_atom_site_type_symbol
_atom_site_label
_atom_site_fract_x
_atom_site_fract_y
_atom_site_fract_z
Si Si1 0.180890 0.168821 0.804666
Si Si2 0.328381 0.818011 0.459152
Si Si3 0.682471 0.518729 0.055049
Si Si4 0.830267 0.416889 0.385184
Si Si5 0.179279 0.856729 0.935030
Si Si6 0.323407 0.747305 0.123592
O O1 0.250000 0.162399 0.750000
O O2 0.248319 0.117737 0.839173
O O3 0.228136 0.228268 0.829567
O O4 0.000000 0.167596 0.802320
O O5 0.500000 0.792694 0.458367
O O6 0.332684 0.879720 0.435352
O O7 0.258835 0.824913 0.515119
O O8 0.214815 0.778691 0.428335
O O9 0.500000 0.516195 0.055661
O O10 0.747682 0.475729 0.098044
O O11 0.746581 0.580430 0.069758
O O12 0.742520 0.500000 0.000000
O O13 0.000000 0.429828 0.366343
O O14 0.216831 0.818724 0.885746
O O15 0.000000 0.862302 0.943137
O O16 0.500000 0.755208 0.136166
#
# Coordination Sequence:
#
# PCOD8261974 Si02
#       6
#    16  16  16  16  16  16
#     4  10  20  35  54  73  90 113 150 197 246 290
#     4   9  15  26  42  64  94 128 163 196 224 261
#     4   9  13  21  40  66  97 130 160 189 220 263
#     4   8  14  24  42  69  95 118 151 193 232 268
#     4   9  16  24  39  65  98 131 163 192 222 266
#     4  10  19  29  42  67  98 126 156 192 234 279
#
# _framework density 17.277926999999998
#
# number of rings (size 3 to 8) (size 9 to 14) (size 15 to 20)
#    0.000    2.833    1.667    2.500    0.000    0.000 
#    0.000    0.833    0.000    1.000    0.000   24.500 
#    0.000    0.000    0.000    0.000    0.000    0.000 
#
# Total GULP energy -594670.672288 kJ/mol
# GULP energy per Si atom -12388.972339 kJ/mol
# Density = 1.723860 g / cm^3
# Si number density = 17.277927 Si / 1000 Ang^3
#
#
#
# Elastic Constant Matrix: (Units=GPa)
#
#
# Indices 1 2 3 4 5 6 
#
# 1 32.7673 19.1982 20.5490 0.0000 0.0000 0.0000
# 2 19.1982 110.0918 53.8101 0.0000 0.0000 0.0000
# 3 20.5490 53.8101 110.2863 0.0000 0.0000 0.0000
# 4 0.0000 0.0000 0.0000 15.3549 0.0000 0.0000
# 5 0.0000 0.0000 0.0000 0.0000 19.1225 0.0000
# 6 0.0000 0.0000 0.0000 0.0000 0.0000 11.9675
#
#
#
# Elastic Compliance Matrix: (Units=1/GPa)
#
#
# Indices 1 2 3 4 5 6 
#
# 1 0.035797 -0.003916 -0.004759 0.000000 0.000000 0.000000
# 2 -0.003916 0.012356 -0.005299 0.000000 0.000000 0.000000
# 3 -0.004759 -0.005299 0.012540 0.000000 0.000000 0.000000
# 4 0.000000 0.000000 0.000000 0.065126 0.000000 0.000000
# 5 0.000000 0.000000 0.000000 0.000000 0.052294 0.000000
# 6 0.000000 0.000000 0.000000 0.000000 0.000000 0.083559
#
#
# Mechanical properties :
#
#
# Convention : Reuss Voigt Hill
#
# Bulk Modulus (GPa) = 30.53983 48.91779 39.72881
# Shear Modulus (GPa) = 16.63692 19.92820 18.28256
#
# Velocity S-wave (km/s) = 3.10643 3.39985 3.25644
# Velocity P-wave (km/s) = 5.52997 6.61708 6.09780
#
# Compressibility (1/GPa) = 0.03274413
#
# Stress axis : x y z
#
# Youngs Moduli (GPa) = 27.93507 80.93009 79.74780
#
# Poissons Ratio (x) = 0.31695 0.37952
# Poissons Ratio (y) = 0.10940 0.42259
# Poissons Ratio (z) = 0.13294 0.42886
#
# Static dielectric constant tensor:
#      x y z
#    x 2.798190 0.000000 0.000000 
#    y 0.000000 3.516060 0.000000 
#    z 0.000000 0.000000 3.100560 
# 
# 
# High freq. dielectric constant tensor:
#      x y z
#    x 1.622190 0.000000 0.000000 
#    y 0.000000 1.670910 0.000000 
#    z 0.000000 0.000000 1.641030 
# 
# From -- ./inp_files/48332.got.cif
#   From: 2010.03.12/outbox.cif.g09.slc.cpg/sg64_25_cif.got.tgz:48332.got - 2010.04.10 20:19:32.
