data_PCOD8261727
_publ_section_title
;
Structure prediction by ZEFSAII (Michael W. Deem and Ramdas Pophale) SiO2 
 PCOD8261727
Probable space group: C M C A
;
_chemical_formula_sum "Si O2"
_cell_formula_units_Z 80
_cell_length_a 22.876590
_cell_length_b 9.433741
_cell_length_c 20.085861
_cell_angle_alpha 90.000000
_cell_angle_beta 90.000000
_cell_angle_gamma 90.000000
_cell_volume 4334.766320
_symmetry_space_group_name_H-M "C M C A"
_symmetry_group_IT_number 64
_symmetry_cell_setting 'orthorhombic'
loop_
_space_group_symop_operation_xyz
x,y,z
-x,1/2-y,1/2+z
x,-y,-z
-x,1/2+y,1/2-z
-x,-y,-z
x,1/2+y,1/2-z
-x,y,z
x,1/2-y,1/2+z
1/2+x,1/2+y,z
1/2-x,-y,1/2+z
1/2+x,1/2-y,-z
1/2-x,y,1/2-z
1/2-x,1/2-y,-z
1/2+x,y,1/2-z
1/2-x,1/2+y,z
1/2+x,-y,1/2+z
loop_
_atom_site_type_symbol
_atom_site_label
_atom_site_fract_x
_atom_site_fract_y
_atom_site_fract_z
Si Si1 0.823972 0.653582 0.858676
Si Si2 0.264978 0.427075 0.827032
Si Si3 0.934155 0.947814 0.425877
Si Si4 0.129763 0.921740 0.222726
Si Si5 0.434454 0.347509 0.694604
O O1 0.788937 0.504118 0.864765
O O2 0.781029 0.787538 0.870296
O O3 0.881101 0.659343 0.906973
O O4 0.844793 0.670494 0.783117
O O5 0.250000 0.389520 0.750000
O O6 0.319579 0.534797 0.828438
O O7 0.928690 0.081690 0.377386
O O8 0.000000 0.880033 0.418314
O O9 0.923933 0.000000 0.500000
O O10 0.099238 0.063572 0.249369
O O11 0.087050 0.813614 0.185220
O O12 0.500000 0.341199 0.720625
#
# Coordination Sequence:
#
# PCOD8261727 Si02
#       5
#    16  16  16  16  16
#     4  10  20  32  54  80 106 143 179 215 262 322
#     4  10  19  31  51  80 116 145 171 211 270 336
#     4   9  20  39  59  76 103 147 192 228 270 326
#     4  10  18  31  49  79 115 141 171 217 273 329
#     4  10  19  31  52  81 110 141 178 225 272 321
#
# _framework density 18.455435999999999
#
# number of rings (size 3 to 8) (size 9 to 14) (size 15 to 20)
#    0.000    2.200    2.000    2.400    5.600    0.800 
#    0.000    1.000    0.000    0.000    0.000    4.200 
#    0.000    0.000    0.000    0.000    0.000    0.000 
#
# Total GULP energy -495736.293473 kJ/mol
# GULP energy per Si atom -12393.407337 kJ/mol
# Density = 1.841343 g / cm^3
# Si number density = 18.455436 Si / 1000 Ang^3
#
#
#
# Elastic Constant Matrix: (Units=GPa)
#
#
# Indices 1 2 3 4 5 6 
#
# 1 124.3660 43.1456 25.8029 0.0000 0.0000 0.0000
# 2 43.1456 82.1993 15.0401 0.0000 0.0000 0.0000
# 3 25.8029 15.0401 38.3829 0.0000 0.0000 0.0000
# 4 0.0000 0.0000 0.0000 4.5527 0.0000 0.0000
# 5 0.0000 0.0000 0.0000 0.0000 18.8949 0.0000
# 6 0.0000 0.0000 0.0000 0.0000 0.0000 41.5724
#
#
#
# Elastic Compliance Matrix: (Units=1/GPa)
#
#
# Indices 1 2 3 4 5 6 
#
# 1 0.010785 -0.004669 -0.005421 0.000000 0.000000 0.000000
# 2 -0.004669 0.015127 -0.002788 0.000000 0.000000 0.000000
# 3 -0.005421 -0.002788 0.030790 0.000000 0.000000 0.000000
# 4 0.000000 0.000000 0.000000 0.219651 0.000000 0.000000
# 5 0.000000 0.000000 0.000000 0.000000 0.052924 0.000000
# 6 0.000000 0.000000 0.000000 0.000000 0.000000 0.024054
#
#
# Mechanical properties :
#
#
# Convention : Reuss Voigt Hill
#
# Bulk Modulus (GPa) = 32.31533 45.88059 39.09796
# Shear Modulus (GPa) = 12.84015 23.73462 18.28738
#
# Velocity S-wave (km/s) = 2.64055 3.59004 3.15126
# Velocity P-wave (km/s) = 5.18118 6.48835 5.87126
#
# Compressibility (1/GPa) = 0.03094507
#
# Stress axis : x y z
#
# Youngs Moduli (GPa) = 92.71835 66.10868 32.47805
#
# Poissons Ratio (x) = 0.30868 0.17606
# Poissons Ratio (y) = 0.43293 0.09056
# Poissons Ratio (z) = 0.50261 0.18434
#
# Static dielectric constant tensor:
#      x y z
#    x 3.882130 0.000000 0.000000 
#    y 0.000000 3.230520 0.000000 
#    z 0.000000 0.000000 2.920920 
# 
# 
# High freq. dielectric constant tensor:
#      x y z
#    x 1.744000 0.000000 0.000000 
#    y 0.000000 1.706610 0.000000 
#    z 0.000000 0.000000 1.652660 
# 
# From -- ./inp_files/35670.got.cif
#   From: 2010.03.12/outbox.cif.g09.slc.cpg/sg64_18_cif.got.tgz:35670.got - 2010.04.10 20:19:32.
