data_PCOD8261741
_publ_section_title
;
Structure prediction by ZEFSAII (Michael W. Deem and Ramdas Pophale) SiO2 
 PCOD8261741
Probable space group: C M C A
;
_chemical_formula_sum "Si O2"
_cell_formula_units_Z 80
_cell_length_a 8.629036
_cell_length_b 25.519620
_cell_length_c 20.066447
_cell_angle_alpha 90.000000
_cell_angle_beta 90.000000
_cell_angle_gamma 90.000000
_cell_volume 4418.826669
_symmetry_space_group_name_H-M "C M C A"
_symmetry_group_IT_number 64
_symmetry_cell_setting 'orthorhombic'
loop_
_space_group_symop_operation_xyz
x,y,z
-x,1/2-y,1/2+z
x,-y,-z
-x,1/2+y,1/2-z
-x,-y,-z
x,1/2+y,1/2-z
-x,y,z
x,1/2-y,1/2+z
1/2+x,1/2+y,z
1/2-x,-y,1/2+z
1/2+x,1/2-y,-z
1/2-x,y,1/2-z
1/2-x,1/2-y,-z
1/2+x,y,1/2-z
1/2-x,1/2+y,z
1/2+x,-y,1/2+z
loop_
_atom_site_type_symbol
_atom_site_label
_atom_site_fract_x
_atom_site_fract_y
_atom_site_fract_z
Si Si1 0.681878 0.979596 0.072540
Si Si2 0.182662 0.265257 0.070780
Si Si3 0.317845 0.846547 0.596580
Si Si4 0.683073 0.130223 0.552076
Si Si5 0.817457 0.057387 0.178281
O O1 0.500000 0.986473 0.083394
O O2 0.730325 0.919520 0.082579
O O3 0.771954 0.011877 0.127946
O O4 0.734344 0.000000 0.000000
O O5 0.220761 0.213987 0.116783
O O6 0.267334 0.318329 0.095486
O O7 0.000000 0.275174 0.066290
O O8 0.250000 0.250000 0.000000
O O9 0.500000 0.854227 0.591647
O O10 0.253662 0.861504 0.523255
O O11 0.249708 0.886865 0.651132
O O12 0.500000 0.122045 0.556471
O O13 0.750000 0.044784 0.250000
O O14 0.000000 0.059738 0.184589
#
# Coordination Sequence:
#
# PCOD8261741 Si02
#       5
#    16  16  16  16  16
#     4  11  22  35  54  82 110 141 184 233 279 329
#     4   9  16  28  46  74 105 137 172 215 266 320
#     4   8  16  30  50  73 104 140 174 213 269 325
#     4  10  18  31  51  78 107 142 177 219 276 327
#     4  11  22  38  56  78 109 147 185 225 274 332
#
# _framework density 18.104354000000001
#
# number of rings (size 3 to 8) (size 9 to 14) (size 15 to 20)
#    0.000    2.200    2.000    3.600    0.000    0.800 
#    0.000    3.000    0.000    1.200    0.000    5.600 
#    0.000    0.000    0.000    0.000    0.000    0.000 
#
# Total GULP energy -495757.586869 kJ/mol
# GULP energy per Si atom -12393.939672 kJ/mol
# Density = 1.806315 g / cm^3
# Si number density = 18.104354 Si / 1000 Ang^3
#
#
#
# Elastic Constant Matrix: (Units=GPa)
#
#
# Indices 1 2 3 4 5 6 
#
# 1 49.2246 21.0093 18.5035 0.0000 0.0000 0.0000
# 2 21.0093 153.4447 43.7367 0.0000 0.0000 0.0000
# 3 18.5035 43.7367 76.6663 0.0000 0.0000 0.0000
# 4 0.0000 0.0000 0.0000 10.3097 0.0000 0.0000
# 5 0.0000 0.0000 0.0000 0.0000 17.3690 0.0000
# 6 0.0000 0.0000 0.0000 0.0000 0.0000 31.1468
#
#
#
# Elastic Compliance Matrix: (Units=1/GPa)
#
#
# Indices 1 2 3 4 5 6 
#
# 1 0.022775 -0.001853 -0.004440 0.000000 0.000000 0.000000
# 2 -0.001853 0.007933 -0.004079 0.000000 0.000000 0.000000
# 3 -0.004440 -0.004079 0.016442 0.000000 0.000000 0.000000
# 4 0.000000 0.000000 0.000000 0.096996 0.000000 0.000000
# 5 0.000000 0.000000 0.000000 0.000000 0.057574 0.000000
# 6 0.000000 0.000000 0.000000 0.000000 0.000000 0.032106
#
#
# Mechanical properties :
#
#
# Convention : Reuss Voigt Hill
#
# Bulk Modulus (GPa) = 37.86794 49.53718 43.70256
# Shear Modulus (GPa) = 18.98466 24.83750 21.91108
#
# Velocity S-wave (km/s) = 3.24176 3.70795 3.48266
# Velocity P-wave (km/s) = 5.91387 6.76411 6.35323
#
# Compressibility (1/GPa) = 0.02640757
#
# Stress axis : x y z
#
# Youngs Moduli (GPa) = 43.90840 126.05231 60.82054
#
# Poissons Ratio (x) = 0.23355 0.27002
# Poissons Ratio (y) = 0.08135 0.24806
# Poissons Ratio (z) = 0.19494 0.51411
#
# Static dielectric constant tensor:
#      x y z
#    x 3.302270 0.000000 0.000000 
#    y 0.000000 3.964180 0.000000 
#    z 0.000000 0.000000 3.075370 
# 
# 
# High freq. dielectric constant tensor:
#      x y z
#    x 1.699620 0.000000 0.000000 
#    y 0.000000 1.727500 0.000000 
#    z 0.000000 0.000000 1.643350 
# 
# From -- ./inp_files/29807.got.cif
#   From: 2010.03.12/outbox.cif.g09.slc.cpg/sg64_15_cif.got.tgz:29807.got - 2010.04.10 20:19:32.
