data_PCOD8261075
_publ_section_title
;
Structure prediction by ZEFSAII (Michael W. Deem and Ramdas Pophale) SiO2 
 PCOD8261075
Probable space group: C M C M
;
_chemical_formula_sum "Si O2"
_cell_formula_units_Z 96
_cell_length_a 8.267186
_cell_length_b 19.805419
_cell_length_c 29.073349
_cell_angle_alpha 90.000000
_cell_angle_beta 90.000000
_cell_angle_gamma 90.000000
_cell_volume 4760.327202
_symmetry_space_group_name_H-M "C M C M"
_symmetry_group_IT_number 63
_symmetry_cell_setting 'orthorhombic'
loop_
_space_group_symop_operation_xyz
x,y,z
-x,-y,1/2+z
x,-y,-z
-x,y,1/2-z
-x,-y,-z
x,y,1/2-z
-x,y,z
x,-y,1/2+z
1/2+x,1/2+y,z
1/2-x,1/2-y,1/2+z
1/2+x,1/2-y,-z
1/2-x,1/2+y,1/2-z
1/2-x,1/2-y,-z
1/2+x,1/2+y,1/2-z
1/2-x,1/2+y,z
1/2+x,1/2-y,1/2+z
loop_
_atom_site_type_symbol
_atom_site_label
_atom_site_fract_x
_atom_site_fract_y
_atom_site_fract_z
Si Si1 0.188304 0.320821 0.017539
Si Si2 0.686545 0.995696 0.873166
Si Si3 0.313959 0.555702 0.464064
Si Si4 0.192375 0.238054 0.801519
Si Si5 0.811403 0.143725 0.883370
Si Si6 0.308088 0.111351 0.301391
O O1 0.217740 0.331248 0.071640
O O2 0.000000 0.330068 0.007257
O O3 0.250000 0.250000 0.000000
O O4 0.290069 0.372381 0.987094
O O5 0.500000 0.013430 0.863835
O O6 0.787022 0.064563 0.874628
O O7 0.701381 0.953507 0.919963
O O8 0.762536 0.947023 0.834079
O O9 0.256934 0.500000 0.500000
O O10 0.500000 0.545794 0.449668
O O11 0.255359 0.218860 0.750000
O O12 0.257485 0.185073 0.839352
O O13 0.254135 0.313470 0.814892
O O14 0.000000 0.236984 0.800868
O O15 0.000000 0.158218 0.890990
O O16 0.250878 0.093944 0.250000
O O17 0.500000 0.111128 0.305399
#
# Coordination Sequence:
#
# PCOD8261075 Si02
#       6
#    16  16  16  16  16  16
#     4  12  26  43  63  88 120 156 197 242 292 354
#     4  11  22  35  58  88 117 156 198 241 294 353
#     4  11  23  41  63  86 118 157 196 243 295 347
#     4   8  16  33  57  83 112 150 196 244 293 346
#     4  11  22  37  58  86 120 155 196 245 294 348
#     4   8  16  33  56  84 115 148 193 244 292 348
#
# _framework density 20.166682000000002
#
# number of rings (size 3 to 8) (size 9 to 14) (size 15 to 20)
#    0.000    1.833    1.667    4.000    2.333    1.333 
#    0.000    0.000    0.000    3.000    0.000    9.333 
#    0.000    0.000    0.000    0.000    0.000    0.000 
#
# Total GULP energy -595201.104597 kJ/mol
# GULP energy per Si atom -12400.023012 kJ/mol
# Density = 2.012078 g / cm^3
# Si number density = 20.166682 Si / 1000 Ang^3
#
#
#
# Elastic Constant Matrix: (Units=GPa)
#
#
# Indices 1 2 3 4 5 6 
#
# 1 35.1381 0.9787 8.6990 0.0000 0.0000 0.0000
# 2 0.9787 149.0550 84.8584 0.0000 0.0000 0.0000
# 3 8.6990 84.8584 136.9486 0.0000 0.0000 0.0000
# 4 0.0000 0.0000 0.0000 47.9274 0.0000 0.0000
# 5 0.0000 0.0000 0.0000 0.0000 5.8061 0.0000
# 6 0.0000 0.0000 0.0000 0.0000 0.0000 23.9181
#
#
#
# Elastic Compliance Matrix: (Units=1/GPa)
#
#
# Indices 1 2 3 4 5 6 
#
# 1 0.029083 0.001330 -0.002671 0.000000 0.000000 0.000000
# 2 0.001330 0.010426 -0.006545 0.000000 0.000000 0.000000
# 3 -0.002671 -0.006545 0.011527 0.000000 0.000000 0.000000
# 4 0.000000 0.000000 0.000000 0.020865 0.000000 0.000000
# 5 0.000000 0.000000 0.000000 0.000000 0.172232 0.000000
# 6 0.000000 0.000000 0.000000 0.000000 0.000000 0.041809
#
#
# Mechanical properties :
#
#
# Convention : Reuss Voigt Hill
#
# Bulk Modulus (GPa) = 28.35760 56.69044 42.52402
# Shear Modulus (GPa) = 15.95045 30.63736 23.29390
#
# Velocity S-wave (km/s) = 2.81540 3.90193 3.40232
# Velocity P-wave (km/s) = 4.96596 6.96219 6.04702
#
# Compressibility (1/GPa) = 0.03526392
#
# Stress axis : x y z
#
# Youngs Moduli (GPa) = 34.38382 95.91091 86.75107
#
# Poissons Ratio (x) = -0.12755 0.23175
# Poissons Ratio (y) = -0.04573 0.56779
# Poissons Ratio (z) = 0.09185 0.62774
#
# Static dielectric constant tensor:
#      x y z
#    x 3.353230 0.000000 0.000000 
#    y 0.000000 3.836790 0.000000 
#    z 0.000000 0.000000 3.903010 
# 
# 
# High freq. dielectric constant tensor:
#      x y z
#    x 1.761930 0.000000 0.000000 
#    y 0.000000 1.797030 0.000000 
#    z 0.000000 0.000000 1.796140 
# 
# From -- ./inp_files/66941.got.cif
#   From: 2010.03.12/outbox.cif.g09.slc.cpg/sg63_34_cif.got.tgz:66941.got - 2010.04.10 19:34:48.
