data_PCOD8261981
_publ_section_title
;
Structure prediction by ZEFSAII (Michael W. Deem and Ramdas Pophale) SiO2 
 PCOD8261981
Probable space group: C M C A
;
_chemical_formula_sum "Si O2"
_cell_formula_units_Z 96
_cell_length_a 9.069696
_cell_length_b 19.520031
_cell_length_c 30.885195
_cell_angle_alpha 90.000000
_cell_angle_beta 90.000000
_cell_angle_gamma 90.000000
_cell_volume 5467.937997
_symmetry_space_group_name_H-M "C M C A"
_symmetry_group_IT_number 64
_symmetry_cell_setting 'orthorhombic'
loop_
_space_group_symop_operation_xyz
x,y,z
-x,1/2-y,1/2+z
x,-y,-z
-x,1/2+y,1/2-z
-x,-y,-z
x,1/2+y,1/2-z
-x,y,z
x,1/2-y,1/2+z
1/2+x,1/2+y,z
1/2-x,-y,1/2+z
1/2+x,1/2-y,-z
1/2-x,y,1/2-z
1/2-x,1/2-y,-z
1/2+x,y,1/2-z
1/2-x,1/2+y,z
1/2+x,-y,1/2+z
loop_
_atom_site_type_symbol
_atom_site_label
_atom_site_fract_x
_atom_site_fract_y
_atom_site_fract_z
Si Si1 0.327116 0.667822 0.121385
Si Si2 0.825497 0.578614 0.049812
Si Si3 0.833382 0.665405 0.207870
Si Si4 0.165973 0.671478 0.708161
Si Si5 0.172959 0.173433 0.622281
Si Si6 0.673996 0.576200 0.547352
O O1 0.500000 0.654898 0.126061
O O2 0.264338 0.628353 0.080505
O O3 0.249983 0.639939 0.164889
O O4 0.290490 0.747429 0.113849
O O5 0.780245 0.500571 0.060876
O O6 0.000000 0.590509 0.055693
O O7 0.771563 0.594889 0.000903
O O8 0.750000 0.635649 0.250000
O O9 0.832639 0.746922 0.209687
O O10 0.000000 0.636949 0.207296
O O11 0.250000 0.641620 0.750000
O O12 0.247447 0.645471 0.665157
O O13 0.000000 0.642969 0.708328
O O14 0.237697 0.130395 0.581860
O O15 0.000000 0.161466 0.628831
O O16 0.500000 0.580581 0.546448
#
# Coordination Sequence:
#
# PCOD8261981 Si02
#       6
#    16  16  16  16  16  16
#     4  10  19  29  44  70 100 125 151 188 234 278
#     4   9  17  32  52  69  88 120 161 197 231 277
#     4   9  16  27  44  66  93 124 156 189 226 271
#     4   9  16  26  42  66  94 123 154 187 226 272
#     4   9  17  30  47  68  95 124 154 190 231 274
#     4   8  16  32  52  69  87 120 162 196 230 277
#
# _framework density 17.556892999999999
#
# number of rings (size 3 to 8) (size 9 to 14) (size 15 to 20)
#    0.000    3.000    0.000    2.500    0.000    5.333 
#    0.000    3.333    0.000    1.000    0.000    4.667 
#    0.000    0.000    0.000    0.000    0.000    0.000 
#
# Total GULP energy -595090.561769 kJ/mol
# GULP energy per Si atom -12397.720037 kJ/mol
# Density = 1.751693 g / cm^3
# Si number density = 17.556893 Si / 1000 Ang^3
#
#
#
# Elastic Constant Matrix: (Units=GPa)
#
#
# Indices 1 2 3 4 5 6 
#
# 1 92.7819 36.8487 71.3979 0.0000 0.0000 0.0000
# 2 36.8487 52.7258 65.8284 0.0000 0.0000 0.0000
# 3 71.3979 65.8284 174.3413 0.0000 0.0000 0.0000
# 4 0.0000 0.0000 0.0000 2.0134 0.0000 0.0000
# 5 0.0000 0.0000 0.0000 0.0000 34.4530 0.0000
# 6 0.0000 0.0000 0.0000 0.0000 0.0000 12.1897
#
#
#
# Elastic Compliance Matrix: (Units=1/GPa)
#
#
# Indices 1 2 3 4 5 6 
#
# 1 0.016658 -0.005911 -0.004590 0.000000 0.000000 0.000000
# 2 -0.005911 0.037978 -0.011919 0.000000 0.000000 0.000000
# 3 -0.004590 -0.011919 0.012116 0.000000 0.000000 0.000000
# 4 0.000000 0.000000 0.000000 0.496673 0.000000 0.000000
# 5 0.000000 0.000000 0.000000 0.000000 0.029025 0.000000
# 6 0.000000 0.000000 0.000000 0.000000 0.000000 0.082036
#
#
# Mechanical properties :
#
#
# Convention : Reuss Voigt Hill
#
# Bulk Modulus (GPa) = 45.63785 74.22211 59.92998
# Shear Modulus (GPa) = 6.88107 19.44949 13.16528
#
# Velocity S-wave (km/s) = 1.98187 3.33197 2.74134
# Velocity P-wave (km/s) = 5.59355 7.56106 6.65047
#
# Compressibility (1/GPa) = 0.02191164
#
# Stress axis : x y z
#
# Youngs Moduli (GPa) = 60.03285 26.33079 82.53521
#
# Poissons Ratio (x) = 0.15564 0.37882
# Poissons Ratio (y) = 0.35486 0.98376
# Poissons Ratio (z) = 0.27554 0.31384
#
# Static dielectric constant tensor:
#      x y z
#    x 3.187880 0.000000 0.000000 
#    y 0.000000 3.015560 0.000000 
#    z 0.000000 0.000000 3.666630 
# 
# 
# High freq. dielectric constant tensor:
#      x y z
#    x 1.670190 0.000000 0.000000 
#    y 0.000000 1.634670 0.000000 
#    z 0.000000 0.000000 1.694520 
# 
# From -- ./inp_files/43019.got.cif
#   From: 2010.03.12/outbox.cif.g09.slc.cpg/sg64_22_cif.got.tgz:43019.got - 2010.04.10 20:19:32.
