data_PCOD8261631
_publ_section_title
;
Structure prediction by ZEFSAII (Michael W. Deem and Ramdas Pophale) SiO2 
 PCOD8261631
Probable space group: C M C A
;
_chemical_formula_sum "Si O2"
_cell_formula_units_Z 112
_cell_length_a 9.841162
_cell_length_b 23.105849
_cell_length_c 31.921685
_cell_angle_alpha 90.000000
_cell_angle_beta 90.000000
_cell_angle_gamma 90.000000
_cell_volume 7258.620978
_symmetry_space_group_name_H-M "C M C A"
_symmetry_group_IT_number 64
_symmetry_cell_setting 'orthorhombic'
loop_
_space_group_symop_operation_xyz
x,y,z
-x,1/2-y,1/2+z
x,-y,-z
-x,1/2+y,1/2-z
-x,-y,-z
x,1/2+y,1/2-z
-x,y,z
x,1/2-y,1/2+z
1/2+x,1/2+y,z
1/2-x,-y,1/2+z
1/2+x,1/2-y,-z
1/2-x,y,1/2-z
1/2-x,1/2-y,-z
1/2+x,y,1/2-z
1/2-x,1/2+y,z
1/2+x,-y,1/2+z
loop_
_atom_site_type_symbol
_atom_site_label
_atom_site_fract_x
_atom_site_fract_y
_atom_site_fract_z
Si Si1 0.846314 0.760190 0.786779
Si Si2 0.839265 0.528001 0.063278
Si Si3 0.839653 0.724671 0.378372
Si Si4 0.343699 0.405290 0.876518
Si Si5 0.646048 0.602351 0.217658
Si Si6 0.159570 0.912994 0.479226
Si Si7 0.337489 0.283330 0.465253
O O1 0.750000 0.733560 0.750000
O O2 0.789584 0.746207 0.834194
O O3 0.844999 0.828819 0.783484
O O4 0.000000 0.736109 0.780420
O O5 0.753117 0.548018 0.102497
O O6 0.799874 0.460861 0.055274
O O7 0.000000 0.535235 0.071397
O O8 0.786893 0.567244 0.024566
O O9 0.784611 0.659336 0.384672
O O10 0.796831 0.761859 0.418791
O O11 0.000000 0.719338 0.373495
O O12 0.500000 0.410482 0.892085
O O13 0.330219 0.422446 0.828233
O O14 0.500000 0.583111 0.234546
O O15 0.750000 0.574083 0.250000
O O16 0.212966 0.849683 0.466962
O O17 0.000000 0.911415 0.482646
O O18 0.500000 0.275839 0.473462
O O19 0.250000 0.250000 0.500000
#
# Coordination Sequence:
#
# PCOD8261631 Si02
#       7
#    16  16  16  16  16  16  16
#     4   8  13  23  37  54  76 103 130 158 193 235
#     4   9  16  28  43  58  77 104 136 169 199 231
#     4   8  15  26  40  58  83 110 133 158 198 247
#     4   9  16  26  39  59  84 106 128 161 200 236
#     4   8  14  23  35  52  78 105 127 153 190 233
#     4   8  16  29  43  58  79 105 135 169 201 229
#     4  10  18  29  44  61  82 110 138 166 200 241
#
# _framework density 15.429928
#
# number of rings (size 3 to 8) (size 9 to 14) (size 15 to 20)
#    0.000    3.429    0.000    3.429    0.000    0.571 
#    0.000    5.000    0.000    0.000    0.000    1.000 
#    0.000    4.571    0.000    0.000    0.000    0.000 
#
# Total GULP energy -693774.516523 kJ/mol
# GULP energy per Si atom -12388.830652 kJ/mol
# Density = 1.539481 g / cm^3
# Si number density = 15.429928 Si / 1000 Ang^3
#
#
#
# Elastic Constant Matrix: (Units=GPa)
#
#
# Indices 1 2 3 4 5 6 
#
# 1 62.0749 31.6103 55.9487 0.0000 0.0000 0.0000
# 2 31.6103 73.9160 44.5667 0.0000 0.0000 0.0000
# 3 55.9487 44.5667 113.2254 0.0000 0.0000 0.0000
# 4 0.0000 0.0000 0.0000 17.8201 0.0000 0.0000
# 5 0.0000 0.0000 0.0000 0.0000 27.0697 0.0000
# 6 0.0000 0.0000 0.0000 0.0000 0.0000 13.3696
#
#
#
# Elastic Compliance Matrix: (Units=1/GPa)
#
#
# Indices 1 2 3 4 5 6 
#
# 1 0.030490 -0.005186 -0.013025 0.000000 0.000000 0.000000
# 2 -0.005186 0.018621 -0.004767 0.000000 0.000000 0.000000
# 3 -0.013025 -0.004767 0.017144 0.000000 0.000000 0.000000
# 4 0.000000 0.000000 0.000000 0.056116 0.000000 0.000000
# 5 0.000000 0.000000 0.000000 0.000000 0.036942 0.000000
# 6 0.000000 0.000000 0.000000 0.000000 0.000000 0.074797
#
#
# Mechanical properties :
#
#
# Convention : Reuss Voigt Hill
#
# Bulk Modulus (GPa) = 49.26180 57.05197 53.15689
# Shear Modulus (GPa) = 17.43186 19.45792 18.44489
#
# Velocity S-wave (km/s) = 3.36481 3.55498 3.46120
# Velocity P-wave (km/s) = 6.86232 7.34205 7.10623
#
# Compressibility (1/GPa) = 0.02029970
#
# Stress axis : x y z
#
# Youngs Moduli (GPa) = 32.79784 53.70376 58.32861
#
# Poissons Ratio (x) = 0.27850 0.75972
# Poissons Ratio (y) = 0.17008 0.27804
# Poissons Ratio (z) = 0.42719 0.25599
#
# Static dielectric constant tensor:
#      x y z
#    x 2.882500 0.000000 0.000000 
#    y 0.000000 3.090960 0.000000 
#    z 0.000000 0.000000 3.217220 
# 
# 
# High freq. dielectric constant tensor:
#      x y z
#    x 1.570480 0.000000 0.000000 
#    y 0.000000 1.553020 0.000000 
#    z 0.000000 0.000000 1.597790 
# 
# From -- ./inp_files/49518.got.cif
#   From: 2010.03.12/outbox.cif.g09.slc.cpg/sg64_25_cif.got.tgz:49518.got - 2010.04.10 20:19:32.
