data_PCOD8261057
_publ_section_title
;
Structure prediction by ZEFSAII (Michael W. Deem and Ramdas Pophale) SiO2 
 PCOD8261057
Probable space group: C M C M
;
_chemical_formula_sum "Si O2"
_cell_formula_units_Z 68
_cell_length_a 9.801727
_cell_length_b 16.742228
_cell_length_c 19.260088
_cell_angle_alpha 90.000000
_cell_angle_beta 90.000000
_cell_angle_gamma 90.000000
_cell_volume 3160.633372
_symmetry_space_group_name_H-M "C M C M"
_symmetry_group_IT_number 63
_symmetry_cell_setting 'orthorhombic'
loop_
_space_group_symop_operation_xyz
x,y,z
-x,-y,1/2+z
x,-y,-z
-x,y,1/2-z
-x,-y,-z
x,y,1/2-z
-x,y,z
x,-y,1/2+z
1/2+x,1/2+y,z
1/2-x,1/2-y,1/2+z
1/2+x,1/2-y,-z
1/2-x,1/2+y,1/2-z
1/2-x,1/2-y,-z
1/2+x,1/2+y,1/2-z
1/2-x,1/2+y,z
1/2+x,1/2-y,1/2+z
loop_
_atom_site_type_symbol
_atom_site_label
_atom_site_fract_x
_atom_site_fract_y
_atom_site_fract_z
Si Si1 0.349746 0.104785 0.750000
Si Si2 0.703570 0.951715 0.104777
Si Si3 0.000000 0.641355 0.250000
Si Si4 0.000000 0.818154 0.864899
Si Si5 0.500000 0.831510 0.459116
Si Si6 0.000000 0.001545 0.419423
Si Si7 0.500000 0.082832 0.405375
Si Si8 0.214030 0.776276 0.750000
O O1 0.500000 0.144136 0.750000
O O2 0.330858 0.046988 0.685666
O O3 0.254056 0.181904 0.750000
O O4 0.637554 0.873324 0.069734
O O5 0.866369 0.952212 0.101712
O O6 0.634628 0.031527 0.073147
O O7 0.000000 0.594612 0.177115
O O8 0.135631 0.691671 0.250000
O O9 0.134941 0.803577 0.819300
O O10 0.000000 0.760042 0.932646
O O11 0.000000 0.909395 0.889224
O O12 0.500000 0.838869 0.544065
O O13 0.000000 0.000000 0.500000
#
# Coordination Sequence:
#
# PCOD8261057 Si02
#       8
#     8  16   4   8   8   8   8   8
#     4  12  19  43  73  96 127 174 230 285 332 399
#     4  11  22  41  70  98 132 173 221 280 337 396
#     4  12  26  40  56 100 132 160 214 294 326 378
#     4  11  23  47  72  93 129 189 222 260 341 417
#     4  11  21  44  74  93 123 183 237 263 314 415
#     4  12  27  45  60 101 150 175 217 289 346 399
#     4  11  22  41  67  97 123 170 234 272 325 392
#     4  11  22  43  69  94 132 168 224 277 332 409
#
# _framework density 21.514675
#
# number of rings (size 3 to 8) (size 9 to 14) (size 15 to 20)
#    0.000    0.706    5.882    4.941    0.000    3.294 
#    4.235    3.529    0.000    0.000    0.000    0.000 
#    0.000    0.000    0.000    0.000    0.000    0.000 
#
# Total GULP energy -421429.359011 kJ/mol
# GULP energy per Si atom -12394.981147 kJ/mol
# Density = 2.146571 g / cm^3
# Si number density = 21.514675 Si / 1000 Ang^3
#
#
#
# Elastic Constant Matrix: (Units=GPa)
#
#
# Indices 1 2 3 4 5 6 
#
# 1 175.5061 39.1817 16.3583 0.0000 0.0000 0.0000
# 2 39.1817 76.5257 10.1164 0.0000 0.0000 0.0000
# 3 16.3583 10.1164 117.6344 0.0000 0.0000 0.0000
# 4 0.0000 0.0000 0.0000 32.7955 0.0000 0.0000
# 5 0.0000 0.0000 0.0000 0.0000 15.2717 0.0000
# 6 0.0000 0.0000 0.0000 0.0000 0.0000 22.9784
#
#
#
# Elastic Compliance Matrix: (Units=1/GPa)
#
#
# Indices 1 2 3 4 5 6 
#
# 1 0.006478 -0.003234 -0.000623 0.000000 0.000000 0.000000
# 2 -0.003234 0.014833 -0.000826 0.000000 0.000000 0.000000
# 3 -0.000623 -0.000826 0.008659 0.000000 0.000000 0.000000
# 4 0.000000 0.000000 0.000000 0.030492 0.000000 0.000000
# 5 0.000000 0.000000 0.000000 0.000000 0.065481 0.000000
# 6 0.000000 0.000000 0.000000 0.000000 0.000000 0.043519
#
#
# Mechanical properties :
#
#
# Convention : Reuss Voigt Hill
#
# Bulk Modulus (GPa) = 48.53582 55.66436 52.10009
# Shear Modulus (GPa) = 26.92595 34.47644 30.70120
#
# Velocity S-wave (km/s) = 3.54151 4.00742 3.78165
# Velocity P-wave (km/s) = 6.27148 6.88051 6.58304
#
# Compressibility (1/GPa) = 0.02060334
#
# Stress axis : x y z
#
# Youngs Moduli (GPa) = 154.37024 67.41850 115.49316
#
# Poissons Ratio (x) = 0.21806 0.07191
# Poissons Ratio (y) = 0.49930 0.09538
# Poissons Ratio (z) = 0.09612 0.05568
#
# Static dielectric constant tensor:
#      x y z
#    x 3.867810 0.000000 0.000000 
#    y 0.000000 3.495670 0.000000 
#    z 0.000000 0.000000 4.066550 
# 
# 
# High freq. dielectric constant tensor:
#      x y z
#    x 1.843780 0.000000 0.000000 
#    y 0.000000 1.827860 0.000000 
#    z 0.000000 0.000000 1.860020 
# 
# From -- ./inp_files/41984.got.cif
#   From: 2010.03.12/outbox.cif.g09.slc.cpg/sg63_21_cif.got.tgz:41984.got - 2010.04.10 19:34:48.
