data_PCOD8261769
_publ_section_title
;
Structure prediction by ZEFSAII (Michael W. Deem and Ramdas Pophale) SiO2 
 PCOD8261769
Probable space group: C M C A
;
_chemical_formula_sum "Si O2"
_cell_formula_units_Z 112
_cell_length_a 17.579214
_cell_length_b 17.712390
_cell_length_c 20.024718
_cell_angle_alpha 90.000000
_cell_angle_beta 90.000000
_cell_angle_gamma 90.000000
_cell_volume 6235.094326
_symmetry_space_group_name_H-M "C M C A"
_symmetry_group_IT_number 64
_symmetry_cell_setting 'orthorhombic'
loop_
_space_group_symop_operation_xyz
x,y,z
-x,1/2-y,1/2+z
x,-y,-z
-x,1/2+y,1/2-z
-x,-y,-z
x,1/2+y,1/2-z
-x,y,z
x,1/2-y,1/2+z
1/2+x,1/2+y,z
1/2-x,-y,1/2+z
1/2+x,1/2-y,-z
1/2-x,y,1/2-z
1/2-x,1/2-y,-z
1/2+x,y,1/2-z
1/2-x,1/2+y,z
1/2+x,-y,1/2+z
loop_
_atom_site_type_symbol
_atom_site_label
_atom_site_fract_x
_atom_site_fract_y
_atom_site_fract_z
Si Si1 0.730159 0.597940 0.680727
Si Si2 0.917467 0.568604 0.448396
Si Si3 0.308218 0.679864 0.426227
Si Si4 0.763061 0.025054 0.075075
Si Si5 0.413464 0.694522 0.677155
Si Si6 0.818906 0.250869 0.292073
Si Si7 0.639219 0.728524 0.045008
O O1 0.750000 0.553843 0.750000
O O2 0.739580 0.546041 0.617416
O O3 0.642462 0.622913 0.676066
O O4 0.787588 0.669012 0.679518
O O5 0.922842 0.500000 0.500000
O O6 0.846244 0.553941 0.398241
O O7 0.898642 0.650526 0.482062
O O8 0.000000 0.573711 0.411653
O O9 0.301394 0.589244 0.425195
O O10 0.344451 0.701337 0.354913
O O11 0.363223 0.709227 0.485553
O O12 0.226134 0.718145 0.432962
O O13 0.776252 0.000000 0.000000
O O14 0.500000 0.666538 0.684415
O O15 0.391353 0.742764 0.743093
O O16 0.406650 0.742829 0.609346
O O17 0.750000 0.212362 0.250000
#
# Coordination Sequence:
#
# PCOD8261769 Si02
#       7
#    16  16  16  16  16  16  16
#     4   9  19  36  54  77 108 138 183 225 265 325
#     4   9  19  32  46  76 114 143 173 217 280 331
#     4  10  19  31  56  83 106 138 189 229 268 310
#     4  10  20  32  54  81 106 143 183 228 269 323
#     4  10  19  35  58  79 107 145 180 224 283 333
#     4   9  18  34  54  77 106 139 182 232 264 323
#     4  10  18  31  55  80 107 143 181 230 270 328
#
# _framework density 17.96284
#
# number of rings (size 3 to 8) (size 9 to 14) (size 15 to 20)
#    0.000    2.714    2.857    1.286    6.000    0.571 
#    0.000    4.286    0.000    5.571    0.000    0.000 
#    0.000    0.000    0.000    0.000    0.000    0.000 
#
# Total GULP energy -693732.486292 kJ/mol
# GULP energy per Si atom -12388.080112 kJ/mol
# Density = 1.792196 g / cm^3
# Si number density = 17.962840 Si / 1000 Ang^3
#
#
#
# Elastic Constant Matrix: (Units=GPa)
#
#
# Indices 1 2 3 4 5 6 
#
# 1 102.9788 43.1984 39.7170 0.0000 0.0000 0.0000
# 2 43.1984 75.0142 46.5592 0.0000 0.0000 0.0000
# 3 39.7170 46.5592 112.7379 0.0000 0.0000 0.0000
# 4 0.0000 0.0000 0.0000 32.3524 0.0000 0.0000
# 5 0.0000 0.0000 0.0000 0.0000 14.0423 0.0000
# 6 0.0000 0.0000 0.0000 0.0000 0.0000 13.7779
#
#
#
# Elastic Compliance Matrix: (Units=1/GPa)
#
#
# Indices 1 2 3 4 5 6 
#
# 1 0.013138 -0.006311 -0.002022 0.000000 0.000000 0.000000
# 2 -0.006311 0.020957 -0.006432 0.000000 0.000000 0.000000
# 3 -0.002022 -0.006432 0.012239 0.000000 0.000000 0.000000
# 4 0.000000 0.000000 0.000000 0.030910 0.000000 0.000000
# 5 0.000000 0.000000 0.000000 0.000000 0.071213 0.000000
# 6 0.000000 0.000000 0.000000 0.000000 0.000000 0.072580
#
#
# Mechanical properties :
#
#
# Convention : Reuss Voigt Hill
#
# Bulk Modulus (GPa) = 59.50794 61.07556 60.29175
# Shear Modulus (GPa) = 19.51849 22.78492 21.15171
#
# Velocity S-wave (km/s) = 3.29994 3.56539 3.43523
# Velocity P-wave (km/s) = 6.90795 7.14312 7.02652
#
# Compressibility (1/GPa) = 0.01680448
#
# Stress axis : x y z
#
# Youngs Moduli (GPa) = 76.11566 47.71705 81.70765
#
# Poissons Ratio (x) = 0.30112 0.16523
# Poissons Ratio (y) = 0.48033 0.52552
# Poissons Ratio (z) = 0.15392 0.30690
#
# Static dielectric constant tensor:
#      x y z
#    x 3.327600 0.000000 0.000000 
#    y 0.000000 3.220930 0.000000 
#    z 0.000000 0.000000 3.317340 
# 
# 
# High freq. dielectric constant tensor:
#      x y z
#    x 1.674220 0.000000 0.000000 
#    y 0.000000 1.681840 0.000000 
#    z 0.000000 0.000000 1.686160 
# 
# From -- ./inp_files/40369.got.cif
#   From: 2010.03.12/outbox.cif.g09.slc.cpg/sg64_21_cif.got.tgz:40369.got - 2010.04.10 20:19:32.
