data_PCOD8261234
_publ_section_title
;
Structure prediction by ZEFSAII (Michael W. Deem and Ramdas Pophale) SiO2 
 PCOD8261234
Probable space group: C M C M
;
_chemical_formula_sum "Si O2"
_cell_formula_units_Z 88
_cell_length_a 14.054991
_cell_length_b 22.971938
_cell_length_c 12.993424
_cell_angle_alpha 90.000000
_cell_angle_beta 90.000000
_cell_angle_gamma 90.000000
_cell_volume 4195.191768
_symmetry_space_group_name_H-M "C M C M"
_symmetry_group_IT_number 63
_symmetry_cell_setting 'orthorhombic'
loop_
_space_group_symop_operation_xyz
x,y,z
-x,-y,1/2+z
x,-y,-z
-x,y,1/2-z
-x,-y,-z
x,y,1/2-z
-x,y,z
x,-y,1/2+z
1/2+x,1/2+y,z
1/2-x,1/2-y,1/2+z
1/2+x,1/2-y,-z
1/2-x,1/2+y,1/2-z
1/2-x,1/2-y,-z
1/2+x,1/2+y,1/2-z
1/2-x,1/2+y,z
1/2+x,1/2-y,1/2+z
loop_
_atom_site_type_symbol
_atom_site_label
_atom_site_fract_x
_atom_site_fract_y
_atom_site_fract_z
Si Si1 0.855583 0.267090 0.028354
Si Si2 0.112918 0.000371 0.250000
Si Si3 0.275456 0.445481 0.569803
Si Si4 0.396177 0.648302 0.547791
Si Si5 0.608903 0.180170 0.750000
Si Si6 0.106326 0.632352 0.134763
Si Si7 0.802149 0.127228 0.750000
O O1 0.872109 0.282343 0.147625
O O2 0.750000 0.250000 0.000000
O O3 0.915644 0.208548 0.011063
O O4 0.886523 0.318669 0.952717
O O5 0.165395 0.939011 0.250000
O O6 0.000000 0.992631 0.250000
O O7 0.145343 0.036017 0.151267
O O8 0.246475 0.500000 0.500000
O O9 0.323726 0.394353 0.506992
O O10 0.178873 0.420904 0.618616
O O11 0.500000 0.618309 0.563060
O O12 0.345381 0.662647 0.655054
O O13 0.500000 0.156283 0.750000
O O14 0.686403 0.127931 0.750000
O O15 0.124336 0.658443 0.250000
O O16 0.000000 0.606133 0.128179
#
# Coordination Sequence:
#
# PCOD8261234 Si02
#       7
#    16   8  16  16   8  16   8
#     4  12  25  45  71 104 142 183 230 288 352 419
#     4  12  26  45  68  97 138 181 231 286 345 410
#     4  12  25  44  69  99 136 181 234 287 344 410
#     4  12  25  42  68 100 136 179 228 281 349 418
#     4  12  26  47  70 102 146 186 234 292 352 421
#     4  11  25  47  72 102 142 186 234 291 353 418
#     4  12  24  42  66  99 136 181 227 286 345 411
#
# _framework density 20.976395
#
# number of rings (size 3 to 8) (size 9 to 14) (size 15 to 20)
#    0.000    0.182    6.364    3.000    2.545    1.818 
#    0.000    2.727    0.000    0.000    0.000    0.000 
#    0.000    0.000    0.000    0.000    0.000    0.000 
#
# Total GULP energy -545474.063784 kJ/mol
# GULP energy per Si atom -12397.137813 kJ/mol
# Density = 2.092865 g / cm^3
# Si number density = 20.976395 Si / 1000 Ang^3
#
#
#
# Elastic Constant Matrix: (Units=GPa)
#
#
# Indices 1 2 3 4 5 6 
#
# 1 190.9557 44.0094 53.9562 0.0000 0.0000 0.0000
# 2 44.0094 112.9417 57.9238 0.0000 0.0000 0.0000
# 3 53.9562 57.9238 173.6039 0.0000 0.0000 0.0000
# 4 0.0000 0.0000 0.0000 3.1536 0.0000 0.0000
# 5 0.0000 0.0000 0.0000 0.0000 26.9503 0.0000
# 6 0.0000 0.0000 0.0000 0.0000 0.0000 31.5303
#
#
#
# Elastic Compliance Matrix: (Units=1/GPa)
#
#
# Indices 1 2 3 4 5 6 
#
# 1 0.005989 -0.001664 -0.001306 0.000000 0.000000 0.000000
# 2 -0.001664 0.011144 -0.003201 0.000000 0.000000 0.000000
# 3 -0.001306 -0.003201 0.007234 0.000000 0.000000 0.000000
# 4 0.000000 0.000000 0.000000 0.317099 0.000000 0.000000
# 5 0.000000 0.000000 0.000000 0.000000 0.037105 0.000000
# 6 0.000000 0.000000 0.000000 0.000000 0.000000 0.031716
#
#
# Mechanical properties :
#
#
# Convention : Reuss Voigt Hill
#
# Bulk Modulus (GPa) = 83.15901 87.69779 85.42840
# Shear Modulus (GPa) = 11.71950 33.76763 22.74357
#
# Velocity S-wave (km/s) = 2.36625 4.01657 3.29636
# Velocity P-wave (km/s) = 6.86991 7.96298 7.43656
#
# Compressibility (1/GPa) = 0.01202515
#
# Stress axis : x y z
#
# Youngs Moduli (GPa) = 166.96138 89.73229 138.22935
#
# Poissons Ratio (x) = 0.14930 0.18058
# Poissons Ratio (y) = 0.27780 0.44250
# Poissons Ratio (z) = 0.21811 0.28725
#
# Static dielectric constant tensor:
#      x y z
#    x 4.099730 0.000000 0.000000 
#    y 0.000000 3.813660 0.000000 
#    z 0.000000 0.000000 4.177520 
# 
# 
# High freq. dielectric constant tensor:
#      x y z
#    x 1.846460 0.000000 0.000000 
#    y 0.000000 1.807740 0.000000 
#    z 0.000000 0.000000 1.841660 
# 
# From -- ./inp_files/19545.got.cif
#   From: 2010.03.12/outbox.cif.g09.slc.cpg/sg63_10_cif.got.tgz:19545.got - 2010.04.10 19:34:48.
