data_PCOD8261448
_publ_section_title
;
Structure prediction by ZEFSAII (Michael W. Deem and Ramdas Pophale) SiO2 
 PCOD8261448
Probable space group: C M C A
;
_chemical_formula_sum "Si O2"
_cell_formula_units_Z 80
_cell_length_a 16.236977
_cell_length_b 8.840469
_cell_length_c 23.943923
_cell_angle_alpha 90.000000
_cell_angle_beta 90.000000
_cell_angle_gamma 90.000000
_cell_volume 3436.970371
_symmetry_space_group_name_H-M "C M C A"
_symmetry_group_IT_number 64
_symmetry_cell_setting 'orthorhombic'
loop_
_space_group_symop_operation_xyz
x,y,z
-x,1/2-y,1/2+z
x,-y,-z
-x,1/2+y,1/2-z
-x,-y,-z
x,1/2+y,1/2-z
-x,y,z
x,1/2-y,1/2+z
1/2+x,1/2+y,z
1/2-x,-y,1/2+z
1/2+x,1/2-y,-z
1/2-x,y,1/2-z
1/2-x,1/2-y,-z
1/2+x,y,1/2-z
1/2-x,1/2+y,z
1/2+x,-y,1/2+z
loop_
_atom_site_type_symbol
_atom_site_label
_atom_site_fract_x
_atom_site_fract_y
_atom_site_fract_z
Si Si1 0.250000 0.166418 0.750000
Si Si2 0.000000 0.799219 0.556715
Si Si3 0.500000 0.043763 0.647368
Si Si4 0.731417 0.500000 0.000000
Si Si5 0.863346 0.276031 0.036345
Si Si6 0.140196 0.920856 0.793801
Si Si7 0.000000 0.965980 0.266184
Si Si8 0.000000 0.380270 0.113034
O O1 0.202557 0.062355 0.794364
O O2 0.189503 0.264596 0.710540
O O3 0.081793 0.804016 0.519173
O O4 0.000000 0.646894 0.593084
O O5 0.000000 0.942824 0.597235
O O6 0.417919 0.935235 0.650361
O O7 0.500000 0.134868 0.707551
O O8 0.788301 0.394832 0.039011
O O9 0.672989 0.606525 0.037679
O O10 0.919063 0.297909 0.090443
O O11 0.082981 0.932032 0.737457
O O12 0.000000 0.859336 0.320138
#
# Coordination Sequence:
#
# PCOD8261448 Si02
#       8
#     8   8   8   8  16  16   8   8
#     4  10  16  36  54  78 112 142 196 248 292 348
#     4  11  20  38  65  93 121 166 213 250 310 373
#     4   8  21  38  57  85 113 166 203 248 283 364
#     4  10  20  42  62  94 136 150 204 260 320 372
#     4  10  21  40  67  95 123 163 203 260 311 376
#     4   8  20  34  56  76 108 152 192 246 290 344
#     4   8  21  38  57  85 113 166 203 248 283 364
#     4  11  20  38  65  93 121 166 213 250 310 373
#
# _framework density 23.276315
#
# number of rings (size 3 to 8) (size 9 to 14) (size 15 to 20)
#    1.200    1.200    2.000    0.600    2.800    4.000 
#    0.000   16.000    0.000    0.000    0.000    0.000 
#    0.000    0.000    0.000    0.000    0.000    0.000 
#
# Total GULP energy -495525.624560 kJ/mol
# GULP energy per Si atom -12388.140614 kJ/mol
# Density = 2.322334 g / cm^3
# Si number density = 23.276315 Si / 1000 Ang^3
#
#
#
# Elastic Constant Matrix: (Units=GPa)
#
#
# Indices 1 2 3 4 5 6 
#
# 1 123.4993 37.1198 5.9237 0.0000 0.0000 0.0000
# 2 37.1198 110.9061 0.2533 0.0000 0.0000 0.0000
# 3 5.9237 0.2533 83.2175 0.0000 0.0000 0.0000
# 4 0.0000 0.0000 0.0000 12.6844 0.0000 0.0000
# 5 0.0000 0.0000 0.0000 0.0000 -28.1343 0.0000
# 6 0.0000 0.0000 0.0000 0.0000 0.0000 61.0125
#
#
#
# Elastic Compliance Matrix: (Units=1/GPa)
#
#
# Indices 1 2 3 4 5 6 
#
# 1 0.009036 -0.003023 -0.000634 0.000000 0.000000 0.000000
# 2 -0.003023 0.010028 0.000185 0.000000 0.000000 0.000000
# 3 -0.000634 0.000185 0.012061 0.000000 0.000000 0.000000
# 4 0.000000 0.000000 0.000000 0.078837 0.000000 0.000000
# 5 0.000000 0.000000 0.000000 0.000000 -0.035544 0.000000
# 6 0.000000 0.000000 0.000000 0.000000 0.000000 0.016390
#
#
# Mechanical properties :
#
#
# Convention : Reuss Voigt Hill
#
# Bulk Modulus (GPa) = 41.35503 44.91296 43.13400
# Shear Modulus (GPa) = 47.25287 27.40094 37.32691
#
# Velocity S-wave (km/s) = 4.51053 3.43476 4.00890
# Velocity P-wave (km/s) = 6.70314 5.92179 6.32454
#
# Compressibility (1/GPa) = 0.02418086
#
# Stress axis : x y z
#
# Youngs Moduli (GPa) = 110.66580 99.72102 82.90999
#
# Poissons Ratio (x) = 0.30145 0.05257
# Poissons Ratio (y) = 0.33454 -0.01531
# Poissons Ratio (z) = 0.07017 -0.01841
#
# Static dielectric constant tensor:
#      x y z
#    x 4.563320 0.000000 0.000000 
#    y 0.000000 4.058720 0.000000 
#    z 0.000000 0.000000 3.557040 
# 
# 
# High freq. dielectric constant tensor:
#      x y z
#    x 1.943020 0.000000 0.000000 
#    y 0.000000 1.925930 0.000000 
#    z 0.000000 0.000000 1.873990 
# 
# From -- ./inp_files/50356.got.cif
#   From: 2010.03.12/outbox.cif.g09.slc.cpg/sg64_26_cif.got.tgz:50356.got - 2010.04.10 20:19:32.
