data_PCOD8261339
_publ_section_title
;
Structure prediction by ZEFSAII (Michael W. Deem and Ramdas Pophale) SiO2 
 PCOD8261339
Probable space group: C M C M
;
_chemical_formula_sum "Si O2"
_cell_formula_units_Z 96
_cell_length_a 9.309489
_cell_length_b 30.481779
_cell_length_c 19.330073
_cell_angle_alpha 90.000000
_cell_angle_beta 90.000000
_cell_angle_gamma 90.000000
_cell_volume 5485.290684
_symmetry_space_group_name_H-M "C M C M"
_symmetry_group_IT_number 63
_symmetry_cell_setting 'orthorhombic'
loop_
_space_group_symop_operation_xyz
x,y,z
-x,-y,1/2+z
x,-y,-z
-x,y,1/2-z
-x,-y,-z
x,y,1/2-z
-x,y,z
x,-y,1/2+z
1/2+x,1/2+y,z
1/2-x,1/2-y,1/2+z
1/2+x,1/2-y,-z
1/2-x,1/2+y,1/2-z
1/2-x,1/2-y,-z
1/2+x,1/2+y,1/2-z
1/2-x,1/2+y,z
1/2+x,1/2-y,1/2+z
loop_
_atom_site_type_symbol
_atom_site_label
_atom_site_fract_x
_atom_site_fract_y
_atom_site_fract_z
Si Si1 0.671268 0.946526 0.672440
Si Si2 0.328972 0.020597 0.928994
Si Si3 0.168408 0.690907 0.829235
Si Si4 0.332930 0.221991 0.329929
Si Si5 0.829086 0.381398 0.435929
Si Si6 0.329069 0.862825 0.589159
O O1 0.733708 0.946458 0.750000
O O2 0.500000 0.944958 0.673541
O O3 0.731892 0.904292 0.631739
O O4 0.724917 0.990784 0.634657
O O5 0.500000 0.021456 0.931951
O O6 0.268937 0.069930 0.919833
O O7 0.268958 0.000000 0.000000
O O8 0.205211 0.679046 0.750000
O O9 0.247193 0.735016 0.852932
O O10 0.227064 0.651376 0.876663
O O11 0.000000 0.698461 0.839921
O O12 0.304644 0.210273 0.250000
O O13 0.500000 0.230752 0.343873
O O14 0.273413 0.181831 0.375685
O O15 0.772117 0.365195 0.510547
O O16 0.000000 0.382459 0.436328
O O17 0.500000 0.864186 0.591243
#
# Coordination Sequence:
#
# PCOD8261339 Si02
#       6
#    16  16  16  16  16  16
#     4   9  15  21  32  52  77 105 137 173 211 252
#     4   9  14  22  34  50  76 109 140 167 201 250
#     4   9  18  31  44  60  85 115 145 176 210 251
#     4   9  17  29  45  63  84 111 142 178 217 252
#     4   9  16  25  39  56  79 112 143 171 208 252
#     4   9  15  24  38  57  80 106 137 174 214 254
#
# _framework density 17.501352000000001
#
# number of rings (size 3 to 8) (size 9 to 14) (size 15 to 20)
#    0.000    3.000    1.667    0.500    0.000    3.333 
#    0.000    3.333    0.000    0.000    0.000    0.000 
#    0.000    2.000    0.000    9.000    0.000    9.000 
#
# Total GULP energy -595062.308759 kJ/mol
# GULP energy per Si atom -12397.131432 kJ/mol
# Density = 1.746152 g / cm^3
# Si number density = 17.501352 Si / 1000 Ang^3
#
#
#
# Elastic Constant Matrix: (Units=GPa)
#
#
# Indices 1 2 3 4 5 6 
#
# 1 9.2839 21.6975 13.8708 0.0000 0.0000 0.0000
# 2 21.6975 196.7181 106.0513 0.0000 0.0000 0.0000
# 3 13.8708 106.0513 145.0487 0.0000 0.0000 0.0000
# 4 0.0000 0.0000 0.0000 42.0788 0.0000 0.0000
# 5 0.0000 0.0000 0.0000 0.0000 7.7620 0.0000
# 6 0.0000 0.0000 0.0000 0.0000 0.0000 16.6146
#
#
#
# Elastic Compliance Matrix: (Units=1/GPa)
#
#
# Indices 1 2 3 4 5 6 
#
# 1 0.146264 -0.014182 -0.003618 0.000000 0.000000 0.000000
# 2 -0.014182 0.009766 -0.005784 0.000000 0.000000 0.000000
# 3 -0.003618 -0.005784 0.011469 0.000000 0.000000 0.000000
# 4 0.000000 0.000000 0.000000 0.023765 0.000000 0.000000
# 5 0.000000 0.000000 0.000000 0.000000 0.128833 0.000000
# 6 0.000000 0.000000 0.000000 0.000000 0.000000 0.060188
#
#
# Mechanical properties :
#
#
# Convention : Reuss Voigt Hill
#
# Bulk Modulus (GPa) = 8.31041 70.47666 39.39354
# Shear Modulus (GPa) = 10.69374 27.25316 18.97345
#
# Velocity S-wave (km/s) = 2.47457 3.95042 3.29616
# Velocity P-wave (km/s) = 3.59491 7.82077 6.08637
#
# Compressibility (1/GPa) = 0.12033103
#
# Stress axis : x y z
#
# Youngs Moduli (GPa) = 6.83695 102.39769 87.19052
#
# Poissons Ratio (x) = 1.45222 0.31544
# Poissons Ratio (y) = 0.09696 0.50431
# Poissons Ratio (z) = 0.02473 0.59227
#
# Static dielectric constant tensor:
#      x y z
#    x 2.522520 0.000000 0.000000 
#    y 0.000000 3.520350 0.000000 
#    z 0.000000 0.000000 3.450280 
# 
# 
# High freq. dielectric constant tensor:
#      x y z
#    x 1.591490 0.000000 0.000000 
#    y 0.000000 1.691330 0.000000 
#    z 0.000000 0.000000 1.685320 
# 
# From -- ./inp_files/42679.got.cif
#   From: 2010.03.12/outbox.cif.g09.slc.cpg/sg63_22_cif.got.tgz:42679.got - 2010.04.10 19:34:48.
