data_PCOD8261569
_publ_section_title
;
Structure prediction by ZEFSAII (Michael W. Deem and Ramdas Pophale) SiO2 
 PCOD8261569
Probable space group: C M C A
;
_chemical_formula_sum "Si O2"
_cell_formula_units_Z 72
_cell_length_a 15.052165
_cell_length_b 16.494976
_cell_length_c 15.366307
_cell_angle_alpha 90.000000
_cell_angle_beta 90.000000
_cell_angle_gamma 90.000000
_cell_volume 3815.225077
_symmetry_space_group_name_H-M "C M C A"
_symmetry_group_IT_number 64
_symmetry_cell_setting 'orthorhombic'
loop_
_space_group_symop_operation_xyz
x,y,z
-x,1/2-y,1/2+z
x,-y,-z
-x,1/2+y,1/2-z
-x,-y,-z
x,1/2+y,1/2-z
-x,y,z
x,1/2-y,1/2+z
1/2+x,1/2+y,z
1/2-x,-y,1/2+z
1/2+x,1/2-y,-z
1/2-x,y,1/2-z
1/2-x,1/2-y,-z
1/2+x,y,1/2-z
1/2-x,1/2+y,z
1/2+x,-y,1/2+z
loop_
_atom_site_type_symbol
_atom_site_label
_atom_site_fract_x
_atom_site_fract_y
_atom_site_fract_z
Si Si1 0.000000 0.186860 0.586753
Si Si2 0.355304 0.552863 0.583139
Si Si3 0.851701 0.452127 0.746545
Si Si4 0.651517 0.558352 0.920197
Si Si5 0.500000 0.838807 0.484929
Si Si6 0.500000 0.155436 0.320603
O O1 0.087863 0.133704 0.588150
O O2 0.000000 0.241396 0.498417
O O3 0.000000 0.246351 0.671648
O O4 0.381517 0.500000 0.500000
O O5 0.377170 0.496080 0.664569
O O6 0.254297 0.584379 0.579238
O O7 0.750000 0.422215 0.750000
O O8 0.870849 0.515752 0.670312
O O9 0.912706 0.373464 0.731699
O O10 0.588249 0.636386 0.931294
O O11 0.630398 0.500000 0.000000
O O12 0.500000 0.881247 0.580971
#
# Coordination Sequence:
#
# PCOD8261569 Si02
#       6
#     8  16  16  16   8   8
#     4  10  22  39  54  84 117 156 195 237 285 345
#     4  10  22  38  59  79 121 159 195 232 280 351
#     4  10  20  36  61  90 111 149 195 237 293 341
#     4  10  17  34  60  90 111 144 194 245 285 341
#     4  10  20  33  61  86 116 147 183 249 300 321
#     4  10  20  37  61  82 119 145 183 250 287 338
#
# _framework density 18.871756000000001
#
# number of rings (size 3 to 8) (size 9 to 14) (size 15 to 20)
#    0.667    1.333    2.222    2.000    0.000    0.889 
#    0.000    7.778    0.000    0.000    0.000    0.000 
#    0.000    0.000    0.000    0.000    0.000    0.000 
#
# Total GULP energy -446318.660776 kJ/mol
# GULP energy per Si atom -12397.740577 kJ/mol
# Density = 1.882880 g / cm^3
# Si number density = 18.871756 Si / 1000 Ang^3
#
#
#
# Elastic Constant Matrix: (Units=GPa)
#
#
# Indices 1 2 3 4 5 6 
#
# 1 132.2322 85.0143 43.1515 0.0000 0.0000 0.0000
# 2 85.0143 132.0430 51.7232 0.0000 0.0000 0.0000
# 3 43.1515 51.7232 127.9435 0.0000 0.0000 0.0000
# 4 0.0000 0.0000 0.0000 23.5393 0.0000 0.0000
# 5 0.0000 0.0000 0.0000 0.0000 -15.6889 0.0000
# 6 0.0000 0.0000 0.0000 0.0000 0.0000 1.5619
#
#
#
# Elastic Compliance Matrix: (Units=1/GPa)
#
#
# Indices 1 2 3 4 5 6 
#
# 1 0.013056 -0.007938 -0.001194 0.000000 0.000000 0.000000
# 2 -0.007938 0.013825 -0.002912 0.000000 0.000000 0.000000
# 3 -0.001194 -0.002912 0.009396 0.000000 0.000000 0.000000
# 4 0.000000 0.000000 0.000000 0.042482 0.000000 0.000000
# 5 0.000000 0.000000 0.000000 0.000000 -0.063739 0.000000
# 6 0.000000 0.000000 0.000000 0.000000 0.000000 0.640239
#
#
# Mechanical properties :
#
#
# Convention : Reuss Voigt Hill
#
# Bulk Modulus (GPa) = 82.04466 83.55521 82.79993
# Shear Modulus (GPa) = 7.31627 16.03776 11.67702
#
# Velocity S-wave (km/s) = 1.97110 2.91835 2.49018
# Velocity P-wave (km/s) = 6.98209 7.46505 7.22761
#
# Compressibility (1/GPa) = 0.01218848
#
# Stress axis : x y z
#
# Youngs Moduli (GPa) = 76.59568 72.33533 106.43082
#
# Poissons Ratio (x) = 0.57419 0.12710
# Poissons Ratio (y) = 0.60801 0.30988
# Poissons Ratio (z) = 0.09147 0.21061
#
# Static dielectric constant tensor:
#      x y z
#    x 3.575630 0.000000 0.000000 
#    y 0.000000 3.087550 0.000000 
#    z 0.000000 0.000000 3.565220 
# 
# 
# High freq. dielectric constant tensor:
#      x y z
#    x 1.748720 0.000000 0.000000 
#    y 0.000000 1.702910 0.000000 
#    z 0.000000 0.000000 1.736990 
# 
# From -- ./inp_files/23570.got.cif
#   From: 2010.03.12/outbox.cif.g09.slc.cpg/sg64_12_cif.got.tgz:23570.got - 2010.04.10 20:19:32.
