data_PCOD8261914
_publ_section_title
;
Structure prediction by ZEFSAII (Michael W. Deem and Ramdas Pophale) SiO2 
 PCOD8261914
Probable space group: C M C A
;
_chemical_formula_sum "Si O2"
_cell_formula_units_Z 96
_cell_length_a 16.253599
_cell_length_b 17.793823
_cell_length_c 18.444755
_cell_angle_alpha 90.000000
_cell_angle_beta 90.000000
_cell_angle_gamma 90.000000
_cell_volume 5334.475170
_symmetry_space_group_name_H-M "C M C A"
_symmetry_group_IT_number 64
_symmetry_cell_setting 'orthorhombic'
loop_
_space_group_symop_operation_xyz
x,y,z
-x,1/2-y,1/2+z
x,-y,-z
-x,1/2+y,1/2-z
-x,-y,-z
x,1/2+y,1/2-z
-x,y,z
x,1/2-y,1/2+z
1/2+x,1/2+y,z
1/2-x,-y,1/2+z
1/2+x,1/2-y,-z
1/2-x,y,1/2-z
1/2-x,1/2-y,-z
1/2+x,y,1/2-z
1/2-x,1/2+y,z
1/2+x,-y,1/2+z
loop_
_atom_site_type_symbol
_atom_site_label
_atom_site_fract_x
_atom_site_fract_y
_atom_site_fract_z
Si Si1 0.907005 0.732654 0.544898
Si Si2 0.318412 0.775570 0.099436
Si Si3 0.904979 0.325820 0.692666
Si Si4 0.798322 0.899725 0.068063
Si Si5 0.296823 0.064787 0.399135
Si Si6 0.171265 0.830126 0.651070
O O1 0.843853 0.748709 0.480289
O O2 0.875278 0.656035 0.583542
O O3 0.905088 0.802944 0.601212
O O4 0.000000 0.722180 0.517035
O O5 0.393454 0.756912 0.154856
O O6 0.287937 0.861627 0.095020
O O7 0.244780 0.725944 0.131003
O O8 0.871638 0.390739 0.638955
O O9 0.852867 0.327915 0.765685
O O10 0.000000 0.340617 0.709156
O O11 0.810475 0.975965 0.113616
O O12 0.795181 0.916803 0.983502
O O13 0.206833 0.086946 0.366753
#
# Coordination Sequence:
#
# PCOD8261914 Si02
#       6
#    16  16  16  16  16  16
#     4  11  19  32  56  85 113 139 175 233 282 314
#     4  10  18  35  56  81 106 140 186 226 265 318
#     4  11  22  35  55  83 111 143 181 225 276 326
#     4  10  19  33  56  82 108 136 181 226 272 319
#     4  10  19  34  55  79 108 144 179 219 265 330
#     4  10  19  37  54  75 109 151 187 212 260 332
#
# _framework density 17.996147000000001
#
# number of rings (size 3 to 8) (size 9 to 14) (size 15 to 20)
#    0.000    1.667    5.000    4.000    0.000    0.667 
#    0.000    8.333    0.000    9.000    0.000    0.000 
#    0.000    0.000    0.000    0.000    0.000    0.000 
#
# Total GULP energy -594740.870018 kJ/mol
# GULP energy per Si atom -12390.434792 kJ/mol
# Density = 1.795519 g / cm^3
# Si number density = 17.996147 Si / 1000 Ang^3
#
#
#
# Elastic Constant Matrix: (Units=GPa)
#
#
# Indices 1 2 3 4 5 6 
#
# 1 91.0922 52.7282 27.7470 0.0000 0.0000 0.0000
# 2 52.7282 77.5725 27.2600 0.0000 0.0000 0.0000
# 3 27.7470 27.2600 88.0115 0.0000 0.0000 0.0000
# 4 0.0000 0.0000 0.0000 16.3624 0.0000 0.0000
# 5 0.0000 0.0000 0.0000 0.0000 24.5751 0.0000
# 6 0.0000 0.0000 0.0000 0.0000 0.0000 15.4356
#
#
#
# Elastic Compliance Matrix: (Units=1/GPa)
#
#
# Indices 1 2 3 4 5 6 
#
# 1 0.018461 -0.011786 -0.002170 0.000000 0.000000 0.000000
# 2 -0.011786 0.021990 -0.003095 0.000000 0.000000 0.000000
# 3 -0.002170 -0.003095 0.013005 0.000000 0.000000 0.000000
# 4 0.000000 0.000000 0.000000 0.061116 0.000000 0.000000
# 5 0.000000 0.000000 0.000000 0.000000 0.040692 0.000000
# 6 0.000000 0.000000 0.000000 0.000000 0.000000 0.064785
#
#
# Mechanical properties :
#
#
# Convention : Reuss Voigt Hill
#
# Bulk Modulus (GPa) = 51.66858 52.46075 52.06467
# Shear Modulus (GPa) = 19.18634 21.20403 20.19518
#
# Velocity S-wave (km/s) = 3.26872 3.43629 3.35355
# Velocity P-wave (km/s) = 6.55891 6.70511 6.63241
#
# Compressibility (1/GPa) = 0.01935412
#
# Stress axis : x y z
#
# Youngs Moduli (GPa) = 54.16808 45.47471 76.89422
#
# Poissons Ratio (x) = 0.53597 0.16683
# Poissons Ratio (y) = 0.63843 0.23801
# Poissons Ratio (z) = 0.11752 0.14076
#
# Static dielectric constant tensor:
#      x y z
#    x 3.445070 0.000000 0.000000 
#    y 0.000000 3.731190 0.000000 
#    z 0.000000 0.000000 3.396560 
# 
# 
# High freq. dielectric constant tensor:
#      x y z
#    x 1.686580 0.000000 0.000000 
#    y 0.000000 1.678930 0.000000 
#    z 0.000000 0.000000 1.697770 
# 
# From -- ./inp_files/33316.got.cif
#   From: 2010.03.12/outbox.cif.g09.slc.cpg/sg64_17_cif.got.tgz:33316.got - 2010.04.10 20:19:32.
