data_PCOD8261979
_publ_section_title
;
Structure prediction by ZEFSAII (Michael W. Deem and Ramdas Pophale) SiO2 
 PCOD8261979
Probable space group: C M C A
;
_chemical_formula_sum "Si O2"
_cell_formula_units_Z 96
_cell_length_a 9.604009
_cell_length_b 19.189853
_cell_length_c 30.424896
_cell_angle_alpha 90.000000
_cell_angle_beta 90.000000
_cell_angle_gamma 90.000000
_cell_volume 5607.293757
_symmetry_space_group_name_H-M "C M C A"
_symmetry_group_IT_number 64
_symmetry_cell_setting 'orthorhombic'
loop_
_space_group_symop_operation_xyz
x,y,z
-x,1/2-y,1/2+z
x,-y,-z
-x,1/2+y,1/2-z
-x,-y,-z
x,1/2+y,1/2-z
-x,y,z
x,1/2-y,1/2+z
1/2+x,1/2+y,z
1/2-x,-y,1/2+z
1/2+x,1/2-y,-z
1/2-x,y,1/2-z
1/2-x,1/2-y,-z
1/2+x,y,1/2-z
1/2-x,1/2+y,z
1/2+x,-y,1/2+z
loop_
_atom_site_type_symbol
_atom_site_label
_atom_site_fract_x
_atom_site_fract_y
_atom_site_fract_z
Si Si1 0.836559 0.598981 0.612375
Si Si2 0.841603 0.026530 0.362514
Si Si3 0.665055 0.247009 0.132023
Si Si4 0.661953 0.636900 0.436936
Si Si5 0.662039 0.645156 0.293788
Si Si6 0.661939 0.921465 0.488604
O O1 0.758479 0.539970 0.640030
O O2 0.783971 0.673485 0.630487
O O3 0.797804 0.594339 0.561325
O O4 0.000000 0.588573 0.619877
O O5 0.811320 0.069505 0.406717
O O6 0.812208 0.073808 0.320107
O O7 0.000000 0.999990 0.362374
O O8 0.500000 0.241149 0.130897
O O9 0.717547 0.204988 0.089071
O O10 0.716759 0.210087 0.176754
O O11 0.500000 0.643526 0.449444
O O12 0.750458 0.631062 0.481291
O O13 0.500000 0.653923 0.282006
O O14 0.750000 0.643217 0.250000
O O15 0.500000 0.907975 0.497870
O O16 0.704522 0.000000 0.500000
#
# Coordination Sequence:
#
# PCOD8261979 Si02
#       6
#    16  16  16  16  16  16
#     4  10  19  32  50  70  99 136 166 198 245 292
#     4   9  18  32  50  72  98 124 157 201 240 281
#     4   8  17  34  52  71  97 130 164 198 243 294
#     4   9  17  31  50  68  91 130 172 203 235 282
#     4   9  18  35  57  77  96 121 157 199 241 293
#     4  10  19  29  43  70 103 131 166 210 246 279
#
# _framework density 17.120557999999999
#
# number of rings (size 3 to 8) (size 9 to 14) (size 15 to 20)
#    0.000    2.833    1.667    2.000    0.000    2.333 
#    0.000    5.000    0.000    4.000    0.000    0.000 
#    0.000    0.000    0.000    0.000    0.000    0.000 
#
# Total GULP energy -595153.948096 kJ/mol
# GULP energy per Si atom -12399.040585 kJ/mol
# Density = 1.708159 g / cm^3
# Si number density = 17.120558 Si / 1000 Ang^3
#
#
#
# Elastic Constant Matrix: (Units=GPa)
#
#
# Indices 1 2 3 4 5 6 
#
# 1 52.7093 50.3196 47.6816 0.0000 0.0000 0.0000
# 2 50.3196 127.6626 55.7815 0.0000 0.0000 0.0000
# 3 47.6816 55.7815 102.9055 0.0000 0.0000 0.0000
# 4 0.0000 0.0000 0.0000 18.7737 0.0000 0.0000
# 5 0.0000 0.0000 0.0000 0.0000 32.6609 0.0000
# 6 0.0000 0.0000 0.0000 0.0000 0.0000 23.1162
#
#
#
# Elastic Compliance Matrix: (Units=1/GPa)
#
#
# Indices 1 2 3 4 5 6 
#
# 1 0.040869 -0.010266 -0.013372 0.000000 0.000000 0.000000
# 2 -0.010266 0.012843 -0.002205 0.000000 0.000000 0.000000
# 3 -0.013372 -0.002205 0.017109 0.000000 0.000000 0.000000
# 4 0.000000 0.000000 0.000000 0.053266 0.000000 0.000000
# 5 0.000000 0.000000 0.000000 0.000000 0.030618 0.000000
# 6 0.000000 0.000000 0.000000 0.000000 0.000000 0.043260
#
#
# Mechanical properties :
#
#
# Convention : Reuss Voigt Hill
#
# Bulk Modulus (GPa) = 52.26036 65.64923 58.95480
# Shear Modulus (GPa) = 19.52903 23.54314 21.53609
#
# Velocity S-wave (km/s) = 3.38106 3.71231 3.55055
# Velocity P-wave (km/s) = 6.77002 7.53681 7.16368
#
# Compressibility (1/GPa) = 0.01913496
#
# Stress axis : x y z
#
# Youngs Moduli (GPa) = 24.46828 77.86257 58.44948
#
# Poissons Ratio (x) = 0.79936 0.78158
# Poissons Ratio (y) = 0.25120 0.12888
# Poissons Ratio (z) = 0.32719 0.17168
#
# Static dielectric constant tensor:
#      x y z
#    x 2.966590 0.000000 0.000000 
#    y 0.000000 3.325810 0.000000 
#    z 0.000000 0.000000 3.063410 
# 
# 
# High freq. dielectric constant tensor:
#      x y z
#    x 1.641730 0.000000 0.000000 
#    y 0.000000 1.660610 0.000000 
#    z 0.000000 0.000000 1.650920 
# 
# From -- ./inp_files/48103.got.cif
#   From: 2010.03.12/outbox.cif.g09.slc.cpg/sg64_25_cif.got.tgz:48103.got - 2010.04.10 20:19:32.
