data_PCOD8261836
_publ_section_title
;
Structure prediction by ZEFSAII (Michael W. Deem and Ramdas Pophale) SiO2 
 PCOD8261836
Probable space group: C M C A
;
_chemical_formula_sum "Si O2"
_cell_formula_units_Z 72
_cell_length_a 16.092064
_cell_length_b 9.383144
_cell_length_c 21.697639
_cell_angle_alpha 90.000000
_cell_angle_beta 90.000000
_cell_angle_gamma 90.000000
_cell_volume 3276.216640
_symmetry_space_group_name_H-M "C M C A"
_symmetry_group_IT_number 64
_symmetry_cell_setting 'orthorhombic'
loop_
_space_group_symop_operation_xyz
x,y,z
-x,1/2-y,1/2+z
x,-y,-z
-x,1/2+y,1/2-z
-x,-y,-z
x,1/2+y,1/2-z
-x,y,z
x,1/2-y,1/2+z
1/2+x,1/2+y,z
1/2-x,-y,1/2+z
1/2+x,1/2-y,-z
1/2-x,y,1/2-z
1/2-x,1/2-y,-z
1/2+x,y,1/2-z
1/2-x,1/2+y,z
1/2+x,-y,1/2+z
loop_
_atom_site_type_symbol
_atom_site_label
_atom_site_fract_x
_atom_site_fract_y
_atom_site_fract_z
Si Si1 0.163139 0.137835 0.785945
Si Si2 0.593657 0.344000 0.412944
Si Si3 0.292384 0.000000 0.000000
Si Si4 0.798187 0.915285 0.879085
Si Si5 0.630426 0.071786 0.184772
O O1 0.250000 0.172035 0.750000
O O2 0.099233 0.271116 0.795670
O O3 0.169963 0.067780 0.854300
O O4 0.115242 0.025578 0.743560
O O5 0.500000 0.302817 0.432114
O O6 0.648826 0.374840 0.473210
O O7 0.634673 0.212736 0.375457
O O8 0.590503 0.490738 0.373272
O O9 0.233230 0.068154 0.051330
O O10 0.724925 0.879340 0.831283
#
# Coordination Sequence:
#
# PCOD8261836 Si02
#       5
#    16  16   8  16  16
#     4  10  18  32  58  90 117 147 197 250 286 335
#     4  11  23  39  58  87 123 157 193 243 299 351
#     4  10  21  38  63  88 112 154 206 248 289 346
#     4  10  20  36  60  87 114 152 201 246 289 345
#     4  10  19  34  58  85 116 154 195 237 286 348
#
# _framework density 21.976568
#
# number of rings (size 3 to 8) (size 9 to 14) (size 15 to 20)
#    0.000    1.778    0.000    8.333    0.000    1.778 
#    0.000    6.111    0.000    0.000    0.000    0.000 
#    0.000    0.000    0.000    0.000    0.000    0.000 
#
# Total GULP energy -445981.081877 kJ/mol
# GULP energy per Si atom -12388.363385 kJ/mol
# Density = 2.192655 g / cm^3
# Si number density = 21.976568 Si / 1000 Ang^3
#
#
#
# Elastic Constant Matrix: (Units=GPa)
#
#
# Indices 1 2 3 4 5 6 
#
# 1 65.6355 32.9964 22.4819 0.0000 0.0000 0.0000
# 2 32.9964 155.0321 58.2134 0.0000 0.0000 0.0000
# 3 22.4819 58.2134 130.7551 0.0000 0.0000 0.0000
# 4 0.0000 0.0000 0.0000 38.0735 0.0000 0.0000
# 5 0.0000 0.0000 0.0000 0.0000 7.1441 0.0000
# 6 0.0000 0.0000 0.0000 0.0000 0.0000 10.2338
#
#
#
# Elastic Compliance Matrix: (Units=1/GPa)
#
#
# Indices 1 2 3 4 5 6 
#
# 1 0.017338 -0.003087 -0.001607 0.000000 0.000000 0.000000
# 2 -0.003087 0.008295 -0.003162 0.000000 0.000000 0.000000
# 3 -0.001607 -0.003162 0.009332 0.000000 0.000000 0.000000
# 4 0.000000 0.000000 0.000000 0.026265 0.000000 0.000000
# 5 0.000000 0.000000 0.000000 0.000000 0.139975 0.000000
# 6 0.000000 0.000000 0.000000 0.000000 0.000000 0.097715
#
#
# Mechanical properties :
#
#
# Convention : Reuss Voigt Hill
#
# Bulk Modulus (GPa) = 51.93984 64.31179 58.12581
# Shear Modulus (GPa) = 15.57398 26.93902 21.25650
#
# Velocity S-wave (km/s) = 2.66496 3.50495 3.11341
# Velocity P-wave (km/s) = 5.75802 6.76069 6.27940
#
# Compressibility (1/GPa) = 0.01925305
#
# Stress axis : x y z
#
# Youngs Moduli (GPa) = 57.67740 120.56038 107.15876
#
# Poissons Ratio (x) = 0.37214 0.17218
# Poissons Ratio (y) = 0.17804 0.33885
# Poissons Ratio (z) = 0.09268 0.38122
#
# Static dielectric constant tensor:
#      x y z
#    x 3.471370 0.000000 0.000000 
#    y 0.000000 4.161210 0.000000 
#    z 0.000000 0.000000 3.912290 
# 
# 
# High freq. dielectric constant tensor:
#      x y z
#    x 1.811000 0.000000 0.000000 
#    y 0.000000 1.879790 0.000000 
#    z 0.000000 0.000000 1.869510 
# 
# From -- ./inp_files/45627.got.cif
#   From: 2010.03.12/outbox.cif.g09.slc.cpg/sg64_23_cif.got.tgz:45627.got - 2010.04.10 20:19:32.
