data_PCOD8261229
_publ_section_title
;
Structure prediction by ZEFSAII (Michael W. Deem and Ramdas Pophale) SiO2 
 PCOD8261229
Probable space group: C M C M
;
_chemical_formula_sum "Si O2"
_cell_formula_units_Z 48
_cell_length_a 18.601866
_cell_length_b 7.231361
_cell_length_c 17.645144
_cell_angle_alpha 90.000000
_cell_angle_beta 90.000000
_cell_angle_gamma 90.000000
_cell_volume 2373.568453
_symmetry_space_group_name_H-M "C M C M"
_symmetry_group_IT_number 63
_symmetry_cell_setting 'orthorhombic'
loop_
_space_group_symop_operation_xyz
x,y,z
-x,-y,1/2+z
x,-y,-z
-x,y,1/2-z
-x,-y,-z
x,y,1/2-z
-x,y,z
x,-y,1/2+z
1/2+x,1/2+y,z
1/2-x,1/2-y,1/2+z
1/2+x,1/2-y,-z
1/2-x,1/2+y,1/2-z
1/2-x,1/2-y,-z
1/2+x,1/2+y,1/2-z
1/2-x,1/2+y,z
1/2+x,1/2-y,1/2+z
loop_
_atom_site_type_symbol
_atom_site_label
_atom_site_fract_x
_atom_site_fract_y
_atom_site_fract_z
Si Si1 0.174694 0.562878 0.584029
Si Si2 0.916556 0.915066 0.581622
Si Si3 0.817996 0.807359 0.338411
O O1 0.195437 0.500000 0.500000
O O2 0.107870 0.702672 0.582730
O O3 0.150138 0.388905 0.634675
O O4 0.243509 0.664525 0.618206
O O5 0.000000 0.924043 0.601748
O O6 0.899153 0.000000 0.500000
O O7 0.874433 0.030844 0.644948
O O8 0.801535 0.802486 0.250000
#
# Coordination Sequence:
#
# PCOD8261229 Si02
#       3
#    16  16  16
#     4  12  23  41  71 101 129 173 227 275 323 394
#     4  11  25  45  68  97 133 174 219 272 332 395
#     4  12  25  41  66 101 137 173 219 277 333 392
#
# _framework density 20.222715999999998
#
# number of rings (size 3 to 8) (size 9 to 14) (size 15 to 20)
#    0.000    0.333    6.667    3.000    0.000    4.000 
#    0.000    0.000    0.000    0.000    0.000    0.000 
#    0.000    0.000    0.000    0.000    0.000    0.000 
#
# Total GULP energy -297811.854723 kJ/mol
# GULP energy per Si atom -12408.827280 kJ/mol
# Density = 2.017669 g / cm^3
# Si number density = 20.222716 Si / 1000 Ang^3
#
#
#
# Elastic Constant Matrix: (Units=GPa)
#
#
# Indices 1 2 3 4 5 6 
#
# 1 83.6792 27.8019 32.3332 0.0000 0.0000 0.0000
# 2 27.8019 128.0856 45.7107 0.0000 0.0000 0.0000
# 3 32.3332 45.7107 94.6512 0.0000 0.0000 0.0000
# 4 0.0000 0.0000 0.0000 32.9528 0.0000 0.0000
# 5 0.0000 0.0000 0.0000 0.0000 3.6354 0.0000
# 6 0.0000 0.0000 0.0000 0.0000 0.0000 35.1619
#
#
#
# Elastic Compliance Matrix: (Units=1/GPa)
#
#
# Indices 1 2 3 4 5 6 
#
# 1 0.014038 -0.001614 -0.004016 0.000000 0.000000 0.000000
# 2 -0.001614 0.009619 -0.004094 0.000000 0.000000 0.000000
# 3 -0.004016 -0.004094 0.013914 0.000000 0.000000 0.000000
# 4 0.000000 0.000000 0.000000 0.030346 0.000000 0.000000
# 5 0.000000 0.000000 0.000000 0.000000 0.275076 0.000000
# 6 0.000000 0.000000 0.000000 0.000000 0.000000 0.028440
#
#
# Mechanical properties :
#
#
# Convention : Reuss Voigt Hill
#
# Bulk Modulus (GPa) = 55.17757 57.56750 56.37253
# Shear Modulus (GPa) = 12.59692 27.72136 20.15914
#
# Velocity S-wave (km/s) = 2.49852 3.70645 3.16073
# Velocity P-wave (km/s) = 5.97224 6.84438 6.42313
#
# Compressibility (1/GPa) = 0.01812331
#
# Stress axis : x y z
#
# Youngs Moduli (GPa) = 71.23303 103.96537 71.86933
#
# Poissons Ratio (x) = 0.16779 0.28864
# Poissons Ratio (y) = 0.11496 0.29422
# Poissons Ratio (z) = 0.28608 0.42562
#
# Static dielectric constant tensor:
#      x y z
#    x 3.467560 0.000000 0.000000 
#    y 0.000000 4.072710 0.000000 
#    z 0.000000 0.000000 3.671320 
# 
# 
# High freq. dielectric constant tensor:
#      x y z
#    x 1.777500 0.000000 0.000000 
#    y 0.000000 1.813320 0.000000 
#    z 0.000000 0.000000 1.793270 
# 
# From -- ./inp_files/33002.got.cif
#   From: 2010.03.12/outbox.cif.g09.slc.cpg/sg63_17_cif.got.tgz:33002.got - 2010.04.10 19:34:48.
