data_PCOD8261232
_publ_section_title
;
Structure prediction by ZEFSAII (Michael W. Deem and Ramdas Pophale) SiO2 
 PCOD8261232
Probable space group: C M C M
;
_chemical_formula_sum "Si O2"
_cell_formula_units_Z 60
_cell_length_a 11.038414
_cell_length_b 18.759665
_cell_length_c 13.756697
_cell_angle_alpha 90.000000
_cell_angle_beta 90.000000
_cell_angle_gamma 90.000000
_cell_volume 2848.694840
_symmetry_space_group_name_H-M "C M C M"
_symmetry_group_IT_number 63
_symmetry_cell_setting 'orthorhombic'
loop_
_space_group_symop_operation_xyz
x,y,z
-x,-y,1/2+z
x,-y,-z
-x,y,1/2-z
-x,-y,-z
x,y,1/2-z
-x,y,z
x,-y,1/2+z
1/2+x,1/2+y,z
1/2-x,1/2-y,1/2+z
1/2+x,1/2-y,-z
1/2-x,1/2+y,1/2-z
1/2-x,1/2-y,-z
1/2+x,1/2+y,1/2-z
1/2-x,1/2+y,z
1/2+x,1/2-y,1/2+z
loop_
_atom_site_type_symbol
_atom_site_label
_atom_site_fract_x
_atom_site_fract_y
_atom_site_fract_z
Si Si1 0.735352 0.368510 0.250000
Si Si2 0.859729 0.714401 0.250000
Si Si3 0.138726 0.932791 0.057822
Si Si4 0.000000 0.418896 0.036933
Si Si5 0.276067 0.173409 0.043874
Si Si6 0.000000 0.383807 0.250000
O O1 0.648422 0.300109 0.250000
O O2 0.712748 0.417884 0.156322
O O3 0.874239 0.338622 0.250000
O O4 0.795416 0.679233 0.158158
O O5 0.000000 0.693732 0.250000
O O6 0.000000 0.944986 0.086181
O O7 0.152345 0.867995 0.981546
O O8 0.193904 0.000000 0.000000
O O9 0.000000 0.431219 0.152912
O O10 0.000000 0.500000 0.000000
O O11 0.115325 0.371519 0.005150
O O12 0.250000 0.250000 0.000000
#
# Coordination Sequence:
#
# PCOD8261232 Si02
#       6
#     8   8  16   8  16   4
#     4  12  24  43  71  99 141 184 233 284 367 427
#     4  12  24  44  72 103 137 187 238 292 356 424
#     4  11  25  46  72 100 138 186 234 289 351 426
#     4  12  26  46  70 106 147 189 235 303 363 425
#     4  12  25  43  71 103 140 181 241 293 350 426
#     4  12  24  42  70 100 144 188 226 290 374 414
#
# _framework density 21.062277000000002
#
# number of rings (size 3 to 8) (size 9 to 14) (size 15 to 20)
#    0.000    0.267    6.667    2.000    1.867    2.133 
#    2.400    1.333    0.000    0.000    0.000    0.000 
#    0.000    0.000    0.000    0.000    0.000    0.000 
#
# Total GULP energy -371788.715037 kJ/mol
# GULP energy per Si atom -12392.957168 kJ/mol
# Density = 2.101434 g / cm^3
# Si number density = 21.062277 Si / 1000 Ang^3
#
#
#
# Elastic Constant Matrix: (Units=GPa)
#
#
# Indices 1 2 3 4 5 6 
#
# 1 86.4621 27.7590 39.5230 0.0000 0.0000 0.0000
# 2 27.7590 146.1762 64.4835 0.0000 0.0000 0.0000
# 3 39.5230 64.4835 210.6800 0.0000 0.0000 0.0000
# 4 0.0000 0.0000 0.0000 35.9234 0.0000 0.0000
# 5 0.0000 0.0000 0.0000 0.0000 35.6185 0.0000
# 6 0.0000 0.0000 0.0000 0.0000 0.0000 34.5349
#
#
#
# Elastic Compliance Matrix: (Units=1/GPa)
#
#
# Indices 1 2 3 4 5 6 
#
# 1 0.012969 -0.001606 -0.001941 0.000000 0.000000 0.000000
# 2 -0.001606 0.008108 -0.002180 0.000000 0.000000 0.000000
# 3 -0.001941 -0.002180 0.005778 0.000000 0.000000 0.000000
# 4 0.000000 0.000000 0.000000 0.027837 0.000000 0.000000
# 5 0.000000 0.000000 0.000000 0.000000 0.028075 0.000000
# 6 0.000000 0.000000 0.000000 0.000000 0.000000 0.028956
#
#
# Mechanical properties :
#
#
# Convention : Reuss Voigt Hill
#
# Bulk Modulus (GPa) = 64.93953 78.53881 71.73917
# Shear Modulus (GPa) = 38.96748 41.98556 40.47652
#
# Velocity S-wave (km/s) = 4.30595 4.46960 4.38854
# Velocity P-wave (km/s) = 7.45793 8.00039 7.73392
#
# Compressibility (1/GPa) = 0.01539894
#
# Stress axis : x y z
#
# Youngs Moduli (GPa) = 77.10758 123.33635 173.06962
#
# Poissons Ratio (x) = 0.19813 0.33597
# Poissons Ratio (y) = 0.12387 0.37733
# Poissons Ratio (z) = 0.14968 0.26890
#
# Static dielectric constant tensor:
#      x y z
#    x 4.077400 0.000000 0.000000 
#    y 0.000000 3.748760 0.000000 
#    z 0.000000 0.000000 4.226470 
# 
# 
# High freq. dielectric constant tensor:
#      x y z
#    x 1.837490 0.000000 0.000000 
#    y 0.000000 1.818540 0.000000 
#    z 0.000000 0.000000 1.843570 
# 
# From -- ./inp_files/29071.got.cif
#   From: 2010.03.12/outbox.cif.g09.slc.cpg/sg63_15_cif.got.tgz:29071.got - 2010.04.10 19:34:48.
