data_PCOD8261475
_publ_section_title
;
Structure prediction by ZEFSAII (Michael W. Deem and Ramdas Pophale) SiO2 
 PCOD8261475
Probable space group: C M C A
;
_chemical_formula_sum "Si O2"
_cell_formula_units_Z 112
_cell_length_a 16.961202
_cell_length_b 21.495812
_cell_length_c 17.963646
_cell_angle_alpha 90.000000
_cell_angle_beta 90.000000
_cell_angle_gamma 90.000000
_cell_volume 6549.452091
_symmetry_space_group_name_H-M "C M C A"
_symmetry_group_IT_number 64
_symmetry_cell_setting 'orthorhombic'
loop_
_space_group_symop_operation_xyz
x,y,z
-x,1/2-y,1/2+z
x,-y,-z
-x,1/2+y,1/2-z
-x,-y,-z
x,1/2+y,1/2-z
-x,y,z
x,1/2-y,1/2+z
1/2+x,1/2+y,z
1/2-x,-y,1/2+z
1/2+x,1/2-y,-z
1/2-x,y,1/2-z
1/2-x,1/2-y,-z
1/2+x,y,1/2-z
1/2-x,1/2+y,z
1/2+x,-y,1/2+z
loop_
_atom_site_type_symbol
_atom_site_label
_atom_site_fract_x
_atom_site_fract_y
_atom_site_fract_z
Si Si1 0.092793 0.839882 0.370799
Si Si2 0.091258 0.928829 0.502810
Si Si3 0.913127 0.825095 0.214428
Si Si4 0.842498 0.669163 0.106452
Si Si5 0.587438 0.818016 0.742256
Si Si6 0.664930 0.290650 0.905724
Si Si7 0.091435 0.293618 0.441419
O O1 0.105234 0.899893 0.421428
O O2 0.124225 0.859360 0.286967
O O3 0.142770 0.782235 0.402919
O O4 0.000000 0.820301 0.367280
O O5 0.147897 0.894602 0.561385
O O6 0.000000 0.922545 0.527525
O O7 0.118121 0.000000 0.500000
O O8 0.916549 0.754662 0.242593
O O9 0.871106 0.827924 0.133058
O O10 0.000000 0.852013 0.200772
O O11 0.860110 0.651687 0.192425
O O12 0.757796 0.700811 0.098474
O O13 0.903535 0.719270 0.072131
O O14 0.500000 0.847597 0.742762
O O15 0.625726 0.829800 0.661257
O O16 0.636573 0.317220 0.985466
O O17 0.000000 0.310043 0.451156
#
# Coordination Sequence:
#
# PCOD8261475 Si02
#       7
#    16  16  16  16  16  16  16
#     4   9  16  29  47  68 103 135 165 206 247 302
#     4  10  20  33  51  72  94 133 180 212 247 297
#     4   7  13  24  40  62  89 126 159 190 231 279
#     4  11  20  30  45  72 105 130 158 212 259 296
#     4   9  17  30  46  67  97 132 164 190 240 309
#     4  11  19  27  45  75 102 133 158 196 256 314
#     4  10  17  27  43  66 101 136 164 191 237 305
#
# _framework density 17.100667000000001
#
# number of rings (size 3 to 8) (size 9 to 14) (size 15 to 20)
#    0.000    2.429    1.429    5.143    0.000    0.000 
#    0.000    0.000    0.000    0.000    7.429    0.000 
#    0.000    4.000    0.000    0.000    0.000    0.000 
#
# Total GULP energy -693787.936555 kJ/mol
# GULP energy per Si atom -12389.070296 kJ/mol
# Density = 1.706174 g / cm^3
# Si number density = 17.100667 Si / 1000 Ang^3
#
#
#
# Elastic Constant Matrix: (Units=GPa)
#
#
# Indices 1 2 3 4 5 6 
#
# 1 67.1429 25.6530 40.3718 0.0000 0.0000 0.0000
# 2 25.6530 60.9307 41.8981 0.0000 0.0000 0.0000
# 3 40.3718 41.8981 182.2717 0.0000 0.0000 0.0000
# 4 0.0000 0.0000 0.0000 12.6521 0.0000 0.0000
# 5 0.0000 0.0000 0.0000 0.0000 22.1530 0.0000
# 6 0.0000 0.0000 0.0000 0.0000 0.0000 12.0886
#
#
#
# Elastic Compliance Matrix: (Units=1/GPa)
#
#
# Indices 1 2 3 4 5 6 
#
# 1 0.018877 -0.006025 -0.002796 0.000000 0.000000 0.000000
# 2 -0.006025 0.021416 -0.003588 0.000000 0.000000 0.000000
# 3 -0.002796 -0.003588 0.006931 0.000000 0.000000 0.000000
# 4 0.000000 0.000000 0.000000 0.079038 0.000000 0.000000
# 5 0.000000 0.000000 0.000000 0.000000 0.045141 0.000000
# 6 0.000000 0.000000 0.000000 0.000000 0.000000 0.082722
#
#
# Mechanical properties :
#
#
# Convention : Reuss Voigt Hill
#
# Bulk Modulus (GPa) = 44.63338 58.46567 51.54952
# Shear Modulus (GPa) = 17.45740 22.87357 20.16549
#
# Velocity S-wave (km/s) = 3.19856 3.66127 3.43771
# Velocity P-wave (km/s) = 6.30857 7.22056 6.77992
#
# Compressibility (1/GPa) = 0.02240476
#
# Stress axis : x y z
#
# Youngs Moduli (GPa) = 52.97527 46.69384 144.28963
#
# Poissons Ratio (x) = 0.28132 0.40346
# Poissons Ratio (y) = 0.31916 0.51777
# Poissons Ratio (z) = 0.14813 0.16756
#
# Static dielectric constant tensor:
#      x y z
#    x 3.034780 0.000000 0.000000 
#    y 0.000000 2.592090 0.000000 
#    z 0.000000 0.000000 3.841630 
# 
# 
# High freq. dielectric constant tensor:
#      x y z
#    x 1.644800 0.000000 0.000000 
#    y 0.000000 1.574860 0.000000 
#    z 0.000000 0.000000 1.693350 
# 
# From -- ./inp_files/33603.got.cif
#   From: 2010.03.12/outbox.cif.g09.slc.cpg/sg64_17_cif.got.tgz:33603.got - 2010.04.10 20:19:32.
