data_PCOD8261418
_publ_section_title
;
Structure prediction by ZEFSAII (Michael W. Deem and Ramdas Pophale) SiO2 
 PCOD8261418
Probable space group: C M C A
;
_chemical_formula_sum "Si O2"
_cell_formula_units_Z 72
_cell_length_a 33.697682
_cell_length_b 5.188746
_cell_length_c 23.568287
_cell_angle_alpha 90.000000
_cell_angle_beta 90.000000
_cell_angle_gamma 90.000000
_cell_volume 4120.884642
_symmetry_space_group_name_H-M "C M C A"
_symmetry_group_IT_number 64
_symmetry_cell_setting 'orthorhombic'
loop_
_space_group_symop_operation_xyz
x,y,z
-x,1/2-y,1/2+z
x,-y,-z
-x,1/2+y,1/2-z
-x,-y,-z
x,1/2+y,1/2-z
-x,y,z
x,1/2-y,1/2+z
1/2+x,1/2+y,z
1/2-x,-y,1/2+z
1/2+x,1/2-y,-z
1/2-x,y,1/2-z
1/2-x,1/2-y,-z
1/2+x,y,1/2-z
1/2-x,1/2+y,z
1/2+x,-y,1/2+z
loop_
_atom_site_type_symbol
_atom_site_label
_atom_site_fract_x
_atom_site_fract_y
_atom_site_fract_z
Si Si1 0.267266 0.968568 0.312600
Si Si2 0.045995 0.489835 0.066858
Si Si3 0.000000 0.979724 0.785598
Si Si4 0.141870 0.004328 0.787391
Si Si5 0.071299 0.015443 0.870228
O O1 0.250000 0.914676 0.250000
O O2 0.255135 0.703561 0.344608
O O3 0.313922 0.013595 0.311490
O O4 0.063102 0.219664 0.087803
O O5 0.000000 0.515514 0.084554
O O6 0.070702 0.721427 0.094272
O O7 0.051281 0.500000 0.000000
O O8 0.960812 0.030662 0.820977
O O9 0.000000 0.683282 0.765730
O O10 0.133480 0.271847 0.755696
O O11 0.114113 0.981685 0.842069
#
# Coordination Sequence:
#
# PCOD8261418 Si02
#       5
#    16  16   8  16  16
#     4  10  16  30  49  70 103 146 179 215 245 293
#     4  11  22  41  62  77  97 135 185 248 288 306
#     4  12  22  36  49  70 113 154 174 202 242 312
#     4  12  21  33  51  78 114 154 175 211 256 312
#     4  12  23  37  54  81 108 138 191 218 263 336
#
# _framework density 17.471976999999999
#
# number of rings (size 3 to 8) (size 9 to 14) (size 15 to 20)
#    0.000    0.667    6.667    4.667    0.000    1.778 
#    0.000    0.000    0.000    0.000    0.000    0.000 
#    0.000   17.778    0.000    0.000    0.000    0.000 
#
# Total GULP energy -446477.753790 kJ/mol
# GULP energy per Si atom -12402.159828 kJ/mol
# Density = 1.743221 g / cm^3
# Si number density = 17.471977 Si / 1000 Ang^3
#
#
#
# Elastic Constant Matrix: (Units=GPa)
#
#
# Indices 1 2 3 4 5 6 
#
# 1 93.3514 -4.8566 35.3942 0.0000 0.0000 0.0000
# 2 -4.8566 98.0178 17.0999 0.0000 0.0000 0.0000
# 3 35.3942 17.0999 51.1819 0.0000 0.0000 0.0000
# 4 0.0000 0.0000 0.0000 29.3036 0.0000 0.0000
# 5 0.0000 0.0000 0.0000 0.0000 -5.7581 0.0000
# 6 0.0000 0.0000 0.0000 0.0000 0.0000 19.3568
#
#
#
# Elastic Compliance Matrix: (Units=1/GPa)
#
#
# Indices 1 2 3 4 5 6 
#
# 1 0.015184 0.002744 -0.011417 0.000000 0.000000 0.000000
# 2 0.002744 0.011330 -0.005683 0.000000 0.000000 0.000000
# 3 -0.011417 -0.005683 0.029332 0.000000 0.000000 0.000000
# 4 0.000000 0.000000 0.000000 0.034125 0.000000 0.000000
# 5 0.000000 0.000000 0.000000 0.000000 -0.173668 0.000000
# 6 0.000000 0.000000 0.000000 0.000000 0.000000 0.051661
#
#
# Mechanical properties :
#
#
# Convention : Reuss Voigt Hill
#
# Bulk Modulus (GPa) = 36.85418 37.53624 37.19521
# Shear Modulus (GPa) = 874.06993 21.57470 447.82231
#
# Velocity S-wave (km/s) = 22.39097 3.51781 16.02702
# Velocity P-wave (km/s) = 26.26049 6.16687 19.07411
#
# Compressibility (1/GPa) = 0.02713397
#
# Stress axis : x y z
#
# Youngs Moduli (GPa) = 65.86015 88.26424 34.09240
#
# Poissons Ratio (x) = -0.24220 0.38923
# Poissons Ratio (y) = -0.18073 0.19374
# Poissons Ratio (z) = 0.75192 0.50160
#
# Static dielectric constant tensor:
#      x y z
#    x 3.315170 0.000000 0.000000 
#    y 0.000000 4.007950 0.000000 
#    z 0.000000 0.000000 2.960090 
# 
# 
# High freq. dielectric constant tensor:
#      x y z
#    x 1.673450 0.000000 0.000000 
#    y 0.000000 1.711480 0.000000 
#    z 0.000000 0.000000 1.630670 
# 
# From -- ./inp_files/47013.got.cif
#   From: 2010.03.12/outbox.cif.g09.slc.cpg/sg64_24_cif.got.tgz:47013.got - 2010.04.10 20:19:32.
