data_PCOD8261260
_publ_section_title
;
Structure prediction by ZEFSAII (Michael W. Deem and Ramdas Pophale) SiO2 
 PCOD8261260
Probable space group: C M C M
;
_chemical_formula_sum "Si O2"
_cell_formula_units_Z 48
_cell_length_a 9.457690
_cell_length_b 24.294982
_cell_length_c 9.807054
_cell_angle_alpha 90.000000
_cell_angle_beta 90.000000
_cell_angle_gamma 90.000000
_cell_volume 2253.410030
_symmetry_space_group_name_H-M "C M C M"
_symmetry_group_IT_number 63
_symmetry_cell_setting 'orthorhombic'
loop_
_space_group_symop_operation_xyz
x,y,z
-x,-y,1/2+z
x,-y,-z
-x,y,1/2-z
-x,-y,-z
x,y,1/2-z
-x,y,z
x,-y,1/2+z
1/2+x,1/2+y,z
1/2-x,1/2-y,1/2+z
1/2+x,1/2-y,-z
1/2-x,1/2+y,1/2-z
1/2-x,1/2-y,-z
1/2+x,1/2+y,1/2-z
1/2-x,1/2+y,z
1/2+x,1/2-y,1/2+z
loop_
_atom_site_type_symbol
_atom_site_label
_atom_site_fract_x
_atom_site_fract_y
_atom_site_fract_z
Si Si1 0.733910 0.127506 0.007445
Si Si2 0.826779 0.298882 0.750000
Si Si3 0.000000 0.942748 0.085544
Si Si4 0.500000 0.951263 0.601185
Si Si5 0.846060 0.693003 0.750000
O O1 0.752503 0.176085 0.118087
O O2 0.639116 0.083864 0.084657
O O3 0.657394 0.153362 0.878958
O O4 0.871246 0.095556 0.958168
O O5 0.786911 0.234394 0.750000
O O6 0.000000 0.306048 0.750000
O O7 0.000000 0.954475 0.250000
O O8 0.000000 0.000000 0.000000
O O9 0.500000 0.977906 0.750000
O O10 0.500000 0.000000 0.500000
O O11 0.000000 0.723082 0.750000
#
# Coordination Sequence:
#
# PCOD8261260 Si02
#       5
#    16   8   8   8   8
#     4  12  25  48  71 104 150 183 236 301 355 426
#     4  12  26  48  75 108 146 190 241 296 357 426
#     4  12  30  48  73 108 146 190 241 296 359 428
#     4  12  26  46  75 106 140 186 237 298 359 430
#     4  12  26  44  75 110 142 192 243 290 363 428
#
# _framework density 21.30105
#
# number of rings (size 3 to 8) (size 9 to 14) (size 15 to 20)
#    0.000    0.000    6.667    2.000    9.333    2.667 
#    0.000    0.000    0.000    0.000    0.000    0.000 
#    0.000    0.000    0.000    0.000    0.000    0.000 
#
# Total GULP energy -297488.979811 kJ/mol
# GULP energy per Si atom -12395.374159 kJ/mol
# Density = 2.125257 g / cm^3
# Si number density = 21.301050 Si / 1000 Ang^3
#
#
#
# Elastic Constant Matrix: (Units=GPa)
#
#
# Indices 1 2 3 4 5 6 
#
# 1 129.6280 40.9719 43.4725 0.0000 0.0000 0.0000
# 2 40.9719 98.0452 51.8273 0.0000 0.0000 0.0000
# 3 43.4725 51.8273 191.5288 0.0000 0.0000 0.0000
# 4 0.0000 0.0000 0.0000 95.2735 0.0000 0.0000
# 5 0.0000 0.0000 0.0000 0.0000 35.6010 0.0000
# 6 0.0000 0.0000 0.0000 0.0000 0.0000 29.8659
#
#
#
# Elastic Compliance Matrix: (Units=1/GPa)
#
#
# Indices 1 2 3 4 5 6 
#
# 1 0.009123 -0.003172 -0.001213 0.000000 0.000000 0.000000
# 2 -0.003172 0.013004 -0.002799 0.000000 0.000000 0.000000
# 3 -0.001213 -0.002799 0.006254 0.000000 0.000000 0.000000
# 4 0.000000 0.000000 0.000000 0.010496 0.000000 0.000000
# 5 0.000000 0.000000 0.000000 0.000000 0.028089 0.000000
# 6 0.000000 0.000000 0.000000 0.000000 0.000000 0.033483
#
#
# Mechanical properties :
#
#
# Convention : Reuss Voigt Hill
#
# Bulk Modulus (GPa) = 71.35155 76.86059 74.10607
# Shear Modulus (GPa) = 41.84517 51.01010 46.42764
#
# Velocity S-wave (km/s) = 4.43704 4.89890 4.67368
# Velocity P-wave (km/s) = 7.73429 8.25592 7.99936
#
# Compressibility (1/GPa) = 0.01401511
#
# Stress axis : x y z
#
# Youngs Moduli (GPa) = 109.60706 76.89732 159.90287
#
# Poissons Ratio (x) = 0.24389 0.19390
# Poissons Ratio (y) = 0.34763 0.44758
# Poissons Ratio (z) = 0.13291 0.21524
#
# Static dielectric constant tensor:
#      x y z
#    x 3.700200 0.000000 0.000000 
#    y 0.000000 6.007310 0.000000 
#    z 0.000000 0.000000 4.256960 
# 
# 
# High freq. dielectric constant tensor:
#      x y z
#    x 1.839290 0.000000 0.000000 
#    y 0.000000 1.844830 0.000000 
#    z 0.000000 0.000000 1.864070 
# 
# From -- ./inp_files/2027.got.cif
#   From: 2010.03.12/outbox.cif.g09.slc.cpg/sg63_2_cif.got.tgz:2027.got - 2010.04.10 19:34:48.
