data_PCOD8261782
_publ_section_title
;
Structure prediction by ZEFSAII (Michael W. Deem and Ramdas Pophale) SiO2 
 PCOD8261782
Probable space group: C M C A
;
_chemical_formula_sum "Si O2"
_cell_formula_units_Z 112
_cell_length_a 29.008810
_cell_length_b 15.809864
_cell_length_c 12.383580
_cell_angle_alpha 90.000000
_cell_angle_beta 90.000000
_cell_angle_gamma 90.000000
_cell_volume 5679.423599
_symmetry_space_group_name_H-M "C M C A"
_symmetry_group_IT_number 64
_symmetry_cell_setting 'orthorhombic'
loop_
_space_group_symop_operation_xyz
x,y,z
-x,1/2-y,1/2+z
x,-y,-z
-x,1/2+y,1/2-z
-x,-y,-z
x,1/2+y,1/2-z
-x,y,z
x,1/2-y,1/2+z
1/2+x,1/2+y,z
1/2-x,-y,1/2+z
1/2+x,1/2-y,-z
1/2-x,y,1/2-z
1/2-x,1/2-y,-z
1/2+x,y,1/2-z
1/2-x,1/2+y,z
1/2+x,-y,1/2+z
loop_
_atom_site_type_symbol
_atom_site_label
_atom_site_fract_x
_atom_site_fract_y
_atom_site_fract_z
Si Si1 0.852682 0.811262 0.577151
Si Si2 0.051737 0.493112 0.372670
Si Si3 0.663079 0.771414 0.162975
Si Si4 0.688793 0.047464 0.604557
Si Si5 0.108203 0.155922 0.850886
Si Si6 0.636788 0.587732 0.225644
Si Si7 0.736595 0.283618 0.118743
O O1 0.840174 0.819517 0.452776
O O2 0.896716 0.747495 0.591521
O O3 0.862689 0.897539 0.643335
O O4 0.811177 0.766133 0.647051
O O5 0.058413 0.500000 0.500000
O O6 0.060162 0.394151 0.339602
O O7 0.086820 0.553316 0.308482
O O8 0.000000 0.517939 0.337807
O O9 0.632815 0.834395 0.234782
O O10 0.643621 0.676186 0.161451
O O11 0.718179 0.768058 0.194720
O O12 0.641077 0.095636 0.575574
O O13 0.728055 0.115837 0.630349
O O14 0.707130 0.000000 0.500000
O O15 0.677905 0.978426 0.698584
O O16 0.750000 0.250000 0.000000
#
# Coordination Sequence:
#
# PCOD8261782 Si02
#       7
#    16  16  16  16  16  16  16
#     4   9  18  32  52  77 109 145 180 216 260 315
#     4  10  20  37  60  82 102 126 169 229 281 330
#     4  10  19  35  52  74 111 146 180 220 264 318
#     4  10  18  32  50  72 102 135 181 229 262 303
#     4   9  18  32  54  77 100 137 171 213 276 327
#     4  10  19  33  57  79 100 135 176 224 274 321
#     4   9  18  33  51  74 106 148 188 223 262 307
#
# _framework density 19.720312
#
# number of rings (size 3 to 8) (size 9 to 14) (size 15 to 20)
#    0.000    2.429    0.000    5.143    0.000    5.143 
#    0.000   20.000    0.000    3.429    0.000    0.000 
#    0.000    0.000    0.000    0.000    0.000    0.000 
#
# Total GULP energy -693836.304617 kJ/mol
# GULP energy per Si atom -12389.934011 kJ/mol
# Density = 1.967543 g / cm^3
# Si number density = 19.720312 Si / 1000 Ang^3
#
#
#
# Elastic Constant Matrix: (Units=GPa)
#
#
# Indices 1 2 3 4 5 6 
#
# 1 100.2915 49.2341 37.2392 0.0000 0.0000 0.0000
# 2 49.2341 100.5862 27.2495 0.0000 0.0000 0.0000
# 3 37.2392 27.2495 70.0038 0.0000 0.0000 0.0000
# 4 0.0000 0.0000 0.0000 38.6832 0.0000 0.0000
# 5 0.0000 0.0000 0.0000 0.0000 16.9663 0.0000
# 6 0.0000 0.0000 0.0000 0.0000 0.0000 26.8684
#
#
#
# Elastic Compliance Matrix: (Units=1/GPa)
#
#
# Indices 1 2 3 4 5 6 
#
# 1 0.014910 -0.005756 -0.005691 0.000000 0.000000 0.000000
# 2 -0.005756 0.013336 -0.002129 0.000000 0.000000 0.000000
# 3 -0.005691 -0.002129 0.018141 0.000000 0.000000 0.000000
# 4 0.000000 0.000000 0.000000 0.025851 0.000000 0.000000
# 5 0.000000 0.000000 0.000000 0.000000 0.058940 0.000000
# 6 0.000000 0.000000 0.000000 0.000000 0.000000 0.037218
#
#
# Mechanical properties :
#
#
# Convention : Reuss Voigt Hill
#
# Bulk Modulus (GPa) = 51.98953 55.36968 53.67961
# Shear Modulus (GPa) = 24.75738 26.98084 25.86911
#
# Velocity S-wave (km/s) = 3.54704 3.70290 3.62581
# Velocity P-wave (km/s) = 6.57237 6.81325 6.69389
#
# Compressibility (1/GPa) = 0.01923464
#
# Stress axis : x y z
#
# Youngs Moduli (GPa) = 67.07019 74.98496 55.12403
#
# Poissons Ratio (x) = 0.43163 0.31370
# Poissons Ratio (y) = 0.38607 0.11736
# Poissons Ratio (z) = 0.38168 0.15965
#
# Static dielectric constant tensor:
#      x y z
#    x 3.482830 0.000000 0.000000 
#    y 0.000000 3.670710 0.000000 
#    z 0.000000 0.000000 3.656950 
# 
# 
# High freq. dielectric constant tensor:
#      x y z
#    x 1.733010 0.000000 0.000000 
#    y 0.000000 1.764310 0.000000 
#    z 0.000000 0.000000 1.781190 
# 
# From -- ./inp_files/28480.got.cif
#   From: 2010.03.12/outbox.cif.g09.slc.cpg/sg64_15_cif.got.tgz:28480.got - 2010.04.10 20:19:32.
