data_PCOD8261434
_publ_section_title
;
Structure prediction by ZEFSAII (Michael W. Deem and Ramdas Pophale) SiO2 
 PCOD8261434
Probable space group: C M C A
;
_chemical_formula_sum "Si O2"
_cell_formula_units_Z 104
_cell_length_a 22.482723
_cell_length_b 16.642339
_cell_length_c 14.597937
_cell_angle_alpha 90.000000
_cell_angle_beta 90.000000
_cell_angle_gamma 90.000000
_cell_volume 5462.038525
_symmetry_space_group_name_H-M "C M C A"
_symmetry_group_IT_number 64
_symmetry_cell_setting 'orthorhombic'
loop_
_space_group_symop_operation_xyz
x,y,z
-x,1/2-y,1/2+z
x,-y,-z
-x,1/2+y,1/2-z
-x,-y,-z
x,1/2+y,1/2-z
-x,y,z
x,1/2-y,1/2+z
1/2+x,1/2+y,z
1/2-x,-y,1/2+z
1/2+x,1/2-y,-z
1/2-x,y,1/2-z
1/2-x,1/2-y,-z
1/2+x,y,1/2-z
1/2-x,1/2+y,z
1/2+x,-y,1/2+z
loop_
_atom_site_type_symbol
_atom_site_label
_atom_site_fract_x
_atom_site_fract_y
_atom_site_fract_z
Si Si1 0.646786 0.194564 0.312419
Si Si2 0.068900 0.660186 0.478211
Si Si3 0.754551 0.205031 0.595956
Si Si4 0.142098 0.000000 0.000000
Si Si5 0.370806 0.234565 0.116162
Si Si6 0.280985 0.040373 0.338986
Si Si7 0.185322 0.911306 0.521712
O O1 0.599324 0.205539 0.393408
O O2 0.701699 0.254349 0.330942
O O3 0.610696 0.212263 0.219157
O O4 0.671989 0.104930 0.301352
O O5 0.100282 0.575399 0.488849
O O6 0.077453 0.713301 0.569436
O O7 0.000000 0.646658 0.458709
O O8 0.750000 0.250000 0.500000
O O9 0.687159 0.208340 0.631086
O O10 0.779982 0.115975 0.571724
O O11 0.183976 0.983206 0.089347
O O12 0.363157 0.154811 0.052282
O O13 0.250000 0.996677 0.250000
O O14 0.231040 0.088354 0.394441
O O15 0.158068 0.000000 0.500000
#
# Coordination Sequence:
#
# PCOD8261434 Si02
#       7
#    16  16  16   8  16  16  16
#     4  11  19  35  61  85 114 157 195 246 294 358
#     4  11  24  43  63  82 114 161 210 254 286 338
#     4  10  16  32  54  83 119 148 183 227 303 362
#     4  10  23  40  60  90 124 154 195 240 296 354
#     4  11  21  37  59  87 118 153 198 242 297 355
#     4  11  18  32  55  86 123 154 181 227 294 367
#     4  11  20  32  54  84 127 156 182 228 290 368
#
# _framework density 19.040510000000001
#
# number of rings (size 3 to 8) (size 9 to 14) (size 15 to 20)
#    0.000    1.231    8.462    1.615    0.000    0.615 
#    2.769    0.000    0.000    0.462    0.000    0.000 
#    0.000    0.000    0.000    0.154    0.000    0.000 
#
# Total GULP energy -644396.688695 kJ/mol
# GULP energy per Si atom -12392.244013 kJ/mol
# Density = 1.899717 g / cm^3
# Si number density = 19.040510 Si / 1000 Ang^3
#
#
#
# Elastic Constant Matrix: (Units=GPa)
#
#
# Indices 1 2 3 4 5 6 
#
# 1 77.5071 12.0374 27.7646 0.0000 0.0000 0.0000
# 2 12.0374 70.7172 17.8289 0.0000 0.0000 0.0000
# 3 27.7646 17.8289 108.5691 0.0000 0.0000 0.0000
# 4 0.0000 0.0000 0.0000 22.5958 0.0000 0.0000
# 5 0.0000 0.0000 0.0000 0.0000 12.0777 0.0000
# 6 0.0000 0.0000 0.0000 0.0000 0.0000 14.7636
#
#
#
# Elastic Compliance Matrix: (Units=1/GPa)
#
#
# Indices 1 2 3 4 5 6 
#
# 1 0.014372 -0.001585 -0.003415 0.000000 0.000000 0.000000
# 2 -0.001585 0.014926 -0.002046 0.000000 0.000000 0.000000
# 3 -0.003415 -0.002046 0.010420 0.000000 0.000000 0.000000
# 4 0.000000 0.000000 0.000000 0.044256 0.000000 0.000000
# 5 0.000000 0.000000 0.000000 0.000000 0.082797 0.000000
# 6 0.000000 0.000000 0.000000 0.000000 0.000000 0.067734
#
#
# Mechanical properties :
#
#
# Convention : Reuss Voigt Hill
#
# Bulk Modulus (GPa) = 39.02297 41.33946 40.18121
# Shear Modulus (GPa) = 19.44469 23.16491 21.30480
#
# Velocity S-wave (km/s) = 3.19913 3.49178 3.34865
# Velocity P-wave (km/s) = 5.84680 6.16564 6.00834
#
# Compressibility (1/GPa) = 0.02562593
#
# Stress axis : x y z
#
# Youngs Moduli (GPa) = 69.58186 66.99512 95.96953
#
# Poissons Ratio (x) = 0.10621 0.32773
# Poissons Ratio (y) = 0.11031 0.19633
# Poissons Ratio (z) = 0.23762 0.13706
#
# Static dielectric constant tensor:
#      x y z
#    x 3.123120 0.000000 0.000000 
#    y 0.000000 3.601840 0.000000 
#    z 0.000000 0.000000 3.746550 
# 
# 
# High freq. dielectric constant tensor:
#      x y z
#    x 1.688990 0.000000 0.000000 
#    y 0.000000 1.734680 0.000000 
#    z 0.000000 0.000000 1.750860 
# 
# From -- ./inp_files/27538.got.cif
#   From: 2010.03.12/outbox.cif.g09.slc.cpg/sg64_14_cif.got.tgz:27538.got - 2010.04.10 20:19:32.
