data_PCOD8261405
_publ_section_title
;
Structure prediction by ZEFSAII (Michael W. Deem and Ramdas Pophale) SiO2 
 PCOD8261405
Probable space group: C M C A
;
_chemical_formula_sum "Si O2"
_cell_formula_units_Z 72
_cell_length_a 9.511082
_cell_length_b 18.505001
_cell_length_c 22.760175
_cell_angle_alpha 90.000000
_cell_angle_beta 90.000000
_cell_angle_gamma 90.000000
_cell_volume 4005.849565
_symmetry_space_group_name_H-M "C M C A"
_symmetry_group_IT_number 64
_symmetry_cell_setting 'orthorhombic'
loop_
_space_group_symop_operation_xyz
x,y,z
-x,1/2-y,1/2+z
x,-y,-z
-x,1/2+y,1/2-z
-x,-y,-z
x,1/2+y,1/2-z
-x,y,z
x,1/2-y,1/2+z
1/2+x,1/2+y,z
1/2-x,-y,1/2+z
1/2+x,1/2-y,-z
1/2-x,y,1/2-z
1/2-x,1/2-y,-z
1/2+x,y,1/2-z
1/2-x,1/2+y,z
1/2+x,-y,1/2+z
loop_
_atom_site_type_symbol
_atom_site_label
_atom_site_fract_x
_atom_site_fract_y
_atom_site_fract_z
Si Si1 0.838279 0.998486 0.804918
Si Si2 0.750000 0.260800 0.750000
Si Si3 0.330951 0.743939 0.439414
Si Si4 0.343852 0.349929 0.858764
Si Si5 0.156621 0.849428 0.157992
O O1 0.750000 0.970893 0.750000
O O2 0.825288 0.936189 0.853597
O O3 0.000000 0.009978 0.785614
O O4 0.768303 0.074212 0.827413
O O5 0.664486 0.311313 0.794923
O O6 0.847815 0.207163 0.788039
O O7 0.500000 0.739330 0.447070
O O8 0.250000 0.750000 0.500000
O O9 0.276104 0.673599 0.404564
O O10 0.279187 0.812257 0.400232
O O11 0.500000 0.332607 0.883631
O O12 0.000000 0.870942 0.141250
#
# Coordination Sequence:
#
# PCOD8261405 Si02
#       5
#    16   8  16  16  16
#     4  10  19  33  50  76 111 143 172 206 254 314
#     4  10  16  28  50  76 110 136 174 210 256 308
#     4  10  21  38  58  77 101 135 180 226 268 312
#     4  10  20  32  52  79 108 140 175 214 260 310
#     4   9  18  31  50  75 105 138 172 211 258 310
#
# _framework density 17.973716
#
# number of rings (size 3 to 8) (size 9 to 14) (size 15 to 20)
#    0.000    2.222    2.222    1.333    0.000    1.778 
#    0.000    2.222    0.000    6.667    0.000    0.000 
#    0.000    0.000    0.000    0.000    0.000    0.000 
#
# Total GULP energy -446066.236321 kJ/mol
# GULP energy per Si atom -12390.728787 kJ/mol
# Density = 1.793281 g / cm^3
# Si number density = 17.973716 Si / 1000 Ang^3
#
#
#
# Elastic Constant Matrix: (Units=GPa)
#
#
# Indices 1 2 3 4 5 6 
#
# 1 82.2369 28.2483 39.6573 0.0000 0.0000 0.0000
# 2 28.2483 109.5131 35.2608 0.0000 0.0000 0.0000
# 3 39.6573 35.2608 107.2917 0.0000 0.0000 0.0000
# 4 0.0000 0.0000 0.0000 16.0756 0.0000 0.0000
# 5 0.0000 0.0000 0.0000 0.0000 29.8817 0.0000
# 6 0.0000 0.0000 0.0000 0.0000 0.0000 22.6723
#
#
#
# Elastic Compliance Matrix: (Units=1/GPa)
#
#
# Indices 1 2 3 4 5 6 
#
# 1 0.015334 -0.002383 -0.004885 0.000000 0.000000 0.000000
# 2 -0.002383 0.010582 -0.002597 0.000000 0.000000 0.000000
# 3 -0.004885 -0.002597 0.011979 0.000000 0.000000 0.000000
# 4 0.000000 0.000000 0.000000 0.062206 0.000000 0.000000
# 5 0.000000 0.000000 0.000000 0.000000 0.033465 0.000000
# 6 0.000000 0.000000 0.000000 0.000000 0.000000 0.044107
#
#
# Mechanical properties :
#
#
# Convention : Reuss Voigt Hill
#
# Bulk Modulus (GPa) = 55.04579 56.15273 55.59926
# Shear Modulus (GPa) = 24.57511 26.78429 25.67970
#
# Velocity S-wave (km/s) = 3.70169 3.86449 3.78396
# Velocity P-wave (km/s) = 6.99730 7.15694 7.07757
#
# Compressibility (1/GPa) = 0.01816669
#
# Stress axis : x y z
#
# Youngs Moduli (GPa) = 65.21468 94.49918 83.47647
#
# Poissons Ratio (x) = 0.22515 0.40776
# Poissons Ratio (y) = 0.15538 0.21680
# Poissons Ratio (z) = 0.31856 0.24543
#
# Static dielectric constant tensor:
#      x y z
#    x 3.222700 0.000000 0.000000 
#    y 0.000000 3.604650 0.000000 
#    z 0.000000 0.000000 3.158310 
# 
# 
# High freq. dielectric constant tensor:
#      x y z
#    x 1.684140 0.000000 0.000000 
#    y 0.000000 1.705920 0.000000 
#    z 0.000000 0.000000 1.674410 
# 
# From -- ./inp_files/37976.got.cif
#   From: 2010.03.12/outbox.cif.g09.slc.cpg/sg64_19_cif.got.tgz:37976.got - 2010.04.10 20:19:32.
