data_PCOD8261683
_publ_section_title
;
Structure prediction by ZEFSAII (Michael W. Deem and Ramdas Pophale) SiO2 
 PCOD8261683
Probable space group: C M C A
;
_chemical_formula_sum "Si O2"
_cell_formula_units_Z 112
_cell_length_a 20.042997
_cell_length_b 19.254301
_cell_length_c 16.306143
_cell_angle_alpha 90.000000
_cell_angle_beta 90.000000
_cell_angle_gamma 90.000000
_cell_volume 6292.767193
_symmetry_space_group_name_H-M "C M C A"
_symmetry_group_IT_number 64
_symmetry_cell_setting 'orthorhombic'
loop_
_space_group_symop_operation_xyz
x,y,z
-x,1/2-y,1/2+z
x,-y,-z
-x,1/2+y,1/2-z
-x,-y,-z
x,1/2+y,1/2-z
-x,y,z
x,1/2-y,1/2+z
1/2+x,1/2+y,z
1/2-x,-y,1/2+z
1/2+x,1/2-y,-z
1/2-x,y,1/2-z
1/2-x,1/2-y,-z
1/2+x,y,1/2-z
1/2-x,1/2+y,z
1/2+x,-y,1/2+z
loop_
_atom_site_type_symbol
_atom_site_label
_atom_site_fract_x
_atom_site_fract_y
_atom_site_fract_z
Si Si1 0.267185 0.945881 0.067133
Si Si2 0.705689 0.314990 0.983166
Si Si3 0.677242 0.368275 0.287830
Si Si4 0.073187 0.366092 0.483775
Si Si5 0.317730 0.290352 0.801033
Si Si6 0.130413 0.540235 0.649343
Si Si7 0.924616 0.104427 0.175541
O O1 0.323055 0.917692 0.131124
O O2 0.204845 0.978407 0.117158
O O3 0.242660 0.881301 0.015862
O O4 0.296925 0.000000 0.000000
O O5 0.699678 0.323231 0.887427
O O6 0.750000 0.250000 0.000000
O O7 0.632882 0.309653 0.028677
O O8 0.750000 0.364435 0.250000
O O9 0.655808 0.289010 0.308012
O O10 0.629053 0.399956 0.219058
O O11 0.084897 0.432937 0.425802
O O12 0.078232 0.389540 0.577421
O O13 0.000000 0.333832 0.465135
O O14 0.250000 0.297804 0.750000
O O15 0.379549 0.339645 0.773292
O O16 0.100450 0.473139 0.694048
O O17 0.000000 0.114447 0.207609
#
# Coordination Sequence:
#
# PCOD8261683 Si02
#       7
#    16  16  16  16  16  16  16
#     4  10  18  30  49  78 105 136 176 219 259 314
#     4  10  18  31  53  76 105 136 175 213 261 311
#     4   9  19  32  48  72 107 139 174 218 264 311
#     4   9  18  31  51  78 104 131 168 214 266 318
#     4  10  20  34  53  76 107 144 173 217 269 313
#     4  10  18  30  51  74 105 137 170 213 270 321
#     4  10  20  34  52  77 108 137 174 220 267 318
#
# _framework density 17.798211999999999
#
# number of rings (size 3 to 8) (size 9 to 14) (size 15 to 20)
#    0.000    2.286    1.429    3.429    2.000    4.000 
#    0.000    1.429    0.000    0.000    0.000    0.000 
#    0.000    4.571    0.000    0.000    0.000    0.000 
#
# Total GULP energy -693859.950442 kJ/mol
# GULP energy per Si atom -12390.356258 kJ/mol
# Density = 1.775770 g / cm^3
# Si number density = 17.798212 Si / 1000 Ang^3
#
#
#
# Elastic Constant Matrix: (Units=GPa)
#
#
# Indices 1 2 3 4 5 6 
#
# 1 86.6232 62.6501 14.7904 0.0000 0.0000 0.0000
# 2 62.6501 103.6329 26.6542 0.0000 0.0000 0.0000
# 3 14.7904 26.6542 53.0510 0.0000 0.0000 0.0000
# 4 0.0000 0.0000 0.0000 24.7880 0.0000 0.0000
# 5 0.0000 0.0000 0.0000 0.0000 16.7094 0.0000
# 6 0.0000 0.0000 0.0000 0.0000 0.0000 20.6227
#
#
#
# Elastic Compliance Matrix: (Units=1/GPa)
#
#
# Indices 1 2 3 4 5 6 
#
# 1 0.020529 -0.012562 0.000588 0.000000 0.000000 0.000000
# 2 -0.012562 0.018768 -0.005927 0.000000 0.000000 0.000000
# 3 0.000588 -0.005927 0.021664 0.000000 0.000000 0.000000
# 4 0.000000 0.000000 0.000000 0.040342 0.000000 0.000000
# 5 0.000000 0.000000 0.000000 0.000000 0.059846 0.000000
# 6 0.000000 0.000000 0.000000 0.000000 0.000000 0.048490
#
#
# Mechanical properties :
#
#
# Convention : Reuss Voigt Hill
#
# Bulk Modulus (GPa) = 39.74780 50.16627 44.95703
# Shear Modulus (GPa) = 19.69830 21.70487 20.70158
#
# Velocity S-wave (km/s) = 3.33041 3.49592 3.41416
# Velocity P-wave (km/s) = 6.09670 6.67402 6.39188
#
# Compressibility (1/GPa) = 0.02515863
#
# Stress axis : x y z
#
# Youngs Moduli (GPa) = 48.71091 53.28174 46.15970
#
# Poissons Ratio (x) = 0.66932 -0.02714
# Poissons Ratio (y) = 0.61191 0.27361
# Poissons Ratio (z) = -0.02864 0.31582
#
# Static dielectric constant tensor:
#      x y z
#    x 3.609050 0.000000 0.000000 
#    y 0.000000 3.669830 0.000000 
#    z 0.000000 0.000000 3.549190 
# 
# 
# High freq. dielectric constant tensor:
#      x y z
#    x 1.662990 0.000000 0.000000 
#    y 0.000000 1.684850 0.000000 
#    z 0.000000 0.000000 1.676240 
# 
# From -- ./inp_files/34520.got.cif
#   From: 2010.03.12/outbox.cif.g09.slc.cpg/sg64_18_cif.got.tgz:34520.got - 2010.04.10 20:19:32.
