data_PCOD8261944
_publ_section_title
;
Structure prediction by ZEFSAII (Michael W. Deem and Ramdas Pophale) SiO2 
 PCOD8261944
Probable space group: C M C A
;
_chemical_formula_sum "Si O2"
_cell_formula_units_Z 96
_cell_length_a 25.801528
_cell_length_b 21.380946
_cell_length_c 8.765893
_cell_angle_alpha 90.000000
_cell_angle_beta 90.000000
_cell_angle_gamma 90.000000
_cell_volume 4835.801972
_symmetry_space_group_name_H-M "C M C A"
_symmetry_group_IT_number 64
_symmetry_cell_setting 'orthorhombic'
loop_
_space_group_symop_operation_xyz
x,y,z
-x,1/2-y,1/2+z
x,-y,-z
-x,1/2+y,1/2-z
-x,-y,-z
x,1/2+y,1/2-z
-x,y,z
x,1/2-y,1/2+z
1/2+x,1/2+y,z
1/2-x,-y,1/2+z
1/2+x,1/2-y,-z
1/2-x,y,1/2-z
1/2-x,1/2-y,-z
1/2+x,y,1/2-z
1/2-x,1/2+y,z
1/2+x,-y,1/2+z
loop_
_atom_site_type_symbol
_atom_site_label
_atom_site_fract_x
_atom_site_fract_y
_atom_site_fract_z
Si Si1 0.163913 0.937072 0.166441
Si Si2 0.603417 0.162009 0.304819
Si Si3 0.695094 0.427168 0.831210
Si Si4 0.630963 0.742072 0.450743
Si Si5 0.443695 0.426983 0.024764
Si Si6 0.193161 0.184054 0.703432
O O1 0.187817 0.891497 0.293581
O O2 0.166929 0.008589 0.225095
O O3 0.199313 0.929945 0.014719
O O4 0.104628 0.913867 0.136018
O O5 0.661440 0.133761 0.290819
O O6 0.598313 0.216880 0.430851
O O7 0.593030 0.192059 0.137137
O O8 0.564389 0.107547 0.360133
O O9 0.750000 0.419527 0.750000
O O10 0.678329 0.706739 0.534862
O O11 0.653597 0.787759 0.324435
O O12 0.500000 0.405860 0.091876
O O13 0.444383 0.500000 0.000000
O O14 0.250000 0.206395 0.750000
#
# Coordination Sequence:
#
# PCOD8261944 Si02
#       6
#    16  16  16  16  16  16
#     4  10  19  37  52  84 116 141 196 244 281 356
#     4  10  20  38  55  82 114 144 194 237 277 343
#     4  10  19  32  54  74 114 150 183 234 286 326
#     4  10  22  35  54  75 118 156 191 232 280 329
#     4  10  18  36  67  88 104 142 191 244 294 339
#     4  11  21  34  53  80 115 157 196 230 277 344
#
# _framework density 19.851929999999999
#
# number of rings (size 3 to 8) (size 9 to 14) (size 15 to 20)
#    0.000    1.833    6.667    1.000    2.333    2.667 
#    0.000    0.833    0.000    1.000    0.000    2.333 
#    0.000    0.000    0.000    0.000    0.000    0.000 
#
# Total GULP energy -594716.939671 kJ/mol
# GULP energy per Si atom -12389.936243 kJ/mol
# Density = 1.980675 g / cm^3
# Si number density = 19.851930 Si / 1000 Ang^3
#
#
#
# Elastic Constant Matrix: (Units=GPa)
#
#
# Indices 1 2 3 4 5 6 
#
# 1 93.3466 12.8287 18.0357 0.0000 0.0000 0.0000
# 2 12.8287 106.5672 40.1545 0.0000 0.0000 0.0000
# 3 18.0357 40.1545 67.7251 0.0000 0.0000 0.0000
# 4 0.0000 0.0000 0.0000 23.9901 0.0000 0.0000
# 5 0.0000 0.0000 0.0000 0.0000 13.8543 0.0000
# 6 0.0000 0.0000 0.0000 0.0000 0.0000 -10.0446
#
#
#
# Elastic Compliance Matrix: (Units=1/GPa)
#
#
# Indices 1 2 3 4 5 6 
#
# 1 0.011301 -0.000292 -0.002837 0.000000 0.000000 0.000000
# 2 -0.000292 0.012091 -0.007091 0.000000 0.000000 0.000000
# 3 -0.002837 -0.007091 0.019725 0.000000 0.000000 0.000000
# 4 0.000000 0.000000 0.000000 0.041684 0.000000 0.000000
# 5 0.000000 0.000000 0.000000 0.000000 0.072180 0.000000
# 6 0.000000 0.000000 0.000000 0.000000 0.000000 -0.099556
#
#
# Mechanical properties :
#
#
# Convention : Reuss Voigt Hill
#
# Bulk Modulus (GPa) = 44.09465 45.51964 44.80715
# Shear Modulus (GPa) = 58.53267 18.66796 38.60031
#
# Velocity S-wave (km/s) = 5.43587 3.06986 4.41433
# Velocity P-wave (km/s) = 7.85227 5.96194 6.97147
#
# Compressibility (1/GPa) = 0.02267849
#
# Stress axis : x y z
#
# Youngs Moduli (GPa) = 88.48843 82.70792 50.69632
#
# Poissons Ratio (x) = 0.02411 0.14381
# Poissons Ratio (y) = 0.02580 0.35949
# Poissons Ratio (z) = 0.25101 0.58648
#
# Static dielectric constant tensor:
#      x y z
#    x 3.795860 0.000000 0.000000 
#    y 0.000000 4.059950 0.000000 
#    z 0.000000 0.000000 3.533520 
# 
# 
# High freq. dielectric constant tensor:
#      x y z
#    x 1.739710 0.000000 0.000000 
#    y 0.000000 1.798580 0.000000 
#    z 0.000000 0.000000 1.742580 
# 
# From -- ./inp_files/10540.got.cif
#   From: 2010.03.12/outbox.cif.g09.slc.cpg/sg64_6_cif.got.tgz:10540.got - 2010.04.10 20:19:32.
