data_PCOD8261447
_publ_section_title
;
Structure prediction by ZEFSAII (Michael W. Deem and Ramdas Pophale) SiO2 
 PCOD8261447
Probable space group: C M C A
;
_chemical_formula_sum "Si O2"
_cell_formula_units_Z 56
_cell_length_a 14.474988
_cell_length_b 13.219955
_cell_length_c 12.912113
_cell_angle_alpha 90.000000
_cell_angle_beta 90.000000
_cell_angle_gamma 90.000000
_cell_volume 2470.845029
_symmetry_space_group_name_H-M "C M C A"
_symmetry_group_IT_number 64
_symmetry_cell_setting 'orthorhombic'
loop_
_space_group_symop_operation_xyz
x,y,z
-x,1/2-y,1/2+z
x,-y,-z
-x,1/2+y,1/2-z
-x,-y,-z
x,1/2+y,1/2-z
-x,y,z
x,1/2-y,1/2+z
1/2+x,1/2+y,z
1/2-x,-y,1/2+z
1/2+x,1/2-y,-z
1/2-x,y,1/2-z
1/2-x,1/2-y,-z
1/2+x,y,1/2-z
1/2-x,1/2+y,z
1/2+x,-y,1/2+z
loop_
_atom_site_type_symbol
_atom_site_label
_atom_site_fract_x
_atom_site_fract_y
_atom_site_fract_z
Si Si1 0.648335 0.272697 0.392914
Si Si2 0.186793 0.895204 0.054491
Si Si3 0.500000 0.173789 0.259057
Si Si4 0.000000 0.882764 0.521458
Si Si5 0.000000 0.467286 0.383032
O O1 0.737372 0.343648 0.368942
O O2 0.674510 0.171540 0.452484
O O3 0.590824 0.238794 0.291257
O O4 0.590452 0.339740 0.470643
O O5 0.094785 0.902817 0.127865
O O6 0.217694 0.000000 0.000000
O O7 0.500000 0.153178 0.138991
O O8 0.500000 0.063298 0.309662
O O9 0.000000 0.000000 0.500000
O O10 0.000000 0.500000 0.500000
#
# Coordination Sequence:
#
# PCOD8261447 Si02
#       5
#    16  16   8   8   8
#     4  10  21  40  68 101 138 183 232 294 351 426
#     4  10  18  36  70 100 144 180 229 300 350 413
#     4  11  21  43  71  97 136 188 245 278 360 447
#     4  11  25  46  67 100 151 183 233 306 369 429
#     4  10  16  35  68 101 129 185 234 285 347 425
#
# _framework density 22.664311000000001
#
# number of rings (size 3 to 8) (size 9 to 14) (size 15 to 20)
#    0.000    1.714    5.714    1.714    0.000    0.000 
#   10.286    5.714    6.286    0.000    0.000    0.000 
#    0.000    0.000    0.000    0.000    0.000    0.000 
#
# Total GULP energy -346930.044587 kJ/mol
# GULP energy per Si atom -12390.358735 kJ/mol
# Density = 2.261273 g / cm^3
# Si number density = 22.664311 Si / 1000 Ang^3
#
#
#
# Elastic Constant Matrix: (Units=GPa)
#
#
# Indices 1 2 3 4 5 6 
#
# 1 185.3787 77.2533 48.3052 0.0000 0.0000 0.0000
# 2 77.2533 163.7608 46.4261 0.0000 0.0000 0.0000
# 3 48.3052 46.4261 101.1612 0.0000 0.0000 0.0000
# 4 0.0000 0.0000 0.0000 28.8685 0.0000 0.0000
# 5 0.0000 0.0000 0.0000 0.0000 8.2465 0.0000
# 6 0.0000 0.0000 0.0000 0.0000 0.0000 19.7707
#
#
#
# Elastic Compliance Matrix: (Units=1/GPa)
#
#
# Indices 1 2 3 4 5 6 
#
# 1 0.007092 -0.002742 -0.002128 0.000000 0.000000 0.000000
# 2 -0.002742 0.008080 -0.002399 0.000000 0.000000 0.000000
# 3 -0.002128 -0.002399 0.012002 0.000000 0.000000 0.000000
# 4 0.000000 0.000000 0.000000 0.034640 0.000000 0.000000
# 5 0.000000 0.000000 0.000000 0.000000 0.121264 0.000000
# 6 0.000000 0.000000 0.000000 0.000000 0.000000 0.050580
#
#
# Mechanical properties :
#
#
# Convention : Reuss Voigt Hill
#
# Bulk Modulus (GPa) = 79.13740 88.25220 83.69480
# Shear Modulus (GPa) = 19.80926 29.93155 24.87040
#
# Velocity S-wave (km/s) = 2.95961 3.63801 3.31620
# Velocity P-wave (km/s) = 6.83169 7.52796 7.18826
#
# Compressibility (1/GPa) = 0.01263625
#
# Stress axis : x y z
#
# Youngs Moduli (GPa) = 141.01250 123.76023 83.31846
#
# Poissons Ratio (x) = 0.33937 0.17729
# Poissons Ratio (y) = 0.38668 0.19987
# Poissons Ratio (z) = 0.30005 0.29688
#
# Static dielectric constant tensor:
#      x y z
#    x 5.769910 0.000000 0.000000 
#    y 0.000000 4.235780 0.000000 
#    z 0.000000 0.000000 3.497530 
# 
# 
# High freq. dielectric constant tensor:
#      x y z
#    x 1.907740 0.000000 0.000000 
#    y 0.000000 1.917680 0.000000 
#    z 0.000000 0.000000 1.861960 
# 
# From -- ./inp_files/23060.got.cif
#   From: 2010.03.12/outbox.cif.g09.slc.cpg/sg64_12_cif.got.tgz:23060.got - 2010.04.10 20:19:32.
