data_PCOD8261609
_publ_section_title
;
Structure prediction by ZEFSAII (Michael W. Deem and Ramdas Pophale) SiO2 
 PCOD8261609
Probable space group: C M C A
;
_chemical_formula_sum "Si O2"
_cell_formula_units_Z 96
_cell_length_a 8.629595
_cell_length_b 23.082460
_cell_length_c 26.461276
_cell_angle_alpha 90.000000
_cell_angle_beta 90.000000
_cell_angle_gamma 90.000000
_cell_volume 5270.881935
_symmetry_space_group_name_H-M "C M C A"
_symmetry_group_IT_number 64
_symmetry_cell_setting 'orthorhombic'
loop_
_space_group_symop_operation_xyz
x,y,z
-x,1/2-y,1/2+z
x,-y,-z
-x,1/2+y,1/2-z
-x,-y,-z
x,1/2+y,1/2-z
-x,y,z
x,1/2-y,1/2+z
1/2+x,1/2+y,z
1/2-x,-y,1/2+z
1/2+x,1/2-y,-z
1/2-x,y,1/2-z
1/2-x,1/2-y,-z
1/2+x,y,1/2-z
1/2-x,1/2+y,z
1/2+x,-y,1/2+z
loop_
_atom_site_type_symbol
_atom_site_label
_atom_site_fract_x
_atom_site_fract_y
_atom_site_fract_z
Si Si1 0.179001 0.353504 0.121278
Si Si2 0.829976 0.274276 0.451889
Si Si3 0.684141 0.571957 0.454969
Si Si4 0.317543 0.753083 0.194614
Si Si5 0.818148 0.051602 0.939194
Si Si6 0.831172 0.331156 0.878832
O O1 0.206022 0.319390 0.069362
O O2 0.242653 0.311984 0.166418
O O3 0.275548 0.412738 0.112166
O O4 0.000000 0.369019 0.128992
O O5 0.750000 0.250000 0.500000
O O6 0.858507 0.222534 0.414387
O O7 0.000000 0.303219 0.462535
O O8 0.500000 0.578389 0.462290
O O9 0.766406 0.584408 0.508988
O O10 0.725966 0.508330 0.435412
O O11 0.745075 0.616949 0.411925
O O12 0.500000 0.755776 0.196541
O O13 0.250000 0.753680 0.250000
O O14 0.272748 0.692269 0.167583
O O15 0.000000 0.039265 0.940775
O O16 0.000000 0.351251 0.857769
#
# Coordination Sequence:
#
# PCOD8261609 Si02
#       6
#    16  16  16  16  16  16
#     4  10  20  34  50  71  98 132 170 208 252 303
#     4  10  18  28  44  69 100 132 163 201 246 298
#     4  10  19  33  52  74 105 144 177 209 246 294
#     4  10  21  36  57  79 101 128 162 208 261 312
#     4  11  21  32  49  75 106 141 177 214 249 293
#     4   9  19  33  50  72  99 131 168 206 249 298
#
# _framework density 18.213270999999999
#
# number of rings (size 3 to 8) (size 9 to 14) (size 15 to 20)
#    0.000    2.000    0.000    5.500    0.000    5.333 
#    0.000    0.000    0.000    1.000    0.000    4.667 
#    0.000    0.000    0.000    0.000    0.000    0.000 
#
# Total GULP energy -594715.437439 kJ/mol
# GULP energy per Si atom -12389.904947 kJ/mol
# Density = 1.817182 g / cm^3
# Si number density = 18.213271 Si / 1000 Ang^3
#
#
#
# Elastic Constant Matrix: (Units=GPa)
#
#
# Indices 1 2 3 4 5 6 
#
# 1 62.5286 11.5137 30.0612 0.0000 0.0000 0.0000
# 2 11.5137 73.8861 34.3586 0.0000 0.0000 0.0000
# 3 30.0612 34.3586 82.8753 0.0000 0.0000 0.0000
# 4 0.0000 0.0000 0.0000 28.3966 0.0000 0.0000
# 5 0.0000 0.0000 0.0000 0.0000 21.1332 0.0000
# 6 0.0000 0.0000 0.0000 0.0000 0.0000 24.2873
#
#
#
# Elastic Compliance Matrix: (Units=1/GPa)
#
#
# Indices 1 2 3 4 5 6 
#
# 1 0.019376 0.000308 -0.007156 0.000000 0.000000 0.000000
# 2 0.000308 0.016772 -0.007065 0.000000 0.000000 0.000000
# 3 -0.007156 -0.007065 0.017591 0.000000 0.000000 0.000000
# 4 0.000000 0.000000 0.000000 0.035215 0.000000 0.000000
# 5 0.000000 0.000000 0.000000 0.000000 0.047319 0.000000
# 6 0.000000 0.000000 0.000000 0.000000 0.000000 0.041174
#
#
# Mechanical properties :
#
#
# Convention : Reuss Voigt Hill
#
# Bulk Modulus (GPa) = 38.59019 41.23965 39.91492
# Shear Modulus (GPa) = 23.37425 24.32055 23.84740
#
# Velocity S-wave (km/s) = 3.58629 3.65817 3.62241
# Velocity P-wave (km/s) = 6.19537 6.36669 6.28161
#
# Compressibility (1/GPa) = 0.02591332
#
# Stress axis : x y z
#
# Youngs Moduli (GPa) = 51.60951 59.62427 56.84690
#
# Poissons Ratio (x) = -0.01839 0.40680
# Poissons Ratio (y) = -0.01591 0.40163
# Poissons Ratio (z) = 0.36933 0.42125
#
# Static dielectric constant tensor:
#      x y z
#    x 3.535980 0.000000 0.000000 
#    y 0.000000 3.539280 0.000000 
#    z 0.000000 0.000000 3.245720 
# 
# 
# High freq. dielectric constant tensor:
#      x y z
#    x 1.715210 0.000000 0.000000 
#    y 0.000000 1.703120 0.000000 
#    z 0.000000 0.000000 1.674010 
# 
# From -- ./inp_files/48378.got.cif
#   From: 2010.03.12/outbox.cif.g09.slc.cpg/sg64_25_cif.got.tgz:48378.got - 2010.04.10 20:19:32.
