data_PCOD8261158
_publ_section_title
;
Structure prediction by ZEFSAII (Michael W. Deem and Ramdas Pophale) SiO2 
 PCOD8261158
Probable space group: C M C M
;
_chemical_formula_sum "Si O2"
_cell_formula_units_Z 96
_cell_length_a 22.990649
_cell_length_b 11.559991
_cell_length_c 18.238714
_cell_angle_alpha 90.000000
_cell_angle_beta 90.000000
_cell_angle_gamma 90.000000
_cell_volume 4847.333944
_symmetry_space_group_name_H-M "C M C M"
_symmetry_group_IT_number 63
_symmetry_cell_setting 'orthorhombic'
loop_
_space_group_symop_operation_xyz
x,y,z
-x,-y,1/2+z
x,-y,-z
-x,y,1/2-z
-x,-y,-z
x,y,1/2-z
-x,y,z
x,-y,1/2+z
1/2+x,1/2+y,z
1/2-x,1/2-y,1/2+z
1/2+x,1/2-y,-z
1/2-x,1/2+y,1/2-z
1/2-x,1/2-y,-z
1/2+x,1/2+y,1/2-z
1/2-x,1/2+y,z
1/2+x,1/2-y,1/2+z
loop_
_atom_site_type_symbol
_atom_site_label
_atom_site_fract_x
_atom_site_fract_y
_atom_site_fract_z
Si Si1 0.935443 0.329775 0.668479
Si Si2 0.145631 0.888419 0.333752
Si Si3 0.647429 0.974526 0.915924
Si Si4 0.844282 0.286198 0.163908
Si Si5 0.066045 0.097144 0.163527
Si Si6 0.733422 0.764782 0.584723
O O1 0.932546 0.383598 0.750000
O O2 0.900128 0.213344 0.664984
O O3 0.913530 0.426660 0.612870
O O4 0.000000 0.296309 0.645072
O O5 0.167794 0.911010 0.250000
O O6 0.199455 0.850451 0.386027
O O7 0.110499 0.998849 0.366554
O O8 0.697001 0.880344 0.901648
O O9 0.661907 0.090399 0.873414
O O10 0.639899 0.000000 0.000000
O O11 0.837272 0.300354 0.250000
O O12 0.904998 0.221447 0.144318
O O13 0.790834 0.211650 0.132565
O O14 0.061459 0.079214 0.250000
O O15 0.000000 0.090760 0.130188
O O16 0.750000 0.750000 0.500000
#
# Coordination Sequence:
#
# PCOD8261158 Si02
#       6
#    16  16  16  16  16  16
#     4   9  18  34  59  88 116 151 197 249 301 357
#     4   9  18  35  62  92 118 153 205 258 303 360
#     4  11  23  40  59  85 119 161 200 246 308 371
#     4  11  24  39  62  92 121 159 204 250 302 372
#     4   9  19  37  62  93 126 159 199 253 312 364
#     4  11  23  40  61  86 122 163 204 254 313 365
#
# _framework density 19.804701999999999
#
# number of rings (size 3 to 8) (size 9 to 14) (size 15 to 20)
#    0.000    2.000    1.667    1.500    2.333    5.000 
#    0.000    1.667    0.000    1.000    0.000    0.000 
#    0.000    0.000    0.000    0.000    0.000    0.000 
#
# Total GULP energy -595032.254819 kJ/mol
# GULP energy per Si atom -12396.505309 kJ/mol
# Density = 1.975963 g / cm^3
# Si number density = 19.804702 Si / 1000 Ang^3
#
#
#
# Elastic Constant Matrix: (Units=GPa)
#
#
# Indices 1 2 3 4 5 6 
#
# 1 115.9155 35.9365 48.8202 0.0000 0.0000 0.0000
# 2 35.9365 97.0363 44.0445 0.0000 0.0000 0.0000
# 3 48.8202 44.0445 101.0271 0.0000 0.0000 0.0000
# 4 0.0000 0.0000 0.0000 28.7569 0.0000 0.0000
# 5 0.0000 0.0000 0.0000 0.0000 26.3546 0.0000
# 6 0.0000 0.0000 0.0000 0.0000 0.0000 27.1330
#
#
#
# Elastic Compliance Matrix: (Units=1/GPa)
#
#
# Indices 1 2 3 4 5 6 
#
# 1 0.011165 -0.002102 -0.004479 0.000000 0.000000 0.000000
# 2 -0.002102 0.013243 -0.004758 0.000000 0.000000 0.000000
# 3 -0.004479 -0.004758 0.014137 0.000000 0.000000 0.000000
# 4 0.000000 0.000000 0.000000 0.034774 0.000000 0.000000
# 5 0.000000 0.000000 0.000000 0.000000 0.037944 0.000000
# 6 0.000000 0.000000 0.000000 0.000000 0.000000 0.036855
#
#
# Mechanical properties :
#
#
# Convention : Reuss Voigt Hill
#
# Bulk Modulus (GPa) = 63.02067 63.50903 63.26485
# Shear Modulus (GPa) = 28.39514 28.79409 28.59462
#
# Velocity S-wave (km/s) = 3.79061 3.81714 3.80390
# Velocity P-wave (km/s) = 7.14482 7.18086 7.16286
#
# Compressibility (1/GPa) = 0.01586781
#
# Stress axis : x y z
#
# Youngs Moduli (GPa) = 89.56535 75.50886 70.73577
#
# Poissons Ratio (x) = 0.15871 0.31683
# Poissons Ratio (y) = 0.18825 0.33656
# Poissons Ratio (z) = 0.40117 0.35927
#
# Static dielectric constant tensor:
#      x y z
#    x 3.937480 0.000000 0.000000 
#    y 0.000000 3.664690 0.000000 
#    z 0.000000 0.000000 3.505610 
# 
# 
# High freq. dielectric constant tensor:
#      x y z
#    x 1.782020 0.000000 0.000000 
#    y 0.000000 1.775570 0.000000 
#    z 0.000000 0.000000 1.753510 
# 
# From -- ./inp_files/47985.got.cif
#   From: 2010.03.12/outbox.cif.g09.slc.cpg/sg63_24_cif.got.tgz:47985.got - 2010.04.10 19:34:48.
