data_PCOD8261429
_publ_section_title
;
Structure prediction by ZEFSAII (Michael W. Deem and Ramdas Pophale) SiO2 
 PCOD8261429
Probable space group: C M C A
;
_chemical_formula_sum "Si O2"
_cell_formula_units_Z 88
_cell_length_a 22.015469
_cell_length_b 20.388937
_cell_length_c 9.112580
_cell_angle_alpha 90.000000
_cell_angle_beta 90.000000
_cell_angle_gamma 90.000000
_cell_volume 4090.382105
_symmetry_space_group_name_H-M "C M C A"
_symmetry_group_IT_number 64
_symmetry_cell_setting 'orthorhombic'
loop_
_space_group_symop_operation_xyz
x,y,z
-x,1/2-y,1/2+z
x,-y,-z
-x,1/2+y,1/2-z
-x,-y,-z
x,1/2+y,1/2-z
-x,y,z
x,1/2-y,1/2+z
1/2+x,1/2+y,z
1/2-x,-y,1/2+z
1/2+x,1/2-y,-z
1/2-x,y,1/2-z
1/2-x,1/2-y,-z
1/2+x,y,1/2-z
1/2-x,1/2+y,z
1/2+x,-y,1/2+z
loop_
_atom_site_type_symbol
_atom_site_label
_atom_site_fract_x
_atom_site_fract_y
_atom_site_fract_z
Si Si1 0.129535 0.567599 0.680377
Si Si2 0.000000 0.404790 0.726888
Si Si3 0.000000 0.549622 0.766471
Si Si4 0.500000 0.340024 0.481654
Si Si5 0.132953 0.080383 0.144191
Si Si6 0.816460 0.298513 0.805645
Si Si7 0.131788 0.688118 0.881216
O O1 0.157578 0.587566 0.522535
O O2 0.147075 0.491690 0.712365
O O3 0.150109 0.617503 0.809225
O O4 0.056818 0.570317 0.666596
O O5 0.000000 0.473956 0.811866
O O6 0.938476 0.401640 0.632880
O O7 0.000000 0.345183 0.842760
O O8 0.000000 0.586484 0.920683
O O9 0.438428 0.304528 0.429846
O O10 0.168057 0.129237 0.249476
O O11 0.750000 0.278857 0.750000
O O12 0.861395 0.244162 0.740316
O O13 0.823211 0.299367 0.981820
#
# Coordination Sequence:
#
# PCOD8261429 Si02
#       7
#    16   8   8   8  16  16  16
#     4   9  19  37  61  97 129 162 202 251 319 389
#     4  10  16  31  59  91 129 158 199 248 320 384
#     4   8  16  28  55  91 132 164 184 238 312 404
#     4  10  19  35  58  98 125 152 206 256 327 377
#     4  10  20  37  64  94 129 163 204 257 318 386
#     4  12  26  45  63  86 121 172 222 264 316 378
#     4  11  24  42  66  92 126 164 212 264 324 385
#
# _framework density 21.513883
#
# number of rings (size 3 to 8) (size 9 to 14) (size 15 to 20)
#    0.000    1.818    1.818    2.455    0.000    4.364 
#    0.000    6.364    0.000    0.000    0.000    0.000 
#    0.000    0.000    0.000    0.000    0.000    0.000 
#
# Total GULP energy -545376.025627 kJ/mol
# GULP energy per Si atom -12394.909673 kJ/mol
# Density = 2.146492 g / cm^3
# Si number density = 21.513883 Si / 1000 Ang^3
#
#
#
# Elastic Constant Matrix: (Units=GPa)
#
#
# Indices 1 2 3 4 5 6 
#
# 1 60.9852 20.0916 20.2812 0.0000 0.0000 0.0000
# 2 20.0916 110.7838 55.6795 0.0000 0.0000 0.0000
# 3 20.2812 55.6795 122.5963 0.0000 0.0000 0.0000
# 4 0.0000 0.0000 0.0000 40.8228 0.0000 0.0000
# 5 0.0000 0.0000 0.0000 0.0000 18.7983 0.0000
# 6 0.0000 0.0000 0.0000 0.0000 0.0000 13.8899
#
#
#
# Elastic Compliance Matrix: (Units=1/GPa)
#
#
# Indices 1 2 3 4 5 6 
#
# 1 0.017779 -0.002263 -0.001914 0.000000 0.000000 0.000000
# 2 -0.002263 0.011984 -0.005069 0.000000 0.000000 0.000000
# 3 -0.001914 -0.005069 0.010775 0.000000 0.000000 0.000000
# 4 0.000000 0.000000 0.000000 0.024496 0.000000 0.000000
# 5 0.000000 0.000000 0.000000 0.000000 0.053196 0.000000
# 6 0.000000 0.000000 0.000000 0.000000 0.000000 0.071995
#
#
# Mechanical properties :
#
#
# Convention : Reuss Voigt Hill
#
# Bulk Modulus (GPa) = 45.35290 54.05221 49.70255
# Shear Modulus (GPa) = 23.14112 27.92309 25.53210
#
# Velocity S-wave (km/s) = 3.28325 3.60656 3.44869
# Velocity P-wave (km/s) = 5.95814 6.52088 6.24585
#
# Compressibility (1/GPa) = 0.02204931
#
# Stress axis : x y z
#
# Youngs Moduli (GPa) = 56.24535 83.44171 92.80354
#
# Poissons Ratio (x) = 0.18880 0.17759
# Poissons Ratio (y) = 0.12726 0.47039
# Poissons Ratio (z) = 0.10763 0.42294
#
# Static dielectric constant tensor:
#      x y z
#    x 3.671930 0.000000 0.000000 
#    y 0.000000 3.869620 0.000000 
#    z 0.000000 0.000000 3.750310 
# 
# 
# High freq. dielectric constant tensor:
#      x y z
#    x 1.818690 0.000000 0.000000 
#    y 0.000000 1.844640 0.000000 
#    z 0.000000 0.000000 1.844880 
# 
# From -- ./inp_files/9372.got.cif
#   From: 2010.03.12/outbox.cif.g09.slc.cpg/sg64_5_cif.got.tgz:9372.got - 2010.04.10 20:19:32.
