data_PCOD8261427
_publ_section_title
;
Structure prediction by ZEFSAII (Michael W. Deem and Ramdas Pophale) SiO2 
 PCOD8261427
Probable space group: C M C A
;
_chemical_formula_sum "Si O2"
_cell_formula_units_Z 112
_cell_length_a 18.380645
_cell_length_b 21.649051
_cell_length_c 16.594743
_cell_angle_alpha 90.000000
_cell_angle_beta 90.000000
_cell_angle_gamma 90.000000
_cell_volume 6603.438565
_symmetry_space_group_name_H-M "C M C A"
_symmetry_group_IT_number 64
_symmetry_cell_setting 'orthorhombic'
loop_
_space_group_symop_operation_xyz
x,y,z
-x,1/2-y,1/2+z
x,-y,-z
-x,1/2+y,1/2-z
-x,-y,-z
x,1/2+y,1/2-z
-x,y,z
x,1/2-y,1/2+z
1/2+x,1/2+y,z
1/2-x,-y,1/2+z
1/2+x,1/2-y,-z
1/2-x,y,1/2-z
1/2-x,1/2-y,-z
1/2+x,y,1/2-z
1/2-x,1/2+y,z
1/2+x,-y,1/2+z
loop_
_atom_site_type_symbol
_atom_site_label
_atom_site_fract_x
_atom_site_fract_y
_atom_site_fract_z
Si Si1 0.082558 0.023035 0.652590
Si Si2 0.086559 0.883183 0.614120
Si Si3 0.825163 0.291755 0.779367
Si Si4 0.716283 0.663287 0.838774
Si Si5 0.578539 0.783357 0.171962
Si Si6 0.079065 0.395030 0.296873
Si Si7 0.850590 0.130532 0.557938
O O1 0.093217 0.042568 0.745864
O O2 0.132634 0.062983 0.593563
O O3 0.000000 0.035588 0.624613
O O4 0.102195 0.951624 0.645629
O O5 0.116611 0.837392 0.681835
O O6 0.137846 0.872043 0.537210
O O7 0.000000 0.871991 0.598563
O O8 0.750000 0.324414 0.750000
O O9 0.806900 0.235291 0.840385
O O10 0.861421 0.266220 0.697231
O O11 0.750000 0.647764 0.750000
O O12 0.646379 0.618732 0.856398
O O13 0.769751 0.649045 0.912867
O O14 0.500000 0.750797 0.166308
O O15 0.577737 0.838098 0.236036
O O16 0.596243 0.814849 0.086952
O O17 0.000000 0.399335 0.341525
#
# Coordination Sequence:
#
# PCOD8261427 Si02
#       7
#    16  16  16  16  16  16  16
#     4   9  17  31  49  73 105 133 161 200 251 311
#     4  11  23  34  49  77 110 139 165 204 261 319
#     4  10  19  36  48  67  99 136 174 211 251 295
#     4  10  16  31  51  74  99 129 172 215 251 290
#     4   9  15  27  50  70  90 128 171 208 245 298
#     4   8  14  26  48  73  95 126 166 205 245 289
#     4  11  18  31  53  76 103 131 163 215 263 304
#
# _framework density 16.96086
#
# number of rings (size 3 to 8) (size 9 to 14) (size 15 to 20)
#    0.000    2.286    5.714    3.000    0.000    2.286 
#    2.571    0.000    0.000    0.000    0.000    0.000 
#    0.000    2.286    0.000    0.000    0.000    0.857 
#
# Total GULP energy -693871.657995 kJ/mol
# GULP energy per Si atom -12390.565321 kJ/mol
# Density = 1.692226 g / cm^3
# Si number density = 16.960860 Si / 1000 Ang^3
#
#
#
# Elastic Constant Matrix: (Units=GPa)
#
#
# Indices 1 2 3 4 5 6 
#
# 1 99.3397 28.1818 25.7811 0.0000 0.0000 0.0000
# 2 28.1818 72.8556 25.0785 0.0000 0.0000 0.0000
# 3 25.7811 25.0785 33.8508 0.0000 0.0000 0.0000
# 4 0.0000 0.0000 0.0000 12.5031 0.0000 0.0000
# 5 0.0000 0.0000 0.0000 0.0000 23.8246 0.0000
# 6 0.0000 0.0000 0.0000 0.0000 0.0000 21.4138
#
#
#
# Elastic Compliance Matrix: (Units=1/GPa)
#
#
# Indices 1 2 3 4 5 6 
#
# 1 0.012790 -0.002140 -0.008156 0.000000 0.000000 0.000000
# 2 -0.002140 0.018782 -0.012285 0.000000 0.000000 0.000000
# 3 -0.008156 -0.012285 0.044854 0.000000 0.000000 0.000000
# 4 0.000000 0.000000 0.000000 0.079980 0.000000 0.000000
# 5 0.000000 0.000000 0.000000 0.000000 0.041973 0.000000
# 6 0.000000 0.000000 0.000000 0.000000 0.000000 0.046699
#
#
# Mechanical properties :
#
#
# Convention : Reuss Voigt Hill
#
# Bulk Modulus (GPa) = 31.98441 40.45876 36.22159
# Shear Modulus (GPa) = 16.62992 20.01527 18.32260
#
# Velocity S-wave (km/s) = 3.13467 3.43896 3.29034
# Velocity P-wave (km/s) = 5.65688 6.29878 5.98644
#
# Compressibility (1/GPa) = 0.03126523
#
# Stress axis : x y z
#
# Youngs Moduli (GPa) = 78.18497 53.24127 22.29442
#
# Poissons Ratio (x) = 0.11394 0.18182
# Poissons Ratio (y) = 0.16733 0.27389
# Poissons Ratio (z) = 0.63765 0.65407
#
# Static dielectric constant tensor:
#      x y z
#    x 3.701400 0.000000 0.000000 
#    y 0.000000 3.102250 0.000000 
#    z 0.000000 0.000000 2.765270 
# 
# 
# High freq. dielectric constant tensor:
#      x y z
#    x 1.670590 0.000000 0.000000 
#    y 0.000000 1.634270 0.000000 
#    z 0.000000 0.000000 1.601250 
# 
# From -- ./inp_files/33586.got.cif
#   From: 2010.03.12/outbox.cif.g09.slc.cpg/sg64_17_cif.got.tgz:33586.got - 2010.04.10 20:19:32.
