data_PCOD8261446
_publ_section_title
;
Structure prediction by ZEFSAII (Michael W. Deem and Ramdas Pophale) SiO2 
 PCOD8261446
Probable space group: C M C A
;
_chemical_formula_sum "Si O2"
_cell_formula_units_Z 64
_cell_length_a 9.419982
_cell_length_b 17.083182
_cell_length_c 20.394181
_cell_angle_alpha 90.000000
_cell_angle_beta 90.000000
_cell_angle_gamma 90.000000
_cell_volume 3281.898233
_symmetry_space_group_name_H-M "C M C A"
_symmetry_group_IT_number 64
_symmetry_cell_setting 'orthorhombic'
loop_
_space_group_symop_operation_xyz
x,y,z
-x,1/2-y,1/2+z
x,-y,-z
-x,1/2+y,1/2-z
-x,-y,-z
x,1/2+y,1/2-z
-x,y,z
x,1/2-y,1/2+z
1/2+x,1/2+y,z
1/2-x,-y,1/2+z
1/2+x,1/2-y,-z
1/2-x,y,1/2-z
1/2-x,1/2-y,-z
1/2+x,y,1/2-z
1/2-x,1/2+y,z
1/2+x,-y,1/2+z
loop_
_atom_site_type_symbol
_atom_site_label
_atom_site_fract_x
_atom_site_fract_y
_atom_site_fract_z
Si Si1 0.500000 0.809304 0.953403
Si Si2 0.500000 0.442511 0.209139
Si Si3 0.000000 0.427580 0.142223
Si Si4 0.000000 0.128729 0.930694
Si Si5 0.750000 0.049123 0.250000
Si Si6 0.799000 0.416515 0.030102
Si Si7 0.000000 0.396581 0.828468
O O1 0.500000 0.716542 0.957443
O O2 0.500000 0.824038 0.876224
O O3 0.358362 0.846938 0.984448
O O4 0.500000 0.399965 0.281425
O O5 0.500000 0.381294 0.148907
O O6 0.355361 0.494787 0.205483
O O7 0.861056 0.399719 0.102930
O O8 0.000000 0.520641 0.135680
O O9 0.868657 0.085726 0.964118
O O10 0.852292 0.107743 0.288965
O O11 0.846414 0.500000 0.000000
#
# Coordination Sequence:
#
# PCOD8261446 Si02
#       7
#     8   8   8   8   8  16   8
#     4  11  23  39  59  79 124 163 187 232 309 354
#     4  10  19  33  57  87 115 146 188 247 296 332
#     4   9  17  36  64  83 106 150 208 228 285 355
#     4  12  24  36  54  94 124 144 192 256 298 331
#     4   8  18  32  58  84 108 148 196 244 280 340
#     4  11  21  39  62  87 110 161 204 240 277 355
#     4  10  16  35  54  81 109 148 193 236 286 344
#
# _framework density 19.500910000000001
#
# number of rings (size 3 to 8) (size 9 to 14) (size 15 to 20)
#    0.000    2.000    2.500    4.875    0.000    0.000 
#    0.000    3.750    0.000    0.000    0.000    0.000 
#    0.000    0.000    0.000    0.000    0.000    0.000 
#
# Total GULP energy -396418.725619 kJ/mol
# GULP energy per Si atom -12388.085176 kJ/mol
# Density = 1.945653 g / cm^3
# Si number density = 19.500910 Si / 1000 Ang^3
#
#
#
# Elastic Constant Matrix: (Units=GPa)
#
#
# Indices 1 2 3 4 5 6 
#
# 1 160.4165 9.6104 45.1432 0.0000 0.0000 0.0000
# 2 9.6104 51.9368 24.0259 0.0000 0.0000 0.0000
# 3 45.1432 24.0259 111.2955 0.0000 0.0000 0.0000
# 4 0.0000 0.0000 0.0000 27.8497 0.0000 0.0000
# 5 0.0000 0.0000 0.0000 0.0000 3.2461 0.0000
# 6 0.0000 0.0000 0.0000 0.0000 0.0000 17.3043
#
#
#
# Elastic Compliance Matrix: (Units=1/GPa)
#
#
# Indices 1 2 3 4 5 6 
#
# 1 0.007037 0.000020 -0.002859 0.000000 0.000000 0.000000
# 2 0.000020 0.021390 -0.004626 0.000000 0.000000 0.000000
# 3 -0.002859 -0.004626 0.011143 0.000000 0.000000 0.000000
# 4 0.000000 0.000000 0.000000 0.035907 0.000000 0.000000
# 5 0.000000 0.000000 0.000000 0.000000 0.308066 0.000000
# 6 0.000000 0.000000 0.000000 0.000000 0.000000 0.057789
#
#
# Mechanical properties :
#
#
# Convention : Reuss Voigt Hill
#
# Bulk Modulus (GPa) = 40.58104 53.46753 47.02428
# Shear Modulus (GPa) = 10.76482 26.00462 18.38472
#
# Velocity S-wave (km/s) = 2.35205 3.65568 3.07377
# Velocity P-wave (km/s) = 5.31330 6.73025 6.06331
#
# Compressibility (1/GPa) = 0.02464205
#
# Stress axis : x y z
#
# Youngs Moduli (GPa) = 142.10533 46.75002 89.74046
#
# Poissons Ratio (x) = -0.00095 0.25654
# Poissons Ratio (y) = -0.00289 0.41513
# Poissons Ratio (z) = 0.40624 0.21626
#
# Static dielectric constant tensor:
#      x y z
#    x 3.773860 0.000000 0.000000 
#    y 0.000000 3.026280 0.000000 
#    z 0.000000 0.000000 3.664140 
# 
# 
# High freq. dielectric constant tensor:
#      x y z
#    x 1.782410 0.000000 0.000000 
#    y 0.000000 1.712670 0.000000 
#    z 0.000000 0.000000 1.760650 
# 
# From -- ./inp_files/36364.got.cif
#   From: 2010.03.12/outbox.cif.g09.slc.cpg/sg64_19_cif.got.tgz:36364.got - 2010.04.10 20:19:32.
