data_PCOD8261316
_publ_section_title
;
Structure prediction by ZEFSAII (Michael W. Deem and Ramdas Pophale) SiO2 
 PCOD8261316
Probable space group: C M C M
;
_chemical_formula_sum "Si O2"
_cell_formula_units_Z 104
_cell_length_a 27.173852
_cell_length_b 24.259032
_cell_length_c 9.507733
_cell_angle_alpha 90.000000
_cell_angle_beta 90.000000
_cell_angle_gamma 90.000000
_cell_volume 6267.605461
_symmetry_space_group_name_H-M "C M C M"
_symmetry_group_IT_number 63
_symmetry_cell_setting 'orthorhombic'
loop_
_space_group_symop_operation_xyz
x,y,z
-x,-y,1/2+z
x,-y,-z
-x,y,1/2-z
-x,-y,-z
x,y,1/2-z
-x,y,z
x,-y,1/2+z
1/2+x,1/2+y,z
1/2-x,1/2-y,1/2+z
1/2+x,1/2-y,-z
1/2-x,1/2+y,1/2-z
1/2-x,1/2-y,-z
1/2+x,1/2+y,1/2-z
1/2-x,1/2+y,z
1/2+x,1/2-y,1/2+z
loop_
_atom_site_type_symbol
_atom_site_label
_atom_site_fract_x
_atom_site_fract_y
_atom_site_fract_z
Si Si1 0.819328 0.849013 0.085616
Si Si2 0.393264 0.556043 0.586432
Si Si3 0.558359 0.951518 0.094707
Si Si4 0.444056 0.170811 0.583650
Si Si5 0.634528 0.231230 0.408565
Si Si6 0.761306 0.695633 0.413261
Si Si7 0.000000 0.946620 0.409212
O O1 0.805001 0.851824 0.250000
O O2 0.853287 0.899604 0.037549
O O3 0.847945 0.792572 0.051850
O O4 0.769635 0.852791 0.990475
O O5 0.385886 0.500000 0.500000
O O6 0.386232 0.541616 0.750000
O O7 0.447840 0.584016 0.560271
O O8 0.581111 0.958226 0.250000
O O9 0.500000 0.957738 0.103360
O O10 0.570970 0.890949 0.033514
O O11 0.581639 0.000000 0.000000
O O12 0.438086 0.175194 0.750000
O O13 0.500000 0.183835 0.539004
O O14 0.409248 0.215286 0.511731
O O15 0.614014 0.230404 0.250000
O O16 0.679704 0.187465 0.422740
O O17 0.745104 0.701561 0.250000
O O18 0.750000 0.750000 0.500000
O O19 0.000000 0.967088 0.250000
O O20 0.000000 0.000000 0.500000
#
# Coordination Sequence:
#
# PCOD8261316 Si02
#       7
#    16  16  16  16  16  16   8
#     4   9  18  32  48  71  97 120 155 198 239 285
#     4   9  17  30  48  70  96 126 161 201 243 289
#     4   8  14  25  41  61  83 109 143 181 215 251
#     4   9  18  31  45  64  94 126 153 183 224 273
#     4   9  18  31  46  68  94 121 156 193 230 277
#     4   9  17  30  49  71  92 115 148 190 232 275
#     4   8  14  26  44  64  88 122 158 192 233 278
#
# _framework density 16.593259
#
# number of rings (size 3 to 8) (size 9 to 14) (size 15 to 20)
#    0.000    3.231    0.000    2.308    0.000    4.615 
#    1.385    1.538    0.000    0.923    0.000    0.000 
#    0.000    0.000    0.000    0.000    0.000    0.000 
#
# Total GULP energy -644204.833436 kJ/mol
# GULP energy per Si atom -12388.554489 kJ/mol
# Density = 1.655549 g / cm^3
# Si number density = 16.593259 Si / 1000 Ang^3
#
#
#
# Elastic Constant Matrix: (Units=GPa)
#
#
# Indices 1 2 3 4 5 6 
#
# 1 89.6724 47.2823 44.0810 0.0000 0.0000 0.0000
# 2 47.2823 69.5115 32.8187 0.0000 0.0000 0.0000
# 3 44.0810 32.8187 64.1950 0.0000 0.0000 0.0000
# 4 0.0000 0.0000 0.0000 26.2348 0.0000 0.0000
# 5 0.0000 0.0000 0.0000 0.0000 29.4080 0.0000
# 6 0.0000 0.0000 0.0000 0.0000 0.0000 25.0407
#
#
#
# Elastic Compliance Matrix: (Units=1/GPa)
#
#
# Indices 1 2 3 4 5 6 
#
# 1 0.020925 -0.009820 -0.009348 0.000000 0.000000 0.000000
# 2 -0.009820 0.023571 -0.005308 0.000000 0.000000 0.000000
# 3 -0.009348 -0.005308 0.024710 0.000000 0.000000 0.000000
# 4 0.000000 0.000000 0.000000 0.038117 0.000000 0.000000
# 5 0.000000 0.000000 0.000000 0.000000 0.034004 0.000000
# 6 0.000000 0.000000 0.000000 0.000000 0.000000 0.039935
#
#
# Mechanical properties :
#
#
# Convention : Reuss Voigt Hill
#
# Bulk Modulus (GPa) = 49.36999 52.41589 50.89294
# Shear Modulus (GPa) = 21.10003 22.74981 21.92492
#
# Velocity S-wave (km/s) = 3.56982 3.70676 3.63893
# Velocity P-wave (km/s) = 6.84172 7.06946 6.95652
#
# Compressibility (1/GPa) = 0.02025522
#
# Stress axis : x y z
#
# Youngs Moduli (GPa) = 47.79009 42.42427 40.46883
#
# Poissons Ratio (x) = 0.41659 0.37832
# Poissons Ratio (y) = 0.46928 0.21480
# Poissons Ratio (z) = 0.44676 0.22518
#
# Static dielectric constant tensor:
#      x y z
#    x 3.456060 0.000000 0.000000 
#    y 0.000000 2.865170 0.000000 
#    z 0.000000 0.000000 3.219720 
# 
# 
# High freq. dielectric constant tensor:
#      x y z
#    x 1.626930 0.000000 0.000000 
#    y 0.000000 1.608970 0.000000 
#    z 0.000000 0.000000 1.643140 
# 
# From -- ./inp_files/13093.got.cif
#   From: 2010.03.12/outbox.cif.g09.slc.cpg/sg63_7_cif.got.tgz:13093.got - 2010.04.10 19:34:48.
