data_PCOD8261945
_publ_section_title
;
Structure prediction by ZEFSAII (Michael W. Deem and Ramdas Pophale) SiO2 
 PCOD8261945
Probable space group: C M C A
;
_chemical_formula_sum "Si O2"
_cell_formula_units_Z 56
_cell_length_a 18.318230
_cell_length_b 9.176541
_cell_length_c 13.307262
_cell_angle_alpha 90.000000
_cell_angle_beta 90.000000
_cell_angle_gamma 90.000000
_cell_volume 2236.923977
_symmetry_space_group_name_H-M "C M C A"
_symmetry_group_IT_number 64
_symmetry_cell_setting 'orthorhombic'
loop_
_space_group_symop_operation_xyz
x,y,z
-x,1/2-y,1/2+z
x,-y,-z
-x,1/2+y,1/2-z
-x,-y,-z
x,1/2+y,1/2-z
-x,y,z
x,1/2-y,1/2+z
1/2+x,1/2+y,z
1/2-x,-y,1/2+z
1/2+x,1/2-y,-z
1/2-x,y,1/2-z
1/2-x,1/2-y,-z
1/2+x,y,1/2-z
1/2-x,1/2+y,z
1/2+x,-y,1/2+z
loop_
_atom_site_type_symbol
_atom_site_label
_atom_site_fract_x
_atom_site_fract_y
_atom_site_fract_z
Si Si1 0.879270 0.000000 0.000000
Si Si2 0.274680 0.697095 0.107976
Si Si3 0.500000 0.938827 0.799578
Si Si4 0.000000 0.371026 0.381874
Si Si5 0.844105 0.989167 0.380306
O O1 0.928680 0.870852 0.047307
O O2 0.832693 0.066775 0.091278
O O3 0.204542 0.624218 0.165970
O O4 0.311075 0.836352 0.163077
O O5 0.250000 0.750000 0.000000
O O6 0.500000 0.765078 0.807718
O O7 0.500000 0.980052 0.682674
O O8 0.571624 0.004098 0.851596
O O9 0.836557 0.000000 0.500000
#
# Coordination Sequence:
#
# PCOD8261945 Si02
#       5
#     8  16   8   8  16
#     4  11  22  44  74  93 136 188 238 269 340 414
#     4  10  18  36  71 103 125 171 230 277 325 405
#     4  12  27  46  64 103 143 173 230 281 352 404
#     4  11  28  44  68  98 140 184 226 284 340 409
#     4  10  21  38  71  99 136 171 223 274 341 407
#
# _framework density 25.034378
#
# number of rings (size 3 to 8) (size 9 to 14) (size 15 to 20)
#    0.000    1.429    4.286    3.857    4.000    1.143 
#    0.000    1.429    6.286    0.000    0.000    0.000 
#    0.000    0.000    0.000    0.000    0.000    0.000 
#
# Total GULP energy -347134.010374 kJ/mol
# GULP energy per Si atom -12397.643228 kJ/mol
# Density = 2.497740 g / cm^3
# Si number density = 25.034378 Si / 1000 Ang^3
#
#
#
# Elastic Constant Matrix: (Units=GPa)
#
#
# Indices 1 2 3 4 5 6 
#
# 1 207.7990 79.8144 14.5631 0.0000 0.0000 0.0000
# 2 79.8144 137.7686 11.8675 0.0000 0.0000 0.0000
# 3 14.5631 11.8675 19.5361 0.0000 0.0000 0.0000
# 4 0.0000 0.0000 0.0000 31.8216 0.0000 0.0000
# 5 0.0000 0.0000 0.0000 0.0000 25.6535 0.0000
# 6 0.0000 0.0000 0.0000 0.0000 0.0000 27.7605
#
#
#
# Elastic Compliance Matrix: (Units=1/GPa)
#
#
# Indices 1 2 3 4 5 6 
#
# 1 0.006314 -0.003432 -0.002622 0.000000 0.000000 0.000000
# 2 -0.003432 0.009525 -0.003228 0.000000 0.000000 0.000000
# 3 -0.002622 -0.003228 0.055102 0.000000 0.000000 0.000000
# 4 0.000000 0.000000 0.000000 0.031425 0.000000 0.000000
# 5 0.000000 0.000000 0.000000 0.000000 0.038981 0.000000
# 6 0.000000 0.000000 0.000000 0.000000 0.000000 0.036022
#
#
# Mechanical properties :
#
#
# Convention : Reuss Voigt Hill
#
# Bulk Modulus (GPa) = 19.09194 64.17711 41.63452
# Shear Modulus (GPa) = 23.43086 34.30436 28.86761
#
# Velocity S-wave (km/s) = 3.06264 3.70576 3.39944
# Velocity P-wave (km/s) = 4.48879 6.63336 5.66351
#
# Compressibility (1/GPa) = 0.05237813
#
# Stress axis : x y z
#
# Youngs Moduli (GPa) = 158.36717 104.98642 18.14800
#
# Poissons Ratio (x) = 0.36035 0.04759
# Poissons Ratio (y) = 0.54357 0.05857
# Poissons Ratio (z) = 0.41525 0.33885
#
# Static dielectric constant tensor:
#      x y z
#    x 5.091990 0.000000 0.000000 
#    y 0.000000 4.151290 0.000000 
#    z 0.000000 0.000000 3.430230 
# 
# 
# High freq. dielectric constant tensor:
#      x y z
#    x 2.020860 0.000000 0.000000 
#    y 0.000000 2.004060 0.000000 
#    z 0.000000 0.000000 1.962790 
# 
# From -- ./inp_files/25951.got.cif
#   From: 2010.03.12/outbox.cif.g09.slc.cpg/sg64_13_cif.got.tgz:25951.got - 2010.04.10 20:19:32.
