data_PCOD8261474
_publ_section_title
;
Structure prediction by ZEFSAII (Michael W. Deem and Ramdas Pophale) SiO2 
 PCOD8261474
Probable space group: C M C A
;
_chemical_formula_sum "Si O2"
_cell_formula_units_Z 80
_cell_length_a 8.786833
_cell_length_b 14.396566
_cell_length_c 29.522571
_cell_angle_alpha 90.000000
_cell_angle_beta 90.000000
_cell_angle_gamma 90.000000
_cell_volume 3734.611762
_symmetry_space_group_name_H-M "C M C A"
_symmetry_group_IT_number 64
_symmetry_cell_setting 'orthorhombic'
loop_
_space_group_symop_operation_xyz
x,y,z
-x,1/2-y,1/2+z
x,-y,-z
-x,1/2+y,1/2-z
-x,-y,-z
x,1/2+y,1/2-z
-x,y,z
x,1/2-y,1/2+z
1/2+x,1/2+y,z
1/2-x,-y,1/2+z
1/2+x,1/2-y,-z
1/2-x,y,1/2-z
1/2-x,1/2-y,-z
1/2+x,y,1/2-z
1/2-x,1/2+y,z
1/2+x,-y,1/2+z
loop_
_atom_site_type_symbol
_atom_site_label
_atom_site_fract_x
_atom_site_fract_y
_atom_site_fract_z
Si Si1 0.674375 0.552561 0.851357
Si Si2 0.176994 0.076418 0.950386
Si Si3 0.820714 0.622829 0.035352
Si Si4 0.678107 0.296726 0.297460
Si Si5 0.320462 0.843988 0.625870
O O1 0.500000 0.556933 0.835632
O O2 0.698866 0.609489 0.898566
O O3 0.774446 0.599462 0.812178
O O4 0.726988 0.446623 0.857625
O O5 0.000000 0.054071 0.959489
O O6 0.275500 0.983567 0.956185
O O7 0.239709 0.151762 0.987194
O O8 0.760804 0.682067 0.078249
O O9 0.000000 0.636657 0.030742
O O10 0.500000 0.290796 0.291801
O O11 0.750000 0.268002 0.250000
O O12 0.737833 0.225852 0.335631
O O13 0.500000 0.837550 0.617678
#
# Coordination Sequence:
#
# PCOD8261474 Si02
#       5
#    16  16  16  16  16
#     4   9  19  37  60  84 112 146 186 227 273 326
#     4   9  16  29  50  76 112 154 186 219 268 327
#     4  10  17  26  48  82 114 145 185 230 268 315
#     4  11  24  41  61  83 110 142 182 232 284 335
#     4   9  20  39  59  81 112 151 186 222 274 333
#
# _framework density 21.421236
#
# number of rings (size 3 to 8) (size 9 to 14) (size 15 to 20)
#    0.000    2.400    0.000    5.400    0.000    6.400 
#    0.000    3.000    0.000    0.000    0.000    0.000 
#    0.000    0.000    0.000    0.000    0.000    0.000 
#
# Total GULP energy -495845.771959 kJ/mol
# GULP energy per Si atom -12396.144299 kJ/mol
# Density = 2.137248 g / cm^3
# Si number density = 21.421236 Si / 1000 Ang^3
#
#
#
# Elastic Constant Matrix: (Units=GPa)
#
#
# Indices 1 2 3 4 5 6 
#
# 1 79.0904 8.2381 43.2763 0.0000 0.0000 0.0000
# 2 8.2381 26.7424 17.3509 0.0000 0.0000 0.0000
# 3 43.2763 17.3509 115.4036 0.0000 0.0000 0.0000
# 4 0.0000 0.0000 0.0000 33.1238 0.0000 0.0000
# 5 0.0000 0.0000 0.0000 0.0000 23.9798 0.0000
# 6 0.0000 0.0000 0.0000 0.0000 0.0000 11.6254
#
#
#
# Elastic Compliance Matrix: (Units=1/GPa)
#
#
# Indices 1 2 3 4 5 6 
#
# 1 0.015939 -0.001144 -0.005805 0.000000 0.000000 0.000000
# 2 -0.001144 0.041518 -0.005813 0.000000 0.000000 0.000000
# 3 -0.005805 -0.005813 0.011716 0.000000 0.000000 0.000000
# 4 0.000000 0.000000 0.000000 0.030190 0.000000 0.000000
# 5 0.000000 0.000000 0.000000 0.000000 0.041702 0.000000
# 6 0.000000 0.000000 0.000000 0.000000 0.000000 0.086018
#
#
# Mechanical properties :
#
#
# Convention : Reuss Voigt Hill
#
# Bulk Modulus (GPa) = 22.91005 39.88521 31.39763
# Shear Modulus (GPa) = 18.71555 23.90389 21.30972
#
# Velocity S-wave (km/s) = 2.95903 3.34413 3.15746
# Velocity P-wave (km/s) = 4.73210 5.79403 5.28978
#
# Compressibility (1/GPa) = 0.04364896
#
# Stress axis : x y z
#
# Youngs Moduli (GPa) = 62.73759 24.08602 85.35141
#
# Poissons Ratio (x) = 0.02755 0.49549
# Poissons Ratio (y) = 0.07175 0.49618
# Poissons Ratio (z) = 0.36421 0.14002
#
# Static dielectric constant tensor:
#      x y z
#    x 3.646550 0.000000 0.000000 
#    y 0.000000 3.542620 0.000000 
#    z 0.000000 0.000000 4.380430 
# 
# 
# High freq. dielectric constant tensor:
#      x y z
#    x 1.832550 0.000000 0.000000 
#    y 0.000000 1.816210 0.000000 
#    z 0.000000 0.000000 1.853180 
# 
# From -- ./inp_files/47884.got.cif
#   From: 2010.03.12/outbox.cif.g09.slc.cpg/sg64_24_cif.got.tgz:47884.got - 2010.04.10 20:19:32.
