data_PCOD8261721
_publ_section_title
;
Structure prediction by ZEFSAII (Michael W. Deem and Ramdas Pophale) SiO2 
 PCOD8261721
Probable space group: C M C A
;
_chemical_formula_sum "Si O2"
_cell_formula_units_Z 96
_cell_length_a 8.564146
_cell_length_b 25.402241
_cell_length_c 25.386118
_cell_angle_alpha 90.000000
_cell_angle_beta 90.000000
_cell_angle_gamma 90.000000
_cell_volume 5522.711908
_symmetry_space_group_name_H-M "C M C A"
_symmetry_group_IT_number 64
_symmetry_cell_setting 'orthorhombic'
loop_
_space_group_symop_operation_xyz
x,y,z
-x,1/2-y,1/2+z
x,-y,-z
-x,1/2+y,1/2-z
-x,-y,-z
x,1/2+y,1/2-z
-x,y,z
x,1/2-y,1/2+z
1/2+x,1/2+y,z
1/2-x,-y,1/2+z
1/2+x,1/2-y,-z
1/2-x,y,1/2-z
1/2-x,1/2-y,-z
1/2+x,y,1/2-z
1/2-x,1/2+y,z
1/2+x,-y,1/2+z
loop_
_atom_site_type_symbol
_atom_site_label
_atom_site_fract_x
_atom_site_fract_y
_atom_site_fract_z
Si Si1 0.816492 0.192288 0.005290
Si Si2 0.816450 0.608366 0.307969
Si Si3 0.315211 0.501736 0.308548
Si Si4 0.185528 0.106208 0.808465
Si Si5 0.683427 0.690794 0.890364
Si Si6 0.315973 0.810638 0.887866
O O1 0.779127 0.165822 0.948314
O O2 0.000000 0.193170 0.016706
O O3 0.750000 0.250000 0.000000
O O4 0.729555 0.164937 0.054713
O O5 0.750000 0.618390 0.250000
O O6 0.743050 0.555865 0.335606
O O7 0.774036 0.658274 0.342922
O O8 0.000000 0.600935 0.303974
O O9 0.500000 0.498438 0.309366
O O10 0.250000 0.504425 0.250000
O O11 0.244845 0.448743 0.334233
O O12 0.250000 0.115090 0.750000
O O13 0.253167 0.152786 0.845418
O O14 0.000000 0.105731 0.806562
O O15 0.500000 0.694393 0.883008
O O16 0.746908 0.750428 0.884263
O O17 0.500000 0.815619 0.879209
#
# Coordination Sequence:
#
# PCOD8261721 Si02
#       6
#    16  16  16  16  16  16
#     4   9  16  30  49  70  93 126 167 205 241 285
#     4  11  21  34  51  73  98 129 162 198 240 288
#     4  10  18  31  49  70  93 123 160 200 237 280
#     4  10  18  31  48  70  97 128 160 196 236 282
#     4   8  17  31  49  70  98 130 162 197 239 285
#     4  10  19  33  50  73 101 130 161 200 243 290
#
# _framework density 17.382764999999999
#
# number of rings (size 3 to 8) (size 9 to 14) (size 15 to 20)
#    0.000    2.333    0.000    7.500    0.000    0.667 
#    0.000   11.667    0.000    1.000    0.000    7.000 
#    0.000    0.000    0.000    0.000    0.000    0.000 
#
# Total GULP energy -594800.731746 kJ/mol
# GULP energy per Si atom -12391.681911 kJ/mol
# Density = 1.734320 g / cm^3
# Si number density = 17.382765 Si / 1000 Ang^3
#
#
#
# Elastic Constant Matrix: (Units=GPa)
#
#
# Indices 1 2 3 4 5 6 
#
# 1 86.6195 25.7740 28.1309 0.0000 0.0000 0.0000
# 2 25.7740 103.1914 60.0039 0.0000 0.0000 0.0000
# 3 28.1309 60.0039 101.7061 0.0000 0.0000 0.0000
# 4 0.0000 0.0000 0.0000 4.3890 0.0000 0.0000
# 5 0.0000 0.0000 0.0000 0.0000 26.4568 0.0000
# 6 0.0000 0.0000 0.0000 0.0000 0.0000 22.2713
#
#
#
# Elastic Compliance Matrix: (Units=1/GPa)
#
#
# Indices 1 2 3 4 5 6 
#
# 1 0.012887 -0.001745 -0.002535 0.000000 0.000000 0.000000
# 2 -0.001745 0.014987 -0.008360 0.000000 0.000000 0.000000
# 3 -0.002535 -0.008360 0.015465 0.000000 0.000000 0.000000
# 4 0.000000 0.000000 0.000000 0.227841 0.000000 0.000000
# 5 0.000000 0.000000 0.000000 0.000000 0.037797 0.000000
# 6 0.000000 0.000000 0.000000 0.000000 0.000000 0.044901
#
#
# Mechanical properties :
#
#
# Convention : Reuss Voigt Hill
#
# Bulk Modulus (GPa) = 55.36751 57.70383 56.53567
# Shear Modulus (GPa) = 12.98097 22.46397 17.72247
#
# Velocity S-wave (km/s) = 2.73568 3.59878 3.19649
# Velocity P-wave (km/s) = 6.47300 7.10889 6.79838
#
# Compressibility (1/GPa) = 0.01806113
#
# Stress axis : x y z
#
# Youngs Moduli (GPa) = 77.59638 66.72230 64.66031
#
# Poissons Ratio (x) = 0.11641 0.16392
# Poissons Ratio (y) = 0.13538 0.54054
# Poissons Ratio (z) = 0.19672 0.55778
#
# Static dielectric constant tensor:
#      x y z
#    x 3.317870 0.000000 0.000000 
#    y 0.000000 3.698020 0.000000 
#    z 0.000000 0.000000 3.563200 
# 
# 
# High freq. dielectric constant tensor:
#      x y z
#    x 1.678360 0.000000 0.000000 
#    y 0.000000 1.658040 0.000000 
#    z 0.000000 0.000000 1.656260 
# 
# From -- ./inp_files/43230.got.cif
#   From: 2010.03.12/outbox.cif.g09.slc.cpg/sg64_22_cif.got.tgz:43230.got - 2010.04.10 20:19:32.
