data_PCOD8261411
_publ_section_title
;
Structure prediction by ZEFSAII (Michael W. Deem and Ramdas Pophale) SiO2 
 PCOD8261411
Probable space group: C M C A
;
_chemical_formula_sum "Si O2"
_cell_formula_units_Z 88
_cell_length_a 13.780278
_cell_length_b 21.247600
_cell_length_c 17.044694
_cell_angle_alpha 90.000000
_cell_angle_beta 90.000000
_cell_angle_gamma 90.000000
_cell_volume 4990.649499
_symmetry_space_group_name_H-M "C M C A"
_symmetry_group_IT_number 64
_symmetry_cell_setting 'orthorhombic'
loop_
_space_group_symop_operation_xyz
x,y,z
-x,1/2-y,1/2+z
x,-y,-z
-x,1/2+y,1/2-z
-x,-y,-z
x,1/2+y,1/2-z
-x,y,z
x,1/2-y,1/2+z
1/2+x,1/2+y,z
1/2-x,-y,1/2+z
1/2+x,1/2-y,-z
1/2-x,y,1/2-z
1/2-x,1/2-y,-z
1/2+x,y,1/2-z
1/2-x,1/2+y,z
1/2+x,-y,1/2+z
loop_
_atom_site_type_symbol
_atom_site_label
_atom_site_fract_x
_atom_site_fract_y
_atom_site_fract_z
Si Si1 0.000000 0.200843 0.425544
Si Si2 0.607312 0.038755 0.399041
Si Si3 0.288011 0.317919 0.522708
Si Si4 0.500000 0.222285 0.248161
Si Si5 0.823892 0.845294 0.819245
Si Si6 0.500000 0.830759 0.364238
Si Si7 0.661169 0.909737 0.438477
O O1 0.904094 0.175738 0.469194
O O2 0.000000 0.180939 0.332840
O O3 0.000000 0.276835 0.431488
O O4 0.500000 0.010207 0.386725
O O5 0.630852 0.084973 0.327236
O O6 0.606000 0.079152 0.479282
O O7 0.682161 0.979365 0.402008
O O8 0.250000 0.250000 0.500000
O O9 0.236465 0.329729 0.604379
O O10 0.258430 0.369892 0.457000
O O11 0.593535 0.206566 0.301229
O O12 0.500000 0.296499 0.221966
O O13 0.750000 0.846147 0.750000
O O14 0.596579 0.871613 0.375923
#
# Coordination Sequence:
#
# PCOD8261411 Si02
#       7
#     8  16  16   8  16   8  16
#     4  10  20  33  49  83 118 144 175 215 286 337
#     4  10  18  30  55  79 104 137 188 243 269 313
#     4  11  21  33  58  83 112 146 179 230 281 336
#     4  10  20  33  52  82 110 149 182 227 274 343
#     4  11  21  35  54  80 109 145 193 227 277 336
#     4  10  16  29  55  77 123 138 175 229 286 325
#     4  10  18  31  52  85 107 136 181 232 283 314
#
# _framework density 17.632974999999998
#
# number of rings (size 3 to 8) (size 9 to 14) (size 15 to 20)
#    0.545    1.091    6.364    0.545    0.000    0.727 
#    0.000    0.000    4.000    9.818    0.000    0.000 
#    0.000    0.000    0.000    0.000    0.000    0.000 
#
# Total GULP energy -545196.748684 kJ/mol
# GULP energy per Si atom -12390.835197 kJ/mol
# Density = 1.759284 g / cm^3
# Si number density = 17.632975 Si / 1000 Ang^3
#
#
#
# Elastic Constant Matrix: (Units=GPa)
#
#
# Indices 1 2 3 4 5 6 
#
# 1 113.4709 37.9573 27.1425 0.0000 0.0000 0.0000
# 2 37.9573 104.9139 27.5580 0.0000 0.0000 0.0000
# 3 27.1425 27.5580 38.4275 0.0000 0.0000 0.0000
# 4 0.0000 0.0000 0.0000 35.8939 0.0000 0.0000
# 5 0.0000 0.0000 0.0000 0.0000 11.2624 0.0000
# 6 0.0000 0.0000 0.0000 0.0000 0.0000 23.6252
#
#
#
# Elastic Compliance Matrix: (Units=1/GPa)
#
#
# Indices 1 2 3 4 5 6 
#
# 1 0.011076 -0.002405 -0.006098 0.000000 0.000000 0.000000
# 2 -0.002405 0.012266 -0.007098 0.000000 0.000000 0.000000
# 3 -0.006098 -0.007098 0.035421 0.000000 0.000000 0.000000
# 4 0.000000 0.000000 0.000000 0.027860 0.000000 0.000000
# 5 0.000000 0.000000 0.000000 0.000000 0.088791 0.000000
# 6 0.000000 0.000000 0.000000 0.000000 0.000000 0.042328
#
#
# Mechanical properties :
#
#
# Convention : Reuss Voigt Hill
#
# Bulk Modulus (GPa) = 36.28437 49.12531 42.70484
# Shear Modulus (GPa) = 19.37001 25.09994 22.23498
#
# Velocity S-wave (km/s) = 3.31797 3.77698 3.55489
# Velocity P-wave (km/s) = 5.94145 6.85136 6.41257
#
# Compressibility (1/GPa) = 0.02756008
#
# Stress axis : x y z
#
# Youngs Moduli (GPa) = 90.28342 81.52454 28.23217
#
# Poissons Ratio (x) = 0.19610 0.17217
# Poissons Ratio (y) = 0.21717 0.20038
# Poissons Ratio (z) = 0.55059 0.57863
#
# Static dielectric constant tensor:
#      x y z
#    x 3.268400 0.000000 0.000000 
#    y 0.000000 3.468160 0.000000 
#    z 0.000000 0.000000 3.072600 
# 
# 
# High freq. dielectric constant tensor:
#      x y z
#    x 1.672150 0.000000 0.000000 
#    y 0.000000 1.680690 0.000000 
#    z 0.000000 0.000000 1.656140 
# 
# From -- ./inp_files/32344.got.cif
#   From: 2010.03.12/outbox.cif.g09.slc.cpg/sg64_17_cif.got.tgz:32344.got - 2010.04.10 20:19:32.
