data_PCOD8261648
_publ_section_title
;
Structure prediction by ZEFSAII (Michael W. Deem and Ramdas Pophale) SiO2 
 PCOD8261648
Probable space group: C M C A
;
_chemical_formula_sum "Si O2"
_cell_formula_units_Z 112
_cell_length_a 18.538680
_cell_length_b 19.745296
_cell_length_c 18.504378
_cell_angle_alpha 90.000000
_cell_angle_beta 90.000000
_cell_angle_gamma 90.000000
_cell_volume 6773.559469
_symmetry_space_group_name_H-M "C M C A"
_symmetry_group_IT_number 64
_symmetry_cell_setting 'orthorhombic'
loop_
_space_group_symop_operation_xyz
x,y,z
-x,1/2-y,1/2+z
x,-y,-z
-x,1/2+y,1/2-z
-x,-y,-z
x,1/2+y,1/2-z
-x,y,z
x,1/2-y,1/2+z
1/2+x,1/2+y,z
1/2-x,-y,1/2+z
1/2+x,1/2-y,-z
1/2-x,y,1/2-z
1/2-x,1/2-y,-z
1/2+x,y,1/2-z
1/2-x,1/2+y,z
1/2+x,-y,1/2+z
loop_
_atom_site_type_symbol
_atom_site_label
_atom_site_fract_x
_atom_site_fract_y
_atom_site_fract_z
Si Si1 0.673970 0.326804 0.774435
Si Si2 0.585607 0.500000 0.579980
Si Si3 0.833696 0.766355 0.080676
Si Si4 0.166304 0.233645 0.080676
Si Si5 0.414871 0.860430 0.147462
Si Si6 0.173970 0.173196 0.774435
Si Si7 0.914871 0.639570 0.147462
O O1 0.750000 0.361829 0.750000
O O2 0.656080 0.327332 0.860652
O O3 0.679238 0.250000 0.750000
O O4 0.607865 0.360878 0.731740
O O5 0.618100 0.500000 0.500000
O O6 0.500000 0.500000 0.578887
O O7 0.613452 0.567846 0.618160
O O8 0.613452 0.432154 0.618160
O O9 0.750000 0.750000 0.081086
O O10 0.843920 0.827332 0.139348
O O11 0.878189 0.699596 0.102205
O O12 0.857986 0.789780 0.000000
O O13 0.121811 0.300404 0.102205
O O14 0.500000 0.851398 0.140610
O O15 0.392135 0.860878 0.231740
O O16 0.250000 0.138171 0.750000
O O17 0.000000 0.648602 0.140610
#
# Coordination Sequence:
#
# PCOD8261648 Si02
#       7
#    16  16  16  16  16  16  16
#     4   9  15  30  46  66  96 125 155 190 234 284
#     4   9  18  32  47  70 103 127 151 196 243 281
#     4  10  18  29  48  70  97 130 157 190 240 288
#     4  10  18  29  48  70  97 130 157 190 240 288
#     4  10  19  31  50  72  95 127 161 195 238 287
#     4   9  15  30  46  66  96 125 155 190 234 284
#     4  10  19  31  50  72  95 127 161 195 238 287
#
# _framework density 16.534880999999999
#
# number of rings (size 3 to 8) (size 9 to 14) (size 15 to 20)
#    0.000    2.429    5.714    0.857    0.000    6.857 
#    0.000    0.714    0.000    0.000    0.000    1.000 
#    0.000    3.429    0.000    0.000    0.000    1.143 
#
# Total GULP energy -693770.188283 kJ/mol
# GULP energy per Si atom -12388.753362 kJ/mol
# Density = 1.649725 g / cm^3
# Si number density = 16.534881 Si / 1000 Ang^3
#
#
#
# Elastic Constant Matrix: (Units=GPa)
#
#
# Indices 1 2 3 4 5 6 
#
# 1 74.1551 34.1865 34.6758 0.0000 0.0000 0.0000
# 2 34.1865 56.0750 48.7467 0.0000 0.0000 0.0000
# 3 34.6758 48.7467 181.7843 0.0000 0.0000 0.0000
# 4 0.0000 0.0000 0.0000 20.9108 0.0000 0.0000
# 5 0.0000 0.0000 0.0000 0.0000 19.8155 0.0000
# 6 0.0000 0.0000 0.0000 0.0000 0.0000 5.2284
#
#
#
# Elastic Compliance Matrix: (Units=1/GPa)
#
#
# Indices 1 2 3 4 5 6 
#
# 1 0.018819 -0.010892 -0.000669 0.000000 0.000000 0.000000
# 2 -0.010892 0.029558 -0.005848 0.000000 0.000000 0.000000
# 3 -0.000669 -0.005848 0.007197 0.000000 0.000000 0.000000
# 4 0.000000 0.000000 0.000000 0.047822 0.000000 0.000000
# 5 0.000000 0.000000 0.000000 0.000000 0.050466 0.000000
# 6 0.000000 0.000000 0.000000 0.000000 0.000000 0.191264
#
#
# Mechanical properties :
#
#
# Convention : Reuss Voigt Hill
#
# Bulk Modulus (GPa) = 48.18028 60.80359 54.49193
# Shear Modulus (GPa) = 12.92450 22.15130 17.53790
#
# Velocity S-wave (km/s) = 2.79883 3.66412 3.26031
# Velocity P-wave (km/s) = 6.29654 7.39958 6.87024
#
# Compressibility (1/GPa) = 0.02075538
#
# Stress axis : x y z
#
# Youngs Moduli (GPa) = 53.13684 33.83231 138.94735
#
# Poissons Ratio (x) = 0.36849 0.09298
# Poissons Ratio (y) = 0.57875 0.81263
# Poissons Ratio (z) = 0.03556 0.19787
#
# Static dielectric constant tensor:
#      x y z
#    x 3.088340 0.000000 0.000000 
#    y 0.000000 2.904420 0.000000 
#    z 0.000000 0.000000 4.071570 
# 
# 
# High freq. dielectric constant tensor:
#      x y z
#    x 1.627220 0.000000 0.000000 
#    y 0.000000 1.586660 0.000000 
#    z 0.000000 0.000000 1.652720 
# 
# From -- ./inp_files/40513.got.cif
#   From: 2010.03.12/outbox.cif.g09.slc.cpg/sg64_21_cif.got.tgz:40513.got - 2010.04.10 20:19:32.
