data_PCOD8261473
_publ_section_title
;
Structure prediction by ZEFSAII (Michael W. Deem and Ramdas Pophale) SiO2 
 PCOD8261473
Probable space group: C M C A
;
_chemical_formula_sum "Si O2"
_cell_formula_units_Z 80
_cell_length_a 9.480956
_cell_length_b 19.294433
_cell_length_c 25.710195
_cell_angle_alpha 90.000000
_cell_angle_beta 90.000000
_cell_angle_gamma 90.000000
_cell_volume 4703.157495
_symmetry_space_group_name_H-M "C M C A"
_symmetry_group_IT_number 64
_symmetry_cell_setting 'orthorhombic'
loop_
_space_group_symop_operation_xyz
x,y,z
-x,1/2-y,1/2+z
x,-y,-z
-x,1/2+y,1/2-z
-x,-y,-z
x,1/2+y,1/2-z
-x,y,z
x,1/2-y,1/2+z
1/2+x,1/2+y,z
1/2-x,-y,1/2+z
1/2+x,1/2-y,-z
1/2-x,y,1/2-z
1/2-x,1/2-y,-z
1/2+x,y,1/2-z
1/2-x,1/2+y,z
1/2+x,-y,1/2+z
loop_
_atom_site_type_symbol
_atom_site_label
_atom_site_fract_x
_atom_site_fract_y
_atom_site_fract_z
Si Si1 0.666990 0.631682 0.531225
Si Si2 0.162623 0.242628 0.613933
Si Si3 0.163076 0.126547 0.697894
Si Si4 0.832620 0.477303 0.112001
Si Si5 0.667751 0.629701 0.413858
O O1 0.500000 0.625528 0.528979
O O2 0.710775 0.700908 0.562312
O O3 0.727502 0.564433 0.561858
O O4 0.726629 0.633639 0.472864
O O5 0.187021 0.195810 0.664520
O O6 0.259091 0.310425 0.619738
O O7 0.000000 0.265058 0.609467
O O8 0.250000 0.132735 0.750000
O O9 0.217889 0.059925 0.665079
O O10 0.000000 0.117706 0.712504
O O11 0.782574 0.556663 0.110628
O O12 0.000000 0.472226 0.109275
O O13 0.500000 0.638883 0.411111
#
# Coordination Sequence:
#
# PCOD8261473 Si02
#       5
#    16  16  16  16  16
#     4   8  14  26  45  67  92 125 157 180 209 257
#     4   9  18  31  45  65  95 124 148 180 226 270
#     4   9  18  34  53  67  83 114 153 191 229 269
#     4   8  15  28  46  69  93 116 148 188 226 262
#     4  10  17  26  46  73  96 119 150 185 216 258
#
# _framework density 17.00985
#
# number of rings (size 3 to 8) (size 9 to 14) (size 15 to 20)
#    0.000    3.200    0.000    3.600    0.000    3.200 
#    0.000    2.000    0.000    9.600    0.000    0.000 
#    0.000    0.000    0.000    0.000    0.000    0.000 
#
# Total GULP energy -495811.079011 kJ/mol
# GULP energy per Si atom -12395.276975 kJ/mol
# Density = 1.697113 g / cm^3
# Si number density = 17.009850 Si / 1000 Ang^3
#
#
#
# Elastic Constant Matrix: (Units=GPa)
#
#
# Indices 1 2 3 4 5 6 
#
# 1 37.1560 46.2598 36.1343 0.0000 0.0000 0.0000
# 2 46.2598 140.3921 53.5778 0.0000 0.0000 0.0000
# 3 36.1343 53.5778 100.0850 0.0000 0.0000 0.0000
# 4 0.0000 0.0000 0.0000 11.9414 0.0000 0.0000
# 5 0.0000 0.0000 0.0000 0.0000 24.0239 0.0000
# 6 0.0000 0.0000 0.0000 0.0000 0.0000 25.5379
#
#
#
# Elastic Compliance Matrix: (Units=1/GPa)
#
#
# Indices 1 2 3 4 5 6 
#
# 1 0.056738 -0.013671 -0.013166 0.000000 0.000000 0.000000
# 2 -0.013671 0.012246 -0.001620 0.000000 0.000000 0.000000
# 3 -0.013166 -0.001620 0.015612 0.000000 0.000000 0.000000
# 4 0.000000 0.000000 0.000000 0.083742 0.000000 0.000000
# 5 0.000000 0.000000 0.000000 0.000000 0.041625 0.000000
# 6 0.000000 0.000000 0.000000 0.000000 0.000000 0.039158
#
#
# Mechanical properties :
#
#
# Convention : Reuss Voigt Hill
#
# Bulk Modulus (GPa) = 36.12410 61.06410 48.59410
# Shear Modulus (GPa) = 15.85982 21.74470 18.80226
#
# Velocity S-wave (km/s) = 3.05682 3.57929 3.32832
# Velocity P-wave (km/s) = 5.80880 7.28416 6.58791
#
# Compressibility (1/GPa) = 0.02768235
#
# Stress axis : x y z
#
# Youngs Moduli (GPa) = 17.62479 81.66168 64.05306
#
# Poissons Ratio (x) = 1.11639 0.84334
# Poissons Ratio (y) = 0.24095 0.10375
# Poissons Ratio (z) = 0.23205 0.13227
#
# Static dielectric constant tensor:
#      x y z
#    x 2.723670 0.000000 0.000000 
#    y 0.000000 3.322890 0.000000 
#    z 0.000000 0.000000 3.161260 
# 
# 
# High freq. dielectric constant tensor:
#      x y z
#    x 1.611240 0.000000 0.000000 
#    y 0.000000 1.663400 0.000000 
#    z 0.000000 0.000000 1.647020 
# 
# From -- ./inp_files/43930.got.cif
#   From: 2010.03.12/outbox.cif.g09.slc.cpg/sg64_22_cif.got.tgz:43930.got - 2010.04.10 20:19:32.
