data_PCOD8261093
_publ_section_title
;
Structure prediction by ZEFSAII (Michael W. Deem and Ramdas Pophale) SiO2 
 PCOD8261093
Probable space group: C M C M
;
_chemical_formula_sum "Si O2"
_cell_formula_units_Z 88
_cell_length_a 22.067270
_cell_length_b 22.934259
_cell_length_c 8.614509
_cell_angle_alpha 90.000000
_cell_angle_beta 90.000000
_cell_angle_gamma 90.000000
_cell_volume 4359.772730
_symmetry_space_group_name_H-M "C M C M"
_symmetry_group_IT_number 63
_symmetry_cell_setting 'orthorhombic'
loop_
_space_group_symop_operation_xyz
x,y,z
-x,-y,1/2+z
x,-y,-z
-x,y,1/2-z
-x,-y,-z
x,y,1/2-z
-x,y,z
x,-y,1/2+z
1/2+x,1/2+y,z
1/2-x,1/2-y,1/2+z
1/2+x,1/2-y,-z
1/2-x,1/2+y,1/2-z
1/2-x,1/2-y,-z
1/2+x,1/2+y,1/2-z
1/2-x,1/2+y,z
1/2+x,1/2-y,1/2+z
loop_
_atom_site_type_symbol
_atom_site_label
_atom_site_fract_x
_atom_site_fract_y
_atom_site_fract_z
Si Si1 0.000000 0.934607 0.566851
Si Si2 0.619614 0.378119 0.428639
Si Si3 0.335604 0.148761 0.067231
Si Si4 0.066877 0.558090 0.068042
Si Si5 0.184168 0.765206 0.568469
Si Si6 0.758007 0.937747 0.428818
O O1 0.940589 0.898342 0.517497
O O2 0.000000 0.940574 0.750000
O O3 0.000000 0.000000 0.500000
O O4 0.602215 0.368130 0.250000
O O5 0.648053 0.318410 0.492669
O O6 0.669915 0.428740 0.446112
O O7 0.331707 0.162018 0.250000
O O8 0.392326 0.110931 0.016120
O O9 0.351736 0.206491 0.970786
O O10 0.273911 0.115820 0.018249
O O11 0.064226 0.551866 0.250000
O O12 0.000000 0.567344 0.996902
O O13 0.097170 0.500000 0.000000
O O14 0.190020 0.777436 0.750000
O O15 0.250000 0.750000 0.500000
O O16 0.737636 0.936399 0.250000
O O17 0.739724 0.000000 0.500000
#
# Coordination Sequence:
#
# PCOD8261093 Si02
#       6
#     8  16  16  16  16  16
#     4  12  26  46  72 102 136 176 223 276 331 394
#     4  11  24  44  68  95 128 170 217 266 326 388
#     4  11  22  37  60  87 121 161 207 258 313 376
#     4   9  19  36  57  83 116 156 199 245 299 360
#     4  12  24  41  65  92 126 164 208 259 316 381
#     4  11  23  37  59  90 125 160 203 256 316 380
#
# _framework density 20.184539000000001
#
# number of rings (size 3 to 8) (size 9 to 14) (size 15 to 20)
#    0.000    1.091    1.818    5.182    0.000    6.545 
#    1.636    0.000    0.000    0.000    0.000    0.000 
#    0.000    0.000    0.000    0.000    0.000    0.000 
#
# Total GULP energy -545541.970894 kJ/mol
# GULP energy per Si atom -12398.681157 kJ/mol
# Density = 2.013860 g / cm^3
# Si number density = 20.184539 Si / 1000 Ang^3
#
#
#
# Elastic Constant Matrix: (Units=GPa)
#
#
# Indices 1 2 3 4 5 6 
#
# 1 104.2707 51.7665 43.8141 0.0000 0.0000 0.0000
# 2 51.7665 135.2892 41.3062 0.0000 0.0000 0.0000
# 3 43.8141 41.3062 104.9641 0.0000 0.0000 0.0000
# 4 0.0000 0.0000 0.0000 38.6831 0.0000 0.0000
# 5 0.0000 0.0000 0.0000 0.0000 26.8373 0.0000
# 6 0.0000 0.0000 0.0000 0.0000 0.0000 31.3857
#
#
#
# Elastic Compliance Matrix: (Units=1/GPa)
#
#
# Indices 1 2 3 4 5 6 
#
# 1 0.013163 -0.003818 -0.003992 0.000000 0.000000 0.000000
# 2 -0.003818 0.009508 -0.002148 0.000000 0.000000 0.000000
# 3 -0.003992 -0.002148 0.012039 0.000000 0.000000 0.000000
# 4 0.000000 0.000000 0.000000 0.025851 0.000000 0.000000
# 5 0.000000 0.000000 0.000000 0.000000 0.037262 0.000000
# 6 0.000000 0.000000 0.000000 0.000000 0.000000 0.031862
#
#
# Mechanical properties :
#
#
# Convention : Reuss Voigt Hill
#
# Bulk Modulus (GPa) = 67.59456 68.69971 68.14714
# Shear Modulus (GPa) = 32.35566 33.22371 32.78968
#
# Velocity S-wave (km/s) = 4.00808 4.06149 4.03488
# Velocity P-wave (km/s) = 7.41489 7.49026 7.45267
#
# Compressibility (1/GPa) = 0.01479409
#
# Stress axis : x y z
#
# Youngs Moduli (GPa) = 75.96847 105.17143 83.06454
#
# Poissons Ratio (x) = 0.40153 0.33161
# Poissons Ratio (y) = 0.29004 0.17843
# Poissons Ratio (z) = 0.30328 0.22592
#
# Static dielectric constant tensor:
#      x y z
#    x 4.110260 0.000000 0.000000 
#    y 0.000000 4.250230 0.000000 
#    z 0.000000 0.000000 3.714450 
# 
# 
# High freq. dielectric constant tensor:
#      x y z
#    x 1.789080 0.000000 0.000000 
#    y 0.000000 1.800850 0.000000 
#    z 0.000000 0.000000 1.797770 
# 
# From -- ./inp_files/8195.got.cif
#   From: 2010.03.12/outbox.cif.g09.slc.cpg/sg63_5_cif.got.tgz:8195.got - 2010.04.10 19:34:48.
