data_PCOD8261394
_publ_section_title
;
Structure prediction by ZEFSAII (Michael W. Deem and Ramdas Pophale) SiO2 
 PCOD8261394
Probable space group: C M C A
;
_chemical_formula_sum "Si O2"
_cell_formula_units_Z 64
_cell_length_a 5.267239
_cell_length_b 33.633766
_cell_length_c 22.241045
_cell_angle_alpha 90.000000
_cell_angle_beta 90.000000
_cell_angle_gamma 90.000000
_cell_volume 3940.158677
_symmetry_space_group_name_H-M "C M C A"
_symmetry_group_IT_number 64
_symmetry_cell_setting 'orthorhombic'
loop_
_space_group_symop_operation_xyz
x,y,z
-x,1/2-y,1/2+z
x,-y,-z
-x,1/2+y,1/2-z
-x,-y,-z
x,1/2+y,1/2-z
-x,y,z
x,1/2-y,1/2+z
1/2+x,1/2+y,z
1/2-x,-y,1/2+z
1/2+x,1/2-y,-z
1/2-x,y,1/2-z
1/2-x,1/2-y,-z
1/2+x,y,1/2-z
1/2-x,1/2+y,z
1/2+x,-y,1/2+z
loop_
_atom_site_type_symbol
_atom_site_label
_atom_site_fract_x
_atom_site_fract_y
_atom_site_fract_z
Si Si1 0.000000 0.590442 0.409971
Si Si2 0.500000 0.767976 0.576257
Si Si3 0.000000 0.632031 0.284103
Si Si4 0.000000 0.890449 0.517383
Si Si5 0.000000 0.968210 0.445224
Si Si6 0.000000 0.273880 0.714261
Si Si7 0.000000 0.499946 0.572322
Si Si8 0.500000 0.199636 0.018901
O O1 0.749809 0.603091 0.444300
O O2 0.000000 0.543480 0.399489
O O3 0.000000 0.612536 0.348031
O O4 0.500000 0.756528 0.646640
O O5 0.500000 0.726891 0.539886
O O6 0.248574 0.793125 0.559931
O O7 0.250000 0.617207 0.250000
O O8 0.000000 0.679003 0.291989
O O9 0.000000 0.845263 0.493705
O O10 0.000000 0.922135 0.463671
O O11 0.749819 0.976475 0.405248
O O12 0.000000 0.000000 0.500000
O O13 0.250000 0.259041 0.750000
O O14 0.000000 0.500000 0.500000
#
# Coordination Sequence:
#
# PCOD8261394 Si02
#       8
#     8   8   8   8   8   8   8   8
#     4  12  20  29  49  64  93 131 154 185 233 277
#     4  10  20  37  48  68 100 125 165 190 245 282
#     4  10  21  33  42  63  91 115 156 199 222 258
#     4  12  19  28  47  72  90 126 160 178 232 284
#     4  10  16  28  40  62 100 118 141 187 211 263
#     4  10  19  32  51  68  89 122 160 200 233 277
#     4  10  16  29  41  64  91 122 146 181 222 262
#     4  10  21  32  50  69  98 135 152 198 232 303
#
# _framework density 16.242999000000001
#
# number of rings (size 3 to 8) (size 9 to 14) (size 15 to 20)
#    0.000    1.500    5.000    3.750    0.000    2.000 
#    0.000    0.000    0.000    0.000    0.000    0.000 
#    0.000    6.000    0.000    0.000    0.000    0.000 
#
# Total GULP energy -396711.045488 kJ/mol
# GULP energy per Si atom -12397.220172 kJ/mol
# Density = 1.620603 g / cm^3
# Si number density = 16.242999 Si / 1000 Ang^3
#
#
#
# Elastic Constant Matrix: (Units=GPa)
#
#
# Indices 1 2 3 4 5 6 
#
# 1 175.0837 37.4783 32.3208 0.0000 0.0000 0.0000
# 2 37.4783 86.2156 8.0979 0.0000 0.0000 0.0000
# 3 32.3208 8.0979 43.9531 0.0000 0.0000 0.0000
# 4 0.0000 0.0000 0.0000 18.2614 0.0000 0.0000
# 5 0.0000 0.0000 0.0000 0.0000 31.9073 0.0000
# 6 0.0000 0.0000 0.0000 0.0000 0.0000 21.1432
#
#
#
# Elastic Compliance Matrix: (Units=1/GPa)
#
#
# Indices 1 2 3 4 5 6 
#
# 1 0.007164 -0.002666 -0.004777 0.000000 0.000000 0.000000
# 2 -0.002666 0.012795 -0.000397 0.000000 0.000000 0.000000
# 3 -0.004777 -0.000397 0.026337 0.000000 0.000000 0.000000
# 4 0.000000 0.000000 0.000000 0.054760 0.000000 0.000000
# 5 0.000000 0.000000 0.000000 0.000000 0.031341 0.000000
# 6 0.000000 0.000000 0.000000 0.000000 0.000000 0.047296
#
#
# Mechanical properties :
#
#
# Convention : Reuss Voigt Hill
#
# Bulk Modulus (GPa) = 32.66171 51.22737 41.94454
# Shear Modulus (GPa) = 24.32158 29.41942 26.87050
#
# Velocity S-wave (km/s) = 3.87377 4.26044 4.07170
# Velocity P-wave (km/s) = 6.33719 7.47050 6.92706
#
# Compressibility (1/GPa) = 0.03061689
#
# Stress axis : x y z
#
# Youngs Moduli (GPa) = 139.58755 78.15638 37.96887
#
# Poissons Ratio (x) = 0.20833 0.18137
# Poissons Ratio (y) = 0.37208 0.01508
# Poissons Ratio (z) = 0.66680 0.03104
#
# Static dielectric constant tensor:
#      x y z
#    x 5.043850 0.000000 0.000000 
#    y 0.000000 3.073520 0.000000 
#    z 0.000000 0.000000 2.637230 
# 
# 
# High freq. dielectric constant tensor:
#      x y z
#    x 1.664620 0.000000 0.000000 
#    y 0.000000 1.610650 0.000000 
#    z 0.000000 0.000000 1.574440 
# 
# From -- ./inp_files/28726.got.cif
#   From: 2010.03.12/outbox.cif.g09.slc.cpg/sg64_15_cif.got.tgz:28726.got - 2010.04.10 20:19:32.
