data_PCOD8261766
_publ_section_title
;
Structure prediction by ZEFSAII (Michael W. Deem and Ramdas Pophale) SiO2 
 PCOD8261766
Probable space group: C M C A
;
_chemical_formula_sum "Si O2"
_cell_formula_units_Z 64
_cell_length_a 7.541139
_cell_length_b 22.378699
_cell_length_c 21.058638
_cell_angle_alpha 90.000000
_cell_angle_beta 90.000000
_cell_angle_gamma 90.000000
_cell_volume 3553.874276
_symmetry_space_group_name_H-M "C M C A"
_symmetry_group_IT_number 64
_symmetry_cell_setting 'orthorhombic'
loop_
_space_group_symop_operation_xyz
x,y,z
-x,1/2-y,1/2+z
x,-y,-z
-x,1/2+y,1/2-z
-x,-y,-z
x,1/2+y,1/2-z
-x,y,z
x,1/2-y,1/2+z
1/2+x,1/2+y,z
1/2-x,-y,1/2+z
1/2+x,1/2-y,-z
1/2-x,y,1/2-z
1/2-x,1/2-y,-z
1/2+x,y,1/2-z
1/2-x,1/2+y,z
1/2+x,-y,1/2+z
loop_
_atom_site_type_symbol
_atom_site_label
_atom_site_fract_x
_atom_site_fract_y
_atom_site_fract_z
Si Si1 0.500000 0.487483 0.404085
Si Si2 0.500000 0.898619 0.992417
Si Si3 0.207192 0.306186 0.543668
Si Si4 0.707385 0.033412 0.319450
Si Si5 0.795218 0.832517 0.818591
O O1 0.500000 0.542523 0.451416
O O2 0.500000 0.421869 0.435398
O O3 0.317930 0.490585 0.365040
O O4 0.678402 0.861233 0.981135
O O5 0.250000 0.250000 0.500000
O O6 0.259479 0.294029 0.618592
O O7 0.000000 0.322785 0.538214
O O8 0.500000 0.029068 0.336893
O O9 0.750000 0.008753 0.250000
O O10 0.787961 0.101085 0.324191
O O11 0.750000 0.801863 0.750000
O O12 0.000000 0.843671 0.819346
#
# Coordination Sequence:
#
# PCOD8261766 Si02
#       5
#     8   8  16  16  16
#     4  11  22  36  56  85 121 154 185 234 296 361
#     4  11  24  38  56  83 121 156 189 232 294 353
#     4  11  22  38  60  86 114 152 198 241 287 349
#     4  10  18  31  54  84 115 146 189 243 295 344
#     4   9  19  30  51  85 114 139 182 241 297 338
#
# _framework density 18.008516
#
# number of rings (size 3 to 8) (size 9 to 14) (size 15 to 20)
#    0.000    1.750    5.000    0.000    3.500    1.000 
#    0.000    2.500    0.000    1.500    0.000    0.000 
#    0.000    0.000    0.000    0.000    0.000    0.000 
#
# Total GULP energy -396485.302624 kJ/mol
# GULP energy per Si atom -12390.165707 kJ/mol
# Density = 1.796753 g / cm^3
# Si number density = 18.008516 Si / 1000 Ang^3
#
#
#
# Elastic Constant Matrix: (Units=GPa)
#
#
# Indices 1 2 3 4 5 6 
#
# 1 112.8227 34.7572 52.8131 0.0000 0.0000 0.0000
# 2 34.7572 63.3153 64.6774 0.0000 0.0000 0.0000
# 3 52.8131 64.6774 171.1113 0.0000 0.0000 0.0000
# 4 0.0000 0.0000 0.0000 29.9982 0.0000 0.0000
# 5 0.0000 0.0000 0.0000 0.0000 27.3983 0.0000
# 6 0.0000 0.0000 0.0000 0.0000 0.0000 -106.1470
#
#
#
# Elastic Compliance Matrix: (Units=1/GPa)
#
#
# Indices 1 2 3 4 5 6 
#
# 1 0.011002 -0.004188 -0.001813 0.000000 0.000000 0.000000
# 2 -0.004188 0.027322 -0.009035 0.000000 0.000000 0.000000
# 3 -0.001813 -0.009035 0.009819 0.000000 0.000000 0.000000
# 4 0.000000 0.000000 0.000000 0.033335 0.000000 0.000000
# 5 0.000000 0.000000 0.000000 0.000000 0.036499 0.000000
# 6 0.000000 0.000000 0.000000 0.000000 0.000000 -0.009421
#
#
# Mechanical properties :
#
#
# Convention : Reuss Voigt Hill
#
# Bulk Modulus (GPa) = 55.33417 72.41606 63.87511
# Shear Modulus (GPa) = 34.56602 3.25001 18.90801
#
# Velocity S-wave (km/s) = 4.38588 1.34485 3.24381
# Velocity P-wave (km/s) = 7.51274 6.53536 7.04103
#
# Compressibility (1/GPa) = 0.01807202
#
# Stress axis : x y z
#
# Youngs Moduli (GPa) = 90.89069 36.60057 101.84685
#
# Poissons Ratio (x) = 0.15328 0.18464
# Poissons Ratio (y) = 0.38064 0.92016
# Poissons Ratio (z) = 0.16477 0.33068
#
# Static dielectric constant tensor:
#      x y z
#    x 3.322030 0.000000 0.000000 
#    y 0.000000 3.098090 0.000000 
#    z 0.000000 0.000000 7.041660 
# 
# 
# High freq. dielectric constant tensor:
#      x y z
#    x 1.712740 0.000000 0.000000 
#    y 0.000000 1.637540 0.000000 
#    z 0.000000 0.000000 1.714940 
# 
# From -- ./inp_files/29272.got.cif
#   From: 2010.03.12/outbox.cif.g09.slc.cpg/sg64_15_cif.got.tgz:29272.got - 2010.04.10 20:19:32.
