data_PCOD8261012
_publ_section_title
;
Structure prediction by ZEFSAII (Michael W. Deem and Ramdas Pophale) SiO2 
 PCOD8261012
Probable space group: C M C M
;
_chemical_formula_sum "Si O2"
_cell_formula_units_Z 96
_cell_length_a 14.478772
_cell_length_b 14.405722
_cell_length_c 24.333726
_cell_angle_alpha 90.000000
_cell_angle_beta 90.000000
_cell_angle_gamma 90.000000
_cell_volume 5075.459567
_symmetry_space_group_name_H-M "C M C M"
_symmetry_group_IT_number 63
_symmetry_cell_setting 'orthorhombic'
loop_
_space_group_symop_operation_xyz
x,y,z
-x,-y,1/2+z
x,-y,-z
-x,y,1/2-z
-x,-y,-z
x,y,1/2-z
-x,y,z
x,-y,1/2+z
1/2+x,1/2+y,z
1/2-x,1/2-y,1/2+z
1/2+x,1/2-y,-z
1/2-x,1/2+y,1/2-z
1/2-x,1/2-y,-z
1/2+x,1/2+y,1/2-z
1/2-x,1/2+y,z
1/2+x,1/2-y,1/2+z
loop_
_atom_site_type_symbol
_atom_site_label
_atom_site_fract_x
_atom_site_fract_y
_atom_site_fract_z
Si Si1 0.259958 0.651209 0.071227
Si Si2 0.678585 0.536389 0.625769
Si Si3 0.605090 0.891250 0.492001
Si Si4 0.101627 0.105989 0.981930
Si Si5 0.000000 0.252393 0.185049
Si Si6 0.500000 0.540031 0.184926
Si Si7 0.675430 0.826521 0.125512
O O1 0.272410 0.554527 0.102363
O O2 0.268374 0.731389 0.116248
O O3 0.161750 0.658887 0.040676
O O4 0.339123 0.665408 0.024927
O O5 0.646326 0.607024 0.577998
O O6 0.591841 0.511444 0.663920
O O7 0.757642 0.598137 0.656006
O O8 0.500000 0.858895 0.498142
O O9 0.642630 0.867535 0.432252
O O10 0.618191 0.000000 0.500000
O O11 0.000000 0.150909 0.980951
O O12 0.095976 0.000000 0.000000
O O13 0.000000 0.146030 0.162562
O O14 0.089406 0.307230 0.164776
O O15 0.000000 0.250992 0.250000
O O16 0.500000 0.536440 0.250000
#
# Coordination Sequence:
#
# PCOD8261012 Si02
#       7
#    16  16  16  16   8   8  16
#     4  11  21  36  54  90 128 166 199 244 299 377
#     4  11  21  38  61  91 123 157 205 253 316 366
#     4  11  21  35  54  83 128 173 203 236 298 377
#     4   9  17  27  50  81 122 156 187 234 289 363
#     4  11  26  46  68  91 115 159 221 273 313 361
#     4  11  24  46  70  88 114 158 217 279 324 357
#     4  12  23  38  63  92 125 166 206 258 310 365
#
# _framework density 18.914543999999999
#
# number of rings (size 3 to 8) (size 9 to 14) (size 15 to 20)
#    0.000    1.167    6.667    1.000    2.333    0.667 
#    1.500    0.000    0.000    0.000    0.000    1.167 
#    0.000    0.000    0.000    0.000    0.000    0.000 
#
# Total GULP energy -595195.250303 kJ/mol
# GULP energy per Si atom -12399.901048 kJ/mol
# Density = 1.887149 g / cm^3
# Si number density = 18.914544 Si / 1000 Ang^3
#
#
#
# Elastic Constant Matrix: (Units=GPa)
#
#
# Indices 1 2 3 4 5 6 
#
# 1 155.4708 59.1913 32.2085 0.0000 0.0000 0.0000
# 2 59.1913 64.9140 22.5433 0.0000 0.0000 0.0000
# 3 32.2085 22.5433 51.9465 0.0000 0.0000 0.0000
# 4 0.0000 0.0000 0.0000 -8.5879 0.0000 0.0000
# 5 0.0000 0.0000 0.0000 0.0000 12.0620 0.0000
# 6 0.0000 0.0000 0.0000 0.0000 0.0000 27.7975
#
#
#
# Elastic Compliance Matrix: (Units=1/GPa)
#
#
# Indices 1 2 3 4 5 6 
#
# 1 0.010161 -0.008333 -0.002684 0.000000 0.000000 0.000000
# 2 -0.008333 0.024973 -0.005671 0.000000 0.000000 0.000000
# 3 -0.002684 -0.005671 0.023375 0.000000 0.000000 0.000000
# 4 0.000000 0.000000 0.000000 -0.116443 0.000000 0.000000
# 5 0.000000 0.000000 0.000000 0.000000 0.082905 0.000000
# 6 0.000000 0.000000 0.000000 0.000000 0.000000 0.035975
#
#
# Mechanical properties :
#
#
# Convention : Reuss Voigt Hill
#
# Bulk Modulus (GPa) = 39.78658 55.57973 47.68316
# Shear Modulus (GPa) = 48.68654 16.81352 32.75003
#
# Velocity S-wave (km/s) = 5.07899 2.98471 4.16561
# Velocity P-wave (km/s) = 7.44818 6.42856 6.95708
#
# Compressibility (1/GPa) = 0.02513410
#
# Stress axis : x y z
#
# Youngs Moduli (GPa) = 98.41982 40.04396 42.77995
#
# Poissons Ratio (x) = 0.33368 0.11481
# Poissons Ratio (y) = 0.82012 0.24259
# Poissons Ratio (z) = 0.26413 0.22708
#
# Static dielectric constant tensor:
#      x y z
#    x 3.823640 0.000000 0.000000 
#    y 0.000000 3.582850 0.000000 
#    z 0.000000 0.000000 3.128480 
# 
# 
# High freq. dielectric constant tensor:
#      x y z
#    x 1.751000 0.000000 0.000000 
#    y 0.000000 1.744520 0.000000 
#    z 0.000000 0.000000 1.691780 
# 
# From -- ./inp_files/54253.got.cif
#   From: 2010.03.12/outbox.cif.g09.slc.cpg/sg63_28_cif.got.tgz:54253.got - 2010.04.10 19:34:48.
