data_PCOD8261768
_publ_section_title
;
Structure prediction by ZEFSAII (Michael W. Deem and Ramdas Pophale) SiO2 
 PCOD8261768
Probable space group: C M C A
;
_chemical_formula_sum "Si O2"
_cell_formula_units_Z 64
_cell_length_a 21.285145
_cell_length_b 17.491049
_cell_length_c 7.994338
_cell_angle_alpha 90.000000
_cell_angle_beta 90.000000
_cell_angle_gamma 90.000000
_cell_volume 2976.288153
_symmetry_space_group_name_H-M "C M C A"
_symmetry_group_IT_number 64
_symmetry_cell_setting 'orthorhombic'
loop_
_space_group_symop_operation_xyz
x,y,z
-x,1/2-y,1/2+z
x,-y,-z
-x,1/2+y,1/2-z
-x,-y,-z
x,1/2+y,1/2-z
-x,y,z
x,1/2-y,1/2+z
1/2+x,1/2+y,z
1/2-x,-y,1/2+z
1/2+x,1/2-y,-z
1/2-x,y,1/2-z
1/2-x,1/2-y,-z
1/2+x,y,1/2-z
1/2-x,1/2+y,z
1/2+x,-y,1/2+z
loop_
_atom_site_type_symbol
_atom_site_label
_atom_site_fract_x
_atom_site_fract_y
_atom_site_fract_z
Si Si1 0.500000 0.303342 0.246492
Si Si2 0.878633 0.883159 0.117952
Si Si3 0.000000 0.639506 0.125075
Si Si4 0.250000 0.885813 0.250000
Si Si5 0.616522 0.553273 0.237317
Si Si6 0.710159 0.500000 0.500000
O O1 0.437674 0.328625 0.146991
O O2 0.500000 0.211695 0.249403
O O3 0.500000 0.334334 0.433577
O O4 0.817797 0.844531 0.220263
O O5 0.897864 0.965956 0.187888
O O6 0.866498 0.891949 0.919328
O O7 0.940960 0.586596 0.159898
O O8 0.254751 0.939480 0.411940
O O9 0.672913 0.551486 0.367912
#
# Coordination Sequence:
#
# PCOD8261768 Si02
#       6
#     8  16   8   8  16   8
#     4  12  25  40  59  84 114 150 192 236 285 340
#     4  10  21  37  59  87 117 148 190 237 282 335
#     4  12  23  38  59  81 114 152 190 235 287 340
#     4  10  18  32  56  84 118 150 186 232 284 334
#     4  10  20  35  58  86 116 149 190 236 282 332
#     4  10  18  31  54  85 116 148 188 236 282 332
#
# _framework density 21.503295999999999
#
# number of rings (size 3 to 8) (size 9 to 14) (size 15 to 20)
#    0.000    1.500    0.000    9.000    0.000    3.500 
#    0.000    0.000    0.000   19.500    0.000    0.000 
#    0.000    0.000    0.000    0.000    0.000    0.000 
#
# Total GULP energy -396509.592700 kJ/mol
# GULP energy per Si atom -12390.924772 kJ/mol
# Density = 2.145435 g / cm^3
# Si number density = 21.503296 Si / 1000 Ang^3
#
#
#
# Elastic Constant Matrix: (Units=GPa)
#
#
# Indices 1 2 3 4 5 6 
#
# 1 130.5039 25.2090 21.8173 0.0000 0.0000 0.0000
# 2 25.2090 45.6180 6.4113 0.0000 0.0000 0.0000
# 3 21.8173 6.4113 113.9889 0.0000 0.0000 0.0000
# 4 0.0000 0.0000 0.0000 27.6754 0.0000 0.0000
# 5 0.0000 0.0000 0.0000 0.0000 52.5034 0.0000
# 6 0.0000 0.0000 0.0000 0.0000 0.0000 -0.2172
#
#
#
# Elastic Compliance Matrix: (Units=1/GPa)
#
#
# Indices 1 2 3 4 5 6 
#
# 1 0.008801 -0.004664 -0.001422 0.000000 0.000000 0.000000
# 2 -0.004664 0.024567 -0.000489 0.000000 0.000000 0.000000
# 3 -0.001422 -0.000489 0.009073 0.000000 0.000000 0.000000
# 4 0.000000 0.000000 0.000000 0.036133 0.000000 0.000000
# 5 0.000000 0.000000 0.000000 0.000000 0.019046 0.000000
# 6 0.000000 0.000000 0.000000 0.000000 0.000000 -4.605045
#
#
# Mechanical properties :
#
#
# Convention : Reuss Voigt Hill
#
# Bulk Modulus (GPa) = 34.14061 44.10954 39.12508
# Shear Modulus (GPa) = -1.11495 31.77057 15.32781
#
# Velocity S-wave (km/s) = -0.72085 3.84796 2.67275
# Velocity P-wave (km/s) = 3.90110 6.34822 5.26870
#
# Compressibility (1/GPa) = 0.02929063
#
# Stress axis : x y z
#
# Youngs Moduli (GPa) = 113.62020 40.70475 110.22310
#
# Poissons Ratio (x) = 0.18984 0.15676
# Poissons Ratio (y) = 0.52990 0.05391
# Poissons Ratio (z) = 0.16159 0.01991
#
# Static dielectric constant tensor:
#      x y z
#    x 4.548720 0.000000 0.000000 
#    y 0.000000 3.504840 0.000000 
#    z 0.000000 0.000000 4.411710 
# 
# 
# High freq. dielectric constant tensor:
#      x y z
#    x 1.862600 0.000000 0.000000 
#    y 0.000000 1.794600 0.000000 
#    z 0.000000 0.000000 1.868360 
# 
# From -- ./inp_files/7834.got.cif
#   From: 2010.03.12/outbox.cif.g09.slc.cpg/sg64_4_cif.got.tgz:7834.got - 2010.04.10 20:19:32.
