data_PCOD8261251
_publ_section_title
;
Structure prediction by ZEFSAII (Michael W. Deem and Ramdas Pophale) SiO2 
 PCOD8261251
Probable space group: C M C M
;
_chemical_formula_sum "Si O2"
_cell_formula_units_Z 48
_cell_length_a 28.931157
_cell_length_b 4.925752
_cell_length_c 14.908317
_cell_angle_alpha 90.000000
_cell_angle_beta 90.000000
_cell_angle_gamma 90.000000
_cell_volume 2124.550033
_symmetry_space_group_name_H-M "C M C M"
_symmetry_group_IT_number 63
_symmetry_cell_setting 'orthorhombic'
loop_
_space_group_symop_operation_xyz
x,y,z
-x,-y,1/2+z
x,-y,-z
-x,y,1/2-z
-x,-y,-z
x,y,1/2-z
-x,y,z
x,-y,1/2+z
1/2+x,1/2+y,z
1/2-x,1/2-y,1/2+z
1/2+x,1/2-y,-z
1/2-x,1/2+y,1/2-z
1/2-x,1/2-y,-z
1/2+x,1/2+y,1/2-z
1/2-x,1/2+y,z
1/2+x,1/2-y,1/2+z
loop_
_atom_site_type_symbol
_atom_site_label
_atom_site_fract_x
_atom_site_fract_y
_atom_site_fract_z
Si Si1 0.906657 0.919018 0.149542
Si Si2 0.351620 0.086692 0.598798
Si Si3 0.500000 0.255229 0.064198
Si Si4 0.781373 0.263128 0.250000
O O1 0.909868 0.035730 0.250000
O O2 0.869058 0.682560 0.147385
O O3 0.954628 0.775632 0.124602
O O4 0.891506 0.178940 0.088724
O O5 0.310474 0.204926 0.658773
O O6 0.334304 0.000000 0.500000
O O7 0.500000 0.500000 0.000000
O O8 0.500000 0.000000 0.000000
O O9 0.737352 0.458260 0.250000
#
# Coordination Sequence:
#
# PCOD8261251 Si02
#       4
#    16  16   8   8
#     4  12  23  44  68  99 140 189 233 281 340 410
#     4  12  25  45  72 101 137 184 231 285 354 422
#     4  12  25  40  63 102 141 180 235 279 324 393
#     4  12  26  46  72 101 138 171 228 300 360 428
#
# _framework density 22.593017
#
# number of rings (size 3 to 8) (size 9 to 14) (size 15 to 20)
#    0.000    0.000    3.333    8.500    0.000    1.333 
#    0.000    5.000    0.000    0.000    0.000    0.000 
#    0.000    0.000    0.000    0.000    0.000    0.000 
#
# Total GULP energy -297655.867443 kJ/mol
# GULP energy per Si atom -12402.327810 kJ/mol
# Density = 2.254159 g / cm^3
# Si number density = 22.593017 Si / 1000 Ang^3
#
#
#
# Elastic Constant Matrix: (Units=GPa)
#
#
# Indices 1 2 3 4 5 6 
#
# 1 93.1331 15.1083 43.7029 0.0000 0.0000 0.0000
# 2 15.1083 115.7747 17.3916 0.0000 0.0000 0.0000
# 3 43.7029 17.3916 127.5142 0.0000 0.0000 0.0000
# 4 0.0000 0.0000 0.0000 38.4400 0.0000 0.0000
# 5 0.0000 0.0000 0.0000 0.0000 25.3496 0.0000
# 6 0.0000 0.0000 0.0000 0.0000 0.0000 42.4116
#
#
#
# Elastic Compliance Matrix: (Units=1/GPa)
#
#
# Indices 1 2 3 4 5 6 
#
# 1 0.012917 -0.001042 -0.004285 0.000000 0.000000 0.000000
# 2 -0.001042 0.008902 -0.000857 0.000000 0.000000 0.000000
# 3 -0.004285 -0.000857 0.009428 0.000000 0.000000 0.000000
# 4 0.000000 0.000000 0.000000 0.026015 0.000000 0.000000
# 5 0.000000 0.000000 0.000000 0.000000 0.039448 0.000000
# 6 0.000000 0.000000 0.000000 0.000000 0.000000 0.023578
#
#
# Mechanical properties :
#
#
# Convention : Reuss Voigt Hill
#
# Bulk Modulus (GPa) = 52.96874 54.31418 53.64146
# Shear Modulus (GPa) = 35.98434 38.58819 37.28627
#
# Velocity S-wave (km/s) = 3.99522 4.13724 4.06685
# Velocity P-wave (km/s) = 6.69164 6.84944 6.77100
#
# Compressibility (1/GPa) = 0.01887906
#
# Stress axis : x y z
#
# Youngs Moduli (GPa) = 77.41688 112.33194 106.06999
#
# Poissons Ratio (x) = 0.11705 0.45451
# Poissons Ratio (y) = 0.08067 0.09091
# Poissons Ratio (z) = 0.33173 0.09627
#
# Static dielectric constant tensor:
#      x y z
#    x 3.789130 0.000000 0.000000 
#    y 0.000000 4.234680 0.000000 
#    z 0.000000 0.000000 4.066160 
# 
# 
# High freq. dielectric constant tensor:
#      x y z
#    x 1.884130 0.000000 0.000000 
#    y 0.000000 1.913050 0.000000 
#    z 0.000000 0.000000 1.900900 
# 
# From -- ./inp_files/37351.got.cif
#   From: 2010.03.12/outbox.cif.g09.slc.cpg/sg63_19_cif.got.tgz:37351.got - 2010.04.10 19:34:48.
