data_PCOD8262918
_publ_section_title
;
Structure prediction by ZEFSAII (Michael W. Deem and Ramdas Pophale) SiO2 
 PCOD8262918
Probable space group: C M C A
;
_chemical_formula_sum "Si O2"
_cell_formula_units_Z 96
_cell_length_a 17.744850
_cell_length_b 15.115373
_cell_length_c 18.994097
_cell_angle_alpha 90.000000
_cell_angle_beta 90.000000
_cell_angle_gamma 90.000000
_cell_volume 5094.597202
_symmetry_space_group_name_H-M "C M C A"
_symmetry_group_IT_number 64
_symmetry_cell_setting 'orthorhombic'
loop_
_space_group_symop_operation_xyz
x,y,z
-x,1/2-y,1/2+z
x,-y,-z
-x,1/2+y,1/2-z
-x,-y,-z
x,1/2+y,1/2-z
-x,y,z
x,1/2-y,1/2+z
1/2+x,1/2+y,z
1/2-x,-y,1/2+z
1/2+x,1/2-y,-z
1/2-x,y,1/2-z
1/2-x,1/2-y,-z
1/2+x,y,1/2-z
1/2-x,1/2+y,z
1/2+x,-y,1/2+z
loop_
_atom_site_type_symbol
_atom_site_label
_atom_site_fract_x
_atom_site_fract_y
_atom_site_fract_z
Si Si1 0.302587 0.169335 0.928001
Si Si2 0.836965 0.833607 0.730720
Si Si3 0.586860 0.329650 0.303717
Si Si4 0.286558 0.343952 0.583622
Si Si5 0.912578 0.003061 0.792320
Si Si6 0.190119 0.513839 0.579655
O O1 0.370767 0.147517 0.876105
O O2 0.279338 0.271076 0.919122
O O3 0.231210 0.107709 0.910768
O O4 0.329660 0.152013 0.008603
O O5 0.750000 0.819840 0.750000
O O6 0.886560 0.761603 0.770062
O O7 0.845687 0.823193 0.646017
O O8 0.865384 0.929543 0.751898
O O9 0.500000 0.321386 0.323775
O O10 0.602343 0.405764 0.247579
O O11 0.247742 0.437029 0.602069
O O12 0.000000 0.977092 0.794111
O O13 0.883559 0.013026 0.871899
O O14 0.162073 0.500000 0.500000
#
# Coordination Sequence:
#
# PCOD8262918 Si02
#       6
#    16  16  16  16  16  16
#     4  10  20  36  58  82 115 145 191 240 273 341
#     4  12  21  36  63  87 112 154 193 238 282 336
#     4  11  24  39  57  86 120 154 189 235 292 344
#     4  10  20  34  56  90 108 141 198 234 279 324
#     4  11  24  38  56  86 121 152 188 237 289 345
#     4  10  20  35  58  85 113 148 192 237 281 339
#
# _framework density 18.843491
#
# number of rings (size 3 to 8) (size 9 to 14) (size 15 to 20)
#    0.000    1.333    3.333    2.500    0.000    0.333 
#    0.000    1.667    0.000   14.500    0.000    0.000 
#    0.000    0.000    0.000    0.000    0.000    0.000 
#
# Total GULP energy -595374.057803 kJ/mol
# GULP energy per Si atom -12403.626204 kJ/mol
# Density = 1.880060 g / cm^3
# Si number density = 18.843491 Si / 1000 Ang^3
#
#
#
# Elastic Constant Matrix: (Units=GPa)
#
#
# Indices 1 2 3 4 5 6 
#
# 1 65.5160 10.2910 56.1029 0.0000 0.0000 0.0000
# 2 10.2910 63.2522 3.6324 0.0000 0.0000 0.0000
# 3 56.1029 3.6324 134.3844 0.0000 0.0000 0.0000
# 4 0.0000 0.0000 0.0000 26.3653 0.0000 0.0000
# 5 0.0000 0.0000 0.0000 0.0000 25.4921 0.0000
# 6 0.0000 0.0000 0.0000 0.0000 0.0000 25.9168
#
#
#
# Elastic Compliance Matrix: (Units=1/GPa)
#
#
# Indices 1 2 3 4 5 6 
#
# 1 0.024465 -0.003399 -0.010122 0.000000 0.000000 0.000000
# 2 -0.003399 0.016307 0.000978 0.000000 0.000000 0.000000
# 3 -0.010122 0.000978 0.011641 0.000000 0.000000 0.000000
# 4 0.000000 0.000000 0.000000 0.037929 0.000000 0.000000
# 5 0.000000 0.000000 0.000000 0.000000 0.039228 0.000000
# 6 0.000000 0.000000 0.000000 0.000000 0.000000 0.038585
#
#
# Mechanical properties :
#
#
# Convention : Reuss Voigt Hill
#
# Bulk Modulus (GPa) = 36.59404 44.80058 40.69731
# Shear Modulus (GPa) = 24.70996 28.42991 26.56993
#
# Velocity S-wave (km/s) = 3.62515 3.88846 3.75911
# Velocity P-wave (km/s) = 6.08148 6.63226 6.36284
#
# Compressibility (1/GPa) = 0.02732686
#
# Stress axis : x y z
#
# Youngs Moduli (GPa) = 40.87499 61.32494 85.90678
#
# Poissons Ratio (x) = 0.20845 0.86952
# Poissons Ratio (y) = 0.13894 -0.08404
# Poissons Ratio (z) = 0.41373 -0.05999
#
# Static dielectric constant tensor:
#      x y z
#    x 3.193770 0.000000 0.000000 
#    y 0.000000 3.592460 0.000000 
#    z 0.000000 0.000000 3.871820 
# 
# 
# High freq. dielectric constant tensor:
#      x y z
#    x 1.698980 0.000000 0.000000 
#    y 0.000000 1.752400 0.000000 
#    z 0.000000 0.000000 1.752020 
# 
# From -- ./inp_files/39230.got.cif
#   From: 2010.03.12/outbox.cif.g09.slc.cpg/sg64_20_cif.got.tgz:39230.got - 2010.04.10 20:19:32.
