data_PCOD8262440
_publ_section_title
;
Structure prediction by ZEFSAII (Michael W. Deem and Ramdas Pophale) SiO2 
 PCOD8262440
Probable space group: C M C A
;
_chemical_formula_sum "Si O2"
_cell_formula_units_Z 120
_cell_length_a 24.360149
_cell_length_b 27.558926
_cell_length_c 9.625067
_cell_angle_alpha 90.000000
_cell_angle_beta 90.000000
_cell_angle_gamma 90.000000
_cell_volume 6461.688087
_symmetry_space_group_name_H-M "C M C A"
_symmetry_group_IT_number 64
_symmetry_cell_setting 'orthorhombic'
loop_
_space_group_symop_operation_xyz
x,y,z
-x,1/2-y,1/2+z
x,-y,-z
-x,1/2+y,1/2-z
-x,-y,-z
x,1/2+y,1/2-z
-x,y,z
x,1/2-y,1/2+z
1/2+x,1/2+y,z
1/2-x,-y,1/2+z
1/2+x,1/2-y,-z
1/2-x,y,1/2-z
1/2-x,1/2-y,-z
1/2+x,y,1/2-z
1/2-x,1/2+y,z
1/2+x,-y,1/2+z
loop_
_atom_site_type_symbol
_atom_site_label
_atom_site_fract_x
_atom_site_fract_y
_atom_site_fract_z
Si Si1 0.131852 0.883665 0.277748
Si Si2 0.250000 0.389131 0.250000
Si Si3 0.144404 0.054873 0.448939
Si Si4 0.738222 0.555206 0.024583
Si Si5 0.935016 0.795778 0.661625
Si Si6 0.565299 0.207217 0.846604
Si Si7 0.880238 0.942320 0.003218
Si Si8 0.563595 0.901149 0.743214
O O1 0.192439 0.859576 0.245928
O O2 0.128776 0.908579 0.427812
O O3 0.088091 0.840663 0.272165
O O4 0.117600 0.924041 0.162028
O O5 0.257291 0.424164 0.378653
O O6 0.206557 0.064261 0.382881
O O7 0.099355 0.060639 0.330045
O O8 0.142564 0.000000 0.500000
O O9 0.725037 0.500000 0.000000
O O10 0.678143 0.574955 0.069242
O O11 0.912609 0.788891 0.504817
O O12 0.912181 0.753428 0.761155
O O13 0.915259 0.846908 0.724398
O O14 0.000000 0.793258 0.659852
O O15 0.500000 0.203950 0.842885
O O16 0.927561 0.914283 0.918283
O O17 0.890747 0.000000 0.000000
O O18 0.500000 0.907037 0.783169
#
# Coordination Sequence:
#
# PCOD8262440 Si02
#       8
#    16   8  16  16  16  16  16  16
#     4  10  19  34  57  80 107 144 182 220 269 329
#     4   8  16  30  48  76 108 138 168 220 278 312
#     4  10  19  34  57  81 107 144 183 223 270 315
#     4   8  16  30  52  77 101 135 186 234 260 296
#     4   9  20  37  56  81 104 130 176 231 276 314
#     4  10  20  36  60  82 100 130 179 231 276 322
#     4  10  21  36  53  79 114 150 187 220 260 313
#     4  11  23  37  51  77 118 146 174 225 271 318
#
# _framework density 18.570999
#
# number of rings (size 3 to 8) (size 9 to 14) (size 15 to 20)
#    0.000    2.400    1.333    0.800    1.867    4.800 
#    0.000    1.333    0.000    2.400    0.000    0.000 
#    0.000    0.000    0.000    0.000    0.000    0.000 
#
# Total GULP energy -743336.891744 kJ/mol
# GULP energy per Si atom -12388.948196 kJ/mol
# Density = 1.852873 g / cm^3
# Si number density = 18.570999 Si / 1000 Ang^3
#
#
#
# Elastic Constant Matrix: (Units=GPa)
#
#
# Indices 1 2 3 4 5 6 
#
# 1 64.2535 28.3225 18.1648 0.0000 0.0000 0.0000
# 2 28.3225 94.2453 26.9838 0.0000 0.0000 0.0000
# 3 18.1648 26.9838 61.5119 0.0000 0.0000 0.0000
# 4 0.0000 0.0000 0.0000 16.5447 0.0000 0.0000
# 5 0.0000 0.0000 0.0000 0.0000 25.2628 0.0000
# 6 0.0000 0.0000 0.0000 0.0000 0.0000 18.1579
#
#
#
# Elastic Compliance Matrix: (Units=1/GPa)
#
#
# Indices 1 2 3 4 5 6 
#
# 1 0.018566 -0.004586 -0.003471 0.000000 0.000000 0.000000
# 2 -0.004586 0.013267 -0.004466 0.000000 0.000000 0.000000
# 3 -0.003471 -0.004466 0.019241 0.000000 0.000000 0.000000
# 4 0.000000 0.000000 0.000000 0.060442 0.000000 0.000000
# 5 0.000000 0.000000 0.000000 0.000000 0.039584 0.000000
# 6 0.000000 0.000000 0.000000 0.000000 0.000000 0.055072
#
#
# Mechanical properties :
#
#
# Convention : Reuss Voigt Hill
#
# Bulk Modulus (GPa) = 38.41823 40.77255 39.59539
# Shear Modulus (GPa) = 20.84252 21.76241 21.30246
#
# Velocity S-wave (km/s) = 3.35373 3.42694 3.39053
# Velocity P-wave (km/s) = 5.97736 6.13687 6.05764
#
# Compressibility (1/GPa) = 0.02602931
#
# Stress axis : x y z
#
# Youngs Moduli (GPa) = 53.86205 75.37317 51.97210
#
# Poissons Ratio (x) = 0.34563 0.18040
# Poissons Ratio (y) = 0.24699 0.23210
# Poissons Ratio (z) = 0.18696 0.33661
#
# Static dielectric constant tensor:
#      x y z
#    x 3.621520 0.000000 0.000000 
#    y 0.000000 3.272860 0.000000 
#    z 0.000000 0.000000 3.455280 
# 
# 
# High freq. dielectric constant tensor:
#      x y z
#    x 1.716860 0.000000 0.000000 
#    y 0.000000 1.698210 0.000000 
#    z 0.000000 0.000000 1.722260 
# 
# From -- ./inp_files/10710.got.cif
#   From: 2010.03.12/outbox.cif.g09.slc.cpg/sg64_6_cif.got.tgz:10710.got - 2010.04.10 20:19:32.
