data_PCOD8262709
_publ_section_title
;
Structure prediction by ZEFSAII (Michael W. Deem and Ramdas Pophale) SiO2 
 PCOD8262709
Probable space group: C M C A
;
_chemical_formula_sum "Si O2"
_cell_formula_units_Z 80
_cell_length_a 27.308606
_cell_length_b 5.171110
_cell_length_c 35.069098
_cell_angle_alpha 90.000000
_cell_angle_beta 90.000000
_cell_angle_gamma 90.000000
_cell_volume 4952.310925
_symmetry_space_group_name_H-M "C M C A"
_symmetry_group_IT_number 64
_symmetry_cell_setting 'orthorhombic'
loop_
_space_group_symop_operation_xyz
x,y,z
-x,1/2-y,1/2+z
x,-y,-z
-x,1/2+y,1/2-z
-x,-y,-z
x,1/2+y,1/2-z
-x,y,z
x,1/2-y,1/2+z
1/2+x,1/2+y,z
1/2-x,-y,1/2+z
1/2+x,1/2-y,-z
1/2-x,y,1/2-z
1/2-x,1/2-y,-z
1/2+x,y,1/2-z
1/2-x,1/2+y,z
1/2+x,-y,1/2+z
loop_
_atom_site_type_symbol
_atom_site_label
_atom_site_fract_x
_atom_site_fract_y
_atom_site_fract_z
Si Si1 0.058419 0.807009 0.727857
Si Si2 0.377962 0.742979 0.524649
Si Si3 0.558137 0.296383 0.642120
Si Si4 0.441877 0.704100 0.096830
Si Si5 0.272372 0.067017 0.956809
O O1 0.078383 0.058693 0.749567
O O2 0.079524 0.804290 0.684927
O O3 0.000000 0.806199 0.727038
O O4 0.397398 0.500000 0.500000
O O5 0.419278 0.812316 0.554996
O O6 0.328677 0.651518 0.545887
O O7 0.367396 0.000000 0.500000
O O8 0.500000 0.300899 0.644178
O O9 0.576705 0.039272 0.621238
O O10 0.577244 0.542115 0.618569
O O11 0.500000 0.702999 0.091931
O O12 0.238742 0.289645 0.936773
O O13 0.255362 0.000000 0.000000
#
# Coordination Sequence:
#
# PCOD8262709 Si02
#       5
#    16  16  16  16  16
#     4   9  15  23  38  59  78  97 129 171 204 234
#     4  11  21  31  45  63  80 104 143 182 212 244
#     4   9  17  29  42  56  78 109 141 170 204 245
#     4  10  20  32  43  56  80 114 147 176 205 238
#     4   9  16  28  45  63  81  98 121 163 216 263
#
# _framework density 16.154074999999999
#
# number of rings (size 3 to 8) (size 9 to 14) (size 15 to 20)
#    0.000    2.400    0.000    5.400    0.000    5.600 
#    0.000    0.000    0.000    0.000    0.000    0.000 
#    0.000    0.000    0.000    0.000    0.000   70.000 
#
# Total GULP energy -495820.445852 kJ/mol
# GULP energy per Si atom -12395.511146 kJ/mol
# Density = 1.611731 g / cm^3
# Si number density = 16.154075 Si / 1000 Ang^3
#
#
#
# Elastic Constant Matrix: (Units=GPa)
#
#
# Indices 1 2 3 4 5 6 
#
# 1 32.2373 26.3223 26.6963 0.0000 0.0000 0.0000
# 2 26.3223 147.3351 39.4189 0.0000 0.0000 0.0000
# 3 26.6963 39.4189 78.1442 0.0000 0.0000 0.0000
# 4 0.0000 0.0000 0.0000 25.5191 0.0000 0.0000
# 5 0.0000 0.0000 0.0000 0.0000 0.6581 0.0000
# 6 0.0000 0.0000 0.0000 0.0000 0.0000 12.3722
#
#
#
# Elastic Compliance Matrix: (Units=1/GPa)
#
#
# Indices 1 2 3 4 5 6 
#
# 1 0.045829 -0.004623 -0.013325 0.000000 0.000000 0.000000
# 2 -0.004623 0.008312 -0.002614 0.000000 0.000000 0.000000
# 3 -0.013325 -0.002614 0.018667 0.000000 0.000000 0.000000
# 4 0.000000 0.000000 0.000000 0.039186 0.000000 0.000000
# 5 0.000000 0.000000 0.000000 0.000000 1.519462 0.000000
# 6 0.000000 0.000000 0.000000 0.000000 0.000000 0.080826
#
#
# Mechanical properties :
#
#
# Convention : Reuss Voigt Hill
#
# Bulk Modulus (GPa) = 31.55926 49.17684 40.36805
# Shear Modulus (GPa) = 2.83452 18.72849 10.78150
#
# Velocity S-wave (km/s) = 1.32608 3.40864 2.58624
# Velocity P-wave (km/s) = 4.68225 6.78235 5.82768
#
# Compressibility (1/GPa) = 0.03168642
#
# Stress axis : x y z
#
# Youngs Moduli (GPa) = 21.82038 120.30158 53.56919
#
# Poissons Ratio (x) = 0.55611 0.71379
# Poissons Ratio (y) = 0.10087 0.14002
# Poissons Ratio (z) = 0.29075 0.31445
#
# Static dielectric constant tensor:
#      x y z
#    x 2.520160 0.000000 0.000000 
#    y 0.000000 3.579640 0.000000 
#    z 0.000000 0.000000 2.921110 
# 
# 
# High freq. dielectric constant tensor:
#      x y z
#    x 1.558470 0.000000 0.000000 
#    y 0.000000 1.655990 0.000000 
#    z 0.000000 0.000000 1.593100 
# 
# From -- ./inp_files/53848.got.cif
#   From: 2010.03.12/outbox.cif.g09.slc.cpg/sg64_27_cif.got.tgz:53848.got - 2010.04.10 20:19:32.
