data_PCOD8262487
_publ_section_title
;
Structure prediction by ZEFSAII (Michael W. Deem and Ramdas Pophale) SiO2 
 PCOD8262487
Probable space group: C M C A
;
_chemical_formula_sum "Si O2"
_cell_formula_units_Z 96
_cell_length_a 13.606301
_cell_length_b 17.518527
_cell_length_c 19.174012
_cell_angle_alpha 90.000000
_cell_angle_beta 90.000000
_cell_angle_gamma 90.000000
_cell_volume 4570.362587
_symmetry_space_group_name_H-M "C M C A"
_symmetry_group_IT_number 64
_symmetry_cell_setting 'orthorhombic'
loop_
_space_group_symop_operation_xyz
x,y,z
-x,1/2-y,1/2+z
x,-y,-z
-x,1/2+y,1/2-z
-x,-y,-z
x,1/2+y,1/2-z
-x,y,z
x,1/2-y,1/2+z
1/2+x,1/2+y,z
1/2-x,-y,1/2+z
1/2+x,1/2-y,-z
1/2-x,y,1/2-z
1/2-x,1/2-y,-z
1/2+x,y,1/2-z
1/2-x,1/2+y,z
1/2+x,-y,1/2+z
loop_
_atom_site_type_symbol
_atom_site_label
_atom_site_fract_x
_atom_site_fract_y
_atom_site_fract_z
Si Si1 0.385668 0.352074 0.883918
Si Si2 0.225457 0.547940 0.169544
Si Si3 0.114880 0.721507 0.985512
Si Si4 0.384208 0.599907 0.627473
Si Si5 0.615014 0.730238 0.725904
Si Si6 0.883577 0.302674 0.861855
O O1 0.500000 0.373596 0.876447
O O2 0.322394 0.429183 0.875416
O O3 0.342099 0.296582 0.823747
O O4 0.365248 0.306530 0.955940
O O5 0.250000 0.529587 0.250000
O O6 0.180240 0.475732 0.129746
O O7 0.143968 0.613814 0.165151
O O8 0.153309 0.652988 0.936300
O O9 0.164367 0.715992 0.062421
O O10 0.000000 0.707979 0.991151
O O11 0.500000 0.580090 0.621048
O O12 0.362102 0.645575 0.699215
O O13 0.500000 0.745513 0.722125
O O14 0.655494 0.740514 0.804776
O O15 0.000000 0.297274 0.867303
#
# Coordination Sequence:
#
# PCOD8262487 Si02
#       6
#    16  16  16  16  16  16
#     4   9  18  36  58  80 111 151 197 235 277 338
#     4  12  23  33  52  88 116 156 191 229 292 343
#     4   8  17  36  62  87 112 148 189 241 296 338
#     4   9  19  37  58  85 120 151 185 233 294 349
#     4   8  15  33  59  81 108 144 181 235 285 327
#     4  10  19  34  61  93 117 141 190 247 292 340
#
# _framework density 21.004899000000002
#
# number of rings (size 3 to 8) (size 9 to 14) (size 15 to 20)
#    0.000    2.667    1.667    2.500    0.000    2.000 
#    6.000    2.500    3.667    0.000    0.000    2.333 
#    0.000    0.000    0.000    0.000    0.000    0.000 
#
# Total GULP energy -594854.397351 kJ/mol
# GULP energy per Si atom -12392.799945 kJ/mol
# Density = 2.095709 g / cm^3
# Si number density = 21.004899 Si / 1000 Ang^3
#
#
#
# Elastic Constant Matrix: (Units=GPa)
#
#
# Indices 1 2 3 4 5 6 
#
# 1 37.8217 32.4438 13.4157 0.0000 0.0000 0.0000
# 2 32.4438 110.5402 50.8070 0.0000 0.0000 0.0000
# 3 13.4157 50.8070 151.1799 0.0000 0.0000 0.0000
# 4 0.0000 0.0000 0.0000 23.3143 0.0000 0.0000
# 5 0.0000 0.0000 0.0000 0.0000 13.9580 0.0000
# 6 0.0000 0.0000 0.0000 0.0000 0.0000 29.0109
#
#
#
# Elastic Compliance Matrix: (Units=1/GPa)
#
#
# Indices 1 2 3 4 5 6 
#
# 1 0.035358 -0.010568 0.000414 0.000000 0.000000 0.000000
# 2 -0.010568 0.013858 -0.003719 0.000000 0.000000 0.000000
# 3 0.000414 -0.003719 0.007828 0.000000 0.000000 0.000000
# 4 0.000000 0.000000 0.000000 0.042892 0.000000 0.000000
# 5 0.000000 0.000000 0.000000 0.000000 0.071643 0.000000
# 6 0.000000 0.000000 0.000000 0.000000 0.000000 0.034470
#
#
# Mechanical properties :
#
#
# Convention : Reuss Voigt Hill
#
# Bulk Modulus (GPa) = 34.13317 54.76388 44.44853
# Shear Modulus (GPa) = 20.52867 26.78167 23.65517
#
# Velocity S-wave (km/s) = 3.12962 3.57462 3.35949
# Velocity P-wave (km/s) = 5.41708 6.57006 6.02123
#
# Compressibility (1/GPa) = 0.02929701
#
# Stress axis : x y z
#
# Youngs Moduli (GPa) = 28.28187 72.16196 127.74862
#
# Poissons Ratio (x) = 0.76261 -0.05287
# Poissons Ratio (y) = 0.29888 0.47514
# Poissons Ratio (z) = -0.01171 0.26840
#
# Static dielectric constant tensor:
#      x y z
#    x 3.712290 0.000000 0.000000 
#    y 0.000000 3.478690 0.000000 
#    z 0.000000 0.000000 4.567780 
# 
# 
# High freq. dielectric constant tensor:
#      x y z
#    x 1.832670 0.000000 0.000000 
#    y 0.000000 1.791700 0.000000 
#    z 0.000000 0.000000 1.825070 
# 
# From -- ./inp_files/39181.got.cif
#   From: 2010.03.12/outbox.cif.g09.slc.cpg/sg64_20_cif.got.tgz:39181.got - 2010.04.10 20:19:32.
