data_PCOD8262596
_publ_section_title
;
Structure prediction by ZEFSAII (Michael W. Deem and Ramdas Pophale) SiO2 
 PCOD8262596
Probable space group: C M C A
;
_chemical_formula_sum "Si O2"
_cell_formula_units_Z 48
_cell_length_a 15.035404
_cell_length_b 18.700488
_cell_length_c 8.498220
_cell_angle_alpha 90.000000
_cell_angle_beta 90.000000
_cell_angle_gamma 90.000000
_cell_volume 2389.439351
_symmetry_space_group_name_H-M "C M C A"
_symmetry_group_IT_number 64
_symmetry_cell_setting 'orthorhombic'
loop_
_space_group_symop_operation_xyz
x,y,z
-x,1/2-y,1/2+z
x,-y,-z
-x,1/2+y,1/2-z
-x,-y,-z
x,1/2+y,1/2-z
-x,y,z
x,1/2-y,1/2+z
1/2+x,1/2+y,z
1/2-x,-y,1/2+z
1/2+x,1/2-y,-z
1/2-x,y,1/2-z
1/2-x,1/2-y,-z
1/2+x,y,1/2-z
1/2-x,1/2+y,z
1/2+x,-y,1/2+z
loop_
_atom_site_type_symbol
_atom_site_label
_atom_site_fract_x
_atom_site_fract_y
_atom_site_fract_z
Si Si1 0.401194 0.674804 0.406837
Si Si2 0.258327 0.578919 0.564739
Si Si3 0.167479 0.295754 0.569815
O O1 0.500000 0.647526 0.359391
O O2 0.351712 0.613139 0.506873
O O3 0.339479 0.694365 0.257172
O O4 0.414995 0.747863 0.508909
O O5 0.249250 0.500000 0.500000
O O6 0.250000 0.577576 0.750000
O O7 0.174281 0.624840 0.501849
O O8 0.250000 0.250000 0.500000
#
# Coordination Sequence:
#
# PCOD8262596 Si02
#       3
#    16  16  16
#     4  11  22  37  60  89 120 150 188 243 296 340
#     4  11  22  39  61  83 113 154 198 239 283 347
#     4  10  19  36  59  84 114 152 195 233 278 342
#
# _framework density 20.088394999999998
#
# number of rings (size 3 to 8) (size 9 to 14) (size 15 to 20)
#    0.000    1.333    0.000   11.000    0.000    0.667 
#    0.000    1.667    0.000    7.000    0.000    0.000 
#    0.000    0.000    0.000    0.000    0.000    0.000 
#
# Total GULP energy -297320.131771 kJ/mol
# GULP energy per Si atom -12388.338824 kJ/mol
# Density = 2.004267 g / cm^3
# Si number density = 20.088395 Si / 1000 Ang^3
#
#
#
# Elastic Constant Matrix: (Units=GPa)
#
#
# Indices 1 2 3 4 5 6 
#
# 1 62.4148 22.8679 35.5841 0.0000 0.0000 0.0000
# 2 22.8679 177.8751 71.2302 0.0000 0.0000 0.0000
# 3 35.5841 71.2302 186.5479 0.0000 0.0000 0.0000
# 4 0.0000 0.0000 0.0000 38.5058 0.0000 0.0000
# 5 0.0000 0.0000 0.0000 0.0000 28.7032 0.0000
# 6 0.0000 0.0000 0.0000 0.0000 0.0000 12.0904
#
#
#
# Elastic Compliance Matrix: (Units=1/GPa)
#
#
# Indices 1 2 3 4 5 6 
#
# 1 0.018163 -0.001119 -0.003038 0.000000 0.000000 0.000000
# 2 -0.001119 0.006706 -0.002347 0.000000 0.000000 0.000000
# 3 -0.003038 -0.002347 0.006836 0.000000 0.000000 0.000000
# 4 0.000000 0.000000 0.000000 0.025970 0.000000 0.000000
# 5 0.000000 0.000000 0.000000 0.000000 0.034839 0.000000
# 6 0.000000 0.000000 0.000000 0.000000 0.000000 0.082710
#
#
# Mechanical properties :
#
#
# Convention : Reuss Voigt Hill
#
# Bulk Modulus (GPa) = 53.47976 76.24468 64.86222
# Shear Modulus (GPa) = 25.71162 35.67024 30.69093
#
# Velocity S-wave (km/s) = 3.58148 4.21843 3.91294
# Velocity P-wave (km/s) = 6.61685 7.85900 7.26452
#
# Compressibility (1/GPa) = 0.01869866
#
# Stress axis : x y z
#
# Youngs Moduli (GPa) = 55.05547 149.12862 146.28144
#
# Poissons Ratio (x) = 0.16684 0.44433
# Poissons Ratio (y) = 0.06159 0.34333
# Poissons Ratio (z) = 0.16723 0.35001
#
# Static dielectric constant tensor:
#      x y z
#    x 3.741040 0.000000 0.000000 
#    y 0.000000 3.946280 0.000000 
#    z 0.000000 0.000000 3.861910 
# 
# 
# High freq. dielectric constant tensor:
#      x y z
#    x 1.766260 0.000000 0.000000 
#    y 0.000000 1.783340 0.000000 
#    z 0.000000 0.000000 1.805170 
# 
# From -- ./inp_files/5008.got.cif
#   From: 2010.03.12/outbox.cif.g09.slc.cpg/sg64_3_cif.got.tgz:5008.got - 2010.04.10 20:19:32.
