data_PCOD8262371
_publ_section_title
;
Structure prediction by ZEFSAII (Michael W. Deem and Ramdas Pophale) SiO2 
 PCOD8262371
Probable space group: C M C A
;
_chemical_formula_sum "Si O2"
_cell_formula_units_Z 96
_cell_length_a 31.002114
_cell_length_b 8.718034
_cell_length_c 19.029133
_cell_angle_alpha 90.000000
_cell_angle_beta 90.000000
_cell_angle_gamma 90.000000
_cell_volume 5143.146188
_symmetry_space_group_name_H-M "C M C A"
_symmetry_group_IT_number 64
_symmetry_cell_setting 'orthorhombic'
loop_
_space_group_symop_operation_xyz
x,y,z
-x,1/2-y,1/2+z
x,-y,-z
-x,1/2+y,1/2-z
-x,-y,-z
x,1/2+y,1/2-z
-x,y,z
x,1/2-y,1/2+z
1/2+x,1/2+y,z
1/2-x,-y,1/2+z
1/2+x,1/2-y,-z
1/2-x,y,1/2-z
1/2-x,1/2-y,-z
1/2+x,y,1/2-z
1/2-x,1/2+y,z
1/2+x,-y,1/2+z
loop_
_atom_site_type_symbol
_atom_site_label
_atom_site_fract_x
_atom_site_fract_y
_atom_site_fract_z
Si Si1 0.047454 0.330188 0.660507
Si Si2 0.620937 0.981812 0.576621
Si Si3 0.271621 0.266879 0.173188
Si Si4 0.918577 0.036873 0.720932
Si Si5 0.368737 0.747549 0.323333
Si Si6 0.781620 0.051999 0.079162
O O1 0.087507 0.367712 0.611672
O O2 0.050758 0.442124 0.727160
O O3 0.050553 0.149461 0.677591
O O4 0.000000 0.357453 0.626658
O O5 0.667967 0.902120 0.576317
O O6 0.602176 0.000000 0.500000
O O7 0.622858 0.153758 0.607114
O O8 0.250000 0.262386 0.250000
O O9 0.319074 0.196067 0.183671
O O10 0.246513 0.192372 0.107146
O O11 0.275882 0.437456 0.144464
O O12 0.882614 0.144107 0.758329
O O13 0.894938 0.911490 0.671987
O O14 0.766780 0.000000 0.000000
#
# Coordination Sequence:
#
# PCOD8262371 Si02
#       6
#    16  16  16  16  16  16
#     4  10  19  33  57  82 105 136 173 224 273 327
#     4   9  20  38  55  75 106 147 184 218 265 329
#     4  11  23  32  56  85 108 139 192 240 270 310
#     4   9  19  34  54  79 111 137 172 214 280 336
#     4   9  20  34  54  78 109 143 175 220 274 322
#     4  10  22  39  53  75 114 155 186 222 279 337
#
# _framework density 18.665617000000001
#
# number of rings (size 3 to 8) (size 9 to 14) (size 15 to 20)
#    0.000    2.333    0.000    1.500   11.667    0.333 
#    0.000    1.667    0.000    1.000    0.000    0.000 
#    0.000    0.000    0.000    0.000    0.000    0.000 
#
# Total GULP energy -594768.795233 kJ/mol
# GULP energy per Si atom -12391.016567 kJ/mol
# Density = 1.862313 g / cm^3
# Si number density = 18.665617 Si / 1000 Ang^3
#
#
#
# Elastic Constant Matrix: (Units=GPa)
#
#
# Indices 1 2 3 4 5 6 
#
# 1 97.8577 27.8978 26.3915 0.0000 0.0000 0.0000
# 2 27.8978 75.9091 15.3265 0.0000 0.0000 0.0000
# 3 26.3915 15.3265 94.8234 0.0000 0.0000 0.0000
# 4 0.0000 0.0000 0.0000 19.4626 0.0000 0.0000
# 5 0.0000 0.0000 0.0000 0.0000 5.9867 0.0000
# 6 0.0000 0.0000 0.0000 0.0000 0.0000 12.8731
#
#
#
# Elastic Compliance Matrix: (Units=1/GPa)
#
#
# Indices 1 2 3 4 5 6 
#
# 1 0.012062 -0.003882 -0.002730 0.000000 0.000000 0.000000
# 2 -0.003882 0.014867 -0.001323 0.000000 0.000000 0.000000
# 3 -0.002730 -0.001323 0.011519 0.000000 0.000000 0.000000
# 4 0.000000 0.000000 0.000000 0.051381 0.000000 0.000000
# 5 0.000000 0.000000 0.000000 0.000000 0.167037 0.000000
# 6 0.000000 0.000000 0.000000 0.000000 0.000000 0.077682
#
#
# Mechanical properties :
#
#
# Convention : Reuss Voigt Hill
#
# Bulk Modulus (GPa) = 44.28625 45.31354 44.79990
# Shear Modulus (GPa) = 13.96872 20.92943 17.44908
#
# Velocity S-wave (km/s) = 2.73860 3.35219 3.06081
# Velocity P-wave (km/s) = 5.81184 6.26993 6.04523
#
# Compressibility (1/GPa) = 0.02258037
#
# Stress axis : x y z
#
# Youngs Moduli (GPa) = 82.90702 67.26170 86.80990
#
# Poissons Ratio (x) = 0.26109 0.23696
# Poissons Ratio (y) = 0.32182 0.11482
# Poissons Ratio (z) = 0.22631 0.08896
#
# Static dielectric constant tensor:
#      x y z
#    x 3.563380 0.000000 0.000000 
#    y 0.000000 3.447620 0.000000 
#    z 0.000000 0.000000 3.383080 
# 
# 
# High freq. dielectric constant tensor:
#      x y z
#    x 1.729000 0.000000 0.000000 
#    y 0.000000 1.722500 0.000000 
#    z 0.000000 0.000000 1.708960 
# 
# From -- ./inp_files/41772.got.cif
#   From: 2010.03.12/outbox.cif.g09.slc.cpg/sg64_21_cif.got.tgz:41772.got - 2010.04.10 20:19:32.
