data_PCOD8262817
_publ_section_title
;
Structure prediction by ZEFSAII (Michael W. Deem and Ramdas Pophale) SiO2 
 PCOD8262817
Probable space group: C M C A
;
_chemical_formula_sum "Si O2"
_cell_formula_units_Z 96
_cell_length_a 22.188796
_cell_length_b 25.251847
_cell_length_c 8.646693
_cell_angle_alpha 90.000000
_cell_angle_beta 90.000000
_cell_angle_gamma 90.000000
_cell_volume 4844.811968
_symmetry_space_group_name_H-M "C M C A"
_symmetry_group_IT_number 64
_symmetry_cell_setting 'orthorhombic'
loop_
_space_group_symop_operation_xyz
x,y,z
-x,1/2-y,1/2+z
x,-y,-z
-x,1/2+y,1/2-z
-x,-y,-z
x,1/2+y,1/2-z
-x,y,z
x,1/2-y,1/2+z
1/2+x,1/2+y,z
1/2-x,-y,1/2+z
1/2+x,1/2-y,-z
1/2-x,y,1/2-z
1/2-x,1/2-y,-z
1/2+x,y,1/2-z
1/2-x,1/2+y,z
1/2+x,-y,1/2+z
loop_
_atom_site_type_symbol
_atom_site_label
_atom_site_fract_x
_atom_site_fract_y
_atom_site_fract_z
Si Si1 0.572285 0.110125 0.800359
Si Si2 0.000000 0.323101 0.812789
Si Si3 0.182226 0.704032 0.285648
Si Si4 0.378716 0.203183 0.602714
Si Si5 0.500000 0.257389 0.960797
Si Si6 0.112531 0.614455 0.151425
Si Si7 0.066519 0.006439 0.317643
O O1 0.500000 0.119999 0.797522
O O2 0.611885 0.148320 0.693426
O O3 0.586243 0.049717 0.743679
O O4 0.599499 0.117069 0.970498
O O5 0.000000 0.265965 0.723963
O O6 0.057582 0.356299 0.762209
O O7 0.000000 0.305356 0.995223
O O8 0.250000 0.721406 0.250000
O O9 0.138718 0.749975 0.220589
O O10 0.172138 0.697376 0.469665
O O11 0.171601 0.647556 0.198548
O O12 0.441388 0.214886 0.524504
O O13 0.114132 0.553982 0.216516
O O14 0.000000 0.022844 0.255714
O O15 0.061288 0.000000 0.500000
#
# Coordination Sequence:
#
# PCOD8262817 Si02
#       7
#    16   8  16  16   8  16  16
#     4  10  20  33  60  95 125 149 184 237 310 377
#     4  12  22  32  54  87 122 156 188 234 313 358
#     4  12  27  43  59  80 114 165 210 246 285 346
#     4  12  23  39  60  85 121 151 193 246 306 363
#     4  12  22  34  53  89 121 143 184 247 315 360
#     4  11  19  35  61  84 120 158 197 243 294 359
#     4   8  15  30  54  89 122 151 183 230 294 370
#
# _framework density 19.815009
#
# number of rings (size 3 to 8) (size 9 to 14) (size 15 to 20)
#    0.000    1.167    5.833    2.500    2.333    0.000 
#    0.000    0.833    0.000   10.000    0.000    0.000 
#    0.000    0.000    0.000    0.000    0.000    0.000 
#
# Total GULP energy -594811.184622 kJ/mol
# GULP energy per Si atom -12391.899680 kJ/mol
# Density = 1.976991 g / cm^3
# Si number density = 19.815009 Si / 1000 Ang^3
#
#
#
# Elastic Constant Matrix: (Units=GPa)
#
#
# Indices 1 2 3 4 5 6 
#
# 1 55.0591 25.6017 20.9151 0.0000 0.0000 0.0000
# 2 25.6017 154.8831 48.0917 0.0000 0.0000 0.0000
# 3 20.9151 48.0917 77.8027 0.0000 0.0000 0.0000
# 4 0.0000 0.0000 0.0000 27.0685 0.0000 0.0000
# 5 0.0000 0.0000 0.0000 0.0000 24.8081 0.0000
# 6 0.0000 0.0000 0.0000 0.0000 0.0000 5.1637
#
#
#
# Elastic Compliance Matrix: (Units=1/GPa)
#
#
# Indices 1 2 3 4 5 6 
#
# 1 0.020767 -0.002103 -0.004283 0.000000 0.000000 0.000000
# 2 -0.002103 0.008203 -0.004505 0.000000 0.000000 0.000000
# 3 -0.004283 -0.004505 0.016789 0.000000 0.000000 0.000000
# 4 0.000000 0.000000 0.000000 0.036943 0.000000 0.000000
# 5 0.000000 0.000000 0.000000 0.000000 0.040309 0.000000
# 6 0.000000 0.000000 0.000000 0.000000 0.000000 0.193661
#
#
# Mechanical properties :
#
#
# Convention : Reuss Voigt Hill
#
# Bulk Modulus (GPa) = 41.70596 52.99577 47.35087
# Shear Modulus (GPa) = 14.43225 24.28382 19.35804
#
# Velocity S-wave (km/s) = 2.70172 3.50455 3.12899
# Velocity P-wave (km/s) = 5.55210 6.57108 6.08296
#
# Compressibility (1/GPa) = 0.02397739
#
# Stress axis : x y z
#
# Youngs Moduli (GPa) = 48.15325 121.90754 59.56258
#
# Poissons Ratio (x) = 0.25636 0.25509
# Poissons Ratio (y) = 0.10126 0.26834
# Poissons Ratio (z) = 0.20623 0.54921
#
# Static dielectric constant tensor:
#      x y z
#    x 3.422970 0.000000 0.000000 
#    y 0.000000 4.042670 0.000000 
#    z 0.000000 0.000000 3.620590 
# 
# 
# High freq. dielectric constant tensor:
#      x y z
#    x 1.731100 0.000000 0.000000 
#    y 0.000000 1.786480 0.000000 
#    z 0.000000 0.000000 1.760750 
# 
# From -- ./inp_files/9626.got.cif
#   From: 2010.03.12/outbox.cif.g09.slc.cpg/sg64_5_cif.got.tgz:9626.got - 2010.04.10 20:19:32.
