data_PCOD8262513
_publ_section_title
;
Structure prediction by ZEFSAII (Michael W. Deem and Ramdas Pophale) SiO2 
 PCOD8262513
Probable space group: C M C A
;
_chemical_formula_sum "Si O2"
_cell_formula_units_Z 96
_cell_length_a 8.816340
_cell_length_b 19.746401
_cell_length_c 29.378126
_cell_angle_alpha 90.000000
_cell_angle_beta 90.000000
_cell_angle_gamma 90.000000
_cell_volume 5114.466893
_symmetry_space_group_name_H-M "C M C A"
_symmetry_group_IT_number 64
_symmetry_cell_setting 'orthorhombic'
loop_
_space_group_symop_operation_xyz
x,y,z
-x,1/2-y,1/2+z
x,-y,-z
-x,1/2+y,1/2-z
-x,-y,-z
x,1/2+y,1/2-z
-x,y,z
x,1/2-y,1/2+z
1/2+x,1/2+y,z
1/2-x,-y,1/2+z
1/2+x,1/2-y,-z
1/2-x,y,1/2-z
1/2-x,1/2-y,-z
1/2+x,y,1/2-z
1/2-x,1/2+y,z
1/2+x,-y,1/2+z
loop_
_atom_site_type_symbol
_atom_site_label
_atom_site_fract_x
_atom_site_fract_y
_atom_site_fract_z
Si Si1 0.177711 0.805907 0.469719
Si Si2 0.321294 0.359019 0.297352
Si Si3 0.320382 0.486496 0.701371
Si Si4 0.180322 0.604012 0.377798
Si Si5 0.678026 0.933701 0.973195
Si Si6 0.180174 0.258983 0.126198
O O1 0.250000 0.750000 0.500000
O O2 0.224767 0.877169 0.490498
O O3 0.240960 0.796806 0.418825
O O4 0.000000 0.794986 0.469900
O O5 0.500000 0.352758 0.293408
O O6 0.250000 0.337715 0.250000
O O7 0.276637 0.435900 0.310860
O O8 0.254442 0.304619 0.332944
O O9 0.500000 0.476299 0.703810
O O10 0.250000 0.465863 0.750000
O O11 0.252585 0.439177 0.662533
O O12 0.231946 0.574441 0.426265
O O13 0.238654 0.681492 0.372190
O O14 0.000000 0.599558 0.374669
O O15 0.500000 0.933545 0.961354
O O16 0.728900 0.000000 0.000000
O O17 0.000000 0.258969 0.127619
#
# Coordination Sequence:
#
# PCOD8262513 Si02
#       6
#    16  16  16  16  16  16
#     4  10  19  35  57  79 110 146 184 225 273 329
#     4   9  19  37  60  82 108 141 180 225 272 325
#     4  10  21  38  61  84 112 146 185 228 277 331
#     4  11  22  37  57  82 116 149 185 229 279 333
#     4  10  22  37  57  83 111 147 192 235 276 328
#     4   9  19  35  56  81 109 146 183 223 275 326
#
# _framework density 18.770284
#
# number of rings (size 3 to 8) (size 9 to 14) (size 15 to 20)
#    0.000    2.167    1.667    1.000    2.333    1.667 
#    0.000    4.167    0.000    0.000    0.000    0.000 
#    0.000    0.000    0.000    0.000    0.000    0.000 
#
# Total GULP energy -595112.561785 kJ/mol
# GULP energy per Si atom -12398.178371 kJ/mol
# Density = 1.872756 g / cm^3
# Si number density = 18.770284 Si / 1000 Ang^3
#
#
#
# Elastic Constant Matrix: (Units=GPa)
#
#
# Indices 1 2 3 4 5 6 
#
# 1 40.5098 41.9005 46.9345 0.0000 0.0000 0.0000
# 2 41.9005 160.3698 113.7223 0.0000 0.0000 0.0000
# 3 46.9345 113.7223 192.0407 0.0000 0.0000 0.0000
# 4 0.0000 0.0000 0.0000 43.2774 0.0000 0.0000
# 5 0.0000 0.0000 0.0000 0.0000 34.0922 0.0000
# 6 0.0000 0.0000 0.0000 0.0000 0.0000 24.7633
#
#
#
# Elastic Compliance Matrix: (Units=1/GPa)
#
#
# Indices 1 2 3 4 5 6 
#
# 1 0.037175 -0.005637 -0.005747 0.000000 0.000000 0.000000
# 2 -0.005637 0.011605 -0.005494 0.000000 0.000000 0.000000
# 3 -0.005747 -0.005494 0.009865 0.000000 0.000000 0.000000
# 4 0.000000 0.000000 0.000000 0.023107 0.000000 0.000000
# 5 0.000000 0.000000 0.000000 0.000000 0.029332 0.000000
# 6 0.000000 0.000000 0.000000 0.000000 0.000000 0.040382
#
#
# Mechanical properties :
#
#
# Convention : Reuss Voigt Hill
#
# Bulk Modulus (GPa) = 40.18106 88.67056 64.42581
# Shear Modulus (GPa) = 25.83719 33.11744 29.47732
#
# Velocity S-wave (km/s) = 3.71414 4.20498 3.96716
# Velocity P-wave (km/s) = 6.31239 8.42130 7.44193
#
# Compressibility (1/GPa) = 0.02488735
#
# Stress axis : x y z
#
# Youngs Moduli (GPa) = 26.89986 86.17299 101.36466
#
# Poissons Ratio (x) = 0.48579 0.58256
# Poissons Ratio (y) = 0.15164 0.55692
# Poissons Ratio (z) = 0.15460 0.47345
#
# Static dielectric constant tensor:
#      x y z
#    x 3.294670 0.000000 0.000000 
#    y 0.000000 3.673020 0.000000 
#    z 0.000000 0.000000 3.685300 
# 
# 
# High freq. dielectric constant tensor:
#      x y z
#    x 1.711530 0.000000 0.000000 
#    y 0.000000 1.740150 0.000000 
#    z 0.000000 0.000000 1.742580 
# 
# From -- ./inp_files/48130.got.cif
#   From: 2010.03.12/outbox.cif.g09.slc.cpg/sg64_25_cif.got.tgz:48130.got - 2010.04.10 20:19:32.
