data_PCOD8262923
_publ_section_title
;
Structure prediction by ZEFSAII (Michael W. Deem and Ramdas Pophale) SiO2 
 PCOD8262923
Probable space group: C M C A
;
_chemical_formula_sum "Si O2"
_cell_formula_units_Z 72
_cell_length_a 29.396574
_cell_length_b 8.863449
_cell_length_c 12.913092
_cell_angle_alpha 90.000000
_cell_angle_beta 90.000000
_cell_angle_gamma 90.000000
_cell_volume 3364.571131
_symmetry_space_group_name_H-M "C M C A"
_symmetry_group_IT_number 64
_symmetry_cell_setting 'orthorhombic'
loop_
_space_group_symop_operation_xyz
x,y,z
-x,1/2-y,1/2+z
x,-y,-z
-x,1/2+y,1/2-z
-x,-y,-z
x,1/2+y,1/2-z
-x,y,z
x,1/2-y,1/2+z
1/2+x,1/2+y,z
1/2-x,-y,1/2+z
1/2+x,1/2-y,-z
1/2-x,y,1/2-z
1/2-x,1/2-y,-z
1/2+x,y,1/2-z
1/2-x,1/2+y,z
1/2+x,-y,1/2+z
loop_
_atom_site_type_symbol
_atom_site_label
_atom_site_fract_x
_atom_site_fract_y
_atom_site_fract_z
Si Si1 0.382223 0.839351 0.949088
Si Si2 0.449533 0.278789 0.893444
Si Si3 0.449015 0.532557 0.291188
Si Si4 0.250000 0.503103 0.750000
Si Si5 0.783846 0.752485 0.600183
O O1 0.410434 0.866748 0.845248
O O2 0.335383 0.750414 0.937304
O O3 0.412284 0.728402 0.018466
O O4 0.372068 0.000000 0.000000
O O5 0.500000 0.266316 0.942720
O O6 0.444047 0.435499 0.831361
O O7 0.441620 0.143430 0.811396
O O8 0.500000 0.581052 0.328592
O O9 0.220893 0.400375 0.827949
O O10 0.220331 0.606789 0.673658
O O11 0.750000 0.750000 0.500000
#
# Coordination Sequence:
#
# PCOD8262923 Si02
#       5
#    16  16  16   8  16
#     4  10  20  34  57  83 110 146 189 232 282 342
#     4   9  18  34  55  80 111 147 186 230 281 336
#     4   9  18  33  53  78 110 146 185 228 275 334
#     4  10  24  42  64  86 116 156 194 242 302 354
#     4  11  23  42  63  88 119 153 196 246 297 353
#
# _framework density 21.399457999999999
#
# number of rings (size 3 to 8) (size 9 to 14) (size 15 to 20)
#    0.000    2.222    0.000    2.667    0.000    9.778 
#    0.000    3.333    0.000    5.333    0.000    0.000 
#    0.000    0.000    0.000    0.000    0.000    0.000 
#
# Total GULP energy -446160.334741 kJ/mol
# GULP energy per Si atom -12393.342632 kJ/mol
# Density = 2.135075 g / cm^3
# Si number density = 21.399458 Si / 1000 Ang^3
#
#
#
# Elastic Constant Matrix: (Units=GPa)
#
#
# Indices 1 2 3 4 5 6 
#
# 1 150.7857 32.8713 53.4494 0.0000 0.0000 0.0000
# 2 32.8713 65.8205 36.4691 0.0000 0.0000 0.0000
# 3 53.4494 36.4691 96.0970 0.0000 0.0000 0.0000
# 4 0.0000 0.0000 0.0000 33.8282 0.0000 0.0000
# 5 0.0000 0.0000 0.0000 0.0000 246.7791 0.0000
# 6 0.0000 0.0000 0.0000 0.0000 0.0000 15.8471
#
#
#
# Elastic Compliance Matrix: (Units=1/GPa)
#
#
# Indices 1 2 3 4 5 6 
#
# 1 0.008474 -0.002052 -0.003934 0.000000 0.000000 0.000000
# 2 -0.002052 0.019735 -0.006348 0.000000 0.000000 0.000000
# 3 -0.003934 -0.006348 0.015004 0.000000 0.000000 0.000000
# 4 0.000000 0.000000 0.000000 0.029561 0.000000 0.000000
# 5 0.000000 0.000000 0.000000 0.000000 0.004052 0.000000
# 6 0.000000 0.000000 0.000000 0.000000 0.000000 0.063103
#
#
# Mechanical properties :
#
#
# Convention : Reuss Voigt Hill
#
# Bulk Modulus (GPa) = 53.92784 62.03141 57.97962
# Shear Modulus (GPa) = 29.27758 71.95178 50.61468
#
# Velocity S-wave (km/s) = 3.70286 5.80484 4.86864
# Velocity P-wave (km/s) = 6.59824 8.60108 7.66536
#
# Compressibility (1/GPa) = 0.01854330
#
# Stress axis : x y z
#
# Youngs Moduli (GPa) = 118.00902 50.67162 66.65044
#
# Poissons Ratio (x) = 0.10398 0.26224
# Poissons Ratio (y) = 0.24215 0.42311
# Poissons Ratio (z) = 0.46430 0.32167
#
# Static dielectric constant tensor:
#      x y z
#    x 3.760970 0.000000 0.000000 
#    y 0.000000 3.859610 0.000000 
#    z 0.000000 0.000000 3.938890 
# 
# 
# High freq. dielectric constant tensor:
#      x y z
#    x 1.835520 0.000000 0.000000 
#    y 0.000000 1.835890 0.000000 
#    z 0.000000 0.000000 1.840000 
# 
# From -- ./inp_files/27808.got.cif
#   From: 2010.03.12/outbox.cif.g09.slc.cpg/sg64_14_cif.got.tgz:27808.got - 2010.04.10 20:19:32.
