data_PCOD8262129
_publ_section_title
;
Structure prediction by ZEFSAII (Michael W. Deem and Ramdas Pophale) SiO2 
 PCOD8262129
Probable space group: C M C A
;
_chemical_formula_sum "Si O2"
_cell_formula_units_Z 96
_cell_length_a 8.806981
_cell_length_b 23.825479
_cell_length_c 25.175064
_cell_angle_alpha 90.000000
_cell_angle_beta 90.000000
_cell_angle_gamma 90.000000
_cell_volume 5282.497296
_symmetry_space_group_name_H-M "C M C A"
_symmetry_group_IT_number 64
_symmetry_cell_setting 'orthorhombic'
loop_
_space_group_symop_operation_xyz
x,y,z
-x,1/2-y,1/2+z
x,-y,-z
-x,1/2+y,1/2-z
-x,-y,-z
x,1/2+y,1/2-z
-x,y,z
x,1/2-y,1/2+z
1/2+x,1/2+y,z
1/2-x,-y,1/2+z
1/2+x,1/2-y,-z
1/2-x,y,1/2-z
1/2-x,1/2-y,-z
1/2+x,y,1/2-z
1/2-x,1/2+y,z
1/2+x,-y,1/2+z
loop_
_atom_site_type_symbol
_atom_site_label
_atom_site_fract_x
_atom_site_fract_y
_atom_site_fract_z
Si Si1 0.828148 0.104973 0.089310
Si Si2 0.178177 0.310534 0.500079
Si Si3 0.336925 0.504054 0.560476
Si Si4 0.823271 0.390248 0.405092
Si Si5 0.174377 0.945278 0.804096
Si Si6 0.320680 0.063954 0.806417
O O1 0.778121 0.160401 0.056708
O O2 0.818231 0.106810 0.153939
O O3 0.000000 0.089593 0.071694
O O4 0.711645 0.057253 0.076222
O O5 0.250000 0.250000 0.500000
O O6 0.237745 0.345233 0.448531
O O7 0.000000 0.303885 0.495192
O O8 0.373377 0.500000 0.500000
O O9 0.500000 0.520116 0.588908
O O10 0.204055 0.548400 0.570640
O O11 0.731336 0.388741 0.349313
O O12 0.000000 0.381320 0.393479
O O13 0.250000 0.923335 0.750000
O O14 0.000000 0.962548 0.793277
O O15 0.260250 0.001989 0.824831
O O16 0.500000 0.063583 0.800593
O O17 0.250000 0.080296 0.750000
#
# Coordination Sequence:
#
# PCOD8262129 Si02
#       6
#    16  16  16  16  16  16
#     4  10  20  35  54  76 107 147 181 216 269 329
#     4  10  23  40  58  79 104 140 185 232 280 326
#     4  11  21  30  47  80 112 140 176 219 268 324
#     4  11  21  35  55  78 109 147 181 220 274 331
#     4  10  19  31  50  76 111 148 180 215 260 320
#     4  11  21  33  51  79 114 148 182 219 264 320
#
# _framework density 18.173221999999999
#
# number of rings (size 3 to 8) (size 9 to 14) (size 15 to 20)
#    0.000    1.500    3.333    4.000    0.000    3.333 
#    0.000    0.000    0.000    1.000    0.000    4.667 
#    0.000    0.000    0.000    0.000    0.000    0.000 
#
# Total GULP energy -594695.736616 kJ/mol
# GULP energy per Si atom -12389.494513 kJ/mol
# Density = 1.813186 g / cm^3
# Si number density = 18.173222 Si / 1000 Ang^3
#
#
#
# Elastic Constant Matrix: (Units=GPa)
#
#
# Indices 1 2 3 4 5 6 
#
# 1 92.2079 32.2060 49.8080 0.0000 0.0000 0.0000
# 2 32.2060 93.1788 64.3993 0.0000 0.0000 0.0000
# 3 49.8080 64.3993 138.9972 0.0000 0.0000 0.0000
# 4 0.0000 0.0000 0.0000 16.3395 0.0000 0.0000
# 5 0.0000 0.0000 0.0000 0.0000 28.5338 0.0000
# 6 0.0000 0.0000 0.0000 0.0000 0.0000 25.7148
#
#
#
# Elastic Compliance Matrix: (Units=1/GPa)
#
#
# Indices 1 2 3 4 5 6 
#
# 1 0.013690 -0.001973 -0.003992 0.000000 0.000000 0.000000
# 2 -0.001973 0.016072 -0.006739 0.000000 0.000000 0.000000
# 3 -0.003992 -0.006739 0.011747 0.000000 0.000000 0.000000
# 4 0.000000 0.000000 0.000000 0.061202 0.000000 0.000000
# 5 0.000000 0.000000 0.000000 0.000000 0.035046 0.000000
# 6 0.000000 0.000000 0.000000 0.000000 0.000000 0.038888
#
#
# Mechanical properties :
#
#
# Convention : Reuss Voigt Hill
#
# Bulk Modulus (GPa) = 62.10672 68.57895 65.34283
# Shear Modulus (GPa) = 24.10567 25.98232 25.04399
#
# Velocity S-wave (km/s) = 3.64598 3.78524 3.71627
# Velocity P-wave (km/s) = 7.20925 7.54469 7.37887
#
# Compressibility (1/GPa) = 0.01610132
#
# Stress axis : x y z
#
# Youngs Moduli (GPa) = 73.04404 62.22087 85.12742
#
# Poissons Ratio (x) = 0.12277 0.33979
# Poissons Ratio (y) = 0.14413 0.57369
# Poissons Ratio (z) = 0.29156 0.41932
#
# Static dielectric constant tensor:
#      x y z
#    x 3.452540 0.000000 0.000000 
#    y 0.000000 3.061050 0.000000 
#    z 0.000000 0.000000 3.843030 
# 
# 
# High freq. dielectric constant tensor:
#      x y z
#    x 1.718650 0.000000 0.000000 
#    y 0.000000 1.644460 0.000000 
#    z 0.000000 0.000000 1.727720 
# 
# From -- ./inp_files/48371.got.cif
#   From: 2010.03.12/outbox.cif.g09.slc.cpg/sg64_25_cif.got.tgz:48371.got - 2010.04.10 20:19:32.
