data_PCOD8262388
_publ_section_title
;
Structure prediction by ZEFSAII (Michael W. Deem and Ramdas Pophale) SiO2 
 PCOD8262388
Probable space group: C M C A
;
_chemical_formula_sum "Si O2"
_cell_formula_units_Z 96
_cell_length_a 14.038521
_cell_length_b 20.056306
_cell_length_c 15.376606
_cell_angle_alpha 90.000000
_cell_angle_beta 90.000000
_cell_angle_gamma 90.000000
_cell_volume 4329.450609
_symmetry_space_group_name_H-M "C M C A"
_symmetry_group_IT_number 64
_symmetry_cell_setting 'orthorhombic'
loop_
_space_group_symop_operation_xyz
x,y,z
-x,1/2-y,1/2+z
x,-y,-z
-x,1/2+y,1/2-z
-x,-y,-z
x,1/2+y,1/2-z
-x,y,z
x,1/2-y,1/2+z
1/2+x,1/2+y,z
1/2-x,-y,1/2+z
1/2+x,1/2-y,-z
1/2-x,y,1/2-z
1/2-x,1/2-y,-z
1/2+x,y,1/2-z
1/2-x,1/2+y,z
1/2+x,-y,1/2+z
loop_
_atom_site_type_symbol
_atom_site_label
_atom_site_fract_x
_atom_site_fract_y
_atom_site_fract_z
Si Si1 0.893018 0.092052 0.812348
Si Si2 0.739643 0.053811 0.937125
Si Si3 0.891864 0.973993 0.692326
Si Si4 0.611479 0.332699 0.494753
Si Si5 0.611581 0.824345 0.812159
Si Si6 0.612078 0.288796 0.310272
O O1 0.821598 0.099064 0.893249
O O2 0.858347 0.140964 0.734297
O O3 0.000000 0.112389 0.841918
O O4 0.890903 0.014801 0.782736
O O5 0.669701 0.098885 0.994696
O O6 0.676074 0.014688 0.869286
O O7 0.789792 0.000000 0.000000
O O8 0.850961 0.899282 0.706119
O O9 0.000000 0.971295 0.654771
O O10 0.500000 0.350148 0.485486
O O11 0.632760 0.299126 0.588650
O O12 0.644840 0.287814 0.411775
O O13 0.500000 0.824549 0.795664
O O14 0.659381 0.772599 0.743545
O O15 0.500000 0.281202 0.306255
#
# Coordination Sequence:
#
# PCOD8262388 Si02
#       6
#    16  16  16  16  16  16
#     4  10  22  39  59  80 114 165 212 243 287 362
#     4  12  22  34  59  88 122 153 199 252 305 357
#     4  10  19  34  60  91 119 148 191 250 308 355
#     4  10  19  33  58  92 123 154 196 246 305 363
#     4   9  18  33  57  91 125 150 190 247 303 359
#     4   9  18  35  58  84 117 163 200 237 295 358
#
# _framework density 22.173714
#
# number of rings (size 3 to 8) (size 9 to 14) (size 15 to 20)
#    0.000    2.000    3.333    1.000    0.000    1.000 
#    0.000    2.500    7.333    6.000    0.000    0.000 
#    0.000    0.000    0.000    0.000    0.000    0.000 
#
# Total GULP energy -594885.503241 kJ/mol
# GULP energy per Si atom -12393.447984 kJ/mol
# Density = 2.212325 g / cm^3
# Si number density = 22.173714 Si / 1000 Ang^3
#
#
#
# Elastic Constant Matrix: (Units=GPa)
#
#
# Indices 1 2 3 4 5 6 
#
# 1 43.5117 0.9791 1.2102 0.0000 0.0000 0.0000
# 2 0.9791 108.6251 27.8469 0.0000 0.0000 0.0000
# 3 1.2102 27.8469 51.5461 0.0000 0.0000 0.0000
# 4 0.0000 0.0000 0.0000 42.1673 0.0000 0.0000
# 5 0.0000 0.0000 0.0000 0.0000 22.2369 0.0000
# 6 0.0000 0.0000 0.0000 0.0000 0.0000 -1.4866
#
#
#
# Elastic Compliance Matrix: (Units=1/GPa)
#
#
# Indices 1 2 3 4 5 6 
#
# 1 0.022998 -0.000080 -0.000497 0.000000 0.000000 0.000000
# 2 -0.000080 0.010686 -0.005771 0.000000 0.000000 0.000000
# 3 -0.000497 -0.005771 0.022530 0.000000 0.000000 0.000000
# 4 0.000000 0.000000 0.000000 0.023715 0.000000 0.000000
# 5 0.000000 0.000000 0.000000 0.000000 0.044970 0.000000
# 6 0.000000 0.000000 0.000000 0.000000 0.000000 -0.672676
#
#
# Mechanical properties :
#
#
# Convention : Reuss Voigt Hill
#
# Bulk Modulus (GPa) = 22.97904 29.30614 26.14259
# Shear Modulus (GPa) = -9.60476 24.15998 7.27761
#
# Velocity S-wave (km/s) = -2.08351 3.30446 1.81362
# Velocity P-wave (km/s) = 2.14422 5.27300 4.02506
#
# Compressibility (1/GPa) = 0.04351791
#
# Stress axis : x y z
#
# Youngs Moduli (GPa) = 43.48220 93.57888 44.38624
#
# Poissons Ratio (x) = 0.00748 0.02205
# Poissons Ratio (y) = 0.00348 0.25616
# Poissons Ratio (z) = 0.02160 0.54006
#
# Static dielectric constant tensor:
#      x y z
#    x 3.856070 0.000000 0.000000 
#    y 0.000000 4.357690 0.000000 
#    z 0.000000 0.000000 4.137780 
# 
# 
# High freq. dielectric constant tensor:
#      x y z
#    x 1.859050 0.000000 0.000000 
#    y 0.000000 1.862750 0.000000 
#    z 0.000000 0.000000 1.861560 
# 
# From -- ./inp_files/23945.got.cif
#   From: 2010.03.12/outbox.cif.g09.slc.cpg/sg64_12_cif.got.tgz:23945.got - 2010.04.10 20:19:32.
