data_PCOD8262607
_publ_section_title
;
Structure prediction by ZEFSAII (Michael W. Deem and Ramdas Pophale) SiO2 
 PCOD8262607
Probable space group: C M C A
;
_chemical_formula_sum "Si O2"
_cell_formula_units_Z 96
_cell_length_a 17.717932
_cell_length_b 29.413479
_cell_length_c 9.149525
_cell_angle_alpha 90.000000
_cell_angle_beta 90.000000
_cell_angle_gamma 90.000000
_cell_volume 4768.238546
_symmetry_space_group_name_H-M "C M C A"
_symmetry_group_IT_number 64
_symmetry_cell_setting 'orthorhombic'
loop_
_space_group_symop_operation_xyz
x,y,z
-x,1/2-y,1/2+z
x,-y,-z
-x,1/2+y,1/2-z
-x,-y,-z
x,1/2+y,1/2-z
-x,y,z
x,1/2-y,1/2+z
1/2+x,1/2+y,z
1/2-x,-y,1/2+z
1/2+x,1/2-y,-z
1/2-x,y,1/2-z
1/2-x,1/2-y,-z
1/2+x,y,1/2-z
1/2-x,1/2+y,z
1/2+x,-y,1/2+z
loop_
_atom_site_type_symbol
_atom_site_label
_atom_site_fract_x
_atom_site_fract_y
_atom_site_fract_z
Si Si1 0.413764 0.465646 0.633467
Si Si2 0.409874 0.287084 0.671044
Si Si3 0.910294 0.126533 0.504774
Si Si4 0.680536 0.978150 0.350046
Si Si5 0.589677 0.799781 0.502103
Si Si6 0.410391 0.611352 0.833461
O O1 0.407075 0.500000 0.500000
O O2 0.500000 0.460509 0.684476
O O3 0.379843 0.417310 0.582562
O O4 0.367451 0.482874 0.771170
O O5 0.500000 0.287825 0.672990
O O6 0.378470 0.328234 0.571820
O O7 0.379313 0.240018 0.603346
O O8 0.377922 0.292552 0.835015
O O9 0.882430 0.124746 0.671513
O O10 0.000000 0.126112 0.502574
O O11 0.750000 0.962676 0.250000
O O12 0.628925 0.934757 0.385257
O O13 0.711226 0.000000 0.500000
O O14 0.500000 0.797260 0.504313
O O15 0.615848 0.848573 0.441848
O O16 0.500000 0.603590 0.837543
#
# Coordination Sequence:
#
# PCOD8262607 Si02
#       6
#    16  16  16  16  16  16
#     4  10  19  36  60  86 115 148 186 232 285 343
#     4   9  16  27  45  76 117 153 182 224 278 334
#     4   9  17  29  52  80 111 148 181 222 279 336
#     4  12  27  42  58  80 112 153 193 240 288 348
#     4   9  17  28  46  76 114 148 184 228 280 335
#     4  10  20  36  58  85 113 147 189 236 287 338
#
# _framework density 20.133220999999999
#
# number of rings (size 3 to 8) (size 9 to 14) (size 15 to 20)
#    0.000    2.167    1.667    2.000    2.333    5.333 
#    0.000    0.000    0.000    0.000    0.000    5.833 
#    0.000    0.000    0.000    0.000    0.000    0.000 
#
# Total GULP energy -595251.445712 kJ/mol
# GULP energy per Si atom -12401.071786 kJ/mol
# Density = 2.008740 g / cm^3
# Si number density = 20.133221 Si / 1000 Ang^3
#
#
#
# Elastic Constant Matrix: (Units=GPa)
#
#
# Indices 1 2 3 4 5 6 
#
# 1 29.9027 19.6196 15.7178 0.0000 0.0000 0.0000
# 2 19.6196 145.1611 63.1287 0.0000 0.0000 0.0000
# 3 15.7178 63.1287 128.9386 0.0000 0.0000 0.0000
# 4 0.0000 0.0000 0.0000 40.9415 0.0000 0.0000
# 5 0.0000 0.0000 0.0000 0.0000 16.4839 0.0000
# 6 0.0000 0.0000 0.0000 0.0000 0.0000 1.6368
#
#
#
# Elastic Compliance Matrix: (Units=1/GPa)
#
#
# Indices 1 2 3 4 5 6 
#
# 1 0.037394 -0.003903 -0.002648 0.000000 0.000000 0.000000
# 2 -0.003903 0.009160 -0.004009 0.000000 0.000000 0.000000
# 3 -0.002648 -0.004009 0.010041 0.000000 0.000000 0.000000
# 4 0.000000 0.000000 0.000000 0.024425 0.000000 0.000000
# 5 0.000000 0.000000 0.000000 0.000000 0.060665 0.000000
# 6 0.000000 0.000000 0.000000 0.000000 0.000000 0.610953
#
#
# Mechanical properties :
#
#
# Convention : Reuss Voigt Hill
#
# Bulk Modulus (GPa) = 28.18761 55.65938 41.92350
# Shear Modulus (GPa) = 6.36471 25.51487 15.93979
#
# Velocity S-wave (km/s) = 1.77993 3.56378 2.81680
# Velocity P-wave (km/s) = 4.27260 6.68129 5.60780
#
# Compressibility (1/GPa) = 0.03547658
#
# Stress axis : x y z
#
# Youngs Moduli (GPa) = 26.74222 109.17270 99.59013
#
# Poissons Ratio (x) = 0.42606 0.26368
# Poissons Ratio (y) = 0.10437 0.39925
# Poissons Ratio (z) = 0.07080 0.43766
#
# Static dielectric constant tensor:
#      x y z
#    x 3.062360 0.000000 0.000000 
#    y 0.000000 3.901570 0.000000 
#    z 0.000000 0.000000 3.821770 
# 
# 
# High freq. dielectric constant tensor:
#      x y z
#    x 1.719600 0.000000 0.000000 
#    y 0.000000 1.800880 0.000000 
#    z 0.000000 0.000000 1.795860 
# 
# From -- ./inp_files/8442.got.cif
#   From: 2010.03.12/outbox.cif.g09.slc.cpg/sg64_5_cif.got.tgz:8442.got - 2010.04.10 20:19:32.
