data_PCOD8262770
_publ_section_title
;
Structure prediction by ZEFSAII (Michael W. Deem and Ramdas Pophale) SiO2 
 PCOD8262770
Probable space group: C M C A
;
_chemical_formula_sum "Si O2"
_cell_formula_units_Z 96
_cell_length_a 8.896961
_cell_length_b 24.862953
_cell_length_c 25.159886
_cell_angle_alpha 90.000000
_cell_angle_beta 90.000000
_cell_angle_gamma 90.000000
_cell_volume 5565.485618
_symmetry_space_group_name_H-M "C M C A"
_symmetry_group_IT_number 64
_symmetry_cell_setting 'orthorhombic'
loop_
_space_group_symop_operation_xyz
x,y,z
-x,1/2-y,1/2+z
x,-y,-z
-x,1/2+y,1/2-z
-x,-y,-z
x,1/2+y,1/2-z
-x,y,z
x,1/2-y,1/2+z
1/2+x,1/2+y,z
1/2-x,-y,1/2+z
1/2+x,1/2-y,-z
1/2-x,y,1/2-z
1/2-x,1/2-y,-z
1/2+x,y,1/2-z
1/2-x,1/2+y,z
1/2+x,-y,1/2+z
loop_
_atom_site_type_symbol
_atom_site_label
_atom_site_fract_x
_atom_site_fract_y
_atom_site_fract_z
Si Si1 0.325475 0.819301 0.605969
Si Si2 0.824843 0.607740 0.192677
Si Si3 0.323058 0.115189 0.692291
Si Si4 0.326073 0.307159 0.502758
Si Si5 0.174732 0.489030 0.193136
Si Si6 0.170634 0.807158 0.385405
O O1 0.500000 0.833326 0.605087
O O2 0.248594 0.849245 0.654398
O O3 0.254005 0.840376 0.550152
O O4 0.294508 0.756165 0.613239
O O5 0.750000 0.612828 0.250000
O O6 0.801417 0.547889 0.167009
O O7 0.000000 0.620418 0.199423
O O8 0.500000 0.110403 0.698692
O O9 0.250000 0.123752 0.750000
O O10 0.284624 0.165759 0.655436
O O11 0.257427 0.060828 0.663717
O O12 0.500000 0.300156 0.517201
O O13 0.250000 0.250000 0.500000
O O14 0.306797 0.333464 0.444237
O O15 0.250000 0.492281 0.250000
O O16 0.000000 0.474882 0.198406
O O17 0.000000 0.816936 0.366157
#
# Coordination Sequence:
#
# PCOD8262770 Si02
#       6
#    16  16  16  16  16  16
#     4  10  20  33  51  74 101 132 164 201 243 289
#     4  10  20  33  51  74 100 131 164 200 244 291
#     4  11  21  32  50  73  98 129 162 200 243 287
#     4   9  17  31  51  72  96 127 164 203 241 286
#     4   9  17  31  50  70  94 125 162 201 239 285
#     4   9  19  34  50  71  99 130 162 197 240 288
#
# _framework density 17.249168000000001
#
# number of rings (size 3 to 8) (size 9 to 14) (size 15 to 20)
#    0.000    2.333    0.000    5.500    0.000    6.667 
#    0.000    0.000    0.000    1.000    0.000    7.000 
#    0.000    0.000    0.000    0.000    0.000    0.000 
#
# Total GULP energy -594846.088117 kJ/mol
# GULP energy per Si atom -12392.626836 kJ/mol
# Density = 1.720991 g / cm^3
# Si number density = 17.249168 Si / 1000 Ang^3
#
#
#
# Elastic Constant Matrix: (Units=GPa)
#
#
# Indices 1 2 3 4 5 6 
#
# 1 145.4220 50.0985 58.8092 0.0000 0.0000 0.0000
# 2 50.0985 67.3947 45.1164 0.0000 0.0000 0.0000
# 3 58.8092 45.1164 92.2013 0.0000 0.0000 0.0000
# 4 0.0000 0.0000 0.0000 0.3500 0.0000 0.0000
# 5 0.0000 0.0000 0.0000 0.0000 32.1410 0.0000
# 6 0.0000 0.0000 0.0000 0.0000 0.0000 26.6569
#
#
#
# Elastic Compliance Matrix: (Units=1/GPa)
#
#
# Indices 1 2 3 4 5 6 
#
# 1 0.010217 -0.004807 -0.004164 0.000000 0.000000 0.000000
# 2 -0.004807 0.024328 -0.008838 0.000000 0.000000 0.000000
# 3 -0.004164 -0.008838 0.017827 0.000000 0.000000 0.000000
# 4 0.000000 0.000000 0.000000 2.857378 0.000000 0.000000
# 5 0.000000 0.000000 0.000000 0.000000 0.031113 0.000000
# 6 0.000000 0.000000 0.000000 0.000000 0.000000 0.037514
#
#
# Mechanical properties :
#
#
# Convention : Reuss Voigt Hill
#
# Bulk Modulus (GPa) = 59.69338 68.11846 63.90592
# Shear Modulus (GPa) = 1.65586 21.89583 11.77584
#
# Velocity S-wave (km/s) = 0.98084 3.56671 2.61567
# Velocity P-wave (km/s) = 5.99703 7.51921 6.80084
#
# Compressibility (1/GPa) = 0.01675228
#
# Stress axis : x y z
#
# Youngs Moduli (GPa) = 97.87973 41.10525 56.09524
#
# Poissons Ratio (x) = 0.19759 0.23360
# Poissons Ratio (y) = 0.47049 0.49578
# Poissons Ratio (z) = 0.40761 0.36330
#
# Static dielectric constant tensor:
#      x y z
#    x 3.445410 0.000000 0.000000 
#    y 0.000000 3.457220 0.000000 
#    z 0.000000 0.000000 3.291750 
# 
# 
# High freq. dielectric constant tensor:
#      x y z
#    x 1.686350 0.000000 0.000000 
#    y 0.000000 1.648630 0.000000 
#    z 0.000000 0.000000 1.648570 
# 
# From -- ./inp_files/48387.got.cif
#   From: 2010.03.12/outbox.cif.g09.slc.cpg/sg64_25_cif.got.tgz:48387.got - 2010.04.10 20:19:32.
