data_PCOD8262389
_publ_section_title
;
Structure prediction by ZEFSAII (Michael W. Deem and Ramdas Pophale) SiO2 
 PCOD8262389
Probable space group: C M C A
;
_chemical_formula_sum "Si O2"
_cell_formula_units_Z 72
_cell_length_a 26.098121
_cell_length_b 8.873390
_cell_length_c 14.562916
_cell_angle_alpha 90.000000
_cell_angle_beta 90.000000
_cell_angle_gamma 90.000000
_cell_volume 3372.462698
_symmetry_space_group_name_H-M "C M C A"
_symmetry_group_IT_number 64
_symmetry_cell_setting 'orthorhombic'
loop_
_space_group_symop_operation_xyz
x,y,z
-x,1/2-y,1/2+z
x,-y,-z
-x,1/2+y,1/2-z
-x,-y,-z
x,1/2+y,1/2-z
-x,y,z
x,1/2-y,1/2+z
1/2+x,1/2+y,z
1/2-x,-y,1/2+z
1/2+x,1/2-y,-z
1/2-x,y,1/2-z
1/2-x,1/2-y,-z
1/2+x,y,1/2-z
1/2-x,1/2+y,z
1/2+x,-y,1/2+z
loop_
_atom_site_type_symbol
_atom_site_label
_atom_site_fract_x
_atom_site_fract_y
_atom_site_fract_z
Si Si1 0.500000 0.458899 0.793262
Si Si2 0.890700 0.093086 0.138264
Si Si3 0.750000 0.115905 0.750000
Si Si4 0.108678 0.271046 0.448061
Si Si5 0.000000 0.279095 0.878275
Si Si6 0.320531 0.134924 0.186599
O O1 0.450187 0.382062 0.838041
O O2 0.500000 0.637664 0.808542
O O3 0.500000 0.429124 0.683972
O O4 0.855281 0.139998 0.222443
O O5 0.881212 0.920151 0.112092
O O6 0.876455 0.202429 0.053647
O O7 0.714387 0.013780 0.815845
O O8 0.715823 0.218962 0.683790
O O9 0.143797 0.139510 0.403977
O O10 0.049321 0.223279 0.443700
#
# Coordination Sequence:
#
# PCOD8262389 Si02
#       6
#     8  16   8  16   8  16
#     4  10  19  33  59  90 122 154 189 227 281 344
#     4  10  20  36  61  90 120 155 193 233 283 350
#     4  10  24  38  62  84 112 148 196 258 302 328
#     4  10  20  36  61  90 120 155 193 233 283 350
#     4  10  19  33  59  90 122 154 189 227 281 344
#     4  11  20  41  60  84 114 153 194 247 296 344
#
# _framework density 21.349384000000001
#
# number of rings (size 3 to 8) (size 9 to 14) (size 15 to 20)
#    0.000    1.778    4.444    0.667    0.000    2.667 
#    0.000    7.778    0.000    1.333    0.000    0.000 
#    0.000    0.000    0.000    0.000    0.000    0.000 
#
# Total GULP energy -446458.303798 kJ/mol
# GULP energy per Si atom -12401.619550 kJ/mol
# Density = 2.130079 g / cm^3
# Si number density = 21.349384 Si / 1000 Ang^3
#
#
#
# Elastic Constant Matrix: (Units=GPa)
#
#
# Indices 1 2 3 4 5 6 
#
# 1 122.6075 28.2430 21.3391 0.0000 0.0000 0.0000
# 2 28.2430 52.4034 -5.6636 0.0000 0.0000 0.0000
# 3 21.3391 -5.6636 59.1573 0.0000 0.0000 0.0000
# 4 0.0000 0.0000 0.0000 27.0110 0.0000 0.0000
# 5 0.0000 0.0000 0.0000 0.0000 17.6424 0.0000
# 6 0.0000 0.0000 0.0000 0.0000 0.0000 26.5018
#
#
#
# Elastic Compliance Matrix: (Units=1/GPa)
#
#
# Indices 1 2 3 4 5 6 
#
# 1 0.010286 -0.006007 -0.004285 0.000000 0.000000 0.000000
# 2 -0.006007 0.022790 0.004349 0.000000 0.000000 0.000000
# 3 -0.004285 0.004349 0.018866 0.000000 0.000000 0.000000
# 4 0.000000 0.000000 0.000000 0.037022 0.000000 0.000000
# 5 0.000000 0.000000 0.000000 0.000000 0.056682 0.000000
# 6 0.000000 0.000000 0.000000 0.000000 0.000000 0.037733
#
#
# Mechanical properties :
#
#
# Convention : Reuss Voigt Hill
#
# Bulk Modulus (GPa) = 24.96559 35.77836 30.37198
# Shear Modulus (GPa) = 23.96740 26.91436 25.44088
#
# Velocity S-wave (km/s) = 3.35420 3.55443 3.45577
# Velocity P-wave (km/s) = 5.16915 5.80002 5.49364
#
# Compressibility (1/GPa) = 0.04005514
#
# Stress axis : x y z
#
# Youngs Moduli (GPa) = 97.22369 43.87891 53.00496
#
# Poissons Ratio (x) = 0.26356 0.22714
# Poissons Ratio (y) = 0.58398 -0.23049
# Poissons Ratio (z) = 0.41663 -0.19081
#
# Static dielectric constant tensor:
#      x y z
#    x 4.108900 0.000000 0.000000 
#    y 0.000000 3.765700 0.000000 
#    z 0.000000 0.000000 3.475190 
# 
# 
# High freq. dielectric constant tensor:
#      x y z
#    x 1.853630 0.000000 0.000000 
#    y 0.000000 1.825070 0.000000 
#    z 0.000000 0.000000 1.811930 
# 
# From -- ./inp_files/10048.got.cif
#   From: 2010.03.12/outbox.cif.g09.slc.cpg/sg64_6_cif.got.tgz:10048.got - 2010.04.10 20:19:32.
