data_PCOD8262966
_publ_section_title
;
Structure prediction by ZEFSAII (Michael W. Deem and Ramdas Pophale) SiO2 
 PCOD8262966
Probable space group: C M C A
;
_chemical_formula_sum "Si O2"
_cell_formula_units_Z 96
_cell_length_a 18.635344
_cell_length_b 25.185217
_cell_length_c 11.038428
_cell_angle_alpha 90.000000
_cell_angle_beta 90.000000
_cell_angle_gamma 90.000000
_cell_volume 5180.722620
_symmetry_space_group_name_H-M "C M C A"
_symmetry_group_IT_number 64
_symmetry_cell_setting 'orthorhombic'
loop_
_space_group_symop_operation_xyz
x,y,z
-x,1/2-y,1/2+z
x,-y,-z
-x,1/2+y,1/2-z
-x,-y,-z
x,1/2+y,1/2-z
-x,y,z
x,1/2-y,1/2+z
1/2+x,1/2+y,z
1/2-x,-y,1/2+z
1/2+x,1/2-y,-z
1/2-x,y,1/2-z
1/2-x,1/2-y,-z
1/2+x,y,1/2-z
1/2-x,1/2+y,z
1/2+x,-y,1/2+z
loop_
_atom_site_type_symbol
_atom_site_label
_atom_site_fract_x
_atom_site_fract_y
_atom_site_fract_z
Si Si1 0.701907 0.127342 0.857435
Si Si2 0.181470 0.061875 0.988646
Si Si3 0.579529 0.893600 0.307799
Si Si4 0.919705 0.288450 0.450692
Si Si5 0.816721 0.307893 0.908020
Si Si6 0.336268 0.342128 0.848028
O O1 0.750000 0.155269 0.750000
O O2 0.751301 0.081752 0.911937
O O3 0.630747 0.099093 0.807251
O O4 0.673803 0.167264 0.959479
O O5 0.106863 0.070364 0.918409
O O6 0.178362 0.096461 0.112961
O O7 0.193949 0.000000 0.000000
O O8 0.500000 0.912503 0.272615
O O9 0.581071 0.831975 0.345239
O O10 0.858294 0.247534 0.411639
O O11 0.902547 0.316676 0.579146
O O12 0.000000 0.263214 0.460837
O O13 0.731681 0.303999 0.881233
O O14 0.851031 0.341947 0.796379
#
# Coordination Sequence:
#
# PCOD8262966 Si02
#       6
#    16  16  16  16  16  16
#     4   9  19  36  54  81 111 140 183 227 275 334
#     4   9  18  37  61  86 105 142 184 236 286 325
#     4   9  19  36  55  81 113 144 183 225 267 332
#     4  10  21  35  54  78 111 151 187 221 267 329
#     4  10  20  35  54  79 110 150 182 228 279 323
#     4   9  20  37  53  82 112 139 188 239 271 330
#
# _framework density 18.530234
#
# number of rings (size 3 to 8) (size 9 to 14) (size 15 to 20)
#    0.000    2.667    0.000    1.500    2.333    1.667 
#   24.000    0.000    0.000    0.500    0.000    0.000 
#    0.000    0.000    0.000    0.000    0.000    0.000 
#
# Total GULP energy -594767.001051 kJ/mol
# GULP energy per Si atom -12390.979189 kJ/mol
# Density = 1.848806 g / cm^3
# Si number density = 18.530234 Si / 1000 Ang^3
#
#
#
# Elastic Constant Matrix: (Units=GPa)
#
#
# Indices 1 2 3 4 5 6 
#
# 1 90.9729 27.3588 19.8109 0.0000 0.0000 0.0000
# 2 27.3588 87.8634 30.4864 0.0000 0.0000 0.0000
# 3 19.8109 30.4864 114.1627 0.0000 0.0000 0.0000
# 4 0.0000 0.0000 0.0000 12.2933 0.0000 0.0000
# 5 0.0000 0.0000 0.0000 0.0000 16.2008 0.0000
# 6 0.0000 0.0000 0.0000 0.0000 0.0000 14.8704
#
#
#
# Elastic Compliance Matrix: (Units=1/GPa)
#
#
# Indices 1 2 3 4 5 6 
#
# 1 0.012281 -0.003400 -0.001223 0.000000 0.000000 0.000000
# 2 -0.003400 0.013485 -0.003011 0.000000 0.000000 0.000000
# 3 -0.001223 -0.003011 0.009776 0.000000 0.000000 0.000000
# 4 0.000000 0.000000 0.000000 0.081345 0.000000 0.000000
# 5 0.000000 0.000000 0.000000 0.000000 0.061725 0.000000
# 6 0.000000 0.000000 0.000000 0.000000 0.000000 0.067248
#
#
# Mechanical properties :
#
#
# Convention : Reuss Voigt Hill
#
# Bulk Modulus (GPa) = 49.32532 49.81235 49.56883
# Shear Modulus (GPa) = 18.66469 23.02909 20.84689
#
# Velocity S-wave (km/s) = 3.17717 3.52914 3.35777
# Velocity P-wave (km/s) = 6.33529 6.59897 6.46847
#
# Compressibility (1/GPa) = 0.02027356
#
# Stress axis : x y z
#
# Youngs Moduli (GPa) = 81.42618 74.15853 102.29345
#
# Poissons Ratio (x) = 0.25211 0.12514
# Poissons Ratio (y) = 0.27682 0.30801
# Poissons Ratio (z) = 0.09961 0.22329
#
# Static dielectric constant tensor:
#      x y z
#    x 3.575050 0.000000 0.000000 
#    y 0.000000 3.024990 0.000000 
#    z 0.000000 0.000000 3.645990 
# 
# 
# High freq. dielectric constant tensor:
#      x y z
#    x 1.719690 0.000000 0.000000 
#    y 0.000000 1.682170 0.000000 
#    z 0.000000 0.000000 1.722870 
# 
# From -- ./inp_files/16215.got.cif
#   From: 2010.03.12/outbox.cif.g09.slc.cpg/sg64_9_cif.got.tgz:16215.got - 2010.04.10 20:19:32.
