data_PCOD8262310
_publ_section_title
;
Structure prediction by ZEFSAII (Michael W. Deem and Ramdas Pophale) SiO2 
 PCOD8262310
Probable space group: C M C A
;
_chemical_formula_sum "Si O2"
_cell_formula_units_Z 96
_cell_length_a 22.787836
_cell_length_b 21.471634
_cell_length_c 10.806658
_cell_angle_alpha 90.000000
_cell_angle_beta 90.000000
_cell_angle_gamma 90.000000
_cell_volume 5287.612108
_symmetry_space_group_name_H-M "C M C A"
_symmetry_group_IT_number 64
_symmetry_cell_setting 'orthorhombic'
loop_
_space_group_symop_operation_xyz
x,y,z
-x,1/2-y,1/2+z
x,-y,-z
-x,1/2+y,1/2-z
-x,-y,-z
x,1/2+y,1/2-z
-x,y,z
x,1/2-y,1/2+z
1/2+x,1/2+y,z
1/2-x,-y,1/2+z
1/2+x,1/2-y,-z
1/2-x,y,1/2-z
1/2-x,1/2-y,-z
1/2+x,y,1/2-z
1/2-x,1/2+y,z
1/2+x,-y,1/2+z
loop_
_atom_site_type_symbol
_atom_site_label
_atom_site_fract_x
_atom_site_fract_y
_atom_site_fract_z
Si Si1 0.838769 0.398686 0.211579
Si Si2 0.068535 0.071893 0.528019
Si Si3 0.242478 0.333443 0.618348
Si Si4 0.643470 0.739605 0.677234
Si Si5 0.375252 0.809724 0.921697
Si Si6 0.773795 0.934370 0.062448
O O1 0.902977 0.416434 0.162262
O O2 0.837006 0.325253 0.238655
O O3 0.824934 0.436292 0.335812
O O4 0.790222 0.417179 0.111558
O O5 0.095909 0.120894 0.427758
O O6 0.000000 0.085218 0.536585
O O7 0.082247 0.000000 0.500000
O O8 0.250000 0.367927 0.750000
O O9 0.203355 0.272857 0.639326
O O10 0.305221 0.314208 0.563242
O O11 0.207367 0.381527 0.533827
O O12 0.605674 0.728233 0.548815
O O13 0.608838 0.777233 0.788684
O O14 0.769772 0.000000 0.000000
#
# Coordination Sequence:
#
# PCOD8262310 Si02
#       6
#    16  16  16  16  16  16
#     4  10  22  34  57  79 118 151 194 234 286 361
#     4  10  21  40  62  79 104 150 205 252 287 335
#     4  10  20  29  52  78 117 154 188 222 276 353
#     4  10  19  33  53  81 116 154 181 227 280 348
#     4  10  20  32  54  83 113 144 193 238 273 344
#     4  11  22  32  49  83 121 154 179 234 291 346
#
# _framework density 18.155643999999999
#
# number of rings (size 3 to 8) (size 9 to 14) (size 15 to 20)
#    0.000    1.833    3.333    2.000    9.333    1.333 
#    0.000    3.333    0.000    0.500    0.000    7.000 
#    0.000    0.000    0.000    0.000    0.000    0.000 
#
# Total GULP energy -594684.465490 kJ/mol
# GULP energy per Si atom -12389.259698 kJ/mol
# Density = 1.811432 g / cm^3
# Si number density = 18.155644 Si / 1000 Ang^3
#
#
#
# Elastic Constant Matrix: (Units=GPa)
#
#
# Indices 1 2 3 4 5 6 
#
# 1 57.1122 38.0543 23.8989 0.0000 0.0000 0.0000
# 2 38.0543 126.2523 56.5074 0.0000 0.0000 0.0000
# 3 23.8989 56.5074 120.0539 0.0000 0.0000 0.0000
# 4 0.0000 0.0000 0.0000 25.4798 0.0000 0.0000
# 5 0.0000 0.0000 0.0000 0.0000 16.9714 0.0000
# 6 0.0000 0.0000 0.0000 0.0000 0.0000 20.3708
#
#
#
# Elastic Compliance Matrix: (Units=1/GPa)
#
#
# Indices 1 2 3 4 5 6 
#
# 1 0.022151 -0.005958 -0.001605 0.000000 0.000000 0.000000
# 2 -0.005958 0.011637 -0.004291 0.000000 0.000000 0.000000
# 3 -0.001605 -0.004291 0.010669 0.000000 0.000000 0.000000
# 4 0.000000 0.000000 0.000000 0.039247 0.000000 0.000000
# 5 0.000000 0.000000 0.000000 0.000000 0.058923 0.000000
# 6 0.000000 0.000000 0.000000 0.000000 0.000000 0.049090
#
#
# Mechanical properties :
#
#
# Convention : Reuss Voigt Hill
#
# Bulk Modulus (GPa) = 48.19772 60.03773 54.11773
# Shear Modulus (GPa) = 22.48787 24.89493 23.69140
#
# Velocity S-wave (km/s) = 3.52322 3.70698 3.61627
# Velocity P-wave (km/s) = 6.56927 7.17373 6.87814
#
# Compressibility (1/GPa) = 0.02074787
#
# Stress axis : x y z
#
# Youngs Moduli (GPa) = 45.14446 85.93088 93.72955
#
# Poissons Ratio (x) = 0.51200 0.15045
# Poissons Ratio (y) = 0.26898 0.40223
# Poissons Ratio (z) = 0.07246 0.36876
#
# Static dielectric constant tensor:
#      x y z
#    x 2.983240 0.000000 0.000000 
#    y 0.000000 3.458290 0.000000 
#    z 0.000000 0.000000 3.728020 
# 
# 
# High freq. dielectric constant tensor:
#      x y z
#    x 1.652570 0.000000 0.000000 
#    y 0.000000 1.713890 0.000000 
#    z 0.000000 0.000000 1.714090 
# 
# From -- ./inp_files/18489.got.cif
#   From: 2010.03.12/outbox.cif.g09.slc.cpg/sg64_10_cif.got.tgz:18489.got - 2010.04.10 20:19:32.
