data_PCOD8262974
_publ_section_title
;
Structure prediction by ZEFSAII (Michael W. Deem and Ramdas Pophale) SiO2 
 PCOD8262974
Probable space group: C M C A
;
_chemical_formula_sum "Si O2"
_cell_formula_units_Z 96
_cell_length_a 9.283552
_cell_length_b 23.025861
_cell_length_c 25.513288
_cell_angle_alpha 90.000000
_cell_angle_beta 90.000000
_cell_angle_gamma 90.000000
_cell_volume 5453.765804
_symmetry_space_group_name_H-M "C M C A"
_symmetry_group_IT_number 64
_symmetry_cell_setting 'orthorhombic'
loop_
_space_group_symop_operation_xyz
x,y,z
-x,1/2-y,1/2+z
x,-y,-z
-x,1/2+y,1/2-z
-x,-y,-z
x,1/2+y,1/2-z
-x,y,z
x,1/2-y,1/2+z
1/2+x,1/2+y,z
1/2-x,-y,1/2+z
1/2+x,1/2-y,-z
1/2-x,y,1/2-z
1/2-x,1/2-y,-z
1/2+x,y,1/2-z
1/2-x,1/2+y,z
1/2+x,-y,1/2+z
loop_
_atom_site_type_symbol
_atom_site_label
_atom_site_fract_x
_atom_site_fract_y
_atom_site_fract_z
Si Si1 0.333055 0.684405 0.199173
Si Si2 0.168629 0.387077 0.096711
Si Si3 0.334778 0.124417 0.407570
Si Si4 0.834716 0.504763 0.559185
Si Si5 0.668815 0.317356 0.301599
Si Si6 0.829991 0.810517 0.503137
O O1 0.500000 0.679570 0.212314
O O2 0.250000 0.661084 0.250000
O O3 0.290078 0.644291 0.150376
O O4 0.289677 0.750712 0.186052
O O5 0.247450 0.448336 0.092204
O O6 0.221076 0.355856 0.149643
O O7 0.210738 0.346074 0.048569
O O8 0.000000 0.399449 0.097845
O O9 0.500000 0.142924 0.420267
O O10 0.316488 0.055521 0.410515
O O11 0.226115 0.154240 0.447311
O O12 0.772967 0.500000 0.500000
O O13 0.000000 0.525040 0.556463
O O14 0.500000 0.324144 0.291894
O O15 0.750000 0.339947 0.250000
O O16 0.750000 0.750000 0.500000
O O17 0.000000 0.800251 0.508224
#
# Coordination Sequence:
#
# PCOD8262974 Si02
#       6
#    16  16  16  16  16  16
#     4   9  18  34  56  78 106 139 174 219 269 320
#     4  10  21  36  54  77 107 140 177 219 267 317
#     4  10  20  36  55  77 108 142 177 221 270 316
#     4  10  20  35  55  78 106 144 184 220 263 316
#     4   9  18  34  54  77 103 135 173 215 265 317
#     4  11  22  34  52  79 109 140 174 218 270 325
#
# _framework density 17.602515
#
# number of rings (size 3 to 8) (size 9 to 14) (size 15 to 20)
#    0.000    2.167    1.667    1.500    0.000    5.667 
#    0.000    4.167    0.000    4.000    0.000    0.000 
#    0.000    0.000    0.000    0.000    0.000    0.000 
#
# Total GULP energy -595378.663775 kJ/mol
# GULP energy per Si atom -12403.722162 kJ/mol
# Density = 1.756245 g / cm^3
# Si number density = 17.602515 Si / 1000 Ang^3
#
#
#
# Elastic Constant Matrix: (Units=GPa)
#
#
# Indices 1 2 3 4 5 6 
#
# 1 54.5881 47.2668 54.6272 0.0000 0.0000 0.0000
# 2 47.2668 106.4014 74.3808 0.0000 0.0000 0.0000
# 3 54.6272 74.3808 161.5308 0.0000 0.0000 0.0000
# 4 0.0000 0.0000 0.0000 -8.3453 0.0000 0.0000
# 5 0.0000 0.0000 0.0000 0.0000 33.3289 0.0000
# 6 0.0000 0.0000 0.0000 0.0000 0.0000 30.0662
#
#
#
# Elastic Compliance Matrix: (Units=1/GPa)
#
#
# Indices 1 2 3 4 5 6 
#
# 1 0.034086 -0.010447 -0.006717 0.000000 0.000000 0.000000
# 2 -0.010447 0.017061 -0.004323 0.000000 0.000000 0.000000
# 3 -0.006717 -0.004323 0.010453 0.000000 0.000000 0.000000
# 4 0.000000 0.000000 0.000000 -0.119828 0.000000 0.000000
# 5 0.000000 0.000000 0.000000 0.000000 0.030004 0.000000
# 6 0.000000 0.000000 0.000000 0.000000 0.000000 0.033260
#
#
# Mechanical properties :
#
#
# Convention : Reuss Voigt Hill
#
# Bulk Modulus (GPa) = 53.68622 75.00777 64.34699
# Shear Modulus (GPa) = 92.21649 20.75967 56.48808
#
# Velocity S-wave (km/s) = 7.24582 3.43790 5.67103
# Velocity P-wave (km/s) = 10.02836 7.64614 8.91716
#
# Compressibility (1/GPa) = 0.01862675
#
# Stress axis : x y z
#
# Youngs Moduli (GPa) = 29.33716 58.61169 95.66402
#
# Poissons Ratio (x) = 0.61229 0.64259
# Poissons Ratio (y) = 0.30647 0.41360
# Poissons Ratio (z) = 0.19706 0.25341
#
# Static dielectric constant tensor:
#      x y z
#    x 3.254570 0.000000 0.000000 
#    y 0.000000 3.461930 0.000000 
#    z 0.000000 0.000000 3.372300 
# 
# 
# High freq. dielectric constant tensor:
#      x y z
#    x 1.678120 0.000000 0.000000 
#    y 0.000000 1.678620 0.000000 
#    z 0.000000 0.000000 1.683690 
# 
# From -- ./inp_files/42974.got.cif
#   From: 2010.03.12/outbox.cif.g09.slc.cpg/sg64_22_cif.got.tgz:42974.got - 2010.04.10 20:19:32.
