data_PCOD8262808
_publ_section_title
;
Structure prediction by ZEFSAII (Michael W. Deem and Ramdas Pophale) SiO2 
 PCOD8262808
Probable space group: C M C A
;
_chemical_formula_sum "Si O2"
_cell_formula_units_Z 112
_cell_length_a 16.399504
_cell_length_b 12.238977
_cell_length_c 28.635616
_cell_angle_alpha 90.000000
_cell_angle_beta 90.000000
_cell_angle_gamma 90.000000
_cell_volume 5747.544754
_symmetry_space_group_name_H-M "C M C A"
_symmetry_group_IT_number 64
_symmetry_cell_setting 'orthorhombic'
loop_
_space_group_symop_operation_xyz
x,y,z
-x,1/2-y,1/2+z
x,-y,-z
-x,1/2+y,1/2-z
-x,-y,-z
x,1/2+y,1/2-z
-x,y,z
x,1/2-y,1/2+z
1/2+x,1/2+y,z
1/2-x,-y,1/2+z
1/2+x,1/2-y,-z
1/2-x,y,1/2-z
1/2-x,1/2-y,-z
1/2+x,y,1/2-z
1/2-x,1/2+y,z
1/2+x,-y,1/2+z
loop_
_atom_site_type_symbol
_atom_site_label
_atom_site_fract_x
_atom_site_fract_y
_atom_site_fract_z
Si Si1 0.332770 0.468815 0.390369
Si Si2 0.091594 0.591077 0.794285
Si Si3 0.320760 0.849889 0.359607
Si Si4 0.089694 0.618277 0.976645
Si Si5 0.596847 0.190516 0.073496
Si Si6 0.092714 0.980372 0.799487
Si Si7 0.206944 0.787334 0.796167
O O1 0.389389 0.453590 0.345402
O O2 0.238875 0.445540 0.378114
O O3 0.353041 0.380479 0.431178
O O4 0.348746 0.591267 0.407020
O O5 0.101412 0.494087 0.756509
O O6 0.152081 0.686782 0.779584
O O7 0.000000 0.637479 0.793206
O O8 0.374515 0.801312 0.401714
O O9 0.270867 0.751272 0.335381
O O10 0.382334 0.905483 0.323328
O O11 0.000000 0.648581 0.958221
O O12 0.088847 0.500000 0.000000
O O13 0.115719 0.702596 0.017825
O O14 0.500000 0.168713 0.081516
O O15 0.150894 0.883102 0.817345
O O16 0.000000 0.952086 0.813400
O O17 0.250000 0.833923 0.750000
#
# Coordination Sequence:
#
# PCOD8262808 Si02
#       7
#    16  16  16  16  16  16  16
#     4  10  20  33  56  83 111 143 180 228 275 323
#     4  10  21  36  55  81 106 141 188 221 262 327
#     4  11  23  37  55  83 111 144 183 226 271 322
#     4   8  15  31  54  81 112 141 175 225 278 322
#     4  10  20  36  58  83 110 144 183 226 274 325
#     4  11  24  39  55  76 109 149 182 220 271 321
#     4  11  23  37  56  75 111 141 178 226 271 313
#
# _framework density 19.486581999999999
#
# number of rings (size 3 to 8) (size 9 to 14) (size 15 to 20)
#    0.000    1.857    1.429    3.857    6.000    0.571 
#    0.000    0.000    0.000    0.000    0.000    0.000 
#    0.000   28.571    0.000    0.000    0.000    0.000 
#
# Total GULP energy -694273.058865 kJ/mol
# GULP energy per Si atom -12397.733194 kJ/mol
# Density = 1.944223 g / cm^3
# Si number density = 19.486582 Si / 1000 Ang^3
#
#
#
# Elastic Constant Matrix: (Units=GPa)
#
#
# Indices 1 2 3 4 5 6 
#
# 1 79.2154 20.2268 25.8929 0.0000 0.0000 0.0000
# 2 20.2268 48.7908 7.4501 0.0000 0.0000 0.0000
# 3 25.8929 7.4501 79.5553 0.0000 0.0000 0.0000
# 4 0.0000 0.0000 0.0000 25.8247 0.0000 0.0000
# 5 0.0000 0.0000 0.0000 0.0000 25.9992 0.0000
# 6 0.0000 0.0000 0.0000 0.0000 0.0000 24.6565
#
#
#
# Elastic Compliance Matrix: (Units=1/GPa)
#
#
# Indices 1 2 3 4 5 6 
#
# 1 0.015577 -0.005766 -0.004530 0.000000 0.000000 0.000000
# 2 -0.005766 0.022927 -0.000270 0.000000 0.000000 0.000000
# 3 -0.004530 -0.000270 0.014070 0.000000 0.000000 0.000000
# 4 0.000000 0.000000 0.000000 0.038723 0.000000 0.000000
# 5 0.000000 0.000000 0.000000 0.000000 0.038463 0.000000
# 6 0.000000 0.000000 0.000000 0.000000 0.000000 0.040557
#
#
# Mechanical properties :
#
#
# Convention : Reuss Voigt Hill
#
# Bulk Modulus (GPa) = 31.80530 34.96677 33.38604
# Shear Modulus (GPa) = 24.76123 25.56220 25.16171
#
# Velocity S-wave (km/s) = 3.56853 3.62579 3.59727
# Velocity P-wave (km/s) = 5.77376 5.95915 5.86718
#
# Compressibility (1/GPa) = 0.03144130
#
# Stress axis : x y z
#
# Youngs Moduli (GPa) = 64.19852 43.61625 71.07570
#
# Poissons Ratio (x) = 0.25148 0.32196
# Poissons Ratio (y) = 0.37016 0.01922
# Poissons Ratio (z) = 0.29081 0.01180
#
# Static dielectric constant tensor:
#      x y z
#    x 3.606310 0.000000 0.000000 
#    y 0.000000 3.184850 0.000000 
#    z 0.000000 0.000000 3.722270 
# 
# 
# High freq. dielectric constant tensor:
#      x y z
#    x 1.763310 0.000000 0.000000 
#    y 0.000000 1.730470 0.000000 
#    z 0.000000 0.000000 1.761300 
# 
# From -- ./inp_files/53242.got.cif
#   From: 2010.03.12/outbox.cif.g09.slc.cpg/sg64_27_cif.got.tgz:53242.got - 2010.04.10 20:19:32.
