data_PCOD8262003
_publ_section_title
;
Structure prediction by ZEFSAII (Michael W. Deem and Ramdas Pophale) SiO2 
 PCOD8262003
Probable space group: C M C A
;
_chemical_formula_sum "Si O2"
_cell_formula_units_Z 72
_cell_length_a 25.143422
_cell_length_b 5.196142
_cell_length_c 29.113295
_cell_angle_alpha 90.000000
_cell_angle_beta 90.000000
_cell_angle_gamma 90.000000
_cell_volume 3803.616796
_symmetry_space_group_name_H-M "C M C A"
_symmetry_group_IT_number 64
_symmetry_cell_setting 'orthorhombic'
loop_
_space_group_symop_operation_xyz
x,y,z
-x,1/2-y,1/2+z
x,-y,-z
-x,1/2+y,1/2-z
-x,-y,-z
x,1/2+y,1/2-z
-x,y,z
x,1/2-y,1/2+z
1/2+x,1/2+y,z
1/2-x,-y,1/2+z
1/2+x,1/2-y,-z
1/2-x,y,1/2-z
1/2-x,1/2-y,-z
1/2+x,y,1/2-z
1/2-x,1/2+y,z
1/2+x,-y,1/2+z
loop_
_atom_site_type_symbol
_atom_site_label
_atom_site_fract_x
_atom_site_fract_y
_atom_site_fract_z
Si Si1 0.061737 0.773569 0.378929
Si Si2 0.131260 0.500000 0.000000
Si Si3 0.063493 0.254422 0.223506
Si Si4 0.561879 0.288090 0.065573
Si Si5 0.272563 0.307308 0.449697
O O1 0.087270 0.760680 0.328126
O O2 0.085097 0.548748 0.411700
O O3 0.000000 0.709782 0.374008
O O4 0.071657 0.054334 0.399287
O O5 0.094308 0.269499 0.981082
O O6 0.165918 0.612926 0.957134
O O7 0.084992 0.000769 0.248803
O O8 0.000000 0.261557 0.222231
O O9 0.500000 0.312791 0.052004
O O10 0.250000 0.250000 0.500000
O O11 0.238871 0.535680 0.423755
#
# Coordination Sequence:
#
# PCOD8262003 Si02
#       5
#    16   8  16  16  16
#     4   9  18  30  39  54  81 106 134 179 215 231
#     4  10  19  30  46  60  78 114 153 170 196 242
#     4   9  15  24  41  58  70  93 132 171 209 252
#     4  10  20  30  40  56  83 115 147 177 198 225
#     4   8  16  29  44  62  78  93 130 176 217 250
#
# _framework density 18.929352000000002
#
# number of rings (size 3 to 8) (size 9 to 14) (size 15 to 20)
#    0.000    3.111    0.000    1.667    0.000   13.333 
#    0.000    3.333    0.000    0.000    0.000    0.000 
#    0.000    0.000    0.000    0.000    0.000  700.000 
#
# Total GULP energy -446056.368780 kJ/mol
# GULP energy per Si atom -12390.454688 kJ/mol
# Density = 1.888627 g / cm^3
# Si number density = 18.929352 Si / 1000 Ang^3
#
#
#
# Elastic Constant Matrix: (Units=GPa)
#
#
# Indices 1 2 3 4 5 6 
#
# 1 47.3036 10.2782 7.9394 0.0000 0.0000 0.0000
# 2 10.2782 123.7110 3.8421 0.0000 0.0000 0.0000
# 3 7.9394 3.8421 41.3867 0.0000 0.0000 0.0000
# 4 0.0000 0.0000 0.0000 24.5046 0.0000 0.0000
# 5 0.0000 0.0000 0.0000 0.0000 1.0229 0.0000
# 6 0.0000 0.0000 0.0000 0.0000 0.0000 4.0084
#
#
#
# Elastic Compliance Matrix: (Units=1/GPa)
#
#
# Indices 1 2 3 4 5 6 
#
# 1 0.022201 -0.001717 -0.004100 0.000000 0.000000 0.000000
# 2 -0.001717 0.008240 -0.000435 0.000000 0.000000 0.000000
# 3 -0.004100 -0.000435 0.024989 0.000000 0.000000 0.000000
# 4 0.000000 0.000000 0.000000 0.040809 0.000000 0.000000
# 5 0.000000 0.000000 0.000000 0.000000 0.977595 0.000000
# 6 0.000000 0.000000 0.000000 0.000000 0.000000 0.249473
#
#
# Mechanical properties :
#
#
# Convention : Reuss Voigt Hill
#
# Bulk Modulus (GPa) = 23.29620 28.50232 25.89926
# Shear Modulus (GPa) = 3.70337 18.59664 11.15001
#
# Velocity S-wave (km/s) = 1.40024 3.13776 2.42963
# Velocity P-wave (km/s) = 3.86625 5.31200 4.64571
#
# Compressibility (1/GPa) = 0.04292545
#
# Stress axis : x y z
#
# Youngs Moduli (GPa) = 45.04258 121.36585 40.01730
#
# Poissons Ratio (x) = 0.20841 0.16405
# Poissons Ratio (y) = 0.07735 0.01743
# Poissons Ratio (z) = 0.18465 0.05285
#
# Static dielectric constant tensor:
#      x y z
#    x 3.185090 0.000000 0.000000 
#    y 0.000000 -7.730670 0.000000 
#    z 0.000000 0.000000 3.167250 
# 
# 
# High freq. dielectric constant tensor:
#      x y z
#    x 1.674860 0.000000 0.000000 
#    y 0.000000 1.768160 0.000000 
#    z 0.000000 0.000000 1.690210 
# 
# From -- ./inp_files/46816.got.cif
#   From: 2010.03.12/outbox.cif.g09.slc.cpg/sg64_24_cif.got.tgz:46816.got - 2010.04.10 20:19:32.
