data_PCOD8262895
_publ_section_title
;
Structure prediction by ZEFSAII (Michael W. Deem and Ramdas Pophale) SiO2 
 PCOD8262895
Probable space group: C M C A
;
_chemical_formula_sum "Si O2"
_cell_formula_units_Z 80
_cell_length_a 9.859024
_cell_length_b 24.515941
_cell_length_c 18.252814
_cell_angle_alpha 90.000000
_cell_angle_beta 90.000000
_cell_angle_gamma 90.000000
_cell_volume 4411.764478
_symmetry_space_group_name_H-M "C M C A"
_symmetry_group_IT_number 64
_symmetry_cell_setting 'orthorhombic'
loop_
_space_group_symop_operation_xyz
x,y,z
-x,1/2-y,1/2+z
x,-y,-z
-x,1/2+y,1/2-z
-x,-y,-z
x,1/2+y,1/2-z
-x,y,z
x,1/2-y,1/2+z
1/2+x,1/2+y,z
1/2-x,-y,1/2+z
1/2+x,1/2-y,-z
1/2-x,y,1/2-z
1/2-x,1/2-y,-z
1/2+x,y,1/2-z
1/2-x,1/2+y,z
1/2+x,-y,1/2+z
loop_
_atom_site_type_symbol
_atom_site_label
_atom_site_fract_x
_atom_site_fract_y
_atom_site_fract_z
Si Si1 0.750000 0.651338 0.750000
Si Si2 0.000000 0.295263 0.177154
Si Si3 0.744835 0.628226 0.034450
Si Si4 0.000000 0.691377 0.983728
Si Si5 0.000000 0.197693 0.081680
Si Si6 0.157119 0.923374 0.118068
Si Si7 0.348545 0.017649 0.083537
O O1 0.867123 0.690884 0.777564
O O2 0.810821 0.614832 0.685965
O O3 0.000000 0.329873 0.100839
O O4 0.000000 0.230575 0.158687
O O5 0.631123 0.660193 0.078557
O O6 0.790977 0.578774 0.086645
O O7 0.688401 0.607950 0.956895
O O8 0.868513 0.669434 0.024385
O O9 0.000000 0.757712 0.985027
O O10 0.000000 0.940940 0.118654
O O11 0.248352 0.977548 0.127074
O O12 0.500000 0.014867 0.118283
O O13 0.357185 0.000000 0.000000
#
# Coordination Sequence:
#
# PCOD8262895 Si02
#       7
#     8   8  16   8   8  16  16
#     4  12  22  40  58  84 118 150 196 242 288 346
#     4  10  24  37  59  84 113 152 197 240 288 338
#     4  11  19  36  57  86 124 148 184 240 297 343
#     4  10  20  34  54  88 113 152 188 230 294 348
#     4  10  22  35  57  87 118 150 197 246 287 347
#     4  11  22  33  56  88 114 153 188 237 288 348
#     4   9  20  32  54  84 118 150 181 220 289 352
#
# _framework density 18.133334999999999
#
# number of rings (size 3 to 8) (size 9 to 14) (size 15 to 20)
#    0.600    1.000    5.000    0.600    4.200    1.200 
#    0.000    1.000    0.000    1.200    0.000    0.000 
#    0.000    0.000    0.000    0.000    0.000    0.000 
#
# Total GULP energy -495962.389340 kJ/mol
# GULP energy per Si atom -12399.059733 kJ/mol
# Density = 1.809206 g / cm^3
# Si number density = 18.133335 Si / 1000 Ang^3
#
#
#
# Elastic Constant Matrix: (Units=GPa)
#
#
# Indices 1 2 3 4 5 6 
#
# 1 189.9003 78.0958 34.2599 0.0000 0.0000 0.0000
# 2 78.0958 126.6725 22.7652 0.0000 0.0000 0.0000
# 3 34.2599 22.7652 45.0141 0.0000 0.0000 0.0000
# 4 0.0000 0.0000 0.0000 25.8023 0.0000 0.0000
# 5 0.0000 0.0000 0.0000 0.0000 5.2039 0.0000
# 6 0.0000 0.0000 0.0000 0.0000 0.0000 114.7614
#
#
#
# Elastic Compliance Matrix: (Units=1/GPa)
#
#
# Indices 1 2 3 4 5 6 
#
# 1 0.007590 -0.004005 -0.003751 0.000000 0.000000 0.000000
# 2 -0.004005 0.010797 -0.002412 0.000000 0.000000 0.000000
# 3 -0.003751 -0.002412 0.026290 0.000000 0.000000 0.000000
# 4 0.000000 0.000000 0.000000 0.038756 0.000000 0.000000
# 5 0.000000 0.000000 0.000000 0.000000 0.192164 0.000000
# 6 0.000000 0.000000 0.000000 0.000000 0.000000 0.008714
#
#
# Mechanical properties :
#
#
# Convention : Reuss Voigt Hill
#
# Bulk Modulus (GPa) = 41.08412 70.20317 55.64365
# Shear Modulus (GPa) = 15.98665 44.25126 30.11895
#
# Velocity S-wave (km/s) = 2.97242 4.94533 4.07992
# Velocity P-wave (km/s) = 5.87250 8.45029 7.27646
#
# Compressibility (1/GPa) = 0.02434031
#
# Stress axis : x y z
#
# Youngs Moduli (GPa) = 131.75745 92.61762 38.03721
#
# Poissons Ratio (x) = 0.37094 0.14268
# Poissons Ratio (y) = 0.52770 0.09175
# Poissons Ratio (z) = 0.49422 0.22341
#
# Static dielectric constant tensor:
#      x y z
#    x 3.738370 0.000000 0.000000 
#    y 0.000000 3.418230 0.000000 
#    z 0.000000 0.000000 2.980100 
# 
# 
# High freq. dielectric constant tensor:
#      x y z
#    x 1.726540 0.000000 0.000000 
#    y 0.000000 1.704680 0.000000 
#    z 0.000000 0.000000 1.659000 
# 
# From -- ./inp_files/36747.got.cif
#   From: 2010.03.12/outbox.cif.g09.slc.cpg/sg64_19_cif.got.tgz:36747.got - 2010.04.10 20:19:32.
