data_PCOD8262164
_publ_section_title
;
Structure prediction by ZEFSAII (Michael W. Deem and Ramdas Pophale) SiO2 
 PCOD8262164
Probable space group: C M C A
;
_chemical_formula_sum "Si O2"
_cell_formula_units_Z 128
_cell_length_a 26.445142
_cell_length_b 11.228330
_cell_length_c 23.808068
_cell_angle_alpha 90.000000
_cell_angle_beta 90.000000
_cell_angle_gamma 90.000000
_cell_volume 7069.443464
_symmetry_space_group_name_H-M "C M C A"
_symmetry_group_IT_number 64
_symmetry_cell_setting 'orthorhombic'
loop_
_space_group_symop_operation_xyz
x,y,z
-x,1/2-y,1/2+z
x,-y,-z
-x,1/2+y,1/2-z
-x,-y,-z
x,1/2+y,1/2-z
-x,y,z
x,1/2-y,1/2+z
1/2+x,1/2+y,z
1/2-x,-y,1/2+z
1/2+x,1/2-y,-z
1/2-x,y,1/2-z
1/2-x,1/2-y,-z
1/2+x,y,1/2-z
1/2-x,1/2+y,z
1/2+x,-y,1/2+z
loop_
_atom_site_type_symbol
_atom_site_label
_atom_site_fract_x
_atom_site_fract_y
_atom_site_fract_z
Si Si1 0.889193 0.043596 0.404306
Si Si2 0.224809 0.248993 0.560575
Si Si3 0.223142 0.512602 0.067467
Si Si4 0.057920 0.749236 0.531316
Si Si5 0.058355 0.106637 0.864011
Si Si6 0.440213 0.159933 0.195565
Si Si7 0.559971 0.142732 0.325254
Si Si8 0.607117 0.221855 0.922020
O O1 0.828845 0.046371 0.402212
O O2 0.908244 0.141544 0.448007
O O3 0.911408 0.061477 0.341556
O O4 0.906643 0.916390 0.427146
O O5 0.250000 0.250000 0.500000
O O6 0.241280 0.376629 0.587618
O O7 0.164410 0.250029 0.561187
O O8 0.241774 0.120581 0.588805
O O9 0.216385 0.500000 0.000000
O O10 0.068073 0.634492 0.570528
O O11 0.072287 0.711591 0.468159
O O12 0.000000 0.788931 0.536229
O O13 0.080106 0.212137 0.825329
O O14 0.000000 0.094519 0.848930
O O15 0.082771 0.981298 0.848225
O O16 0.500000 0.144088 0.185275
O O17 0.425618 0.148723 0.260217
O O18 0.500000 0.161152 0.334758
O O19 0.591733 0.240186 0.359317
#
# Coordination Sequence:
#
# PCOD8262164 Si02
#       8
#    16  16  16  16  16  16  16  16
#     4  10  19  33  54  79 105 138 177 226 269 312
#     4   9  18  35  52  76 108 136 171 219 270 329
#     4   9  17  33  54  76 107 136 169 219 277 328
#     4  10  19  32  49  74 112 147 174 210 268 328
#     4   8  17  34  48  66 102 142 179 219 258 306
#     4   9  19  34  54  76 102 144 190 223 259 312
#     4  10  21  35  51  75 109 147 183 223 264 310
#     4  11  22  33  51  83 112 136 178 226 268 324
#
# _framework density 18.106093000000001
#
# number of rings (size 3 to 8) (size 9 to 14) (size 15 to 20)
#    0.000    2.500    0.000    4.125    1.750    3.000 
#   11.250    1.875    0.000    0.750    0.000    3.500 
#    0.000    0.000    0.000    0.000    0.000    0.000 
#
# Total GULP energy -792962.063518 kJ/mol
# GULP energy per Si atom -12390.032242 kJ/mol
# Density = 1.806488 g / cm^3
# Si number density = 18.106093 Si / 1000 Ang^3
#
#
#
# Elastic Constant Matrix: (Units=GPa)
#
#
# Indices 1 2 3 4 5 6 
#
# 1 49.5872 27.1843 27.5996 0.0000 0.0000 0.0000
# 2 27.1843 89.6108 10.0298 0.0000 0.0000 0.0000
# 3 27.5996 10.0298 90.2165 0.0000 0.0000 0.0000
# 4 0.0000 0.0000 0.0000 18.0299 0.0000 0.0000
# 5 0.0000 0.0000 0.0000 0.0000 20.2548 0.0000
# 6 0.0000 0.0000 0.0000 0.0000 0.0000 26.6020
#
#
#
# Elastic Compliance Matrix: (Units=1/GPa)
#
#
# Indices 1 2 3 4 5 6 
#
# 1 0.028925 -0.007882 -0.007973 0.000000 0.000000 0.000000
# 2 -0.007882 0.013448 0.000916 0.000000 0.000000 0.000000
# 3 -0.007973 0.000916 0.013422 0.000000 0.000000 0.000000
# 4 0.000000 0.000000 0.000000 0.055463 0.000000 0.000000
# 5 0.000000 0.000000 0.000000 0.000000 0.049371 0.000000
# 6 0.000000 0.000000 0.000000 0.000000 0.000000 0.037591
#
#
# Mechanical properties :
#
#
# Convention : Reuss Voigt Hill
#
# Bulk Modulus (GPa) = 38.58407 39.89355 39.23881
# Shear Modulus (GPa) = 21.12047 23.95071 22.53559
#
# Velocity S-wave (km/s) = 3.41909 3.64098 3.53177
# Velocity P-wave (km/s) = 6.07809 6.30529 6.19273
#
# Compressibility (1/GPa) = 0.02591743
#
# Stress axis : x y z
#
# Youngs Moduli (GPa) = 34.57186 74.36040 74.50664
#
# Poissons Ratio (x) = 0.58614 0.59402
# Poissons Ratio (y) = 0.27251 -0.06827
# Poissons Ratio (z) = 0.27563 -0.06814
#
# Static dielectric constant tensor:
#      x y z
#    x 3.128570 0.000000 0.000000 
#    y 0.000000 3.886350 0.000000 
#    z 0.000000 0.000000 3.198730 
# 
# 
# High freq. dielectric constant tensor:
#      x y z
#    x 1.674580 0.000000 0.000000 
#    y 0.000000 1.717200 0.000000 
#    z 0.000000 0.000000 1.677540 
# 
# From -- ./inp_files/46747.got.cif
#   From: 2010.03.12/outbox.cif.g09.slc.cpg/sg64_24_cif.got.tgz:46747.got - 2010.04.10 20:19:32.
