data_PCOD8262584
_publ_section_title
;
Structure prediction by ZEFSAII (Michael W. Deem and Ramdas Pophale) SiO2 
 PCOD8262584
Probable space group: C M C A
;
_chemical_formula_sum "Si O2"
_cell_formula_units_Z 80
_cell_length_a 16.186141
_cell_length_b 8.822642
_cell_length_c 26.477028
_cell_angle_alpha 90.000000
_cell_angle_beta 90.000000
_cell_angle_gamma 90.000000
_cell_volume 3781.039471
_symmetry_space_group_name_H-M "C M C A"
_symmetry_group_IT_number 64
_symmetry_cell_setting 'orthorhombic'
loop_
_space_group_symop_operation_xyz
x,y,z
-x,1/2-y,1/2+z
x,-y,-z
-x,1/2+y,1/2-z
-x,-y,-z
x,1/2+y,1/2-z
-x,y,z
x,1/2-y,1/2+z
1/2+x,1/2+y,z
1/2-x,-y,1/2+z
1/2+x,1/2-y,-z
1/2-x,y,1/2-z
1/2-x,1/2-y,-z
1/2+x,y,1/2-z
1/2-x,1/2+y,z
1/2+x,-y,1/2+z
loop_
_atom_site_type_symbol
_atom_site_label
_atom_site_fract_x
_atom_site_fract_y
_atom_site_fract_z
Si Si1 0.250000 0.211196 0.750000
Si Si2 0.000000 0.123637 0.399611
Si Si3 0.500000 0.851504 0.650542
Si Si4 0.738161 0.500000 0.000000
Si Si5 0.862638 0.264435 0.963782
Si Si6 0.136953 0.967400 0.786192
Si Si7 0.000000 0.969839 0.294985
Si Si8 0.000000 0.304296 0.046001
O O1 0.186437 0.310952 0.718302
O O2 0.201331 0.105972 0.790569
O O3 0.918301 0.219984 0.413592
O O4 0.000000 0.975493 0.434757
O O5 0.000000 0.088320 0.340931
O O6 0.419604 0.952738 0.663984
O O7 0.500000 0.702519 0.685936
O O8 0.500000 0.814643 0.591819
O O9 0.793522 0.604825 0.036243
O O10 0.681347 0.398616 0.036856
O O11 0.917861 0.277039 0.014114
O O12 0.081723 0.996152 0.736624
#
# Coordination Sequence:
#
# PCOD8262584 Si02
#       8
#     8   8   8   8  16  16   8   8
#     4  10  20  36  58  78 112 142 180 218 290 320
#     4  10  19  36  58  81 109 149 186 221 272 327
#     4  10  20  36  59  83 107 145 190 226 268 333
#     4  10  20  34  58  82 114 144 184 222 286 310
#     4  10  19  38  57  81 111 151 177 232 267 330
#     4  10  20  38  56  80 108 146 176 232 270 330
#     4  10  20  36  59  83 107 145 190 226 268 333
#     4  10  19  36  58  81 109 149 186 221 272 327
#
# _framework density 21.158204000000001
#
# number of rings (size 3 to 8) (size 9 to 14) (size 15 to 20)
#    0.000    2.000    4.000    0.600    0.000    1.600 
#    0.000   16.000    0.000    0.000    0.000    0.000 
#    0.000    0.000    0.000    0.000    0.000    0.000 
#
# Total GULP energy -496066.359359 kJ/mol
# GULP energy per Si atom -12401.658984 kJ/mol
# Density = 2.111005 g / cm^3
# Si number density = 21.158204 Si / 1000 Ang^3
#
#
#
# Elastic Constant Matrix: (Units=GPa)
#
#
# Indices 1 2 3 4 5 6 
#
# 1 114.3953 40.0116 11.7475 0.0000 0.0000 0.0000
# 2 40.0116 94.3671 -4.4719 0.0000 0.0000 0.0000
# 3 11.7475 -4.4719 59.1600 0.0000 0.0000 0.0000
# 4 0.0000 0.0000 0.0000 20.8137 0.0000 0.0000
# 5 0.0000 0.0000 0.0000 0.0000 7.7751 0.0000
# 6 0.0000 0.0000 0.0000 0.0000 0.0000 22.3682
#
#
#
# Elastic Compliance Matrix: (Units=1/GPa)
#
#
# Indices 1 2 3 4 5 6 
#
# 1 0.010608 -0.004614 -0.002455 0.000000 0.000000 0.000000
# 2 -0.004614 0.012642 0.001872 0.000000 0.000000 0.000000
# 3 -0.002455 0.001872 0.017532 0.000000 0.000000 0.000000
# 4 0.000000 0.000000 0.000000 0.048045 0.000000 0.000000
# 5 0.000000 0.000000 0.000000 0.000000 0.128616 0.000000
# 6 0.000000 0.000000 0.000000 0.000000 0.000000 0.044706
#
#
# Mechanical properties :
#
#
# Convention : Reuss Voigt Hill
#
# Bulk Modulus (GPa) = 32.90851 40.27741 36.59296
# Shear Modulus (GPa) = 17.68828 24.90040 21.29434
#
# Velocity S-wave (km/s) = 2.89450 3.43427 3.17588
# Velocity P-wave (km/s) = 5.17283 5.89943 5.54804
#
# Compressibility (1/GPa) = 0.03038728
#
# Stress axis : x y z
#
# Youngs Moduli (GPa) = 94.27255 79.10185 57.03748
#
# Poissons Ratio (x) = 0.36497 0.14003
# Poissons Ratio (y) = 0.43497 -0.10676
# Poissons Ratio (z) = 0.23145 -0.14806
#
# Static dielectric constant tensor:
#      x y z
#    x 4.151200 0.000000 0.000000 
#    y 0.000000 3.960370 0.000000 
#    z 0.000000 0.000000 3.348770 
# 
# 
# High freq. dielectric constant tensor:
#      x y z
#    x 1.850790 0.000000 0.000000 
#    y 0.000000 1.841700 0.000000 
#    z 0.000000 0.000000 1.785790 
# 
# From -- ./inp_files/50357.got.cif
#   From: 2010.03.12/outbox.cif.g09.slc.cpg/sg64_26_cif.got.tgz:50357.got - 2010.04.10 20:19:32.
