data_PCOD8262559
_publ_section_title
;
Structure prediction by ZEFSAII (Michael W. Deem and Ramdas Pophale) SiO2 
 PCOD8262559
Probable space group: C M C A
;
_chemical_formula_sum "Si O2"
_cell_formula_units_Z 112
_cell_length_a 13.930387
_cell_length_b 23.651392
_cell_length_c 15.103631
_cell_angle_alpha 90.000000
_cell_angle_beta 90.000000
_cell_angle_gamma 90.000000
_cell_volume 4976.239276
_symmetry_space_group_name_H-M "C M C A"
_symmetry_group_IT_number 64
_symmetry_cell_setting 'orthorhombic'
loop_
_space_group_symop_operation_xyz
x,y,z
-x,1/2-y,1/2+z
x,-y,-z
-x,1/2+y,1/2-z
-x,-y,-z
x,1/2+y,1/2-z
-x,y,z
x,1/2-y,1/2+z
1/2+x,1/2+y,z
1/2-x,-y,1/2+z
1/2+x,1/2-y,-z
1/2-x,y,1/2-z
1/2-x,1/2-y,-z
1/2+x,y,1/2-z
1/2-x,1/2+y,z
1/2+x,-y,1/2+z
loop_
_atom_site_type_symbol
_atom_site_label
_atom_site_fract_x
_atom_site_fract_y
_atom_site_fract_z
Si Si1 0.605436 0.243584 0.219911
Si Si2 0.702821 0.073277 0.942244
Si Si3 0.107688 0.962018 0.611883
Si Si4 0.889892 0.889169 0.973412
Si Si5 0.884316 0.182814 0.621323
Si Si6 0.613095 0.263385 0.029667
Si Si7 0.141754 0.380209 0.730452
O O1 0.500000 0.269548 0.206602
O O2 0.655024 0.281409 0.295134
O O3 0.660070 0.251653 0.126286
O O4 0.589854 0.178777 0.250029
O O5 0.640507 0.079563 0.032617
O O6 0.816312 0.073673 0.967497
O O7 0.669685 0.122945 0.876737
O O8 0.680723 0.015028 0.890461
O O9 0.107414 0.930179 0.705266
O O10 0.000000 0.983777 0.593488
O O11 0.877176 0.901269 0.869060
O O12 0.000000 0.903048 0.001358
O O13 0.861667 0.824788 0.992724
O O14 0.844463 0.216239 0.535731
O O15 0.000000 0.176048 0.621427
O O16 0.500000 0.254293 0.032376
O O17 0.250000 0.366041 0.750000
#
# Coordination Sequence:
#
# PCOD8262559 Si02
#       7
#    16  16  16  16  16  16  16
#     4  10  20  36  62  98 138 181 222 272 343 407
#     4  11  23  40  66  97 128 170 228 277 335 405
#     4  11  23  43  69  96 131 170 220 286 340 391
#     4  11  23  43  67  95 137 181 221 277 340 408
#     4  10  19  35  61  97 140 177 220 276 337 405
#     4   9  19  35  60  94 136 182 221 265 333 409
#     4  12  23  40  66 101 133 173 232 280 327 408
#
# _framework density 22.506957
#
# number of rings (size 3 to 8) (size 9 to 14) (size 15 to 20)
#    0.000    1.429    2.857    3.857    0.000    2.857 
#    0.000    2.857    0.000    1.714    0.000    0.000 
#    0.000    0.000    0.000    0.000    0.000    0.000 
#
# Total GULP energy -694270.094600 kJ/mol
# GULP energy per Si atom -12397.680261 kJ/mol
# Density = 2.245573 g / cm^3
# Si number density = 22.506957 Si / 1000 Ang^3
#
#
#
# Elastic Constant Matrix: (Units=GPa)
#
#
# Indices 1 2 3 4 5 6 
#
# 1 106.6310 33.5809 29.8590 0.0000 0.0000 0.0000
# 2 33.5809 127.8592 64.6247 0.0000 0.0000 0.0000
# 3 29.8590 64.6247 135.0658 0.0000 0.0000 0.0000
# 4 0.0000 0.0000 0.0000 45.2214 0.0000 0.0000
# 5 0.0000 0.0000 0.0000 0.0000 9.7725 0.0000
# 6 0.0000 0.0000 0.0000 0.0000 0.0000 94.4615
#
#
#
# Elastic Compliance Matrix: (Units=1/GPa)
#
#
# Indices 1 2 3 4 5 6 
#
# 1 0.010396 -0.002069 -0.001308 0.000000 0.000000 0.000000
# 2 -0.002069 0.010728 -0.004675 0.000000 0.000000 0.000000
# 3 -0.001308 -0.004675 0.009930 0.000000 0.000000 0.000000
# 4 0.000000 0.000000 0.000000 0.022113 0.000000 0.000000
# 5 0.000000 0.000000 0.000000 0.000000 0.102328 0.000000
# 6 0.000000 0.000000 0.000000 0.000000 0.000000 0.010586
#
#
# Mechanical properties :
#
#
# Convention : Reuss Voigt Hill
#
# Bulk Modulus (GPa) = 66.89787 69.52056 68.20921
# Shear Modulus (GPa) = 26.71362 45.99050 36.35206
#
# Velocity S-wave (km/s) = 3.44889 4.52529 4.02325
# Velocity P-wave (km/s) = 6.75629 7.63282 7.20789
#
# Compressibility (1/GPa) = 0.01494816
#
# Stress axis : x y z
#
# Youngs Moduli (GPa) = 96.18975 93.21671 100.70445
#
# Poissons Ratio (x) = 0.19289 0.13174
# Poissons Ratio (y) = 0.19904 0.47084
# Poissons Ratio (z) = 0.12584 0.43583
#
# Static dielectric constant tensor:
#      x y z
#    x 4.117730 0.000000 0.000000 
#    y 0.000000 3.768270 0.000000 
#    z 0.000000 0.000000 4.236600 
# 
# 
# High freq. dielectric constant tensor:
#      x y z
#    x 1.896630 0.000000 0.000000 
#    y 0.000000 1.869470 0.000000 
#    z 0.000000 0.000000 1.885300 
# 
# From -- ./inp_files/24260.got.cif
#   From: 2010.03.12/outbox.cif.g09.slc.cpg/sg64_13_cif.got.tgz:24260.got - 2010.04.10 20:19:32.
