data_PCOD8262152
_publ_section_title
;
Structure prediction by ZEFSAII (Michael W. Deem and Ramdas Pophale) SiO2 
 PCOD8262152
Probable space group: C M C A
;
_chemical_formula_sum "Si O2"
_cell_formula_units_Z 96
_cell_length_a 14.002923
_cell_length_b 15.479584
_cell_length_c 21.729157
_cell_angle_alpha 90.000000
_cell_angle_beta 90.000000
_cell_angle_gamma 90.000000
_cell_volume 4709.999530
_symmetry_space_group_name_H-M "C M C A"
_symmetry_group_IT_number 64
_symmetry_cell_setting 'orthorhombic'
loop_
_space_group_symop_operation_xyz
x,y,z
-x,1/2-y,1/2+z
x,-y,-z
-x,1/2+y,1/2-z
-x,-y,-z
x,1/2+y,1/2-z
-x,y,z
x,1/2-y,1/2+z
1/2+x,1/2+y,z
1/2-x,-y,1/2+z
1/2+x,1/2-y,-z
1/2-x,y,1/2-z
1/2-x,1/2-y,-z
1/2+x,y,1/2-z
1/2-x,1/2+y,z
1/2+x,-y,1/2+z
loop_
_atom_site_type_symbol
_atom_site_label
_atom_site_fract_x
_atom_site_fract_y
_atom_site_fract_z
Si Si1 0.113145 0.052062 0.320487
Si Si2 0.198326 0.072484 0.453243
Si Si3 0.607618 0.689994 0.543165
Si Si4 0.388467 0.817099 0.720905
Si Si5 0.394573 0.119191 0.414351
Si Si6 0.386286 0.138725 0.823981
O O1 0.142111 0.070338 0.389814
O O2 0.159110 0.125378 0.275560
O O3 0.000000 0.055304 0.315598
O O4 0.146836 0.955358 0.299270
O O5 0.174548 0.163700 0.485782
O O6 0.311653 0.058907 0.441821
O O7 0.160309 0.000000 0.500000
O O8 0.500000 0.655904 0.531457
O O9 0.606553 0.792652 0.547782
O O10 0.650680 0.648920 0.605924
O O11 0.500000 0.810794 0.734187
O O12 0.369540 0.865077 0.656819
O O13 0.346527 0.718515 0.718067
O O14 0.500000 0.075625 0.420613
O O15 0.500000 0.148216 0.826327
#
# Coordination Sequence:
#
# PCOD8262152 Si02
#       6
#    16  16  16  16  16  16
#     4  10  19  31  54  87 120 145 176 234 289 335
#     4  12  22  31  53  87 119 145 180 228 284 342
#     4   9  17  33  56  81 110 143 181 225 280 339
#     4   8  16  33  56  77 103 146 190 225 277 336
#     4   9  20  38  57  72 100 154 201 231 265 323
#     4   8  14  28  52  80 110 143 179 219 276 339
#
# _framework density 20.382168
#
# number of rings (size 3 to 8) (size 9 to 14) (size 15 to 20)
#    0.000    2.667    1.667    3.000    0.000    1.667 
#    0.000    0.000    7.333    2.000    0.000    0.000 
#    0.000    0.000    0.000    0.000    0.000    0.000 
#
# Total GULP energy -594806.649942 kJ/mol
# GULP energy per Si atom -12391.805207 kJ/mol
# Density = 2.033578 g / cm^3
# Si number density = 20.382168 Si / 1000 Ang^3
#
#
#
# Elastic Constant Matrix: (Units=GPa)
#
#
# Indices 1 2 3 4 5 6 
#
# 1 25.2394 4.5879 18.4569 0.0000 0.0000 0.0000
# 2 4.5879 103.1622 66.4614 0.0000 0.0000 0.0000
# 3 18.4569 66.4614 107.5046 0.0000 0.0000 0.0000
# 4 0.0000 0.0000 0.0000 36.5160 0.0000 0.0000
# 5 0.0000 0.0000 0.0000 0.0000 21.9590 0.0000
# 6 0.0000 0.0000 0.0000 0.0000 0.0000 15.2898
#
#
#
# Elastic Compliance Matrix: (Units=1/GPa)
#
#
# Indices 1 2 3 4 5 6 
#
# 1 0.046903 0.005155 -0.011239 0.000000 0.000000 0.000000
# 2 0.005155 0.016676 -0.011195 0.000000 0.000000 0.000000
# 3 -0.011239 -0.011195 0.018152 0.000000 0.000000 0.000000
# 4 0.000000 0.000000 0.000000 0.027385 0.000000 0.000000
# 5 0.000000 0.000000 0.000000 0.000000 0.045539 0.000000
# 6 0.000000 0.000000 0.000000 0.000000 0.000000 0.065403
#
#
# Mechanical properties :
#
#
# Convention : Reuss Voigt Hill
#
# Bulk Modulus (GPa) = 21.19850 46.10207 33.65028
# Shear Modulus (GPa) = 18.49513 24.51295 21.50404
#
# Velocity S-wave (km/s) = 3.01560 3.47171 3.25166
# Velocity P-wave (km/s) = 4.74850 6.22401 5.53564
#
# Compressibility (1/GPa) = 0.04717316
#
# Stress axis : x y z
#
# Youngs Moduli (GPa) = 21.32078 59.96544 55.08949
#
# Poissons Ratio (x) = -0.30912 0.61917
# Poissons Ratio (y) = -0.10991 0.61671
# Poissons Ratio (z) = 0.23963 0.67129
#
# Static dielectric constant tensor:
#      x y z
#    x 3.513660 0.000000 0.000000 
#    y 0.000000 3.861710 0.000000 
#    z 0.000000 0.000000 3.629060 
# 
# 
# High freq. dielectric constant tensor:
#      x y z
#    x 1.777150 0.000000 0.000000 
#    y 0.000000 1.787240 0.000000 
#    z 0.000000 0.000000 1.785210 
# 
# From -- ./inp_files/39150.got.cif
#   From: 2010.03.12/outbox.cif.g09.slc.cpg/sg64_20_cif.got.tgz:39150.got - 2010.04.10 20:19:32.
