data_PCOD8262865
_publ_section_title
;
Structure prediction by ZEFSAII (Michael W. Deem and Ramdas Pophale) SiO2 
 PCOD8262865
Probable space group: C M C A
;
_chemical_formula_sum "Si O2"
_cell_formula_units_Z 80
_cell_length_a 8.878190
_cell_length_b 27.337936
_cell_length_c 18.070654
_cell_angle_alpha 90.000000
_cell_angle_beta 90.000000
_cell_angle_gamma 90.000000
_cell_volume 4385.953551
_symmetry_space_group_name_H-M "C M C A"
_symmetry_group_IT_number 64
_symmetry_cell_setting 'orthorhombic'
loop_
_space_group_symop_operation_xyz
x,y,z
-x,1/2-y,1/2+z
x,-y,-z
-x,1/2+y,1/2-z
-x,-y,-z
x,1/2+y,1/2-z
-x,y,z
x,1/2-y,1/2+z
1/2+x,1/2+y,z
1/2-x,-y,1/2+z
1/2+x,1/2-y,-z
1/2-x,y,1/2-z
1/2-x,1/2-y,-z
1/2+x,y,1/2-z
1/2-x,1/2+y,z
1/2+x,-y,1/2+z
loop_
_atom_site_type_symbol
_atom_site_label
_atom_site_fract_x
_atom_site_fract_y
_atom_site_fract_z
Si Si1 0.674693 0.299282 0.025476
Si Si2 0.321191 0.400662 0.957428
Si Si3 0.324076 0.456003 0.670311
Si Si4 0.322434 0.150914 0.674963
Si Si5 0.323940 0.439173 0.399733
O O1 0.500000 0.290870 0.016815
O O2 0.717482 0.310670 0.110474
O O3 0.750000 0.250000 0.000000
O O4 0.725992 0.344771 0.974693
O O5 0.500000 0.407502 0.959013
O O6 0.253973 0.413604 0.877764
O O7 0.250124 0.435966 0.019438
O O8 0.500000 0.444749 0.677647
O O9 0.250000 0.455867 0.750000
O O10 0.292667 0.507248 0.630997
O O11 0.500000 0.143984 0.683950
O O12 0.250000 0.171737 0.750000
O O13 0.252199 0.098264 0.657110
O O14 0.500000 0.427428 0.406139
#
# Coordination Sequence:
#
# PCOD8262865 Si02
#       5
#    16  16  16  16  16
#     4   9  20  37  57  80 104 134 174 218 265 318
#     4  10  21  37  56  79 107 139 177 219 264 315
#     4  11  23  36  52  77 109 145 183 219 259 309
#     4  10  20  34  53  81 111 138 173 217 267 318
#     4  10  20  34  54  80 109 142 179 217 260 311
#
# _framework density 18.240047000000001
#
# number of rings (size 3 to 8) (size 9 to 14) (size 15 to 20)
#    0.000    2.000    0.000    4.800    0.000   12.000 
#    0.000    1.000    0.000    2.400    0.000    0.000 
#    0.000    0.000    0.000    0.000    0.000    0.000 
#
# Total GULP energy -496121.329620 kJ/mol
# GULP energy per Si atom -12403.033241 kJ/mol
# Density = 1.819853 g / cm^3
# Si number density = 18.240047 Si / 1000 Ang^3
#
#
#
# Elastic Constant Matrix: (Units=GPa)
#
#
# Indices 1 2 3 4 5 6 
#
# 1 109.9792 68.7213 76.8435 0.0000 0.0000 0.0000
# 2 68.7213 109.4311 67.0209 0.0000 0.0000 0.0000
# 3 76.8435 67.0209 62.1888 0.0000 0.0000 0.0000
# 4 0.0000 0.0000 0.0000 19.4424 0.0000 0.0000
# 5 0.0000 0.0000 0.0000 0.0000 39.4860 0.0000
# 6 0.0000 0.0000 0.0000 0.0000 0.0000 30.2602
#
#
#
# Elastic Compliance Matrix: (Units=1/GPa)
#
#
# Indices 1 2 3 4 5 6 
#
# 1 0.103210 0.039098 -0.169668 0.000000 0.000000 0.000000
# 2 0.039098 0.041691 -0.093242 0.000000 0.000000 0.000000
# 3 -0.169668 -0.093242 0.326217 0.000000 0.000000 0.000000
# 4 0.000000 0.000000 0.000000 0.051434 0.000000 0.000000
# 5 0.000000 0.000000 0.000000 0.000000 0.025325 0.000000
# 6 0.000000 0.000000 0.000000 0.000000 0.000000 0.033047
#
#
# Mechanical properties :
#
#
# Convention : Reuss Voigt Hill
#
# Bulk Modulus (GPa) = 42.56249 78.53005 60.54627
# Shear Modulus (GPa) = 4.82449 22.43860 13.63154
#
# Velocity S-wave (km/s) = 1.62811 3.51120 2.73672
# Velocity P-wave (km/s) = 5.18841 7.71914 6.57665
#
# Compressibility (1/GPa) = 0.02349487
#
# Stress axis : x y z
#
# Youngs Moduli (GPa) = 9.68895 23.98599 3.06545
#
# Poissons Ratio (x) = -0.93781 0.52011
# Poissons Ratio (y) = -0.37882 0.28583
# Poissons Ratio (z) = 1.64390 2.23650
#
# Static dielectric constant tensor:
#      x y z
#    x 3.480140 0.000000 0.000000 
#    y 0.000000 3.356650 0.000000 
#    z 0.000000 0.000000 3.558870 
# 
# 
# High freq. dielectric constant tensor:
#      x y z
#    x 1.722330 0.000000 0.000000 
#    y 0.000000 1.691770 0.000000 
#    z 0.000000 0.000000 1.714280 
# 
# From -- ./inp_files/29721.got.cif
#   From: 2010.03.12/outbox.cif.g09.slc.cpg/sg64_15_cif.got.tgz:29721.got - 2010.04.10 20:19:32.
