data_PCOD8262406
_publ_section_title
;
Structure prediction by ZEFSAII (Michael W. Deem and Ramdas Pophale) SiO2 
 PCOD8262406
Probable space group: C M C A
;
_chemical_formula_sum "Si O2"
_cell_formula_units_Z 80
_cell_length_a 8.537955
_cell_length_b 25.821558
_cell_length_c 19.661463
_cell_angle_alpha 90.000000
_cell_angle_beta 90.000000
_cell_angle_gamma 90.000000
_cell_volume 4334.631020
_symmetry_space_group_name_H-M "C M C A"
_symmetry_group_IT_number 64
_symmetry_cell_setting 'orthorhombic'
loop_
_space_group_symop_operation_xyz
x,y,z
-x,1/2-y,1/2+z
x,-y,-z
-x,1/2+y,1/2-z
-x,-y,-z
x,1/2+y,1/2-z
-x,y,z
x,1/2-y,1/2+z
1/2+x,1/2+y,z
1/2-x,-y,1/2+z
1/2+x,1/2-y,-z
1/2-x,y,1/2-z
1/2-x,1/2-y,-z
1/2+x,y,1/2-z
1/2-x,1/2+y,z
1/2+x,-y,1/2+z
loop_
_atom_site_type_symbol
_atom_site_label
_atom_site_fract_x
_atom_site_fract_y
_atom_site_fract_z
Si Si1 0.816239 0.554812 0.822735
Si Si2 0.185843 0.444237 0.676234
Si Si3 0.683980 0.141649 0.425437
Si Si4 0.684255 0.640301 0.919549
Si Si5 0.184003 0.745365 0.925242
O O1 0.750000 0.572561 0.750000
O O2 0.740248 0.500955 0.846796
O O3 0.777548 0.597686 0.877979
O O4 0.000000 0.546719 0.815786
O O5 0.250000 0.429539 0.750000
O O6 0.256232 0.402801 0.622534
O O7 0.000000 0.442323 0.678166
O O8 0.500000 0.134080 0.430486
O O9 0.746989 0.136598 0.502751
O O10 0.721246 0.198253 0.392039
O O11 0.500000 0.630844 0.912342
O O12 0.727816 0.697287 0.889049
O O13 0.000000 0.733949 0.925929
O O14 0.250000 0.750000 0.000000
#
# Coordination Sequence:
#
# PCOD8262406 Si02
#       5
#    16  16  16  16  16
#     4  11  22  37  54  75 101 134 169 209 256 307
#     4  10  19  35  54  74 100 135 171 208 251 302
#     4   8  17  32  53  76 103 136 171 207 252 303
#     4  10  19  34  54  78 103 134 172 213 256 304
#     4   9  16  30  50  75 104 137 171 209 255 306
#
# _framework density 18.456011
#
# number of rings (size 3 to 8) (size 9 to 14) (size 15 to 20)
#    0.000    2.400    0.000    6.000    0.000    0.800 
#    0.000   17.000    0.000    2.400    0.000    0.000 
#    0.000    0.000    0.000    0.000    0.000    0.000 
#
# Total GULP energy -495766.880190 kJ/mol
# GULP energy per Si atom -12394.172005 kJ/mol
# Density = 1.841400 g / cm^3
# Si number density = 18.456011 Si / 1000 Ang^3
#
#
#
# Elastic Constant Matrix: (Units=GPa)
#
#
# Indices 1 2 3 4 5 6 
#
# 1 64.8019 21.9625 16.9188 0.0000 0.0000 0.0000
# 2 21.9625 151.2028 74.5956 0.0000 0.0000 0.0000
# 3 16.9188 74.5956 75.0297 0.0000 0.0000 0.0000
# 4 0.0000 0.0000 0.0000 8.4189 0.0000 0.0000
# 5 0.0000 0.0000 0.0000 0.0000 24.3633 0.0000
# 6 0.0000 0.0000 0.0000 0.0000 0.0000 29.5942
#
#
#
# Elastic Compliance Matrix: (Units=1/GPa)
#
#
# Indices 1 2 3 4 5 6 
#
# 1 0.016490 -0.001101 -0.002624 0.000000 0.000000 0.000000
# 2 -0.001101 0.013054 -0.012730 0.000000 0.000000 0.000000
# 3 -0.002624 -0.012730 0.026576 0.000000 0.000000 0.000000
# 4 0.000000 0.000000 0.000000 0.118780 0.000000 0.000000
# 5 0.000000 0.000000 0.000000 0.000000 0.041045 0.000000
# 6 0.000000 0.000000 0.000000 0.000000 0.000000 0.033790
#
#
# Mechanical properties :
#
#
# Convention : Reuss Voigt Hill
#
# Bulk Modulus (GPa) = 43.08462 57.55427 50.31944
# Shear Modulus (GPa) = 17.21869 24.31246 20.76558
#
# Velocity S-wave (km/s) = 3.05775 3.63343 3.35795
# Velocity P-wave (km/s) = 5.98846 6.98961 6.50831
#
# Compressibility (1/GPa) = 0.02321014
#
# Stress axis : x y z
#
# Youngs Moduli (GPa) = 60.64365 76.60526 37.62739
#
# Poissons Ratio (x) = 0.08431 0.09874
# Poissons Ratio (y) = 0.06674 0.47901
# Poissons Ratio (z) = 0.15914 0.97520
#
# Static dielectric constant tensor:
#      x y z
#    x 3.386080 0.000000 0.000000 
#    y 0.000000 4.030120 0.000000 
#    z 0.000000 0.000000 3.326640 
# 
# 
# High freq. dielectric constant tensor:
#      x y z
#    x 1.714920 0.000000 0.000000 
#    y 0.000000 1.735430 0.000000 
#    z 0.000000 0.000000 1.684470 
# 
# From -- ./inp_files/29779.got.cif
#   From: 2010.03.12/outbox.cif.g09.slc.cpg/sg64_15_cif.got.tgz:29779.got - 2010.04.10 20:19:32.
