data_PCOD8262663
_publ_section_title
;
Structure prediction by ZEFSAII (Michael W. Deem and Ramdas Pophale) SiO2 
 PCOD8262663
Probable space group: C M C A
;
_chemical_formula_sum "Si O2"
_cell_formula_units_Z 64
_cell_length_a 17.002190
_cell_length_b 12.483341
_cell_length_c 14.594314
_cell_angle_alpha 90.000000
_cell_angle_beta 90.000000
_cell_angle_gamma 90.000000
_cell_volume 3097.557558
_symmetry_space_group_name_H-M "C M C A"
_symmetry_group_IT_number 64
_symmetry_cell_setting 'orthorhombic'
loop_
_space_group_symop_operation_xyz
x,y,z
-x,1/2-y,1/2+z
x,-y,-z
-x,1/2+y,1/2-z
-x,-y,-z
x,1/2+y,1/2-z
-x,y,z
x,1/2-y,1/2+z
1/2+x,1/2+y,z
1/2-x,-y,1/2+z
1/2+x,1/2-y,-z
1/2-x,y,1/2-z
1/2-x,1/2-y,-z
1/2+x,y,1/2-z
1/2-x,1/2+y,z
1/2+x,-y,1/2+z
loop_
_atom_site_type_symbol
_atom_site_label
_atom_site_fract_x
_atom_site_fract_y
_atom_site_fract_z
Si Si1 0.909711 0.239250 0.126185
Si Si2 0.680389 0.317280 0.041695
Si Si3 0.791468 0.933338 0.345435
Si Si4 0.832928 0.334972 0.797112
O O1 0.859708 0.348059 0.133752
O O2 0.897901 0.166282 0.216639
O O3 0.000000 0.271556 0.115863
O O4 0.884803 0.167546 0.037416
O O5 0.720904 0.426982 0.078763
O O6 0.643518 0.252726 0.127494
O O7 0.750000 0.250000 0.000000
O O8 0.750000 0.907219 0.250000
O O9 0.830080 0.050263 0.346925
O O10 0.750000 0.306395 0.750000
#
# Coordination Sequence:
#
# PCOD8262663 Si02
#       4
#    16  16  16  16
#     4  11  23  39  60  93 129 159 198 253 316 365
#     4  10  19  38  59  91 118 155 210 254 299 354
#     4  10  20  39  64  87 115 160 211 249 297 360
#     4  11  20  39  64  90 116 160 211 255 297 364
#
# _framework density 20.661439000000001
#
# number of rings (size 3 to 8) (size 9 to 14) (size 15 to 20)
#    0.000    1.500    7.500    0.000    0.000    6.000 
#    0.000    1.250    0.000    6.000    0.000    0.000 
#    0.000    0.000    0.000    0.000    0.000    0.000 
#
# Total GULP energy -396592.099084 kJ/mol
# GULP energy per Si atom -12393.503096 kJ/mol
# Density = 2.061441 g / cm^3
# Si number density = 20.661439 Si / 1000 Ang^3
#
#
#
# Elastic Constant Matrix: (Units=GPa)
#
#
# Indices 1 2 3 4 5 6 
#
# 1 102.8170 15.5097 37.7719 0.0000 0.0000 0.0000
# 2 15.5097 89.9525 29.9785 0.0000 0.0000 0.0000
# 3 37.7719 29.9785 135.3593 0.0000 0.0000 0.0000
# 4 0.0000 0.0000 0.0000 22.2651 0.0000 0.0000
# 5 0.0000 0.0000 0.0000 0.0000 26.8658 0.0000
# 6 0.0000 0.0000 0.0000 0.0000 0.0000 13.8740
#
#
#
# Elastic Compliance Matrix: (Units=1/GPa)
#
#
# Indices 1 2 3 4 5 6 
#
# 1 0.010909 -0.000936 -0.002837 0.000000 0.000000 0.000000
# 2 -0.000936 0.012083 -0.002415 0.000000 0.000000 0.000000
# 3 -0.002837 -0.002415 0.008714 0.000000 0.000000 0.000000
# 4 0.000000 0.000000 0.000000 0.044913 0.000000 0.000000
# 5 0.000000 0.000000 0.000000 0.000000 0.037222 0.000000
# 6 0.000000 0.000000 0.000000 0.000000 0.000000 0.072077
#
#
# Mechanical properties :
#
#
# Convention : Reuss Voigt Hill
#
# Bulk Modulus (GPa) = 51.72877 54.96101 53.34489
# Shear Modulus (GPa) = 24.42138 28.92554 26.67346
#
# Velocity S-wave (km/s) = 3.44172 3.74569 3.59692
# Velocity P-wave (km/s) = 6.39411 6.73538 6.56696
#
# Compressibility (1/GPa) = 0.01933160
#
# Stress axis : x y z
#
# Youngs Moduli (GPa) = 91.66409 82.75989 114.75394
#
# Poissons Ratio (x) = 0.07742 0.32557
# Poissons Ratio (y) = 0.08575 0.27714
# Poissons Ratio (z) = 0.26006 0.19987
#
# Static dielectric constant tensor:
#      x y z
#    x 3.928820 0.000000 0.000000 
#    y 0.000000 3.652930 0.000000 
#    z 0.000000 0.000000 0.468550 
# 
# 
# High freq. dielectric constant tensor:
#      x y z
#    x 1.765060 0.000000 0.000000 
#    y 0.000000 1.793960 0.000000 
#    z 0.000000 0.000000 1.835070 
# 
# From -- ./inp_files/25010.got.cif
#   From: 2010.03.12/outbox.cif.g09.slc.cpg/sg64_13_cif.got.tgz:25010.got - 2010.04.10 20:19:32.
