data_PCOD8262629
_publ_section_title
;
Structure prediction by ZEFSAII (Michael W. Deem and Ramdas Pophale) SiO2 
 PCOD8262629
Probable space group: C M C A
;
_chemical_formula_sum "Si O2"
_cell_formula_units_Z 88
_cell_length_a 20.258105
_cell_length_b 16.957460
_cell_length_c 12.844117
_cell_angle_alpha 90.000000
_cell_angle_beta 90.000000
_cell_angle_gamma 90.000000
_cell_volume 4412.288204
_symmetry_space_group_name_H-M "C M C A"
_symmetry_group_IT_number 64
_symmetry_cell_setting 'orthorhombic'
loop_
_space_group_symop_operation_xyz
x,y,z
-x,1/2-y,1/2+z
x,-y,-z
-x,1/2+y,1/2-z
-x,-y,-z
x,1/2+y,1/2-z
-x,y,z
x,1/2-y,1/2+z
1/2+x,1/2+y,z
1/2-x,-y,1/2+z
1/2+x,1/2-y,-z
1/2-x,y,1/2-z
1/2-x,1/2-y,-z
1/2+x,y,1/2-z
1/2-x,1/2+y,z
1/2+x,-y,1/2+z
loop_
_atom_site_type_symbol
_atom_site_label
_atom_site_fract_x
_atom_site_fract_y
_atom_site_fract_z
Si Si1 0.632173 0.309280 0.646083
Si Si2 0.653498 0.509899 0.112450
Si Si3 0.750000 0.113752 0.250000
Si Si4 0.925508 0.649055 0.350719
Si Si5 0.923475 0.810350 0.430640
Si Si6 0.578262 0.861010 0.296514
O O1 0.708716 0.327681 0.674139
O O2 0.589280 0.359627 0.728005
O O3 0.617410 0.341899 0.530070
O O4 0.610510 0.217909 0.655467
O O5 0.704183 0.554557 0.186285
O O6 0.592672 0.569284 0.090244
O O7 0.623307 0.431153 0.160669
O O8 0.688004 0.500000 0.000000
O O9 0.890327 0.725718 0.400595
O O10 0.000000 0.669409 0.368072
O O11 0.915198 0.865320 0.328966
O O12 0.000000 0.805590 0.463669
O O13 0.500000 0.866243 0.327630
#
# Coordination Sequence:
#
# PCOD8262629 Si02
#       6
#    16  16   8  16  16  16
#     4  10  19  37  58  79 112 153 192 231 276 326
#     4  11  23  39  57  81 114 152 188 227 281 333
#     4  10  26  42  54  78 114 158 200 228 262 332
#     4   9  18  33  55  85 116 143 181 232 285 343
#     4   9  17  32  58  88 114 144 183 233 290 336
#     4  10  21  36  60  94 117 136 183 241 288 338
#
# _framework density 19.944299999999998
#
# number of rings (size 3 to 8) (size 9 to 14) (size 15 to 20)
#    0.000    2.182    0.000    4.364    0.000    5.091 
#    0.000   15.455    0.000    9.818    0.000    0.000 
#    0.000    0.000    0.000    0.000    0.000    0.000 
#
# Total GULP energy -545104.378471 kJ/mol
# GULP energy per Si atom -12388.735874 kJ/mol
# Density = 1.989891 g / cm^3
# Si number density = 19.944300 Si / 1000 Ang^3
#
#
#
# Elastic Constant Matrix: (Units=GPa)
#
#
# Indices 1 2 3 4 5 6 
#
# 1 100.7205 48.5192 44.3785 0.0000 0.0000 0.0000
# 2 48.5192 91.3265 29.9435 0.0000 0.0000 0.0000
# 3 44.3785 29.9435 131.5869 0.0000 0.0000 0.0000
# 4 0.0000 0.0000 0.0000 18.5887 0.0000 0.0000
# 5 0.0000 0.0000 0.0000 0.0000 22.4223 0.0000
# 6 0.0000 0.0000 0.0000 0.0000 0.0000 30.8561
#
#
#
# Elastic Compliance Matrix: (Units=1/GPa)
#
#
# Indices 1 2 3 4 5 6 
#
# 1 0.014644 -0.006657 -0.003424 0.000000 0.000000 0.000000
# 2 -0.006657 0.014859 -0.001136 0.000000 0.000000 0.000000
# 3 -0.003424 -0.001136 0.009013 0.000000 0.000000 0.000000
# 4 0.000000 0.000000 0.000000 0.053796 0.000000 0.000000
# 5 0.000000 0.000000 0.000000 0.000000 0.044599 0.000000
# 6 0.000000 0.000000 0.000000 0.000000 0.000000 0.032408
#
#
# Mechanical properties :
#
#
# Convention : Reuss Voigt Hill
#
# Bulk Modulus (GPa) = 62.18389 63.25735 62.72062
# Shear Modulus (GPa) = 25.36603 27.75961 26.56282
#
# Velocity S-wave (km/s) = 3.57016 3.73481 3.65341
# Velocity P-wave (km/s) = 6.94559 7.09819 7.02230
#
# Compressibility (1/GPa) = 0.01608134
#
# Stress axis : x y z
#
# Youngs Moduli (GPa) = 68.28709 67.29899 110.95363
#
# Poissons Ratio (x) = 0.44803 0.37989
# Poissons Ratio (y) = 0.45461 0.12605
# Poissons Ratio (z) = 0.23381 0.07645
#
# Static dielectric constant tensor:
#      x y z
#    x 3.613880 0.000000 0.000000 
#    y 0.000000 3.611480 0.000000 
#    z 0.000000 0.000000 3.836960 
# 
# 
# High freq. dielectric constant tensor:
#      x y z
#    x 1.761970 0.000000 0.000000 
#    y 0.000000 1.767840 0.000000 
#    z 0.000000 0.000000 1.791320 
# 
# From -- ./inp_files/27295.got.cif
#   From: 2010.03.12/outbox.cif.g09.slc.cpg/sg64_14_cif.got.tgz:27295.got - 2010.04.10 20:19:32.
