data_PCOD8262613
_publ_section_title
;
Structure prediction by ZEFSAII (Michael W. Deem and Ramdas Pophale) SiO2 
 PCOD8262613
Probable space group: C M C A
;
_chemical_formula_sum "Si O2"
_cell_formula_units_Z 112
_cell_length_a 15.969004
_cell_length_b 13.763560
_cell_length_c 23.557389
_cell_angle_alpha 90.000000
_cell_angle_beta 90.000000
_cell_angle_gamma 90.000000
_cell_volume 5177.686648
_symmetry_space_group_name_H-M "C M C A"
_symmetry_group_IT_number 64
_symmetry_cell_setting 'orthorhombic'
loop_
_space_group_symop_operation_xyz
x,y,z
-x,1/2-y,1/2+z
x,-y,-z
-x,1/2+y,1/2-z
-x,-y,-z
x,1/2+y,1/2-z
-x,y,z
x,1/2-y,1/2+z
1/2+x,1/2+y,z
1/2-x,-y,1/2+z
1/2+x,1/2-y,-z
1/2-x,y,1/2-z
1/2-x,1/2-y,-z
1/2+x,y,1/2-z
1/2-x,1/2+y,z
1/2+x,-y,1/2+z
loop_
_atom_site_type_symbol
_atom_site_label
_atom_site_fract_x
_atom_site_fract_y
_atom_site_fract_z
Si Si1 0.405997 0.893594 0.773513
Si Si2 0.901615 0.394246 0.213604
Si Si3 0.598841 0.388232 0.505939
Si Si4 0.095921 0.287386 0.105590
Si Si5 0.157940 0.198922 0.377597
Si Si6 0.399584 0.605943 0.841586
Si Si7 0.335650 0.112475 0.344293
O O1 0.500000 0.909110 0.750188
O O2 0.409850 0.826192 0.828921
O O3 0.354783 0.852162 0.720078
O O4 0.366842 0.996601 0.792344
O O5 0.859829 0.332740 0.162331
O O6 0.881549 0.357408 0.277077
O O7 0.000000 0.390165 0.203301
O O8 0.624757 0.500000 0.500000
O O9 0.500000 0.375521 0.511539
O O10 0.636913 0.330249 0.451789
O O11 0.639818 0.344540 0.561541
O O12 0.107056 0.171328 0.110379
O O13 0.000000 0.317733 0.102623
O O14 0.149788 0.316657 0.381605
O O15 0.242346 0.148600 0.356232
O O16 0.500000 0.599903 0.853937
O O17 0.355964 0.501339 0.852376
#
# Coordination Sequence:
#
# PCOD8262613 Si02
#       7
#    16  16  16  16  16  16  16
#     4  10  19  36  61  89 124 166 209 253 310 382
#     4   8  16  31  58  90 115 149 200 254 300 352
#     4  10  22  40  63  90 119 157 209 261 307 367
#     4  10  19  36  61  86 117 163 216 261 306 367
#     4  12  24  38  60  91 126 163 206 259 319 372
#     4  10  21  40  64  91 127 169 208 248 308 386
#     4  11  24  39  59  91 125 158 204 262 319 372
#
# _framework density 21.631281999999999
#
# number of rings (size 3 to 8) (size 9 to 14) (size 15 to 20)
#    0.000    1.857    0.000    5.571    0.000    6.286 
#    0.000    3.571    0.000    2.571    0.000    0.000 
#    0.000    0.000    0.000    0.000    0.000    0.000 
#
# Total GULP energy -693912.296591 kJ/mol
# GULP energy per Si atom -12391.291011 kJ/mol
# Density = 2.158205 g / cm^3
# Si number density = 21.631282 Si / 1000 Ang^3
#
#
#
# Elastic Constant Matrix: (Units=GPa)
#
#
# Indices 1 2 3 4 5 6 
#
# 1 67.8718 50.8311 41.5048 0.0000 0.0000 0.0000
# 2 50.8311 118.6076 93.4158 0.0000 0.0000 0.0000
# 3 41.5048 93.4158 166.0737 0.0000 0.0000 0.0000
# 4 0.0000 0.0000 0.0000 33.2197 0.0000 0.0000
# 5 0.0000 0.0000 0.0000 0.0000 16.4008 0.0000
# 6 0.0000 0.0000 0.0000 0.0000 0.0000 26.6727
#
#
#
# Elastic Compliance Matrix: (Units=1/GPa)
#
#
# Indices 1 2 3 4 5 6 
#
# 1 0.021709 -0.009032 -0.000345 0.000000 0.000000 0.000000
# 2 -0.009032 0.018895 -0.008371 0.000000 0.000000 0.000000
# 3 -0.000345 -0.008371 0.010816 0.000000 0.000000 0.000000
# 4 0.000000 0.000000 0.000000 0.030103 0.000000 0.000000
# 5 0.000000 0.000000 0.000000 0.000000 0.060973 0.000000
# 6 0.000000 0.000000 0.000000 0.000000 0.000000 0.037492
#
#
# Mechanical properties :
#
#
# Convention : Reuss Voigt Hill
#
# Bulk Modulus (GPa) = 62.79771 80.45073 71.62422
# Shear Modulus (GPa) = 22.64578 26.37873 24.51225
#
# Velocity S-wave (km/s) = 3.23909 3.49588 3.36993
# Velocity P-wave (km/s) = 6.56376 7.31898 6.95164
#
# Compressibility (1/GPa) = 0.01592415
#
# Stress axis : x y z
#
# Youngs Moduli (GPa) = 46.06398 52.92374 92.45228
#
# Poissons Ratio (x) = 0.47801 0.03190
# Poissons Ratio (y) = 0.41605 0.77393
# Poissons Ratio (z) = 0.01589 0.44303
#
# Static dielectric constant tensor:
#      x y z
#    x 3.592630 0.000000 0.000000 
#    y 0.000000 4.178860 0.000000 
#    z 0.000000 0.000000 4.002490 
# 
# 
# High freq. dielectric constant tensor:
#      x y z
#    x 1.825540 0.000000 0.000000 
#    y 0.000000 1.863940 0.000000 
#    z 0.000000 0.000000 1.837640 
# 
# From -- ./inp_files/45288.got.cif
#   From: 2010.03.12/outbox.cif.g09.slc.cpg/sg64_23_cif.got.tgz:45288.got - 2010.04.10 20:19:32.
