data_PCOD8262649
_publ_section_title
;
Structure prediction by ZEFSAII (Michael W. Deem and Ramdas Pophale) SiO2 
 PCOD8262649
Probable space group: C M C A
;
_chemical_formula_sum "Si O2"
_cell_formula_units_Z 96
_cell_length_a 17.499266
_cell_length_b 15.796945
_cell_length_c 17.967711
_cell_angle_alpha 90.000000
_cell_angle_beta 90.000000
_cell_angle_gamma 90.000000
_cell_volume 4966.903158
_symmetry_space_group_name_H-M "C M C A"
_symmetry_group_IT_number 64
_symmetry_cell_setting 'orthorhombic'
loop_
_space_group_symop_operation_xyz
x,y,z
-x,1/2-y,1/2+z
x,-y,-z
-x,1/2+y,1/2-z
-x,-y,-z
x,1/2+y,1/2-z
-x,y,z
x,1/2-y,1/2+z
1/2+x,1/2+y,z
1/2-x,-y,1/2+z
1/2+x,1/2-y,-z
1/2-x,y,1/2-z
1/2-x,1/2-y,-z
1/2+x,y,1/2-z
1/2-x,1/2+y,z
1/2+x,-y,1/2+z
loop_
_atom_site_type_symbol
_atom_site_label
_atom_site_fract_x
_atom_site_fract_y
_atom_site_fract_z
Si Si1 0.200510 0.175419 0.035972
Si Si2 0.914686 0.343238 0.835176
Si Si3 0.410804 0.837362 0.405870
Si Si4 0.321761 0.146666 0.299680
Si Si5 0.291657 0.451178 0.176676
Si Si6 0.685939 0.032203 0.072525
O O1 0.123764 0.156836 0.988806
O O2 0.250000 0.250000 0.000000
O O3 0.177484 0.196932 0.121789
O O4 0.248904 0.090379 0.036744
O O5 0.901398 0.259113 0.881628
O O6 0.896253 0.328252 0.748136
O O7 0.862650 0.417761 0.867272
O O8 0.000000 0.376213 0.842454
O O9 0.500000 0.865336 0.406478
O O10 0.363558 0.894368 0.347580
O O11 0.250000 0.176108 0.250000
O O12 0.321766 0.046102 0.311500
O O13 0.250000 0.413855 0.250000
O O14 0.226054 0.452775 0.113314
O O15 0.637804 0.000000 0.000000
#
# Coordination Sequence:
#
# PCOD8262649 Si02
#       6
#    16  16  16  16  16  16
#     4  11  20  36  64  88 116 165 202 246 292 366
#     4  11  23  41  60  85 124 158 196 257 308 355
#     4  11  24  39  58  93 128 156 194 255 315 352
#     4  10  19  37  62  86 115 156 210 246 294 362
#     4  10  20  38  60  87 117 157 203 245 290 369
#     4  11  20  38  64  88 114 155 210 246 299 362
#
# _framework density 19.327938
#
# number of rings (size 3 to 8) (size 9 to 14) (size 15 to 20)
#    0.000    1.333    8.333    0.000    0.000    3.667 
#    0.000    5.833    0.000    0.000    0.000    0.000 
#    0.000    0.000    0.000    0.000    0.000    0.000 
#
# Total GULP energy -594968.416876 kJ/mol
# GULP energy per Si atom -12395.175352 kJ/mol
# Density = 1.928395 g / cm^3
# Si number density = 19.327938 Si / 1000 Ang^3
#
#
#
# Elastic Constant Matrix: (Units=GPa)
#
#
# Indices 1 2 3 4 5 6 
#
# 1 121.2491 35.9590 64.4005 0.0000 0.0000 0.0000
# 2 35.9590 27.1027 28.1880 0.0000 0.0000 0.0000
# 3 64.4005 28.1880 170.8405 0.0000 0.0000 0.0000
# 4 0.0000 0.0000 0.0000 29.6772 0.0000 0.0000
# 5 0.0000 0.0000 0.0000 0.0000 30.8053 0.0000
# 6 0.0000 0.0000 0.0000 0.0000 0.0000 14.4881
#
#
#
# Elastic Compliance Matrix: (Units=1/GPa)
#
#
# Indices 1 2 3 4 5 6 
#
# 1 0.014622 -0.016499 -0.002790 0.000000 0.000000 0.000000
# 2 -0.016499 0.063156 -0.004201 0.000000 0.000000 0.000000
# 3 -0.002790 -0.004201 0.007598 0.000000 0.000000 0.000000
# 4 0.000000 0.000000 0.000000 0.033696 0.000000 0.000000
# 5 0.000000 0.000000 0.000000 0.000000 0.032462 0.000000
# 6 0.000000 0.000000 0.000000 0.000000 0.000000 0.069022
#
#
# Mechanical properties :
#
#
# Convention : Reuss Voigt Hill
#
# Bulk Modulus (GPa) = 26.04362 64.03193 45.03777
# Shear Modulus (GPa) = 17.83577 27.70377 22.76977
#
# Velocity S-wave (km/s) = 3.04105 3.79007 3.43603
# Velocity P-wave (km/s) = 5.08277 7.23561 6.25254
#
# Compressibility (1/GPa) = 0.03839713
#
# Stress axis : x y z
#
# Youngs Moduli (GPa) = 68.38831 15.83378 131.60961
#
# Poissons Ratio (x) = 0.26124 0.36717
# Poissons Ratio (y) = 1.12833 0.55290
# Poissons Ratio (z) = 0.19079 0.06652
#
# Static dielectric constant tensor:
#      x y z
#    x 3.489620 0.000000 0.000000 
#    y 0.000000 3.309270 0.000000 
#    z 0.000000 0.000000 4.225870 
# 
# 
# High freq. dielectric constant tensor:
#      x y z
#    x 1.730950 0.000000 0.000000 
#    y 0.000000 1.737670 0.000000 
#    z 0.000000 0.000000 1.777470 
# 
# From -- ./inp_files/33279.got.cif
#   From: 2010.03.12/outbox.cif.g09.slc.cpg/sg64_17_cif.got.tgz:33279.got - 2010.04.10 20:19:32.
