data_PCOD8262218
_publ_section_title
;
Structure prediction by ZEFSAII (Michael W. Deem and Ramdas Pophale) SiO2 
 PCOD8262218
Probable space group: C M C A
;
_chemical_formula_sum "Si O2"
_cell_formula_units_Z 96
_cell_length_a 8.984674
_cell_length_b 30.002690
_cell_length_c 19.435627
_cell_angle_alpha 90.000000
_cell_angle_beta 90.000000
_cell_angle_gamma 90.000000
_cell_volume 5239.152913
_symmetry_space_group_name_H-M "C M C A"
_symmetry_group_IT_number 64
_symmetry_cell_setting 'orthorhombic'
loop_
_space_group_symop_operation_xyz
x,y,z
-x,1/2-y,1/2+z
x,-y,-z
-x,1/2+y,1/2-z
-x,-y,-z
x,1/2+y,1/2-z
-x,y,z
x,1/2-y,1/2+z
1/2+x,1/2+y,z
1/2-x,-y,1/2+z
1/2+x,1/2-y,-z
1/2-x,y,1/2-z
1/2-x,1/2-y,-z
1/2+x,y,1/2-z
1/2-x,1/2+y,z
1/2+x,-y,1/2+z
loop_
_atom_site_type_symbol
_atom_site_label
_atom_site_fract_x
_atom_site_fract_y
_atom_site_fract_z
Si Si1 0.676104 0.480649 0.070859
Si Si2 0.823959 0.862749 0.912697
Si Si3 0.823373 0.445683 0.676174
Si Si4 0.676751 0.120402 0.566147
Si Si5 0.174271 0.783212 0.820060
Si Si6 0.175586 0.818349 0.321262
O O1 0.500000 0.482805 0.064111
O O2 0.729454 0.510326 0.135070
O O3 0.727086 0.429973 0.082673
O O4 0.745348 0.500000 0.000000
O O5 0.762970 0.902807 0.865439
O O6 0.771123 0.815416 0.881525
O O7 0.000000 0.866692 0.915137
O O8 0.764145 0.867021 0.990187
O O9 0.750000 0.446766 0.750000
O O10 0.000000 0.444098 0.684741
O O11 0.500000 0.126838 0.573454
O O12 0.760704 0.152179 0.618164
O O13 0.250000 0.799316 0.750000
O O14 0.218808 0.732718 0.838496
O O15 0.000000 0.788092 0.808251
O O16 0.250000 0.833463 0.250000
O O17 0.000000 0.825000 0.314794
#
# Coordination Sequence:
#
# PCOD8262218 Si02
#       6
#    16  16  16  16  16  16
#     4   9  16  31  54  76  99 135 178 211 245 300
#     4   9  17  31  53  78 103 134 172 209 252 312
#     4  10  19  32  52  78 105 133 170 213 255 303
#     4  10  19  33  56  80 102 135 175 213 255 306
#     4   9  18  33  52  74 102 137 173 212 257 306
#     4  10  21  37  54  74 103 136 173 216 260 306
#
# _framework density 18.323571999999999
#
# number of rings (size 3 to 8) (size 9 to 14) (size 15 to 20)
#    0.000    2.500    1.667    1.000    0.000    2.000 
#    0.000    4.167    0.000    1.000    0.000    0.000 
#    0.000    0.000    0.000    0.000    0.000    0.000 
#
# Total GULP energy -595170.824850 kJ/mol
# GULP energy per Si atom -12399.392184 kJ/mol
# Density = 1.828187 g / cm^3
# Si number density = 18.323572 Si / 1000 Ang^3
#
#
#
# Elastic Constant Matrix: (Units=GPa)
#
#
# Indices 1 2 3 4 5 6 
#
# 1 33.8800 34.0176 40.6396 0.0000 0.0000 0.0000
# 2 34.0176 140.8200 103.5744 0.0000 0.0000 0.0000
# 3 40.6396 103.5744 185.2086 0.0000 0.0000 0.0000
# 4 0.0000 0.0000 0.0000 39.9452 0.0000 0.0000
# 5 0.0000 0.0000 0.0000 0.0000 30.1142 0.0000
# 6 0.0000 0.0000 0.0000 0.0000 0.0000 16.8500
#
#
#
# Elastic Compliance Matrix: (Units=1/GPa)
#
#
# Indices 1 2 3 4 5 6 
#
# 1 0.042690 -0.005814 -0.006116 0.000000 0.000000 0.000000
# 2 -0.005814 0.012855 -0.005913 0.000000 0.000000 0.000000
# 3 -0.006116 -0.005913 0.010048 0.000000 0.000000 0.000000
# 4 0.000000 0.000000 0.000000 0.025034 0.000000 0.000000
# 5 0.000000 0.000000 0.000000 0.000000 0.033207 0.000000
# 6 0.000000 0.000000 0.000000 0.000000 0.000000 0.059347
#
#
# Mechanical properties :
#
#
# Convention : Reuss Voigt Hill
#
# Bulk Modulus (GPa) = 33.43747 79.59688 56.51717
# Shear Modulus (GPa) = 21.84970 29.49369 25.67170
#
# Velocity S-wave (km/s) = 3.45691 4.01634 3.74708
# Velocity P-wave (km/s) = 5.84992 8.06486 7.04498
#
# Compressibility (1/GPa) = 0.02990657
#
# Stress axis : x y z
#
# Youngs Moduli (GPa) = 23.42478 77.79117 99.52202
#
# Poissons Ratio (x) = 0.45230 0.60865
# Poissons Ratio (y) = 0.13620 0.58848
# Poissons Ratio (z) = 0.14326 0.45998
#
# Static dielectric constant tensor:
#      x y z
#    x 2.995950 0.000000 0.000000 
#    y 0.000000 3.654920 0.000000 
#    z 0.000000 0.000000 3.531570 
# 
# 
# High freq. dielectric constant tensor:
#      x y z
#    x 1.671190 0.000000 0.000000 
#    y 0.000000 1.723570 0.000000 
#    z 0.000000 0.000000 1.717920 
# 
# From -- ./inp_files/37021.got.cif
#   From: 2010.03.12/outbox.cif.g09.slc.cpg/sg64_19_cif.got.tgz:37021.got - 2010.04.10 20:19:32.
