data_PCOD8262391
_publ_section_title
;
Structure prediction by ZEFSAII (Michael W. Deem and Ramdas Pophale) SiO2 
 PCOD8262391
Probable space group: C M C A
;
_chemical_formula_sum "Si O2"
_cell_formula_units_Z 96
_cell_length_a 17.342914
_cell_length_b 16.937794
_cell_length_c 18.054729
_cell_angle_alpha 90.000000
_cell_angle_beta 90.000000
_cell_angle_gamma 90.000000
_cell_volume 5303.589367
_symmetry_space_group_name_H-M "C M C A"
_symmetry_group_IT_number 64
_symmetry_cell_setting 'orthorhombic'
loop_
_space_group_symop_operation_xyz
x,y,z
-x,1/2-y,1/2+z
x,-y,-z
-x,1/2+y,1/2-z
-x,-y,-z
x,1/2+y,1/2-z
-x,y,z
x,1/2-y,1/2+z
1/2+x,1/2+y,z
1/2-x,-y,1/2+z
1/2+x,1/2-y,-z
1/2-x,y,1/2-z
1/2-x,1/2-y,-z
1/2+x,y,1/2-z
1/2-x,1/2+y,z
1/2+x,-y,1/2+z
loop_
_atom_site_type_symbol
_atom_site_label
_atom_site_fract_x
_atom_site_fract_y
_atom_site_fract_z
Si Si1 0.800975 0.563566 0.184139
Si Si2 0.089449 0.181107 0.395529
Si Si3 0.705432 0.464492 0.073288
Si Si4 0.135195 0.087074 0.533753
Si Si5 0.087966 0.853917 0.153935
Si Si6 0.585736 0.573975 0.696164
O O1 0.750000 0.599103 0.250000
O O2 0.859917 0.629682 0.159267
O O3 0.746223 0.536127 0.117337
O O4 0.849894 0.490357 0.215188
O O5 0.106246 0.156238 0.479941
O O6 0.113974 0.271110 0.380915
O O7 0.000000 0.167953 0.376367
O O8 0.773223 0.404838 0.047161
O O9 0.641320 0.422129 0.121278
O O10 0.664937 0.500000 0.000000
O O11 0.092880 0.103094 0.611638
O O12 0.114495 0.000000 0.500000
O O13 0.097251 0.855226 0.243796
O O14 0.000000 0.872120 0.131191
O O15 0.500000 0.537980 0.706292
#
# Coordination Sequence:
#
# PCOD8262391 Si02
#       6
#    16  16  16  16  16  16
#     4  11  20  36  57  86 112 149 190 237 283 341
#     4  11  22  39  59  89 119 145 186 243 299 338
#     4  10  19  38  58  82 116 147 197 231 280 343
#     4  10  19  33  61  92 111 142 188 250 299 335
#     4  10  23  39  57  81 120 162 190 231 287 347
#     4  10  19  34  58  84 112 151 192 234 287 345
#
# _framework density 18.100947999999999
#
# number of rings (size 3 to 8) (size 9 to 14) (size 15 to 20)
#    0.000    1.667    6.667    1.000    0.000    1.667 
#    6.000    0.000    0.000    2.000    0.000    0.000 
#    0.000    0.000    0.000    0.000    0.000    0.000 
#
# Total GULP energy -595008.040604 kJ/mol
# GULP energy per Si atom -12396.000846 kJ/mol
# Density = 1.805975 g / cm^3
# Si number density = 18.100948 Si / 1000 Ang^3
#
#
#
# Elastic Constant Matrix: (Units=GPa)
#
#
# Indices 1 2 3 4 5 6 
#
# 1 71.5959 31.8342 45.1511 0.0000 0.0000 0.0000
# 2 31.8342 59.4913 46.9434 0.0000 0.0000 0.0000
# 3 45.1511 46.9434 132.5969 0.0000 0.0000 0.0000
# 4 0.0000 0.0000 0.0000 31.4479 0.0000 0.0000
# 5 0.0000 0.0000 0.0000 0.0000 31.0536 0.0000
# 6 0.0000 0.0000 0.0000 0.0000 0.0000 8.3881
#
#
#
# Elastic Compliance Matrix: (Units=1/GPa)
#
#
# Indices 1 2 3 4 5 6 
#
# 1 0.019856 -0.007341 -0.004163 0.000000 0.000000 0.000000
# 2 -0.007341 0.026039 -0.006719 0.000000 0.000000 0.000000
# 3 -0.004163 -0.006719 0.011338 0.000000 0.000000 0.000000
# 4 0.000000 0.000000 0.000000 0.031799 0.000000 0.000000
# 5 0.000000 0.000000 0.000000 0.000000 0.032202 0.000000
# 6 0.000000 0.000000 0.000000 0.000000 0.000000 0.119217
#
#
# Mechanical properties :
#
#
# Convention : Reuss Voigt Hill
#
# Bulk Modulus (GPa) = 48.10307 56.83795 52.47051
# Shear Modulus (GPa) = 17.61649 23.49495 20.55572
#
# Velocity S-wave (km/s) = 3.12306 3.60668 3.37355
# Velocity P-wave (km/s) = 6.29581 6.98662 6.65019
#
# Compressibility (1/GPa) = 0.02078870
#
# Stress axis : x y z
#
# Youngs Moduli (GPa) = 50.36199 38.40385 88.20064
#
# Poissons Ratio (x) = 0.28191 0.36714
# Poissons Ratio (y) = 0.36969 0.59262
# Poissons Ratio (z) = 0.20963 0.25804
#
# Static dielectric constant tensor:
#      x y z
#    x 3.437570 0.000000 0.000000 
#    y 0.000000 3.059490 0.000000 
#    z 0.000000 0.000000 3.574300 
# 
# 
# High freq. dielectric constant tensor:
#      x y z
#    x 1.710090 0.000000 0.000000 
#    y 0.000000 1.661610 0.000000 
#    z 0.000000 0.000000 1.716690 
# 
# From -- ./inp_files/33306.got.cif
#   From: 2010.03.12/outbox.cif.g09.slc.cpg/sg64_17_cif.got.tgz:33306.got - 2010.04.10 20:19:32.
