data_PCOD8262539
_publ_section_title
;
Structure prediction by ZEFSAII (Michael W. Deem and Ramdas Pophale) SiO2 
 PCOD8262539
Probable space group: C M C A
;
_chemical_formula_sum "Si O2"
_cell_formula_units_Z 64
_cell_length_a 14.949861
_cell_length_b 13.384309
_cell_length_c 18.254313
_cell_angle_alpha 90.000000
_cell_angle_beta 90.000000
_cell_angle_gamma 90.000000
_cell_volume 3652.570458
_symmetry_space_group_name_H-M "C M C A"
_symmetry_group_IT_number 64
_symmetry_cell_setting 'orthorhombic'
loop_
_space_group_symop_operation_xyz
x,y,z
-x,1/2-y,1/2+z
x,-y,-z
-x,1/2+y,1/2-z
-x,-y,-z
x,1/2+y,1/2-z
-x,y,z
x,1/2-y,1/2+z
1/2+x,1/2+y,z
1/2-x,-y,1/2+z
1/2+x,1/2-y,-z
1/2-x,y,1/2-z
1/2-x,1/2-y,-z
1/2+x,y,1/2-z
1/2-x,1/2+y,z
1/2+x,-y,1/2+z
loop_
_atom_site_type_symbol
_atom_site_label
_atom_site_fract_x
_atom_site_fract_y
_atom_site_fract_z
Si Si1 0.690797 0.088842 0.318188
Si Si2 0.896433 0.115651 0.838333
Si Si3 0.601064 0.713351 0.684790
Si Si4 0.755564 0.746555 0.586298
O O1 0.750000 0.053222 0.250000
O O2 0.618317 0.171429 0.290801
O O3 0.752729 0.140578 0.380963
O O4 0.640034 0.995193 0.353102
O O5 0.879913 0.142478 0.753635
O O6 0.847200 0.193442 0.891124
O O7 0.000000 0.120743 0.859492
O O8 0.500000 0.700368 0.656039
O O9 0.670744 0.684316 0.620009
O O10 0.750000 0.750000 0.500000
#
# Coordination Sequence:
#
# PCOD8262539 Si02
#       4
#    16  16  16  16
#     4  10  19  35  59  83 114 145 191 234 288 335
#     4  11  21  37  60  87 112 149 196 240 286 336
#     4   9  18  35  57  83 111 144 192 242 284 327
#     4  10  21  37  54  82 121 153 183 233 289 341
#
# _framework density 17.521906999999999
#
# number of rings (size 3 to 8) (size 9 to 14) (size 15 to 20)
#    1.500    0.500    2.500    3.000    0.000    2.000 
#    0.000    1.250    0.000    0.000    0.000    7.000 
#    0.000    0.000    0.000    0.000    0.000    0.000 
#
# Total GULP energy -396611.209224 kJ/mol
# GULP energy per Si atom -12394.100288 kJ/mol
# Density = 1.748203 g / cm^3
# Si number density = 17.521907 Si / 1000 Ang^3
#
#
#
# Elastic Constant Matrix: (Units=GPa)
#
#
# Indices 1 2 3 4 5 6 
#
# 1 122.2590 53.0459 65.1132 0.0000 0.0000 0.0000
# 2 53.0459 107.5116 33.5291 0.0000 0.0000 0.0000
# 3 65.1132 33.5291 115.0939 0.0000 0.0000 0.0000
# 4 0.0000 0.0000 0.0000 6.2832 0.0000 0.0000
# 5 0.0000 0.0000 0.0000 0.0000 17.8043 0.0000
# 6 0.0000 0.0000 0.0000 0.0000 0.0000 29.3428
#
#
#
# Elastic Compliance Matrix: (Units=1/GPa)
#
#
# Indices 1 2 3 4 5 6 
#
# 1 0.013598 -0.004741 -0.006312 0.000000 0.000000 0.000000
# 2 -0.004741 0.011884 -0.000780 0.000000 0.000000 0.000000
# 3 -0.006312 -0.000780 0.012487 0.000000 0.000000 0.000000
# 4 0.000000 0.000000 0.000000 0.159154 0.000000 0.000000
# 5 0.000000 0.000000 0.000000 0.000000 0.056166 0.000000
# 6 0.000000 0.000000 0.000000 0.000000 0.000000 0.034080
#
#
# Mechanical properties :
#
#
# Convention : Reuss Voigt Hill
#
# Bulk Modulus (GPa) = 69.91433 72.02676 70.97055
# Shear Modulus (GPa) = 15.83278 23.56449 19.69863
#
# Velocity S-wave (km/s) = 3.00925 3.67121 3.35659
# Velocity P-wave (km/s) = 7.21539 7.69196 7.45749
#
# Compressibility (1/GPa) = 0.01430322
#
# Stress axis : x y z
#
# Youngs Moduli (GPa) = 73.54134 84.14960 80.08602
#
# Poissons Ratio (x) = 0.39893 0.50548
# Poissons Ratio (y) = 0.34864 0.06246
# Poissons Ratio (z) = 0.46417 0.06563
#
# Static dielectric constant tensor:
#      x y z
#    x 3.313280 0.000000 0.000000 
#    y 0.000000 3.123650 0.000000 
#    z 0.000000 0.000000 2.897780 
# 
# 
# High freq. dielectric constant tensor:
#      x y z
#    x 1.681520 0.000000 0.000000 
#    y 0.000000 1.670480 0.000000 
#    z 0.000000 0.000000 1.650460 
# 
# From -- ./inp_files/23242.got.cif
#   From: 2010.03.12/outbox.cif.g09.slc.cpg/sg64_12_cif.got.tgz:23242.got - 2010.04.10 20:19:32.
