data_PCOD8262030
_publ_section_title
;
Structure prediction by ZEFSAII (Michael W. Deem and Ramdas Pophale) SiO2 
 PCOD8262030
Probable space group: C M C A
;
_chemical_formula_sum "Si O2"
_cell_formula_units_Z 48
_cell_length_a 17.827349
_cell_length_b 4.997153
_cell_length_c 29.979332
_cell_angle_alpha 90.000000
_cell_angle_beta 90.000000
_cell_angle_gamma 90.000000
_cell_volume 2670.738487
_symmetry_space_group_name_H-M "C M C A"
_symmetry_group_IT_number 64
_symmetry_cell_setting 'orthorhombic'
loop_
_space_group_symop_operation_xyz
x,y,z
-x,1/2-y,1/2+z
x,-y,-z
-x,1/2+y,1/2-z
-x,-y,-z
x,1/2+y,1/2-z
-x,y,z
x,1/2-y,1/2+z
1/2+x,1/2+y,z
1/2-x,-y,1/2+z
1/2+x,1/2-y,-z
1/2-x,y,1/2-z
1/2-x,1/2-y,-z
1/2+x,y,1/2-z
1/2-x,1/2+y,z
1/2+x,-y,1/2+z
loop_
_atom_site_type_symbol
_atom_site_label
_atom_site_fract_x
_atom_site_fract_y
_atom_site_fract_z
Si Si1 0.799105 0.927905 0.454255
Si Si2 0.801205 0.973284 0.641697
Si Si3 0.413653 0.968751 0.779089
O O1 0.724844 0.118167 0.455263
O O2 0.845798 0.000000 0.500000
O O3 0.840510 0.990723 0.407293
O O4 0.732111 0.177548 0.647363
O O5 0.864647 0.028526 0.677744
O O6 0.394350 0.678314 0.759833
O O7 0.500000 0.994502 0.793708
#
# Coordination Sequence:
#
# PCOD8262030 Si02
#       3
#    16  16  16
#     4   8  14  25  41  63  90 115 140 175 220 265
#     4  10  19  30  48  72  92 115 151 191 224 257
#     4  10  21  35  48  64  91 125 153 181 226 276
#
# _framework density 17.972556000000001
#
# number of rings (size 3 to 8) (size 9 to 14) (size 15 to 20)
#    0.000    2.667    0.000    2.000    0.000    4.000 
#    0.000    0.000    0.000    1.000    0.000    0.000 
#    0.000   34.667    0.000    0.000    0.000    5.333 
#
# Total GULP energy -297360.448425 kJ/mol
# GULP energy per Si atom -12390.018684 kJ/mol
# Density = 1.793165 g / cm^3
# Si number density = 17.972556 Si / 1000 Ang^3
#
#
#
# Elastic Constant Matrix: (Units=GPa)
#
#
# Indices 1 2 3 4 5 6 
#
# 1 40.4288 6.5113 57.8435 0.0000 0.0000 0.0000
# 2 6.5113 67.8262 1.2864 0.0000 0.0000 0.0000
# 3 57.8435 1.2864 158.4950 0.0000 0.0000 0.0000
# 4 0.0000 0.0000 0.0000 19.7715 0.0000 0.0000
# 5 0.0000 0.0000 0.0000 0.0000 0.1275 0.0000
# 6 0.0000 0.0000 0.0000 0.0000 0.0000 13.4674
#
#
#
# Elastic Compliance Matrix: (Units=1/GPa)
#
#
# Indices 1 2 3 4 5 6 
#
# 1 0.053247 -0.004744 -0.019394 0.000000 0.000000 0.000000
# 2 -0.004744 0.015168 0.001608 0.000000 0.000000 0.000000
# 3 -0.019394 0.001608 0.013374 0.000000 0.000000 0.000000
# 4 0.000000 0.000000 0.000000 0.050578 0.000000 0.000000
# 5 0.000000 0.000000 0.000000 0.000000 7.841284 0.000000
# 6 0.000000 0.000000 0.000000 0.000000 0.000000 0.074253
#
#
# Mechanical properties :
#
#
# Convention : Reuss Voigt Hill
#
# Bulk Modulus (GPa) = 27.22564 44.22582 35.72573
# Shear Modulus (GPa) = 0.61689 20.08053 10.34871
#
# Velocity S-wave (km/s) = 0.58650 3.34621 2.40220
# Velocity P-wave (km/s) = 3.95474 6.29209 5.25501
#
# Compressibility (1/GPa) = 0.03673008
#
# Stress axis : x y z
#
# Youngs Moduli (GPa) = 18.78026 65.92620 74.76990
#
# Poissons Ratio (x) = 0.31275 1.45012
# Poissons Ratio (y) = 0.08909 -0.12024
# Poissons Ratio (z) = 0.36423 -0.10602
#
# Static dielectric constant tensor:
#      x y z
#    x 2.661710 0.000000 0.000000 
#    y 0.000000 3.504830 0.000000 
#    z 0.000000 0.000000 3.819560 
# 
# 
# High freq. dielectric constant tensor:
#      x y z
#    x 1.609640 0.000000 0.000000 
#    y 0.000000 1.723240 0.000000 
#    z 0.000000 0.000000 1.725390 
# 
# From -- ./inp_files/651.got.cif
#   From: 2010.03.12/outbox.cif.g09.slc.cpg/sg64_1_cif.got.tgz:651.got - 2010.04.10 20:19:32.
