data_PCOD8262255
_publ_section_title
;
Structure prediction by ZEFSAII (Michael W. Deem and Ramdas Pophale) SiO2 
 PCOD8262255
Probable space group: C M C A
;
_chemical_formula_sum "Si O2"
_cell_formula_units_Z 48
_cell_length_a 13.788148
_cell_length_b 17.167878
_cell_length_c 9.401606
_cell_angle_alpha 90.000000
_cell_angle_beta 90.000000
_cell_angle_gamma 90.000000
_cell_volume 2225.484643
_symmetry_space_group_name_H-M "C M C A"
_symmetry_group_IT_number 64
_symmetry_cell_setting 'orthorhombic'
loop_
_space_group_symop_operation_xyz
x,y,z
-x,1/2-y,1/2+z
x,-y,-z
-x,1/2+y,1/2-z
-x,-y,-z
x,1/2+y,1/2-z
-x,y,z
x,1/2-y,1/2+z
1/2+x,1/2+y,z
1/2-x,-y,1/2+z
1/2+x,1/2-y,-z
1/2-x,y,1/2-z
1/2-x,1/2-y,-z
1/2+x,y,1/2-z
1/2-x,1/2+y,z
1/2+x,-y,1/2+z
loop_
_atom_site_type_symbol
_atom_site_label
_atom_site_fract_x
_atom_site_fract_y
_atom_site_fract_z
Si Si1 0.229041 0.660955 0.029254
Si Si2 0.613211 0.597702 0.211135
Si Si3 0.106617 0.553499 0.861893
O O1 0.331333 0.620034 0.066583
O O2 0.153467 0.650377 0.159016
O O3 0.250000 0.750000 0.000000
O O4 0.184887 0.622146 0.885514
O O5 0.500000 0.615292 0.193804
O O6 0.634516 0.505478 0.234348
O O7 0.000000 0.590581 0.834278
O O8 0.101723 0.500000 0.000000
#
# Coordination Sequence:
#
# PCOD8262255 Si02
#       3
#    16  16  16
#     4  10  19  32  55  85 113 141 179 229 283 326
#     4   9  19  36  56  79 109 145 185 225 269 329
#     4   8  15  32  57  78 102 142 183 221 268 322
#
# _framework density 21.568335999999999
#
# number of rings (size 3 to 8) (size 9 to 14) (size 15 to 20)
#    0.000    3.000    0.000    3.000    0.000    2.667 
#    0.000   20.000    0.000   27.000    0.000    0.000 
#    0.000    0.000    0.000    0.000    0.000    0.000 
#
# Total GULP energy -297448.571742 kJ/mol
# GULP energy per Si atom -12393.690489 kJ/mol
# Density = 2.151925 g / cm^3
# Si number density = 21.568336 Si / 1000 Ang^3
#
#
#
# Elastic Constant Matrix: (Units=GPa)
#
#
# Indices 1 2 3 4 5 6 
#
# 1 191.7004 99.4239 47.8034 0.0000 0.0000 0.0000
# 2 99.4239 175.6574 50.5553 0.0000 0.0000 0.0000
# 3 47.8034 50.5553 36.5987 0.0000 0.0000 0.0000
# 4 0.0000 0.0000 0.0000 31.2679 0.0000 0.0000
# 5 0.0000 0.0000 0.0000 0.0000 21.6340 0.0000
# 6 0.0000 0.0000 0.0000 0.0000 0.0000 21.3694
#
#
#
# Elastic Compliance Matrix: (Units=1/GPa)
#
#
# Indices 1 2 3 4 5 6 
#
# 1 0.008423 -0.002658 -0.007330 0.000000 0.000000 0.000000
# 2 -0.002658 0.010288 -0.010740 0.000000 0.000000 0.000000
# 3 -0.007330 -0.010740 0.051734 0.000000 0.000000 0.000000
# 4 0.000000 0.000000 0.000000 0.031982 0.000000 0.000000
# 5 0.000000 0.000000 0.000000 0.000000 0.046223 0.000000
# 6 0.000000 0.000000 0.000000 0.000000 0.000000 0.046796
#
#
# Mechanical properties :
#
#
# Convention : Reuss Voigt Hill
#
# Bulk Modulus (GPa) = 34.49657 88.83574 61.66616
# Shear Modulus (GPa) = 20.27861 28.59919 24.43890
#
# Velocity S-wave (km/s) = 3.06960 3.64535 3.36979
# Velocity P-wave (km/s) = 5.34715 7.68086 6.61769
#
# Compressibility (1/GPa) = 0.02898839
#
# Stress axis : x y z
#
# Youngs Moduli (GPa) = 118.72593 97.19764 19.32972
#
# Poissons Ratio (x) = 0.25832 0.14169
# Poissons Ratio (y) = 0.31554 0.20761
# Poissons Ratio (z) = 0.87029 1.04394
#
# Static dielectric constant tensor:
#      x y z
#    x 4.174480 0.000000 0.000000 
#    y 0.000000 3.830000 0.000000 
#    z 0.000000 0.000000 3.772580 
# 
# 
# High freq. dielectric constant tensor:
#      x y z
#    x 1.862500 0.000000 0.000000 
#    y 0.000000 1.823210 0.000000 
#    z 0.000000 0.000000 1.812340 
# 
# From -- ./inp_files/5014.got.cif
#   From: 2010.03.12/outbox.cif.g09.slc.cpg/sg64_3_cif.got.tgz:5014.got - 2010.04.10 20:19:32.
