data_PCOD8262326
_publ_section_title
;
Structure prediction by ZEFSAII (Michael W. Deem and Ramdas Pophale) SiO2 
 PCOD8262326
Probable space group: C M C A
;
_chemical_formula_sum "Si O2"
_cell_formula_units_Z 80
_cell_length_a 8.625276
_cell_length_b 27.320248
_cell_length_c 18.196386
_cell_angle_alpha 90.000000
_cell_angle_beta 90.000000
_cell_angle_gamma 90.000000
_cell_volume 4287.881545
_symmetry_space_group_name_H-M "C M C A"
_symmetry_group_IT_number 64
_symmetry_cell_setting 'orthorhombic'
loop_
_space_group_symop_operation_xyz
x,y,z
-x,1/2-y,1/2+z
x,-y,-z
-x,1/2+y,1/2-z
-x,-y,-z
x,1/2+y,1/2-z
-x,y,z
x,1/2-y,1/2+z
1/2+x,1/2+y,z
1/2-x,-y,1/2+z
1/2+x,1/2-y,-z
1/2-x,y,1/2-z
1/2-x,1/2-y,-z
1/2+x,y,1/2-z
1/2-x,1/2+y,z
1/2+x,-y,1/2+z
loop_
_atom_site_type_symbol
_atom_site_label
_atom_site_fract_x
_atom_site_fract_y
_atom_site_fract_z
Si Si1 0.680694 0.446003 0.472303
Si Si2 0.182888 0.146855 0.043251
Si Si3 0.683691 0.408757 0.172401
Si Si4 0.683093 0.706626 0.329650
Si Si5 0.316948 0.192431 0.606534
O O1 0.716521 0.500000 0.500000
O O2 0.500000 0.433010 0.475287
O O3 0.772743 0.408736 0.524710
O O4 0.741523 0.443213 0.389107
O O5 0.268858 0.162479 0.117344
O O6 0.000000 0.150395 0.054907
O O7 0.240260 0.182204 0.976707
O O8 0.500000 0.414718 0.169804
O O9 0.750000 0.426216 0.250000
O O10 0.735253 0.352579 0.158083
O O11 0.500000 0.709849 0.323902
O O12 0.750000 0.695624 0.250000
O O13 0.755045 0.757432 0.361650
O O14 0.500000 0.196445 0.605874
#
# Coordination Sequence:
#
# PCOD8262326 Si02
#       5
#    16  16  16  16  16
#     4  10  21  38  59  81 105 136 176 220 268 321
#     4  10  20  36  56  79 106 137 176 219 265 316
#     4  10  19  33  54  82 113 141 174 217 266 315
#     4  11  21  34  51  75 109 146 182 217 257 305
#     4   8  17  32  52  78 107 140 176 214 257 310
#
# _framework density 18.657230999999999
#
# number of rings (size 3 to 8) (size 9 to 14) (size 15 to 20)
#    0.000    2.200    0.000    4.800    0.000    1.600 
#    0.000   11.000    0.000    4.800    0.000    0.000 
#    0.000    0.000    0.000    0.000    0.000    0.000 
#
# Total GULP energy -496078.234741 kJ/mol
# GULP energy per Si atom -12401.955869 kJ/mol
# Density = 1.861477 g / cm^3
# Si number density = 18.657231 Si / 1000 Ang^3
#
#
#
# Elastic Constant Matrix: (Units=GPa)
#
#
# Indices 1 2 3 4 5 6 
#
# 1 53.3126 25.5740 34.4211 0.0000 0.0000 0.0000
# 2 25.5740 85.2664 64.9681 0.0000 0.0000 0.0000
# 3 34.4211 64.9681 154.2846 0.0000 0.0000 0.0000
# 4 0.0000 0.0000 0.0000 29.0296 0.0000 0.0000
# 5 0.0000 0.0000 0.0000 0.0000 29.9125 0.0000
# 6 0.0000 0.0000 0.0000 0.0000 0.0000 26.0234
#
#
#
# Elastic Compliance Matrix: (Units=1/GPa)
#
#
# Indices 1 2 3 4 5 6 
#
# 1 0.022981 -0.004397 -0.003276 0.000000 0.000000 0.000000
# 2 -0.004397 0.018110 -0.006645 0.000000 0.000000 0.000000
# 3 -0.003276 -0.006645 0.010010 0.000000 0.000000 0.000000
# 4 0.000000 0.000000 0.000000 0.034448 0.000000 0.000000
# 5 0.000000 0.000000 0.000000 0.000000 0.033431 0.000000
# 6 0.000000 0.000000 0.000000 0.000000 0.000000 0.038427
#
#
# Mechanical properties :
#
#
# Convention : Reuss Voigt Hill
#
# Bulk Modulus (GPa) = 44.51060 60.31002 52.41031
# Shear Modulus (GPa) = 25.83565 28.18646 27.01106
#
# Velocity S-wave (km/s) = 3.72526 3.89106 3.80906
# Velocity P-wave (km/s) = 6.51247 7.25138 6.89184
#
# Compressibility (1/GPa) = 0.02246656
#
# Stress axis : x y z
#
# Youngs Moduli (GPa) = 43.51342 55.21874 99.89549
#
# Poissons Ratio (x) = 0.24280 0.32722
# Poissons Ratio (y) = 0.19133 0.66380
# Poissons Ratio (z) = 0.14253 0.36692
#
# Static dielectric constant tensor:
#      x y z
#    x 3.329140 0.000000 0.000000 
#    y 0.000000 3.368650 0.000000 
#    z 0.000000 0.000000 3.307960 
# 
# 
# High freq. dielectric constant tensor:
#      x y z
#    x 1.722470 0.000000 0.000000 
#    y 0.000000 1.709390 0.000000 
#    z 0.000000 0.000000 1.729360 
# 
# From -- ./inp_files/29800.got.cif
#   From: 2010.03.12/outbox.cif.g09.slc.cpg/sg64_15_cif.got.tgz:29800.got - 2010.04.10 20:19:32.
