data_PCOD8262685
_publ_section_title
;
Structure prediction by ZEFSAII (Michael W. Deem and Ramdas Pophale) SiO2 
 PCOD8262685
Probable space group: C M C A
;
_chemical_formula_sum "Si O2"
_cell_formula_units_Z 80
_cell_length_a 8.536080
_cell_length_b 24.626450
_cell_length_c 18.804169
_cell_angle_alpha 90.000000
_cell_angle_beta 90.000000
_cell_angle_gamma 90.000000
_cell_volume 3952.887309
_symmetry_space_group_name_H-M "C M C A"
_symmetry_group_IT_number 64
_symmetry_cell_setting 'orthorhombic'
loop_
_space_group_symop_operation_xyz
x,y,z
-x,1/2-y,1/2+z
x,-y,-z
-x,1/2+y,1/2-z
-x,-y,-z
x,1/2+y,1/2-z
-x,y,z
x,1/2-y,1/2+z
1/2+x,1/2+y,z
1/2-x,-y,1/2+z
1/2+x,1/2-y,-z
1/2-x,y,1/2-z
1/2-x,1/2-y,-z
1/2+x,y,1/2-z
1/2-x,1/2+y,z
1/2+x,-y,1/2+z
loop_
_atom_site_type_symbol
_atom_site_label
_atom_site_fract_x
_atom_site_fract_y
_atom_site_fract_z
Si Si1 0.316032 0.028770 0.574020
Si Si2 0.315749 0.836731 0.602542
Si Si3 0.186050 0.651023 0.555874
Si Si4 0.183740 0.057986 0.328511
Si Si5 0.815679 0.733458 0.673632
O O1 0.500000 0.025555 0.591224
O O2 0.253277 0.090384 0.571199
O O3 0.276680 0.000000 0.500000
O O4 0.219934 0.000199 0.636850
O O5 0.500000 0.827805 0.609711
O O6 0.256772 0.828575 0.521514
O O7 0.273291 0.897228 0.625393
O O8 0.230223 0.794579 0.653992
O O9 0.254466 0.691874 0.615144
O O10 0.000000 0.650290 0.556392
O O11 0.250000 0.058827 0.250000
O O12 0.000000 0.070070 0.327694
O O13 0.750000 0.716924 0.750000
O O14 0.000000 0.728473 0.676501
#
# Coordination Sequence:
#
# PCOD8262685 Si02
#       5
#    16  16  16  16  16
#     4  10  19  39  66  90 122 162 198 244 303 363
#     4  11  21  40  65  90 118 157 202 251 308 365
#     4   9  20  38  64  91 120 158 201 244 301 365
#     4  12  25  40  60  91 125 161 204 254 305 361
#     4  11  23  40  59  87 123 160 201 248 300 359
#
# _framework density 20.23837
#
# number of rings (size 3 to 8) (size 9 to 14) (size 15 to 20)
#    0.000    1.400    2.000    4.200    0.000    1.200 
#    0.000    7.000    0.000    0.000    0.000    0.000 
#    0.000    0.000    0.000    0.000    0.000    0.000 
#
# Total GULP energy -496205.196127 kJ/mol
# GULP energy per Si atom -12405.129903 kJ/mol
# Density = 2.019231 g / cm^3
# Si number density = 20.238370 Si / 1000 Ang^3
#
#
#
# Elastic Constant Matrix: (Units=GPa)
#
#
# Indices 1 2 3 4 5 6 
#
# 1 51.6394 16.9100 39.3212 0.0000 0.0000 0.0000
# 2 16.9100 85.5812 34.6765 0.0000 0.0000 0.0000
# 3 39.3212 34.6765 148.8352 0.0000 0.0000 0.0000
# 4 0.0000 0.0000 0.0000 38.5129 0.0000 0.0000
# 5 0.0000 0.0000 0.0000 0.0000 19.9452 0.0000
# 6 0.0000 0.0000 0.0000 0.0000 0.0000 26.7668
#
#
#
# Elastic Compliance Matrix: (Units=1/GPa)
#
#
# Indices 1 2 3 4 5 6 
#
# 1 0.024706 -0.002470 -0.005952 0.000000 0.000000 0.000000
# 2 -0.002470 0.013150 -0.002411 0.000000 0.000000 0.000000
# 3 -0.005952 -0.002411 0.008853 0.000000 0.000000 0.000000
# 4 0.000000 0.000000 0.000000 0.025965 0.000000 0.000000
# 5 0.000000 0.000000 0.000000 0.000000 0.050137 0.000000
# 6 0.000000 0.000000 0.000000 0.000000 0.000000 0.037360
#
#
# Mechanical properties :
#
#
# Convention : Reuss Voigt Hill
#
# Bulk Modulus (GPa) = 39.93144 51.98569 45.95857
# Shear Modulus (GPa) = 26.29029 30.05486 28.17257
#
# Velocity S-wave (km/s) = 3.60812 3.85781 3.73505
# Velocity P-wave (km/s) = 6.09356 6.75174 6.43107
#
# Compressibility (1/GPa) = 0.02504293
#
# Stress axis : x y z
#
# Youngs Moduli (GPa) = 40.47634 76.04654 112.95646
#
# Poissons Ratio (x) = 0.18784 0.67227
# Poissons Ratio (y) = 0.09998 0.27235
# Poissons Ratio (z) = 0.24090 0.18336
#
# Static dielectric constant tensor:
#      x y z
#    x 3.437020 0.000000 0.000000 
#    y 0.000000 3.844930 0.000000 
#    z 0.000000 0.000000 3.867680 
# 
# 
# High freq. dielectric constant tensor:
#      x y z
#    x 1.773740 0.000000 0.000000 
#    y 0.000000 1.799150 0.000000 
#    z 0.000000 0.000000 1.803440 
# 
# From -- ./inp_files/29777.got.cif
#   From: 2010.03.12/outbox.cif.g09.slc.cpg/sg64_15_cif.got.tgz:29777.got - 2010.04.10 20:19:32.
