data_PCOD8262619
_publ_section_title
;
Structure prediction by ZEFSAII (Michael W. Deem and Ramdas Pophale) SiO2 
 PCOD8262619
Probable space group: C M C A
;
_chemical_formula_sum "Si O2"
_cell_formula_units_Z 80
_cell_length_a 13.730521
_cell_length_b 23.513044
_cell_length_c 12.788766
_cell_angle_alpha 90.000000
_cell_angle_beta 90.000000
_cell_angle_gamma 90.000000
_cell_volume 4128.806353
_symmetry_space_group_name_H-M "C M C A"
_symmetry_group_IT_number 64
_symmetry_cell_setting 'orthorhombic'
loop_
_space_group_symop_operation_xyz
x,y,z
-x,1/2-y,1/2+z
x,-y,-z
-x,1/2+y,1/2-z
-x,-y,-z
x,1/2+y,1/2-z
-x,y,z
x,1/2-y,1/2+z
1/2+x,1/2+y,z
1/2-x,-y,1/2+z
1/2+x,1/2-y,-z
1/2-x,y,1/2-z
1/2-x,1/2-y,-z
1/2+x,y,1/2-z
1/2-x,1/2+y,z
1/2+x,-y,1/2+z
loop_
_atom_site_type_symbol
_atom_site_label
_atom_site_fract_x
_atom_site_fract_y
_atom_site_fract_z
Si Si1 0.155839 0.453148 0.136596
Si Si2 0.000000 0.789981 0.431896
Si Si3 0.646379 0.827778 0.232121
Si Si4 0.000000 0.922278 0.945747
Si Si5 0.175792 0.000000 0.000000
Si Si6 0.500000 0.913415 0.986135
Si Si7 0.500000 0.183897 0.582434
Si Si8 0.500000 0.032248 0.223015
O O1 0.164349 0.392594 0.194408
O O2 0.258135 0.481901 0.101145
O O3 0.097005 0.493350 0.217215
O O4 0.094638 0.444838 0.031189
O O5 0.906508 0.789381 0.355443
O O6 0.000000 0.847640 0.494644
O O7 0.000000 0.743896 0.523193
O O8 0.750000 0.798228 0.250000
O O9 0.592682 0.825896 0.343518
O O10 0.000000 0.927927 0.822500
O O11 0.897689 0.947912 0.984202
O O12 0.000000 0.858206 0.984519
O O13 0.500000 0.919897 0.863893
#
# Coordination Sequence:
#
# PCOD8262619 Si02
#       8
#    16   8  16   8   8   8   8   8
#     4  10  19  36  62  88 118 155 203 247 296 363
#     4   9  22  40  68  87 116 161 208 253 312 336
#     4  10  22  38  67  93 113 160 212 245 296 374
#     4  11  28  34  51  89 129 161 195 238 312 362
#     4  11  22  39  56  84 126 163 192 249 298 356
#     4   9  17  38  60  91 110 150 211 255 289 359
#     4  11  23  46  59  86 130 162 194 264 306 352
#     4  11  20  34  56  88 123 158 195 241 305 365
#
# _framework density 19.376059999999999
#
# number of rings (size 3 to 8) (size 9 to 14) (size 15 to 20)
#    0.000    1.800    2.000    3.600    8.400    2.400 
#    0.000    0.000    4.400    0.000    0.000    0.000 
#    0.000    0.000    0.000    0.000    0.000    0.000 
#
# Total GULP energy -495611.415048 kJ/mol
# GULP energy per Si atom -12390.285376 kJ/mol
# Density = 1.933196 g / cm^3
# Si number density = 19.376060 Si / 1000 Ang^3
#
#
#
# Elastic Constant Matrix: (Units=GPa)
#
#
# Indices 1 2 3 4 5 6 
#
# 1 157.1771 33.4047 49.8249 0.0000 0.0000 0.0000
# 2 33.4047 73.3630 38.1334 0.0000 0.0000 0.0000
# 3 49.8249 38.1334 113.9746 0.0000 0.0000 0.0000
# 4 0.0000 0.0000 0.0000 40.9127 0.0000 0.0000
# 5 0.0000 0.0000 0.0000 0.0000 32.8272 0.0000
# 6 0.0000 0.0000 0.0000 0.0000 0.0000 2.4737
#
#
#
# Elastic Compliance Matrix: (Units=1/GPa)
#
#
# Indices 1 2 3 4 5 6 
#
# 1 0.007647 -0.002111 -0.002636 0.000000 0.000000 0.000000
# 2 -0.002111 0.017083 -0.004793 0.000000 0.000000 0.000000
# 3 -0.002636 -0.004793 0.011530 0.000000 0.000000 0.000000
# 4 0.000000 0.000000 0.000000 0.024442 0.000000 0.000000
# 5 0.000000 0.000000 0.000000 0.000000 0.030463 0.000000
# 6 0.000000 0.000000 0.000000 0.000000 0.000000 0.404260
#
#
# Mechanical properties :
#
#
# Convention : Reuss Voigt Hill
#
# Bulk Modulus (GPa) = 58.21046 65.24895 61.72971
# Shear Modulus (GPa) = 9.61109 30.11949 19.86529
#
# Velocity S-wave (km/s) = 2.22959 3.94695 3.20543
# Velocity P-wave (km/s) = 6.06100 7.38372 6.75482
#
# Compressibility (1/GPa) = 0.01717904
#
# Stress axis : x y z
#
# Youngs Moduli (GPa) = 130.77497 58.53607 86.73073
#
# Poissons Ratio (x) = 0.12360 0.22866
# Poissons Ratio (y) = 0.27612 0.41568
# Poissons Ratio (z) = 0.34477 0.28055
#
# Static dielectric constant tensor:
#      x y z
#    x 4.001640 0.000000 0.000000 
#    y 0.000000 3.263430 0.000000 
#    z 0.000000 0.000000 3.541240 
# 
# 
# High freq. dielectric constant tensor:
#      x y z
#    x 1.768120 0.000000 0.000000 
#    y 0.000000 1.729390 0.000000 
#    z 0.000000 0.000000 1.762210 
# 
# From -- ./inp_files/14557.got.cif
#   From: 2010.03.12/outbox.cif.g09.slc.cpg/sg64_8_cif.got.tgz:14557.got - 2010.04.10 20:19:32.
