data_PCOD8262358
_publ_section_title
;
Structure prediction by ZEFSAII (Michael W. Deem and Ramdas Pophale) SiO2 
 PCOD8262358
Probable space group: C M C A
;
_chemical_formula_sum "Si O2"
_cell_formula_units_Z 80
_cell_length_a 14.243298
_cell_length_b 23.837038
_cell_length_c 11.657635
_cell_angle_alpha 90.000000
_cell_angle_beta 90.000000
_cell_angle_gamma 90.000000
_cell_volume 3957.977336
_symmetry_space_group_name_H-M "C M C A"
_symmetry_group_IT_number 64
_symmetry_cell_setting 'orthorhombic'
loop_
_space_group_symop_operation_xyz
x,y,z
-x,1/2-y,1/2+z
x,-y,-z
-x,1/2+y,1/2-z
-x,-y,-z
x,1/2+y,1/2-z
-x,y,z
x,1/2-y,1/2+z
1/2+x,1/2+y,z
1/2-x,-y,1/2+z
1/2+x,1/2-y,-z
1/2-x,y,1/2-z
1/2-x,1/2-y,-z
1/2+x,y,1/2-z
1/2-x,1/2+y,z
1/2+x,-y,1/2+z
loop_
_atom_site_type_symbol
_atom_site_label
_atom_site_fract_x
_atom_site_fract_y
_atom_site_fract_z
Si Si1 0.273592 0.307705 0.377053
Si Si2 0.602146 0.486835 0.666382
Si Si3 0.826691 0.903879 0.842464
Si Si4 0.108624 0.293851 0.552023
Si Si5 0.182455 0.421680 0.025926
O O1 0.250000 0.327045 0.250000
O O2 0.173444 0.297229 0.438786
O O3 0.343361 0.254804 0.372274
O O4 0.331874 0.357603 0.437111
O O5 0.500000 0.514914 0.671967
O O6 0.619848 0.456915 0.787957
O O7 0.602840 0.439640 0.565762
O O8 0.677287 0.535938 0.635415
O O9 0.750000 0.882435 0.750000
O O10 0.892111 0.851069 0.873434
O O11 0.781879 0.927219 0.960261
O O12 0.000000 0.280021 0.520214
#
# Coordination Sequence:
#
# PCOD8262358 Si02
#       5
#    16  16  16  16  16
#     4  10  22  39  58  82 115 151 186 230 283 337
#     4  10  19  33  56  84 111 143 190 235 274 329
#     4   9  18  34  55  80 112 150 185 224 279 332
#     4  10  21  38  59  84 113 146 189 234 278 334
#     4   9  19  33  52  79 111 145 182 225 276 327
#
# _framework density 20.212344000000002
#
# number of rings (size 3 to 8) (size 9 to 14) (size 15 to 20)
#    0.000    2.400    0.000    2.400    0.000    8.000 
#    0.000    0.000    0.000    0.000    0.000   57.400 
#    0.000    0.000    0.000    0.000    0.000    0.000 
#
# Total GULP energy -495608.452681 kJ/mol
# GULP energy per Si atom -12390.211317 kJ/mol
# Density = 2.016634 g / cm^3
# Si number density = 20.212344 Si / 1000 Ang^3
#
#
#
# Elastic Constant Matrix: (Units=GPa)
#
#
# Indices 1 2 3 4 5 6 
#
# 1 114.2562 50.8190 28.1683 0.0000 0.0000 0.0000
# 2 50.8190 119.8967 46.7664 0.0000 0.0000 0.0000
# 3 28.1683 46.7664 76.1496 0.0000 0.0000 0.0000
# 4 0.0000 0.0000 0.0000 33.3408 0.0000 0.0000
# 5 0.0000 0.0000 0.0000 0.0000 10.8492 0.0000
# 6 0.0000 0.0000 0.0000 0.0000 0.0000 16.8608
#
#
#
# Elastic Compliance Matrix: (Units=1/GPa)
#
#
# Indices 1 2 3 4 5 6 
#
# 1 0.010927 -0.004017 -0.001575 0.000000 0.000000 0.000000
# 2 -0.004017 0.012445 -0.006157 0.000000 0.000000 0.000000
# 3 -0.001575 -0.006157 0.017496 0.000000 0.000000 0.000000
# 4 0.000000 0.000000 0.000000 0.029993 0.000000 0.000000
# 5 0.000000 0.000000 0.000000 0.000000 0.092173 0.000000
# 6 0.000000 0.000000 0.000000 0.000000 0.000000 0.059309
#
#
# Mechanical properties :
#
#
# Convention : Reuss Voigt Hill
#
# Bulk Modulus (GPa) = 57.57111 62.42333 59.99722
# Shear Modulus (GPa) = 19.87035 24.51341 22.19188
#
# Velocity S-wave (km/s) = 3.13881 3.48630 3.31711
# Velocity P-wave (km/s) = 6.45610 6.86706 6.66475
#
# Compressibility (1/GPa) = 0.01736982
#
# Stress axis : x y z
#
# Youngs Moduli (GPa) = 91.51341 80.35511 57.15684
#
# Poissons Ratio (x) = 0.32281 0.09002
# Poissons Ratio (y) = 0.36764 0.35190
# Poissons Ratio (z) = 0.14413 0.49473
#
# Static dielectric constant tensor:
#      x y z
#    x 3.447350 0.000000 0.000000 
#    y 0.000000 3.747440 0.000000 
#    z 0.000000 0.000000 3.604100 
# 
# 
# High freq. dielectric constant tensor:
#      x y z
#    x 1.767770 0.000000 0.000000 
#    y 0.000000 1.790960 0.000000 
#    z 0.000000 0.000000 1.781890 
# 
# From -- ./inp_files/14478.got.cif
#   From: 2010.03.12/outbox.cif.g09.slc.cpg/sg64_8_cif.got.tgz:14478.got - 2010.04.10 20:19:32.
