data_PCOD8262234
_publ_section_title
;
Structure prediction by ZEFSAII (Michael W. Deem and Ramdas Pophale) SiO2 
 PCOD8262234
Probable space group: C M C A
;
_chemical_formula_sum "Si O2"
_cell_formula_units_Z 112
_cell_length_a 14.920278
_cell_length_b 14.542057
_cell_length_c 27.848368
_cell_angle_alpha 90.000000
_cell_angle_beta 90.000000
_cell_angle_gamma 90.000000
_cell_volume 6042.303100
_symmetry_space_group_name_H-M "C M C A"
_symmetry_group_IT_number 64
_symmetry_cell_setting 'orthorhombic'
loop_
_space_group_symop_operation_xyz
x,y,z
-x,1/2-y,1/2+z
x,-y,-z
-x,1/2+y,1/2-z
-x,-y,-z
x,1/2+y,1/2-z
-x,y,z
x,1/2-y,1/2+z
1/2+x,1/2+y,z
1/2-x,-y,1/2+z
1/2+x,1/2-y,-z
1/2-x,y,1/2-z
1/2-x,1/2-y,-z
1/2+x,y,1/2-z
1/2-x,1/2+y,z
1/2+x,-y,1/2+z
loop_
_atom_site_type_symbol
_atom_site_label
_atom_site_fract_x
_atom_site_fract_y
_atom_site_fract_z
Si Si1 0.296416 0.282157 0.451173
Si Si2 0.261371 0.616734 0.402323
Si Si3 0.896965 0.444102 0.196422
Si Si4 0.904404 0.603410 0.015187
Si Si5 0.600428 0.851299 0.821461
Si Si6 0.236728 0.083240 0.873001
Si Si7 0.897211 0.152925 0.792845
O O1 0.250000 0.250000 0.500000
O O2 0.313828 0.192690 0.417132
O O3 0.386060 0.334385 0.467652
O O4 0.235356 0.353146 0.420266
O O5 0.325618 0.606791 0.447342
O O6 0.322456 0.658116 0.360577
O O7 0.214117 0.521366 0.388677
O O8 0.887243 0.553197 0.207328
O O9 0.835198 0.414212 0.151664
O O10 0.862300 0.391518 0.243531
O O11 0.000000 0.418243 0.183926
O O12 0.000000 0.636836 0.036786
O O13 0.914288 0.500000 0.000000
O O14 0.500000 0.849656 0.844561
O O15 0.612009 0.763349 0.786719
O O16 0.159897 0.115335 0.837045
O O17 0.000000 0.124020 0.802258
#
# Coordination Sequence:
#
# PCOD8262234 Si02
#       7
#    16  16  16  16  16  16  16
#     4  10  21  35  52  79 110 141 179 222 273 326
#     4  10  19  34  54  78 105 140 180 219 269 325
#     4   9  20  36  56  81 109 139 180 231 280 324
#     4  10  19  32  53  80 107 137 173 226 279 321
#     4   9  17  32  56  79 102 136 180 225 267 318
#     4  11  20  36  56  81 110 144 183 225 277 330
#     4  10  20  37  56  80 110 145 184 224 269 329
#
# _framework density 18.535978
#
# number of rings (size 3 to 8) (size 9 to 14) (size 15 to 20)
#    0.000    2.143    2.857    0.857    0.000    1.143 
#    2.571    2.143    0.000    0.000    0.000    4.000 
#    0.000    0.000    0.000    0.000    0.000    0.000 
#
# Total GULP energy -693912.846972 kJ/mol
# GULP energy per Si atom -12391.300839 kJ/mol
# Density = 1.849379 g / cm^3
# Si number density = 18.535978 Si / 1000 Ang^3
#
#
#
# Elastic Constant Matrix: (Units=GPa)
#
#
# Indices 1 2 3 4 5 6 
#
# 1 50.7505 30.3767 22.5208 0.0000 0.0000 0.0000
# 2 30.3767 125.5005 52.2495 0.0000 0.0000 0.0000
# 3 22.5208 52.2495 84.2839 0.0000 0.0000 0.0000
# 4 0.0000 0.0000 0.0000 39.6625 0.0000 0.0000
# 5 0.0000 0.0000 0.0000 0.0000 30.4559 0.0000
# 6 0.0000 0.0000 0.0000 0.0000 0.0000 13.0216
#
#
#
# Elastic Compliance Matrix: (Units=1/GPa)
#
#
# Indices 1 2 3 4 5 6 
#
# 1 0.023901 -0.004214 -0.003774 0.000000 0.000000 0.000000
# 2 -0.004214 0.011483 -0.005993 0.000000 0.000000 0.000000
# 3 -0.003774 -0.005993 0.016588 0.000000 0.000000 0.000000
# 4 0.000000 0.000000 0.000000 0.025213 0.000000 0.000000
# 5 0.000000 0.000000 0.000000 0.000000 0.032834 0.000000
# 6 0.000000 0.000000 0.000000 0.000000 0.000000 0.076795
#
#
# Mechanical properties :
#
#
# Convention : Reuss Voigt Hill
#
# Bulk Modulus (GPa) = 41.64759 52.31433 46.98096
# Shear Modulus (GPa) = 22.44373 26.98721 24.71547
#
# Velocity S-wave (km/s) = 3.48346 3.81981 3.65551
# Velocity P-wave (km/s) = 6.22066 6.90934 6.57403
#
# Compressibility (1/GPa) = 0.02401100
#
# Stress axis : x y z
#
# Youngs Moduli (GPa) = 41.83884 87.08592 60.28435
#
# Poissons Ratio (x) = 0.36697 0.22752
# Poissons Ratio (y) = 0.17630 0.36126
# Poissons Ratio (z) = 0.15791 0.52187
#
# Static dielectric constant tensor:
#      x y z
#    x -13.899940 0.000000 0.000000 
#    y 0.000000 2.681550 0.000000 
#    z 0.000000 0.000000 3.428070 
# 
# 
# High freq. dielectric constant tensor:
#      x y z
#    x 1.696930 0.000000 0.000000 
#    y 0.000000 1.735700 0.000000 
#    z 0.000000 0.000000 1.712310 
# 
# From -- ./inp_files/50043.got.cif
#   From: 2010.03.12/outbox.cif.g09.slc.cpg/sg64_26_cif.got.tgz:50043.got - 2010.04.10 20:19:32.
