data_PCOD8262016
_publ_section_title
;
Structure prediction by ZEFSAII (Michael W. Deem and Ramdas Pophale) SiO2 
 PCOD8262016
Probable space group: C M C A
;
_chemical_formula_sum "Si O2"
_cell_formula_units_Z 96
_cell_length_a 9.216724
_cell_length_b 26.886161
_cell_length_c 23.597574
_cell_angle_alpha 90.000000
_cell_angle_beta 90.000000
_cell_angle_gamma 90.000000
_cell_volume 5847.533710
_symmetry_space_group_name_H-M "C M C A"
_symmetry_group_IT_number 64
_symmetry_cell_setting 'orthorhombic'
loop_
_space_group_symop_operation_xyz
x,y,z
-x,1/2-y,1/2+z
x,-y,-z
-x,1/2+y,1/2-z
-x,-y,-z
x,1/2+y,1/2-z
-x,y,z
x,1/2-y,1/2+z
1/2+x,1/2+y,z
1/2-x,-y,1/2+z
1/2+x,1/2-y,-z
1/2-x,y,1/2-z
1/2-x,1/2-y,-z
1/2+x,y,1/2-z
1/2-x,1/2+y,z
1/2+x,-y,1/2+z
loop_
_atom_site_type_symbol
_atom_site_label
_atom_site_fract_x
_atom_site_fract_y
_atom_site_fract_z
Si Si1 0.829659 0.561476 0.806555
Si Si2 0.165916 0.421478 0.522662
Si Si3 0.833821 0.479626 0.410685
Si Si4 0.669577 0.234158 0.916714
Si Si5 0.669348 0.323954 0.305823
Si Si6 0.669633 0.821618 0.969055
O O1 0.750000 0.542799 0.750000
O O2 0.772768 0.529039 0.858561
O O3 0.790756 0.618912 0.818366
O O4 0.000000 0.552848 0.799399
O O5 0.186008 0.463716 0.569858
O O6 0.210586 0.442769 0.461452
O O7 0.269907 0.376622 0.539416
O O8 0.000000 0.402919 0.521337
O O9 0.000000 0.469748 0.392570
O O10 0.500000 0.246680 0.915561
O O11 0.722362 0.208346 0.859017
O O12 0.756430 0.285353 0.923371
O O13 0.706947 0.196633 0.967697
O O14 0.500000 0.317530 0.295155
O O15 0.750000 0.304213 0.250000
O O16 0.500000 0.822094 0.956915
#
# Coordination Sequence:
#
# PCOD8262016 Si02
#       6
#    16  16  16  16  16  16
#     4  10  19  31  48  71  98 126 156 192 233 276
#     4   9  18  32  49  69  96 127 155 188 234 282
#     4   9  18  32  49  70  95 125 159 191 229 279
#     4   9  18  32  47  66  95 126 153 187 233 277
#     4   9  18  31  47  68  94 123 154 188 228 274
#     4  10  19  30  47  71  95 121 157 194 228 274
#
# _framework density 16.417176999999999
#
# number of rings (size 3 to 8) (size 9 to 14) (size 15 to 20)
#    0.000    2.667    0.000    3.000    0.000    4.667 
#    0.000    1.667    0.000    1.000    0.000    4.667 
#    0.000    0.000    0.000    0.000    0.000    0.000 
#
# Total GULP energy -595326.407777 kJ/mol
# GULP energy per Si atom -12402.633495 kJ/mol
# Density = 1.637981 g / cm^3
# Si number density = 16.417177 Si / 1000 Ang^3
#
#
#
# Elastic Constant Matrix: (Units=GPa)
#
#
# Indices 1 2 3 4 5 6 
#
# 1 71.7918 44.3829 50.8491 0.0000 0.0000 0.0000
# 2 44.3829 84.8029 42.5870 0.0000 0.0000 0.0000
# 3 50.8491 42.5870 114.0945 0.0000 0.0000 0.0000
# 4 0.0000 0.0000 0.0000 24.9452 0.0000 0.0000
# 5 0.0000 0.0000 0.0000 0.0000 31.0127 0.0000
# 6 0.0000 0.0000 0.0000 0.0000 0.0000 29.1118
#
#
#
# Elastic Compliance Matrix: (Units=1/GPa)
#
#
# Indices 1 2 3 4 5 6 
#
# 1 0.025148 -0.009271 -0.007747 0.000000 0.000000 0.000000
# 2 -0.009271 0.017930 -0.002561 0.000000 0.000000 0.000000
# 3 -0.007747 -0.002561 0.013173 0.000000 0.000000 0.000000
# 4 0.000000 0.000000 0.000000 0.040088 0.000000 0.000000
# 5 0.000000 0.000000 0.000000 0.000000 0.032245 0.000000
# 6 0.000000 0.000000 0.000000 0.000000 0.000000 0.034350
#
#
# Mechanical properties :
#
#
# Convention : Reuss Voigt Hill
#
# Bulk Modulus (GPa) = 58.50261 60.70301 59.60281
# Shear Modulus (GPa) = 24.06270 25.87194 24.96732
#
# Velocity S-wave (km/s) = 3.83260 3.97408 3.90398
# Velocity P-wave (km/s) = 7.43623 7.62321 7.53030
#
# Compressibility (1/GPa) = 0.01709325
#
# Stress axis : x y z
#
# Youngs Moduli (GPa) = 39.76463 55.77200 75.91103
#
# Poissons Ratio (x) = 0.51706 0.58811
# Poissons Ratio (y) = 0.36866 0.19439
# Poissons Ratio (z) = 0.30807 0.14282
#
# Static dielectric constant tensor:
#      x y z
#    x 3.062660 0.000000 0.000000 
#    y 0.000000 2.960050 0.000000 
#    z 0.000000 0.000000 3.047660 
# 
# 
# High freq. dielectric constant tensor:
#      x y z
#    x 1.636670 0.000000 0.000000 
#    y 0.000000 1.619470 0.000000 
#    z 0.000000 0.000000 1.623120 
# 
# From -- ./inp_files/37098.got.cif
#   From: 2010.03.12/outbox.cif.g09.slc.cpg/sg64_19_cif.got.tgz:37098.got - 2010.04.10 20:19:32.
