data_PCOD8262306
_publ_section_title
;
Structure prediction by ZEFSAII (Michael W. Deem and Ramdas Pophale) SiO2 
 PCOD8262306
Probable space group: C M C A
;
_chemical_formula_sum "Si O2"
_cell_formula_units_Z 88
_cell_length_a 25.813515
_cell_length_b 33.653498
_cell_length_c 4.962149
_cell_angle_alpha 90.000000
_cell_angle_beta 90.000000
_cell_angle_gamma 90.000000
_cell_volume 4310.693643
_symmetry_space_group_name_H-M "C M C A"
_symmetry_group_IT_number 64
_symmetry_cell_setting 'orthorhombic'
loop_
_space_group_symop_operation_xyz
x,y,z
-x,1/2-y,1/2+z
x,-y,-z
-x,1/2+y,1/2-z
-x,-y,-z
x,1/2+y,1/2-z
-x,y,z
x,1/2-y,1/2+z
1/2+x,1/2+y,z
1/2-x,-y,1/2+z
1/2+x,1/2-y,-z
1/2-x,y,1/2-z
1/2-x,1/2-y,-z
1/2+x,y,1/2-z
1/2-x,1/2+y,z
1/2+x,-y,1/2+z
loop_
_atom_site_type_symbol
_atom_site_label
_atom_site_fract_x
_atom_site_fract_y
_atom_site_fract_z
Si Si1 0.805270 0.599542 0.637864
Si Si2 0.500000 0.725289 0.187013
Si Si3 0.941176 0.582876 0.128485
Si Si4 0.346954 0.139482 0.127547
Si Si5 0.887530 0.277658 0.756229
Si Si6 0.601007 0.456819 0.128164
O O1 0.750000 0.585085 0.750000
O O2 0.808635 0.616553 0.334508
O O3 0.841419 0.560874 0.652498
O O4 0.823260 0.635505 0.830858
O O5 0.500000 0.765771 0.367687
O O6 0.553828 0.703622 0.265465
O O7 0.904345 0.621036 0.105055
O O8 0.936382 0.567876 0.432967
O O9 0.000000 0.596188 0.073008
O O10 0.924694 0.547023 0.924329
O O11 0.348794 0.185677 0.205991
O O12 0.877422 0.256367 0.474304
O O13 0.605797 0.500000 0.000000
#
# Coordination Sequence:
#
# PCOD8262306 Si02
#       6
#    16   8  16  16  16  16
#     4  10  21  40  60  80 106 143 186 233 287 332
#     4   8  16  28  44  72 104 138 171 206 263 320
#     4  10  21  35  54  82 116 154 185 215 265 327
#     4  10  21  36  58  82 109 147 187 231 274 336
#     4  10  19  33  53  79 111 145 182 228 278 322
#     4  10  21  37  56  84 113 141 185 229 269 329
#
# _framework density 20.414349000000001
#
# number of rings (size 3 to 8) (size 9 to 14) (size 15 to 20)
#    0.000    2.182    0.000    2.727    1.273    2.182 
#    0.000    5.455    0.000   10.909    0.000    0.000 
#    0.000    0.000    0.000    0.000    0.000    0.000 
#
# Total GULP energy -545251.727750 kJ/mol
# GULP energy per Si atom -12392.084722 kJ/mol
# Density = 2.036789 g / cm^3
# Si number density = 20.414349 Si / 1000 Ang^3
#
#
#
# Elastic Constant Matrix: (Units=GPa)
#
#
# Indices 1 2 3 4 5 6 
#
# 1 90.3311 26.8083 17.0786 0.0000 0.0000 0.0000
# 2 26.8083 45.2987 -0.5433 0.0000 0.0000 0.0000
# 3 17.0786 -0.5433 75.5485 0.0000 0.0000 0.0000
# 4 0.0000 0.0000 0.0000 22.6063 0.0000 0.0000
# 5 0.0000 0.0000 0.0000 0.0000 18.0877 0.0000
# 6 0.0000 0.0000 0.0000 0.0000 0.0000 13.8834
#
#
#
# Elastic Compliance Matrix: (Units=1/GPa)
#
#
# Indices 1 2 3 4 5 6 
#
# 1 0.014193 -0.008439 -0.003269 0.000000 0.000000 0.000000
# 2 -0.008439 0.027095 0.002103 0.000000 0.000000 0.000000
# 3 -0.003269 0.002103 0.013991 0.000000 0.000000 0.000000
# 4 0.000000 0.000000 0.000000 0.044235 0.000000 0.000000
# 5 0.000000 0.000000 0.000000 0.000000 0.055286 0.000000
# 6 0.000000 0.000000 0.000000 0.000000 0.000000 0.072028
#
#
# Mechanical properties :
#
#
# Convention : Reuss Voigt Hill
#
# Bulk Modulus (GPa) = 27.72550 33.09616 30.41083
# Shear Modulus (GPa) = 19.37521 22.10448 20.73985
#
# Velocity S-wave (km/s) = 3.08409 3.29415 3.19085
# Velocity P-wave (km/s) = 5.12767 5.54220 5.33896
#
# Compressibility (1/GPa) = 0.03606788
#
# Stress axis : x y z
#
# Youngs Moduli (GPa) = 70.45772 36.90713 71.47621
#
# Poissons Ratio (x) = 0.31145 0.23367
# Poissons Ratio (y) = 0.59457 -0.15028
# Poissons Ratio (z) = 0.23034 -0.07760
#
# Static dielectric constant tensor:
#      x y z
#    x 3.646410 0.000000 0.000000 
#    y 0.000000 3.238410 0.000000 
#    z 0.000000 0.000000 3.968980 
# 
# 
# High freq. dielectric constant tensor:
#      x y z
#    x 1.785230 0.000000 0.000000 
#    y 0.000000 1.764950 0.000000 
#    z 0.000000 0.000000 1.821220 
# 
# From -- ./inp_files/2436.got.cif
#   From: 2010.03.12/outbox.cif.g09.slc.cpg/sg64_2_cif.got.tgz:2436.got - 2010.04.10 20:19:32.
