data_PCOD8262789
_publ_section_title
;
Structure prediction by ZEFSAII (Michael W. Deem and Ramdas Pophale) SiO2 
 PCOD8262789
Probable space group: C M C A
;
_chemical_formula_sum "Si O2"
_cell_formula_units_Z 120
_cell_length_a 24.298004
_cell_length_b 25.271057
_cell_length_c 9.009300
_cell_angle_alpha 90.000000
_cell_angle_beta 90.000000
_cell_angle_gamma 90.000000
_cell_volume 5532.036734
_symmetry_space_group_name_H-M "C M C A"
_symmetry_group_IT_number 64
_symmetry_cell_setting 'orthorhombic'
loop_
_space_group_symop_operation_xyz
x,y,z
-x,1/2-y,1/2+z
x,-y,-z
-x,1/2+y,1/2-z
-x,-y,-z
x,1/2+y,1/2-z
-x,y,z
x,1/2-y,1/2+z
1/2+x,1/2+y,z
1/2-x,-y,1/2+z
1/2+x,1/2-y,-z
1/2-x,y,1/2-z
1/2-x,1/2-y,-z
1/2+x,y,1/2-z
1/2-x,1/2+y,z
1/2+x,-y,1/2+z
loop_
_atom_site_type_symbol
_atom_site_label
_atom_site_fract_x
_atom_site_fract_y
_atom_site_fract_z
Si Si1 0.165479 0.680983 0.135118
Si Si2 0.222087 0.573594 0.096986
Si Si3 0.565204 0.690738 0.850007
Si Si4 0.939820 0.384349 0.850136
Si Si5 0.871007 0.742107 0.388290
Si Si6 0.694050 0.000000 0.500000
Si Si7 0.939504 0.587268 0.816257
Si Si8 0.375989 0.982632 0.788619
O O1 0.210880 0.636544 0.094753
O O2 0.106586 0.657818 0.189773
O O3 0.177156 0.714216 0.286623
O O4 0.161789 0.715920 0.988240
O O5 0.250000 0.556889 0.250000
O O6 0.265104 0.551388 0.972859
O O7 0.164574 0.541928 0.086035
O O8 0.500000 0.698867 0.867685
O O9 0.586013 0.729820 0.721533
O O10 0.579730 0.630134 0.805950
O O11 0.595773 0.701900 0.005282
O O12 0.926625 0.441618 0.777860
O O13 0.000000 0.367061 0.788697
O O14 0.942226 0.383906 0.027350
O O15 0.653964 0.011288 0.366210
O O16 0.896944 0.539853 0.835158
O O17 0.000000 0.565258 0.773255
#
# Coordination Sequence:
#
# PCOD8262789 Si02
#       8
#    16  16  16  16  16   8  16  16
#     4  10  21  38  62  86 120 158 200 253 306 359
#     4   9  21  39  62  85 113 148 193 252 307 369
#     4  10  20  33  52  81 121 162 207 252 289 347
#     4  10  20  35  57  87 120 163 202 233 290 360
#     4  10  21  36  55  85 114 160 205 251 310 356
#     4  10  22  40  59  90 113 148 200 242 312 372
#     4  10  20  34  55  88 120 157 201 238 285 357
#     4  10  21  36  59  84 119 152 186 248 298 357
#
# _framework density 21.691828999999998
#
# number of rings (size 3 to 8) (size 9 to 14) (size 15 to 20)
#    0.000    2.133    1.333    1.200    3.733    6.933 
#    0.000    3.333    0.000    0.000    0.000    0.000 
#    0.000    0.000    0.000    0.000    0.000    0.000 
#
# Total GULP energy -743485.069694 kJ/mol
# GULP energy per Si atom -12391.417828 kJ/mol
# Density = 2.164246 g / cm^3
# Si number density = 21.691829 Si / 1000 Ang^3
#
#
#
# Elastic Constant Matrix: (Units=GPa)
#
#
# Indices 1 2 3 4 5 6 
#
# 1 46.5744 16.2103 12.8325 0.0000 0.0000 0.0000
# 2 16.2103 99.3376 27.9433 0.0000 0.0000 0.0000
# 3 12.8325 27.9433 84.9046 0.0000 0.0000 0.0000
# 4 0.0000 0.0000 0.0000 32.9889 0.0000 0.0000
# 5 0.0000 0.0000 0.0000 0.0000 0.2271 0.0000
# 6 0.0000 0.0000 0.0000 0.0000 0.0000 -208.4109
#
#
#
# Elastic Compliance Matrix: (Units=1/GPa)
#
#
# Indices 1 2 3 4 5 6 
#
# 1 0.023234 -0.003090 -0.002495 0.000000 0.000000 0.000000
# 2 -0.003090 0.011505 -0.003319 0.000000 0.000000 0.000000
# 3 -0.002495 -0.003319 0.013247 0.000000 0.000000 0.000000
# 4 0.000000 0.000000 0.000000 0.030313 0.000000 0.000000
# 5 0.000000 0.000000 0.000000 0.000000 4.403238 0.000000
# 6 0.000000 0.000000 0.000000 0.000000 0.000000 -0.004798
#
#
# Mechanical properties :
#
#
# Convention : Reuss Voigt Hill
#
# Bulk Modulus (GPa) = 33.13629 38.30984 35.72307
# Shear Modulus (GPa) = 1.10998 -23.45028 -11.17015
#
# Velocity S-wave (km/s) = 0.71611 -3.29152 -2.27171
# Velocity P-wave (km/s) = 3.99911 1.80383 3.10215
#
# Compressibility (1/GPa) = 0.03017839
#
# Stress axis : x y z
#
# Youngs Moduli (GPa) = 43.04083 86.92194 75.48639
#
# Poissons Ratio (x) = 0.26856 0.18832
# Poissons Ratio (y) = 0.13298 0.25057
# Poissons Ratio (z) = 0.10737 0.28852
#
# Static dielectric constant tensor:
#      x y z
#    x 4.073490 0.000000 0.000000 
#    y 0.000000 4.073930 0.000000 
#    z 0.000000 0.000000 3.780340 
# 
# 
# High freq. dielectric constant tensor:
#      x y z
#    x 1.844960 0.000000 0.000000 
#    y 0.000000 1.855660 0.000000 
#    z 0.000000 0.000000 1.840440 
# 
# From -- ./inp_files/10712.got.cif
#   From: 2010.03.12/outbox.cif.g09.slc.cpg/sg64_6_cif.got.tgz:10712.got - 2010.04.10 20:19:32.
