data_PCOD8262171
_publ_section_title
;
Structure prediction by ZEFSAII (Michael W. Deem and Ramdas Pophale) SiO2 
 PCOD8262171
Probable space group: C M C A
;
_chemical_formula_sum "Si O2"
_cell_formula_units_Z 96
_cell_length_a 9.069428
_cell_length_b 27.599783
_cell_length_c 21.086268
_cell_angle_alpha 90.000000
_cell_angle_beta 90.000000
_cell_angle_gamma 90.000000
_cell_volume 5278.193249
_symmetry_space_group_name_H-M "C M C A"
_symmetry_group_IT_number 64
_symmetry_cell_setting 'orthorhombic'
loop_
_space_group_symop_operation_xyz
x,y,z
-x,1/2-y,1/2+z
x,-y,-z
-x,1/2+y,1/2-z
-x,-y,-z
x,1/2+y,1/2-z
-x,y,z
x,1/2-y,1/2+z
1/2+x,1/2+y,z
1/2-x,-y,1/2+z
1/2+x,1/2-y,-z
1/2-x,y,1/2-z
1/2-x,1/2-y,-z
1/2+x,y,1/2-z
1/2-x,1/2+y,z
1/2+x,-y,1/2+z
loop_
_atom_site_type_symbol
_atom_site_label
_atom_site_fract_x
_atom_site_fract_y
_atom_site_fract_z
Si Si1 0.673778 0.849855 0.811614
Si Si2 0.165243 0.609235 0.962115
Si Si3 0.676370 0.709540 0.954545
Si Si4 0.334654 0.979771 0.428758
Si Si5 0.826843 0.259551 0.313921
Si Si6 0.837315 0.568089 0.099539
O O1 0.500000 0.850351 0.803516
O O2 0.750000 0.871731 0.750000
O O3 0.728355 0.795379 0.824071
O O4 0.729106 0.883837 0.868340
O O5 0.259953 0.657484 0.973885
O O6 0.249355 0.571103 0.916704
O O7 0.000000 0.621755 0.936860
O O8 0.151927 0.579272 0.026069
O O9 0.500000 0.712026 0.964101
O O10 0.718263 0.714829 0.879916
O O11 0.750000 0.750000 0.000000
O O12 0.500000 0.970660 0.405312
O O13 0.332591 0.000000 0.500000
O O14 0.261759 0.021299 0.385231
O O15 0.750000 0.281483 0.250000
O O16 0.000000 0.263518 0.302230
O O17 0.000000 0.556760 0.126654
#
# Coordination Sequence:
#
# PCOD8262171 Si02
#       6
#    16  16  16  16  16  16
#     4   9  17  30  47  68  94 124 159 197 239 288
#     4  10  19  32  50  72  99 131 165 201 247 298
#     4  11  22  35  52  77 107 136 170 214 260 303
#     4   9  17  29  46  70  97 124 157 195 237 290
#     4   9  19  35  53  73 100 135 173 210 250 302
#     4   9  17  30  48  69  97 130 160 194 240 293
#
# _framework density 18.188040999999998
#
# number of rings (size 3 to 8) (size 9 to 14) (size 15 to 20)
#    0.000    2.500    0.000    2.500    0.000    7.333 
#    0.000    3.333    0.000    1.000    0.000    7.000 
#    0.000    0.000    0.000    0.000    0.000    0.000 
#
# Total GULP energy -594816.472415 kJ/mol
# GULP energy per Si atom -12392.009842 kJ/mol
# Density = 1.814664 g / cm^3
# Si number density = 18.188041 Si / 1000 Ang^3
#
#
#
# Elastic Constant Matrix: (Units=GPa)
#
#
# Indices 1 2 3 4 5 6 
#
# 1 92.6107 45.8810 24.5889 0.0000 0.0000 0.0000
# 2 45.8810 93.0568 8.4689 0.0000 0.0000 0.0000
# 3 24.5889 8.4689 46.6613 0.0000 0.0000 0.0000
# 4 0.0000 0.0000 0.0000 -146.2728 0.0000 0.0000
# 5 0.0000 0.0000 0.0000 0.0000 23.9773 0.0000
# 6 0.0000 0.0000 0.0000 0.0000 0.0000 14.9466
#
#
#
# Elastic Compliance Matrix: (Units=1/GPa)
#
#
# Indices 1 2 3 4 5 6 
#
# 1 0.016418 -0.007430 -0.007303 0.000000 0.000000 0.000000
# 2 -0.007430 0.014289 0.001322 0.000000 0.000000 0.000000
# 3 -0.007303 0.001322 0.025040 0.000000 0.000000 0.000000
# 4 0.000000 0.000000 0.000000 -0.006837 0.000000 0.000000
# 5 0.000000 0.000000 0.000000 0.000000 0.041706 0.000000
# 6 0.000000 0.000000 0.000000 0.000000 0.000000 0.066905
#
#
# Mechanical properties :
#
#
# Convention : Reuss Voigt Hill
#
# Bulk Modulus (GPa) = 34.57317 43.35626 38.96472
# Shear Modulus (GPa) = 25.77518 -11.24378 7.26570
#
# Velocity S-wave (km/s) = 3.76859 -2.48905 2.00086
# Velocity P-wave (km/s) = 6.16331 3.95336 5.17761
#
# Compressibility (1/GPa) = 0.02892416
#
# Stress axis : x y z
#
# Youngs Moduli (GPa) = 60.90905 69.98306 39.93669
#
# Poissons Ratio (x) = 0.51998 0.29166
# Poissons Ratio (y) = 0.45256 -0.05279
# Poissons Ratio (z) = 0.44483 -0.09251
#
# Static dielectric constant tensor:
#      x y z
#    x 3.541630 0.000000 0.000000 
#    y 0.000000 3.406570 0.000000 
#    z 0.000000 0.000000 2.640190 
# 
# 
# High freq. dielectric constant tensor:
#      x y z
#    x 1.711650 0.000000 0.000000 
#    y 0.000000 1.703540 0.000000 
#    z 0.000000 0.000000 1.667320 
# 
# From -- ./inp_files/36947.got.cif
#   From: 2010.03.12/outbox.cif.g09.slc.cpg/sg64_19_cif.got.tgz:36947.got - 2010.04.10 20:19:32.
