data_PCOD8262823
_publ_section_title
;
Structure prediction by ZEFSAII (Michael W. Deem and Ramdas Pophale) SiO2 
 PCOD8262823
Probable space group: C M C A
;
_chemical_formula_sum "Si O2"
_cell_formula_units_Z 96
_cell_length_a 9.187373
_cell_length_b 24.094451
_cell_length_c 25.888448
_cell_angle_alpha 90.000000
_cell_angle_beta 90.000000
_cell_angle_gamma 90.000000
_cell_volume 5730.788747
_symmetry_space_group_name_H-M "C M C A"
_symmetry_group_IT_number 64
_symmetry_cell_setting 'orthorhombic'
loop_
_space_group_symop_operation_xyz
x,y,z
-x,1/2-y,1/2+z
x,-y,-z
-x,1/2+y,1/2-z
-x,-y,-z
x,1/2+y,1/2-z
-x,y,z
x,1/2-y,1/2+z
1/2+x,1/2+y,z
1/2-x,-y,1/2+z
1/2+x,1/2-y,-z
1/2-x,y,1/2-z
1/2-x,1/2-y,-z
1/2+x,y,1/2-z
1/2-x,1/2+y,z
1/2+x,-y,1/2+z
loop_
_atom_site_type_symbol
_atom_site_label
_atom_site_fract_x
_atom_site_fract_y
_atom_site_fract_z
Si Si1 0.171054 0.634831 0.068070
Si Si2 0.173563 0.512832 0.057776
Si Si3 0.663254 0.317786 0.462483
Si Si4 0.830698 0.254868 0.887748
Si Si5 0.164228 0.910932 0.376969
Si Si6 0.827113 0.667273 0.695759
O O1 0.233828 0.572994 0.077169
O O2 0.204627 0.678591 0.114884
O O3 0.000000 0.627682 0.059751
O O4 0.235467 0.660842 0.015497
O O5 0.228843 0.468551 0.100342
O O6 0.000000 0.509585 0.056374
O O7 0.233532 0.500000 0.000000
O O8 0.500000 0.295404 0.471291
O O9 0.757584 0.267814 0.439779
O O10 0.662407 0.369056 0.424022
O O11 0.778205 0.221941 0.836909
O O12 0.000000 0.244307 0.894983
O O13 0.269435 0.888638 0.331734
O O14 0.000000 0.918243 0.354744
O O15 0.750000 0.674533 0.750000
O O16 0.000000 0.663150 0.702682
#
# Coordination Sequence:
#
# PCOD8262823 Si02
#       6
#    16  16  16  16  16  16
#     4   9  15  24  40  64  95 127 155 183 215 257
#     4   9  14  23  42  69  98 128 161 189 211 253
#     4   9  15  24  41  64  92 124 155 184 213 257
#     4   9  18  29  42  64  92 118 147 187 233 273
#     4   9  16  27  46  72  96 120 154 192 227 261
#     4  10  20  34  51  68  87 113 149 195 243 285
#
# _framework density 16.751621
#
# number of rings (size 3 to 8) (size 9 to 14) (size 15 to 20)
#    0.000    2.833    1.667    1.000    0.000    0.667 
#    0.000    0.000    0.000    3.500    0.000    2.333 
#    0.000    0.000    0.000    0.000    0.000    0.000 
#
# Total GULP energy -594765.425759 kJ/mol
# GULP energy per Si atom -12390.946370 kJ/mol
# Density = 1.671349 g / cm^3
# Si number density = 16.751621 Si / 1000 Ang^3
#
#
#
# Elastic Constant Matrix: (Units=GPa)
#
#
# Indices 1 2 3 4 5 6 
#
# 1 33.6544 23.9396 23.7826 0.0000 0.0000 0.0000
# 2 23.9396 137.1810 48.1245 0.0000 0.0000 0.0000
# 3 23.7826 48.1245 80.6450 0.0000 0.0000 0.0000
# 4 0.0000 0.0000 0.0000 12.3859 0.0000 0.0000
# 5 0.0000 0.0000 0.0000 0.0000 13.8973 0.0000
# 6 0.0000 0.0000 0.0000 0.0000 0.0000 15.2210
#
#
#
# Elastic Compliance Matrix: (Units=1/GPa)
#
#
# Indices 1 2 3 4 5 6 
#
# 1 0.038813 -0.003488 -0.009365 0.000000 0.000000 0.000000
# 2 -0.003488 0.009533 -0.004660 0.000000 0.000000 0.000000
# 3 -0.009365 -0.004660 0.017943 0.000000 0.000000 0.000000
# 4 0.000000 0.000000 0.000000 0.080737 0.000000 0.000000
# 5 0.000000 0.000000 0.000000 0.000000 0.071956 0.000000
# 6 0.000000 0.000000 0.000000 0.000000 0.000000 0.065699
#
#
# Mechanical properties :
#
#
# Convention : Reuss Voigt Hill
#
# Bulk Modulus (GPa) = 31.98694 49.24154 40.61424
# Shear Modulus (GPa) = 15.14569 18.67644 16.91106
#
# Velocity S-wave (km/s) = 3.01014 3.34264 3.18074
# Velocity P-wave (km/s) = 5.58727 6.66007 6.14712
#
# Compressibility (1/GPa) = 0.03126276
#
# Stress axis : x y z
#
# Youngs Moduli (GPa) = 25.76481 104.89657 55.73309
#
# Poissons Ratio (x) = 0.36588 0.52192
# Poissons Ratio (y) = 0.08987 0.25973
# Poissons Ratio (z) = 0.24128 0.48884
#
# Static dielectric constant tensor:
#      x y z
#    x 2.930870 0.000000 0.000000 
#    y 0.000000 3.523960 0.000000 
#    z 0.000000 0.000000 2.988090 
# 
# 
# High freq. dielectric constant tensor:
#      x y z
#    x 1.610720 0.000000 0.000000 
#    y 0.000000 1.653480 0.000000 
#    z 0.000000 0.000000 1.617580 
# 
# From -- ./inp_files/44314.got.cif
#   From: 2010.03.12/outbox.cif.g09.slc.cpg/sg64_23_cif.got.tgz:44314.got - 2010.04.10 20:19:32.
