data_PCOD8262387
_publ_section_title
;
Structure prediction by ZEFSAII (Michael W. Deem and Ramdas Pophale) SiO2 
 PCOD8262387
Probable space group: C M C A
;
_chemical_formula_sum "Si O2"
_cell_formula_units_Z 112
_cell_length_a 14.892304
_cell_length_b 33.967637
_cell_length_c 10.593958
_cell_angle_alpha 90.000000
_cell_angle_beta 90.000000
_cell_angle_gamma 90.000000
_cell_volume 5359.021205
_symmetry_space_group_name_H-M "C M C A"
_symmetry_group_IT_number 64
_symmetry_cell_setting 'orthorhombic'
loop_
_space_group_symop_operation_xyz
x,y,z
-x,1/2-y,1/2+z
x,-y,-z
-x,1/2+y,1/2-z
-x,-y,-z
x,1/2+y,1/2-z
-x,y,z
x,1/2-y,1/2+z
1/2+x,1/2+y,z
1/2-x,-y,1/2+z
1/2+x,1/2-y,-z
1/2-x,y,1/2-z
1/2-x,1/2-y,-z
1/2+x,y,1/2-z
1/2-x,1/2+y,z
1/2+x,-y,1/2+z
loop_
_atom_site_type_symbol
_atom_site_label
_atom_site_fract_x
_atom_site_fract_y
_atom_site_fract_z
Si Si1 0.398850 0.897984 0.424015
Si Si2 0.694689 0.755978 0.873000
Si Si3 0.098806 0.441290 0.181144
Si Si4 0.395170 0.828351 0.982347
Si Si5 0.305079 0.514375 0.370718
Si Si6 0.290171 0.904014 0.971235
Si Si7 0.602338 0.319084 0.232480
O O1 0.500000 0.897104 0.485829
O O2 0.390067 0.935554 0.331451
O O3 0.319116 0.900332 0.527536
O O4 0.383381 0.859812 0.338476
O O5 0.750000 0.769778 0.750000
O O6 0.650928 0.714192 0.846588
O O7 0.750000 0.750000 0.000000
O O8 0.620633 0.789638 0.898239
O O9 0.105410 0.487561 0.143328
O O10 0.172819 0.414855 0.110021
O O11 0.000000 0.426272 0.139770
O O12 0.500000 0.839573 0.979181
O O13 0.336011 0.863880 0.923391
O O14 0.359398 0.821546 0.125262
O O15 0.255475 0.500000 0.500000
O O16 0.250000 0.501513 0.250000
O O17 0.320854 0.561311 0.374665
O O18 0.500000 0.306459 0.241831
#
# Coordination Sequence:
#
# PCOD8262387 Si02
#       7
#    16  16  16  16  16  16  16
#     4  10  20  35  61  94 125 165 218 270 322 383
#     4  12  24  40  63  92 128 171 217 266 326 387
#     4  10  19  33  58  92 122 158 211 266 314 371
#     4  11  23  40  64  96 130 172 221 269 326 390
#     4  10  22  39  61  90 124 164 207 257 317 381
#     4  11  21  35  61  86 128 167 210 267 322 383
#     4  10  21  39  62  92 126 164 218 275 324 385
#
# _framework density 20.899339000000001
#
# number of rings (size 3 to 8) (size 9 to 14) (size 15 to 20)
#    0.000    1.429    2.857    3.857    0.000    3.714 
#    0.000    0.714    0.000   10.286    0.000    0.000 
#    0.000    0.000    0.000    0.000    0.000    0.000 
#
# Total GULP energy -694111.636457 kJ/mol
# GULP energy per Si atom -12394.850651 kJ/mol
# Density = 2.085177 g / cm^3
# Si number density = 20.899339 Si / 1000 Ang^3
#
#
#
# Elastic Constant Matrix: (Units=GPa)
#
#
# Indices 1 2 3 4 5 6 
#
# 1 107.2187 46.6368 20.1420 0.0000 0.0000 0.0000
# 2 46.6368 123.4270 36.7716 0.0000 0.0000 0.0000
# 3 20.1420 36.7716 67.6052 0.0000 0.0000 0.0000
# 4 0.0000 0.0000 0.0000 28.6685 0.0000 0.0000
# 5 0.0000 0.0000 0.0000 0.0000 24.4079 0.0000
# 6 0.0000 0.0000 0.0000 0.0000 0.0000 32.1460
#
#
#
# Elastic Compliance Matrix: (Units=1/GPa)
#
#
# Indices 1 2 3 4 5 6 
#
# 1 0.011248 -0.003880 -0.001240 0.000000 0.000000 0.000000
# 2 -0.003880 0.011007 -0.004831 0.000000 0.000000 0.000000
# 3 -0.001240 -0.004831 0.017789 0.000000 0.000000 0.000000
# 4 0.000000 0.000000 0.000000 0.034881 0.000000 0.000000
# 5 0.000000 0.000000 0.000000 0.000000 0.040970 0.000000
# 6 0.000000 0.000000 0.000000 0.000000 0.000000 0.031108
#
#
# Mechanical properties :
#
#
# Convention : Reuss Voigt Hill
#
# Bulk Modulus (GPa) = 49.65159 56.15018 52.90089
# Shear Modulus (GPa) = 28.79837 30.02452 29.41145
#
# Velocity S-wave (km/s) = 3.71611 3.79440 3.75546
# Velocity P-wave (km/s) = 6.49782 6.79131 6.64619
#
# Compressibility (1/GPa) = 0.02014034
#
# Stress axis : x y z
#
# Youngs Moduli (GPa) = 88.90797 90.84800 56.21447
#
# Poissons Ratio (x) = 0.35252 0.06973
# Poissons Ratio (y) = 0.34499 0.27157
# Poissons Ratio (z) = 0.11029 0.43889
#
# Static dielectric constant tensor:
#      x y z
#    x 3.835250 0.000000 0.000000 
#    y 0.000000 3.957580 0.000000 
#    z 0.000000 0.000000 3.566560 
# 
# 
# High freq. dielectric constant tensor:
#      x y z
#    x 1.814610 0.000000 0.000000 
#    y 0.000000 1.830600 0.000000 
#    z 0.000000 0.000000 1.786830 
# 
# From -- ./inp_files/14990.got.cif
#   From: 2010.03.12/outbox.cif.g09.slc.cpg/sg64_8_cif.got.tgz:14990.got - 2010.04.10 20:19:32.
