data_PCOD8262305
_publ_section_title
;
Structure prediction by ZEFSAII (Michael W. Deem and Ramdas Pophale) SiO2 
 PCOD8262305
Probable space group: C M C A
;
_chemical_formula_sum "Si O2"
_cell_formula_units_Z 80
_cell_length_a 17.592409
_cell_length_b 17.565939
_cell_length_c 15.362152
_cell_angle_alpha 90.000000
_cell_angle_beta 90.000000
_cell_angle_gamma 90.000000
_cell_volume 4747.322563
_symmetry_space_group_name_H-M "C M C A"
_symmetry_group_IT_number 64
_symmetry_cell_setting 'orthorhombic'
loop_
_space_group_symop_operation_xyz
x,y,z
-x,1/2-y,1/2+z
x,-y,-z
-x,1/2+y,1/2-z
-x,-y,-z
x,1/2+y,1/2-z
-x,y,z
x,1/2-y,1/2+z
1/2+x,1/2+y,z
1/2-x,-y,1/2+z
1/2+x,1/2-y,-z
1/2-x,y,1/2-z
1/2-x,1/2-y,-z
1/2+x,y,1/2-z
1/2-x,1/2+y,z
1/2+x,-y,1/2+z
loop_
_atom_site_type_symbol
_atom_site_label
_atom_site_fract_x
_atom_site_fract_y
_atom_site_fract_z
Si Si1 0.413052 0.208661 0.234888
Si Si2 0.185145 0.771146 0.889158
Si Si3 0.345973 0.793286 0.418655
Si Si4 0.176447 0.921924 0.799251
Si Si5 0.587162 0.458175 0.091405
O O1 0.500000 0.201973 0.261347
O O2 0.371448 0.257061 0.312325
O O3 0.405092 0.248576 0.141815
O O4 0.376815 0.124079 0.230906
O O5 0.260940 0.720692 0.883243
O O6 0.203604 0.861297 0.873673
O O7 0.145779 0.761594 0.983207
O O8 0.364956 0.881654 0.415705
O O9 0.250000 0.955312 0.750000
O O10 0.127739 0.990679 0.836598
O O11 0.500000 0.441878 0.119322
O O12 0.588856 0.500000 0.000000
#
# Coordination Sequence:
#
# PCOD8262305 Si02
#       5
#    16  16  16  16  16
#     4  10  19  33  53  78 111 144 182 228 277 334
#     4   9  20  35  56  76 113 146 185 228 272 330
#     4  11  19  35  58  80 108 147 191 228 273 341
#     4  10  19  37  53  76 113 147 181 224 280 336
#     4  11  22  35  55  85 113 140 182 239 292 326
#
# _framework density 16.851603999999998
#
# number of rings (size 3 to 8) (size 9 to 14) (size 15 to 20)
#    1.200    0.600    4.000    1.800    0.000    3.200 
#    0.000    0.000    0.000    0.000    0.000    0.000 
#    0.000   10.800    0.000    0.000    0.000    0.000 
#
# Total GULP energy -495752.953821 kJ/mol
# GULP energy per Si atom -12393.823846 kJ/mol
# Density = 1.681325 g / cm^3
# Si number density = 16.851604 Si / 1000 Ang^3
#
#
#
# Elastic Constant Matrix: (Units=GPa)
#
#
# Indices 1 2 3 4 5 6 
#
# 1 120.0961 42.5985 37.2441 0.0000 0.0000 0.0000
# 2 42.5985 77.0779 14.0485 0.0000 0.0000 0.0000
# 3 37.2441 14.0485 74.9769 0.0000 0.0000 0.0000
# 4 0.0000 0.0000 0.0000 25.8091 0.0000 0.0000
# 5 0.0000 0.0000 0.0000 0.0000 38.8472 0.0000
# 6 0.0000 0.0000 0.0000 0.0000 0.0000 20.7340
#
#
#
# Elastic Compliance Matrix: (Units=1/GPa)
#
#
# Indices 1 2 3 4 5 6 
#
# 1 0.011827 -0.005659 -0.004815 0.000000 0.000000 0.000000
# 2 -0.005659 0.016140 -0.000213 0.000000 0.000000 0.000000
# 3 -0.004815 -0.000213 0.015769 0.000000 0.000000 0.000000
# 4 0.000000 0.000000 0.000000 0.038746 0.000000 0.000000
# 5 0.000000 0.000000 0.000000 0.000000 0.025742 0.000000
# 6 0.000000 0.000000 0.000000 0.000000 0.000000 0.048230
#
#
# Mechanical properties :
#
#
# Convention : Reuss Voigt Hill
#
# Bulk Modulus (GPa) = 44.71717 51.10368 47.91042
# Shear Modulus (GPa) = 26.98591 28.96205 27.97398
#
# Velocity S-wave (km/s) = 4.00607 4.15016 4.07875
# Velocity P-wave (km/s) = 6.92760 7.30456 7.11858
#
# Compressibility (1/GPa) = 0.02236278
#
# Stress axis : x y z
#
# Youngs Moduli (GPa) = 84.55232 61.95702 63.41542
#
# Poissons Ratio (x) = 0.35061 0.30532
# Poissons Ratio (y) = 0.47847 0.01352
# Poissons Ratio (z) = 0.40709 0.01321
#
# Static dielectric constant tensor:
#      x y z
#    x 3.151360 0.000000 0.000000 
#    y 0.000000 2.934210 0.000000 
#    z 0.000000 0.000000 3.188980 
# 
# 
# High freq. dielectric constant tensor:
#      x y z
#    x 1.654300 0.000000 0.000000 
#    y 0.000000 1.625590 0.000000 
#    z 0.000000 0.000000 1.648490 
# 
# From -- ./inp_files/25267.got.cif
#   From: 2010.03.12/outbox.cif.g09.slc.cpg/sg64_13_cif.got.tgz:25267.got - 2010.04.10 20:19:32.
