data_PCOD8262403
_publ_section_title
;
Structure prediction by ZEFSAII (Michael W. Deem and Ramdas Pophale) SiO2 
 PCOD8262403
Probable space group: C M C A
;
_chemical_formula_sum "Si O2"
_cell_formula_units_Z 80
_cell_length_a 8.533380
_cell_length_b 27.318913
_cell_length_c 18.280678
_cell_angle_alpha 90.000000
_cell_angle_beta 90.000000
_cell_angle_gamma 90.000000
_cell_volume 4261.640388
_symmetry_space_group_name_H-M "C M C A"
_symmetry_group_IT_number 64
_symmetry_cell_setting 'orthorhombic'
loop_
_space_group_symop_operation_xyz
x,y,z
-x,1/2-y,1/2+z
x,-y,-z
-x,1/2+y,1/2-z
-x,-y,-z
x,1/2+y,1/2-z
-x,y,z
x,1/2-y,1/2+z
1/2+x,1/2+y,z
1/2-x,-y,1/2+z
1/2+x,1/2-y,-z
1/2-x,y,1/2-z
1/2-x,1/2-y,-z
1/2+x,y,1/2-z
1/2-x,1/2+y,z
1/2+x,-y,1/2+z
loop_
_atom_site_type_symbol
_atom_site_label
_atom_site_fract_x
_atom_site_fract_y
_atom_site_fract_z
Si Si1 0.685166 0.848703 0.467385
Si Si2 0.815841 0.093668 0.324858
Si Si3 0.815970 0.192849 0.119343
Si Si4 0.816078 0.293154 0.327846
Si Si5 0.814988 0.551129 0.465342
O O1 0.500000 0.846127 0.463222
O O2 0.740498 0.814882 0.535400
O O3 0.757106 0.827707 0.391873
O O4 0.738167 0.904845 0.480483
O O5 0.750000 0.070324 0.250000
O O6 0.724245 0.144408 0.335733
O O7 0.775516 0.055645 0.389002
O O8 0.000000 0.103133 0.321345
O O9 0.723636 0.237214 0.155372
O O10 0.000000 0.203401 0.124782
O O11 0.750000 0.310278 0.250000
O O12 0.000000 0.299455 0.324689
O O13 0.763658 0.500000 0.500000
O O14 0.000000 0.553862 0.450167
#
# Coordination Sequence:
#
# PCOD8262403 Si02
#       5
#    16  16  16  16  16
#     4   8  17  33  53  75 100 132 170 209 251 305
#     4  11  21  34  53  79 109 137 170 213 261 309
#     4  10  19  34  54  76 101 132 172 213 258 307
#     4  11  21  33  48  71 104 139 173 207 247 297
#     4   9  18  36  60  81 103 134 171 214 266 316
#
# _framework density 18.772114999999999
#
# number of rings (size 3 to 8) (size 9 to 14) (size 15 to 20)
#    0.000    2.200    0.000    5.400    0.000    0.400 
#    0.000   10.000    0.000    2.400    0.000    0.000 
#    0.000    0.000    0.000    0.000    0.000    0.000 
#
# Total GULP energy -495993.130166 kJ/mol
# GULP energy per Si atom -12399.828254 kJ/mol
# Density = 1.872939 g / cm^3
# Si number density = 18.772115 Si / 1000 Ang^3
#
#
#
# Elastic Constant Matrix: (Units=GPa)
#
#
# Indices 1 2 3 4 5 6 
#
# 1 48.6931 10.6390 31.3019 0.0000 0.0000 0.0000
# 2 10.6390 77.3647 53.9329 0.0000 0.0000 0.0000
# 3 31.3019 53.9329 155.3468 0.0000 0.0000 0.0000
# 4 0.0000 0.0000 0.0000 18.5013 0.0000 0.0000
# 5 0.0000 0.0000 0.0000 0.0000 27.8354 0.0000
# 6 0.0000 0.0000 0.0000 0.0000 0.0000 16.0381
#
#
#
# Elastic Compliance Matrix: (Units=1/GPa)
#
#
# Indices 1 2 3 4 5 6 
#
# 1 0.023593 0.000092 -0.004786 0.000000 0.000000 0.000000
# 2 0.000092 0.017053 -0.005939 0.000000 0.000000 0.000000
# 3 -0.004786 -0.005939 0.009463 0.000000 0.000000 0.000000
# 4 0.000000 0.000000 0.000000 0.054050 0.000000 0.000000
# 5 0.000000 0.000000 0.000000 0.000000 0.035925 0.000000
# 6 0.000000 0.000000 0.000000 0.000000 0.000000 0.062352
#
#
# Mechanical properties :
#
#
# Convention : Reuss Voigt Hill
#
# Bulk Modulus (GPa) = 34.66925 52.57247 43.62086
# Shear Modulus (GPa) = 21.42994 24.84367 23.13681
#
# Velocity S-wave (km/s) = 3.38240 3.64185 3.51452
# Velocity P-wave (km/s) = 5.81057 6.76391 6.30529
#
# Compressibility (1/GPa) = 0.02884401
#
# Stress axis : x y z
#
# Youngs Moduli (GPa) = 42.38498 58.63923 105.66956
#
# Poissons Ratio (x) = -0.00539 0.50572
# Poissons Ratio (y) = -0.00389 0.62758
# Poissons Ratio (z) = 0.20285 0.34826
#
# Static dielectric constant tensor:
#      x y z
#    x 3.294290 0.000000 0.000000 
#    y 0.000000 3.374790 0.000000 
#    z 0.000000 0.000000 3.893220 
# 
# 
# High freq. dielectric constant tensor:
#      x y z
#    x 1.717430 0.000000 0.000000 
#    y 0.000000 1.708480 0.000000 
#    z 0.000000 0.000000 1.740640 
# 
# From -- ./inp_files/29710.got.cif
#   From: 2010.03.12/outbox.cif.g09.slc.cpg/sg64_15_cif.got.tgz:29710.got - 2010.04.10 20:19:32.
