data_PCOD8262530
_publ_section_title
;
Structure prediction by ZEFSAII (Michael W. Deem and Ramdas Pophale) SiO2 
 PCOD8262530
Probable space group: C M C A
;
_chemical_formula_sum "Si O2"
_cell_formula_units_Z 72
_cell_length_a 14.044956
_cell_length_b 15.014992
_cell_length_c 18.256479
_cell_angle_alpha 90.000000
_cell_angle_beta 90.000000
_cell_angle_gamma 90.000000
_cell_volume 3850.015784
_symmetry_space_group_name_H-M "C M C A"
_symmetry_group_IT_number 64
_symmetry_cell_setting 'orthorhombic'
loop_
_space_group_symop_operation_xyz
x,y,z
-x,1/2-y,1/2+z
x,-y,-z
-x,1/2+y,1/2-z
-x,-y,-z
x,1/2+y,1/2-z
-x,y,z
x,1/2-y,1/2+z
1/2+x,1/2+y,z
1/2-x,-y,1/2+z
1/2+x,1/2-y,-z
1/2-x,y,1/2-z
1/2-x,1/2-y,-z
1/2+x,y,1/2-z
1/2-x,1/2+y,z
1/2+x,-y,1/2+z
loop_
_atom_site_type_symbol
_atom_site_label
_atom_site_fract_x
_atom_site_fract_y
_atom_site_fract_z
Si Si1 0.500000 0.555964 0.320784
Si Si2 0.708191 0.281151 0.577124
Si Si3 0.320442 0.521827 0.417778
Si Si4 0.500000 0.121853 0.762340
Si Si5 0.798254 0.139359 0.674522
Si Si6 0.500000 0.756598 0.865298
O O1 0.411995 0.531542 0.369567
O O2 0.500000 0.487337 0.251483
O O3 0.500000 0.662101 0.304861
O O4 0.750000 0.250000 0.500000
O O5 0.736527 0.385135 0.585355
O O6 0.759431 0.232499 0.644270
O O7 0.593543 0.263893 0.582802
O O8 0.350019 0.500000 0.500000
O O9 0.265357 0.437489 0.382948
O O10 0.589593 0.151225 0.811543
O O11 0.500000 0.165717 0.681662
O O12 0.750000 0.113089 0.750000
#
# Coordination Sequence:
#
# PCOD8262530 Si02
#       6
#     8  16  16   8  16   8
#     4   8  19  32  56  86 109 149 200 244 286 348
#     4  11  22  38  62  89 119 157 201 249 302 355
#     4  10  19  35  58  84 115 150 197 245 294 351
#     4  10  20  38  58  83 121 153 192 248 299 349
#     4  11  22  38  61  88 116 156 200 247 302 359
#     4  10  20  38  60  88 124 153 199 249 300 358
#
# _framework density 18.701222000000001
#
# number of rings (size 3 to 8) (size 9 to 14) (size 15 to 20)
#    0.000    1.778    4.444    0.333    0.000    1.778 
#    4.000    0.000    0.000    4.000    0.000    0.000 
#    0.000    0.000    0.000    0.000    0.000    0.000 
#
# Total GULP energy -446069.886390 kJ/mol
# GULP energy per Si atom -12390.830178 kJ/mol
# Density = 1.865866 g / cm^3
# Si number density = 18.701222 Si / 1000 Ang^3
#
#
#
# Elastic Constant Matrix: (Units=GPa)
#
#
# Indices 1 2 3 4 5 6 
#
# 1 94.8940 27.5829 16.3682 0.0000 0.0000 0.0000
# 2 27.5829 122.1751 34.4584 0.0000 0.0000 0.0000
# 3 16.3682 34.4584 77.0358 0.0000 0.0000 0.0000
# 4 0.0000 0.0000 0.0000 37.8339 0.0000 0.0000
# 5 0.0000 0.0000 0.0000 0.0000 36.9830 0.0000
# 6 0.0000 0.0000 0.0000 0.0000 0.0000 28.0354
#
#
#
# Elastic Compliance Matrix: (Units=1/GPa)
#
#
# Indices 1 2 3 4 5 6 
#
# 1 0.011419 -0.002167 -0.001457 0.000000 0.000000 0.000000
# 2 -0.002167 0.009778 -0.003913 0.000000 0.000000 0.000000
# 3 -0.001457 -0.003913 0.015041 0.000000 0.000000 0.000000
# 4 0.000000 0.000000 0.000000 0.026431 0.000000 0.000000
# 5 0.000000 0.000000 0.000000 0.000000 0.027039 0.000000
# 6 0.000000 0.000000 0.000000 0.000000 0.000000 0.035669
#
#
# Mechanical properties :
#
#
# Convention : Reuss Voigt Hill
#
# Bulk Modulus (GPa) = 47.25114 50.10265 48.67690
# Shear Modulus (GPa) = 33.89662 34.95016 34.42339
#
# Velocity S-wave (km/s) = 4.26201 4.32773 4.29500
# Velocity P-wave (km/s) = 7.03852 7.19872 7.11907
#
# Compressibility (1/GPa) = 0.02116351
#
# Stress axis : x y z
#
# Youngs Moduli (GPa) = 87.57095 102.27108 66.48521
#
# Poissons Ratio (x) = 0.22164 0.09687
# Poissons Ratio (y) = 0.18978 0.26017
# Poissons Ratio (z) = 0.12759 0.40021
#
# Static dielectric constant tensor:
#      x y z
#    x 3.486860 0.000000 0.000000 
#    y 0.000000 4.322760 0.000000 
#    z 0.000000 0.000000 3.335900 
# 
# 
# High freq. dielectric constant tensor:
#      x y z
#    x 1.716420 0.000000 0.000000 
#    y 0.000000 1.744930 0.000000 
#    z 0.000000 0.000000 1.711830 
# 
# From -- ./inp_files/31933.got.cif
#   From: 2010.03.12/outbox.cif.g09.slc.cpg/sg64_16_cif.got.tgz:31933.got - 2010.04.10 20:19:32.
