data_PCOD8262303
_publ_section_title
;
Structure prediction by ZEFSAII (Michael W. Deem and Ramdas Pophale) SiO2 
 PCOD8262303
Probable space group: C M C A
;
_chemical_formula_sum "Si O2"
_cell_formula_units_Z 128
_cell_length_a 19.053896
_cell_length_b 19.989481
_cell_length_c 18.362376
_cell_angle_alpha 90.000000
_cell_angle_beta 90.000000
_cell_angle_gamma 90.000000
_cell_volume 6993.815719
_symmetry_space_group_name_H-M "C M C A"
_symmetry_group_IT_number 64
_symmetry_cell_setting 'orthorhombic'
loop_
_space_group_symop_operation_xyz
x,y,z
-x,1/2-y,1/2+z
x,-y,-z
-x,1/2+y,1/2-z
-x,-y,-z
x,1/2+y,1/2-z
-x,y,z
x,1/2-y,1/2+z
1/2+x,1/2+y,z
1/2-x,-y,1/2+z
1/2+x,1/2-y,-z
1/2-x,y,1/2-z
1/2-x,1/2-y,-z
1/2+x,y,1/2-z
1/2-x,1/2+y,z
1/2+x,-y,1/2+z
loop_
_atom_site_type_symbol
_atom_site_label
_atom_site_fract_x
_atom_site_fract_y
_atom_site_fract_z
Si Si1 0.130729 0.370398 0.758836
Si Si2 0.423028 0.999558 0.181753
Si Si3 0.717848 0.265500 0.576554
Si Si4 0.578541 0.858072 0.234654
Si Si5 0.709688 0.016616 0.914793
Si Si6 0.733573 0.390788 0.853533
Si Si7 0.780212 0.650541 0.830290
Si Si8 0.079620 0.248926 0.849405
O O1 0.078762 0.431910 0.772903
O O2 0.204836 0.384388 0.795439
O O3 0.155457 0.369578 0.674339
O O4 0.094933 0.301819 0.784530
O O5 0.500000 0.993330 0.145629
O O6 0.367346 0.999221 0.116648
O O7 0.411363 0.938526 0.239002
O O8 0.750000 0.250000 0.500000
O O9 0.744259 0.340938 0.582760
O O10 0.745240 0.218317 0.641495
O O11 0.632575 0.260628 0.582595
O O12 0.500000 0.839108 0.206737
O O13 0.636889 0.832717 0.177304
O O14 0.590456 0.824814 0.314210
O O15 0.768209 0.967051 0.881576
O O16 0.732009 0.091574 0.889992
O O17 0.706615 0.000000 0.000000
O O18 0.750000 0.630977 0.750000
O O19 0.000000 0.257972 0.878189
#
# Coordination Sequence:
#
# PCOD8262303 Si02
#       8
#    16  16  16  16  16  16  16  16
#     4   9  17  29  50  74  99 130 172 223 266 311
#     4   9  18  31  49  74 105 139 178 218 269 327
#     4  11  22  36  54  80 113 145 181 223 274 330
#     4   9  18  32  51  79 107 134 177 231 273 316
#     4  10  21  34  50  77 112 144 178 224 276 326
#     4   9  19  31  50  74 106 134 173 220 272 314
#     4  11  21  34  58  81 108 143 189 228 274 325
#     4  10  19  33  53  77 106 140 180 222 271 323
#
# _framework density 18.301884000000001
#
# number of rings (size 3 to 8) (size 9 to 14) (size 15 to 20)
#    0.000    2.250    1.250    1.875    7.000    0.250 
#    0.000    0.625    0.000    4.500    0.000    0.000 
#    0.000    7.000    0.000    0.000    0.000    0.000 
#
# Total GULP energy -792846.016756 kJ/mol
# GULP energy per Si atom -12388.219012 kJ/mol
# Density = 1.826023 g / cm^3
# Si number density = 18.301884 Si / 1000 Ang^3
#
#
#
# Elastic Constant Matrix: (Units=GPa)
#
#
# Indices 1 2 3 4 5 6 
#
# 1 88.0034 19.0433 33.0803 0.0000 0.0000 0.0000
# 2 19.0433 71.3010 15.9069 0.0000 0.0000 0.0000
# 3 33.0803 15.9069 69.3032 0.0000 0.0000 0.0000
# 4 0.0000 0.0000 0.0000 1.0031 0.0000 0.0000
# 5 0.0000 0.0000 0.0000 0.0000 21.3901 0.0000
# 6 0.0000 0.0000 0.0000 0.0000 0.0000 19.5012
#
#
#
# Elastic Compliance Matrix: (Units=1/GPa)
#
#
# Indices 1 2 3 4 5 6 
#
# 1 0.014230 -0.002409 -0.006239 0.000000 0.000000 0.000000
# 2 -0.002409 0.015190 -0.002337 0.000000 0.000000 0.000000
# 3 -0.006239 -0.002337 0.017944 0.000000 0.000000 0.000000
# 4 0.000000 0.000000 0.000000 0.996921 0.000000 0.000000
# 5 0.000000 0.000000 0.000000 0.000000 0.046751 0.000000
# 6 0.000000 0.000000 0.000000 0.000000 0.000000 0.051279
#
#
# Mechanical properties :
#
#
# Convention : Reuss Voigt Hill
#
# Bulk Modulus (GPa) = 39.37956 40.51876 39.94916
# Shear Modulus (GPa) = 4.26349 19.08400 11.67375
#
# Velocity S-wave (km/s) = 1.52794 3.23264 2.52830
# Velocity P-wave (km/s) = 4.96751 6.01003 5.51347
#
# Compressibility (1/GPa) = 0.02539388
#
# Stress axis : x y z
#
# Youngs Moduli (GPa) = 70.27513 65.83423 55.72911
#
# Poissons Ratio (x) = 0.15857 0.34772
# Poissons Ratio (y) = 0.16926 0.13023
# Poissons Ratio (z) = 0.43848 0.15384
#
# Static dielectric constant tensor:
#      x y z
#    x 3.558410 0.000000 0.000000 
#    y 0.000000 3.962260 0.000000 
#    z 0.000000 0.000000 2.981310 
# 
# 
# High freq. dielectric constant tensor:
#      x y z
#    x 1.710100 0.000000 0.000000 
#    y 0.000000 1.725400 0.000000 
#    z 0.000000 0.000000 1.664870 
# 
# From -- ./inp_files/41158.got.cif
#   From: 2010.03.12/outbox.cif.g09.slc.cpg/sg64_21_cif.got.tgz:41158.got - 2010.04.10 20:19:32.
