data_PCOD8262944
_publ_section_title
;
Structure prediction by ZEFSAII (Michael W. Deem and Ramdas Pophale) SiO2 
 PCOD8262944
Probable space group: C M C A
;
_chemical_formula_sum "Si O2"
_cell_formula_units_Z 96
_cell_length_a 16.845894
_cell_length_b 9.390383
_cell_length_c 28.316133
_cell_angle_alpha 90.000000
_cell_angle_beta 90.000000
_cell_angle_gamma 90.000000
_cell_volume 4479.311994
_symmetry_space_group_name_H-M "C M C A"
_symmetry_group_IT_number 64
_symmetry_cell_setting 'orthorhombic'
loop_
_space_group_symop_operation_xyz
x,y,z
-x,1/2-y,1/2+z
x,-y,-z
-x,1/2+y,1/2-z
-x,-y,-z
x,1/2+y,1/2-z
-x,y,z
x,1/2-y,1/2+z
1/2+x,1/2+y,z
1/2-x,-y,1/2+z
1/2+x,1/2-y,-z
1/2-x,y,1/2-z
1/2-x,1/2-y,-z
1/2+x,y,1/2-z
1/2-x,1/2+y,z
1/2+x,-y,1/2+z
loop_
_atom_site_type_symbol
_atom_site_label
_atom_site_fract_x
_atom_site_fract_y
_atom_site_fract_z
Si Si1 0.906909 0.774561 0.542974
Si Si2 0.846790 0.528572 0.604365
Si Si3 0.409990 0.754197 0.564325
Si Si4 0.166117 0.082249 0.792058
Si Si5 0.663240 0.001342 0.105584
Si Si6 0.667288 0.918261 0.793398
O O1 0.853208 0.672020 0.574697
O O2 0.878959 0.759873 0.489159
O O3 0.885063 0.930833 0.561884
O O4 0.000000 0.741465 0.548452
O O5 0.905598 0.416892 0.580445
O O6 0.876900 0.559906 0.657769
O O7 0.756973 0.470371 0.602366
O O8 0.500000 0.699959 0.567635
O O9 0.354688 0.666160 0.600464
O O10 0.176092 0.250819 0.781487
O O11 0.250025 0.002810 0.796181
O O12 0.119482 0.000714 0.749055
O O13 0.627409 0.060394 0.155247
#
# Coordination Sequence:
#
# PCOD8262944 Si02
#       6
#    16  16  16  16  16  16
#     4  11  23  43  62  85 122 168 207 245 306 375
#     4  11  23  38  63  95 123 155 205 258 304 350
#     4  11  25  41  62  87 122 168 207 245 306 375
#     4  10  20  34  59  91 125 160 196 248 306 365
#     4  11  23  38  63  95 123 155 205 258 304 350
#     4  10  20  34  59  91 125 160 196 248 306 365
#
# _framework density 21.431863
#
# number of rings (size 3 to 8) (size 9 to 14) (size 15 to 20)
#    0.000    1.333    1.667    5.000    9.333    6.667 
#    0.000    0.000    0.000    6.000    0.000    0.000 
#    0.000    0.000    0.000    0.000    0.000    0.000 
#
# Total GULP energy -595042.138600 kJ/mol
# GULP energy per Si atom -12396.711221 kJ/mol
# Density = 2.138308 g / cm^3
# Si number density = 21.431863 Si / 1000 Ang^3
#
#
#
# Elastic Constant Matrix: (Units=GPa)
#
#
# Indices 1 2 3 4 5 6 
#
# 1 37.0683 17.1337 34.7465 0.0000 0.0000 0.0000
# 2 17.1337 110.0983 51.1987 0.0000 0.0000 0.0000
# 3 34.7465 51.1987 155.1233 0.0000 0.0000 0.0000
# 4 0.0000 0.0000 0.0000 45.9879 0.0000 0.0000
# 5 0.0000 0.0000 0.0000 0.0000 5.0059 0.0000
# 6 0.0000 0.0000 0.0000 0.0000 0.0000 26.0664
#
#
#
# Elastic Compliance Matrix: (Units=1/GPa)
#
#
# Indices 1 2 3 4 5 6 
#
# 1 0.034553 -0.002100 -0.007046 0.000000 0.000000 0.000000
# 2 -0.002100 0.010857 -0.003113 0.000000 0.000000 0.000000
# 3 -0.007046 -0.003113 0.009052 0.000000 0.000000 0.000000
# 4 0.000000 0.000000 0.000000 0.021745 0.000000 0.000000
# 5 0.000000 0.000000 0.000000 0.000000 0.199763 0.000000
# 6 0.000000 0.000000 0.000000 0.000000 0.000000 0.038364
#
#
# Mechanical properties :
#
#
# Convention : Reuss Voigt Hill
#
# Bulk Modulus (GPa) = 33.39675 56.49421 44.94548
# Shear Modulus (GPa) = 14.33342 28.69278 21.51310
#
# Velocity S-wave (km/s) = 2.58890 3.66292 3.17170
# Velocity P-wave (km/s) = 4.95511 6.65631 5.86769
#
# Compressibility (1/GPa) = 0.02994304
#
# Stress axis : x y z
#
# Youngs Moduli (GPa) = 28.94091 92.10401 110.46952
#
# Poissons Ratio (x) = 0.19346 0.77841
# Poissons Ratio (y) = 0.06079 0.34389
# Poissons Ratio (z) = 0.20393 0.28672
#
# Static dielectric constant tensor:
#      x y z
#    x 3.242250 0.000000 0.000000 
#    y 0.000000 3.822420 0.000000 
#    z 0.000000 0.000000 4.989510 
# 
# 
# High freq. dielectric constant tensor:
#      x y z
#    x 1.789330 0.000000 0.000000 
#    y 0.000000 1.858190 0.000000 
#    z 0.000000 0.000000 1.866740 
# 
# From -- ./inp_files/50657.got.cif
#   From: 2010.03.12/outbox.cif.g09.slc.cpg/sg64_26_cif.got.tgz:50657.got - 2010.04.10 20:19:32.
