data_PCOD8262869
_publ_section_title
;
Structure prediction by ZEFSAII (Michael W. Deem and Ramdas Pophale) SiO2 
 PCOD8262869
Probable space group: C M C A
;
_chemical_formula_sum "Si O2"
_cell_formula_units_Z 88
_cell_length_a 12.546783
_cell_length_b 12.225229
_cell_length_c 30.621575
_cell_angle_alpha 90.000000
_cell_angle_beta 90.000000
_cell_angle_gamma 90.000000
_cell_volume 4696.960570
_symmetry_space_group_name_H-M "C M C A"
_symmetry_group_IT_number 64
_symmetry_cell_setting 'orthorhombic'
loop_
_space_group_symop_operation_xyz
x,y,z
-x,1/2-y,1/2+z
x,-y,-z
-x,1/2+y,1/2-z
-x,-y,-z
x,1/2+y,1/2-z
-x,y,z
x,1/2-y,1/2+z
1/2+x,1/2+y,z
1/2-x,-y,1/2+z
1/2+x,1/2-y,-z
1/2-x,y,1/2-z
1/2-x,1/2-y,-z
1/2+x,y,1/2-z
1/2-x,1/2+y,z
1/2+x,-y,1/2+z
loop_
_atom_site_type_symbol
_atom_site_label
_atom_site_fract_x
_atom_site_fract_y
_atom_site_fract_z
Si Si1 0.121255 0.830870 0.469500
Si Si2 0.250000 0.045369 0.750000
Si Si3 0.873661 0.334224 0.324044
Si Si4 0.234211 0.043951 0.606464
Si Si5 0.803045 0.594392 0.470060
Si Si6 0.622957 0.916354 0.820698
O O1 0.175722 0.869612 0.424728
O O2 0.121589 0.699414 0.470478
O O3 0.185148 0.877813 0.510993
O O4 0.000000 0.872240 0.472623
O O5 0.172598 0.121246 0.778583
O O6 0.318375 0.965129 0.779353
O O7 0.824435 0.396351 0.365400
O O8 0.840474 0.207928 0.328472
O O9 0.000000 0.351980 0.324632
O O10 0.291695 0.948754 0.579038
O O11 0.145887 0.988157 0.636670
O O12 0.856337 0.500000 0.500000
O O13 0.500000 0.921434 0.809603
#
# Coordination Sequence:
#
# PCOD8262869 Si02
#       6
#    16   8  16  16  16  16
#     4  10  20  35  55  77 103 138 178 218 262 311
#     4  10  20  36  56  78 106 136 172 214 256 308
#     4  10  21  36  55  79 107 139 173 212 260 311
#     4  10  20  35  53  77 107 137 173 216 259 309
#     4   9  20  36  52  76 107 137 174 219 263 309
#     4  10  20  34  54  78 104 136 172 212 258 307
#
# _framework density 18.735520999999999
#
# number of rings (size 3 to 8) (size 9 to 14) (size 15 to 20)
#    0.000    2.182    0.000    2.727    0.000    5.091 
#    0.000   10.909    0.000   12.000    0.000    0.000 
#    0.000    0.000    0.000    0.000    0.000    0.000 
#
# Total GULP energy -545706.064898 kJ/mol
# GULP energy per Si atom -12402.410566 kJ/mol
# Density = 1.869288 g / cm^3
# Si number density = 18.735521 Si / 1000 Ang^3
#
#
#
# Elastic Constant Matrix: (Units=GPa)
#
#
# Indices 1 2 3 4 5 6 
#
# 1 85.0368 37.8006 39.7115 0.0000 0.0000 0.0000
# 2 37.8006 122.5179 48.7789 0.0000 0.0000 0.0000
# 3 39.7115 48.7789 118.0118 0.0000 0.0000 0.0000
# 4 0.0000 0.0000 0.0000 26.6258 0.0000 0.0000
# 5 0.0000 0.0000 0.0000 0.0000 16.5669 0.0000
# 6 0.0000 0.0000 0.0000 0.0000 0.0000 25.7012
#
#
#
# Elastic Compliance Matrix: (Units=1/GPa)
#
#
# Indices 1 2 3 4 5 6 
#
# 1 0.014880 -0.003109 -0.003722 0.000000 0.000000 0.000000
# 2 -0.003109 0.010419 -0.003261 0.000000 0.000000 0.000000
# 3 -0.003722 -0.003261 0.011074 0.000000 0.000000 0.000000
# 4 0.000000 0.000000 0.000000 0.037558 0.000000 0.000000
# 5 0.000000 0.000000 0.000000 0.000000 0.060361 0.000000
# 6 0.000000 0.000000 0.000000 0.000000 0.000000 0.038909
#
#
# Mechanical properties :
#
#
# Convention : Reuss Voigt Hill
#
# Bulk Modulus (GPa) = 61.76673 64.23872 63.00273
# Shear Modulus (GPa) = 25.15337 27.06383 26.10860
#
# Velocity S-wave (km/s) = 3.66806 3.80481 3.73706
# Velocity P-wave (km/s) = 7.13994 7.32555 7.23334
#
# Compressibility (1/GPa) = 0.01618994
#
# Stress axis : x y z
#
# Youngs Moduli (GPa) = 67.20529 95.97435 90.30217
#
# Poissons Ratio (x) = 0.29838 0.33611
# Poissons Ratio (y) = 0.20894 0.29444
# Poissons Ratio (z) = 0.25014 0.31293
#
# Static dielectric constant tensor:
#      x y z
#    x 3.227660 0.000000 0.000000 
#    y 0.000000 3.663840 0.000000 
#    z 0.000000 0.000000 3.490610 
# 
# 
# High freq. dielectric constant tensor:
#      x y z
#    x 1.718360 0.000000 0.000000 
#    y 0.000000 1.746330 0.000000 
#    z 0.000000 0.000000 1.734910 
# 
# From -- ./inp_files/52642.got.cif
#   From: 2010.03.12/outbox.cif.g09.slc.cpg/sg64_27_cif.got.tgz:52642.got - 2010.04.10 20:19:32.
