data_PCOD8262046
_publ_section_title
;
Structure prediction by ZEFSAII (Michael W. Deem and Ramdas Pophale) SiO2 
 PCOD8262046
Probable space group: C M C A
;
_chemical_formula_sum "Si O2"
_cell_formula_units_Z 128
_cell_length_a 18.885355
_cell_length_b 15.350674
_cell_length_c 22.681564
_cell_angle_alpha 90.000000
_cell_angle_beta 90.000000
_cell_angle_gamma 90.000000
_cell_volume 6575.451815
_symmetry_space_group_name_H-M "C M C A"
_symmetry_group_IT_number 64
_symmetry_cell_setting 'orthorhombic'
loop_
_space_group_symop_operation_xyz
x,y,z
-x,1/2-y,1/2+z
x,-y,-z
-x,1/2+y,1/2-z
-x,-y,-z
x,1/2+y,1/2-z
-x,y,z
x,1/2-y,1/2+z
1/2+x,1/2+y,z
1/2-x,-y,1/2+z
1/2+x,1/2-y,-z
1/2-x,y,1/2-z
1/2-x,1/2-y,-z
1/2+x,y,1/2-z
1/2-x,1/2+y,z
1/2+x,-y,1/2+z
loop_
_atom_site_type_symbol
_atom_site_label
_atom_site_fract_x
_atom_site_fract_y
_atom_site_fract_z
Si Si1 0.808618 0.362900 0.204756
Si Si2 0.578667 0.729207 0.052286
Si Si3 0.775589 0.064558 0.904591
Si Si4 0.283724 0.617082 0.377358
Si Si5 0.199098 0.668332 0.996758
Si Si6 0.646730 0.813712 0.668488
Si Si7 0.667452 0.050669 0.235537
Si Si8 0.420194 0.080898 0.542089
O O1 0.750000 0.330286 0.250000
O O2 0.766042 0.382220 0.144886
O O3 0.863913 0.282886 0.196787
O O4 0.852240 0.447766 0.230220
O O5 0.500000 0.766938 0.057686
O O6 0.630212 0.811253 0.042567
O O7 0.596179 0.676093 0.112037
O O8 0.586613 0.667397 0.996357
O O9 0.860325 0.085054 0.906678
O O10 0.768026 0.963452 0.891110
O O11 0.740807 0.087974 0.967667
O O12 0.324066 0.645737 0.436475
O O13 0.229033 0.688495 0.352304
O O14 0.343820 0.595133 0.328678
O O15 0.250000 0.750000 0.000000
O O16 0.627283 0.892636 0.714269
O O17 0.750000 0.054346 0.250000
O O18 0.500000 0.073680 0.569135
O O19 0.403869 0.000000 0.500000
#
# Coordination Sequence:
#
# PCOD8262046 Si02
#       8
#    16  16  16  16  16  16  16  16
#     4  10  19  31  52  84 112 140 182 238 287 326
#     4  11  23  36  54  80 112 151 191 233 287 350
#     4  11  19  32  53  82 112 146 193 238 280 345
#     4  10  19  30  52  84 113 140 180 237 285 327
#     4  12  19  32  53  82 110 141 190 230 286 337
#     4  11  18  35  55  76 115 147 182 233 287 340
#     4   8  18  31  49  81 113 139 175 230 284 334
#     4  10  20  33  49  76 115 152 181 223 284 342
#
# _framework density 19.466342999999998
#
# number of rings (size 3 to 8) (size 9 to 14) (size 15 to 20)
#    0.000    1.625    3.750    3.750    0.000    0.000 
#    0.000    0.000    0.000    3.750    0.000    0.000 
#    0.000    1.000    0.000    0.000    0.000    0.000 
#
# Total GULP energy -793228.247840 kJ/mol
# GULP energy per Si atom -12394.191373 kJ/mol
# Density = 1.942204 g / cm^3
# Si number density = 19.466343 Si / 1000 Ang^3
#
#
#
# Elastic Constant Matrix: (Units=GPa)
#
#
# Indices 1 2 3 4 5 6 
#
# 1 75.7321 23.9358 20.1145 0.0000 0.0000 0.0000
# 2 23.9358 82.7052 24.6900 0.0000 0.0000 0.0000
# 3 20.1145 24.6900 98.1809 0.0000 0.0000 0.0000
# 4 0.0000 0.0000 0.0000 27.4009 0.0000 0.0000
# 5 0.0000 0.0000 0.0000 0.0000 10.1842 0.0000
# 6 0.0000 0.0000 0.0000 0.0000 0.0000 13.9786
#
#
#
# Elastic Compliance Matrix: (Units=1/GPa)
#
#
# Indices 1 2 3 4 5 6 
#
# 1 0.014936 -0.003686 -0.002133 0.000000 0.000000 0.000000
# 2 -0.003686 0.013982 -0.002761 0.000000 0.000000 0.000000
# 3 -0.002133 -0.002761 0.011317 0.000000 0.000000 0.000000
# 4 0.000000 0.000000 0.000000 0.036495 0.000000 0.000000
# 5 0.000000 0.000000 0.000000 0.000000 0.098191 0.000000
# 6 0.000000 0.000000 0.000000 0.000000 0.000000 0.071538
#
#
# Mechanical properties :
#
#
# Convention : Reuss Voigt Hill
#
# Bulk Modulus (GPa) = 43.33730 43.78876 43.56303
# Shear Modulus (GPa) = 18.42906 22.83792 20.63349
#
# Velocity S-wave (km/s) = 3.08021 3.42892 3.25923
# Velocity P-wave (km/s) = 5.91281 6.18224 6.04902
#
# Compressibility (1/GPa) = 0.02307481
#
# Stress axis : x y z
#
# Youngs Moduli (GPa) = 66.95272 71.51992 88.36570
#
# Poissons Ratio (x) = 0.26361 0.18849
# Poissons Ratio (y) = 0.24678 0.24398
# Poissons Ratio (z) = 0.14281 0.19747
#
# Static dielectric constant tensor:
#      x y z
#    x 3.194650 0.000000 0.000000 
#    y 0.000000 3.738040 0.000000 
#    z 0.000000 0.000000 4.229100 
# 
# 
# High freq. dielectric constant tensor:
#      x y z
#    x 1.692370 0.000000 0.000000 
#    y 0.000000 1.765140 0.000000 
#    z 0.000000 0.000000 1.768730 
# 
# From -- ./inp_files/41143.got.cif
#   From: 2010.03.12/outbox.cif.g09.slc.cpg/sg64_21_cif.got.tgz:41143.got - 2010.04.10 20:19:32.
