data_PCOD8262899
_publ_section_title
;
Structure prediction by ZEFSAII (Michael W. Deem and Ramdas Pophale) SiO2 
 PCOD8262899
Probable space group: C M C A
;
_chemical_formula_sum "Si O2"
_cell_formula_units_Z 80
_cell_length_a 16.508067
_cell_length_b 19.958617
_cell_length_c 13.707448
_cell_angle_alpha 90.000000
_cell_angle_beta 90.000000
_cell_angle_gamma 90.000000
_cell_volume 4516.305111
_symmetry_space_group_name_H-M "C M C A"
_symmetry_group_IT_number 64
_symmetry_cell_setting 'orthorhombic'
loop_
_space_group_symop_operation_xyz
x,y,z
-x,1/2-y,1/2+z
x,-y,-z
-x,1/2+y,1/2-z
-x,-y,-z
x,1/2+y,1/2-z
-x,y,z
x,1/2-y,1/2+z
1/2+x,1/2+y,z
1/2-x,-y,1/2+z
1/2+x,1/2-y,-z
1/2-x,y,1/2-z
1/2-x,1/2-y,-z
1/2+x,y,1/2-z
1/2-x,1/2+y,z
1/2+x,-y,1/2+z
loop_
_atom_site_type_symbol
_atom_site_label
_atom_site_fract_x
_atom_site_fract_y
_atom_site_fract_z
Si Si1 0.405275 0.292023 0.389239
Si Si2 0.684393 0.380512 0.525043
Si Si3 0.327881 0.916150 0.184065
Si Si4 0.595467 0.444334 0.703091
Si Si5 0.315109 0.161127 0.329550
O O1 0.500000 0.288782 0.407935
O O2 0.361065 0.311841 0.491189
O O3 0.383780 0.349361 0.308795
O O4 0.376356 0.220556 0.351515
O O5 0.699799 0.573508 0.570835
O O6 0.626349 0.419792 0.598522
O O7 0.770243 0.362100 0.572329
O O8 0.250000 0.905805 0.250000
O O9 0.379341 0.979117 0.220665
O O10 0.500000 0.436936 0.707092
O O11 0.634847 0.401711 0.789675
O O12 0.250000 0.186063 0.250000
#
# Coordination Sequence:
#
# PCOD8262899 Si02
#       5
#    16  16  16  16  16
#     4  10  20  34  55  81 111 144 183 235 277 319
#     4   9  21  34  59  80 111 146 190 225 276 334
#     4  10  21  35  57  80 112 149 187 229 278 333
#     4  11  21  35  57  85 112 142 186 240 283 324
#     4  10  20  37  56  80 114 150 184 221 283 343
#
# _framework density 17.713595999999999
#
# number of rings (size 3 to 8) (size 9 to 14) (size 15 to 20)
#    1.200    0.800    0.000    5.400    0.000    0.800 
#    0.000    0.000    0.000    4.800    0.000    0.000 
#    0.000    0.000    0.000    0.000    0.000    0.000 
#
# Total GULP energy -495851.482983 kJ/mol
# GULP energy per Si atom -12396.287075 kJ/mol
# Density = 1.767328 g / cm^3
# Si number density = 17.713596 Si / 1000 Ang^3
#
#
#
# Elastic Constant Matrix: (Units=GPa)
#
#
# Indices 1 2 3 4 5 6 
#
# 1 123.0888 63.1229 65.2867 0.0000 0.0000 0.0000
# 2 63.1229 110.8869 40.0394 0.0000 0.0000 0.0000
# 3 65.2867 40.0394 77.1809 0.0000 0.0000 0.0000
# 4 0.0000 0.0000 0.0000 4.1407 0.0000 0.0000
# 5 0.0000 0.0000 0.0000 0.0000 25.7879 0.0000
# 6 0.0000 0.0000 0.0000 0.0000 0.0000 31.1391
#
#
#
# Elastic Compliance Matrix: (Units=1/GPa)
#
#
# Indices 1 2 3 4 5 6 
#
# 1 0.017133 -0.005562 -0.011607 0.000000 0.000000 0.000000
# 2 -0.005562 0.012902 -0.001989 0.000000 0.000000 0.000000
# 3 -0.011607 -0.001989 0.023807 0.000000 0.000000 0.000000
# 4 0.000000 0.000000 0.000000 0.241507 0.000000 0.000000
# 5 0.000000 0.000000 0.000000 0.000000 0.038778 0.000000
# 6 0.000000 0.000000 0.000000 0.000000 0.000000 0.032114
#
#
# Mechanical properties :
#
#
# Convention : Reuss Voigt Hill
#
# Bulk Modulus (GPa) = 64.40620 72.00609 68.20615
# Shear Modulus (GPa) = 12.20309 21.72736 16.96523
#
# Velocity S-wave (km/s) = 2.62756 3.50607 3.09811
# Velocity P-wave (km/s) = 6.75604 7.55834 7.16842
#
# Compressibility (1/GPa) = 0.01552645
#
# Stress axis : x y z
#
# Youngs Moduli (GPa) = 58.36662 77.50504 42.00465
#
# Poissons Ratio (x) = 0.43107 0.48757
# Poissons Ratio (y) = 0.32463 0.08353
# Poissons Ratio (z) = 0.67749 0.15413
#
# Static dielectric constant tensor:
#      x y z
#    x 3.169900 0.000000 0.000000 
#    y 0.000000 3.291100 0.000000 
#    z 0.000000 0.000000 3.193300 
# 
# 
# High freq. dielectric constant tensor:
#      x y z
#    x 1.685440 0.000000 0.000000 
#    y 0.000000 1.690130 0.000000 
#    z 0.000000 0.000000 1.673480 
# 
# From -- ./inp_files/32023.got.cif
#   From: 2010.03.12/outbox.cif.g09.slc.cpg/sg64_17_cif.got.tgz:32023.got - 2010.04.10 20:19:32.
