data_PCOD8262418
_publ_section_title
;
Structure prediction by ZEFSAII (Michael W. Deem and Ramdas Pophale) SiO2 
 PCOD8262418
Probable space group: C M C A
;
_chemical_formula_sum "Si O2"
_cell_formula_units_Z 96
_cell_length_a 8.936583
_cell_length_b 20.626243
_cell_length_c 28.412875
_cell_angle_alpha 90.000000
_cell_angle_beta 90.000000
_cell_angle_gamma 90.000000
_cell_volume 5237.292189
_symmetry_space_group_name_H-M "C M C A"
_symmetry_group_IT_number 64
_symmetry_cell_setting 'orthorhombic'
loop_
_space_group_symop_operation_xyz
x,y,z
-x,1/2-y,1/2+z
x,-y,-z
-x,1/2+y,1/2-z
-x,-y,-z
x,1/2+y,1/2-z
-x,y,z
x,1/2-y,1/2+z
1/2+x,1/2+y,z
1/2-x,-y,1/2+z
1/2+x,1/2-y,-z
1/2-x,y,1/2-z
1/2-x,1/2-y,-z
1/2+x,y,1/2-z
1/2-x,1/2+y,z
1/2+x,-y,1/2+z
loop_
_atom_site_type_symbol
_atom_site_label
_atom_site_fract_x
_atom_site_fract_y
_atom_site_fract_z
Si Si1 0.822056 0.501590 0.052390
Si Si2 0.323589 0.427104 0.702557
Si Si3 0.176175 0.128239 0.603727
Si Si4 0.174956 0.425033 0.202756
Si Si5 0.822299 0.373949 0.894533
Si Si6 0.321937 0.747090 0.948571
O O1 0.770016 0.437751 0.079419
O O2 0.754774 0.565118 0.077195
O O3 0.000000 0.505393 0.052227
O O4 0.756526 0.500000 0.000000
O O5 0.500000 0.424204 0.708478
O O6 0.250000 0.399706 0.750000
O O7 0.271280 0.501197 0.692637
O O8 0.269725 0.381044 0.659704
O O9 0.216242 0.121530 0.659007
O O10 0.270813 0.184791 0.580306
O O11 0.000000 0.140820 0.595821
O O12 0.250000 0.396953 0.250000
O O13 0.000000 0.425001 0.211264
O O14 0.763147 0.308268 0.918261
O O15 0.000000 0.376170 0.896881
O O16 0.500000 0.747393 0.954200
O O17 0.250000 0.750000 0.000000
#
# Coordination Sequence:
#
# PCOD8262418 Si02
#       6
#    16  16  16  16  16  16
#     4   9  15  26  50  78  98 124 172 224 259 300
#     4   9  16  30  52  79 106 132 170 216 263 310
#     4  10  19  34  55  80 106 136 176 221 266 312
#     4   9  17  30  52  80 108 136 170 216 265 313
#     4   9  17  32  53  77 102 135 179 218 254 307
#     4  11  23  38  56  77 106 144 179 217 266 321
#
# _framework density 18.330082999999998
#
# number of rings (size 3 to 8) (size 9 to 14) (size 15 to 20)
#    0.000    2.500    1.667    1.500    0.000    3.333 
#    0.000    2.500    0.000    9.500    0.000    0.000 
#    0.000    0.000    0.000    0.000    0.000    0.000 
#
# Total GULP energy -595063.817101 kJ/mol
# GULP energy per Si atom -12397.162856 kJ/mol
# Density = 1.828836 g / cm^3
# Si number density = 18.330083 Si / 1000 Ang^3
#
#
#
# Elastic Constant Matrix: (Units=GPa)
#
#
# Indices 1 2 3 4 5 6 
#
# 1 32.3676 29.1490 40.3096 0.0000 0.0000 0.0000
# 2 29.1490 119.3986 75.5237 0.0000 0.0000 0.0000
# 3 40.3096 75.5237 182.5027 0.0000 0.0000 0.0000
# 4 0.0000 0.0000 0.0000 33.0841 0.0000 0.0000
# 5 0.0000 0.0000 0.0000 0.0000 30.2167 0.0000
# 6 0.0000 0.0000 0.0000 0.0000 0.0000 21.1143
#
#
#
# Elastic Compliance Matrix: (Units=1/GPa)
#
#
# Indices 1 2 3 4 5 6 
#
# 1 0.046081 -0.006518 -0.007481 0.000000 0.000000 0.000000
# 2 -0.006518 0.012267 -0.003637 0.000000 0.000000 0.000000
# 3 -0.007481 -0.003637 0.008637 0.000000 0.000000 0.000000
# 4 0.000000 0.000000 0.000000 0.030226 0.000000 0.000000
# 5 0.000000 0.000000 0.000000 0.000000 0.033094 0.000000
# 6 0.000000 0.000000 0.000000 0.000000 0.000000 0.047361
#
#
# Mechanical properties :
#
#
# Convention : Reuss Voigt Hill
#
# Bulk Modulus (GPa) = 31.53195 69.35927 50.44561
# Shear Modulus (GPa) = 22.37049 29.50211 25.93630
#
# Velocity S-wave (km/s) = 3.49725 4.01620 3.76567
# Velocity P-wave (km/s) = 5.79200 7.70893 6.81817
#
# Compressibility (1/GPa) = 0.03171387
#
# Stress axis : x y z
#
# Youngs Moduli (GPa) = 21.70076 81.52016 115.78674
#
# Poissons Ratio (x) = 0.53136 0.86616
# Poissons Ratio (y) = 0.14145 0.42108
# Poissons Ratio (z) = 0.16234 0.29646
#
# Static dielectric constant tensor:
#      x y z
#    x 2.981710 0.000000 0.000000 
#    y 0.000000 3.400820 0.000000 
#    z 0.000000 0.000000 3.803860 
# 
# 
# High freq. dielectric constant tensor:
#      x y z
#    x 1.670690 0.000000 0.000000 
#    y 0.000000 1.697960 0.000000 
#    z 0.000000 0.000000 1.731250 
# 
# From -- ./inp_files/44223.got.cif
#   From: 2010.03.12/outbox.cif.g09.slc.cpg/sg64_23_cif.got.tgz:44223.got - 2010.04.10 20:19:32.
