data_PCOD8262460
_publ_section_title
;
Structure prediction by ZEFSAII (Michael W. Deem and Ramdas Pophale) SiO2 
 PCOD8262460
Probable space group: C M C A
;
_chemical_formula_sum "Si O2"
_cell_formula_units_Z 88
_cell_length_a 28.916012
_cell_length_b 24.286962
_cell_length_c 5.179541
_cell_angle_alpha 90.000000
_cell_angle_beta 90.000000
_cell_angle_gamma 90.000000
_cell_volume 3637.498851
_symmetry_space_group_name_H-M "C M C A"
_symmetry_group_IT_number 64
_symmetry_cell_setting 'orthorhombic'
loop_
_space_group_symop_operation_xyz
x,y,z
-x,1/2-y,1/2+z
x,-y,-z
-x,1/2+y,1/2-z
-x,-y,-z
x,1/2+y,1/2-z
-x,y,z
x,1/2-y,1/2+z
1/2+x,1/2+y,z
1/2-x,-y,1/2+z
1/2+x,1/2-y,-z
1/2-x,y,1/2-z
1/2-x,1/2-y,-z
1/2+x,y,1/2-z
1/2-x,1/2+y,z
1/2+x,-y,1/2+z
loop_
_atom_site_type_symbol
_atom_site_label
_atom_site_fract_x
_atom_site_fract_y
_atom_site_fract_z
Si Si1 0.500000 0.713466 0.974460
Si Si2 0.949258 0.892657 0.091295
Si Si3 0.800581 0.811580 0.250252
Si Si4 0.110882 0.231130 0.235169
Si Si5 0.096529 0.937785 0.587779
Si Si6 0.670102 0.133472 0.258222
O O1 0.500000 0.758674 0.752829
O O2 0.454218 0.673422 0.965387
O O3 0.914414 0.900851 0.332905
O O4 0.000000 0.915247 0.175461
O O5 0.936021 0.925783 0.832156
O O6 0.750000 0.782657 0.250000
O O7 0.840044 0.765148 0.209220
O O8 0.801789 0.842726 0.520783
O O9 0.802412 0.859201 0.026199
O O10 0.082491 0.240690 0.500590
O O11 0.121714 0.167292 0.199768
O O12 0.149823 0.926617 0.685411
O O13 0.091352 0.000000 0.500000
#
# Coordination Sequence:
#
# PCOD8262460 Si02
#       6
#     8  16  16  16  16  16
#     4  10  20  42  65  94 133 166 196 244 310 390
#     4  10  24  42  68  98 125 159 221 263 310 400
#     4  10  19  34  58  86 119 159 203 258 315 376
#     4   8  16  29  47  75 112 145 187 234 291 367
#     4  12  24  42  64  91 127 170 213 277 337 366
#     4  10  21  35  53  83 124 155 203 248 316 388
#
# _framework density 24.192447999999999
#
# number of rings (size 3 to 8) (size 9 to 14) (size 15 to 20)
#    0.545    1.455    0.000    3.818    0.000    8.727 
#    0.000   16.364    0.000    2.182    0.000    0.000 
#    0.000    0.000    0.000    0.000    0.000    0.000 
#
# Total GULP energy -545093.654066 kJ/mol
# GULP energy per Si atom -12388.492138 kJ/mol
# Density = 2.413739 g / cm^3
# Si number density = 24.192448 Si / 1000 Ang^3
#
#
#
# Elastic Constant Matrix: (Units=GPa)
#
#
# Indices 1 2 3 4 5 6 
#
# 1 61.2499 15.4250 0.8294 0.0000 0.0000 0.0000
# 2 15.4250 84.0582 20.9532 0.0000 0.0000 0.0000
# 3 0.8294 20.9532 167.7111 0.0000 0.0000 0.0000
# 4 0.0000 0.0000 0.0000 38.1595 0.0000 0.0000
# 5 0.0000 0.0000 0.0000 0.0000 20.3123 0.0000
# 6 0.0000 0.0000 0.0000 0.0000 0.0000 21.0647
#
#
#
# Elastic Compliance Matrix: (Units=1/GPa)
#
#
# Indices 1 2 3 4 5 6 
#
# 1 0.017134 -0.003223 0.000318 0.000000 0.000000 0.000000
# 2 -0.003223 0.012885 -0.001594 0.000000 0.000000 0.000000
# 3 0.000318 -0.001594 0.006160 0.000000 0.000000 0.000000
# 4 0.000000 0.000000 0.000000 0.026206 0.000000 0.000000
# 5 0.000000 0.000000 0.000000 0.000000 0.049231 0.000000
# 6 0.000000 0.000000 0.000000 0.000000 0.000000 0.047473
#
#
# Mechanical properties :
#
#
# Convention : Reuss Voigt Hill
#
# Bulk Modulus (GPa) = 36.79058 43.04828 39.91943
# Shear Modulus (GPa) = 28.22495 34.29477 31.25986
#
# Velocity S-wave (km/s) = 3.41938 3.76916 3.59852
# Velocity P-wave (km/s) = 5.55248 6.06423 5.81399
#
# Compressibility (1/GPa) = 0.02718087
#
# Stress axis : x y z
#
# Youngs Moduli (GPa) = 58.36343 77.60760 162.33247
#
# Poissons Ratio (x) = 0.25016 -0.05162
# Poissons Ratio (y) = 0.18813 0.25874
# Poissons Ratio (z) = -0.01856 0.12370
#
# Static dielectric constant tensor:
#      x y z
#    x 4.390140 0.000000 0.000000 
#    y 0.000000 3.982460 0.000000 
#    z 0.000000 0.000000 5.062680 
# 
# 
# High freq. dielectric constant tensor:
#      x y z
#    x 1.958490 0.000000 0.000000 
#    y 0.000000 1.917090 0.000000 
#    z 0.000000 0.000000 2.000890 
# 
# From -- ./inp_files/3328.got.cif
#   From: 2010.03.12/outbox.cif.g09.slc.cpg/sg64_2_cif.got.tgz:3328.got - 2010.04.10 20:19:32.
