data_PCOD8262529
_publ_section_title
;
Structure prediction by ZEFSAII (Michael W. Deem and Ramdas Pophale) SiO2 
 PCOD8262529
Probable space group: C M C A
;
_chemical_formula_sum "Si O2"
_cell_formula_units_Z 80
_cell_length_a 26.232166
_cell_length_b 18.682758
_cell_length_c 8.056170
_cell_angle_alpha 90.000000
_cell_angle_beta 90.000000
_cell_angle_gamma 90.000000
_cell_volume 3948.241984
_symmetry_space_group_name_H-M "C M C A"
_symmetry_group_IT_number 64
_symmetry_cell_setting 'orthorhombic'
loop_
_space_group_symop_operation_xyz
x,y,z
-x,1/2-y,1/2+z
x,-y,-z
-x,1/2+y,1/2-z
-x,-y,-z
x,1/2+y,1/2-z
-x,y,z
x,1/2-y,1/2+z
1/2+x,1/2+y,z
1/2-x,-y,1/2+z
1/2+x,1/2-y,-z
1/2-x,y,1/2-z
1/2-x,1/2-y,-z
1/2+x,y,1/2-z
1/2-x,1/2+y,z
1/2+x,-y,1/2+z
loop_
_atom_site_type_symbol
_atom_site_label
_atom_site_fract_x
_atom_site_fract_y
_atom_site_fract_z
Si Si1 0.557958 0.349411 0.452714
Si Si2 0.840369 0.842522 0.870467
Si Si3 0.893593 0.729883 0.664958
Si Si4 0.257280 0.669234 0.555353
Si Si5 0.349481 0.923754 0.942185
O O1 0.500000 0.375416 0.469678
O O2 0.567153 0.312894 0.277247
O O3 0.572181 0.293729 0.595949
O O4 0.595505 0.417382 0.469998
O O5 0.845265 0.767085 0.763564
O O6 0.856457 0.910734 0.756357
O O7 0.875495 0.828270 0.030428
O O8 0.785402 0.867457 0.939104
O O9 0.250000 0.655954 0.750000
O O10 0.250000 0.750000 0.500000
O O11 0.312470 0.639436 0.505958
O O12 0.326580 0.000000 0.000000
#
# Coordination Sequence:
#
# PCOD8262529 Si02
#       5
#    16  16  16  16  16
#     4  10  19  35  59  84 114 148 190 244 296 344
#     4  10  19  35  58  83 118 149 183 231 289 349
#     4   9  18  34  59  92 115 141 186 243 297 342
#     4  12  22  36  61  89 116 148 189 236 291 349
#     4  11  25  40  55  81 116 157 199 236 285 348
#
# _framework density 20.262181999999999
#
# number of rings (size 3 to 8) (size 9 to 14) (size 15 to 20)
#    0.000    1.600    0.000    8.400    0.000    2.000 
#    0.000    4.000    0.000    1.200    0.000    0.000 
#    0.000    0.000    0.000    0.000    0.000    0.000 
#
# Total GULP energy -495597.952715 kJ/mol
# GULP energy per Si atom -12389.948818 kJ/mol
# Density = 2.021606 g / cm^3
# Si number density = 20.262182 Si / 1000 Ang^3
#
#
#
# Elastic Constant Matrix: (Units=GPa)
#
#
# Indices 1 2 3 4 5 6 
#
# 1 137.8590 31.5520 40.9743 0.0000 0.0000 0.0000
# 2 31.5520 77.4533 30.3126 0.0000 0.0000 0.0000
# 3 40.9743 30.3126 122.1610 0.0000 0.0000 0.0000
# 4 0.0000 0.0000 0.0000 19.4500 0.0000 0.0000
# 5 0.0000 0.0000 0.0000 0.0000 24.8462 0.0000
# 6 0.0000 0.0000 0.0000 0.0000 0.0000 17.2644
#
#
#
# Elastic Compliance Matrix: (Units=1/GPa)
#
#
# Indices 1 2 3 4 5 6 
#
# 1 0.008505 -0.002601 -0.002207 0.000000 0.000000 0.000000
# 2 -0.002601 0.015095 -0.002873 0.000000 0.000000 0.000000
# 3 -0.002207 -0.002873 0.009639 0.000000 0.000000 0.000000
# 4 0.000000 0.000000 0.000000 0.051414 0.000000 0.000000
# 5 0.000000 0.000000 0.000000 0.000000 0.040248 0.000000
# 6 0.000000 0.000000 0.000000 0.000000 0.000000 0.057923
#
#
# Mechanical properties :
#
#
# Convention : Reuss Voigt Hill
#
# Bulk Modulus (GPa) = 55.93951 60.35013 58.14482
# Shear Modulus (GPa) = 24.49237 27.95441 26.22339
#
# Velocity S-wave (km/s) = 3.48051 3.71837 3.60141
# Velocity P-wave (km/s) = 6.61965 6.94869 6.78616
#
# Compressibility (1/GPa) = 0.01787645
#
# Stress axis : x y z
#
# Youngs Moduli (GPa) = 117.57632 66.24715 103.74239
#
# Poissons Ratio (x) = 0.17230 0.22900
# Poissons Ratio (y) = 0.30579 0.29808
# Poissons Ratio (z) = 0.25953 0.19035
#
# Static dielectric constant tensor:
#      x y z
#    x 4.068630 0.000000 0.000000 
#    y 0.000000 3.303060 0.000000 
#    z 0.000000 0.000000 4.356960 
# 
# 
# High freq. dielectric constant tensor:
#      x y z
#    x 1.784310 0.000000 0.000000 
#    y 0.000000 1.745020 0.000000 
#    z 0.000000 0.000000 1.814390 
# 
# From -- ./inp_files/10228.got.cif
#   From: 2010.03.12/outbox.cif.g09.slc.cpg/sg64_6_cif.got.tgz:10228.got - 2010.04.10 20:19:32.
