data_PCOD8262087
_publ_section_title
;
Structure prediction by ZEFSAII (Michael W. Deem and Ramdas Pophale) SiO2 
 PCOD8262087
Probable space group: C M C A
;
_chemical_formula_sum "Si O2"
_cell_formula_units_Z 80
_cell_length_a 8.885103
_cell_length_b 27.710230
_cell_length_c 18.188791
_cell_angle_alpha 90.000000
_cell_angle_beta 90.000000
_cell_angle_gamma 90.000000
_cell_volume 4478.230360
_symmetry_space_group_name_H-M "C M C A"
_symmetry_group_IT_number 64
_symmetry_cell_setting 'orthorhombic'
loop_
_space_group_symop_operation_xyz
x,y,z
-x,1/2-y,1/2+z
x,-y,-z
-x,1/2+y,1/2-z
-x,-y,-z
x,1/2+y,1/2-z
-x,y,z
x,1/2-y,1/2+z
1/2+x,1/2+y,z
1/2-x,-y,1/2+z
1/2+x,1/2-y,-z
1/2-x,y,1/2-z
1/2-x,1/2-y,-z
1/2+x,y,1/2-z
1/2-x,1/2+y,z
1/2+x,-y,1/2+z
loop_
_atom_site_type_symbol
_atom_site_label
_atom_site_fract_x
_atom_site_fract_y
_atom_site_fract_z
Si Si1 0.323877 0.209478 0.326965
Si Si2 0.177948 0.849116 0.967303
Si Si3 0.178730 0.311594 0.109239
Si Si4 0.323051 0.903934 0.323544
Si Si5 0.823563 0.949672 0.025675
O O1 0.500000 0.210831 0.314181
O O2 0.250000 0.195738 0.250000
O O3 0.279272 0.168286 0.385845
O O4 0.267566 0.260842 0.357183
O O5 0.000000 0.845124 0.982747
O O6 0.259771 0.815011 0.026353
O O7 0.235551 0.904296 0.977572
O O8 0.249977 0.352257 0.160734
O O9 0.000000 0.316823 0.108381
O O10 0.500000 0.896772 0.313695
O O11 0.250000 0.925899 0.250000
O O12 0.285167 0.941134 0.388873
O O13 0.000000 0.953454 0.012964
O O14 0.746441 0.000000 0.000000
#
# Coordination Sequence:
#
# PCOD8262087 Si02
#       5
#    16  16  16  16  16
#     4  10  21  33  46  68  98 131 162 194 232 278
#     4   9  18  33  51  71  95 124 161 200 238 283
#     4  10  19  31  49  72  97 126 160 195 236 284
#     4  10  19  31  49  73 100 126 156 198 243 285
#     4   8  15  30  52  72  90 120 159 195 235 284
#
# _framework density 17.864197999999998
#
# number of rings (size 3 to 8) (size 9 to 14) (size 15 to 20)
#    0.000    2.600    0.000    3.600    0.000    4.000 
#    0.000    1.000    0.000   15.000    0.000    0.000 
#    0.000    0.000    0.000    0.000    0.000    0.000 
#
# Total GULP energy -495942.067398 kJ/mol
# GULP energy per Si atom -12398.551685 kJ/mol
# Density = 1.782354 g / cm^3
# Si number density = 17.864198 Si / 1000 Ang^3
#
#
#
# Elastic Constant Matrix: (Units=GPa)
#
#
# Indices 1 2 3 4 5 6 
#
# 1 48.3810 30.0992 42.8294 0.0000 0.0000 0.0000
# 2 30.0992 103.9900 73.1085 0.0000 0.0000 0.0000
# 3 42.8294 73.1085 150.9690 0.0000 0.0000 0.0000
# 4 0.0000 0.0000 0.0000 21.1897 0.0000 0.0000
# 5 0.0000 0.0000 0.0000 0.0000 33.4202 0.0000
# 6 0.0000 0.0000 0.0000 0.0000 0.0000 14.7171
#
#
#
# Elastic Compliance Matrix: (Units=1/GPa)
#
#
# Indices 1 2 3 4 5 6 
#
# 1 0.028609 -0.003904 -0.006226 0.000000 0.000000 0.000000
# 2 -0.003904 0.015113 -0.006211 0.000000 0.000000 0.000000
# 3 -0.006226 -0.006211 0.011398 0.000000 0.000000 0.000000
# 4 0.000000 0.000000 0.000000 0.047193 0.000000 0.000000
# 5 0.000000 0.000000 0.000000 0.000000 0.029922 0.000000
# 6 0.000000 0.000000 0.000000 0.000000 0.000000 0.067948
#
#
# Mechanical properties :
#
#
# Convention : Reuss Voigt Hill
#
# Bulk Modulus (GPa) = 44.56601 66.15713 55.36157
# Shear Modulus (GPa) = 20.80350 24.35227 22.57789
#
# Velocity S-wave (km/s) = 3.41623 3.69614 3.55894
# Velocity P-wave (km/s) = 6.36884 7.43835 6.92428
#
# Compressibility (1/GPa) = 0.02243863
#
# Stress axis : x y z
#
# Youngs Moduli (GPa) = 34.95351 66.16900 87.73516
#
# Poissons Ratio (x) = 0.25831 0.54624
# Poissons Ratio (y) = 0.13645 0.54493
# Poissons Ratio (z) = 0.21762 0.41098
#
# Static dielectric constant tensor:
#      x y z
#    x 3.137410 0.000000 0.000000 
#    y 0.000000 3.499410 0.000000 
#    z 0.000000 0.000000 3.409700 
# 
# 
# High freq. dielectric constant tensor:
#      x y z
#    x 1.675030 0.000000 0.000000 
#    y 0.000000 1.680220 0.000000 
#    z 0.000000 0.000000 1.696700 
# 
# From -- ./inp_files/29711.got.cif
#   From: 2010.03.12/outbox.cif.g09.slc.cpg/sg64_15_cif.got.tgz:29711.got - 2010.04.10 20:19:32.
