data_PCOD8262038
_publ_section_title
;
Structure prediction by ZEFSAII (Michael W. Deem and Ramdas Pophale) SiO2 
 PCOD8262038
Probable space group: C M C A
;
_chemical_formula_sum "Si O2"
_cell_formula_units_Z 72
_cell_length_a 18.687097
_cell_length_b 16.247081
_cell_length_c 14.840993
_cell_angle_alpha 90.000000
_cell_angle_beta 90.000000
_cell_angle_gamma 90.000000
_cell_volume 4505.885440
_symmetry_space_group_name_H-M "C M C A"
_symmetry_group_IT_number 64
_symmetry_cell_setting 'orthorhombic'
loop_
_space_group_symop_operation_xyz
x,y,z
-x,1/2-y,1/2+z
x,-y,-z
-x,1/2+y,1/2-z
-x,-y,-z
x,1/2+y,1/2-z
-x,y,z
x,1/2-y,1/2+z
1/2+x,1/2+y,z
1/2-x,-y,1/2+z
1/2+x,1/2-y,-z
1/2-x,y,1/2-z
1/2-x,1/2-y,-z
1/2+x,y,1/2-z
1/2-x,1/2+y,z
1/2+x,-y,1/2+z
loop_
_atom_site_type_symbol
_atom_site_label
_atom_site_fract_x
_atom_site_fract_y
_atom_site_fract_z
Si Si1 0.916982 0.825254 0.897988
Si Si2 0.250000 0.562338 0.750000
Si Si3 0.345835 0.001784 0.398069
Si Si4 0.172453 0.780395 0.262905
Si Si5 0.581460 0.668931 0.895538
O O1 0.872722 0.758622 0.842524
O O2 0.000000 0.820631 0.871018
O O3 0.888737 0.915850 0.875180
O O4 0.905339 0.802663 0.002239
O O5 0.278341 0.505288 0.830892
O O6 0.186737 0.622888 0.787078
O O7 0.400887 0.927213 0.384747
O O8 0.315707 0.000000 0.500000
O O9 0.250000 0.735609 0.250000
O O10 0.130224 0.774315 0.168321
O O11 0.500000 0.682207 0.866363
#
# Coordination Sequence:
#
# PCOD8262038 Si02
#       5
#    16   8  16  16  16
#     4  10  19  30  50  74  92 119 158 196 231 269
#     4   8  18  32  44  66  96 126 152 182 232 280
#     4   9  17  31  48  70  92 119 156 194 231 267
#     4   9  19  32  45  69  96 127 150 184 233 280
#     4   9  17  32  50  68  96 124 153 193 231 272
#
# _framework density 15.979101
#
# number of rings (size 3 to 8) (size 9 to 14) (size 15 to 20)
#    0.667    2.222    0.000    1.333    1.556    3.556 
#    0.000    0.000    0.000    0.000    0.000    0.000 
#    0.000   17.778    0.000    0.000    0.000    0.000 
#
# Total GULP energy -446182.365427 kJ/mol
# GULP energy per Si atom -12393.954595 kJ/mol
# Density = 1.594273 g / cm^3
# Si number density = 15.979101 Si / 1000 Ang^3
#
#
#
# Elastic Constant Matrix: (Units=GPa)
#
#
# Indices 1 2 3 4 5 6 
#
# 1 131.1216 43.5056 87.7305 0.0000 0.0000 0.0000
# 2 43.5056 45.4192 42.6553 0.0000 0.0000 0.0000
# 3 87.7305 42.6553 103.8322 0.0000 0.0000 0.0000
# 4 0.0000 0.0000 0.0000 26.0927 0.0000 0.0000
# 5 0.0000 0.0000 0.0000 0.0000 33.6854 0.0000
# 6 0.0000 0.0000 0.0000 0.0000 0.0000 12.9435
#
#
#
# Elastic Compliance Matrix: (Units=1/GPa)
#
#
# Indices 1 2 3 4 5 6 
#
# 1 0.018182 -0.004866 -0.013364 0.000000 0.000000 0.000000
# 2 -0.004866 0.037150 -0.011150 0.000000 0.000000 0.000000
# 3 -0.013364 -0.011150 0.025503 0.000000 0.000000 0.000000
# 4 0.000000 0.000000 0.000000 0.038325 0.000000 0.000000
# 5 0.000000 0.000000 0.000000 0.000000 0.029686 0.000000
# 6 0.000000 0.000000 0.000000 0.000000 0.000000 0.077259
#
#
# Mechanical properties :
#
#
# Convention : Reuss Voigt Hill
#
# Bulk Modulus (GPa) = 45.29945 69.79507 57.54726
# Shear Modulus (GPa) = 17.11019 21.64309 19.37664
#
# Velocity S-wave (km/s) = 3.27584 3.68429 3.48605
# Velocity P-wave (km/s) = 6.53597 7.86591 7.23158
#
# Compressibility (1/GPa) = 0.02207532
#
# Stress axis : x y z
#
# Youngs Moduli (GPa) = 54.99823 26.91822 39.21094
#
# Poissons Ratio (x) = 0.13097 0.52401
# Poissons Ratio (y) = 0.26760 0.43721
# Poissons Ratio (z) = 0.73499 0.30015
#
# Static dielectric constant tensor:
#      x y z
#    x 3.077220 0.000000 0.000000 
#    y 0.000000 2.808950 0.000000 
#    z 0.000000 0.000000 3.062920 
# 
# 
# High freq. dielectric constant tensor:
#      x y z
#    x 1.615610 0.000000 0.000000 
#    y 0.000000 1.592930 0.000000 
#    z 0.000000 0.000000 1.611740 
# 
# From -- ./inp_files/17251.got.cif
#   From: 2010.03.12/outbox.cif.g09.slc.cpg/sg64_9_cif.got.tgz:17251.got - 2010.04.10 20:19:32.
