data_PCOD8262864
_publ_section_title
;
Structure prediction by ZEFSAII (Michael W. Deem and Ramdas Pophale) SiO2 
 PCOD8262864
Probable space group: C M C A
;
_chemical_formula_sum "Si O2"
_cell_formula_units_Z 96
_cell_length_a 21.476721
_cell_length_b 9.498406
_cell_length_c 24.712171
_cell_angle_alpha 90.000000
_cell_angle_beta 90.000000
_cell_angle_gamma 90.000000
_cell_volume 5041.149824
_symmetry_space_group_name_H-M "C M C A"
_symmetry_group_IT_number 64
_symmetry_cell_setting 'orthorhombic'
loop_
_space_group_symop_operation_xyz
x,y,z
-x,1/2-y,1/2+z
x,-y,-z
-x,1/2+y,1/2-z
-x,-y,-z
x,1/2+y,1/2-z
-x,y,z
x,1/2-y,1/2+z
1/2+x,1/2+y,z
1/2-x,-y,1/2+z
1/2+x,1/2-y,-z
1/2-x,y,1/2-z
1/2-x,1/2-y,-z
1/2+x,y,1/2-z
1/2-x,1/2+y,z
1/2+x,-y,1/2+z
loop_
_atom_site_type_symbol
_atom_site_label
_atom_site_fract_x
_atom_site_fract_y
_atom_site_fract_z
Si Si1 0.303081 0.970134 0.562906
Si Si2 0.000000 0.297492 0.691112
Si Si3 0.741253 0.268908 0.122952
Si Si4 0.386587 0.719796 0.322562
Si Si5 0.102558 0.017329 0.146812
Si Si6 0.309899 0.836931 0.719583
Si Si7 0.000000 0.540430 0.195795
O O1 0.271882 0.821308 0.575038
O O2 0.374644 0.977057 0.584517
O O3 0.303414 0.000000 0.500000
O O4 0.262233 0.078826 0.597169
O O5 0.941331 0.348799 0.656137
O O6 0.000000 0.382357 0.746672
O O7 0.000000 0.129165 0.699315
O O8 0.672807 0.206298 0.137941
O O9 0.785564 0.279654 0.176259
O O10 0.362862 0.723829 0.259939
O O11 0.436017 0.592942 0.333090
O O12 0.424449 0.864569 0.336363
O O13 0.163244 0.032661 0.185495
O O14 0.250000 0.899588 0.750000
#
# Coordination Sequence:
#
# PCOD8262864 Si02
#       7
#    16   8  16  16  16  16   8
#     4  10  20  37  58  83 111 145 186 235 284 329
#     4  12  24  38  53  77 111 148 191 227 265 325
#     4   9  20  34  54  83 112 144 181 225 276 331
#     4  10  20  34  53  80 114 149 183 217 271 325
#     4  10  21  35  54  79 110 146 188 230 268 327
#     4   9  18  30  50  79 114 145 176 217 268 328
#     4  12  24  36  56  79 112 154 184 217 270 325
#
# _framework density 19.043274
#
# number of rings (size 3 to 8) (size 9 to 14) (size 15 to 20)
#    0.000    2.000    1.667    2.000    0.000    8.667 
#    0.000    0.417    0.000    0.000    0.000    5.250 
#    0.000    0.000    0.000    0.000    0.000    0.000 
#
# Total GULP energy -594790.379423 kJ/mol
# GULP energy per Si atom -12391.466238 kJ/mol
# Density = 1.899993 g / cm^3
# Si number density = 19.043274 Si / 1000 Ang^3
#
#
#
# Elastic Constant Matrix: (Units=GPa)
#
#
# Indices 1 2 3 4 5 6 
#
# 1 75.5076 32.7223 21.7680 0.0000 0.0000 0.0000
# 2 32.7223 106.2411 13.3416 0.0000 0.0000 0.0000
# 3 21.7680 13.3416 79.3154 0.0000 0.0000 0.0000
# 4 0.0000 0.0000 0.0000 20.2746 0.0000 0.0000
# 5 0.0000 0.0000 0.0000 0.0000 18.4571 0.0000
# 6 0.0000 0.0000 0.0000 0.0000 0.0000 34.6976
#
#
#
# Elastic Compliance Matrix: (Units=1/GPa)
#
#
# Indices 1 2 3 4 5 6 
#
# 1 0.016283 -0.004550 -0.003704 0.000000 0.000000 0.000000
# 2 -0.004550 0.010887 -0.000583 0.000000 0.000000 0.000000
# 3 -0.003704 -0.000583 0.013722 0.000000 0.000000 0.000000
# 4 0.000000 0.000000 0.000000 0.049323 0.000000 0.000000
# 5 0.000000 0.000000 0.000000 0.000000 0.054180 0.000000
# 6 0.000000 0.000000 0.000000 0.000000 0.000000 0.028820
#
#
# Mechanical properties :
#
#
# Convention : Reuss Voigt Hill
#
# Bulk Modulus (GPa) = 43.06586 44.08089 43.57337
# Shear Modulus (GPa) = 25.17269 27.56803 26.37036
#
# Velocity S-wave (km/s) = 3.63969 3.80893 3.72527
# Velocity P-wave (km/s) = 6.35035 6.52242 6.43696
#
# Compressibility (1/GPa) = 0.02322025
#
# Stress axis : x y z
#
# Youngs Moduli (GPa) = 61.41270 91.85133 72.87405
#
# Poissons Ratio (x) = 0.41794 0.26989
# Poissons Ratio (y) = 0.27944 0.04245
# Poissons Ratio (z) = 0.22744 0.05351
#
# Static dielectric constant tensor:
#      x y z
#    x 3.699060 0.000000 0.000000 
#    y 0.000000 3.388230 0.000000 
#    z 0.000000 0.000000 3.344190 
# 
# 
# High freq. dielectric constant tensor:
#      x y z
#    x 1.742770 0.000000 0.000000 
#    y 0.000000 1.737300 0.000000 
#    z 0.000000 0.000000 1.709720 
# 
# From -- ./inp_files/46640.got.cif
#   From: 2010.03.12/outbox.cif.g09.slc.cpg/sg64_24_cif.got.tgz:46640.got - 2010.04.10 20:19:32.
