data_PCOD8262348
_publ_section_title
;
Structure prediction by ZEFSAII (Michael W. Deem and Ramdas Pophale) SiO2 
 PCOD8262348
Probable space group: C M C A
;
_chemical_formula_sum "Si O2"
_cell_formula_units_Z 72
_cell_length_a 13.732712
_cell_length_b 17.874526
_cell_length_c 16.024010
_cell_angle_alpha 90.000000
_cell_angle_beta 90.000000
_cell_angle_gamma 90.000000
_cell_volume 3933.345115
_symmetry_space_group_name_H-M "C M C A"
_symmetry_group_IT_number 64
_symmetry_cell_setting 'orthorhombic'
loop_
_space_group_symop_operation_xyz
x,y,z
-x,1/2-y,1/2+z
x,-y,-z
-x,1/2+y,1/2-z
-x,-y,-z
x,1/2+y,1/2-z
-x,y,z
x,1/2-y,1/2+z
1/2+x,1/2+y,z
1/2-x,-y,1/2+z
1/2+x,1/2-y,-z
1/2-x,y,1/2-z
1/2-x,1/2-y,-z
1/2+x,y,1/2-z
1/2-x,1/2+y,z
1/2+x,-y,1/2+z
loop_
_atom_site_type_symbol
_atom_site_label
_atom_site_fract_x
_atom_site_fract_y
_atom_site_fract_z
Si Si1 0.113051 0.046545 0.280512
Si Si2 0.750000 0.237967 0.750000
Si Si3 0.219700 0.372613 0.637612
Si Si4 0.110933 0.913207 0.019801
Si Si5 0.613643 0.610620 0.793882
O O1 0.135233 0.093023 0.196361
O O2 0.181659 0.077320 0.354894
O O3 0.000000 0.056902 0.304634
O O4 0.140190 0.960092 0.264083
O O5 0.756762 0.288520 0.667100
O O6 0.655838 0.185306 0.746604
O O7 0.181495 0.368939 0.543393
O O8 0.153537 0.900688 0.112220
O O9 0.000000 0.883789 0.010874
O O10 0.115372 0.000000 0.000000
O O11 0.500000 0.620772 0.799007
#
# Coordination Sequence:
#
# PCOD8262348 Si02
#       5
#    16   8  16  16  16
#     4   9  17  32  54  78 101 133 179 218 252 301
#     4  10  22  34  50  78 112 142 166 204 268 324
#     4  10  20  32  54  81 104 136 171 218 262 307
#     4  10  19  33  56  82 101 130 179 227 258 293
#     4  10  20  34  54  77 105 138 175 216 258 306
#
# _framework density 18.305029999999999
#
# number of rings (size 3 to 8) (size 9 to 14) (size 15 to 20)
#    0.000    2.444    2.222    2.000    0.000    5.333 
#    0.000    0.000    0.000    2.000    0.000    0.000 
#    0.000    0.000    0.000    0.000    0.000    0.000 
#
# Total GULP energy -446339.599454 kJ/mol
# GULP energy per Si atom -12398.322207 kJ/mol
# Density = 1.826337 g / cm^3
# Si number density = 18.305030 Si / 1000 Ang^3
#
#
#
# Elastic Constant Matrix: (Units=GPa)
#
#
# Indices 1 2 3 4 5 6 
#
# 1 88.8787 41.5622 46.3908 0.0000 0.0000 0.0000
# 2 41.5622 119.7459 29.0565 0.0000 0.0000 0.0000
# 3 46.3908 29.0565 64.1465 0.0000 0.0000 0.0000
# 4 0.0000 0.0000 0.0000 10.7789 0.0000 0.0000
# 5 0.0000 0.0000 0.0000 0.0000 30.5634 0.0000
# 6 0.0000 0.0000 0.0000 0.0000 0.0000 13.1895
#
#
#
# Elastic Compliance Matrix: (Units=1/GPa)
#
#
# Indices 1 2 3 4 5 6 
#
# 1 0.019468 -0.003753 -0.012379 0.000000 0.000000 0.000000
# 2 -0.003753 0.010106 -0.001863 0.000000 0.000000 0.000000
# 3 -0.012379 -0.001863 0.025386 0.000000 0.000000 0.000000
# 4 0.000000 0.000000 0.000000 0.092773 0.000000 0.000000
# 5 0.000000 0.000000 0.000000 0.000000 0.032719 0.000000
# 6 0.000000 0.000000 0.000000 0.000000 0.000000 0.075818
#
#
# Mechanical properties :
#
#
# Convention : Reuss Voigt Hill
#
# Bulk Modulus (GPa) = 52.71933 56.30999 54.51466
# Shear Modulus (GPa) = 16.74576 21.29048 19.01812
#
# Velocity S-wave (km/s) = 3.02788 3.41412 3.22678
# Velocity P-wave (km/s) = 6.40992 6.80958 6.61277
#
# Compressibility (1/GPa) = 0.01896838
#
# Stress axis : x y z
#
# Youngs Moduli (GPa) = 51.36724 98.95260 39.39209
#
# Poissons Ratio (x) = 0.37139 0.48763
# Poissons Ratio (y) = 0.19279 0.07340
# Poissons Ratio (z) = 0.63587 0.18438
#
# Static dielectric constant tensor:
#      x y z
#    x 3.380450 0.000000 0.000000 
#    y 0.000000 3.366840 0.000000 
#    z 0.000000 0.000000 3.476510 
# 
# 
# High freq. dielectric constant tensor:
#      x y z
#    x 1.711560 0.000000 0.000000 
#    y 0.000000 1.705070 0.000000 
#    z 0.000000 0.000000 1.683080 
# 
# From -- ./inp_files/23537.got.cif
#   From: 2010.03.12/outbox.cif.g09.slc.cpg/sg64_12_cif.got.tgz:23537.got - 2010.04.10 20:19:32.
