data_PCOD8262544
_publ_section_title
;
Structure prediction by ZEFSAII (Michael W. Deem and Ramdas Pophale) SiO2 
 PCOD8262544
Probable space group: C M C A
;
_chemical_formula_sum "Si O2"
_cell_formula_units_Z 80
_cell_length_a 8.953435
_cell_length_b 15.759202
_cell_length_c 28.548088
_cell_angle_alpha 90.000000
_cell_angle_beta 90.000000
_cell_angle_gamma 90.000000
_cell_volume 4028.106405
_symmetry_space_group_name_H-M "C M C A"
_symmetry_group_IT_number 64
_symmetry_cell_setting 'orthorhombic'
loop_
_space_group_symop_operation_xyz
x,y,z
-x,1/2-y,1/2+z
x,-y,-z
-x,1/2+y,1/2-z
-x,-y,-z
x,1/2+y,1/2-z
-x,y,z
x,1/2-y,1/2+z
1/2+x,1/2+y,z
1/2-x,-y,1/2+z
1/2+x,1/2-y,-z
1/2-x,y,1/2-z
1/2-x,1/2-y,-z
1/2+x,y,1/2-z
1/2-x,1/2+y,z
1/2+x,-y,1/2+z
loop_
_atom_site_type_symbol
_atom_site_label
_atom_site_fract_x
_atom_site_fract_y
_atom_site_fract_z
Si Si1 0.322517 0.876939 0.199896
Si Si2 0.329892 0.789246 0.455595
Si Si3 0.176474 0.036386 0.549068
Si Si4 0.176434 0.040088 0.355320
Si Si5 0.171253 0.772550 0.645333
O O1 0.500000 0.877857 0.204329
O O2 0.250000 0.864252 0.250000
O O3 0.276924 0.797940 0.167625
O O4 0.259978 0.965180 0.177871
O O5 0.500000 0.806408 0.469742
O O6 0.250000 0.750000 0.500000
O O7 0.252514 0.875170 0.439895
O O8 0.319058 0.727061 0.411094
O O9 0.000000 0.050910 0.547242
O O10 0.236160 0.000000 0.500000
O O11 0.226227 0.974065 0.590874
O O12 0.228771 0.133681 0.338596
O O13 0.000000 0.035761 0.353131
O O14 0.000000 0.756534 0.661329
#
# Coordination Sequence:
#
# PCOD8262544 Si02
#       5
#    16  16  16  16  16
#     4  11  23  41  64  89 119 156 200 252 304 361
#     4  11  22  35  56  86 124 163 205 252 300 359
#     4  10  19  35  59  85 119 161 202 245 302 363
#     4   9  19  37  61  87 119 157 198 243 299 361
#     4  10  21  40  63  89 121 159 202 250 301 359
#
# _framework density 19.860447000000001
#
# number of rings (size 3 to 8) (size 9 to 14) (size 15 to 20)
#    0.000    1.800    2.000    2.400    0.000    5.200 
#    0.000    5.000    0.000    0.000    0.000    0.000 
#    0.000    0.000    0.000    0.000    0.000    0.000 
#
# Total GULP energy -495969.947074 kJ/mol
# GULP energy per Si atom -12399.248677 kJ/mol
# Density = 1.981524 g / cm^3
# Si number density = 19.860447 Si / 1000 Ang^3
#
#
#
# Elastic Constant Matrix: (Units=GPa)
#
#
# Indices 1 2 3 4 5 6 
#
# 1 51.5576 27.4058 27.3317 0.0000 0.0000 0.0000
# 2 27.4058 141.3427 34.5707 0.0000 0.0000 0.0000
# 3 27.3317 34.5707 99.3840 0.0000 0.0000 0.0000
# 4 0.0000 0.0000 0.0000 28.7232 0.0000 0.0000
# 5 0.0000 0.0000 0.0000 0.0000 22.5166 0.0000
# 6 0.0000 0.0000 0.0000 0.0000 0.0000 28.2664
#
#
#
# Elastic Compliance Matrix: (Units=1/GPa)
#
#
# Indices 1 2 3 4 5 6 
#
# 1 0.024059 -0.003330 -0.005458 0.000000 0.000000 0.000000
# 2 -0.003330 0.008194 -0.001934 0.000000 0.000000 0.000000
# 3 -0.005458 -0.001934 0.012236 0.000000 0.000000 0.000000
# 4 0.000000 0.000000 0.000000 0.034815 0.000000 0.000000
# 5 0.000000 0.000000 0.000000 0.000000 0.044412 0.000000
# 6 0.000000 0.000000 0.000000 0.000000 0.000000 0.035378
#
#
# Mechanical properties :
#
#
# Convention : Reuss Voigt Hill
#
# Bulk Modulus (GPa) = 43.39567 52.32233 47.85900
# Shear Modulus (GPa) = 26.56465 29.43300 27.99883
#
# Velocity S-wave (km/s) = 3.66124 3.85384 3.75877
# Velocity P-wave (km/s) = 6.30640 6.79742 6.55651
#
# Compressibility (1/GPa) = 0.02304377
#
# Stress axis : x y z
#
# Youngs Moduli (GPa) = 41.56383 122.04320 81.72639
#
# Poissons Ratio (x) = 0.40640 0.44608
# Poissons Ratio (y) = 0.13841 0.15809
# Poissons Ratio (z) = 0.22687 0.23608
#
# Static dielectric constant tensor:
#      x y z
#    x 3.280620 0.000000 0.000000 
#    y 0.000000 3.824130 0.000000 
#    z 0.000000 0.000000 3.652890 
# 
# 
# High freq. dielectric constant tensor:
#      x y z
#    x 1.752290 0.000000 0.000000 
#    y 0.000000 1.787830 0.000000 
#    z 0.000000 0.000000 1.776870 
# 
# From -- ./inp_files/47870.got.cif
#   From: 2010.03.12/outbox.cif.g09.slc.cpg/sg64_24_cif.got.tgz:47870.got - 2010.04.10 20:19:32.
