data_PCOD8262022
_publ_section_title
;
Structure prediction by ZEFSAII (Michael W. Deem and Ramdas Pophale) SiO2 
 PCOD8262022
Probable space group: C M C A
;
_chemical_formula_sum "Si O2"
_cell_formula_units_Z 96
_cell_length_a 9.291415
_cell_length_b 18.570080
_cell_length_c 31.081599
_cell_angle_alpha 90.000000
_cell_angle_beta 90.000000
_cell_angle_gamma 90.000000
_cell_volume 5362.891197
_symmetry_space_group_name_H-M "C M C A"
_symmetry_group_IT_number 64
_symmetry_cell_setting 'orthorhombic'
loop_
_space_group_symop_operation_xyz
x,y,z
-x,1/2-y,1/2+z
x,-y,-z
-x,1/2+y,1/2-z
-x,-y,-z
x,1/2+y,1/2-z
-x,y,z
x,1/2-y,1/2+z
1/2+x,1/2+y,z
1/2-x,-y,1/2+z
1/2+x,1/2-y,-z
1/2-x,y,1/2-z
1/2-x,1/2-y,-z
1/2+x,y,1/2-z
1/2-x,1/2+y,z
1/2+x,-y,1/2+z
loop_
_atom_site_type_symbol
_atom_site_label
_atom_site_fract_x
_atom_site_fract_y
_atom_site_fract_z
Si Si1 0.331556 0.154252 0.293070
Si Si2 0.166546 0.578235 0.130847
Si Si3 0.835229 0.591656 0.873847
Si Si4 0.837500 0.582787 0.450772
Si Si5 0.666695 0.678161 0.707653
Si Si6 0.660803 0.411779 0.045367
O O1 0.500000 0.135281 0.288878
O O2 0.250000 0.129974 0.250000
O O3 0.262004 0.110666 0.331651
O O4 0.306740 0.238249 0.301965
O O5 0.186508 0.492819 0.133061
O O6 0.227106 0.609724 0.085727
O O7 0.000000 0.600810 0.135530
O O8 0.771105 0.633133 0.832580
O O9 0.759386 0.620869 0.917091
O O10 0.000000 0.612818 0.879624
O O11 0.786779 0.612552 0.497599
O O12 0.835936 0.497250 0.452144
O O13 0.000000 0.609443 0.440347
O O14 0.500000 0.660783 0.715440
O O15 0.750000 0.652500 0.750000
O O16 0.500000 0.383109 0.053064
#
# Coordination Sequence:
#
# PCOD8262022 Si02
#       6
#    16  16  16  16  16  16
#     4  10  20  35  53  69  90 122 158 194 231 276
#     4  10  19  30  47  73 101 125 153 191 234 278
#     4   9  18  31  47  71 100 124 151 191 236 278
#     4   8  14  26  43  65  95 127 158 190 226 272
#     4   9  19  35  52  69  90 121 158 192 230 277
#     4   8  14  25  43  67  94 125 158 190 227 273
#
# _framework density 17.900791999999999
#
# number of rings (size 3 to 8) (size 9 to 14) (size 15 to 20)
#    0.000    3.000    0.000    2.000    0.000    3.333 
#    0.000    5.000    0.000    1.000    0.000    0.000 
#    0.000    0.000    0.000    0.000    0.000    0.000 
#
# Total GULP energy -595019.059919 kJ/mol
# GULP energy per Si atom -12396.230415 kJ/mol
# Density = 1.786005 g / cm^3
# Si number density = 17.900792 Si / 1000 Ang^3
#
#
#
# Elastic Constant Matrix: (Units=GPa)
#
#
# Indices 1 2 3 4 5 6 
#
# 1 104.8399 26.6974 87.9886 0.0000 0.0000 0.0000
# 2 26.6974 20.1665 36.6924 0.0000 0.0000 0.0000
# 3 87.9886 36.6924 180.8541 0.0000 0.0000 0.0000
# 4 0.0000 0.0000 0.0000 -3.9609 0.0000 0.0000
# 5 0.0000 0.0000 0.0000 0.0000 42.4955 0.0000
# 6 0.0000 0.0000 0.0000 0.0000 0.0000 15.9769
#
#
#
# Elastic Compliance Matrix: (Units=1/GPa)
#
#
# Indices 1 2 3 4 5 6 
#
# 1 0.017895 -0.012443 -0.006182 0.000000 0.000000 0.000000
# 2 -0.012443 0.087255 -0.011649 0.000000 0.000000 0.000000
# 3 -0.006182 -0.011649 0.010900 0.000000 0.000000 0.000000
# 4 0.000000 0.000000 0.000000 -0.252469 0.000000 0.000000
# 5 0.000000 0.000000 0.000000 0.000000 0.023532 0.000000
# 6 0.000000 0.000000 0.000000 0.000000 0.000000 0.062591
#
#
# Mechanical properties :
#
#
# Convention : Reuss Voigt Hill
#
# Bulk Modulus (GPa) = 18.01707 67.62412 42.82060
# Shear Modulus (GPa) = 173.90423 21.20110 97.55267
#
# Velocity S-wave (km/s) = 9.86711 3.44520 7.39017
# Velocity P-wave (km/s) = 11.82793 7.32701 9.83832
#
# Compressibility (1/GPa) = 0.05550291
#
# Stress axis : x y z
#
# Youngs Moduli (GPa) = 55.88128 11.46072 91.74084
#
# Poissons Ratio (x) = 0.14260 0.56713
# Poissons Ratio (y) = 0.69531 1.06868
# Poissons Ratio (z) = 0.34545 0.13351
#
# Static dielectric constant tensor:
#      x y z
#    x 3.436510 0.000000 0.000000 
#    y 0.000000 2.921270 0.000000 
#    z 0.000000 0.000000 3.742060 
# 
# 
# High freq. dielectric constant tensor:
#      x y z
#    x 1.694360 0.000000 0.000000 
#    y 0.000000 1.645490 0.000000 
#    z 0.000000 0.000000 1.711170 
# 
# From -- ./inp_files/48070.got.cif
#   From: 2010.03.12/outbox.cif.g09.slc.cpg/sg64_25_cif.got.tgz:48070.got - 2010.04.10 20:19:32.
