data_PCOD8262540
_publ_section_title
;
Structure prediction by ZEFSAII (Michael W. Deem and Ramdas Pophale) SiO2 
 PCOD8262540
Probable space group: C M C A
;
_chemical_formula_sum "Si O2"
_cell_formula_units_Z 96
_cell_length_a 8.945053
_cell_length_b 29.606245
_cell_length_c 19.007708
_cell_angle_alpha 90.000000
_cell_angle_beta 90.000000
_cell_angle_gamma 90.000000
_cell_volume 5033.800488
_symmetry_space_group_name_H-M "C M C A"
_symmetry_group_IT_number 64
_symmetry_cell_setting 'orthorhombic'
loop_
_space_group_symop_operation_xyz
x,y,z
-x,1/2-y,1/2+z
x,-y,-z
-x,1/2+y,1/2-z
-x,-y,-z
x,1/2+y,1/2-z
-x,y,z
x,1/2-y,1/2+z
1/2+x,1/2+y,z
1/2-x,-y,1/2+z
1/2+x,1/2-y,-z
1/2-x,y,1/2-z
1/2-x,1/2-y,-z
1/2+x,y,1/2-z
1/2-x,1/2+y,z
1/2+x,-y,1/2+z
loop_
_atom_site_type_symbol
_atom_site_label
_atom_site_fract_x
_atom_site_fract_y
_atom_site_fract_z
Si Si1 0.825152 0.094595 0.067262
Si Si2 0.674814 0.482781 0.825593
Si Si3 0.324340 0.352999 0.179081
Si Si4 0.174749 0.810894 0.554993
Si Si5 0.325280 0.276570 0.400484
Si Si6 0.824895 0.064490 0.917587
O O1 0.794338 0.064518 0.135711
O O2 0.733860 0.140361 0.077252
O O3 0.000000 0.106394 0.058256
O O4 0.767133 0.067395 0.998054
O O5 0.500000 0.491006 0.813936
O O6 0.750000 0.482180 0.750000
O O7 0.745662 0.522719 0.874036
O O8 0.500000 0.348096 0.189593
O O9 0.250000 0.371414 0.250000
O O10 0.255036 0.304583 0.160579
O O11 0.282367 0.388486 0.118758
O O12 0.259231 0.773735 0.601776
O O13 0.211262 0.801332 0.473725
O O14 0.000000 0.807624 0.570847
O O15 0.500000 0.274186 0.384968
O O16 0.000000 0.055748 0.918831
#
# Coordination Sequence:
#
# PCOD8262540 Si02
#       6
#    16  16  16  16  16  16
#     4  10  19  35  59  84 110 145 192 237 278 332
#     4  10  21  37  57  81 112 150 188 231 281 336
#     4  11  21  34  54  81 116 152 188 232 285 338
#     4  10  20  34  56  84 112 141 180 232 284 331
#     4  10  20  35  55  80 111 146 185 226 277 337
#     4   9  18  34  57  83 109 145 190 234 278 331
#
# _framework density 19.071078
#
# number of rings (size 3 to 8) (size 9 to 14) (size 15 to 20)
#    0.000    2.000    1.667    2.500    0.000    4.000 
#    0.000    2.500    0.000    4.000    0.000    0.000 
#    0.000    0.000    0.000    0.000    0.000    0.000 
#
# Total GULP energy -595293.158375 kJ/mol
# GULP energy per Si atom -12401.940799 kJ/mol
# Density = 1.902767 g / cm^3
# Si number density = 19.071078 Si / 1000 Ang^3
#
#
#
# Elastic Constant Matrix: (Units=GPa)
#
#
# Indices 1 2 3 4 5 6 
#
# 1 65.6759 44.2933 26.9676 0.0000 0.0000 0.0000
# 2 44.2933 116.3793 37.5949 0.0000 0.0000 0.0000
# 3 26.9676 37.5949 80.7939 0.0000 0.0000 0.0000
# 4 0.0000 0.0000 0.0000 9.0764 0.0000 0.0000
# 5 0.0000 0.0000 0.0000 0.0000 30.8842 0.0000
# 6 0.0000 0.0000 0.0000 0.0000 0.0000 28.9810
#
#
#
# Elastic Compliance Matrix: (Units=1/GPa)
#
#
# Indices 1 2 3 4 5 6 
#
# 1 0.021513 -0.006906 -0.003967 0.000000 0.000000 0.000000
# 2 -0.006906 0.012330 -0.003432 0.000000 0.000000 0.000000
# 3 -0.003967 -0.003432 0.015298 0.000000 0.000000 0.000000
# 4 0.000000 0.000000 0.000000 0.110176 0.000000 0.000000
# 5 0.000000 0.000000 0.000000 0.000000 0.032379 0.000000
# 6 0.000000 0.000000 0.000000 0.000000 0.000000 0.034505
#
#
# Mechanical properties :
#
#
# Convention : Reuss Voigt Hill
#
# Bulk Modulus (GPa) = 48.70849 53.39563 51.05206
# Shear Modulus (GPa) = 19.10912 24.05453 21.58183
#
# Velocity S-wave (km/s) = 3.16886 3.55534 3.36765
# Velocity P-wave (km/s) = 6.24379 6.70171 6.47680
#
# Compressibility (1/GPa) = 0.02053030
#
# Stress axis : x y z
#
# Youngs Moduli (GPa) = 46.48368 81.10463 65.36660
#
# Poissons Ratio (x) = 0.56012 0.25931
# Poissons Ratio (y) = 0.32103 0.22434
# Poissons Ratio (z) = 0.18440 0.27836
#
# Static dielectric constant tensor:
#      x y z
#    x 3.299420 0.000000 0.000000 
#    y 0.000000 3.522950 0.000000 
#    z 0.000000 0.000000 3.529250 
# 
# 
# High freq. dielectric constant tensor:
#      x y z
#    x 1.725760 0.000000 0.000000 
#    y 0.000000 1.750430 0.000000 
#    z 0.000000 0.000000 1.732330 
# 
# From -- ./inp_files/37035.got.cif
#   From: 2010.03.12/outbox.cif.g09.slc.cpg/sg64_19_cif.got.tgz:37035.got - 2010.04.10 20:19:32.
