data_PCOD8262578
_publ_section_title
;
Structure prediction by ZEFSAII (Michael W. Deem and Ramdas Pophale) SiO2 
 PCOD8262578
Probable space group: C M C A
;
_chemical_formula_sum "Si O2"
_cell_formula_units_Z 80
_cell_length_a 15.471954
_cell_length_b 15.502934
_cell_length_c 16.869518
_cell_angle_alpha 90.000000
_cell_angle_beta 90.000000
_cell_angle_gamma 90.000000
_cell_volume 4046.334088
_symmetry_space_group_name_H-M "C M C A"
_symmetry_group_IT_number 64
_symmetry_cell_setting 'orthorhombic'
loop_
_space_group_symop_operation_xyz
x,y,z
-x,1/2-y,1/2+z
x,-y,-z
-x,1/2+y,1/2-z
-x,-y,-z
x,1/2+y,1/2-z
-x,y,z
x,1/2-y,1/2+z
1/2+x,1/2+y,z
1/2-x,-y,1/2+z
1/2+x,1/2-y,-z
1/2-x,y,1/2-z
1/2-x,1/2-y,-z
1/2+x,y,1/2-z
1/2-x,1/2+y,z
1/2+x,-y,1/2+z
loop_
_atom_site_type_symbol
_atom_site_label
_atom_site_fract_x
_atom_site_fract_y
_atom_site_fract_z
Si Si1 0.099016 0.917582 0.579371
Si Si2 0.314380 0.095299 0.924089
Si Si3 0.403735 0.806008 0.205187
Si Si4 0.148523 0.377813 0.748253
Si Si5 0.826640 0.556489 0.688059
O O1 0.169551 0.878363 0.515985
O O2 0.112727 0.874033 0.663044
O O3 0.000000 0.903548 0.550769
O O4 0.118104 0.018341 0.591088
O O5 0.338371 0.172132 0.865471
O O6 0.215163 0.067523 0.900690
O O7 0.500000 0.832195 0.181060
O O8 0.398433 0.703602 0.210518
O O9 0.381225 0.859073 0.286435
O O10 0.250000 0.361463 0.750000
O O11 0.122278 0.464940 0.698432
O O12 0.750000 0.544524 0.750000
#
# Coordination Sequence:
#
# PCOD8262578 Si02
#       5
#    16  16  16  16  16
#     4  11  20  33  60  91 116 144 193 254 299 331
#     4  10  19  36  57  84 114 146 187 244 302 342
#     4  11  21  34  56  84 115 153 197 241 286 342
#     4  11  20  36  56  81 117 152 188 231 288 355
#     4   9  18  36  54  78 114 150 189 229 288 354
#
# _framework density 19.770982
#
# number of rings (size 3 to 8) (size 9 to 14) (size 15 to 20)
#    0.000    1.600    6.000    4.800    0.000    0.800 
#    0.000    4.000    0.000    0.000    0.000    4.200 
#    0.000    0.000    0.000    0.000    0.000    0.000 
#
# Total GULP energy -495532.870807 kJ/mol
# GULP energy per Si atom -12388.321770 kJ/mol
# Density = 1.972598 g / cm^3
# Si number density = 19.770982 Si / 1000 Ang^3
#
#
#
# Elastic Constant Matrix: (Units=GPa)
#
#
# Indices 1 2 3 4 5 6 
#
# 1 52.1535 19.9555 19.0569 0.0000 0.0000 0.0000
# 2 19.9555 104.9213 29.2727 0.0000 0.0000 0.0000
# 3 19.0569 29.2727 93.9345 0.0000 0.0000 0.0000
# 4 0.0000 0.0000 0.0000 24.8898 0.0000 0.0000
# 5 0.0000 0.0000 0.0000 0.0000 28.5020 0.0000
# 6 0.0000 0.0000 0.0000 0.0000 0.0000 61.2436
#
#
#
# Elastic Compliance Matrix: (Units=1/GPa)
#
#
# Indices 1 2 3 4 5 6 
#
# 1 0.021628 -0.003164 -0.003402 0.000000 0.000000 0.000000
# 2 -0.003164 0.010902 -0.002755 0.000000 0.000000 0.000000
# 3 -0.003402 -0.002755 0.012194 0.000000 0.000000 0.000000
# 4 0.000000 0.000000 0.000000 0.040177 0.000000 0.000000
# 5 0.000000 0.000000 0.000000 0.000000 0.035085 0.000000
# 6 0.000000 0.000000 0.000000 0.000000 0.000000 0.016328
#
#
# Mechanical properties :
#
#
# Convention : Reuss Voigt Hill
#
# Bulk Modulus (GPa) = 38.34177 43.06440 40.70308
# Shear Modulus (GPa) = 30.55285 35.10869 32.83077
#
# Velocity S-wave (km/s) = 3.93534 4.21856 4.07941
# Velocity P-wave (km/s) = 6.33122 6.74961 6.54376
#
# Compressibility (1/GPa) = 0.02608122
#
# Stress axis : x y z
#
# Youngs Moduli (GPa) = 46.23650 91.73031 82.00467
#
# Poissons Ratio (x) = 0.29028 0.27895
# Poissons Ratio (y) = 0.14631 0.22594
# Poissons Ratio (z) = 0.15728 0.25274
#
# Static dielectric constant tensor:
#      x y z
#    x 3.719410 0.000000 0.000000 
#    y 0.000000 3.669270 0.000000 
#    z 0.000000 0.000000 4.156200 
# 
# 
# High freq. dielectric constant tensor:
#      x y z
#    x 1.752190 0.000000 0.000000 
#    y 0.000000 1.764690 0.000000 
#    z 0.000000 0.000000 1.748410 
# 
# From -- ./inp_files/33009.got.cif
#   From: 2010.03.12/outbox.cif.g09.slc.cpg/sg64_17_cif.got.tgz:33009.got - 2010.04.10 20:19:32.
