data_PCOD8262636
_publ_section_title
;
Structure prediction by ZEFSAII (Michael W. Deem and Ramdas Pophale) SiO2 
 PCOD8262636
Probable space group: C M C A
;
_chemical_formula_sum "Si O2"
_cell_formula_units_Z 112
_cell_length_a 22.386667
_cell_length_b 16.225235
_cell_length_c 15.830337
_cell_angle_alpha 90.000000
_cell_angle_beta 90.000000
_cell_angle_gamma 90.000000
_cell_volume 5750.036417
_symmetry_space_group_name_H-M "C M C A"
_symmetry_group_IT_number 64
_symmetry_cell_setting 'orthorhombic'
loop_
_space_group_symop_operation_xyz
x,y,z
-x,1/2-y,1/2+z
x,-y,-z
-x,1/2+y,1/2-z
-x,-y,-z
x,1/2+y,1/2-z
-x,y,z
x,1/2-y,1/2+z
1/2+x,1/2+y,z
1/2-x,-y,1/2+z
1/2+x,1/2-y,-z
1/2-x,y,1/2-z
1/2-x,1/2-y,-z
1/2+x,y,1/2-z
1/2-x,1/2+y,z
1/2+x,-y,1/2+z
loop_
_atom_site_type_symbol
_atom_site_label
_atom_site_fract_x
_atom_site_fract_y
_atom_site_fract_z
Si Si1 0.732127 0.411104 0.461143
Si Si2 0.070145 0.747621 0.927757
Si Si3 0.157248 0.842838 0.140338
Si Si4 0.430559 0.409715 0.016686
Si Si5 0.642433 0.171530 0.077573
Si Si6 0.866276 0.619660 0.826700
Si Si7 0.068443 0.478495 0.902790
O O1 0.746088 0.500000 0.500000
O O2 0.792476 0.373084 0.424523
O O3 0.705153 0.352680 0.533959
O O4 0.685192 0.416331 0.385722
O O5 0.082573 0.845803 0.939237
O O6 0.108583 0.711123 0.849548
O O7 0.000000 0.729858 0.914912
O O8 0.092465 0.699926 0.010510
O O9 0.157812 0.743477 0.143838
O O10 0.162692 0.878481 0.234138
O O11 0.094765 0.874218 0.103657
O O12 0.500000 0.418190 0.033039
O O13 0.402413 0.500000 0.000000
O O14 0.612181 0.095244 0.126718
O O15 0.920740 0.555532 0.839885
O O16 0.000000 0.451082 0.894339
O O17 0.084939 0.500000 0.000000
#
# Coordination Sequence:
#
# PCOD8262636 Si02
#       7
#    16  16  16  16  16  16  16
#     4  11  20  40  66  86 113 160 209 252 288 357
#     4   9  17  32  58  83 109 151 199 242 290 351
#     4  11  24  36  59  85 124 156 193 246 318 357
#     4   9  19  38  57  77 110 157 206 242 281 358
#     4  10  19  37  59  89 115 153 205 247 288 362
#     4  11  21  37  56  89 127 151 191 255 313 356
#     4  11  19  35  66  93 118 157 204 251 300 357
#
# _framework density 19.478138000000001
#
# number of rings (size 3 to 8) (size 9 to 14) (size 15 to 20)
#    0.000    1.714    4.286    2.143    0.000    1.714 
#    2.571    0.000    3.143    0.000    0.000    0.000 
#    0.000    0.000    0.000    0.000    0.000    0.000 
#
# Total GULP energy -694244.135685 kJ/mol
# GULP energy per Si atom -12397.216709 kJ/mol
# Density = 1.943380 g / cm^3
# Si number density = 19.478138 Si / 1000 Ang^3
#
#
#
# Elastic Constant Matrix: (Units=GPa)
#
#
# Indices 1 2 3 4 5 6 
#
# 1 72.6436 45.3332 29.5658 0.0000 0.0000 0.0000
# 2 45.3332 145.4838 43.7607 0.0000 0.0000 0.0000
# 3 29.5658 43.7607 73.4158 0.0000 0.0000 0.0000
# 4 0.0000 0.0000 0.0000 22.4210 0.0000 0.0000
# 5 0.0000 0.0000 0.0000 0.0000 11.6334 0.0000
# 6 0.0000 0.0000 0.0000 0.0000 0.0000 30.0189
#
#
#
# Elastic Compliance Matrix: (Units=1/GPa)
#
#
# Indices 1 2 3 4 5 6 
#
# 1 0.018414 -0.004274 -0.004868 0.000000 0.000000 0.000000
# 2 -0.004274 0.009367 -0.003862 0.000000 0.000000 0.000000
# 3 -0.004868 -0.003862 0.017884 0.000000 0.000000 0.000000
# 4 0.000000 0.000000 0.000000 0.044601 0.000000 0.000000
# 5 0.000000 0.000000 0.000000 0.000000 0.085959 0.000000
# 6 0.000000 0.000000 0.000000 0.000000 0.000000 0.033312
#
#
# Mechanical properties :
#
#
# Convention : Reuss Voigt Hill
#
# Bulk Modulus (GPa) = 50.87375 58.76250 54.81813
# Shear Modulus (GPa) = 20.65277 24.34023 22.49650
#
# Velocity S-wave (km/s) = 3.25976 3.53883 3.40216
# Velocity P-wave (km/s) = 6.35163 6.85067 6.60586
#
# Compressibility (1/GPa) = 0.01965650
#
# Stress axis : x y z
#
# Youngs Moduli (GPa) = 54.30598 106.75732 55.91636
#
# Poissons Ratio (x) = 0.45623 0.27222
# Poissons Ratio (y) = 0.23208 0.21597
# Poissons Ratio (z) = 0.26438 0.41233
#
# Static dielectric constant tensor:
#      x y z
#    x 3.594610 0.000000 0.000000 
#    y 0.000000 3.922720 0.000000 
#    z 0.000000 0.000000 3.157190 
# 
# 
# High freq. dielectric constant tensor:
#      x y z
#    x 1.765910 0.000000 0.000000 
#    y 0.000000 1.772230 0.000000 
#    z 0.000000 0.000000 1.712320 
# 
# From -- ./inp_files/27410.got.cif
#   From: 2010.03.12/outbox.cif.g09.slc.cpg/sg64_14_cif.got.tgz:27410.got - 2010.04.10 20:19:32.
