data_PCOD8262407
_publ_section_title
;
Structure prediction by ZEFSAII (Michael W. Deem and Ramdas Pophale) SiO2 
 PCOD8262407
Probable space group: C M C A
;
_chemical_formula_sum "Si O2"
_cell_formula_units_Z 72
_cell_length_a 18.394779
_cell_length_b 12.526036
_cell_length_c 17.043373
_cell_angle_alpha 90.000000
_cell_angle_beta 90.000000
_cell_angle_gamma 90.000000
_cell_volume 3927.026019
_symmetry_space_group_name_H-M "C M C A"
_symmetry_group_IT_number 64
_symmetry_cell_setting 'orthorhombic'
loop_
_space_group_symop_operation_xyz
x,y,z
-x,1/2-y,1/2+z
x,-y,-z
-x,1/2+y,1/2-z
-x,-y,-z
x,1/2+y,1/2-z
-x,y,z
x,1/2-y,1/2+z
1/2+x,1/2+y,z
1/2-x,-y,1/2+z
1/2+x,1/2-y,-z
1/2-x,y,1/2-z
1/2-x,1/2-y,-z
1/2+x,y,1/2-z
1/2-x,1/2+y,z
1/2+x,-y,1/2+z
loop_
_atom_site_type_symbol
_atom_site_label
_atom_site_fract_x
_atom_site_fract_y
_atom_site_fract_z
Si Si1 0.650688 0.347755 0.112501
Si Si2 0.858324 0.048709 0.209470
Si Si3 0.259832 0.000000 0.500000
Si Si4 0.500000 0.586420 0.119587
Si Si5 0.000000 0.851605 0.048634
Si Si6 0.790863 0.378701 0.859227
O O1 0.642125 0.422393 0.189586
O O2 0.573278 0.300129 0.083809
O O3 0.699522 0.247730 0.134639
O O4 0.687217 0.417192 0.043788
O O5 0.930324 0.103947 0.174899
O O6 0.851633 0.066261 0.303137
O O7 0.790359 0.108299 0.171832
O O8 0.205093 0.063173 0.443014
O O9 0.500000 0.473211 0.077156
O O10 0.500000 0.667127 0.045670
#
# Coordination Sequence:
#
# PCOD8262407 Si02
#       6
#    16  16   8   8   8  16
#     4  10  19  34  54  78 104 134 176 213 253 304
#     4   9  20  34  53  78 102 136 173 212 256 302
#     4  10  20  33  52  77 102 134 174 216 258 303
#     4   9  16  33  54  75 104 130 173 220 249 294
#     4   9  16  29  54  79 100 135 173 214 251 293
#     4  10  20  33  52  79 109 137 167 212 263 309
#
# _framework density 18.334484
#
# number of rings (size 3 to 8) (size 9 to 14) (size 15 to 20)
#    0.000    2.444    0.000    4.667    0.000    8.000 
#    0.000    0.000    0.000    2.667    0.000    6.222 
#    0.000    0.000    0.000    0.000    0.000    0.000 
#
# Total GULP energy -446274.789065 kJ/mol
# GULP energy per Si atom -12396.521918 kJ/mol
# Density = 1.829275 g / cm^3
# Si number density = 18.334484 Si / 1000 Ang^3
#
#
#
# Elastic Constant Matrix: (Units=GPa)
#
#
# Indices 1 2 3 4 5 6 
#
# 1 106.6196 35.0801 36.5072 0.0000 0.0000 0.0000
# 2 35.0801 88.7199 41.6587 0.0000 0.0000 0.0000
# 3 36.5072 41.6587 103.3366 0.0000 0.0000 0.0000
# 4 0.0000 0.0000 0.0000 22.8593 0.0000 0.0000
# 5 0.0000 0.0000 0.0000 0.0000 21.8876 0.0000
# 6 0.0000 0.0000 0.0000 0.0000 0.0000 13.2799
#
#
#
# Elastic Compliance Matrix: (Units=1/GPa)
#
#
# Indices 1 2 3 4 5 6 
#
# 1 0.011369 -0.003219 -0.002719 0.000000 0.000000 0.000000
# 2 -0.003219 0.014814 -0.004835 0.000000 0.000000 0.000000
# 3 -0.002719 -0.004835 0.012587 0.000000 0.000000 0.000000
# 4 0.000000 0.000000 0.000000 0.043746 0.000000 0.000000
# 5 0.000000 0.000000 0.000000 0.000000 0.045688 0.000000
# 6 0.000000 0.000000 0.000000 0.000000 0.000000 0.075302
#
#
# Mechanical properties :
#
#
# Convention : Reuss Voigt Hill
#
# Bulk Modulus (GPa) = 58.05542 58.35201 58.20372
# Shear Modulus (GPa) = 21.66443 23.96737 22.81590
#
# Velocity S-wave (km/s) = 3.44120 3.61948 3.53147
# Velocity P-wave (km/s) = 6.89366 7.02588 6.96008
#
# Compressibility (1/GPa) = 0.01722492
#
# Stress axis : x y z
#
# Youngs Moduli (GPa) = 87.95730 67.50167 79.44772
#
# Poissons Ratio (x) = 0.21727 0.21602
# Poissons Ratio (y) = 0.28311 0.38414
# Poissons Ratio (z) = 0.23915 0.32638
#
# Static dielectric constant tensor:
#      x y z
#    x 3.501790 0.000000 0.000000 
#    y 0.000000 3.074340 0.000000 
#    z 0.000000 0.000000 3.876110 
# 
# 
# High freq. dielectric constant tensor:
#      x y z
#    x 1.707960 0.000000 0.000000 
#    y 0.000000 1.678360 0.000000 
#    z 0.000000 0.000000 1.716300 
# 
# From -- ./inp_files/32883.got.cif
#   From: 2010.03.12/outbox.cif.g09.slc.cpg/sg64_17_cif.got.tgz:32883.got - 2010.04.10 20:19:32.
