data_PCOD8262648
_publ_section_title
;
Structure prediction by ZEFSAII (Michael W. Deem and Ramdas Pophale) SiO2 
 PCOD8262648
Probable space group: C M C A
;
_chemical_formula_sum "Si O2"
_cell_formula_units_Z 96
_cell_length_a 26.355566
_cell_length_b 17.158087
_cell_length_c 10.602969
_cell_angle_alpha 90.000000
_cell_angle_beta 90.000000
_cell_angle_gamma 90.000000
_cell_volume 4794.780215
_symmetry_space_group_name_H-M "C M C A"
_symmetry_group_IT_number 64
_symmetry_cell_setting 'orthorhombic'
loop_
_space_group_symop_operation_xyz
x,y,z
-x,1/2-y,1/2+z
x,-y,-z
-x,1/2+y,1/2-z
-x,-y,-z
x,1/2+y,1/2-z
-x,y,z
x,1/2-y,1/2+z
1/2+x,1/2+y,z
1/2-x,-y,1/2+z
1/2+x,1/2-y,-z
1/2-x,y,1/2-z
1/2-x,1/2-y,-z
1/2+x,y,1/2-z
1/2-x,1/2+y,z
1/2+x,-y,1/2+z
loop_
_atom_site_type_symbol
_atom_site_label
_atom_site_fract_x
_atom_site_fract_y
_atom_site_fract_z
Si Si1 0.308790 0.583002 0.766404
Si Si2 0.142393 0.815583 0.036011
Si Si3 0.879728 0.456425 0.622657
Si Si4 0.942642 0.891990 0.663806
Si Si5 0.875799 0.152765 0.559971
Si Si6 0.556831 0.212846 0.719655
O O1 0.250000 0.566901 0.750000
O O2 0.316325 0.656234 0.861066
O O3 0.332516 0.505429 0.825243
O O4 0.334767 0.600011 0.631467
O O5 0.086965 0.821512 0.100686
O O6 0.141883 0.871085 0.913523
O O7 0.154519 0.726748 0.998220
O O8 0.902654 0.500000 0.500000
O O9 0.923390 0.450884 0.728011
O O10 0.904002 0.898509 0.546233
O O11 0.941809 0.805796 0.720391
O O12 0.000000 0.915666 0.624316
O O13 0.919915 0.184190 0.649850
O O14 0.500000 0.180636 0.709277
#
# Coordination Sequence:
#
# PCOD8262648 Si02
#       6
#    16  16  16  16  16  16
#     4  10  23  42  61  83 112 157 203 252 313 358
#     4   9  19  37  61  85 120 151 194 252 290 353
#     4  10  21  41  58  82 123 158 197 242 289 360
#     4  10  20  34  58  90 122 160 195 231 292 357
#     4  10  19  37  61  90 122 148 194 254 294 349
#     4   9  17  31  59  92 120 154 190 233 292 350
#
# _framework density 20.021773
#
# number of rings (size 3 to 8) (size 9 to 14) (size 15 to 20)
#    0.000    2.333    1.667    0.500    0.000    3.000 
#    9.000    9.167    0.000    0.000    0.000    0.000 
#    0.000    0.000    0.000    0.000    0.000    0.000 
#
# Total GULP energy -595242.523438 kJ/mol
# GULP energy per Si atom -12400.885905 kJ/mol
# Density = 1.997620 g / cm^3
# Si number density = 20.021773 Si / 1000 Ang^3
#
#
#
# Elastic Constant Matrix: (Units=GPa)
#
#
# Indices 1 2 3 4 5 6 
#
# 1 127.5985 45.1042 59.7312 0.0000 0.0000 0.0000
# 2 45.1042 60.9745 45.0395 0.0000 0.0000 0.0000
# 3 59.7312 45.0395 125.9124 0.0000 0.0000 0.0000
# 4 0.0000 0.0000 0.0000 37.5933 0.0000 0.0000
# 5 0.0000 0.0000 0.0000 0.0000 18.1459 0.0000
# 6 0.0000 0.0000 0.0000 0.0000 0.0000 25.3261
#
#
#
# Elastic Compliance Matrix: (Units=1/GPa)
#
#
# Indices 1 2 3 4 5 6 
#
# 1 0.011534 -0.006103 -0.003288 0.000000 0.000000 0.000000
# 2 -0.006103 0.025519 -0.006233 0.000000 0.000000 0.000000
# 3 -0.003288 -0.006233 0.011732 0.000000 0.000000 0.000000
# 4 0.000000 0.000000 0.000000 0.026600 0.000000 0.000000
# 5 0.000000 0.000000 0.000000 0.000000 0.055109 0.000000
# 6 0.000000 0.000000 0.000000 0.000000 0.000000 0.039485
#
#
# Mechanical properties :
#
#
# Convention : Reuss Voigt Hill
#
# Bulk Modulus (GPa) = 57.02712 68.24836 62.63774
# Shear Modulus (GPa) = 24.14614 27.18707 25.66661
#
# Velocity S-wave (km/s) = 3.47651 3.68893 3.58430
# Velocity P-wave (km/s) = 6.68276 7.23225 6.96292
#
# Compressibility (1/GPa) = 0.01753552
#
# Stress axis : x y z
#
# Youngs Moduli (GPa) = 86.70257 39.18687 85.23924
#
# Poissons Ratio (x) = 0.23914 0.28031
# Poissons Ratio (y) = 0.52911 0.53131
# Poissons Ratio (z) = 0.28512 0.24426
#
# Static dielectric constant tensor:
#      x y z
#    x 3.365190 0.000000 0.000000 
#    y 0.000000 3.620380 0.000000 
#    z 0.000000 0.000000 3.842100 
# 
# 
# High freq. dielectric constant tensor:
#      x y z
#    x 1.753090 0.000000 0.000000 
#    y 0.000000 1.776400 0.000000 
#    z 0.000000 0.000000 1.792730 
# 
# From -- ./inp_files/18362.got.cif
#   From: 2010.03.12/outbox.cif.g09.slc.cpg/sg64_10_cif.got.tgz:18362.got - 2010.04.10 20:19:32.
