data_PCOD8262423
_publ_section_title
;
Structure prediction by ZEFSAII (Michael W. Deem and Ramdas Pophale) SiO2 
 PCOD8262423
Probable space group: C M C A
;
_chemical_formula_sum "Si O2"
_cell_formula_units_Z 96
_cell_length_a 8.761246
_cell_length_b 20.571996
_cell_length_c 28.374687
_cell_angle_alpha 90.000000
_cell_angle_beta 90.000000
_cell_angle_gamma 90.000000
_cell_volume 5114.149100
_symmetry_space_group_name_H-M "C M C A"
_symmetry_group_IT_number 64
_symmetry_cell_setting 'orthorhombic'
loop_
_space_group_symop_operation_xyz
x,y,z
-x,1/2-y,1/2+z
x,-y,-z
-x,1/2+y,1/2-z
-x,-y,-z
x,1/2+y,1/2-z
-x,y,z
x,1/2-y,1/2+z
1/2+x,1/2+y,z
1/2-x,-y,1/2+z
1/2+x,1/2-y,-z
1/2-x,y,1/2-z
1/2-x,1/2-y,-z
1/2+x,y,1/2-z
1/2-x,1/2+y,z
1/2+x,-y,1/2+z
loop_
_atom_site_type_symbol
_atom_site_label
_atom_site_fract_x
_atom_site_fract_y
_atom_site_fract_z
Si Si1 0.819473 0.672374 0.700921
Si Si2 0.820187 0.177759 0.298309
Si Si3 0.818726 0.864917 0.393164
Si Si4 0.819328 0.246407 0.448919
Si Si5 0.318332 0.993753 0.053269
Si Si6 0.819147 0.380516 0.893984
O O1 0.750000 0.647046 0.750000
O O2 0.772407 0.747509 0.692886
O O3 0.745318 0.628969 0.659754
O O4 0.000000 0.662776 0.701031
O O5 0.750000 0.150583 0.250000
O O6 0.755989 0.134083 0.341391
O O7 0.000000 0.172365 0.294334
O O8 0.749527 0.801297 0.416163
O O9 0.000000 0.860352 0.392129
O O10 0.763060 0.926686 0.423523
O O11 0.750000 0.250000 0.500000
O O12 0.769446 0.177138 0.428493
O O13 0.000000 0.254702 0.450509
O O14 0.500000 0.997577 0.051983
O O15 0.251788 0.052535 0.085174
O O16 0.253953 0.000000 0.000000
O O17 0.000000 0.384229 0.891294
#
# Coordination Sequence:
#
# PCOD8262423 Si02
#       6
#    16  16  16  16  16  16
#     4  10  19  34  55  82 112 145 182 226 277 328
#     4   9  17  31  52  78 104 136 173 218 271 319
#     4  11  21  34  55  84 112 145 184 225 276 331
#     4  11  21  35  55  80 108 140 181 233 281 325
#     4   9  18  33  54  78 106 145 190 227 263 322
#     4   9  17  33  54  76 105 140 180 224 272 320
#
# _framework density 18.771452
#
# number of rings (size 3 to 8) (size 9 to 14) (size 15 to 20)
#    0.000    2.167    1.667    2.500    0.000    3.333 
#    0.000    0.833    0.000   15.000    0.000    0.000 
#    0.000    0.000    0.000    0.000    0.000    0.000 
#
# Total GULP energy -595198.817604 kJ/mol
# GULP energy per Si atom -12399.975367 kJ/mol
# Density = 1.872873 g / cm^3
# Si number density = 18.771452 Si / 1000 Ang^3
#
#
#
# Elastic Constant Matrix: (Units=GPa)
#
#
# Indices 1 2 3 4 5 6 
#
# 1 46.2653 25.7663 30.6263 0.0000 0.0000 0.0000
# 2 25.7663 69.3854 34.4845 0.0000 0.0000 0.0000
# 3 30.6263 34.4845 155.9084 0.0000 0.0000 0.0000
# 4 0.0000 0.0000 0.0000 32.1194 0.0000 0.0000
# 5 0.0000 0.0000 0.0000 0.0000 33.7241 0.0000
# 6 0.0000 0.0000 0.0000 0.0000 0.0000 15.9567
#
#
#
# Elastic Compliance Matrix: (Units=1/GPa)
#
#
# Indices 1 2 3 4 5 6 
#
# 1 0.029063 -0.008938 -0.003732 0.000000 0.000000 0.000000
# 2 -0.008938 0.018941 -0.002434 0.000000 0.000000 0.000000
# 3 -0.003732 -0.002434 0.007685 0.000000 0.000000 0.000000
# 4 0.000000 0.000000 0.000000 0.031134 0.000000 0.000000
# 5 0.000000 0.000000 0.000000 0.000000 0.029652 0.000000
# 6 0.000000 0.000000 0.000000 0.000000 0.000000 0.062669
#
#
# Mechanical properties :
#
#
# Convention : Reuss Voigt Hill
#
# Bulk Modulus (GPa) = 39.24337 50.36814 44.80576
# Shear Modulus (GPa) = 22.95206 28.40552 25.67879
#
# Velocity S-wave (km/s) = 3.50052 3.89425 3.70262
# Velocity P-wave (km/s) = 6.10651 6.86373 6.49616
#
# Compressibility (1/GPa) = 0.02548201
#
# Stress axis : x y z
#
# Youngs Moduli (GPa) = 34.40847 52.79615 130.11576
#
# Poissons Ratio (x) = 0.47187 0.48561
# Poissons Ratio (y) = 0.30753 0.31667
# Poissons Ratio (z) = 0.12842 0.12849
#
# Static dielectric constant tensor:
#      x y z
#    x 3.154750 0.000000 0.000000 
#    y 0.000000 3.508420 0.000000 
#    z 0.000000 0.000000 3.742940 
# 
# 
# High freq. dielectric constant tensor:
#      x y z
#    x 1.701970 0.000000 0.000000 
#    y 0.000000 1.713590 0.000000 
#    z 0.000000 0.000000 1.751380 
# 
# From -- ./inp_files/48087.got.cif
#   From: 2010.03.12/outbox.cif.g09.slc.cpg/sg64_25_cif.got.tgz:48087.got - 2010.04.10 20:19:32.
