data_PCOD8262225
_publ_section_title
;
Structure prediction by ZEFSAII (Michael W. Deem and Ramdas Pophale) SiO2 
 PCOD8262225
Probable space group: C M C A
;
_chemical_formula_sum "Si O2"
_cell_formula_units_Z 96
_cell_length_a 20.704079
_cell_length_b 9.054097
_cell_length_c 24.247313
_cell_angle_alpha 90.000000
_cell_angle_beta 90.000000
_cell_angle_gamma 90.000000
_cell_volume 4545.322238
_symmetry_space_group_name_H-M "C M C A"
_symmetry_group_IT_number 64
_symmetry_cell_setting 'orthorhombic'
loop_
_space_group_symop_operation_xyz
x,y,z
-x,1/2-y,1/2+z
x,-y,-z
-x,1/2+y,1/2-z
-x,-y,-z
x,1/2+y,1/2-z
-x,y,z
x,1/2-y,1/2+z
1/2+x,1/2+y,z
1/2-x,-y,1/2+z
1/2+x,1/2-y,-z
1/2-x,y,1/2-z
1/2-x,1/2-y,-z
1/2+x,y,1/2-z
1/2-x,1/2+y,z
1/2+x,-y,1/2+z
loop_
_atom_site_type_symbol
_atom_site_label
_atom_site_fract_x
_atom_site_fract_y
_atom_site_fract_z
Si Si1 0.185076 0.574048 0.633436
Si Si2 0.424822 0.066617 0.940979
Si Si3 0.812245 0.076258 0.370862
Si Si4 0.651058 0.519654 0.253561
Si Si5 0.928624 0.369651 0.599699
Si Si6 0.069726 0.768653 0.282479
O O1 0.187347 0.747783 0.621243
O O2 0.246744 0.495193 0.604240
O O3 0.184450 0.546038 0.699182
O O4 0.121799 0.503471 0.604092
O O5 0.500000 0.036284 0.924418
O O6 0.412047 0.244653 0.946125
O O7 0.376996 0.990474 0.897022
O O8 0.408017 0.000000 0.000000
O O9 0.803629 0.024146 0.307036
O O10 0.584090 0.438123 0.268855
O O11 0.629669 0.687356 0.245382
O O12 0.929349 0.265939 0.653284
O O13 0.000000 0.439693 0.589706
O O14 0.000000 0.729190 0.256891
#
# Coordination Sequence:
#
# PCOD8262225 Si02
#       6
#    16  16  16  16  16  16
#     4  11  25  39  60  92 126 170 209 251 306 373
#     4  10  22  43  71  97 121 157 205 260 320 374
#     4  12  24  40  61  88 126 165 211 258 305 368
#     4  11  21  35  55  86 124 168 206 248 298 367
#     4   9  19  39  62  87 124 160 198 254 310 363
#     4  10  19  32  52  84 122 160 201 247 300 359
#
# _framework density 21.120615000000001
#
# number of rings (size 3 to 8) (size 9 to 14) (size 15 to 20)
#    0.000    1.500    3.333    2.000    2.333    3.333 
#    0.000    4.167    0.000    3.000    0.000    0.000 
#    0.000    0.000    0.000    0.000    0.000    0.000 
#
# Total GULP energy -594727.558271 kJ/mol
# GULP energy per Si atom -12390.157464 kJ/mol
# Density = 2.107254 g / cm^3
# Si number density = 21.120615 Si / 1000 Ang^3
#
#
#
# Elastic Constant Matrix: (Units=GPa)
#
#
# Indices 1 2 3 4 5 6 
#
# 1 123.4895 53.8321 9.5667 0.0000 0.0000 0.0000
# 2 53.8321 115.8075 3.9105 0.0000 0.0000 0.0000
# 3 9.5667 3.9105 24.8180 0.0000 0.0000 0.0000
# 4 0.0000 0.0000 0.0000 16.7386 0.0000 0.0000
# 5 0.0000 0.0000 0.0000 0.0000 15.4007 0.0000
# 6 0.0000 0.0000 0.0000 0.0000 0.0000 31.5010
#
#
#
# Elastic Compliance Matrix: (Units=1/GPa)
#
#
# Indices 1 2 3 4 5 6 
#
# 1 0.010413 -0.004730 -0.003269 0.000000 0.000000 0.000000
# 2 -0.004730 0.010830 0.000117 0.000000 0.000000 0.000000
# 3 -0.003269 0.000117 0.041535 0.000000 0.000000 0.000000
# 4 0.000000 0.000000 0.000000 0.059742 0.000000 0.000000
# 5 0.000000 0.000000 0.000000 0.000000 0.064932 0.000000
# 6 0.000000 0.000000 0.000000 0.000000 0.000000 0.031745
#
#
# Mechanical properties :
#
#
# Convention : Reuss Voigt Hill
#
# Bulk Modulus (GPa) = 21.27022 44.30372 32.78697
# Shear Modulus (GPa) = 19.94959 25.84844 22.89902
#
# Velocity S-wave (km/s) = 3.07670 3.50215 3.29629
# Velocity P-wave (km/s) = 4.76593 6.11355 5.48131
#
# Compressibility (1/GPa) = 0.04701410
#
# Stress axis : x y z
#
# Youngs Moduli (GPa) = 96.03378 92.33798 24.07616
#
# Poissons Ratio (x) = 0.43676 0.07870
# Poissons Ratio (y) = 0.45424 -0.00281
# Poissons Ratio (z) = 0.31390 -0.01079
#
# Static dielectric constant tensor:
#      x y z
#    x 4.014830 0.000000 0.000000 
#    y 0.000000 3.723880 0.000000 
#    z 0.000000 0.000000 3.571120 
# 
# 
# High freq. dielectric constant tensor:
#      x y z
#    x 1.840860 0.000000 0.000000 
#    y 0.000000 1.833270 0.000000 
#    z 0.000000 0.000000 1.788880 
# 
# From -- ./inp_files/50691.got.cif
#   From: 2010.03.12/outbox.cif.g09.slc.cpg/sg64_26_cif.got.tgz:50691.got - 2010.04.10 20:19:32.
