data_PCOD8262329
_publ_section_title
;
Structure prediction by ZEFSAII (Michael W. Deem and Ramdas Pophale) SiO2 
 PCOD8262329
Probable space group: C M C A
;
_chemical_formula_sum "Si O2"
_cell_formula_units_Z 96
_cell_length_a 24.890095
_cell_length_b 21.651472
_cell_length_c 9.005713
_cell_angle_alpha 90.000000
_cell_angle_beta 90.000000
_cell_angle_gamma 90.000000
_cell_volume 4853.243532
_symmetry_space_group_name_H-M "C M C A"
_symmetry_group_IT_number 64
_symmetry_cell_setting 'orthorhombic'
loop_
_space_group_symop_operation_xyz
x,y,z
-x,1/2-y,1/2+z
x,-y,-z
-x,1/2+y,1/2-z
-x,-y,-z
x,1/2+y,1/2-z
-x,y,z
x,1/2-y,1/2+z
1/2+x,1/2+y,z
1/2-x,-y,1/2+z
1/2+x,1/2-y,-z
1/2-x,y,1/2-z
1/2-x,1/2-y,-z
1/2+x,y,1/2-z
1/2-x,1/2+y,z
1/2+x,-y,1/2+z
loop_
_atom_site_type_symbol
_atom_site_label
_atom_site_fract_x
_atom_site_fract_y
_atom_site_fract_z
Si Si1 0.134526 0.749870 0.943475
Si Si2 0.633178 0.056642 0.091324
Si Si3 0.061125 0.460199 0.637986
Si Si4 0.559267 0.346440 0.056852
Si Si5 0.809101 0.677958 0.184204
Si Si6 0.938646 0.364163 0.119517
O O1 0.152951 0.791311 0.806082
O O2 0.091115 0.701111 0.888266
O O3 0.104759 0.794569 0.058892
O O4 0.184046 0.716856 0.030858
O O5 0.601500 0.027038 0.228412
O O6 0.676436 0.106550 0.148911
O O7 0.588887 0.086629 0.985804
O O8 0.661335 0.000000 0.000000
O O9 0.081399 0.500000 0.500000
O O10 0.064828 0.388895 0.588333
O O11 0.000000 0.477820 0.683251
O O12 0.500000 0.315360 0.056327
O O13 0.564983 0.386550 0.208813
O O14 0.750000 0.680502 0.250000
O O15 0.000000 0.356274 0.066658
#
# Coordination Sequence:
#
# PCOD8262329 Si02
#       6
#    16  16  16  16  16  16
#     4  11  20  39  61  89 120 157 195 250 308 361
#     4  11  23  40  62  85 122 160 205 251 305 358
#     4  10  20  34  56  85 120 162 201 238 291 360
#     4  10  19  33  54  85 123 158 195 236 292 364
#     4  11  24  42  66  88 116 154 210 264 314 357
#     4  10  21  35  58  91 128 162 197 236 290 369
#
# _framework density 19.780584999999999
#
# number of rings (size 3 to 8) (size 9 to 14) (size 15 to 20)
#    0.000    1.500    3.333    2.500    0.000    2.667 
#    0.000    0.833    0.000    0.000    0.000    0.000 
#    0.000    0.000    0.000    0.000    0.000    0.000 
#
# Total GULP energy -595063.905646 kJ/mol
# GULP energy per Si atom -12397.164701 kJ/mol
# Density = 1.973556 g / cm^3
# Si number density = 19.780585 Si / 1000 Ang^3
#
#
#
# Elastic Constant Matrix: (Units=GPa)
#
#
# Indices 1 2 3 4 5 6 
#
# 1 66.0789 27.2718 12.4565 0.0000 0.0000 0.0000
# 2 27.2718 87.2030 26.8542 0.0000 0.0000 0.0000
# 3 12.4565 26.8542 76.5508 0.0000 0.0000 0.0000
# 4 0.0000 0.0000 0.0000 39.2592 0.0000 0.0000
# 5 0.0000 0.0000 0.0000 0.0000 22.1775 0.0000
# 6 0.0000 0.0000 0.0000 0.0000 0.0000 18.2106
#
#
#
# Elastic Compliance Matrix: (Units=1/GPa)
#
#
# Indices 1 2 3 4 5 6 
#
# 1 0.017449 -0.005138 -0.001037 0.000000 0.000000 0.000000
# 2 -0.005138 0.014369 -0.004205 0.000000 0.000000 0.000000
# 3 -0.001037 -0.004205 0.014707 0.000000 0.000000 0.000000
# 4 0.000000 0.000000 0.000000 0.025472 0.000000 0.000000
# 5 0.000000 0.000000 0.000000 0.000000 0.045091 0.000000
# 6 0.000000 0.000000 0.000000 0.000000 0.000000 0.054913
#
#
# Mechanical properties :
#
#
# Convention : Reuss Voigt Hill
#
# Bulk Modulus (GPa) = 38.81015 40.33309 39.57162
# Shear Modulus (GPa) = 24.83253 26.81281 25.82267
#
# Velocity S-wave (km/s) = 3.54701 3.68572 3.61703
# Velocity P-wave (km/s) = 6.03638 6.20864 6.12312
#
# Compressibility (1/GPa) = 0.02576645
#
# Stress axis : x y z
#
# Youngs Moduli (GPa) = 57.30871 69.59369 67.99484
#
# Poissons Ratio (x) = 0.35755 0.07052
# Poissons Ratio (y) = 0.29444 0.28590
# Poissons Ratio (z) = 0.05943 0.29262
#
# Static dielectric constant tensor:
#      x y z
#    x 3.277710 0.000000 0.000000 
#    y 0.000000 3.651970 0.000000 
#    z 0.000000 0.000000 3.756710 
# 
# 
# High freq. dielectric constant tensor:
#      x y z
#    x 1.739260 0.000000 0.000000 
#    y 0.000000 1.775210 0.000000 
#    z 0.000000 0.000000 1.787360 
# 
# From -- ./inp_files/9479.got.cif
#   From: 2010.03.12/outbox.cif.g09.slc.cpg/sg64_5_cif.got.tgz:9479.got - 2010.04.10 20:19:32.
