data_PCOD8262064
_publ_section_title
;
Structure prediction by ZEFSAII (Michael W. Deem and Ramdas Pophale) SiO2 
 PCOD8262064
Probable space group: C M C A
;
_chemical_formula_sum "Si O2"
_cell_formula_units_Z 112
_cell_length_a 9.319249
_cell_length_b 23.775160
_cell_length_c 28.426048
_cell_angle_alpha 90.000000
_cell_angle_beta 90.000000
_cell_angle_gamma 90.000000
_cell_volume 6298.263832
_symmetry_space_group_name_H-M "C M C A"
_symmetry_group_IT_number 64
_symmetry_cell_setting 'orthorhombic'
loop_
_space_group_symop_operation_xyz
x,y,z
-x,1/2-y,1/2+z
x,-y,-z
-x,1/2+y,1/2-z
-x,-y,-z
x,1/2+y,1/2-z
-x,y,z
x,1/2-y,1/2+z
1/2+x,1/2+y,z
1/2-x,-y,1/2+z
1/2+x,1/2-y,-z
1/2-x,y,1/2-z
1/2-x,1/2-y,-z
1/2+x,y,1/2-z
1/2-x,1/2+y,z
1/2+x,-y,1/2+z
loop_
_atom_site_type_symbol
_atom_site_label
_atom_site_fract_x
_atom_site_fract_y
_atom_site_fract_z
Si Si1 0.829992 0.843671 0.478074
Si Si2 0.158029 0.463095 0.045364
Si Si3 0.331658 0.146872 0.797919
Si Si4 0.329207 0.171091 0.083709
Si Si5 0.330477 0.723756 0.613829
Si Si6 0.830857 0.049677 0.384076
Si Si7 0.834302 0.980847 0.295431
O O1 0.760840 0.904894 0.466537
O O2 0.776411 0.822663 0.529298
O O3 0.782236 0.803200 0.435922
O O4 0.000000 0.850118 0.481511
O O5 0.242018 0.501715 0.083013
O O6 0.000000 0.447290 0.066044
O O7 0.138111 0.500000 0.000000
O O8 0.500000 0.154225 0.788304
O O9 0.250000 0.164787 0.750000
O O10 0.282643 0.185499 0.841869
O O11 0.292798 0.082469 0.812023
O O12 0.500000 0.177650 0.088431
O O13 0.253036 0.217433 0.116327
O O14 0.272476 0.111613 0.104319
O O15 0.500000 0.734117 0.614911
O O16 0.000000 0.050251 0.394590
O O17 0.793780 0.029776 0.331887
O O18 0.750000 0.999306 0.250000
O O19 0.000000 0.981988 0.282869
#
# Coordination Sequence:
#
# PCOD8262064 Si02
#       7
#    16  16  16  16  16  16  16
#     4   9  16  27  45  70  99 127 158 197 237 279
#     4   9  13  21  41  70  97 118 147 191 238 277
#     4   9  18  33  53  74  95 119 153 198 245 287
#     4  10  19  31  47  70  99 131 164 195 227 273
#     4  10  20  33  48  69  97 129 162 196 237 281
#     4   9  16  27  45  70  99 125 152 193 240 279
#     4   9  17  31  51  74  97 120 150 193 243 289
#
# _framework density 17.782677
#
# number of rings (size 3 to 8) (size 9 to 14) (size 15 to 20)
#    0.000    2.714    1.429    1.286    0.000    4.000 
#    0.000    1.429    0.000    3.429    0.000    4.000 
#    0.000    0.000    0.000    0.000    0.000    0.000 
#
# Total GULP energy -693959.285216 kJ/mol
# GULP energy per Si atom -12392.130093 kJ/mol
# Density = 1.774220 g / cm^3
# Si number density = 17.782677 Si / 1000 Ang^3
#
#
#
# Elastic Constant Matrix: (Units=GPa)
#
#
# Indices 1 2 3 4 5 6 
#
# 1 20.4229 24.9498 31.4708 0.0000 0.0000 0.0000
# 2 24.9498 108.7438 62.1999 0.0000 0.0000 0.0000
# 3 31.4708 62.1999 126.1926 0.0000 0.0000 0.0000
# 4 0.0000 0.0000 0.0000 24.3368 0.0000 0.0000
# 5 0.0000 0.0000 0.0000 0.0000 24.7841 0.0000
# 6 0.0000 0.0000 0.0000 0.0000 0.0000 25.0664
#
#
#
# Elastic Compliance Matrix: (Units=1/GPa)
#
#
# Indices 1 2 3 4 5 6 
#
# 1 0.087460 -0.010571 -0.016601 0.000000 0.000000 0.000000
# 2 -0.010571 0.014084 -0.004306 0.000000 0.000000 0.000000
# 3 -0.016601 -0.004306 0.014187 0.000000 0.000000 0.000000
# 4 0.000000 0.000000 0.000000 0.041090 0.000000 0.000000
# 5 0.000000 0.000000 0.000000 0.000000 0.040348 0.000000
# 6 0.000000 0.000000 0.000000 0.000000 0.000000 0.039894
#
#
# Mechanical properties :
#
#
# Convention : Reuss Voigt Hill
#
# Bulk Modulus (GPa) = 18.94816 54.73337 36.84076
# Shear Modulus (GPa) = 15.74251 23.95338 19.84795
#
# Velocity S-wave (km/s) = 2.97858 3.67414 3.34449
# Velocity P-wave (km/s) = 4.74424 6.98891 5.97297
#
# Compressibility (1/GPa) = 0.05277557
#
# Stress axis : x y z
#
# Youngs Moduli (GPa) = 11.43375 71.00181 70.48829
#
# Poissons Ratio (x) = 0.75057 1.17018
# Poissons Ratio (y) = 0.12087 0.30350
# Poissons Ratio (z) = 0.18981 0.30572
#
# Static dielectric constant tensor:
#      x y z
#    x 2.785550 0.000000 0.000000 
#    y 0.000000 3.424390 0.000000 
#    z 0.000000 0.000000 3.445690 
# 
# 
# High freq. dielectric constant tensor:
#      x y z
#    x 1.629490 0.000000 0.000000 
#    y 0.000000 1.695950 0.000000 
#    z 0.000000 0.000000 1.690640 
# 
# From -- ./inp_files/44399.got.cif
#   From: 2010.03.12/outbox.cif.g09.slc.cpg/sg64_23_cif.got.tgz:44399.got - 2010.04.10 20:19:32.
