data_PCOD8262257
_publ_section_title
;
Structure prediction by ZEFSAII (Michael W. Deem and Ramdas Pophale) SiO2 
 PCOD8262257
Probable space group: C M C A
;
_chemical_formula_sum "Si O2"
_cell_formula_units_Z 96
_cell_length_a 18.928114
_cell_length_b 20.050041
_cell_length_c 12.130880
_cell_angle_alpha 90.000000
_cell_angle_beta 90.000000
_cell_angle_gamma 90.000000
_cell_volume 4603.783739
_symmetry_space_group_name_H-M "C M C A"
_symmetry_group_IT_number 64
_symmetry_cell_setting 'orthorhombic'
loop_
_space_group_symop_operation_xyz
x,y,z
-x,1/2-y,1/2+z
x,-y,-z
-x,1/2+y,1/2-z
-x,-y,-z
x,1/2+y,1/2-z
-x,y,z
x,1/2-y,1/2+z
1/2+x,1/2+y,z
1/2-x,-y,1/2+z
1/2+x,1/2-y,-z
1/2-x,y,1/2-z
1/2-x,1/2-y,-z
1/2+x,y,1/2-z
1/2-x,1/2+y,z
1/2+x,-y,1/2+z
loop_
_atom_site_type_symbol
_atom_site_label
_atom_site_fract_x
_atom_site_fract_y
_atom_site_fract_z
Si Si1 0.174784 0.303902 0.534714
Si Si2 0.420041 0.635521 0.728572
Si Si3 0.581004 0.376865 0.802893
Si Si4 0.214939 0.176105 0.634570
Si Si5 0.579279 0.231798 0.134322
Si Si6 0.418445 0.016871 0.619325
O O1 0.122614 0.356813 0.587135
O O2 0.209687 0.256993 0.627872
O O3 0.233571 0.345555 0.465887
O O4 0.133097 0.249243 0.461533
O O5 0.500000 0.616475 0.687410
O O6 0.361856 0.638227 0.629676
O O7 0.420104 0.709690 0.776086
O O8 0.390935 0.584325 0.822186
O O9 0.500000 0.359024 0.827357
O O10 0.604957 0.337000 0.693607
O O11 0.592873 0.456384 0.792843
O O12 0.250000 0.157104 0.750000
O O13 0.500000 0.222904 0.086257
O O14 0.500000 0.029700 0.594860
O O15 0.382399 0.000000 0.500000
#
# Coordination Sequence:
#
# PCOD8262257 Si02
#       6
#    16  16  16  16  16  16
#     4  11  20  33  55  82 115 152 187 240 286 348
#     4  10  19  35  55  79 113 147 186 237 291 340
#     4  10  19  33  55  88 118 145 191 241 288 341
#     4  11  22  35  53  82 111 148 191 231 290 341
#     4  10  19  32  55  86 113 142 186 237 284 338
#     4   9  18  31  53  83 111 144 184 233 292 342
#
# _framework density 20.852412999999999
#
# number of rings (size 3 to 8) (size 9 to 14) (size 15 to 20)
#    0.000    1.833    3.333    1.500    0.000    3.333 
#    0.000    0.000    0.000    8.000    0.000    4.667 
#    0.000    0.000    0.000    0.000    0.000    0.000 
#
# Total GULP energy -594752.997733 kJ/mol
# GULP energy per Si atom -12390.687453 kJ/mol
# Density = 2.080495 g / cm^3
# Si number density = 20.852413 Si / 1000 Ang^3
#
#
#
# Elastic Constant Matrix: (Units=GPa)
#
#
# Indices 1 2 3 4 5 6 
#
# 1 90.3643 8.3509 32.1572 0.0000 0.0000 0.0000
# 2 8.3509 65.5892 11.4386 0.0000 0.0000 0.0000
# 3 32.1572 11.4386 43.8935 0.0000 0.0000 0.0000
# 4 0.0000 0.0000 0.0000 31.3800 0.0000 0.0000
# 5 0.0000 0.0000 0.0000 0.0000 30.2772 0.0000
# 6 0.0000 0.0000 0.0000 0.0000 0.0000 12.2460
#
#
#
# Elastic Compliance Matrix: (Units=1/GPa)
#
#
# Indices 1 2 3 4 5 6 
#
# 1 0.014969 0.000007 -0.010968 0.000000 0.000000 0.000000
# 2 0.000007 0.015972 -0.004167 0.000000 0.000000 0.000000
# 3 -0.010968 -0.004167 0.031904 0.000000 0.000000 0.000000
# 4 0.000000 0.000000 0.000000 0.031867 0.000000 0.000000
# 5 0.000000 0.000000 0.000000 0.000000 0.033028 0.000000
# 6 0.000000 0.000000 0.000000 0.000000 0.000000 0.081659
#
#
# Mechanical properties :
#
#
# Convention : Reuss Voigt Hill
#
# Bulk Modulus (GPa) = 30.68649 33.74893 32.21771
# Shear Modulus (GPa) = 19.95847 24.64067 22.29957
#
# Velocity S-wave (km/s) = 3.09711 3.44127 3.27372
# Velocity P-wave (km/s) = 5.24761 5.65770 5.45651
#
# Compressibility (1/GPa) = 0.03258763
#
# Stress axis : x y z
#
# Youngs Moduli (GPa) = 66.80538 62.60828 31.34406
#
# Poissons Ratio (x) = -0.00044 0.34379
# Poissons Ratio (y) = -0.00047 0.13063
# Poissons Ratio (z) = 0.73274 0.26092
#
# Static dielectric constant tensor:
#      x y z
#    x 4.095860 0.000000 0.000000 
#    y 0.000000 3.684220 0.000000 
#    z 0.000000 0.000000 3.615720 
# 
# 
# High freq. dielectric constant tensor:
#      x y z
#    x 1.814530 0.000000 0.000000 
#    y 0.000000 1.792330 0.000000 
#    z 0.000000 0.000000 1.790110 
# 
# From -- ./inp_files/17366.got.cif
#   From: 2010.03.12/outbox.cif.g09.slc.cpg/sg64_9_cif.got.tgz:17366.got - 2010.04.10 20:19:32.
