data_PCOD8262400
_publ_section_title
;
Structure prediction by ZEFSAII (Michael W. Deem and Ramdas Pophale) SiO2 
 PCOD8262400
Probable space group: C M C A
;
_chemical_formula_sum "Si O2"
_cell_formula_units_Z 80
_cell_length_a 18.265202
_cell_length_b 21.442190
_cell_length_c 11.682917
_cell_angle_alpha 90.000000
_cell_angle_beta 90.000000
_cell_angle_gamma 90.000000
_cell_volume 4575.566913
_symmetry_space_group_name_H-M "C M C A"
_symmetry_group_IT_number 64
_symmetry_cell_setting 'orthorhombic'
loop_
_space_group_symop_operation_xyz
x,y,z
-x,1/2-y,1/2+z
x,-y,-z
-x,1/2+y,1/2-z
-x,-y,-z
x,1/2+y,1/2-z
-x,y,z
x,1/2-y,1/2+z
1/2+x,1/2+y,z
1/2-x,-y,1/2+z
1/2+x,1/2-y,-z
1/2-x,y,1/2-z
1/2-x,1/2-y,-z
1/2+x,y,1/2-z
1/2-x,1/2+y,z
1/2+x,-y,1/2+z
loop_
_atom_site_type_symbol
_atom_site_label
_atom_site_fract_x
_atom_site_fract_y
_atom_site_fract_z
Si Si1 0.000000 0.647258 0.421337
Si Si2 0.878610 0.222442 0.860332
Si Si3 0.343616 0.369397 0.931263
Si Si4 0.250000 0.799210 0.750000
Si Si5 0.000000 0.342696 0.214706
Si Si6 0.500000 0.055685 0.628990
Si Si7 0.626438 0.000000 0.500000
Si Si8 0.500000 0.281009 0.508686
O O1 0.077073 0.626531 0.364082
O O2 0.000000 0.721358 0.425293
O O3 0.000000 0.618387 0.549860
O O4 0.809879 0.253619 0.801286
O O5 0.925922 0.187854 0.763974
O O6 0.851273 0.174459 0.957581
O O7 0.926968 0.278519 0.914465
O O8 0.281569 0.343837 0.848353
O O9 0.323132 0.440254 0.969396
O O10 0.000000 0.416832 0.242846
O O11 0.000000 0.339790 0.076427
O O12 0.572531 0.015031 0.606893
#
# Coordination Sequence:
#
# PCOD8262400 Si02
#       8
#     8  16  16   8   8   8   8   8
#     4   8  13  31  48  72  98 123 165 221 257 280
#     4  10  19  35  49  80 108 137 172 215 260 315
#     4  10  19  34  53  79 102 136 176 224 258 302
#     4  12  24  32  52  72 114 152 172 192 270 330
#     4  11  16  30  56  82  98 129 173 215 278 306
#     4   9  14  27  56  81  91 120 172 226 261 291
#     4   9  16  32  56  74 104 123 174 236 248 293
#     4   9  17  28  52  75 112 127 162 222 264 308
#
# _framework density 17.484172000000001
#
# number of rings (size 3 to 8) (size 9 to 14) (size 15 to 20)
#    0.000    2.200    6.000    3.600    0.000    0.800 
#    0.000    1.000    4.400    0.000    0.000    1.400 
#    0.000    0.000    0.000    0.000    0.000    0.000 
#
# Total GULP energy -495580.842631 kJ/mol
# GULP energy per Si atom -12389.521066 kJ/mol
# Density = 1.744438 g / cm^3
# Si number density = 17.484172 Si / 1000 Ang^3
#
#
#
# Elastic Constant Matrix: (Units=GPa)
#
#
# Indices 1 2 3 4 5 6 
#
# 1 99.6711 43.9141 38.4769 0.0000 0.0000 0.0000
# 2 43.9141 91.0978 32.7051 0.0000 0.0000 0.0000
# 3 38.4769 32.7051 64.0179 0.0000 0.0000 0.0000
# 4 0.0000 0.0000 0.0000 19.8001 0.0000 0.0000
# 5 0.0000 0.0000 0.0000 0.0000 22.5918 0.0000
# 6 0.0000 0.0000 0.0000 0.0000 0.0000 14.5333
#
#
#
# Elastic Compliance Matrix: (Units=1/GPa)
#
#
# Indices 1 2 3 4 5 6 
#
# 1 0.014570 -0.004751 -0.006330 0.000000 0.000000 0.000000
# 2 -0.004751 0.014992 -0.004804 0.000000 0.000000 0.000000
# 3 -0.006330 -0.004804 0.021879 0.000000 0.000000 0.000000
# 4 0.000000 0.000000 0.000000 0.050505 0.000000 0.000000
# 5 0.000000 0.000000 0.000000 0.000000 0.044264 0.000000
# 6 0.000000 0.000000 0.000000 0.000000 0.000000 0.068807
#
#
# Mechanical properties :
#
#
# Convention : Reuss Voigt Hill
#
# Bulk Modulus (GPa) = 50.83303 53.88654 52.35979
# Shear Modulus (GPa) = 19.73612 20.69777 20.21695
#
# Velocity S-wave (km/s) = 3.36341 3.44437 3.40413
# Velocity P-wave (km/s) = 6.64983 6.83413 6.74261
#
# Compressibility (1/GPa) = 0.01967225
#
# Stress axis : x y z
#
# Youngs Moduli (GPa) = 68.63532 66.70251 45.70590
#
# Poissons Ratio (x) = 0.31690 0.28931
# Poissons Ratio (y) = 0.32608 0.21955
# Poissons Ratio (z) = 0.43445 0.32041
#
# Static dielectric constant tensor:
#      x y z
#    x 3.310260 0.000000 0.000000 
#    y 0.000000 3.257210 0.000000 
#    z 0.000000 0.000000 3.026420 
# 
# 
# High freq. dielectric constant tensor:
#      x y z
#    x 1.666080 0.000000 0.000000 
#    y 0.000000 1.664530 0.000000 
#    z 0.000000 0.000000 1.640820 
# 
# From -- ./inp_files/14758.got.cif
#   From: 2010.03.12/outbox.cif.g09.slc.cpg/sg64_8_cif.got.tgz:14758.got - 2010.04.10 20:19:32.
