data_PCOD8262401
_publ_section_title
;
Structure prediction by ZEFSAII (Michael W. Deem and Ramdas Pophale) SiO2 
 PCOD8262401
Probable space group: C M C A
;
_chemical_formula_sum "Si O2"
_cell_formula_units_Z 72
_cell_length_a 14.947611
_cell_length_b 14.479852
_cell_length_c 18.492349
_cell_angle_alpha 90.000000
_cell_angle_beta 90.000000
_cell_angle_gamma 90.000000
_cell_volume 4002.469132
_symmetry_space_group_name_H-M "C M C A"
_symmetry_group_IT_number 64
_symmetry_cell_setting 'orthorhombic'
loop_
_space_group_symop_operation_xyz
x,y,z
-x,1/2-y,1/2+z
x,-y,-z
-x,1/2+y,1/2-z
-x,-y,-z
x,1/2+y,1/2-z
-x,y,z
x,1/2-y,1/2+z
1/2+x,1/2+y,z
1/2-x,-y,1/2+z
1/2+x,1/2-y,-z
1/2-x,y,1/2-z
1/2-x,1/2-y,-z
1/2+x,y,1/2-z
1/2-x,1/2+y,z
1/2+x,-y,1/2+z
loop_
_atom_site_type_symbol
_atom_site_label
_atom_site_fract_x
_atom_site_fract_y
_atom_site_fract_z
Si Si1 0.602058 0.549189 0.365576
Si Si2 0.896406 0.652999 0.826535
Si Si3 0.784138 0.500000 0.000000
Si Si4 0.395773 0.248337 0.179743
Si Si5 0.258357 0.318069 0.066022
O O1 0.500000 0.554257 0.390394
O O2 0.619476 0.457351 0.317686
O O3 0.656279 0.550892 0.439905
O O4 0.626549 0.638816 0.317220
O O5 0.864881 0.704707 0.754243
O O6 0.835604 0.690002 0.891529
O O7 0.000000 0.675137 0.844639
O O8 0.723810 0.421896 0.037508
O O9 0.500000 0.267112 0.165862
O O10 0.342950 0.295277 0.114838
O O11 0.250000 0.250000 0.000000
#
# Coordination Sequence:
#
# PCOD8262401 Si02
#       5
#    16  16   8  16  16
#     4   9  17  32  57  81 103 138 183 230 270 309
#     4   9  20  37  57  81 108 138 182 228 271 318
#     4  10  19  34  53  80 110 138 182 226 270 316
#     4  10  20  37  57  81 110 144 181 224 273 325
#     4  11  21  36  55  82 111 143 180 222 271 324
#
# _framework density 17.988897000000001
#
# number of rings (size 3 to 8) (size 9 to 14) (size 15 to 20)
#    0.000    2.222    2.222    1.000    0.000    1.778 
#    4.000    2.778    0.000    0.000    0.000    0.000 
#    0.000    0.000    0.000    0.000    0.000    0.000 
#
# Total GULP energy -446378.532908 kJ/mol
# GULP energy per Si atom -12399.403692 kJ/mol
# Density = 1.794795 g / cm^3
# Si number density = 17.988897 Si / 1000 Ang^3
#
#
#
# Elastic Constant Matrix: (Units=GPa)
#
#
# Indices 1 2 3 4 5 6 
#
# 1 59.6271 52.2968 48.1668 0.0000 0.0000 0.0000
# 2 52.2968 139.4609 82.9850 0.0000 0.0000 0.0000
# 3 48.1668 82.9850 126.6169 0.0000 0.0000 0.0000
# 4 0.0000 0.0000 0.0000 41.5198 0.0000 0.0000
# 5 0.0000 0.0000 0.0000 0.0000 31.6214 0.0000
# 6 0.0000 0.0000 0.0000 0.0000 0.0000 25.7868
#
#
#
# Elastic Compliance Matrix: (Units=1/GPa)
#
#
# Indices 1 2 3 4 5 6 
#
# 1 0.027584 -0.006721 -0.006088 0.000000 0.000000 0.000000
# 2 -0.006721 0.013392 -0.006221 0.000000 0.000000 0.000000
# 3 -0.006088 -0.006221 0.014291 0.000000 0.000000 0.000000
# 4 0.000000 0.000000 0.000000 0.024085 0.000000 0.000000
# 5 0.000000 0.000000 0.000000 0.000000 0.031624 0.000000
# 6 0.000000 0.000000 0.000000 0.000000 0.000000 0.038780
#
#
# Mechanical properties :
#
#
# Convention : Reuss Voigt Hill
#
# Bulk Modulus (GPa) = 58.11508 76.95580 67.53544
# Shear Modulus (GPa) = 25.83301 29.26936 27.55119
#
# Velocity S-wave (km/s) = 3.79364 4.03808 3.91777
# Velocity P-wave (km/s) = 7.18089 8.03828 7.62165
#
# Compressibility (1/GPa) = 0.01720724
#
# Stress axis : x y z
#
# Youngs Moduli (GPa) = 36.25335 74.67000 69.97442
#
# Poissons Ratio (x) = 0.50184 0.42603
# Poissons Ratio (y) = 0.24365 0.43528
# Poissons Ratio (z) = 0.22072 0.46449
#
# Static dielectric constant tensor:
#      x y z
#    x 3.263690 0.000000 0.000000 
#    y 0.000000 3.486430 0.000000 
#    z 0.000000 0.000000 3.418450 
# 
# 
# High freq. dielectric constant tensor:
#      x y z
#    x 1.687630 0.000000 0.000000 
#    y 0.000000 1.707970 0.000000 
#    z 0.000000 0.000000 1.693100 
# 
# From -- ./inp_files/31872.got.cif
#   From: 2010.03.12/outbox.cif.g09.slc.cpg/sg64_16_cif.got.tgz:31872.got - 2010.04.10 20:19:32.
