data_PCOD8262888
_publ_section_title
;
Structure prediction by ZEFSAII (Michael W. Deem and Ramdas Pophale) SiO2 
 PCOD8262888
Probable space group: C M C A
;
_chemical_formula_sum "Si O2"
_cell_formula_units_Z 112
_cell_length_a 18.540603
_cell_length_b 22.751328
_cell_length_c 13.705788
_cell_angle_alpha 90.000000
_cell_angle_beta 90.000000
_cell_angle_gamma 90.000000
_cell_volume 5781.421274
_symmetry_space_group_name_H-M "C M C A"
_symmetry_group_IT_number 64
_symmetry_cell_setting 'orthorhombic'
loop_
_space_group_symop_operation_xyz
x,y,z
-x,1/2-y,1/2+z
x,-y,-z
-x,1/2+y,1/2-z
-x,-y,-z
x,1/2+y,1/2-z
-x,y,z
x,1/2-y,1/2+z
1/2+x,1/2+y,z
1/2-x,-y,1/2+z
1/2+x,1/2-y,-z
1/2-x,y,1/2-z
1/2-x,1/2-y,-z
1/2+x,y,1/2-z
1/2-x,1/2+y,z
1/2+x,-y,1/2+z
loop_
_atom_site_type_symbol
_atom_site_label
_atom_site_fract_x
_atom_site_fract_y
_atom_site_fract_z
Si Si1 0.172864 0.048658 0.717583
Si Si2 0.915540 0.221409 0.244060
Si Si3 0.081136 0.344072 0.939592
Si Si4 0.081756 0.158474 0.656830
Si Si5 0.157799 0.883383 0.839392
Si Si6 0.082248 0.991357 0.890022
Si Si7 0.806047 0.573307 0.127638
O O1 0.250000 0.073397 0.750000
O O2 0.130821 0.101543 0.667790
O O3 0.130963 0.026607 0.813401
O O4 0.187456 0.997452 0.636574
O O5 0.897259 0.203072 0.355849
O O6 0.893993 0.289573 0.230217
O O7 0.867990 0.184334 0.165155
O O8 0.000000 0.212314 0.220598
O O9 0.132354 0.401431 0.942821
O O10 0.000000 0.366656 0.919380
O O11 0.087366 0.315404 0.046749
O O12 0.000000 0.139071 0.679774
O O13 0.179391 0.900319 0.731929
O O14 0.227244 0.901369 0.906695
O O15 0.088845 0.921685 0.871193
O O16 0.000000 0.012017 0.877186
O O17 0.109947 0.000000 0.000000
#
# Coordination Sequence:
#
# PCOD8262888 Si02
#       7
#    16  16  16  16  16  16  16
#     4  11  21  39  55  82 118 156 184 233 299 344
#     4   9  18  36  60  81 110 151 193 241 284 336
#     4   9  19  36  59  87 113 147 197 241 289 344
#     4  10  22  39  58  86 120 151 191 241 289 347
#     4   9  16  33  55  79 108 146 188 236 281 333
#     4  10  20  34  54  82 111 146 194 239 284 348
#     4   9  17  33  56  81 111 144 185 231 288 340
#
# _framework density 19.372399000000001
#
# number of rings (size 3 to 8) (size 9 to 14) (size 15 to 20)
#    0.000    2.429    2.857    0.857    0.000    5.714 
#    7.714    2.143    0.000    0.000    0.000    0.000 
#    0.000    0.000    0.000    0.000    0.000    0.000 
#
# Total GULP energy -693827.586045 kJ/mol
# GULP energy per Si atom -12389.778322 kJ/mol
# Density = 1.932831 g / cm^3
# Si number density = 19.372399 Si / 1000 Ang^3
#
#
#
# Elastic Constant Matrix: (Units=GPa)
#
#
# Indices 1 2 3 4 5 6 
#
# 1 93.0352 49.2012 33.2207 0.0000 0.0000 0.0000
# 2 49.2012 112.9607 31.5326 0.0000 0.0000 0.0000
# 3 33.2207 31.5326 67.5920 0.0000 0.0000 0.0000
# 4 0.0000 0.0000 0.0000 16.8469 0.0000 0.0000
# 5 0.0000 0.0000 0.0000 0.0000 17.0371 0.0000
# 6 0.0000 0.0000 0.0000 0.0000 0.0000 15.6489
#
#
#
# Elastic Compliance Matrix: (Units=1/GPa)
#
#
# Indices 1 2 3 4 5 6 
#
# 1 0.015350 -0.005266 -0.005088 0.000000 0.000000 0.000000
# 2 -0.005266 0.011984 -0.003003 0.000000 0.000000 0.000000
# 3 -0.005088 -0.003003 0.018696 0.000000 0.000000 0.000000
# 4 0.000000 0.000000 0.000000 0.059358 0.000000 0.000000
# 5 0.000000 0.000000 0.000000 0.000000 0.058696 0.000000
# 6 0.000000 0.000000 0.000000 0.000000 0.000000 0.063902
#
#
# Mechanical properties :
#
#
# Convention : Reuss Voigt Hill
#
# Bulk Modulus (GPa) = 51.76567 55.72188 53.74378
# Shear Modulus (GPa) = 19.14692 20.54881 19.84787
#
# Velocity S-wave (km/s) = 3.14723 3.26041 3.20432
# Velocity P-wave (km/s) = 6.32346 6.55742 6.44150
#
# Compressibility (1/GPa) = 0.01931782
#
# Stress axis : x y z
#
# Youngs Moduli (GPa) = 65.14614 83.44205 53.48686
#
# Poissons Ratio (x) = 0.43937 0.27214
# Poissons Ratio (y) = 0.34303 0.16061
# Poissons Ratio (z) = 0.33146 0.25057
#
# Static dielectric constant tensor:
#      x y z
#    x 4.591060 0.000000 0.000000 
#    y 0.000000 3.639300 0.000000 
#    z 0.000000 0.000000 3.457490 
# 
# 
# High freq. dielectric constant tensor:
#      x y z
#    x 1.762810 0.000000 0.000000 
#    y 0.000000 1.734530 0.000000 
#    z 0.000000 0.000000 1.735740 
# 
# From -- ./inp_files/24222.got.cif
#   From: 2010.03.12/outbox.cif.g09.slc.cpg/sg64_13_cif.got.tgz:24222.got - 2010.04.10 20:19:32.
