data_PCOD8262665
_publ_section_title
;
Structure prediction by ZEFSAII (Michael W. Deem and Ramdas Pophale) SiO2 
 PCOD8262665
Probable space group: C M C A
;
_chemical_formula_sum "Si O2"
_cell_formula_units_Z 88
_cell_length_a 28.627178
_cell_length_b 11.986456
_cell_length_c 12.564036
_cell_angle_alpha 90.000000
_cell_angle_beta 90.000000
_cell_angle_gamma 90.000000
_cell_volume 4311.203330
_symmetry_space_group_name_H-M "C M C A"
_symmetry_group_IT_number 64
_symmetry_cell_setting 'orthorhombic'
loop_
_space_group_symop_operation_xyz
x,y,z
-x,1/2-y,1/2+z
x,-y,-z
-x,1/2+y,1/2-z
-x,-y,-z
x,1/2+y,1/2-z
-x,y,z
x,1/2-y,1/2+z
1/2+x,1/2+y,z
1/2-x,-y,1/2+z
1/2+x,1/2-y,-z
1/2-x,y,1/2-z
1/2-x,1/2-y,-z
1/2+x,y,1/2-z
1/2-x,1/2+y,z
1/2+x,-y,1/2+z
loop_
_atom_site_type_symbol
_atom_site_label
_atom_site_fract_x
_atom_site_fract_y
_atom_site_fract_z
Si Si1 0.893344 0.366161 0.674194
Si Si2 0.250000 0.587824 0.250000
Si Si3 0.401790 0.843466 0.030976
Si Si4 0.827992 0.794089 0.635690
Si Si5 0.447412 0.038627 0.145941
Si Si6 0.179444 0.965839 0.110024
O O1 0.908975 0.274790 0.587819
O O2 0.857473 0.312072 0.757460
O O3 0.938378 0.412774 0.736754
O O4 0.870100 0.470119 0.613980
O O5 0.224883 0.662639 0.158168
O O6 0.211358 0.505043 0.294106
O O7 0.408916 0.942397 0.118044
O O8 0.351449 0.851248 0.969362
O O9 0.441568 0.861791 0.940728
O O10 0.827957 0.664346 0.613486
O O11 0.500000 0.991323 0.141130
O O12 0.204420 0.000000 0.000000
#
# Coordination Sequence:
#
# PCOD8262665 Si02
#       6
#    16   8  16  16  16  16
#     4  10  21  38  62  85 118 160 199 242 301 360
#     4  10  24  40  56  92 120 154 204 258 302 350
#     4  10  19  38  61  85 118 162 197 239 298 365
#     4  10  21  39  59  86 119 158 203 247 301 360
#     4  10  22  38  61  94 121 154 202 249 299 363
#     4  11  21  40  60  86 118 158 200 253 298 356
#
# _framework density 20.411933999999999
#
# number of rings (size 3 to 8) (size 9 to 14) (size 15 to 20)
#    0.000    1.818    1.818    2.727    0.000    3.636 
#   13.091    0.000    0.000    1.636    0.000    0.000 
#    0.000    0.000    0.000    0.000    0.000    0.000 
#
# Total GULP energy -545357.460115 kJ/mol
# GULP energy per Si atom -12394.487730 kJ/mol
# Density = 2.036548 g / cm^3
# Si number density = 20.411934 Si / 1000 Ang^3
#
#
#
# Elastic Constant Matrix: (Units=GPa)
#
#
# Indices 1 2 3 4 5 6 
#
# 1 96.3576 55.5677 32.4955 0.0000 0.0000 0.0000
# 2 55.5677 104.6091 32.1923 0.0000 0.0000 0.0000
# 3 32.4955 32.1923 78.6477 0.0000 0.0000 0.0000
# 4 0.0000 0.0000 0.0000 45.5645 0.0000 0.0000
# 5 0.0000 0.0000 0.0000 0.0000 19.6562 0.0000
# 6 0.0000 0.0000 0.0000 0.0000 0.0000 20.2079
#
#
#
# Elastic Compliance Matrix: (Units=1/GPa)
#
#
# Indices 1 2 3 4 5 6 
#
# 1 0.015775 -0.007292 -0.003533 0.000000 0.000000 0.000000
# 2 -0.007292 0.014308 -0.002844 0.000000 0.000000 0.000000
# 3 -0.003533 -0.002844 0.015339 0.000000 0.000000 0.000000
# 4 0.000000 0.000000 0.000000 0.021947 0.000000 0.000000
# 5 0.000000 0.000000 0.000000 0.000000 0.050875 0.000000
# 6 0.000000 0.000000 0.000000 0.000000 0.000000 0.049486
#
#
# Mechanical properties :
#
#
# Convention : Reuss Voigt Hill
#
# Bulk Modulus (GPa) = 55.29779 57.79170 56.54475
# Shear Modulus (GPa) = 24.86398 27.70964 26.28681
#
# Velocity S-wave (km/s) = 3.49393 3.68845 3.59251
# Velocity P-wave (km/s) = 6.58987 6.82010 6.70597
#
# Compressibility (1/GPa) = 0.01808390
#
# Stress axis : x y z
#
# Youngs Moduli (GPa) = 63.39247 69.89049 65.19493
#
# Poissons Ratio (x) = 0.50966 0.23033
# Poissons Ratio (y) = 0.46227 0.18539
# Poissons Ratio (z) = 0.22396 0.19874
#
# Static dielectric constant tensor:
#      x y z
#    x 3.576820 0.000000 0.000000 
#    y 0.000000 3.663620 0.000000 
#    z 0.000000 0.000000 3.949100 
# 
# 
# High freq. dielectric constant tensor:
#      x y z
#    x 1.773980 0.000000 0.000000 
#    y 0.000000 1.798460 0.000000 
#    z 0.000000 0.000000 1.805710 
# 
# From -- ./inp_files/19692.got.cif
#   From: 2010.03.12/outbox.cif.g09.slc.cpg/sg64_10_cif.got.tgz:19692.got - 2010.04.10 20:19:32.
