data_PCOD8262682
_publ_section_title
;
Structure prediction by ZEFSAII (Michael W. Deem and Ramdas Pophale) SiO2 
 PCOD8262682
Probable space group: C M C A
;
_chemical_formula_sum "Si O2"
_cell_formula_units_Z 80
_cell_length_a 16.625273
_cell_length_b 26.742965
_cell_length_c 9.119741
_cell_angle_alpha 90.000000
_cell_angle_beta 90.000000
_cell_angle_gamma 90.000000
_cell_volume 4054.719783
_symmetry_space_group_name_H-M "C M C A"
_symmetry_group_IT_number 64
_symmetry_cell_setting 'orthorhombic'
loop_
_space_group_symop_operation_xyz
x,y,z
-x,1/2-y,1/2+z
x,-y,-z
-x,1/2+y,1/2-z
-x,-y,-z
x,1/2+y,1/2-z
-x,y,z
x,1/2-y,1/2+z
1/2+x,1/2+y,z
1/2-x,-y,1/2+z
1/2+x,1/2-y,-z
1/2-x,y,1/2-z
1/2-x,1/2-y,-z
1/2+x,y,1/2-z
1/2-x,1/2+y,z
1/2+x,-y,1/2+z
loop_
_atom_site_type_symbol
_atom_site_label
_atom_site_fract_x
_atom_site_fract_y
_atom_site_fract_z
Si Si1 0.680494 0.715758 0.442241
Si Si2 0.767817 0.107382 0.407200
Si Si3 0.906679 0.054714 0.565611
Si Si4 0.593060 0.290746 0.261053
Si Si5 0.166963 0.108818 0.823271
O O1 0.750000 0.750000 0.500000
O O2 0.724638 0.666395 0.385731
O O3 0.617268 0.702903 0.570013
O O4 0.637585 0.743192 0.307566
O O5 0.750000 0.082195 0.250000
O O6 0.854883 0.090510 0.463534
O O7 0.692590 0.091767 0.512776
O O8 0.874729 0.062728 0.733778
O O9 0.000000 0.070142 0.558188
O O10 0.892810 0.000000 0.500000
O O11 0.500000 0.279115 0.250205
O O12 0.610435 0.342439 0.173907
O O13 0.250000 0.126927 0.750000
#
# Coordination Sequence:
#
# PCOD8262682 Si02
#       5
#    16  16  16  16  16
#     4  12  22  39  58  84 126 170 213 264 311 378
#     4  11  23  39  63  93 126 171 218 261 315 384
#     4  10  22  42  68  94 124 163 210 272 334 382
#     4  12  23  36  57  88 124 167 217 266 315 373
#     4  10  19  39  63  87 120 166 211 257 319 381
#
# _framework density 19.730093
#
# number of rings (size 3 to 8) (size 9 to 14) (size 15 to 20)
#    0.000    1.000    6.000    3.000    0.000    3.200 
#    0.000    2.000    0.000    2.400    0.000    0.000 
#    0.000    0.000    0.000    0.000    0.000    0.000 
#
# Total GULP energy -495896.422459 kJ/mol
# GULP energy per Si atom -12397.410561 kJ/mol
# Density = 1.968519 g / cm^3
# Si number density = 19.730093 Si / 1000 Ang^3
#
#
#
# Elastic Constant Matrix: (Units=GPa)
#
#
# Indices 1 2 3 4 5 6 
#
# 1 101.1244 34.4114 37.7605 0.0000 0.0000 0.0000
# 2 34.4114 83.4443 30.1733 0.0000 0.0000 0.0000
# 3 37.7605 30.1733 143.1517 0.0000 0.0000 0.0000
# 4 0.0000 0.0000 0.0000 30.4833 0.0000 0.0000
# 5 0.0000 0.0000 0.0000 0.0000 28.4306 0.0000
# 6 0.0000 0.0000 0.0000 0.0000 0.0000 27.2731
#
#
#
# Elastic Compliance Matrix: (Units=1/GPa)
#
#
# Indices 1 2 3 4 5 6 
#
# 1 0.012182 -0.004180 -0.002332 0.000000 0.000000 0.000000
# 2 -0.004180 0.014407 -0.001934 0.000000 0.000000 0.000000
# 3 -0.002332 -0.001934 0.008008 0.000000 0.000000 0.000000
# 4 0.000000 0.000000 0.000000 0.032805 0.000000 0.000000
# 5 0.000000 0.000000 0.000000 0.000000 0.035173 0.000000
# 6 0.000000 0.000000 0.000000 0.000000 0.000000 0.036666
#
#
# Mechanical properties :
#
#
# Convention : Reuss Voigt Hill
#
# Bulk Modulus (GPa) = 56.48280 59.15676 57.81978
# Shear Modulus (GPa) = 30.85707 32.26243 31.55975
#
# Velocity S-wave (km/s) = 3.95898 4.04813 4.00381
# Velocity P-wave (km/s) = 7.04187 7.20402 7.12341
#
# Compressibility (1/GPa) = 0.01770450
#
# Stress axis : x y z
#
# Youngs Moduli (GPa) = 82.08663 69.40899 124.86801
#
# Poissons Ratio (x) = 0.29016 0.29123
# Poissons Ratio (y) = 0.34316 0.24150
# Poissons Ratio (z) = 0.19145 0.13424
#
# Static dielectric constant tensor:
#      x y z
#    x 3.657650 0.000000 0.000000 
#    y 0.000000 3.270580 0.000000 
#    z 0.000000 0.000000 4.404080 
# 
# 
# High freq. dielectric constant tensor:
#      x y z
#    x 1.770970 0.000000 0.000000 
#    y 0.000000 1.756690 0.000000 
#    z 0.000000 0.000000 1.769430 
# 
# From -- ./inp_files/7265.got.cif
#   From: 2010.03.12/outbox.cif.g09.slc.cpg/sg64_4_cif.got.tgz:7265.got - 2010.04.10 20:19:32.
