data_PCOD8262518
_publ_section_title
;
Structure prediction by ZEFSAII (Michael W. Deem and Ramdas Pophale) SiO2 
 PCOD8262518
Probable space group: C M C A
;
_chemical_formula_sum "Si O2"
_cell_formula_units_Z 96
_cell_length_a 8.743910
_cell_length_b 20.675829
_cell_length_c 28.083338
_cell_angle_alpha 90.000000
_cell_angle_beta 90.000000
_cell_angle_gamma 90.000000
_cell_volume 5077.118939
_symmetry_space_group_name_H-M "C M C A"
_symmetry_group_IT_number 64
_symmetry_cell_setting 'orthorhombic'
loop_
_space_group_symop_operation_xyz
x,y,z
-x,1/2-y,1/2+z
x,-y,-z
-x,1/2+y,1/2-z
-x,-y,-z
x,1/2+y,1/2-z
-x,y,z
x,1/2-y,1/2+z
1/2+x,1/2+y,z
1/2-x,-y,1/2+z
1/2+x,1/2-y,-z
1/2-x,y,1/2-z
1/2-x,1/2-y,-z
1/2+x,y,1/2-z
1/2-x,1/2+y,z
1/2+x,-y,1/2+z
loop_
_atom_site_type_symbol
_atom_site_label
_atom_site_fract_x
_atom_site_fract_y
_atom_site_fract_z
Si Si1 0.320932 0.319967 0.201146
Si Si2 0.822348 0.382769 0.396253
Si Si3 0.180486 0.754126 0.051447
Si Si4 0.181486 0.129790 0.390769
Si Si5 0.181354 0.181258 0.199943
Si Si6 0.680688 0.996247 0.946370
O O1 0.500000 0.306018 0.207878
O O2 0.250000 0.347805 0.250000
O O3 0.292013 0.372662 0.159991
O O4 0.242892 0.252491 0.186857
O O5 0.762365 0.319477 0.423630
O O6 0.728031 0.443261 0.414575
O O7 0.000000 0.394932 0.406554
O O8 0.238309 0.693169 0.081499
O O9 0.000000 0.752594 0.047605
O O10 0.250000 0.750000 0.000000
O O11 0.263010 0.129994 0.339502
O O12 0.241004 0.068308 0.420624
O O13 0.000000 0.128522 0.383458
O O14 0.250000 0.157811 0.250000
O O15 0.000000 0.182639 0.202963
O O16 0.500000 0.994570 0.949737
O O17 0.749817 0.000000 0.000000
#
# Coordination Sequence:
#
# PCOD8262518 Si02
#       6
#    16  16  16  16  16  16
#     4  10  19  35  57  84 116 149 185 229 286 338
#     4  10  21  37  57  81 114 151 185 233 286 335
#     4  10  20  35  55  80 110 144 186 238 286 332
#     4  10  20  38  58  80 115 152 189 234 283 336
#     4  11  21  34  57  87 116 148 187 233 285 340
#     4  10  22  39  60  83 112 153 193 234 282 336
#
# _framework density 18.908360999999999
#
# number of rings (size 3 to 8) (size 9 to 14) (size 15 to 20)
#    0.000    1.833    1.667    4.000    0.000    5.000 
#    0.000    0.833    0.000    2.000    0.000    0.000 
#    0.000    0.000    0.000    0.000    0.000    0.000 
#
# Total GULP energy -595308.364546 kJ/mol
# GULP energy per Si atom -12402.257595 kJ/mol
# Density = 1.886532 g / cm^3
# Si number density = 18.908361 Si / 1000 Ang^3
#
#
#
# Elastic Constant Matrix: (Units=GPa)
#
#
# Indices 1 2 3 4 5 6 
#
# 1 59.0490 28.4071 41.9073 0.0000 0.0000 0.0000
# 2 28.4071 119.9183 64.8578 0.0000 0.0000 0.0000
# 3 41.9073 64.8578 155.4994 0.0000 0.0000 0.0000
# 4 0.0000 0.0000 0.0000 31.8290 0.0000 0.0000
# 5 0.0000 0.0000 0.0000 0.0000 36.1099 0.0000
# 6 0.0000 0.0000 0.0000 0.0000 0.0000 26.8448
#
#
#
# Elastic Compliance Matrix: (Units=1/GPa)
#
#
# Indices 1 2 3 4 5 6 
#
# 1 0.021520 -0.002532 -0.004743 0.000000 0.000000 0.000000
# 2 -0.002532 0.011066 -0.003933 0.000000 0.000000 0.000000
# 3 -0.004743 -0.003933 0.009350 0.000000 0.000000 0.000000
# 4 0.000000 0.000000 0.000000 0.031418 0.000000 0.000000
# 5 0.000000 0.000000 0.000000 0.000000 0.027693 0.000000
# 6 0.000000 0.000000 0.000000 0.000000 0.000000 0.037251
#
#
# Mechanical properties :
#
#
# Convention : Reuss Voigt Hill
#
# Bulk Modulus (GPa) = 51.23500 67.20125 59.21813
# Shear Modulus (GPa) = 29.90045 32.24303 31.07174
#
# Velocity S-wave (km/s) = 3.98091 4.13392 4.05814
# Velocity P-wave (km/s) = 6.94878 7.64221 7.30373
#
# Compressibility (1/GPa) = 0.01951791
#
# Stress axis : x y z
#
# Youngs Moduli (GPa) = 46.46901 90.36591 106.95488
#
# Poissons Ratio (x) = 0.22883 0.50733
# Poissons Ratio (y) = 0.11767 0.42067
# Poissons Ratio (z) = 0.22042 0.35542
#
# Static dielectric constant tensor:
#      x y z
#    x 3.344290 0.000000 0.000000 
#    y 0.000000 3.383940 0.000000 
#    z 0.000000 0.000000 3.689080 
# 
# 
# High freq. dielectric constant tensor:
#      x y z
#    x 1.728170 0.000000 0.000000 
#    y 0.000000 1.718240 0.000000 
#    z 0.000000 0.000000 1.753830 
# 
# From -- ./inp_files/48135.got.cif
#   From: 2010.03.12/outbox.cif.g09.slc.cpg/sg64_25_cif.got.tgz:48135.got - 2010.04.10 20:19:32.
