data_PCOD8262947
_publ_section_title
;
Structure prediction by ZEFSAII (Michael W. Deem and Ramdas Pophale) SiO2 
 PCOD8262947
Probable space group: C M C A
;
_chemical_formula_sum "Si O2"
_cell_formula_units_Z 88
_cell_length_a 19.798337
_cell_length_b 19.857836
_cell_length_c 10.224714
_cell_angle_alpha 90.000000
_cell_angle_beta 90.000000
_cell_angle_gamma 90.000000
_cell_volume 4019.868080
_symmetry_space_group_name_H-M "C M C A"
_symmetry_group_IT_number 64
_symmetry_cell_setting 'orthorhombic'
loop_
_space_group_symop_operation_xyz
x,y,z
-x,1/2-y,1/2+z
x,-y,-z
-x,1/2+y,1/2-z
-x,-y,-z
x,1/2+y,1/2-z
-x,y,z
x,1/2-y,1/2+z
1/2+x,1/2+y,z
1/2-x,-y,1/2+z
1/2+x,1/2-y,-z
1/2-x,y,1/2-z
1/2-x,1/2-y,-z
1/2+x,y,1/2-z
1/2-x,1/2+y,z
1/2+x,-y,1/2+z
loop_
_atom_site_type_symbol
_atom_site_label
_atom_site_fract_x
_atom_site_fract_y
_atom_site_fract_z
Si Si1 0.868289 0.705558 0.967146
Si Si2 0.000000 0.668577 0.551964
Si Si3 0.132306 0.134996 0.039101
Si Si4 0.578565 0.388558 0.680834
Si Si5 0.000000 0.220103 0.667660
Si Si6 0.370215 0.500000 0.500000
Si Si7 0.234858 0.895095 0.396920
O O1 0.857963 0.784926 0.970578
O O2 0.931332 0.682170 0.875036
O O3 0.797307 0.678894 0.911714
O O4 0.884976 0.674191 0.108949
O O5 0.933697 0.620895 0.552477
O O6 0.000000 0.721813 0.673270
O O7 0.000000 0.708528 0.410965
O O8 0.118837 0.106351 0.183113
O O9 0.197961 0.097055 0.984511
O O10 0.500000 0.371679 0.703297
O O11 0.584110 0.459744 0.604720
O O12 0.322900 0.553702 0.566663
O O13 0.250000 0.911377 0.250000
#
# Coordination Sequence:
#
# PCOD8262947 Si02
#       7
#    16   8  16  16   8   8  16
#     4  10  23  37  65 102 138 182 214 280 342 422
#     4  10  22  34  60  97 135 186 215 276 334 420
#     4  11  24  38  69 100 142 172 224 281 356 413
#     4  11  23  44  71 103 135 181 231 287 337 409
#     4  10  20  34  60  90 142 177 225 259 339 408
#     4  10  27  46  70  91 126 188 238 282 334 401
#     4  11  25  44  65  92 134 182 232 288 337 404
#
# _framework density 21.891265000000001
#
# number of rings (size 3 to 8) (size 9 to 14) (size 15 to 20)
#    0.000    1.455    1.818    1.909   15.273    2.182 
#    0.000    0.000    0.000    1.636    0.000    0.000 
#    0.000    0.000    0.000    0.000    0.000    0.000 
#
# Total GULP energy -545312.181191 kJ/mol
# GULP energy per Si atom -12393.458663 kJ/mol
# Density = 2.184144 g / cm^3
# Si number density = 21.891265 Si / 1000 Ang^3
#
#
#
# Elastic Constant Matrix: (Units=GPa)
#
#
# Indices 1 2 3 4 5 6 
#
# 1 90.7530 1.7654 22.0389 0.0000 0.0000 0.0000
# 2 1.7654 51.5004 16.0278 0.0000 0.0000 0.0000
# 3 22.0389 16.0278 119.8447 0.0000 0.0000 0.0000
# 4 0.0000 0.0000 0.0000 13.3182 0.0000 0.0000
# 5 0.0000 0.0000 0.0000 0.0000 34.9552 0.0000
# 6 0.0000 0.0000 0.0000 0.0000 0.0000 89.9507
#
#
#
# Elastic Compliance Matrix: (Units=1/GPa)
#
#
# Indices 1 2 3 4 5 6 
#
# 1 0.011538 0.000276 -0.002159 0.000000 0.000000 0.000000
# 2 0.000276 0.020267 -0.002761 0.000000 0.000000 0.000000
# 3 -0.002159 -0.002761 0.009110 0.000000 0.000000 0.000000
# 4 0.000000 0.000000 0.000000 0.075085 0.000000 0.000000
# 5 0.000000 0.000000 0.000000 0.000000 0.028608 0.000000
# 6 0.000000 0.000000 0.000000 0.000000 0.000000 0.011117
#
#
# Mechanical properties :
#
#
# Convention : Reuss Voigt Hill
#
# Bulk Modulus (GPa) = 31.61756 37.97359 34.79557
# Shear Modulus (GPa) = 28.48100 42.46257 35.47178
#
# Velocity S-wave (km/s) = 3.61088 4.40898 4.02974
# Velocity P-wave (km/s) = 5.64437 6.58050 6.13033
#
# Compressibility (1/GPa) = 0.03162800
#
# Stress axis : x y z
#
# Youngs Moduli (GPa) = 86.67185 49.34079 109.76469
#
# Poissons Ratio (x) = -0.01363 0.23695
# Poissons Ratio (y) = -0.02395 0.30309
# Poissons Ratio (z) = 0.18710 0.13625
#
# Static dielectric constant tensor:
#      x y z
#    x 4.875770 0.000000 0.000000 
#    y 0.000000 3.983070 0.000000 
#    z 0.000000 0.000000 3.958270 
# 
# 
# High freq. dielectric constant tensor:
#      x y z
#    x 1.882650 0.000000 0.000000 
#    y 0.000000 1.830590 0.000000 
#    z 0.000000 0.000000 1.861830 
# 
# From -- ./inp_files/8292.got.cif
#   From: 2010.03.12/outbox.cif.g09.slc.cpg/sg64_5_cif.got.tgz:8292.got - 2010.04.10 20:19:32.
