data_PCOD8262600
_publ_section_title
;
Structure prediction by ZEFSAII (Michael W. Deem and Ramdas Pophale) SiO2 
 PCOD8262600
Probable space group: C M C A
;
_chemical_formula_sum "Si O2"
_cell_formula_units_Z 80
_cell_length_a 7.475501
_cell_length_b 25.566534
_cell_length_c 23.115647
_cell_angle_alpha 90.000000
_cell_angle_beta 90.000000
_cell_angle_gamma 90.000000
_cell_volume 4417.923722
_symmetry_space_group_name_H-M "C M C A"
_symmetry_group_IT_number 64
_symmetry_cell_setting 'orthorhombic'
loop_
_space_group_symop_operation_xyz
x,y,z
-x,1/2-y,1/2+z
x,-y,-z
-x,1/2+y,1/2-z
-x,-y,-z
x,1/2+y,1/2-z
-x,y,z
x,1/2-y,1/2+z
1/2+x,1/2+y,z
1/2-x,-y,1/2+z
1/2+x,1/2-y,-z
1/2-x,y,1/2-z
1/2-x,1/2-y,-z
1/2+x,y,1/2-z
1/2-x,1/2+y,z
1/2+x,-y,1/2+z
loop_
_atom_site_type_symbol
_atom_site_label
_atom_site_fract_x
_atom_site_fract_y
_atom_site_fract_z
Si Si1 0.500000 0.981394 0.903022
Si Si2 0.787995 0.263750 0.583479
Si Si3 0.210515 0.448136 0.685196
Si Si4 0.707825 0.329933 0.812687
Si Si5 0.201310 0.165712 0.977415
Si Si6 0.000000 0.917662 0.481999
O O1 0.677156 0.979547 0.862835
O O2 0.500000 0.035630 0.936648
O O3 0.500000 0.935575 0.951073
O O4 0.707089 0.290043 0.641262
O O5 0.724501 0.301344 0.531660
O O6 0.707186 0.205515 0.577176
O O7 0.000000 0.258704 0.584671
O O8 0.250000 0.469665 0.750000
O O9 0.285018 0.388569 0.681811
O O10 0.000000 0.453375 0.670927
O O11 0.500000 0.333939 0.824822
O O12 0.750000 0.306351 0.750000
O O13 0.323190 0.115448 0.968277
O O14 0.000000 0.145317 0.987232
#
# Coordination Sequence:
#
# PCOD8262600 Si02
#       6
#     8  16  16  16  16   8
#     4  11  24  38  60  85 110 157 182 233 298 329
#     4   9  17  32  52  79 110 146 183 218 269 328
#     4  10  19  36  59  88 116 143 188 235 285 343
#     4   9  18  29  47  79 115 142 169 221 280 331
#     4  10  20  35  56  79 108 148 188 227 267 325
#     4  11  24  40  54  83 122 146 190 232 284 338
#
# _framework density 18.108053999999999
#
# number of rings (size 3 to 8) (size 9 to 14) (size 15 to 20)
#    0.000    2.200    2.000    1.200    2.800    4.000 
#    0.000    2.000    0.000    1.200    0.000    0.000 
#    0.000    0.000    0.000    0.000    0.000    0.000 
#
# Total GULP energy -495913.181659 kJ/mol
# GULP energy per Si atom -12397.829541 kJ/mol
# Density = 1.806684 g / cm^3
# Si number density = 18.108054 Si / 1000 Ang^3
#
#
#
# Elastic Constant Matrix: (Units=GPa)
#
#
# Indices 1 2 3 4 5 6 
#
# 1 93.5707 37.9682 33.9631 0.0000 0.0000 0.0000
# 2 37.9682 88.9226 51.9216 0.0000 0.0000 0.0000
# 3 33.9631 51.9216 121.8845 0.0000 0.0000 0.0000
# 4 0.0000 0.0000 0.0000 9.3037 0.0000 0.0000
# 5 0.0000 0.0000 0.0000 0.0000 20.3859 0.0000
# 6 0.0000 0.0000 0.0000 0.0000 0.0000 19.8179
#
#
#
# Elastic Compliance Matrix: (Units=1/GPa)
#
#
# Indices 1 2 3 4 5 6 
#
# 1 0.013186 -0.004638 -0.001698 0.000000 0.000000 0.000000
# 2 -0.004638 0.016601 -0.005779 0.000000 0.000000 0.000000
# 3 -0.001698 -0.005779 0.011140 0.000000 0.000000 0.000000
# 4 0.000000 0.000000 0.000000 0.107485 0.000000 0.000000
# 5 0.000000 0.000000 0.000000 0.000000 0.049054 0.000000
# 6 0.000000 0.000000 0.000000 0.000000 0.000000 0.050459
#
#
# Mechanical properties :
#
#
# Convention : Reuss Voigt Hill
#
# Bulk Modulus (GPa) = 59.90125 61.34263 60.62194
# Shear Modulus (GPa) = 18.00372 21.93647 19.97010
#
# Velocity S-wave (km/s) = 3.15658 3.48432 3.32449
# Velocity P-wave (km/s) = 6.81447 7.08073 6.94888
#
# Compressibility (1/GPa) = 0.01669414
#
# Stress axis : x y z
#
# Youngs Moduli (GPa) = 75.84002 60.23832 89.76968
#
# Poissons Ratio (x) = 0.27941 0.15245
# Poissons Ratio (y) = 0.35178 0.51880
# Poissons Ratio (z) = 0.12880 0.34813
#
# Static dielectric constant tensor:
#      x y z
#    x 3.344630 0.000000 0.000000 
#    y 0.000000 3.164380 0.000000 
#    z 0.000000 0.000000 2.134320 
# 
# 
# High freq. dielectric constant tensor:
#      x y z
#    x 1.710730 0.000000 0.000000 
#    y 0.000000 1.669370 0.000000 
#    z 0.000000 0.000000 1.697620 
# 
# From -- ./inp_files/36732.got.cif
#   From: 2010.03.12/outbox.cif.g09.slc.cpg/sg64_19_cif.got.tgz:36732.got - 2010.04.10 20:19:32.
