data_PCOD8262097
_publ_section_title
;
Structure prediction by ZEFSAII (Michael W. Deem and Ramdas Pophale) SiO2 
 PCOD8262097
Probable space group: C M C A
;
_chemical_formula_sum "Si O2"
_cell_formula_units_Z 80
_cell_length_a 8.801258
_cell_length_b 19.292426
_cell_length_c 25.819101
_cell_angle_alpha 90.000000
_cell_angle_beta 90.000000
_cell_angle_gamma 90.000000
_cell_volume 4384.021866
_symmetry_space_group_name_H-M "C M C A"
_symmetry_group_IT_number 64
_symmetry_cell_setting 'orthorhombic'
loop_
_space_group_symop_operation_xyz
x,y,z
-x,1/2-y,1/2+z
x,-y,-z
-x,1/2+y,1/2-z
-x,-y,-z
x,1/2+y,1/2-z
-x,y,z
x,1/2-y,1/2+z
1/2+x,1/2+y,z
1/2-x,-y,1/2+z
1/2+x,1/2-y,-z
1/2-x,y,1/2-z
1/2-x,1/2-y,-z
1/2+x,y,1/2-z
1/2-x,1/2+y,z
1/2+x,-y,1/2+z
loop_
_atom_site_type_symbol
_atom_site_label
_atom_site_fract_x
_atom_site_fract_y
_atom_site_fract_z
Si Si1 0.822363 0.728112 0.109218
Si Si2 0.324833 0.978390 0.618351
Si Si3 0.176430 0.624309 0.577133
Si Si4 0.180195 0.876860 0.693923
Si Si5 0.677805 0.889737 0.967339
O O1 0.756703 0.805875 0.103853
O O2 0.756857 0.687403 0.159257
O O3 0.782804 0.685118 0.057364
O O4 0.000000 0.733243 0.117627
O O5 0.500000 0.957954 0.625205
O O6 0.231688 0.948413 0.666909
O O7 0.265927 0.949147 0.563748
O O8 0.303046 0.061490 0.617508
O O9 0.272166 0.608743 0.526240
O O10 0.000000 0.633748 0.561430
O O11 0.250000 0.869395 0.750000
O O12 0.000000 0.877515 0.697831
O O13 0.500000 0.906026 0.962848
#
# Coordination Sequence:
#
# PCOD8262097 Si02
#       5
#    16  16  16  16  16
#     4   8  17  33  51  73 100 131 167 205 245 291
#     4  10  20  33  51  75 102 134 170 206 245 292
#     4  10  19  32  50  73 104 137 168 204 246 292
#     4  10  20  37  59  77  96 125 163 207 252 300
#     4  10  19  31  49  73 104 140 173 205 242 289
#
# _framework density 18.248083999999999
#
# number of rings (size 3 to 8) (size 9 to 14) (size 15 to 20)
#    0.000    2.400    0.000    4.200    0.000    4.000 
#    0.000    6.000    0.000    2.400    0.000    0.000 
#    0.000    0.000    0.000    0.000    0.000    0.000 
#
# Total GULP energy -495945.254089 kJ/mol
# GULP energy per Si atom -12398.631352 kJ/mol
# Density = 1.820655 g / cm^3
# Si number density = 18.248084 Si / 1000 Ang^3
#
#
#
# Elastic Constant Matrix: (Units=GPa)
#
#
# Indices 1 2 3 4 5 6 
#
# 1 66.2931 27.2454 26.9830 0.0000 0.0000 0.0000
# 2 27.2454 107.5009 25.1816 0.0000 0.0000 0.0000
# 3 26.9830 25.1816 96.9128 0.0000 0.0000 0.0000
# 4 0.0000 0.0000 0.0000 9.7950 0.0000 0.0000
# 5 0.0000 0.0000 0.0000 0.0000 29.8421 0.0000
# 6 0.0000 0.0000 0.0000 0.0000 0.0000 21.5502
#
#
#
# Elastic Compliance Matrix: (Units=1/GPa)
#
#
# Indices 1 2 3 4 5 6 
#
# 1 0.018273 -0.003662 -0.004136 0.000000 0.000000 0.000000
# 2 -0.003662 0.010639 -0.001745 0.000000 0.000000 0.000000
# 3 -0.004136 -0.001745 0.011924 0.000000 0.000000 0.000000
# 4 0.000000 0.000000 0.000000 0.102093 0.000000 0.000000
# 5 0.000000 0.000000 0.000000 0.000000 0.033510 0.000000
# 6 0.000000 0.000000 0.000000 0.000000 0.000000 0.046403
#
#
# Mechanical properties :
#
#
# Convention : Reuss Voigt Hill
#
# Bulk Modulus (GPa) = 45.97826 47.72519 46.85173
# Shear Modulus (GPa) = 20.06601 24.99060 22.52831
#
# Velocity S-wave (km/s) = 3.31965 3.70468 3.51744
# Velocity P-wave (km/s) = 6.32016 6.67157 6.49824
#
# Compressibility (1/GPa) = 0.02174941
#
# Stress axis : x y z
#
# Youngs Moduli (GPa) = 54.72497 93.99242 83.86798
#
# Poissons Ratio (x) = 0.34423 0.34689
# Poissons Ratio (y) = 0.20042 0.14633
# Poissons Ratio (z) = 0.22635 0.16399
#
# Static dielectric constant tensor:
#      x y z
#    x 3.283910 0.000000 0.000000 
#    y 0.000000 3.751160 0.000000 
#    z 0.000000 0.000000 3.262500 
# 
# 
# High freq. dielectric constant tensor:
#      x y z
#    x 1.700330 0.000000 0.000000 
#    y 0.000000 1.714540 0.000000 
#    z 0.000000 0.000000 1.688720 
# 
# From -- ./inp_files/47790.got.cif
#   From: 2010.03.12/outbox.cif.g09.slc.cpg/sg64_24_cif.got.tgz:47790.got - 2010.04.10 20:19:32.
