data_PCOD8262222
_publ_section_title
;
Structure prediction by ZEFSAII (Michael W. Deem and Ramdas Pophale) SiO2 
 PCOD8262222
Probable space group: C M C A
;
_chemical_formula_sum "Si O2"
_cell_formula_units_Z 80
_cell_length_a 8.383559
_cell_length_b 27.669096
_cell_length_c 18.031865
_cell_angle_alpha 90.000000
_cell_angle_beta 90.000000
_cell_angle_gamma 90.000000
_cell_volume 4182.770559
_symmetry_space_group_name_H-M "C M C A"
_symmetry_group_IT_number 64
_symmetry_cell_setting 'orthorhombic'
loop_
_space_group_symop_operation_xyz
x,y,z
-x,1/2-y,1/2+z
x,-y,-z
-x,1/2+y,1/2-z
-x,-y,-z
x,1/2+y,1/2-z
-x,y,z
x,1/2-y,1/2+z
1/2+x,1/2+y,z
1/2-x,-y,1/2+z
1/2+x,1/2-y,-z
1/2-x,y,1/2-z
1/2-x,1/2-y,-z
1/2+x,y,1/2-z
1/2-x,1/2+y,z
1/2+x,-y,1/2+z
loop_
_atom_site_type_symbol
_atom_site_label
_atom_site_fract_x
_atom_site_fract_y
_atom_site_fract_z
Si Si1 0.686091 0.351460 0.951280
Si Si2 0.688151 0.600306 0.827681
Si Si3 0.811230 0.551111 0.524415
Si Si4 0.184534 0.691159 0.903494
Si Si5 0.814801 0.213780 0.331489
O O1 0.500000 0.350791 0.931456
O O2 0.786198 0.334142 0.880400
O O3 0.747468 0.405506 0.971117
O O4 0.713255 0.316745 0.022080
O O5 0.500000 0.608286 0.827326
O O6 0.750000 0.579058 0.750000
O O7 0.740241 0.562421 0.891186
O O8 0.770794 0.651833 0.841414
O O9 0.733669 0.500000 0.500000
O O10 0.000000 0.548139 0.518896
O O11 0.218254 0.743305 0.869846
O O12 0.000000 0.687120 0.924688
O O13 0.750000 0.203471 0.250000
O O14 0.000000 0.227080 0.328068
#
# Coordination Sequence:
#
# PCOD8262222 Si02
#       5
#    16  16  16  16  16
#     4  10  20  36  57  81 108 139 177 218 263 314
#     4  10  19  32  52  79 109 138 173 218 269 319
#     4   8  16  33  57  80 103 136 176 217 263 316
#     4  11  21  35  55  79 108 141 178 217 261 312
#     4  12  24  38  54  76 108 144 182 219 261 310
#
# _framework density 19.126079000000001
#
# number of rings (size 3 to 8) (size 9 to 14) (size 15 to 20)
#    0.000    1.800    0.000    7.200    0.000    0.000 
#    0.000    1.000    0.000   24.000    0.000    0.000 
#    0.000    0.000    0.000    0.000    0.000    0.000 
#
# Total GULP energy -496108.202527 kJ/mol
# GULP energy per Si atom -12402.705063 kJ/mol
# Density = 1.908255 g / cm^3
# Si number density = 19.126079 Si / 1000 Ang^3
#
#
#
# Elastic Constant Matrix: (Units=GPa)
#
#
# Indices 1 2 3 4 5 6 
#
# 1 67.8418 15.0715 9.7453 0.0000 0.0000 0.0000
# 2 15.0715 126.4209 70.9420 0.0000 0.0000 0.0000
# 3 9.7453 70.9420 118.4613 0.0000 0.0000 0.0000
# 4 0.0000 0.0000 0.0000 14.5808 0.0000 0.0000
# 5 0.0000 0.0000 0.0000 0.0000 30.3923 0.0000
# 6 0.0000 0.0000 0.0000 0.0000 0.0000 17.2443
#
#
#
# Elastic Compliance Matrix: (Units=1/GPa)
#
#
# Indices 1 2 3 4 5 6 
#
# 1 0.015146 -0.001666 -0.000248 0.000000 0.000000 0.000000
# 2 -0.001666 0.012097 -0.007107 0.000000 0.000000 0.000000
# 3 -0.000248 -0.007107 0.012718 0.000000 0.000000 0.000000
# 4 0.000000 0.000000 0.000000 0.068583 0.000000 0.000000
# 5 0.000000 0.000000 0.000000 0.000000 0.032903 0.000000
# 6 0.000000 0.000000 0.000000 0.000000 0.000000 0.057990
#
#
# Mechanical properties :
#
#
# Convention : Reuss Voigt Hill
#
# Bulk Modulus (GPa) = 45.62527 56.02683 50.82605
# Shear Modulus (GPa) = 22.24321 26.90783 24.57552
#
# Velocity S-wave (km/s) = 3.41395 3.75489 3.58847
# Velocity P-wave (km/s) = 6.28067 6.93945 6.61826
#
# Compressibility (1/GPa) = 0.02191768
#
# Stress axis : x y z
#
# Youngs Moduli (GPa) = 66.02394 82.66415 78.62655
#
# Poissons Ratio (x) = 0.13776 0.01950
# Poissons Ratio (y) = 0.11003 0.55883
# Poissons Ratio (z) = 0.01637 0.58753
#
# Static dielectric constant tensor:
#      x y z
#    x 3.370850 0.000000 0.000000 
#    y 0.000000 3.656450 0.000000 
#    z 0.000000 0.000000 3.671980 
# 
# 
# High freq. dielectric constant tensor:
#      x y z
#    x 1.739900 0.000000 0.000000 
#    y 0.000000 1.728540 0.000000 
#    z 0.000000 0.000000 1.746440 
# 
# From -- ./inp_files/29771.got.cif
#   From: 2010.03.12/outbox.cif.g09.slc.cpg/sg64_15_cif.got.tgz:29771.got - 2010.04.10 20:19:32.
