data_PCOD8262254
_publ_section_title
;
Structure prediction by ZEFSAII (Michael W. Deem and Ramdas Pophale) SiO2 
 PCOD8262254
Probable space group: C M C A
;
_chemical_formula_sum "Si O2"
_cell_formula_units_Z 104
_cell_length_a 19.983912
_cell_length_b 9.753598
_cell_length_c 27.389033
_cell_angle_alpha 90.000000
_cell_angle_beta 90.000000
_cell_angle_gamma 90.000000
_cell_volume 5338.534575
_symmetry_space_group_name_H-M "C M C A"
_symmetry_group_IT_number 64
_symmetry_cell_setting 'orthorhombic'
loop_
_space_group_symop_operation_xyz
x,y,z
-x,1/2-y,1/2+z
x,-y,-z
-x,1/2+y,1/2-z
-x,-y,-z
x,1/2+y,1/2-z
-x,y,z
x,1/2-y,1/2+z
1/2+x,1/2+y,z
1/2-x,-y,1/2+z
1/2+x,1/2-y,-z
1/2-x,y,1/2-z
1/2-x,1/2-y,-z
1/2+x,y,1/2-z
1/2-x,1/2+y,z
1/2+x,-y,1/2+z
loop_
_atom_site_type_symbol
_atom_site_label
_atom_site_fract_x
_atom_site_fract_y
_atom_site_fract_z
Si Si1 0.922222 0.927278 0.211162
Si Si2 0.579864 0.352553 0.861868
Si Si3 0.831459 0.750995 0.540591
Si Si4 0.577850 0.794333 0.867051
Si Si5 0.425092 0.138019 0.469358
Si Si6 0.921050 0.073964 0.680691
Si Si7 0.747644 0.000000 0.000000
O O1 0.911201 0.783444 0.184116
O O2 0.888677 0.930487 0.264914
O O3 0.000000 0.960924 0.217491
O O4 0.888614 0.042594 0.177026
O O5 0.500000 0.363275 0.860838
O O6 0.605862 0.390091 0.915922
O O7 0.607726 0.204172 0.847778
O O8 0.872252 0.740826 0.591244
O O9 0.883629 0.757004 0.495759
O O10 0.789367 0.608410 0.533758
O O11 0.792696 0.896945 0.536463
O O12 0.500000 0.777894 0.884348
O O13 0.597607 0.948385 0.853915
O O14 0.500000 0.194321 0.464392
O O15 0.421385 0.000000 0.500000
O O16 0.000000 0.087686 0.687058
#
# Coordination Sequence:
#
# PCOD8262254 Si02
#       7
#    16  16  16  16  16  16   8
#     4   9  16  28  47  75 115 154 180 207 258 338
#     4   9  17  27  43  71 105 144 179 203 259 330
#     4  11  22  42  58  81 108 143 195 239 277 347
#     4  10  20  33  56  88 119 148 179 225 285 338
#     4  10  19  32  55  84 115 143 172 226 288 344
#     4   9  17  29  45  75 118 151 177 212 264 335
#     4  10  26  42  60  74 106 150 198 238 290 320
#
# _framework density 19.481003000000001
#
# number of rings (size 3 to 8) (size 9 to 14) (size 15 to 20)
#    0.000    2.308    0.769    2.308    2.154    6.154 
#    0.000    0.769    0.000    0.000    0.000    3.231 
#    0.000    0.000    0.000    0.000    0.000    0.000 
#
# Total GULP energy -644265.433979 kJ/mol
# GULP energy per Si atom -12389.719884 kJ/mol
# Density = 1.943666 g / cm^3
# Si number density = 19.481003 Si / 1000 Ang^3
#
#
#
# Elastic Constant Matrix: (Units=GPa)
#
#
# Indices 1 2 3 4 5 6 
#
# 1 48.7070 22.7194 30.0078 0.0000 0.0000 0.0000
# 2 22.7194 126.8215 47.0512 0.0000 0.0000 0.0000
# 3 30.0078 47.0512 150.8944 0.0000 0.0000 0.0000
# 4 0.0000 0.0000 0.0000 22.6408 0.0000 0.0000
# 5 0.0000 0.0000 0.0000 0.0000 11.5026 0.0000
# 6 0.0000 0.0000 0.0000 0.0000 0.0000 12.9228
#
#
#
# Elastic Compliance Matrix: (Units=1/GPa)
#
#
# Indices 1 2 3 4 5 6 
#
# 1 0.024303 -0.002896 -0.003930 0.000000 0.000000 0.000000
# 2 -0.002896 0.009262 -0.002312 0.000000 0.000000 0.000000
# 3 -0.003930 -0.002312 0.008130 0.000000 0.000000 0.000000
# 4 0.000000 0.000000 0.000000 0.044168 0.000000 0.000000
# 5 0.000000 0.000000 0.000000 0.000000 0.086937 0.000000
# 6 0.000000 0.000000 0.000000 0.000000 0.000000 0.077382
#
#
# Mechanical properties :
#
#
# Convention : Reuss Voigt Hill
#
# Bulk Modulus (GPa) = 42.70127 58.44218 50.57173
# Shear Modulus (GPa) = 18.09868 24.52289 21.31078
#
# Velocity S-wave (km/s) = 3.05133 3.55182 3.31104
# Velocity P-wave (km/s) = 5.86354 6.84728 6.37442
#
# Compressibility (1/GPa) = 0.02341851
#
# Stress axis : x y z
#
# Youngs Moduli (GPa) = 41.14733 107.97244 123.00638
#
# Poissons Ratio (x) = 0.31265 0.48343
# Poissons Ratio (y) = 0.11915 0.28440
# Poissons Ratio (z) = 0.16171 0.24964
#
# Static dielectric constant tensor:
#      x y z
#    x 3.253270 0.000000 0.000000 
#    y 0.000000 3.697650 0.000000 
#    z 0.000000 0.000000 3.702300 
# 
# 
# High freq. dielectric constant tensor:
#      x y z
#    x 1.692850 0.000000 0.000000 
#    y 0.000000 1.769720 0.000000 
#    z 0.000000 0.000000 1.770080 
# 
# From -- ./inp_files/50758.got.cif
#   From: 2010.03.12/outbox.cif.g09.slc.cpg/sg64_26_cif.got.tgz:50758.got - 2010.04.10 20:19:32.
