data_PCOD8262605
_publ_section_title
;
Structure prediction by ZEFSAII (Michael W. Deem and Ramdas Pophale) SiO2 
 PCOD8262605
Probable space group: C M C A
;
_chemical_formula_sum "Si O2"
_cell_formula_units_Z 80
_cell_length_a 16.047371
_cell_length_b 8.789293
_cell_length_c 26.424234
_cell_angle_alpha 90.000000
_cell_angle_beta 90.000000
_cell_angle_gamma 90.000000
_cell_volume 3727.007289
_symmetry_space_group_name_H-M "C M C A"
_symmetry_group_IT_number 64
_symmetry_cell_setting 'orthorhombic'
loop_
_space_group_symop_operation_xyz
x,y,z
-x,1/2-y,1/2+z
x,-y,-z
-x,1/2+y,1/2-z
-x,-y,-z
x,1/2+y,1/2-z
-x,y,z
x,1/2-y,1/2+z
1/2+x,1/2+y,z
1/2-x,-y,1/2+z
1/2+x,1/2-y,-z
1/2-x,y,1/2-z
1/2-x,1/2-y,-z
1/2+x,y,1/2-z
1/2-x,1/2+y,z
1/2+x,-y,1/2+z
loop_
_atom_site_type_symbol
_atom_site_label
_atom_site_fract_x
_atom_site_fract_y
_atom_site_fract_z
Si Si1 0.500000 0.003447 0.268771
Si Si2 0.862799 0.891999 0.161691
Si Si3 0.000000 0.260844 0.522834
Si Si4 0.000000 0.320757 0.175367
Si Si5 0.500000 0.418369 0.077953
Si Si6 0.267603 0.620059 0.373564
Si Si7 0.636765 0.653783 0.590732
O O1 0.581868 0.917199 0.289020
O O2 0.500000 0.977533 0.208094
O O3 0.500000 0.178787 0.285691
O O4 0.788695 0.014314 0.162017
O O5 0.824087 0.723274 0.163445
O O6 0.917061 0.909792 0.110944
O O7 0.000000 0.421912 0.550335
O O8 0.000000 0.280323 0.462407
O O9 0.917721 0.168982 0.539917
O O10 0.918373 0.313049 0.140717
O O11 0.327193 0.516673 0.408544
O O12 0.212431 0.725950 0.410433
#
# Coordination Sequence:
#
# PCOD8262605 Si02
#       7
#     8  16   8   8   8  16  16
#     4  11  23  39  59  82 112 149 191 228 274 333
#     4  10  20  40  59  82 114 149 184 230 280 327
#     4  10  19  36  60  84 111 151 190 225 273 334
#     4  11  23  39  59  82 112 149 191 228 274 333
#     4  10  19  36  60  84 111 151 190 225 273 334
#     4  10  20  36  62  82 114 150 180 230 286 328
#     4  10  20  40  59  82 114 149 184 230 280 327
#
# _framework density 21.464945
#
# number of rings (size 3 to 8) (size 9 to 14) (size 15 to 20)
#    0.000    1.800    4.000    1.200    2.800    2.400 
#    0.000   14.000    0.000    0.000    0.000    0.000 
#    0.000    0.000    0.000    0.000    0.000    0.000 
#
# Total GULP energy -496088.884242 kJ/mol
# GULP energy per Si atom -12402.222106 kJ/mol
# Density = 2.141609 g / cm^3
# Si number density = 21.464945 Si / 1000 Ang^3
#
#
#
# Elastic Constant Matrix: (Units=GPa)
#
#
# Indices 1 2 3 4 5 6 
#
# 1 96.9354 35.0154 3.6462 0.0000 0.0000 0.0000
# 2 35.0154 102.4639 -6.2418 0.0000 0.0000 0.0000
# 3 3.6462 -6.2418 58.7705 0.0000 0.0000 0.0000
# 4 0.0000 0.0000 0.0000 23.8116 0.0000 0.0000
# 5 0.0000 0.0000 0.0000 0.0000 4.1211 0.0000
# 6 0.0000 0.0000 0.0000 0.0000 0.0000 5.9540
#
#
#
# Elastic Compliance Matrix: (Units=1/GPa)
#
#
# Indices 1 2 3 4 5 6 
#
# 1 0.011849 -0.004121 -0.001173 0.000000 0.000000 0.000000
# 2 -0.004121 0.011256 0.001451 0.000000 0.000000 0.000000
# 3 -0.001173 0.001451 0.017242 0.000000 0.000000 0.000000
# 4 0.000000 0.000000 0.000000 0.041996 0.000000 0.000000
# 5 0.000000 0.000000 0.000000 0.000000 0.242653 0.000000
# 6 0.000000 0.000000 0.000000 0.000000 0.000000 0.167953
#
#
# Mechanical properties :
#
#
# Convention : Reuss Voigt Hill
#
# Bulk Modulus (GPa) = 30.61603 35.88994 33.25298
# Shear Modulus (GPa) = 9.77476 21.82735 15.80106
#
# Velocity S-wave (km/s) = 2.13628 3.19232 2.71612
# Velocity P-wave (km/s) = 4.51433 5.50858 5.03605
#
# Compressibility (1/GPa) = 0.03266263
#
# Stress axis : x y z
#
# Youngs Moduli (GPa) = 84.39746 88.84098 57.99721
#
# Poissons Ratio (x) = 0.36607 0.06802
# Poissons Ratio (y) = 0.34776 -0.08416
# Poissons Ratio (z) = 0.09898 -0.12892
#
# Static dielectric constant tensor:
#      x y z
#    x 4.143310 0.000000 0.000000 
#    y 0.000000 3.978590 0.000000 
#    z 0.000000 0.000000 3.524270 
# 
# 
# High freq. dielectric constant tensor:
#      x y z
#    x 1.859250 0.000000 0.000000 
#    y 0.000000 1.854830 0.000000 
#    z 0.000000 0.000000 1.800340 
# 
# From -- ./inp_files/47914.got.cif
#   From: 2010.03.12/outbox.cif.g09.slc.cpg/sg64_24_cif.got.tgz:47914.got - 2010.04.10 20:19:32.
