data_PCOD8262498
_publ_section_title
;
Structure prediction by ZEFSAII (Michael W. Deem and Ramdas Pophale) SiO2 
 PCOD8262498
Probable space group: C M C A
;
_chemical_formula_sum "Si O2"
_cell_formula_units_Z 104
_cell_length_a 23.910583
_cell_length_b 10.678738
_cell_length_c 22.594488
_cell_angle_alpha 90.000000
_cell_angle_beta 90.000000
_cell_angle_gamma 90.000000
_cell_volume 5769.160233
_symmetry_space_group_name_H-M "C M C A"
_symmetry_group_IT_number 64
_symmetry_cell_setting 'orthorhombic'
loop_
_space_group_symop_operation_xyz
x,y,z
-x,1/2-y,1/2+z
x,-y,-z
-x,1/2+y,1/2-z
-x,-y,-z
x,1/2+y,1/2-z
-x,y,z
x,1/2-y,1/2+z
1/2+x,1/2+y,z
1/2-x,-y,1/2+z
1/2+x,1/2-y,-z
1/2-x,y,1/2-z
1/2-x,1/2-y,-z
1/2+x,y,1/2-z
1/2-x,1/2+y,z
1/2+x,-y,1/2+z
loop_
_atom_site_type_symbol
_atom_site_label
_atom_site_fract_x
_atom_site_fract_y
_atom_site_fract_z
Si Si1 0.812413 0.627752 0.477292
Si Si2 0.176277 0.988762 0.648645
Si Si3 0.812828 0.122119 0.472553
Si Si4 0.062119 0.731773 0.295361
Si Si5 0.750000 0.880171 0.750000
Si Si6 0.062012 0.490046 0.795254
Si Si7 0.323556 0.269406 0.853002
O O1 0.842509 0.500000 0.500000
O O2 0.843147 0.748704 0.507095
O O3 0.748969 0.625028 0.501350
O O4 0.810877 0.634573 0.405924
O O5 0.191582 0.887433 0.598614
O O6 0.208714 0.963528 0.709945
O O7 0.109367 0.978459 0.655261
O O8 0.192530 0.128450 0.627345
O O9 0.844498 0.000000 0.500000
O O10 0.073180 0.620822 0.250061
O O11 0.109759 0.720212 0.344471
O O12 0.000000 0.716448 0.323741
O O13 0.066808 0.870821 0.265199
O O14 0.710964 0.798376 0.706718
O O15 0.000000 0.474565 0.823658
#
# Coordination Sequence:
#
# PCOD8262498 Si02
#       7
#    16  16  16  16   8  16  16
#     4  10  21  35  53  76 102 141 187 218 256 315
#     4  11  21  35  54  78 113 143 174 223 267 325
#     4  10  19  35  55  72 100 145 182 213 260 313
#     4   9  18  34  55  77 103 142 180 215 263 317
#     4  12  22  32  48  88 112 146 166 212 282 328
#     4   9  18  34  54  77 105 140 181 217 262 320
#     4  11  21  36  53  78 116 139 174 224 266 323
#
# _framework density 18.026886999999999
#
# number of rings (size 3 to 8) (size 9 to 14) (size 15 to 20)
#    0.000    1.846    4.615    0.462    0.000    0.000 
#    5.538    0.000    0.000    1.846    0.000    0.000 
#    0.000    0.000    0.000    0.000    0.000    0.000 
#
# Total GULP energy -644296.369431 kJ/mol
# GULP energy per Si atom -12390.314797 kJ/mol
# Density = 1.798586 g / cm^3
# Si number density = 18.026887 Si / 1000 Ang^3
#
#
#
# Elastic Constant Matrix: (Units=GPa)
#
#
# Indices 1 2 3 4 5 6 
#
# 1 68.8677 27.3624 21.0250 0.0000 0.0000 0.0000
# 2 27.3624 142.2418 51.7430 0.0000 0.0000 0.0000
# 3 21.0250 51.7430 97.3477 0.0000 0.0000 0.0000
# 4 0.0000 0.0000 0.0000 34.7561 0.0000 0.0000
# 5 0.0000 0.0000 0.0000 0.0000 12.5664 0.0000
# 6 0.0000 0.0000 0.0000 0.0000 0.0000 16.9398
#
#
#
# Elastic Compliance Matrix: (Units=1/GPa)
#
#
# Indices 1 2 3 4 5 6 
#
# 1 0.016118 -0.002274 -0.002272 0.000000 0.000000 0.000000
# 2 -0.002274 0.009036 -0.004312 0.000000 0.000000 0.000000
# 3 -0.002272 -0.004312 0.013055 0.000000 0.000000 0.000000
# 4 0.000000 0.000000 0.000000 0.028772 0.000000 0.000000
# 5 0.000000 0.000000 0.000000 0.000000 0.079577 0.000000
# 6 0.000000 0.000000 0.000000 0.000000 0.000000 0.059033
#
#
# Mechanical properties :
#
#
# Convention : Reuss Voigt Hill
#
# Bulk Modulus (GPa) = 48.79782 56.52424 52.66103
# Shear Modulus (GPa) = 21.72605 26.74091 24.23348
#
# Velocity S-wave (km/s) = 3.47537 3.85566 3.67044
# Velocity P-wave (km/s) = 6.57514 7.15857 6.87305
#
# Compressibility (1/GPa) = 0.02049272
#
# Stress axis : x y z
#
# Youngs Moduli (GPa) = 62.04313 110.66562 76.59803
#
# Poissons Ratio (x) = 0.25164 0.17407
# Poissons Ratio (y) = 0.14108 0.33028
# Poissons Ratio (z) = 0.14099 0.47718
#
# Static dielectric constant tensor:
#      x y z
#    x 3.310170 0.000000 0.000000 
#    y 0.000000 3.786950 0.000000 
#    z 0.000000 0.000000 2.998780 
# 
# 
# High freq. dielectric constant tensor:
#      x y z
#    x 1.675150 0.000000 0.000000 
#    y 0.000000 1.718500 0.000000 
#    z 0.000000 0.000000 1.670690 
# 
# From -- ./inp_files/35485.got.cif
#   From: 2010.03.12/outbox.cif.g09.slc.cpg/sg64_18_cif.got.tgz:35485.got - 2010.04.10 20:19:32.
