data_PCOD8262964
_publ_section_title
;
Structure prediction by ZEFSAII (Michael W. Deem and Ramdas Pophale) SiO2 
 PCOD8262964
Probable space group: C M C A
;
_chemical_formula_sum "Si O2"
_cell_formula_units_Z 96
_cell_length_a 8.614528
_cell_length_b 23.061166
_cell_length_c 23.836937
_cell_angle_alpha 90.000000
_cell_angle_beta 90.000000
_cell_angle_gamma 90.000000
_cell_volume 4735.471177
_symmetry_space_group_name_H-M "C M C A"
_symmetry_group_IT_number 64
_symmetry_cell_setting 'orthorhombic'
loop_
_space_group_symop_operation_xyz
x,y,z
-x,1/2-y,1/2+z
x,-y,-z
-x,1/2+y,1/2-z
-x,-y,-z
x,1/2+y,1/2-z
-x,y,z
x,1/2-y,1/2+z
1/2+x,1/2+y,z
1/2-x,-y,1/2+z
1/2+x,1/2-y,-z
1/2-x,y,1/2-z
1/2-x,1/2-y,-z
1/2+x,y,1/2-z
1/2-x,1/2+y,z
1/2+x,-y,1/2+z
loop_
_atom_site_type_symbol
_atom_site_label
_atom_site_fract_x
_atom_site_fract_y
_atom_site_fract_z
Si Si1 0.680555 0.116087 0.470588
Si Si2 0.680360 0.772278 0.596152
Si Si3 0.683382 0.649036 0.911253
Si Si4 0.316038 0.448077 0.864524
Si Si5 0.319203 0.339057 0.692673
Si Si6 0.816412 0.066402 0.811835
O O1 0.500000 0.105293 0.465033
O O2 0.720787 0.182349 0.453289
O O3 0.730890 0.107650 0.535592
O O4 0.754499 0.069485 0.426383
O O5 0.500000 0.776564 0.612716
O O6 0.722716 0.707636 0.578607
O O7 0.786988 0.788195 0.648814
O O8 0.500000 0.661802 0.913092
O O9 0.732247 0.619063 0.852901
O O10 0.500000 0.453606 0.867531
O O11 0.271213 0.397925 0.821545
O O12 0.246999 0.508213 0.840592
O O13 0.500000 0.352499 0.696972
O O14 0.250000 0.314812 0.750000
O O15 0.750000 0.077270 0.750000
O O16 0.000000 0.062009 0.806551
#
# Coordination Sequence:
#
# PCOD8262964 Si02
#       6
#    16  16  16  16  16  16
#     4   8  16  32  56  82 108 134 172 223 274 322
#     4  10  20  35  54  79 109 143 178 221 272 324
#     4  10  20  35  54  79 108 144 183 221 265 320
#     4   9  18  35  56  81 108 137 174 221 272 323
#     4  11  21  34  54  80 107 139 178 225 273 322
#     4  10  22  37  55  77 107 145 184 220 262 314
#
# _framework density 20.272534
#
# number of rings (size 3 to 8) (size 9 to 14) (size 15 to 20)
#    0.000    2.333    0.000    4.000    0.000    4.000 
#    0.000    8.333    0.000    0.000    0.000    7.000 
#    0.000    0.000    0.000    0.000    0.000    0.000 
#
# Total GULP energy -594896.597846 kJ/mol
# GULP energy per Si atom -12393.679122 kJ/mol
# Density = 2.022639 g / cm^3
# Si number density = 20.272534 Si / 1000 Ang^3
#
#
#
# Elastic Constant Matrix: (Units=GPa)
#
#
# Indices 1 2 3 4 5 6 
#
# 1 22.5993 14.5519 25.2115 0.0000 0.0000 0.0000
# 2 14.5519 65.0476 41.9470 0.0000 0.0000 0.0000
# 3 25.2115 41.9470 154.8126 0.0000 0.0000 0.0000
# 4 0.0000 0.0000 0.0000 37.5402 0.0000 0.0000
# 5 0.0000 0.0000 0.0000 0.0000 25.5099 0.0000
# 6 0.0000 0.0000 0.0000 0.0000 0.0000 24.7830
#
#
#
# Elastic Compliance Matrix: (Units=1/GPa)
#
#
# Indices 1 2 3 4 5 6 
#
# 1 0.057527 -0.008274 -0.007127 0.000000 0.000000 0.000000
# 2 -0.008274 0.019818 -0.004022 0.000000 0.000000 0.000000
# 3 -0.007127 -0.004022 0.008710 0.000000 0.000000 0.000000
# 4 0.000000 0.000000 0.000000 0.026638 0.000000 0.000000
# 5 0.000000 0.000000 0.000000 0.000000 0.039201 0.000000
# 6 0.000000 0.000000 0.000000 0.000000 0.000000 0.040350
#
#
# Mechanical properties :
#
#
# Convention : Reuss Voigt Hill
#
# Bulk Modulus (GPa) = 21.18217 45.09782 33.14000
# Shear Modulus (GPa) = 20.25719 28.28322 24.27020
#
# Velocity S-wave (km/s) = 3.16451 3.73922 3.46381
# Velocity P-wave (km/s) = 4.88094 6.39816 5.69034
#
# Compressibility (1/GPa) = 0.04720951
#
# Stress axis : x y z
#
# Youngs Moduli (GPa) = 17.38316 50.45861 114.81217
#
# Poissons Ratio (x) = 0.41749 0.81821
# Poissons Ratio (y) = 0.14382 0.46182
# Poissons Ratio (z) = 0.12388 0.20297
#
# Static dielectric constant tensor:
#      x y z
#    x 3.359520 0.000000 0.000000 
#    y 0.000000 3.615930 0.000000 
#    z 0.000000 0.000000 4.005180 
# 
# 
# High freq. dielectric constant tensor:
#      x y z
#    x 1.761710 0.000000 0.000000 
#    y 0.000000 1.780770 0.000000 
#    z 0.000000 0.000000 1.807320 
# 
# From -- ./inp_files/42979.got.cif
#   From: 2010.03.12/outbox.cif.g09.slc.cpg/sg64_22_cif.got.tgz:42979.got - 2010.04.10 20:19:32.
