data_PCOD8262664
_publ_section_title
;
Structure prediction by ZEFSAII (Michael W. Deem and Ramdas Pophale) SiO2 
 PCOD8262664
Probable space group: C M C A
;
_chemical_formula_sum "Si O2"
_cell_formula_units_Z 88
_cell_length_a 20.376229
_cell_length_b 19.138357
_cell_length_c 11.618793
_cell_angle_alpha 90.000000
_cell_angle_beta 90.000000
_cell_angle_gamma 90.000000
_cell_volume 4530.952181
_symmetry_space_group_name_H-M "C M C A"
_symmetry_group_IT_number 64
_symmetry_cell_setting 'orthorhombic'
loop_
_space_group_symop_operation_xyz
x,y,z
-x,1/2-y,1/2+z
x,-y,-z
-x,1/2+y,1/2-z
-x,-y,-z
x,1/2+y,1/2-z
-x,y,z
x,1/2-y,1/2+z
1/2+x,1/2+y,z
1/2-x,-y,1/2+z
1/2+x,1/2-y,-z
1/2-x,y,1/2-z
1/2-x,1/2-y,-z
1/2+x,y,1/2-z
1/2-x,1/2+y,z
1/2+x,-y,1/2+z
loop_
_atom_site_type_symbol
_atom_site_label
_atom_site_fract_x
_atom_site_fract_y
_atom_site_fract_z
Si Si1 0.127424 0.000000 0.500000
Si Si2 0.293623 0.379364 0.417359
Si Si3 0.839526 0.842307 0.183686
Si Si4 0.925227 0.418513 0.799436
Si Si5 0.313159 0.313800 0.665813
Si Si6 0.423826 0.034292 0.614008
O O1 0.175235 0.043666 0.583018
O O2 0.081466 0.052984 0.429308
O O3 0.220173 0.385827 0.371234
O O4 0.334963 0.335350 0.322805
O O5 0.293529 0.345381 0.543185
O O6 0.839868 0.763394 0.137524
O O7 0.901715 0.886704 0.142525
O O8 0.873162 0.356612 0.776631
O O9 0.907182 0.482722 0.717870
O O10 0.000000 0.391557 0.780016
O O11 0.250000 0.313295 0.750000
O O12 0.500000 0.042580 0.592296
O O13 0.391165 0.000000 0.500000
#
# Coordination Sequence:
#
# PCOD8262664 Si02
#       6
#     8  16  16  16  16  16
#     4  10  19  38  60  88 113 146 206 248 299 350
#     4  10  22  37  59  90 117 154 201 242 304 355
#     4  11  22  39  62  84 124 156 198 249 298 361
#     4  10  22  39  60  86 117 154 201 248 300 353
#     4  11  24  38  60  90 123 159 199 251 304 360
#     4  10  23  40  60  87 119 161 201 247 305 362
#
# _framework density 19.421966000000001
#
# number of rings (size 3 to 8) (size 9 to 14) (size 15 to 20)
#    0.000    1.636    3.636    0.818    3.818    2.182 
#    0.000    0.000    0.000    0.000    0.000    0.000 
#    0.000    0.000    0.000    0.000    0.000    0.000 
#
# Total GULP energy -545439.674152 kJ/mol
# GULP energy per Si atom -12396.356231 kJ/mol
# Density = 1.937776 g / cm^3
# Si number density = 19.421966 Si / 1000 Ang^3
#
#
#
# Elastic Constant Matrix: (Units=GPa)
#
#
# Indices 1 2 3 4 5 6 
#
# 1 86.4519 62.2067 32.4683 0.0000 0.0000 0.0000
# 2 62.2067 92.2219 23.8475 0.0000 0.0000 0.0000
# 3 32.4683 23.8475 91.5345 0.0000 0.0000 0.0000
# 4 0.0000 0.0000 0.0000 20.2084 0.0000 0.0000
# 5 0.0000 0.0000 0.0000 0.0000 24.8928 0.0000
# 6 0.0000 0.0000 0.0000 0.0000 0.0000 32.4320
#
#
#
# Elastic Compliance Matrix: (Units=1/GPa)
#
#
# Indices 1 2 3 4 5 6 
#
# 1 0.024185 -0.015114 -0.004641 0.000000 0.000000 0.000000
# 2 -0.015114 0.021071 -0.000129 0.000000 0.000000 0.000000
# 3 -0.004641 -0.000129 0.012605 0.000000 0.000000 0.000000
# 4 0.000000 0.000000 0.000000 0.049484 0.000000 0.000000
# 5 0.000000 0.000000 0.000000 0.000000 0.040172 0.000000
# 6 0.000000 0.000000 0.000000 0.000000 0.000000 0.030834
#
#
# Mechanical properties :
#
#
# Convention : Reuss Voigt Hill
#
# Bulk Modulus (GPa) = 55.26663 56.36148 55.81406
# Shear Modulus (GPa) = 22.30649 25.61903 23.96276
#
# Velocity S-wave (km/s) = 3.39266 3.63585 3.51636
# Velocity P-wave (km/s) = 6.62302 6.83435 6.72951
#
# Compressibility (1/GPa) = 0.01809410
#
# Stress axis : x y z
#
# Youngs Moduli (GPa) = 41.34756 47.45792 79.33563
#
# Poissons Ratio (x) = 0.71726 0.36821
# Poissons Ratio (y) = 0.62491 0.01022
# Poissons Ratio (z) = 0.19190 0.00611
#
# Static dielectric constant tensor:
#      x y z
#    x 3.445440 0.000000 0.000000 
#    y 0.000000 3.503520 0.000000 
#    z 0.000000 0.000000 3.708480 
# 
# 
# High freq. dielectric constant tensor:
#      x y z
#    x 1.746110 0.000000 0.000000 
#    y 0.000000 1.752570 0.000000 
#    z 0.000000 0.000000 1.768680 
# 
# From -- ./inp_files/17168.got.cif
#   From: 2010.03.12/outbox.cif.g09.slc.cpg/sg64_9_cif.got.tgz:17168.got - 2010.04.10 20:19:32.
