data_PCOD8262066
_publ_section_title
;
Structure prediction by ZEFSAII (Michael W. Deem and Ramdas Pophale) SiO2 
 PCOD8262066
Probable space group: C M C A
;
_chemical_formula_sum "Si O2"
_cell_formula_units_Z 128
_cell_length_a 9.884274
_cell_length_b 27.906807
_cell_length_c 27.942193
_cell_angle_alpha 90.000000
_cell_angle_beta 90.000000
_cell_angle_gamma 90.000000
_cell_volume 7707.533354
_symmetry_space_group_name_H-M "C M C A"
_symmetry_group_IT_number 64
_symmetry_cell_setting 'orthorhombic'
loop_
_space_group_symop_operation_xyz
x,y,z
-x,1/2-y,1/2+z
x,-y,-z
-x,1/2+y,1/2-z
-x,-y,-z
x,1/2+y,1/2-z
-x,y,z
x,1/2-y,1/2+z
1/2+x,1/2+y,z
1/2-x,-y,1/2+z
1/2+x,1/2-y,-z
1/2-x,y,1/2-z
1/2-x,1/2-y,-z
1/2+x,y,1/2-z
1/2-x,1/2+y,z
1/2+x,-y,1/2+z
loop_
_atom_site_type_symbol
_atom_site_label
_atom_site_fract_x
_atom_site_fract_y
_atom_site_fract_z
Si Si1 0.355187 0.477790 0.869112
Si Si2 0.158773 0.327309 0.638885
Si Si3 0.846242 0.439634 0.123991
Si Si4 0.158574 0.605543 0.441985
Si Si5 0.853248 0.904191 0.789497
Si Si6 0.157508 0.244161 0.705435
Si Si7 0.156590 0.633800 0.794272
Si Si8 0.843743 0.945197 0.487293
O O1 0.500000 0.501369 0.883953
O O2 0.243215 0.516736 0.859140
O O3 0.310488 0.440016 0.908983
O O4 0.376449 0.451279 0.819815
O O5 0.208015 0.345415 0.586064
O O6 0.216888 0.361723 0.680101
O O7 0.194123 0.273234 0.656076
O O8 0.000000 0.337367 0.637354
O O9 0.807622 0.393872 0.156636
O O10 0.821661 0.431366 0.067919
O O11 0.000000 0.454494 0.133485
O O12 0.252511 0.595628 0.487637
O O13 0.000000 0.608784 0.456639
O O14 0.750000 0.919845 0.750000
O O15 0.000000 0.887994 0.768577
O O16 0.250000 0.261643 0.750000
O O17 0.187683 0.189089 0.693920
O O18 0.000000 0.252802 0.718942
O O19 0.250000 0.616238 0.750000
O O20 0.000000 0.626398 0.779434
O O21 0.000000 0.939049 0.502749
O O22 0.797425 0.000000 0.500000
#
# Coordination Sequence:
#
# PCOD8262066 Si02
#       8
#    16  16  16  16  16  16  16  16
#     4   9  18  30  43  61  87 118 151 186 225 268
#     4   8  15  28  46  67  92 119 148 185 227 274
#     4  10  20  33  48  67  92 121 155 192 232 275
#     4   9  17  30  47  68  93 120 152 188 227 273
#     4   9  17  28  40  59  88 118 147 181 220 266
#     4   9  16  29  50  72  93 119 154 193 234 277
#     4   9  19  34  51  71  94 122 155 193 233 275
#     4  10  19  31  48  69  93 122 157 197 234 270
#
# _framework density 16.607127999999999
#
# number of rings (size 3 to 8) (size 9 to 14) (size 15 to 20)
#    0.000    2.875    1.250    1.875    0.000    2.250 
#    0.000    5.000    0.000    0.750    0.000    0.000 
#    0.000    0.000    0.000    0.000    0.000    0.000 
#
# Total GULP energy -792848.916476 kJ/mol
# GULP energy per Si atom -12388.264320 kJ/mol
# Density = 1.656933 g / cm^3
# Si number density = 16.607128 Si / 1000 Ang^3
#
#
#
# Elastic Constant Matrix: (Units=GPa)
#
#
# Indices 1 2 3 4 5 6 
#
# 1 57.9759 33.7402 42.9075 0.0000 0.0000 0.0000
# 2 33.7402 73.0294 45.8536 0.0000 0.0000 0.0000
# 3 42.9075 45.8536 90.8892 0.0000 0.0000 0.0000
# 4 0.0000 0.0000 0.0000 25.3307 0.0000 0.0000
# 5 0.0000 0.0000 0.0000 0.0000 21.5084 0.0000
# 6 0.0000 0.0000 0.0000 0.0000 0.0000 23.8929
#
#
#
# Elastic Compliance Matrix: (Units=1/GPa)
#
#
# Indices 1 2 3 4 5 6 
#
# 1 0.028745 -0.006967 -0.010055 0.000000 0.000000 0.000000
# 2 -0.006967 0.021730 -0.007674 0.000000 0.000000 0.000000
# 3 -0.010055 -0.007674 0.019621 0.000000 0.000000 0.000000
# 4 0.000000 0.000000 0.000000 0.039478 0.000000 0.000000
# 5 0.000000 0.000000 0.000000 0.000000 0.046494 0.000000
# 6 0.000000 0.000000 0.000000 0.000000 0.000000 0.041854
#
#
# Mechanical properties :
#
#
# Convention : Reuss Voigt Hill
#
# Bulk Modulus (GPa) = 48.30034 51.87744 50.08889
# Shear Modulus (GPa) = 19.66848 20.77261 20.22054
#
# Velocity S-wave (km/s) = 3.44516 3.54054 3.49317
# Velocity P-wave (km/s) = 6.70617 6.92963 6.81881
#
# Compressibility (1/GPa) = 0.02070379
#
# Stress axis : x y z
#
# Youngs Moduli (GPa) = 34.78887 46.01904 50.96636
#
# Poissons Ratio (x) = 0.32061 0.51248
# Poissons Ratio (y) = 0.24237 0.39111
# Poissons Ratio (z) = 0.34981 0.35314
#
# Static dielectric constant tensor:
#      x y z
#    x 3.911410 0.000000 0.000000 
#    y 0.000000 3.039710 0.000000 
#    z 0.000000 0.000000 3.123300 
# 
# 
# High freq. dielectric constant tensor:
#      x y z
#    x 1.634140 0.000000 0.000000 
#    y 0.000000 1.621260 0.000000 
#    z 0.000000 0.000000 1.627280 
# 
# From -- ./inp_files/49658.got.cif
#   From: 2010.03.12/outbox.cif.g09.slc.cpg/sg64_25_cif.got.tgz:49658.got - 2010.04.10 20:19:32.
