data_PCOD8262374
_publ_section_title
;
Structure prediction by ZEFSAII (Michael W. Deem and Ramdas Pophale) SiO2 
 PCOD8262374
Probable space group: C M C A
;
_chemical_formula_sum "Si O2"
_cell_formula_units_Z 80
_cell_length_a 16.776033
_cell_length_b 17.795233
_cell_length_c 13.567885
_cell_angle_alpha 90.000000
_cell_angle_beta 90.000000
_cell_angle_gamma 90.000000
_cell_volume 4050.467058
_symmetry_space_group_name_H-M "C M C A"
_symmetry_group_IT_number 64
_symmetry_cell_setting 'orthorhombic'
loop_
_space_group_symop_operation_xyz
x,y,z
-x,1/2-y,1/2+z
x,-y,-z
-x,1/2+y,1/2-z
-x,-y,-z
x,1/2+y,1/2-z
-x,y,z
x,1/2-y,1/2+z
1/2+x,1/2+y,z
1/2-x,-y,1/2+z
1/2+x,1/2-y,-z
1/2-x,y,1/2-z
1/2-x,1/2-y,-z
1/2+x,y,1/2-z
1/2-x,1/2+y,z
1/2+x,-y,1/2+z
loop_
_atom_site_type_symbol
_atom_site_label
_atom_site_fract_x
_atom_site_fract_y
_atom_site_fract_z
Si Si1 0.405011 0.675520 0.166398
Si Si2 0.816349 0.032885 0.108036
Si Si3 0.594189 0.839004 0.088385
Si Si4 0.087444 0.632515 0.123624
Si Si5 0.146297 0.487300 0.184266
O O1 0.500000 0.658041 0.157317
O O2 0.352695 0.616939 0.103353
O O3 0.383748 0.758082 0.129650
O O4 0.373510 0.669761 0.279376
O O5 0.859871 0.987173 0.196522
O O6 0.724034 0.028823 0.138307
O O7 0.832795 0.000000 0.000000
O O8 0.500000 0.855219 0.092030
O O9 0.638799 0.901386 0.153062
O O10 0.631099 0.845519 0.978205
O O11 0.079174 0.542036 0.139043
O O12 0.000000 0.667384 0.113224
#
# Coordination Sequence:
#
# PCOD8262374 Si02
#       5
#    16  16  16  16  16
#     4   9  20  36  52  77 109 139 175 215 259 312
#     4  10  21  37  54  75 106 144 177 209 258 314
#     4  10  19  33  57  83 105 133 173 223 268 303
#     4   9  17  32  54  77 105 140 174 214 262 309
#     4  10  20  35  54  79 106 135 178 218 254 311
#
# _framework density 19.750807999999999
#
# number of rings (size 3 to 8) (size 9 to 14) (size 15 to 20)
#    0.000    2.400    0.000    2.400    0.000    4.400 
#    0.000   14.000    0.000    0.000    0.000    0.000 
#    0.000    0.000    0.000    0.000    0.000    0.000 
#
# Total GULP energy -495565.116272 kJ/mol
# GULP energy per Si atom -12389.127907 kJ/mol
# Density = 1.970585 g / cm^3
# Si number density = 19.750808 Si / 1000 Ang^3
#
#
#
# Elastic Constant Matrix: (Units=GPa)
#
#
# Indices 1 2 3 4 5 6 
#
# 1 48.7551 40.9504 20.9738 0.0000 0.0000 0.0000
# 2 40.9504 164.1114 97.7455 0.0000 0.0000 0.0000
# 3 20.9738 97.7455 177.3470 0.0000 0.0000 0.0000
# 4 0.0000 0.0000 0.0000 28.3650 0.0000 0.0000
# 5 0.0000 0.0000 0.0000 0.0000 20.9933 0.0000
# 6 0.0000 0.0000 0.0000 0.0000 0.0000 24.2302
#
#
#
# Elastic Compliance Matrix: (Units=1/GPa)
#
#
# Indices 1 2 3 4 5 6 
#
# 1 0.026015 -0.006936 0.000746 0.000000 0.000000 0.000000
# 2 -0.006936 0.010920 -0.005199 0.000000 0.000000 0.000000
# 3 0.000746 -0.005199 0.008416 0.000000 0.000000 0.000000
# 4 0.000000 0.000000 0.000000 0.035255 0.000000 0.000000
# 5 0.000000 0.000000 0.000000 0.000000 0.047634 0.000000
# 6 0.000000 0.000000 0.000000 0.000000 0.000000 0.041271
#
#
# Mechanical properties :
#
#
# Convention : Reuss Voigt Hill
#
# Bulk Modulus (GPa) = 44.29756 78.83920 61.56838
# Shear Modulus (GPa) = 25.02342 30.08729 27.55535
#
# Velocity S-wave (km/s) = 3.56329 3.90724 3.73922
# Velocity P-wave (km/s) = 6.27745 7.76910 7.06277
#
# Compressibility (1/GPa) = 0.02257461
#
# Stress axis : x y z
#
# Youngs Moduli (GPa) = 38.43879 91.57159 118.82647
#
# Poissons Ratio (x) = 0.63514 -0.08865
# Poissons Ratio (y) = 0.26661 0.61773
# Poissons Ratio (z) = -0.02868 0.47604
#
# Static dielectric constant tensor:
#      x y z
#    x 3.438950 0.000000 0.000000 
#    y 0.000000 3.386310 0.000000 
#    z 0.000000 0.000000 3.864500 
# 
# 
# High freq. dielectric constant tensor:
#      x y z
#    x 1.750090 0.000000 0.000000 
#    y 0.000000 1.756870 0.000000 
#    z 0.000000 0.000000 1.784960 
# 
# From -- ./inp_files/25274.got.cif
#   From: 2010.03.12/outbox.cif.g09.slc.cpg/sg64_13_cif.got.tgz:25274.got - 2010.04.10 20:19:32.
