data_PCOD8262932
_publ_section_title
;
Structure prediction by ZEFSAII (Michael W. Deem and Ramdas Pophale) SiO2 
 PCOD8262932
Probable space group: C M C A
;
_chemical_formula_sum "Si O2"
_cell_formula_units_Z 96
_cell_length_a 14.561528
_cell_length_b 21.974402
_cell_length_c 13.767978
_cell_angle_alpha 90.000000
_cell_angle_beta 90.000000
_cell_angle_gamma 90.000000
_cell_volume 4405.489579
_symmetry_space_group_name_H-M "C M C A"
_symmetry_group_IT_number 64
_symmetry_cell_setting 'orthorhombic'
loop_
_space_group_symop_operation_xyz
x,y,z
-x,1/2-y,1/2+z
x,-y,-z
-x,1/2+y,1/2-z
-x,-y,-z
x,1/2+y,1/2-z
-x,y,z
x,1/2-y,1/2+z
1/2+x,1/2+y,z
1/2-x,-y,1/2+z
1/2+x,1/2-y,-z
1/2-x,y,1/2-z
1/2-x,1/2-y,-z
1/2+x,y,1/2-z
1/2-x,1/2+y,z
1/2+x,-y,1/2+z
loop_
_atom_site_type_symbol
_atom_site_label
_atom_site_fract_x
_atom_site_fract_y
_atom_site_fract_z
Si Si1 0.148089 0.232470 0.219250
Si Si2 0.148228 0.132462 0.713438
Si Si3 0.898099 0.903732 0.088112
Si Si4 0.202152 0.432377 0.020149
Si Si5 0.394188 0.219018 0.487856
Si Si6 0.604359 0.336283 0.594362
O O1 0.250000 0.243329 0.250000
O O2 0.101561 0.300003 0.207081
O O3 0.150058 0.199922 0.114437
O O4 0.099070 0.186620 0.294063
O O5 0.250000 0.140983 0.750000
O O6 0.097770 0.090692 0.794623
O O7 0.147209 0.097338 0.610729
O O8 0.812645 0.938739 0.038485
O O9 0.000000 0.923893 0.047584
O O10 0.877318 0.832989 0.066799
O O11 0.165470 0.500000 0.000000
O O12 0.173642 0.392693 0.925127
O O13 0.500000 0.229984 0.468661
O O14 0.352638 0.281351 0.530293
O O15 0.500000 0.353941 0.564845
#
# Coordination Sequence:
#
# PCOD8262932 Si02
#       6
#    16  16  16  16  16  16
#     4  11  20  33  59  92 129 165 207 269 332 381
#     4   9  19  35  59  90 121 162 214 264 316 376
#     4  10  21  39  65  96 125 163 215 272 327 381
#     4  11  24  43  64  91 133 179 221 259 312 387
#     4  10  20  34  57  91 127 155 198 266 333 383
#     4  11  23  38  61  93 130 169 210 262 324 386
#
# _framework density 21.790994000000001
#
# number of rings (size 3 to 8) (size 9 to 14) (size 15 to 20)
#    0.000    1.667    3.333    1.500    0.000    3.333 
#    0.000    7.500    0.000    0.000    0.000    0.000 
#    0.000    0.000    0.000    0.000    0.000    0.000 
#
# Total GULP energy -594797.979288 kJ/mol
# GULP energy per Si atom -12391.624569 kJ/mol
# Density = 2.174140 g / cm^3
# Si number density = 21.790994 Si / 1000 Ang^3
#
#
#
# Elastic Constant Matrix: (Units=GPa)
#
#
# Indices 1 2 3 4 5 6 
#
# 1 51.2525 25.4634 28.7849 0.0000 0.0000 0.0000
# 2 25.4634 113.0050 46.4663 0.0000 0.0000 0.0000
# 3 28.7849 46.4663 117.7165 0.0000 0.0000 0.0000
# 4 0.0000 0.0000 0.0000 7.1841 0.0000 0.0000
# 5 0.0000 0.0000 0.0000 0.0000 27.6354 0.0000
# 6 0.0000 0.0000 0.0000 0.0000 0.0000 15.1232
#
#
#
# Elastic Compliance Matrix: (Units=1/GPa)
#
#
# Indices 1 2 3 4 5 6 
#
# 1 0.023745 -0.003537 -0.004410 0.000000 0.000000 0.000000
# 2 -0.003537 0.011091 -0.003513 0.000000 0.000000 0.000000
# 3 -0.004410 -0.003513 0.010960 0.000000 0.000000 0.000000
# 4 0.000000 0.000000 0.000000 0.139197 0.000000 0.000000
# 5 0.000000 0.000000 0.000000 0.000000 0.036185 0.000000
# 6 0.000000 0.000000 0.000000 0.000000 0.000000 0.066124
#
#
# Mechanical properties :
#
#
# Convention : Reuss Voigt Hill
#
# Bulk Modulus (GPa) = 43.71452 53.71147 48.71299
# Shear Modulus (GPa) = 15.73080 22.07250 18.90165
#
# Velocity S-wave (km/s) = 2.68972 3.18609 2.94837
# Velocity P-wave (km/s) = 5.45440 6.18360 5.83041
#
# Compressibility (1/GPa) = 0.02287570
#
# Stress axis : x y z
#
# Youngs Moduli (GPa) = 42.11327 90.16604 91.24050
#
# Poissons Ratio (x) = 0.31893 0.40239
# Poissons Ratio (y) = 0.14896 0.32052
# Poissons Ratio (z) = 0.18573 0.31674
#
# Static dielectric constant tensor:
#      x y z
#    x 3.451100 0.000000 0.000000 
#    y 0.000000 3.525190 0.000000 
#    z 0.000000 0.000000 5.083590 
# 
# 
# High freq. dielectric constant tensor:
#      x y z
#    x 1.857780 0.000000 0.000000 
#    y 0.000000 1.811420 0.000000 
#    z 0.000000 0.000000 1.858340 
# 
# From -- ./inp_files/23851.got.cif
#   From: 2010.03.12/outbox.cif.g09.slc.cpg/sg64_12_cif.got.tgz:23851.got - 2010.04.10 20:19:32.
