data_PCOD8262541
_publ_section_title
;
Structure prediction by ZEFSAII (Michael W. Deem and Ramdas Pophale) SiO2 
 PCOD8262541
Probable space group: C M C A
;
_chemical_formula_sum "Si O2"
_cell_formula_units_Z 120
_cell_length_a 27.443725
_cell_length_b 11.093035
_cell_length_c 21.447960
_cell_angle_alpha 90.000000
_cell_angle_beta 90.000000
_cell_angle_gamma 90.000000
_cell_volume 6529.492586
_symmetry_space_group_name_H-M "C M C A"
_symmetry_group_IT_number 64
_symmetry_cell_setting 'orthorhombic'
loop_
_space_group_symop_operation_xyz
x,y,z
-x,1/2-y,1/2+z
x,-y,-z
-x,1/2+y,1/2-z
-x,-y,-z
x,1/2+y,1/2-z
-x,y,z
x,1/2-y,1/2+z
1/2+x,1/2+y,z
1/2-x,-y,1/2+z
1/2+x,1/2-y,-z
1/2-x,y,1/2-z
1/2-x,1/2-y,-z
1/2+x,y,1/2-z
1/2-x,1/2+y,z
1/2+x,-y,1/2+z
loop_
_atom_site_type_symbol
_atom_site_label
_atom_site_fract_x
_atom_site_fract_y
_atom_site_fract_z
Si Si1 0.943600 0.661192 0.369427
Si Si2 0.633258 0.798557 0.208116
Si Si3 0.160183 0.006170 0.370450
Si Si4 0.621060 0.500000 0.500000
Si Si5 0.235191 0.646830 0.817713
Si Si6 0.554168 0.218288 0.998743
Si Si7 0.339786 0.281550 0.152443
Si Si8 0.901145 0.436622 0.437345
O O1 0.907794 0.703252 0.313439
O O2 0.936207 0.753170 0.426274
O O3 0.928965 0.527887 0.391589
O O4 0.000000 0.660484 0.346620
O O5 0.688849 0.759105 0.187373
O O6 0.633358 0.814052 0.282778
O O7 0.624172 0.929581 0.175689
O O8 0.147041 0.144983 0.363124
O O9 0.153861 0.963514 0.441523
O O10 0.216506 0.972751 0.354318
O O11 0.589212 0.613273 0.478333
O O12 0.250000 0.598984 0.750000
O O13 0.281232 0.709341 0.849331
O O14 0.500000 0.170108 0.008414
O O15 0.560185 0.336662 0.041011
O O16 0.357401 0.373043 0.099363
O O17 0.879788 0.500000 0.500000
#
# Coordination Sequence:
#
# PCOD8262541 Si02
#       8
#    16  16  16   8  16  16  16  16
#     4  10  20  37  61  84 119 161 197 243 301 355
#     4   9  21  39  60  90 117 154 202 250 293 355
#     4  10  22  38  61  88 122 150 195 251 296 356
#     4  12  19  38  58  86 124 152 186 258 307 348
#     4   8  19  38  58  90 112 155 202 242 288 356
#     4  10  19  35  59  84 112 155 204 242 292 357
#     4  11  21  39  63  84 120 160 195 251 303 353
#     4  10  22  37  57  88 121 157 205 249 294 360
#
# _framework density 18.378150999999999
#
# number of rings (size 3 to 8) (size 9 to 14) (size 15 to 20)
#    0.800    1.333    2.667    0.600    1.867    4.267 
#    1.200    2.000    0.000    0.000    0.000    0.000 
#    0.000    0.000    0.000    0.000    0.000    0.000 
#
# Total GULP energy -743479.729754 kJ/mol
# GULP energy per Si atom -12391.328829 kJ/mol
# Density = 1.833632 g / cm^3
# Si number density = 18.378151 Si / 1000 Ang^3
#
#
#
# Elastic Constant Matrix: (Units=GPa)
#
#
# Indices 1 2 3 4 5 6 
#
# 1 112.1447 40.3912 54.7827 0.0000 0.0000 0.0000
# 2 40.3912 99.4203 44.1156 0.0000 0.0000 0.0000
# 3 54.7827 44.1156 104.2574 0.0000 0.0000 0.0000
# 4 0.0000 0.0000 0.0000 27.5163 0.0000 0.0000
# 5 0.0000 0.0000 0.0000 0.0000 26.3817 0.0000
# 6 0.0000 0.0000 0.0000 0.0000 0.0000 27.0245
#
#
#
# Elastic Compliance Matrix: (Units=1/GPa)
#
#
# Indices 1 2 3 4 5 6 
#
# 1 0.012548 -0.002674 -0.005462 0.000000 0.000000 0.000000
# 2 -0.002674 0.012953 -0.004076 0.000000 0.000000 0.000000
# 3 -0.005462 -0.004076 0.014186 0.000000 0.000000 0.000000
# 4 0.000000 0.000000 0.000000 0.036342 0.000000 0.000000
# 5 0.000000 0.000000 0.000000 0.000000 0.037905 0.000000
# 6 0.000000 0.000000 0.000000 0.000000 0.000000 0.037003
#
#
# Mechanical properties :
#
#
# Convention : Reuss Voigt Hill
#
# Bulk Modulus (GPa) = 65.51485 66.04461 65.77973
# Shear Modulus (GPa) = 27.70832 27.95337 27.83085
#
# Velocity S-wave (km/s) = 3.88709 3.90425 3.89568
# Velocity P-wave (km/s) = 7.47473 7.50591 7.49034
#
# Compressibility (1/GPa) = 0.01526371
#
# Stress axis : x y z
#
# Youngs Moduli (GPa) = 79.69084 77.19994 70.49017
#
# Poissons Ratio (x) = 0.20646 0.38502
# Poissons Ratio (y) = 0.21312 0.28731
# Poissons Ratio (z) = 0.43528 0.31465
#
# Static dielectric constant tensor:
#      x y z
#    x 3.268420 0.000000 0.000000 
#    y 0.000000 3.233230 0.000000 
#    z 0.000000 0.000000 3.354460 
# 
# 
# High freq. dielectric constant tensor:
#      x y z
#    x 1.699230 0.000000 0.000000 
#    y 0.000000 1.706400 0.000000 
#    z 0.000000 0.000000 1.708380 
# 
# From -- ./inp_files/46423.got.cif
#   From: 2010.03.12/outbox.cif.g09.slc.cpg/sg64_24_cif.got.tgz:46423.got - 2010.04.10 20:19:32.
