data_PCOD8262484
_publ_section_title
;
Structure prediction by ZEFSAII (Michael W. Deem and Ramdas Pophale) SiO2 
 PCOD8262484
Probable space group: C M C A
;
_chemical_formula_sum "Si O2"
_cell_formula_units_Z 112
_cell_length_a 14.608775
_cell_length_b 30.661556
_cell_length_c 12.150820
_cell_angle_alpha 90.000000
_cell_angle_beta 90.000000
_cell_angle_gamma 90.000000
_cell_volume 5442.689740
_symmetry_space_group_name_H-M "C M C A"
_symmetry_group_IT_number 64
_symmetry_cell_setting 'orthorhombic'
loop_
_space_group_symop_operation_xyz
x,y,z
-x,1/2-y,1/2+z
x,-y,-z
-x,1/2+y,1/2-z
-x,-y,-z
x,1/2+y,1/2-z
-x,y,z
x,1/2-y,1/2+z
1/2+x,1/2+y,z
1/2-x,-y,1/2+z
1/2+x,1/2-y,-z
1/2-x,y,1/2-z
1/2-x,1/2-y,-z
1/2+x,y,1/2-z
1/2-x,1/2+y,z
1/2+x,-y,1/2+z
loop_
_atom_site_type_symbol
_atom_site_label
_atom_site_fract_x
_atom_site_fract_y
_atom_site_fract_z
Si Si1 0.654023 0.814801 0.147151
Si Si2 0.271813 0.387518 0.626983
Si Si3 0.901138 0.689263 0.083691
Si Si4 0.894603 0.098788 0.733995
Si Si5 0.898913 0.622510 0.529415
Si Si6 0.106771 0.048956 0.521270
Si Si7 0.855736 0.787144 0.124580
O O1 0.672879 0.862929 0.195069
O O2 0.748358 0.794253 0.106282
O O3 0.614097 0.785937 0.246763
O O4 0.586718 0.821291 0.045312
O O5 0.250000 0.404535 0.750000
O O6 0.321398 0.340113 0.637691
O O7 0.175469 0.384398 0.564736
O O8 0.338333 0.419684 0.561082
O O9 0.880810 0.740329 0.079846
O O10 0.000000 0.679568 0.140012
O O11 0.874680 0.091390 0.864379
O O12 0.875252 0.058226 0.651854
O O13 0.000000 0.114063 0.722373
O O14 0.906362 0.673508 0.562622
O O15 0.000000 0.609431 0.484455
O O16 0.000000 0.054868 0.492213
O O17 0.140327 0.000000 0.500000
#
# Coordination Sequence:
#
# PCOD8262484 Si02
#       7
#    16  16  16  16  16  16  16
#     4  10  19  34  61  82 117 158 204 262 310 368
#     4  12  27  43  62  89 130 174 210 257 313 389
#     4  12  24  38  59  84 122 168 214 263 310 368
#     4   9  17  35  65  98 122 153 205 261 318 369
#     4  10  21  39  63  93 127 168 214 261 314 367
#     4  10  21  43  74 103 128 158 204 260 318 382
#     4  10  21  35  57  89 121 161 212 265 315 363
#
# _framework density 20.578060000000001
#
# number of rings (size 3 to 8) (size 9 to 14) (size 15 to 20)
#    0.000    1.571    2.857    1.714    2.000    3.429 
#    2.571    0.000    0.000    0.429    0.000    0.000 
#    0.000    0.000    0.000    0.000    0.000    0.000 
#
# Total GULP energy -693863.746116 kJ/mol
# GULP energy per Si atom -12390.424038 kJ/mol
# Density = 2.053122 g / cm^3
# Si number density = 20.578060 Si / 1000 Ang^3
#
#
#
# Elastic Constant Matrix: (Units=GPa)
#
#
# Indices 1 2 3 4 5 6 
#
# 1 114.6142 34.4093 48.0324 0.0000 0.0000 0.0000
# 2 34.4093 76.6845 32.1481 0.0000 0.0000 0.0000
# 3 48.0324 32.1481 113.3547 0.0000 0.0000 0.0000
# 4 0.0000 0.0000 0.0000 16.6917 0.0000 0.0000
# 5 0.0000 0.0000 0.0000 0.0000 14.7518 0.0000
# 6 0.0000 0.0000 0.0000 0.0000 0.0000 10.8540
#
#
#
# Elastic Compliance Matrix: (Units=1/GPa)
#
#
# Indices 1 2 3 4 5 6 
#
# 1 0.011381 -0.003501 -0.003830 0.000000 0.000000 0.000000
# 2 -0.003501 0.015877 -0.003019 0.000000 0.000000 0.000000
# 3 -0.003830 -0.003019 0.011301 0.000000 0.000000 0.000000
# 4 0.000000 0.000000 0.000000 0.059910 0.000000 0.000000
# 5 0.000000 0.000000 0.000000 0.000000 0.067788 0.000000
# 6 0.000000 0.000000 0.000000 0.000000 0.000000 0.092132
#
#
# Mechanical properties :
#
#
# Convention : Reuss Voigt Hill
#
# Bulk Modulus (GPa) = 55.99459 59.31477 57.65468
# Shear Modulus (GPa) = 17.54125 21.13041 19.33583
#
# Velocity S-wave (km/s) = 2.92280 3.20791 3.06867
# Velocity P-wave (km/s) = 6.21774 6.52746 6.37448
#
# Compressibility (1/GPa) = 0.01785887
#
# Stress axis : x y z
#
# Youngs Moduli (GPa) = 87.86600 62.98303 88.48903
#
# Poissons Ratio (x) = 0.22053 0.33887
# Poissons Ratio (y) = 0.30765 0.26717
# Poissons Ratio (z) = 0.33648 0.19016
#
# Static dielectric constant tensor:
#      x y z
#    x 3.771510 0.000000 0.000000 
#    y 0.000000 3.520480 0.000000 
#    z 0.000000 0.000000 3.853880 
# 
# 
# High freq. dielectric constant tensor:
#      x y z
#    x 1.817510 0.000000 0.000000 
#    y 0.000000 1.769460 0.000000 
#    z 0.000000 0.000000 1.800020 
# 
# From -- ./inp_files/14968.got.cif
#   From: 2010.03.12/outbox.cif.g09.slc.cpg/sg64_8_cif.got.tgz:14968.got - 2010.04.10 20:19:32.
