data_PCOD8262118
_publ_section_title
;
Structure prediction by ZEFSAII (Michael W. Deem and Ramdas Pophale) SiO2 
 PCOD8262118
Probable space group: C M C A
;
_chemical_formula_sum "Si O2"
_cell_formula_units_Z 96
_cell_length_a 8.803495
_cell_length_b 23.496472
_cell_length_c 25.793037
_cell_angle_alpha 90.000000
_cell_angle_beta 90.000000
_cell_angle_gamma 90.000000
_cell_volume 5335.317399
_symmetry_space_group_name_H-M "C M C A"
_symmetry_group_IT_number 64
_symmetry_cell_setting 'orthorhombic'
loop_
_space_group_symop_operation_xyz
x,y,z
-x,1/2-y,1/2+z
x,-y,-z
-x,1/2+y,1/2-z
-x,-y,-z
x,1/2+y,1/2-z
-x,y,z
x,1/2-y,1/2+z
1/2+x,1/2+y,z
1/2-x,-y,1/2+z
1/2+x,1/2-y,-z
1/2-x,y,1/2-z
1/2-x,1/2-y,-z
1/2+x,y,1/2-z
1/2-x,1/2+y,z
1/2+x,-y,1/2+z
loop_
_atom_site_type_symbol
_atom_site_label
_atom_site_fract_x
_atom_site_fract_y
_atom_site_fract_z
Si Si1 0.672415 0.663583 0.898377
Si Si2 0.822460 0.414222 0.304599
Si Si3 0.174970 0.276870 0.949259
Si Si4 0.677325 0.505870 0.374297
Si Si5 0.325152 0.077745 0.967172
Si Si6 0.821261 0.896996 0.929572
O O1 0.500000 0.644725 0.912278
O O2 0.715622 0.639512 0.841790
O O3 0.688340 0.731762 0.901681
O O4 0.785202 0.638104 0.941392
O O5 0.750000 0.398605 0.250000
O O6 0.752453 0.472717 0.326455
O O7 0.000000 0.423717 0.297779
O O8 0.257804 0.333298 0.930136
O O9 0.000000 0.291047 0.961685
O O10 0.250000 0.250000 0.000000
O O11 0.500000 0.511814 0.362943
O O12 0.712084 0.471922 0.427045
O O13 0.751394 0.568285 0.380831
O O14 0.500000 0.077168 0.984359
O O15 0.224620 0.069489 0.018220
O O16 0.000000 0.894663 0.923470
#
# Coordination Sequence:
#
# PCOD8262118 Si02
#       6
#    16  16  16  16  16  16
#     4   9  19  34  53  77 107 140 179 221 267 317
#     4  10  20  37  60  85 108 135 171 219 274 328
#     4  11  21  34  52  76 107 147 187 225 265 316
#     4  10  21  36  53  77 105 137 178 225 272 320
#     4  10  19  31  50  74 104 140 179 221 264 314
#     4  12  23  33  48  73 108 149 184 218 263 319
#
# _framework density 17.993307000000001
#
# number of rings (size 3 to 8) (size 9 to 14) (size 15 to 20)
#    0.000    1.667    1.667    4.000    0.000    5.333 
#    0.000    0.000    0.000    1.000    0.000    4.667 
#    0.000    0.000    0.000    0.000    0.000    0.000 
#
# Total GULP energy -595223.962506 kJ/mol
# GULP energy per Si atom -12400.499219 kJ/mol
# Density = 1.795235 g / cm^3
# Si number density = 17.993307 Si / 1000 Ang^3
#
#
#
# Elastic Constant Matrix: (Units=GPa)
#
#
# Indices 1 2 3 4 5 6 
#
# 1 98.5691 21.5251 29.4103 0.0000 0.0000 0.0000
# 2 21.5251 75.0526 26.9516 0.0000 0.0000 0.0000
# 3 29.4103 26.9516 77.0010 0.0000 0.0000 0.0000
# 4 0.0000 0.0000 0.0000 8.6985 0.0000 0.0000
# 5 0.0000 0.0000 0.0000 0.0000 29.3485 0.0000
# 6 0.0000 0.0000 0.0000 0.0000 0.0000 28.9631
#
#
#
# Elastic Compliance Matrix: (Units=1/GPa)
#
#
# Indices 1 2 3 4 5 6 
#
# 1 0.011708 -0.002004 -0.003770 0.000000 0.000000 0.000000
# 2 -0.002004 0.015582 -0.004689 0.000000 0.000000 0.000000
# 3 -0.003770 -0.004689 0.016068 0.000000 0.000000 0.000000
# 4 0.000000 0.000000 0.000000 0.114963 0.000000 0.000000
# 5 0.000000 0.000000 0.000000 0.000000 0.034073 0.000000
# 6 0.000000 0.000000 0.000000 0.000000 0.000000 0.034527
#
#
# Mechanical properties :
#
#
# Convention : Reuss Voigt Hill
#
# Bulk Modulus (GPa) = 44.57848 45.15517 44.86683
# Shear Modulus (GPa) = 19.58294 24.91773 22.25034
#
# Velocity S-wave (km/s) = 3.30259 3.72537 3.52033
# Velocity P-wave (km/s) = 6.27468 6.60716 6.44306
#
# Compressibility (1/GPa) = 0.02243235
#
# Stress axis : x y z
#
# Youngs Moduli (GPa) = 85.41373 64.17482 62.23530
#
# Poissons Ratio (x) = 0.12860 0.23465
# Poissons Ratio (y) = 0.17115 0.29181
# Poissons Ratio (z) = 0.32204 0.30090
#
# Static dielectric constant tensor:
#      x y z
#    x 3.446310 0.000000 0.000000 
#    y 0.000000 3.470320 0.000000 
#    z 0.000000 0.000000 3.145810 
# 
# 
# High freq. dielectric constant tensor:
#      x y z
#    x 1.712820 0.000000 0.000000 
#    y 0.000000 1.699640 0.000000 
#    z 0.000000 0.000000 1.660870 
# 
# From -- ./inp_files/43039.got.cif
#   From: 2010.03.12/outbox.cif.g09.slc.cpg/sg64_22_cif.got.tgz:43039.got - 2010.04.10 20:19:32.
