data_PCOD8262907
_publ_section_title
;
Structure prediction by ZEFSAII (Michael W. Deem and Ramdas Pophale) SiO2 
 PCOD8262907
Probable space group: C M C A
;
_chemical_formula_sum "Si O2"
_cell_formula_units_Z 96
_cell_length_a 8.695769
_cell_length_b 30.006483
_cell_length_c 19.200780
_cell_angle_alpha 90.000000
_cell_angle_beta 90.000000
_cell_angle_gamma 90.000000
_cell_volume 5010.048863
_symmetry_space_group_name_H-M "C M C A"
_symmetry_group_IT_number 64
_symmetry_cell_setting 'orthorhombic'
loop_
_space_group_symop_operation_xyz
x,y,z
-x,1/2-y,1/2+z
x,-y,-z
-x,1/2+y,1/2-z
-x,-y,-z
x,1/2+y,1/2-z
-x,y,z
x,1/2-y,1/2+z
1/2+x,1/2+y,z
1/2-x,-y,1/2+z
1/2+x,1/2-y,-z
1/2-x,y,1/2-z
1/2-x,1/2-y,-z
1/2+x,y,1/2-z
1/2-x,1/2+y,z
1/2+x,-y,1/2+z
loop_
_atom_site_type_symbol
_atom_site_label
_atom_site_fract_x
_atom_site_fract_y
_atom_site_fract_z
Si Si1 0.682821 0.479591 0.071174
Si Si2 0.821599 0.859067 0.909294
Si Si3 0.818375 0.445769 0.674058
Si Si4 0.678999 0.121189 0.569622
Si Si5 0.318904 0.782669 0.823499
Si Si6 0.180898 0.812234 0.323238
O O1 0.500000 0.480431 0.065635
O O2 0.741030 0.509514 0.135718
O O3 0.738961 0.429100 0.081421
O O4 0.751912 0.500000 0.000000
O O5 0.763218 0.903241 0.870076
O O6 0.722670 0.817441 0.883488
O O7 0.000000 0.850085 0.893287
O O8 0.791512 0.864750 0.990619
O O9 0.750000 0.443385 0.750000
O O10 0.000000 0.446311 0.679492
O O11 0.500000 0.126009 0.589406
O O12 0.781287 0.152046 0.618142
O O13 0.500000 0.778495 0.815672
O O14 0.250000 0.799140 0.750000
O O15 0.251828 0.734997 0.845441
O O16 0.250000 0.828688 0.250000
O O17 0.000000 0.806695 0.315114
#
# Coordination Sequence:
#
# PCOD8262907 Si02
#       6
#    16  16  16  16  16  16
#     4   9  16  33  59  83 109 150 196 234 277 335
#     4  10  20  35  57  85 117 153 192 233 283 343
#     4  10  20  34  55  84 115 150 193 236 282 336
#     4  10  20  36  61  88 115 151 195 239 285 339
#     4  11  22  38  60  84 114 151 192 237 289 343
#     4  11  23  41  62  84 114 149 191 239 290 344
#
# _framework density 19.161490000000001
#
# number of rings (size 3 to 8) (size 9 to 14) (size 15 to 20)
#    0.000    1.833    1.667    4.500    0.000    4.000 
#    0.000    2.500    0.000    1.000    0.000    0.000 
#    0.000    0.000    0.000    0.000    0.000    0.000 
#
# Total GULP energy -595345.145609 kJ/mol
# GULP energy per Si atom -12403.023867 kJ/mol
# Density = 1.911788 g / cm^3
# Si number density = 19.161490 Si / 1000 Ang^3
#
#
#
# Elastic Constant Matrix: (Units=GPa)
#
#
# Indices 1 2 3 4 5 6 
#
# 1 92.8741 53.6501 47.0247 0.0000 0.0000 0.0000
# 2 53.6501 142.2015 75.9410 0.0000 0.0000 0.0000
# 3 47.0247 75.9410 116.1766 0.0000 0.0000 0.0000
# 4 0.0000 0.0000 0.0000 42.4796 0.0000 0.0000
# 5 0.0000 0.0000 0.0000 0.0000 27.6770 0.0000
# 6 0.0000 0.0000 0.0000 0.0000 0.0000 22.9846
#
#
#
# Elastic Compliance Matrix: (Units=1/GPa)
#
#
# Indices 1 2 3 4 5 6 
#
# 1 0.014669 -0.003631 -0.003564 0.000000 0.000000 0.000000
# 2 -0.003631 0.011702 -0.006180 0.000000 0.000000 0.000000
# 3 -0.003564 -0.006180 0.014090 0.000000 0.000000 0.000000
# 4 0.000000 0.000000 0.000000 0.023541 0.000000 0.000000
# 5 0.000000 0.000000 0.000000 0.000000 0.036131 0.000000
# 6 0.000000 0.000000 0.000000 0.000000 0.000000 0.043507
#
#
# Mechanical properties :
#
#
# Convention : Reuss Voigt Hill
#
# Bulk Modulus (GPa) = 72.93119 78.27597 75.60358
# Shear Modulus (GPa) = 28.57769 30.27066 29.42418
#
# Velocity S-wave (km/s) = 3.86607 3.97894 3.92291
# Velocity P-wave (km/s) = 7.62054 7.87709 7.74988
#
# Compressibility (1/GPa) = 0.01371155
#
# Stress axis : x y z
#
# Youngs Moduli (GPa) = 68.16867 85.45205 70.97338
#
# Poissons Ratio (x) = 0.31029 0.25296
# Poissons Ratio (y) = 0.24753 0.43860
# Poissons Ratio (z) = 0.24297 0.52807
#
# Static dielectric constant tensor:
#      x y z
#    x 3.282070 0.000000 0.000000 
#    y 0.000000 3.700930 0.000000 
#    z 0.000000 0.000000 3.447880 
# 
# 
# High freq. dielectric constant tensor:
#      x y z
#    x 1.725470 0.000000 0.000000 
#    y 0.000000 1.757970 0.000000 
#    z 0.000000 0.000000 1.750140 
# 
# From -- ./inp_files/37060.got.cif
#   From: 2010.03.12/outbox.cif.g09.slc.cpg/sg64_19_cif.got.tgz:37060.got - 2010.04.10 20:19:32.
