data_PCOD8262678
_publ_section_title
;
Structure prediction by ZEFSAII (Michael W. Deem and Ramdas Pophale) SiO2 
 PCOD8262678
Probable space group: C M C A
;
_chemical_formula_sum "Si O2"
_cell_formula_units_Z 64
_cell_length_a 17.349285
_cell_length_b 9.430767
_cell_length_c 18.613784
_cell_angle_alpha 90.000000
_cell_angle_beta 90.000000
_cell_angle_gamma 90.000000
_cell_volume 3045.532696
_symmetry_space_group_name_H-M "C M C A"
_symmetry_group_IT_number 64
_symmetry_cell_setting 'orthorhombic'
loop_
_space_group_symop_operation_xyz
x,y,z
-x,1/2-y,1/2+z
x,-y,-z
-x,1/2+y,1/2-z
-x,-y,-z
x,1/2+y,1/2-z
-x,y,z
x,1/2-y,1/2+z
1/2+x,1/2+y,z
1/2-x,-y,1/2+z
1/2+x,1/2-y,-z
1/2-x,y,1/2-z
1/2-x,1/2-y,-z
1/2+x,y,1/2-z
1/2-x,1/2+y,z
1/2+x,-y,1/2+z
loop_
_atom_site_type_symbol
_atom_site_label
_atom_site_fract_x
_atom_site_fract_y
_atom_site_fract_z
Si Si1 0.172431 0.664602 0.485414
Si Si2 0.589761 0.681404 0.164547
Si Si3 0.588936 0.505820 0.708634
Si Si4 0.590520 0.606131 0.439378
O O1 0.183940 0.500000 0.500000
O O2 0.250000 0.750000 0.500000
O O3 0.143139 0.685686 0.404788
O O4 0.109925 0.731517 0.540338
O O5 0.500000 0.661077 0.141619
O O6 0.622295 0.558488 0.217235
O O7 0.600527 0.826437 0.208718
O O8 0.500000 0.461401 0.708154
O O9 0.627745 0.436003 0.637507
O O10 0.624918 0.500000 0.500000
O O11 0.500000 0.584055 0.435255
#
# Coordination Sequence:
#
# PCOD8262678 Si02
#       4
#    16  16  16  16
#     4  12  27  43  63  88 128 174 223 276 320 382
#     4  10  21  40  67  99 130 164 211 267 330 394
#     4   9  19  35  63  98 129 159 199 262 326 388
#     4  10  19  38  67  94 124 165 210 262 328 388
#
# _framework density 21.014386999999999
#
# number of rings (size 3 to 8) (size 9 to 14) (size 15 to 20)
#    0.000    1.750    2.500    1.500    3.500    2.000 
#    0.000    1.250    0.000    0.000    0.000    0.000 
#    0.000    0.000    0.000    0.000    0.000    0.000 
#
# Total GULP energy -396711.520857 kJ/mol
# GULP energy per Si atom -12397.235027 kJ/mol
# Density = 2.096656 g / cm^3
# Si number density = 21.014387 Si / 1000 Ang^3
#
#
#
# Elastic Constant Matrix: (Units=GPa)
#
#
# Indices 1 2 3 4 5 6 
#
# 1 44.6601 31.2116 53.5078 0.0000 0.0000 0.0000
# 2 31.2116 131.3028 42.2074 0.0000 0.0000 0.0000
# 3 53.5078 42.2074 124.5319 0.0000 0.0000 0.0000
# 4 0.0000 0.0000 0.0000 45.6141 0.0000 0.0000
# 5 0.0000 0.0000 0.0000 0.0000 20.1772 0.0000
# 6 0.0000 0.0000 0.0000 0.0000 0.0000 27.2068
#
#
#
# Elastic Compliance Matrix: (Units=1/GPa)
#
#
# Indices 1 2 3 4 5 6 
#
# 1 0.049486 -0.005531 -0.019388 0.000000 0.000000 0.000000
# 2 -0.005531 0.009165 -0.000730 0.000000 0.000000 0.000000
# 3 -0.019388 -0.000730 0.016608 0.000000 0.000000 0.000000
# 4 0.000000 0.000000 0.000000 0.021923 0.000000 0.000000
# 5 0.000000 0.000000 0.000000 0.000000 0.049561 0.000000
# 6 0.000000 0.000000 0.000000 0.000000 0.000000 0.036755
#
#
# Mechanical properties :
#
#
# Convention : Reuss Voigt Hill
#
# Bulk Modulus (GPa) = 41.73386 61.59427 51.66407
# Shear Modulus (GPa) = 20.59451 30.17083 25.38267
#
# Velocity S-wave (km/s) = 3.13392 3.79320 3.47921
# Velocity P-wave (km/s) = 5.74439 6.96841 6.38579
#
# Compressibility (1/GPa) = 0.02396136
#
# Stress axis : x y z
#
# Youngs Moduli (GPa) = 20.20788 109.10670 60.21208
#
# Poissons Ratio (x) = 0.60345 1.16739
# Poissons Ratio (y) = 0.11177 0.04395
# Poissons Ratio (z) = 0.39179 0.07964
#
# Static dielectric constant tensor:
#      x y z
#    x 3.468410 0.000000 0.000000 
#    y 0.000000 4.107760 0.000000 
#    z 0.000000 0.000000 4.427860 
# 
# 
# High freq. dielectric constant tensor:
#      x y z
#    x 1.782540 0.000000 0.000000 
#    y 0.000000 1.831660 0.000000 
#    z 0.000000 0.000000 1.835770 
# 
# From -- ./inp_files/33872.got.cif
#   From: 2010.03.12/outbox.cif.g09.slc.cpg/sg64_17_cif.got.tgz:33872.got - 2010.04.10 20:19:32.
