data_PCOD8262736
_publ_section_title
;
Structure prediction by ZEFSAII (Michael W. Deem and Ramdas Pophale) SiO2 
 PCOD8262736
Probable space group: C M C A
;
_chemical_formula_sum "Si O2"
_cell_formula_units_Z 112
_cell_length_a 15.450003
_cell_length_b 15.223157
_cell_length_c 24.940225
_cell_angle_alpha 90.000000
_cell_angle_beta 90.000000
_cell_angle_gamma 90.000000
_cell_volume 5865.886583
_symmetry_space_group_name_H-M "C M C A"
_symmetry_group_IT_number 64
_symmetry_cell_setting 'orthorhombic'
loop_
_space_group_symop_operation_xyz
x,y,z
-x,1/2-y,1/2+z
x,-y,-z
-x,1/2+y,1/2-z
-x,-y,-z
x,1/2+y,1/2-z
-x,y,z
x,1/2-y,1/2+z
1/2+x,1/2+y,z
1/2-x,-y,1/2+z
1/2+x,1/2-y,-z
1/2-x,y,1/2-z
1/2-x,1/2-y,-z
1/2+x,y,1/2-z
1/2-x,1/2+y,z
1/2+x,-y,1/2+z
loop_
_atom_site_type_symbol
_atom_site_label
_atom_site_fract_x
_atom_site_fract_y
_atom_site_fract_z
Si Si1 0.170867 0.608663 0.086850
Si Si2 0.677474 0.390603 0.707575
Si Si3 0.251096 0.850122 0.485073
Si Si4 0.600363 0.800987 0.414728
Si Si5 0.398013 0.796942 0.293588
Si Si6 0.599850 0.577831 0.586970
Si Si7 0.400539 0.573401 0.706109
O O1 0.213091 0.611072 0.146209
O O2 0.116842 0.697406 0.075305
O O3 0.105544 0.527416 0.080224
O O4 0.246896 0.596884 0.041763
O O5 0.750000 0.412599 0.750000
O O6 0.634581 0.298962 0.722825
O O7 0.610022 0.469622 0.714644
O O8 0.250000 0.750000 0.500000
O O9 0.339882 0.864981 0.451763
O O10 0.164266 0.871663 0.452175
O O11 0.500000 0.822088 0.426761
O O12 0.627609 0.823991 0.353881
O O13 0.500000 0.793383 0.289500
O O14 0.355202 0.867559 0.252482
O O15 0.500000 0.605406 0.575836
O O16 0.631016 0.603118 0.647125
O O17 0.500000 0.595297 0.710435
#
# Coordination Sequence:
#
# PCOD8262736 Si02
#       7
#    16  16  16  16  16  16  16
#     4   9  19  35  54  78 105 133 175 229 272 311
#     4  10  20  32  52  79 107 140 174 214 270 331
#     4  10  21  33  49  77 109 135 167 215 266 321
#     4   9  18  34  55  77 104 141 179 216 267 326
#     4   9  18  33  53  75 103 141 181 222 265 313
#     4  10  20  35  57  81 105 136 176 225 275 315
#     4   9  19  35  54  78 106 137 178 225 267 313
#
# _framework density 19.093447999999999
#
# number of rings (size 3 to 8) (size 9 to 14) (size 15 to 20)
#    0.000    2.571    0.000    1.286    0.000   13.143 
#    0.000    0.000    0.000    3.429    0.000    0.000 
#    0.000    0.000    0.000    0.000    0.000    0.000 
#
# Total GULP energy -693899.363545 kJ/mol
# GULP energy per Si atom -12391.060063 kJ/mol
# Density = 1.904999 g / cm^3
# Si number density = 19.093448 Si / 1000 Ang^3
#
#
#
# Elastic Constant Matrix: (Units=GPa)
#
#
# Indices 1 2 3 4 5 6 
#
# 1 60.6019 23.8277 49.5953 0.0000 0.0000 0.0000
# 2 23.8277 79.1948 56.5302 0.0000 0.0000 0.0000
# 3 49.5953 56.5302 136.6777 0.0000 0.0000 0.0000
# 4 0.0000 0.0000 0.0000 34.2518 0.0000 0.0000
# 5 0.0000 0.0000 0.0000 0.0000 26.9929 0.0000
# 6 0.0000 0.0000 0.0000 0.0000 0.0000 21.3679
#
#
#
# Elastic Compliance Matrix: (Units=1/GPa)
#
#
# Indices 1 2 3 4 5 6 
#
# 1 0.023580 -0.001400 -0.007977 0.000000 0.000000 0.000000
# 2 -0.001400 0.018000 -0.006937 0.000000 0.000000 0.000000
# 3 -0.007977 -0.006937 0.013080 0.000000 0.000000 0.000000
# 4 0.000000 0.000000 0.000000 0.029196 0.000000 0.000000
# 5 0.000000 0.000000 0.000000 0.000000 0.037047 0.000000
# 6 0.000000 0.000000 0.000000 0.000000 0.000000 0.046799
#
#
# Mechanical properties :
#
#
# Convention : Reuss Voigt Hill
#
# Bulk Modulus (GPa) = 45.38923 59.59787 52.49355
# Shear Modulus (GPa) = 24.07620 26.29059 25.18340
#
# Velocity S-wave (km/s) = 3.55486 3.71474 3.63568
# Velocity P-wave (km/s) = 6.37755 7.04845 6.72138
#
# Compressibility (1/GPa) = 0.02203166
#
# Stress axis : x y z
#
# Youngs Moduli (GPa) = 42.40865 55.55580 76.45207
#
# Poissons Ratio (x) = 0.07781 0.60987
# Poissons Ratio (y) = 0.05939 0.53032
# Poissons Ratio (z) = 0.33830 0.38537
#
# Static dielectric constant tensor:
#      x y z
#    x 3.455960 0.000000 0.000000 
#    y 0.000000 3.575650 0.000000 
#    z 0.000000 0.000000 4.409880 
# 
# 
# High freq. dielectric constant tensor:
#      x y z
#    x 1.717170 0.000000 0.000000 
#    y 0.000000 1.731320 0.000000 
#    z 0.000000 0.000000 1.761800 
# 
# From -- ./inp_files/45256.got.cif
#   From: 2010.03.12/outbox.cif.g09.slc.cpg/sg64_23_cif.got.tgz:45256.got - 2010.04.10 20:19:32.
