data_PCOD8262811
_publ_section_title
;
Structure prediction by ZEFSAII (Michael W. Deem and Ramdas Pophale) SiO2 
 PCOD8262811
Probable space group: C M C A
;
_chemical_formula_sum "Si O2"
_cell_formula_units_Z 128
_cell_length_a 17.864473
_cell_length_b 20.191382
_cell_length_c 18.938447
_cell_angle_alpha 90.000000
_cell_angle_beta 90.000000
_cell_angle_gamma 90.000000
_cell_volume 6831.256889
_symmetry_space_group_name_H-M "C M C A"
_symmetry_group_IT_number 64
_symmetry_cell_setting 'orthorhombic'
loop_
_space_group_symop_operation_xyz
x,y,z
-x,1/2-y,1/2+z
x,-y,-z
-x,1/2+y,1/2-z
-x,-y,-z
x,1/2+y,1/2-z
-x,y,z
x,1/2-y,1/2+z
1/2+x,1/2+y,z
1/2-x,-y,1/2+z
1/2+x,1/2-y,-z
1/2-x,y,1/2-z
1/2-x,1/2-y,-z
1/2+x,y,1/2-z
1/2-x,1/2+y,z
1/2+x,-y,1/2+z
loop_
_atom_site_type_symbol
_atom_site_label
_atom_site_fract_x
_atom_site_fract_y
_atom_site_fract_z
Si Si1 0.415057 0.313500 0.035096
Si Si2 0.287978 0.890950 0.179262
Si Si3 0.731748 0.872301 0.671710
Si Si4 0.685742 0.734280 0.848804
Si Si5 0.419844 0.464404 0.074344
Si Si6 0.261393 0.003590 0.415229
Si Si7 0.083618 0.182167 0.125556
Si Si8 0.915940 0.305634 0.221188
O O1 0.500000 0.287244 0.041364
O O2 0.359674 0.265824 0.078041
O O3 0.407096 0.386588 0.066320
O O4 0.388212 0.312876 0.954673
O O5 0.250000 0.920355 0.250000
O O6 0.245236 0.824866 0.154428
O O7 0.373850 0.872166 0.196343
O O8 0.289548 0.945834 0.117906
O O9 0.750000 0.898057 0.750000
O O10 0.770181 0.802456 0.656463
O O11 0.763358 0.925182 0.614769
O O12 0.641815 0.864896 0.666117
O O13 0.626785 0.729329 0.785444
O O14 0.500000 0.476860 0.114087
O O15 0.346791 0.492557 0.113509
O O16 0.425258 0.500000 0.000000
O O17 0.255141 0.000000 0.500000
O O18 0.081750 0.255573 0.156165
O O19 0.000000 0.150179 0.129361
O O20 0.000000 0.324819 0.245328
#
# Coordination Sequence:
#
# PCOD8262811 Si02
#       8
#    16  16  16  16  16  16  16  16
#     4  10  20  33  56  88 119 150 191 243 296 351
#     4  10  20  38  58  84 116 150 195 247 293 350
#     4  12  23  39  58  85 121 161 198 247 304 353
#     4  11  20  37  59  87 116 152 195 247 298 358
#     4   9  17  32  52  80 117 154 187 232 294 350
#     4  11  23  37  57  84 118 160 200 244 297 357
#     4  10  20  35  56  86 118 150 189 237 295 353
#     4  10  20  37  62  83 113 152 192 241 295 352
#
# _framework density 18.737401999999999
#
# number of rings (size 3 to 8) (size 9 to 14) (size 15 to 20)
#    0.000    1.625    3.750    2.625    0.000    3.000 
#    0.000    0.000    0.000    4.125    0.000    0.000 
#    0.000    0.000    0.000    0.000    0.000    0.000 
#
# Total GULP energy -793470.991442 kJ/mol
# GULP energy per Si atom -12397.984241 kJ/mol
# Density = 1.869475 g / cm^3
# Si number density = 18.737402 Si / 1000 Ang^3
#
#
#
# Elastic Constant Matrix: (Units=GPa)
#
#
# Indices 1 2 3 4 5 6 
#
# 1 100.3974 36.3295 43.0537 0.0000 0.0000 0.0000
# 2 36.3295 94.8358 38.0127 0.0000 0.0000 0.0000
# 3 43.0537 38.0127 102.1643 0.0000 0.0000 0.0000
# 4 0.0000 0.0000 0.0000 31.0351 0.0000 0.0000
# 5 0.0000 0.0000 0.0000 0.0000 29.1715 0.0000
# 6 0.0000 0.0000 0.0000 0.0000 0.0000 17.6426
#
#
#
# Elastic Compliance Matrix: (Units=1/GPa)
#
#
# Indices 1 2 3 4 5 6 
#
# 1 0.012963 -0.003263 -0.004249 0.000000 0.000000 0.000000
# 2 -0.003263 0.013214 -0.003542 0.000000 0.000000 0.000000
# 3 -0.004249 -0.003542 0.012896 0.000000 0.000000 0.000000
# 4 0.000000 0.000000 0.000000 0.032222 0.000000 0.000000
# 5 0.000000 0.000000 0.000000 0.000000 0.034280 0.000000
# 6 0.000000 0.000000 0.000000 0.000000 0.000000 0.056681
#
#
# Mechanical properties :
#
#
# Convention : Reuss Voigt Hill
#
# Bulk Modulus (GPa) = 58.93782 59.13212 59.03497
# Shear Modulus (GPa) = 26.31323 27.56995 26.94159
#
# Velocity S-wave (km/s) = 3.75149 3.84003 3.79601
# Velocity P-wave (km/s) = 7.09139 7.16156 7.12656
#
# Compressibility (1/GPa) = 0.01696703
#
# Stress axis : x y z
#
# Youngs Moduli (GPa) = 77.14175 75.67720 77.54091
#
# Poissons Ratio (x) = 0.24692 0.32946
# Poissons Ratio (y) = 0.25170 0.27462
# Poissons Ratio (z) = 0.32776 0.26802
#
# Static dielectric constant tensor:
#      x y z
#    x 3.804250 0.000000 0.000000 
#    y 0.000000 3.269040 0.000000 
#    z 0.000000 0.000000 3.408220 
# 
# 
# High freq. dielectric constant tensor:
#      x y z
#    x 1.728090 0.000000 0.000000 
#    y 0.000000 1.714110 0.000000 
#    z 0.000000 0.000000 1.719350 
# 
# From -- ./inp_files/40583.got.cif
#   From: 2010.03.12/outbox.cif.g09.slc.cpg/sg64_21_cif.got.tgz:40583.got - 2010.04.10 20:19:32.
