data_PCOD8262658
_publ_section_title
;
Structure prediction by ZEFSAII (Michael W. Deem and Ramdas Pophale) SiO2 
 PCOD8262658
Probable space group: C M C A
;
_chemical_formula_sum "Si O2"
_cell_formula_units_Z 112
_cell_length_a 12.458474
_cell_length_b 14.282505
_cell_length_c 28.058194
_cell_angle_alpha 90.000000
_cell_angle_beta 90.000000
_cell_angle_gamma 90.000000
_cell_volume 4992.625018
_symmetry_space_group_name_H-M "C M C A"
_symmetry_group_IT_number 64
_symmetry_cell_setting 'orthorhombic'
loop_
_space_group_symop_operation_xyz
x,y,z
-x,1/2-y,1/2+z
x,-y,-z
-x,1/2+y,1/2-z
-x,-y,-z
x,1/2+y,1/2-z
-x,y,z
x,1/2-y,1/2+z
1/2+x,1/2+y,z
1/2-x,-y,1/2+z
1/2+x,1/2-y,-z
1/2-x,y,1/2-z
1/2-x,1/2-y,-z
1/2+x,y,1/2-z
1/2-x,1/2+y,z
1/2+x,-y,1/2+z
loop_
_atom_site_type_symbol
_atom_site_label
_atom_site_fract_x
_atom_site_fract_y
_atom_site_fract_z
Si Si1 0.382257 0.608848 0.007430
Si Si2 0.810729 0.668080 0.593413
Si Si3 0.874967 0.365444 0.682336
Si Si4 0.371407 0.169498 0.781423
Si Si5 0.759300 0.629838 0.095702
Si Si6 0.873146 0.438742 0.123777
Si Si7 0.125320 0.430683 0.310871
O O1 0.500000 0.639038 0.027423
O O2 0.369657 0.656145 0.956257
O O3 0.378784 0.500000 0.000000
O O4 0.282289 0.633790 0.041475
O O5 0.826966 0.776545 0.606841
O O6 0.685107 0.635904 0.588581
O O7 0.858271 0.601152 0.634594
O O8 0.824517 0.273334 0.707442
O O9 0.848661 0.365745 0.626443
O O10 0.828812 0.464976 0.701015
O O11 0.000000 0.360340 0.689403
O O12 0.500000 0.171647 0.782020
O O13 0.335974 0.092679 0.822168
O O14 0.326073 0.140896 0.728702
O O15 0.834714 0.542899 0.110205
O O16 0.000000 0.431036 0.116813
O O17 0.000000 0.435082 0.301296
#
# Coordination Sequence:
#
# PCOD8262658 Si02
#       7
#    16  16  16  16  16  16  16
#     4  11  23  43  72  98 127 162 213 280 337 392
#     4  12  24  42  65  98 132 171 224 272 334 404
#     4  10  19  37  65  94 126 170 223 274 331 393
#     4   9  20  39  64  95 132 177 221 269 337 402
#     4  12  24  42  65  98 128 175 221 273 327 405
#     4  11  24  43  63  92 139 181 215 269 332 396
#     4  10  21  39  65  96 133 168 220 287 333 384
#
# _framework density 22.43309
#
# number of rings (size 3 to 8) (size 9 to 14) (size 15 to 20)
#    0.000    1.286    4.286    1.286    0.000    5.714 
#    0.000    5.714    0.000    0.000    0.000    0.000 
#    0.000    0.000    0.000    0.000    0.000    0.000 
#
# Total GULP energy -693980.338722 kJ/mol
# GULP energy per Si atom -12392.506049 kJ/mol
# Density = 2.238203 g / cm^3
# Si number density = 22.433090 Si / 1000 Ang^3
#
#
#
# Elastic Constant Matrix: (Units=GPa)
#
#
# Indices 1 2 3 4 5 6 
#
# 1 45.5418 31.9240 23.3086 0.0000 0.0000 0.0000
# 2 31.9240 178.0740 48.2241 0.0000 0.0000 0.0000
# 3 23.3086 48.2241 105.1872 0.0000 0.0000 0.0000
# 4 0.0000 0.0000 0.0000 31.1051 0.0000 0.0000
# 5 0.0000 0.0000 0.0000 0.0000 31.8953 0.0000
# 6 0.0000 0.0000 0.0000 0.0000 0.0000 25.4556
#
#
#
# Elastic Compliance Matrix: (Units=1/GPa)
#
#
# Indices 1 2 3 4 5 6 
#
# 1 0.026677 -0.003633 -0.004246 0.000000 0.000000 0.000000
# 2 -0.003633 0.006906 -0.002361 0.000000 0.000000 0.000000
# 3 -0.004246 -0.002361 0.011530 0.000000 0.000000 0.000000
# 4 0.000000 0.000000 0.000000 0.032149 0.000000 0.000000
# 5 0.000000 0.000000 0.000000 0.000000 0.031353 0.000000
# 6 0.000000 0.000000 0.000000 0.000000 0.000000 0.039284
#
#
# Mechanical properties :
#
#
# Convention : Reuss Voigt Hill
#
# Bulk Modulus (GPa) = 40.59429 59.52403 50.05916
# Shear Modulus (GPa) = 28.31396 32.71429 30.51413
#
# Velocity S-wave (km/s) = 3.55653 3.82292 3.69213
# Velocity P-wave (km/s) = 5.91610 6.78807 6.36703
#
# Compressibility (1/GPa) = 0.02463401
#
# Stress axis : x y z
#
# Youngs Moduli (GPa) = 37.48482 144.79425 86.72784
#
# Poissons Ratio (x) = 0.52599 0.36825
# Poissons Ratio (y) = 0.13617 0.20479
# Poissons Ratio (z) = 0.15916 0.34190
#
# Static dielectric constant tensor:
#      x y z
#    x 4.198200 0.000000 0.000000 
#    y 0.000000 4.500040 0.000000 
#    z 0.000000 0.000000 3.874160 
# 
# 
# High freq. dielectric constant tensor:
#      x y z
#    x 1.892850 0.000000 0.000000 
#    y 0.000000 1.897370 0.000000 
#    z 0.000000 0.000000 1.874610 
# 
# From -- ./inp_files/45301.got.cif
#   From: 2010.03.12/outbox.cif.g09.slc.cpg/sg64_23_cif.got.tgz:45301.got - 2010.04.10 20:19:32.
