data_PCOD8262572
_publ_section_title
;
Structure prediction by ZEFSAII (Michael W. Deem and Ramdas Pophale) SiO2 
 PCOD8262572
Probable space group: C M C A
;
_chemical_formula_sum "Si O2"
_cell_formula_units_Z 96
_cell_length_a 8.884499
_cell_length_b 25.305651
_cell_length_c 23.585905
_cell_angle_alpha 90.000000
_cell_angle_beta 90.000000
_cell_angle_gamma 90.000000
_cell_volume 5302.772581
_symmetry_space_group_name_H-M "C M C A"
_symmetry_group_IT_number 64
_symmetry_cell_setting 'orthorhombic'
loop_
_space_group_symop_operation_xyz
x,y,z
-x,1/2-y,1/2+z
x,-y,-z
-x,1/2+y,1/2-z
-x,-y,-z
x,1/2+y,1/2-z
-x,y,z
x,1/2-y,1/2+z
1/2+x,1/2+y,z
1/2-x,-y,1/2+z
1/2+x,1/2-y,-z
1/2-x,y,1/2-z
1/2-x,1/2-y,-z
1/2+x,y,1/2-z
1/2-x,1/2+y,z
1/2+x,-y,1/2+z
loop_
_atom_site_type_symbol
_atom_site_label
_atom_site_fract_x
_atom_site_fract_y
_atom_site_fract_z
Si Si1 0.678101 0.901280 0.879012
Si Si2 0.178199 0.998716 0.310456
Si Si3 0.823439 0.937887 0.499692
Si Si4 0.822163 0.803666 0.691249
Si Si5 0.824523 0.185214 0.808061
Si Si6 0.323244 0.910302 0.386213
O O1 0.500000 0.905331 0.881853
O O2 0.735989 0.945157 0.834482
O O3 0.739446 0.912924 0.941888
O O4 0.732895 0.843621 0.858064
O O5 0.250000 0.987397 0.250000
O O6 0.000000 0.996529 0.304367
O O7 0.229037 0.954512 0.354277
O O8 0.728924 0.908845 0.451092
O O9 0.000000 0.927124 0.490291
O O10 0.789373 0.000000 0.500000
O O11 0.750000 0.822348 0.750000
O O12 0.768735 0.744320 0.675602
O O13 0.000000 0.807257 0.698321
O O14 0.750000 0.165019 0.750000
O O15 0.782488 0.146500 0.859325
O O16 0.000000 0.185615 0.795915
O O17 0.500000 0.922549 0.381518
#
# Coordination Sequence:
#
# PCOD8262572 Si02
#       6
#    16  16  16  16  16  16
#     4   9  18  33  54  76 101 134 172 210 258 309
#     4  11  21  34  51  77 107 135 168 212 260 313
#     4  10  19  36  56  74 100 139 179 213 253 309
#     4   9  17  33  55  77 102 134 169 209 257 308
#     4   9  19  34  53  76 104 135 170 210 255 306
#     4  11  22  35  51  76 105 137 174 214 259 304
#
# _framework density 18.103738
#
# number of rings (size 3 to 8) (size 9 to 14) (size 15 to 20)
#    0.000    2.167    1.667    2.000    0.000    3.000 
#    0.000    2.500    0.000    0.000    0.000    0.000 
#    0.000    0.000    0.000    0.000    0.000    0.000 
#
# Total GULP energy -595225.453048 kJ/mol
# GULP energy per Si atom -12400.530272 kJ/mol
# Density = 1.806253 g / cm^3
# Si number density = 18.103738 Si / 1000 Ang^3
#
#
#
# Elastic Constant Matrix: (Units=GPa)
#
#
# Indices 1 2 3 4 5 6 
#
# 1 40.5627 30.3414 30.9354 0.0000 0.0000 0.0000
# 2 30.3414 106.9402 60.0195 0.0000 0.0000 0.0000
# 3 30.9354 60.0195 126.7186 0.0000 0.0000 0.0000
# 4 0.0000 0.0000 0.0000 33.9347 0.0000 0.0000
# 5 0.0000 0.0000 0.0000 0.0000 31.7175 0.0000
# 6 0.0000 0.0000 0.0000 0.0000 0.0000 17.4363
#
#
#
# Elastic Compliance Matrix: (Units=1/GPa)
#
#
# Indices 1 2 3 4 5 6 
#
# 1 0.033472 -0.006689 -0.005003 0.000000 0.000000 0.000000
# 2 -0.006689 0.014073 -0.005033 0.000000 0.000000 0.000000
# 3 -0.005003 -0.005033 0.011497 0.000000 0.000000 0.000000
# 4 0.000000 0.000000 0.000000 0.029468 0.000000 0.000000
# 5 0.000000 0.000000 0.000000 0.000000 0.031528 0.000000
# 6 0.000000 0.000000 0.000000 0.000000 0.000000 0.057352
#
#
# Mechanical properties :
#
#
# Convention : Reuss Voigt Hill
#
# Bulk Modulus (GPa) = 39.07405 57.42378 48.24892
# Shear Modulus (GPa) = 22.79237 26.81273 24.80255
#
# Velocity S-wave (km/s) = 3.55207 3.85263 3.70540
# Velocity P-wave (km/s) = 6.20106 7.18182 6.70939
#
# Compressibility (1/GPa) = 0.02559243
#
# Stress axis : x y z
#
# Youngs Moduli (GPa) = 29.87545 71.05583 86.98094
#
# Poissons Ratio (x) = 0.47527 0.43520
# Poissons Ratio (y) = 0.19983 0.43777
# Poissons Ratio (z) = 0.14948 0.35762
#
# Static dielectric constant tensor:
#      x y z
#    x 3.167670 0.000000 0.000000 
#    y 0.000000 3.613660 0.000000 
#    z 0.000000 0.000000 3.553390 
# 
# 
# High freq. dielectric constant tensor:
#      x y z
#    x 1.685880 0.000000 0.000000 
#    y 0.000000 1.703950 0.000000 
#    z 0.000000 0.000000 1.703080 
# 
# From -- ./inp_files/42987.got.cif
#   From: 2010.03.12/outbox.cif.g09.slc.cpg/sg64_22_cif.got.tgz:42987.got - 2010.04.10 20:19:32.
