data_PCOD8262170
_publ_section_title
;
Structure prediction by ZEFSAII (Michael W. Deem and Ramdas Pophale) SiO2 
 PCOD8262170
Probable space group: C M C A
;
_chemical_formula_sum "Si O2"
_cell_formula_units_Z 96
_cell_length_a 8.760561
_cell_length_b 23.468406
_cell_length_c 26.141136
_cell_angle_alpha 90.000000
_cell_angle_beta 90.000000
_cell_angle_gamma 90.000000
_cell_volume 5374.523515
_symmetry_space_group_name_H-M "C M C A"
_symmetry_group_IT_number 64
_symmetry_cell_setting 'orthorhombic'
loop_
_space_group_symop_operation_xyz
x,y,z
-x,1/2-y,1/2+z
x,-y,-z
-x,1/2+y,1/2-z
-x,-y,-z
x,1/2+y,1/2-z
-x,y,z
x,1/2-y,1/2+z
1/2+x,1/2+y,z
1/2-x,-y,1/2+z
1/2+x,1/2-y,-z
1/2-x,y,1/2-z
1/2-x,1/2-y,-z
1/2+x,y,1/2-z
1/2-x,1/2+y,z
1/2+x,-y,1/2+z
loop_
_atom_site_type_symbol
_atom_site_label
_atom_site_fract_x
_atom_site_fract_y
_atom_site_fract_z
Si Si1 0.679094 0.331524 0.112698
Si Si2 0.818714 0.088598 0.694170
Si Si3 0.673364 0.416545 0.460958
Si Si4 0.678819 0.266338 0.945563
Si Si5 0.672922 0.989401 0.879179
Si Si6 0.676418 0.102309 0.436104
O O1 0.500000 0.327206 0.122032
O O2 0.757205 0.356940 0.163311
O O3 0.713278 0.370413 0.063522
O O4 0.746675 0.269386 0.100596
O O5 0.750000 0.089333 0.750000
O O6 0.000000 0.092803 0.695626
O O7 0.766543 0.029898 0.666612
O O8 0.500000 0.393275 0.457447
O O9 0.685970 0.476195 0.432120
O O10 0.722417 0.425156 0.519099
O O11 0.500000 0.253996 0.948751
O O12 0.714157 0.331309 0.930478
O O13 0.750000 0.250000 0.000000
O O14 0.500000 0.970660 0.867992
O O15 0.775381 0.932320 0.884662
O O16 0.500000 0.091999 0.447908
#
# Coordination Sequence:
#
# PCOD8262170 Si02
#       6
#    16  16  16  16  16  16
#     4  11  21  34  54  81 109 142 184 228 272 320
#     4  10  21  39  62  86 109 137 174 223 278 330
#     4  10  19  32  50  72 105 145 181 220 264 317
#     4  11  22  35  51  75 109 150 189 227 269 322
#     4   9  20  35  51  75 106 140 176 216 269 324
#     4  11  22  32  48  75 107 144 185 222 263 316
#
# _framework density 17.862048000000001
#
# number of rings (size 3 to 8) (size 9 to 14) (size 15 to 20)
#    0.000    1.667    1.667    5.000    0.000    8.000 
#    0.000    0.000    0.000    1.000    0.000    2.333 
#    0.000    0.000    0.000    0.000    0.000    0.000 
#
# Total GULP energy -595240.267943 kJ/mol
# GULP energy per Si atom -12400.838915 kJ/mol
# Density = 1.782139 g / cm^3
# Si number density = 17.862048 Si / 1000 Ang^3
#
#
#
# Elastic Constant Matrix: (Units=GPa)
#
#
# Indices 1 2 3 4 5 6 
#
# 1 106.5483 57.1770 46.3778 0.0000 0.0000 0.0000
# 2 57.1770 108.6802 62.2763 0.0000 0.0000 0.0000
# 3 46.3778 62.2763 111.2172 0.0000 0.0000 0.0000
# 4 0.0000 0.0000 0.0000 15.5472 0.0000 0.0000
# 5 0.0000 0.0000 0.0000 0.0000 29.1442 0.0000
# 6 0.0000 0.0000 0.0000 0.0000 0.0000 29.9494
#
#
#
# Elastic Compliance Matrix: (Units=1/GPa)
#
#
# Indices 1 2 3 4 5 6 
#
# 1 0.013511 -0.005713 -0.002435 0.000000 0.000000 0.000000
# 2 -0.005713 0.015964 -0.006557 0.000000 0.000000 0.000000
# 3 -0.002435 -0.006557 0.013678 0.000000 0.000000 0.000000
# 4 0.000000 0.000000 0.000000 0.064320 0.000000 0.000000
# 5 0.000000 0.000000 0.000000 0.000000 0.034312 0.000000
# 6 0.000000 0.000000 0.000000 0.000000 0.000000 0.033390
#
#
# Mechanical properties :
#
#
# Convention : Reuss Voigt Hill
#
# Bulk Modulus (GPa) = 72.76017 73.12310 72.94163
# Shear Modulus (GPa) = 23.90440 25.63581 24.77010
#
# Velocity S-wave (km/s) = 3.66222 3.79253 3.72794
# Velocity P-wave (km/s) = 7.66194 7.75914 7.71070
#
# Compressibility (1/GPa) = 0.01374378
#
# Stress axis : x y z
#
# Youngs Moduli (GPa) = 74.01345 62.64075 73.10765
#
# Poissons Ratio (x) = 0.35785 0.17804
# Poissons Ratio (y) = 0.42282 0.47936
# Poissons Ratio (z) = 0.18024 0.41073
#
# Static dielectric constant tensor:
#      x y z
#    x 3.368400 0.000000 0.000000 
#    y 0.000000 3.389830 0.000000 
#    z 0.000000 0.000000 3.089610 
# 
# 
# High freq. dielectric constant tensor:
#      x y z
#    x 1.704610 0.000000 0.000000 
#    y 0.000000 1.692790 0.000000 
#    z 0.000000 0.000000 1.658560 
# 
# From -- ./inp_files/48373.got.cif
#   From: 2010.03.12/outbox.cif.g09.slc.cpg/sg64_25_cif.got.tgz:48373.got - 2010.04.10 20:19:32.
