data_PCOD8262048
_publ_section_title
;
Structure prediction by ZEFSAII (Michael W. Deem and Ramdas Pophale) SiO2 
 PCOD8262048
Probable space group: C M C A
;
_chemical_formula_sum "Si O2"
_cell_formula_units_Z 64
_cell_length_a 20.154610
_cell_length_b 30.946404
_cell_length_c 5.154061
_cell_angle_alpha 90.000000
_cell_angle_beta 90.000000
_cell_angle_gamma 90.000000
_cell_volume 3214.653320
_symmetry_space_group_name_H-M "C M C A"
_symmetry_group_IT_number 64
_symmetry_cell_setting 'orthorhombic'
loop_
_space_group_symop_operation_xyz
x,y,z
-x,1/2-y,1/2+z
x,-y,-z
-x,1/2+y,1/2-z
-x,-y,-z
x,1/2+y,1/2-z
-x,y,z
x,1/2-y,1/2+z
1/2+x,1/2+y,z
1/2-x,-y,1/2+z
1/2+x,1/2-y,-z
1/2-x,y,1/2-z
1/2-x,1/2-y,-z
1/2+x,y,1/2-z
1/2-x,1/2+y,z
1/2+x,-y,1/2+z
loop_
_atom_site_type_symbol
_atom_site_label
_atom_site_fract_x
_atom_site_fract_y
_atom_site_fract_z
Si Si1 0.250000 0.026594 0.250000
Si Si2 0.823773 0.732107 0.562137
Si Si3 0.000000 0.530267 0.246166
Si Si4 0.174539 0.133310 0.776032
Si Si5 0.869773 0.587227 0.214151
O O1 0.188743 0.054337 0.351333
O O2 0.274642 0.000000 0.500000
O O3 0.859991 0.738416 0.284095
O O4 0.750000 0.750000 0.500000
O O5 0.824448 0.683793 0.664392
O O6 0.000000 0.500000 0.500000
O O7 0.062411 0.561544 0.229672
O O8 0.000000 0.500000 0.000000
O O9 0.250000 0.116535 0.750000
O O10 0.132631 0.123073 0.515477
O O11 0.139231 0.109530 0.010726
#
# Coordination Sequence:
#
# PCOD8262048 Si02
#       5
#     8  16   8  16  16
#     4  12  22  36  56  86 116 144 188 246 318 378
#     4  10  19  30  53  86 133 164 200 235 305 361
#     4  12  26  50  70  86 120 168 224 264 312 392
#     4  12  21  37  59  95 134 158 198 262 313 369
#     4  12  25  40  63  91 122 163 205 263 323 371
#
# _framework density 19.908835
#
# number of rings (size 3 to 8) (size 9 to 14) (size 15 to 20)
#    0.000    0.500    5.000    6.000    3.500    0.000 
#    0.000    0.000    0.000    0.000    0.000   17.500 
#    0.000    0.000    0.000    0.000    0.000    0.000 
#
# Total GULP energy -396638.394540 kJ/mol
# GULP energy per Si atom -12394.949829 kJ/mol
# Density = 1.986352 g / cm^3
# Si number density = 19.908835 Si / 1000 Ang^3
#
#
#
# Elastic Constant Matrix: (Units=GPa)
#
#
# Indices 1 2 3 4 5 6 
#
# 1 111.0003 62.3797 43.9801 0.0000 0.0000 0.0000
# 2 62.3797 127.6122 61.8726 0.0000 0.0000 0.0000
# 3 43.9801 61.8726 189.1142 0.0000 0.0000 0.0000
# 4 0.0000 0.0000 0.0000 72.1885 0.0000 0.0000
# 5 0.0000 0.0000 0.0000 0.0000 20.0430 0.0000
# 6 0.0000 0.0000 0.0000 0.0000 0.0000 24.2094
#
#
#
# Elastic Compliance Matrix: (Units=1/GPa)
#
#
# Indices 1 2 3 4 5 6 
#
# 1 0.012607 -0.005635 -0.001088 0.000000 0.000000 0.000000
# 2 -0.005635 0.011832 -0.002561 0.000000 0.000000 0.000000
# 3 -0.001088 -0.002561 0.006379 0.000000 0.000000 0.000000
# 4 0.000000 0.000000 0.000000 0.013853 0.000000 0.000000
# 5 0.000000 0.000000 0.000000 0.000000 0.049893 0.000000
# 6 0.000000 0.000000 0.000000 0.000000 0.000000 0.041306
#
#
# Mechanical properties :
#
#
# Convention : Reuss Voigt Hill
#
# Bulk Modulus (GPa) = 81.63221 84.91019 83.27120
# Shear Modulus (GPa) = 31.54166 40.58779 36.06473
#
# Velocity S-wave (km/s) = 3.98465 4.52008 4.26078
# Velocity P-wave (km/s) = 7.89062 8.36562 8.13159
#
# Compressibility (1/GPa) = 0.01225007
#
# Stress axis : x y z
#
# Youngs Moduli (GPa) = 79.32201 84.51472 156.77197
#
# Poissons Ratio (x) = 0.47623 0.17061
# Poissons Ratio (y) = 0.44697 0.40145
# Poissons Ratio (z) = 0.08632 0.21642
#
# Static dielectric constant tensor:
#      x y z
#    x 5.079220 0.000000 0.000000 
#    y 0.000000 3.835490 0.000000 
#    z 0.000000 0.000000 0.805360 
# 
# 
# High freq. dielectric constant tensor:
#      x y z
#    x 1.721220 0.000000 0.000000 
#    y 0.000000 1.790850 0.000000 
#    z 0.000000 0.000000 1.817960 
# 
# From -- ./inp_files/1357.got.cif
#   From: 2010.03.12/outbox.cif.g09.slc.cpg/sg64_1_cif.got.tgz:1357.got - 2010.04.10 20:19:32.
