data_PCOD8262594
_publ_section_title
;
Structure prediction by ZEFSAII (Michael W. Deem and Ramdas Pophale) SiO2 
 PCOD8262594
Probable space group: C M C A
;
_chemical_formula_sum "Si O2"
_cell_formula_units_Z 72
_cell_length_a 23.420755
_cell_length_b 29.879715
_cell_length_c 4.985264
_cell_angle_alpha 90.000000
_cell_angle_beta 90.000000
_cell_angle_gamma 90.000000
_cell_volume 3488.715089
_symmetry_space_group_name_H-M "C M C A"
_symmetry_group_IT_number 64
_symmetry_cell_setting 'orthorhombic'
loop_
_space_group_symop_operation_xyz
x,y,z
-x,1/2-y,1/2+z
x,-y,-z
-x,1/2+y,1/2-z
-x,-y,-z
x,1/2+y,1/2-z
-x,y,z
x,1/2-y,1/2+z
1/2+x,1/2+y,z
1/2-x,-y,1/2+z
1/2+x,1/2-y,-z
1/2-x,y,1/2-z
1/2-x,1/2-y,-z
1/2+x,y,1/2-z
1/2-x,1/2+y,z
1/2+x,-y,1/2+z
loop_
_atom_site_type_symbol
_atom_site_label
_atom_site_fract_x
_atom_site_fract_y
_atom_site_fract_z
Si Si1 0.378629 0.863427 0.420164
Si Si2 0.000000 0.366399 0.312784
Si Si3 0.788212 0.500000 0.000000
Si Si4 0.500000 0.576558 0.310418
Si Si5 0.377238 0.075501 0.078595
Si Si6 0.817397 0.775848 0.231836
O O1 0.441683 0.840368 0.389751
O O2 0.368171 0.883153 0.716122
O O3 0.332621 0.826149 0.349576
O O4 0.373841 0.905284 0.220043
O O5 0.000000 0.411513 0.496040
O O6 0.000000 0.378703 0.997904
O O7 0.750000 0.516661 0.750000
O O8 0.827355 0.460288 0.884993
O O9 0.560248 0.551632 0.374757
O O10 0.842299 0.759795 0.516284
O O11 0.750000 0.773696 0.250000
#
# Coordination Sequence:
#
# PCOD8262594 Si02
#       6
#    16   8   8   8  16  16
#     4  10  19  36  59  81 107 144 183 218 278 338
#     4   8  16  30  52  82 110 131 170 231 270 318
#     4  12  26  41  54  81 122 148 180 232 272 314
#     4   8  16  33  56  81 104 135 184 229 268 317
#     4  10  21  37  59  82 109 147 184 226 274 327
#     4  10  21  36  53  77 108 140 182 232 267 308
#
# _framework density 20.637972000000001
#
# number of rings (size 3 to 8) (size 9 to 14) (size 15 to 20)
#    0.000    2.222    0.000    2.667    0.000    3.111 
#    0.000    1.111    0.000    9.333    0.000    0.000 
#    0.000    0.000    0.000    0.000    0.000    0.000 
#
# Total GULP energy -446111.500667 kJ/mol
# GULP energy per Si atom -12391.986130 kJ/mol
# Density = 2.059100 g / cm^3
# Si number density = 20.637972 Si / 1000 Ang^3
#
#
#
# Elastic Constant Matrix: (Units=GPa)
#
#
# Indices 1 2 3 4 5 6 
#
# 1 85.0914 38.7855 38.7342 0.0000 0.0000 0.0000
# 2 38.7855 61.2046 17.0619 0.0000 0.0000 0.0000
# 3 38.7342 17.0619 101.7919 0.0000 0.0000 0.0000
# 4 0.0000 0.0000 0.0000 27.7706 0.0000 0.0000
# 5 0.0000 0.0000 0.0000 0.0000 28.5444 0.0000
# 6 0.0000 0.0000 0.0000 0.0000 0.0000 7.6140
#
#
#
# Elastic Compliance Matrix: (Units=1/GPa)
#
#
# Indices 1 2 3 4 5 6 
#
# 1 0.019055 -0.010547 -0.005483 0.000000 0.000000 0.000000
# 2 -0.010547 0.022977 0.000162 0.000000 0.000000 0.000000
# 3 -0.005483 0.000162 0.011883 0.000000 0.000000 0.000000
# 4 0.000000 0.000000 0.000000 0.036009 0.000000 0.000000
# 5 0.000000 0.000000 0.000000 0.000000 0.035033 0.000000
# 6 0.000000 0.000000 0.000000 0.000000 0.000000 0.131337
#
#
# Mechanical properties :
#
#
# Convention : Reuss Voigt Hill
#
# Bulk Modulus (GPa) = 45.08647 48.58346 46.83496
# Shear Modulus (GPa) = 16.92477 23.01956 19.97216
#
# Velocity S-wave (km/s) = 2.86681 3.34338 3.11422
# Velocity P-wave (km/s) = 5.73166 6.20453 5.97278
#
# Compressibility (1/GPa) = 0.02217961
#
# Stress axis : x y z
#
# Youngs Moduli (GPa) = 52.47837 43.52160 84.15176
#
# Poissons Ratio (x) = 0.45902 0.46142
# Poissons Ratio (y) = 0.55349 -0.01364
# Poissons Ratio (z) = 0.28775 -0.00705
#
# Static dielectric constant tensor:
#      x y z
#    x 4.066690 0.000000 0.000000 
#    y 0.000000 3.084100 0.000000 
#    z 0.000000 0.000000 4.046980 
# 
# 
# High freq. dielectric constant tensor:
#      x y z
#    x 1.817870 0.000000 0.000000 
#    y 0.000000 1.749000 0.000000 
#    z 0.000000 0.000000 1.833220 
# 
# From -- ./inp_files/2291.got.cif
#   From: 2010.03.12/outbox.cif.g09.slc.cpg/sg64_2_cif.got.tgz:2291.got - 2010.04.10 20:19:32.
