data_PCOD8262379
_publ_section_title
;
Structure prediction by ZEFSAII (Michael W. Deem and Ramdas Pophale) SiO2 
 PCOD8262379
Probable space group: C M C A
;
_chemical_formula_sum "Si O2"
_cell_formula_units_Z 104
_cell_length_a 9.530851
_cell_length_b 28.277320
_cell_length_c 19.927590
_cell_angle_alpha 90.000000
_cell_angle_beta 90.000000
_cell_angle_gamma 90.000000
_cell_volume 5370.623476
_symmetry_space_group_name_H-M "C M C A"
_symmetry_group_IT_number 64
_symmetry_cell_setting 'orthorhombic'
loop_
_space_group_symop_operation_xyz
x,y,z
-x,1/2-y,1/2+z
x,-y,-z
-x,1/2+y,1/2-z
-x,-y,-z
x,1/2+y,1/2-z
-x,y,z
x,1/2-y,1/2+z
1/2+x,1/2+y,z
1/2-x,-y,1/2+z
1/2+x,1/2-y,-z
1/2-x,y,1/2-z
1/2-x,1/2-y,-z
1/2+x,y,1/2-z
1/2-x,1/2+y,z
1/2+x,-y,1/2+z
loop_
_atom_site_type_symbol
_atom_site_label
_atom_site_fract_x
_atom_site_fract_y
_atom_site_fract_z
Si Si1 0.340434 0.015189 0.685016
Si Si2 0.659435 0.825333 0.038525
Si Si3 0.155258 0.246396 0.649644
Si Si4 0.164298 0.670369 0.116258
Si Si5 0.657933 0.111475 0.626034
Si Si6 0.750000 0.328027 0.250000
Si Si7 0.165522 0.090741 0.181128
O O1 0.500000 0.022102 0.708251
O O2 0.250000 0.022547 0.750000
O O3 0.318272 0.962960 0.654011
O O4 0.299427 0.056246 0.632704
O O5 0.500000 0.840024 0.051777
O O6 0.697064 0.777935 0.079164
O O7 0.748876 0.868817 0.066156
O O8 0.687466 0.815791 0.960771
O O9 0.270514 0.287488 0.662051
O O10 0.149402 0.206969 0.708056
O O11 0.000000 0.269239 0.645330
O O12 0.255225 0.623304 0.127573
O O13 0.000000 0.663456 0.134590
O O14 0.500000 0.116659 0.600954
O O15 0.669460 0.138751 0.697283
O O16 0.250000 0.097502 0.250000
O O17 0.000000 0.103892 0.189959
#
# Coordination Sequence:
#
# PCOD8262379 Si02
#       7
#    16  16  16  16  16   8  16
#     4   9  18  33  55  84 113 144 179 220 273 330
#     4   9  21  39  56  79 110 148 189 230 273 327
#     4  10  21  36  56  81 111 145 186 229 276 327
#     4  11  23  39  58  78 108 148 191 232 276 325
#     4  10  19  33  57  86 114 144 180 223 274 329
#     4  10  20  34  54  84 118 142 176 222 278 330
#     4  10  21  38  59  83 112 144 184 229 275 327
#
# _framework density 19.364604
#
# number of rings (size 3 to 8) (size 9 to 14) (size 15 to 20)
#    0.000    2.154    0.769    1.846    1.077    6.154 
#    0.000    0.769    0.000    4.615    0.000    0.000 
#    0.000    0.000    0.000    0.000    0.000    0.000 
#
# Total GULP energy -644578.928971 kJ/mol
# GULP energy per Si atom -12395.748634 kJ/mol
# Density = 1.932053 g / cm^3
# Si number density = 19.364604 Si / 1000 Ang^3
#
#
#
# Elastic Constant Matrix: (Units=GPa)
#
#
# Indices 1 2 3 4 5 6 
#
# 1 107.2770 64.0651 17.5804 0.0000 0.0000 0.0000
# 2 64.0651 112.7536 21.4552 0.0000 0.0000 0.0000
# 3 17.5804 21.4552 42.7535 0.0000 0.0000 0.0000
# 4 0.0000 0.0000 0.0000 12.7518 0.0000 0.0000
# 5 0.0000 0.0000 0.0000 0.0000 28.0166 0.0000
# 6 0.0000 0.0000 0.0000 0.0000 0.0000 55.6933
#
#
#
# Elastic Compliance Matrix: (Units=1/GPa)
#
#
# Indices 1 2 3 4 5 6 
#
# 1 0.014260 -0.007724 -0.001988 0.000000 0.000000 0.000000
# 2 -0.007724 0.013989 -0.003844 0.000000 0.000000 0.000000
# 3 -0.001988 -0.003844 0.026136 0.000000 0.000000 0.000000
# 4 0.000000 0.000000 0.000000 0.078420 0.000000 0.000000
# 5 0.000000 0.000000 0.000000 0.000000 0.035693 0.000000
# 6 0.000000 0.000000 0.000000 0.000000 0.000000 0.017955
#
#
# Mechanical properties :
#
#
# Convention : Reuss Voigt Hill
#
# Bulk Modulus (GPa) = 36.66495 52.10951 44.38723
# Shear Modulus (GPa) = 22.45599 29.93792 26.19695
#
# Velocity S-wave (km/s) = 3.40904 3.93620 3.68207
# Velocity P-wave (km/s) = 5.87116 6.90118 6.40691
#
# Compressibility (1/GPa) = 0.02727400
#
# Stress axis : x y z
#
# Youngs Moduli (GPa) = 70.12489 71.48379 38.26103
#
# Poissons Ratio (x) = 0.55216 0.07605
# Poissons Ratio (y) = 0.54167 0.14708
# Poissons Ratio (z) = 0.13938 0.27478
#
# Static dielectric constant tensor:
#      x y z
#    x 3.557170 0.000000 0.000000 
#    y 0.000000 3.691860 0.000000 
#    z 0.000000 0.000000 3.374080 
# 
# 
# High freq. dielectric constant tensor:
#      x y z
#    x 1.762020 0.000000 0.000000 
#    y 0.000000 1.760540 0.000000 
#    z 0.000000 0.000000 1.730510 
# 
# From -- ./inp_files/37251.got.cif
#   From: 2010.03.12/outbox.cif.g09.slc.cpg/sg64_19_cif.got.tgz:37251.got - 2010.04.10 20:19:32.
