data_PCOD8262043
_publ_section_title
;
Structure prediction by ZEFSAII (Michael W. Deem and Ramdas Pophale) SiO2 
 PCOD8262043
Probable space group: C M C A
;
_chemical_formula_sum "Si O2"
_cell_formula_units_Z 96
_cell_length_a 20.491659
_cell_length_b 23.885112
_cell_length_c 9.445693
_cell_angle_alpha 90.000000
_cell_angle_beta 90.000000
_cell_angle_gamma 90.000000
_cell_volume 4623.152597
_symmetry_space_group_name_H-M "C M C A"
_symmetry_group_IT_number 64
_symmetry_cell_setting 'orthorhombic'
loop_
_space_group_symop_operation_xyz
x,y,z
-x,1/2-y,1/2+z
x,-y,-z
-x,1/2+y,1/2-z
-x,-y,-z
x,1/2+y,1/2-z
-x,y,z
x,1/2-y,1/2+z
1/2+x,1/2+y,z
1/2-x,-y,1/2+z
1/2+x,1/2-y,-z
1/2-x,y,1/2-z
1/2-x,1/2-y,-z
1/2+x,y,1/2-z
1/2-x,1/2+y,z
1/2+x,-y,1/2+z
loop_
_atom_site_type_symbol
_atom_site_label
_atom_site_fract_x
_atom_site_fract_y
_atom_site_fract_z
Si Si1 0.146807 0.748489 0.523806
Si Si2 0.430164 0.716812 0.717622
Si Si3 0.427630 0.091606 0.872697
Si Si4 0.575904 0.058077 0.572081
Si Si5 0.677064 0.133534 0.409074
Si Si6 0.678712 0.871128 0.918145
O O1 0.129334 0.735019 0.684431
O O2 0.080069 0.754442 0.434522
O O3 0.188227 0.698266 0.454892
O O4 0.182654 0.808397 0.517523
O O5 0.500000 0.737448 0.776574
O O6 0.430150 0.650624 0.704916
O O7 0.500000 0.077578 0.936990
O O8 0.410677 0.050371 0.741168
O O9 0.372575 0.089885 0.995217
O O10 0.500000 0.073706 0.544554
O O11 0.621463 0.106047 0.505355
O O12 0.595203 0.000000 0.500000
O O13 0.655659 0.129964 0.244948
O O14 0.747900 0.104018 0.431310
#
# Coordination Sequence:
#
# PCOD8262043 Si02
#       6
#    16  16  16  16  16  16
#     4  11  19  35  51  81 121 160 197 241 289 353
#     4  10  19  30  50  81 117 155 196 238 290 352
#     4   9  19  38  59  86 120 151 195 249 298 354
#     4  10  22  42  67  91 114 148 199 256 310 364
#     4  11  22  39  58  84 121 159 205 246 296 356
#     4  10  23  38  55  88 124 161 200 243 290 363
#
# _framework density 20.765052000000001
#
# number of rings (size 3 to 8) (size 9 to 14) (size 15 to 20)
#    0.000    1.833    3.333    1.000    0.000    2.667 
#    0.000    4.167    0.000    3.000    0.000    0.000 
#    0.000    0.000    0.000    0.000    0.000    0.000 
#
# Total GULP energy -594837.814090 kJ/mol
# GULP energy per Si atom -12392.454460 kJ/mol
# Density = 2.071779 g / cm^3
# Si number density = 20.765052 Si / 1000 Ang^3
#
#
#
# Elastic Constant Matrix: (Units=GPa)
#
#
# Indices 1 2 3 4 5 6 
#
# 1 114.0401 17.5027 60.8320 0.0000 0.0000 0.0000
# 2 17.5027 38.8065 21.4892 0.0000 0.0000 0.0000
# 3 60.8320 21.4892 123.1013 0.0000 0.0000 0.0000
# 4 0.0000 0.0000 0.0000 27.7575 0.0000 0.0000
# 5 0.0000 0.0000 0.0000 0.0000 33.3397 0.0000
# 6 0.0000 0.0000 0.0000 0.0000 0.0000 11.8866
#
#
#
# Elastic Compliance Matrix: (Units=1/GPa)
#
#
# Indices 1 2 3 4 5 6 
#
# 1 0.012102 -0.002376 -0.005566 0.000000 0.000000 0.000000
# 2 -0.002376 0.028993 -0.003887 0.000000 0.000000 0.000000
# 3 -0.005566 -0.003887 0.011552 0.000000 0.000000 0.000000
# 4 0.000000 0.000000 0.000000 0.036026 0.000000 0.000000
# 5 0.000000 0.000000 0.000000 0.000000 0.029994 0.000000
# 6 0.000000 0.000000 0.000000 0.000000 0.000000 0.084128
#
#
# Mechanical properties :
#
#
# Convention : Reuss Voigt Hill
#
# Bulk Modulus (GPa) = 34.49491 52.84396 43.66944
# Shear Modulus (GPa) = 21.17583 26.33836 23.75709
#
# Velocity S-wave (km/s) = 3.19687 3.56532 3.38611
# Velocity P-wave (km/s) = 5.50224 6.51555 6.03022
#
# Compressibility (1/GPa) = 0.02898978
#
# Stress axis : x y z
#
# Youngs Moduli (GPa) = 82.62756 34.49096 86.56309
#
# Poissons Ratio (x) = 0.08197 0.48179
# Poissons Ratio (y) = 0.19636 0.33645
# Poissons Ratio (z) = 0.45988 0.13406
#
# Static dielectric constant tensor:
#      x y z
#    x 3.711400 0.000000 0.000000 
#    y 0.000000 3.463340 0.000000 
#    z 0.000000 0.000000 3.771390 
# 
# 
# High freq. dielectric constant tensor:
#      x y z
#    x 1.812830 0.000000 0.000000 
#    y 0.000000 1.777570 0.000000 
#    z 0.000000 0.000000 1.819660 
# 
# From -- ./inp_files/8407.got.cif
#   From: 2010.03.12/outbox.cif.g09.slc.cpg/sg64_5_cif.got.tgz:8407.got - 2010.04.10 20:19:32.
