data_PCOD8262469
_publ_section_title
;
Structure prediction by ZEFSAII (Michael W. Deem and Ramdas Pophale) SiO2 
 PCOD8262469
Probable space group: C M C A
;
_chemical_formula_sum "Si O2"
_cell_formula_units_Z 112
_cell_length_a 14.926660
_cell_length_b 20.738270
_cell_length_c 15.506587
_cell_angle_alpha 90.000000
_cell_angle_beta 90.000000
_cell_angle_gamma 90.000000
_cell_volume 4800.112158
_symmetry_space_group_name_H-M "C M C A"
_symmetry_group_IT_number 64
_symmetry_cell_setting 'orthorhombic'
loop_
_space_group_symop_operation_xyz
x,y,z
-x,1/2-y,1/2+z
x,-y,-z
-x,1/2+y,1/2-z
-x,-y,-z
x,1/2+y,1/2-z
-x,y,z
x,1/2-y,1/2+z
1/2+x,1/2+y,z
1/2-x,-y,1/2+z
1/2+x,1/2-y,-z
1/2-x,y,1/2-z
1/2-x,1/2-y,-z
1/2+x,y,1/2-z
1/2-x,1/2+y,z
1/2+x,-y,1/2+z
loop_
_atom_site_type_symbol
_atom_site_label
_atom_site_fract_x
_atom_site_fract_y
_atom_site_fract_z
Si Si1 0.768768 0.053238 0.160963
Si Si2 0.105444 0.251949 0.437449
Si Si3 0.850461 0.688082 0.733040
Si Si4 0.901733 0.443208 0.348947
Si Si5 0.102372 0.661520 0.915162
Si Si6 0.598730 0.018037 0.904157
Si Si7 0.602630 0.115196 0.473907
O O1 0.750000 0.091483 0.250000
O O2 0.825958 0.098875 0.099500
O O3 0.826765 0.990272 0.188453
O O4 0.671614 0.033595 0.125971
O O5 0.143492 0.254096 0.338601
O O6 0.146349 0.195322 0.499397
O O7 0.131389 0.316795 0.486993
O O8 0.000000 0.244370 0.428570
O O9 0.750000 0.667925 0.750000
O O10 0.902077 0.626487 0.695763
O O11 0.889701 0.705619 0.828153
O O12 0.887069 0.438050 0.451586
O O13 0.000000 0.473284 0.332551
O O14 0.142465 0.590165 0.897158
O O15 0.000000 0.651804 0.939686
O O16 0.500000 0.014541 0.855720
O O17 0.576695 0.000000 0.000000
O O18 0.500000 0.116678 0.438750
#
# Coordination Sequence:
#
# PCOD8262469 Si02
#       7
#    16  16  16  16  16  16  16
#     4  12  23  34  54  84 119 156 194 242 305 368
#     4   9  20  40  64  89 117 154 204 256 304 358
#     4  11  21  34  56  89 123 155 196 246 301 366
#     4  10  19  34  59  86 112 147 199 259 307 355
#     4  10  20  38  64  87 114 157 201 247 303 357
#     4  10  22  40  60  84 117 158 203 247 296 361
#     4   9  19  37  60  85 114 150 195 250 307 360
#
# _framework density 23.332788000000001
#
# number of rings (size 3 to 8) (size 9 to 14) (size 15 to 20)
#    0.000    1.857    0.000    6.000    0.000    5.143 
#    0.000    2.143    0.000    5.143    0.000    0.000 
#    0.000    1.143    0.000    0.000    0.000    0.000 
#
# Total GULP energy -693832.357545 kJ/mol
# GULP energy per Si atom -12389.863528 kJ/mol
# Density = 2.327968 g / cm^3
# Si number density = 23.332788 Si / 1000 Ang^3
#
#
#
# Elastic Constant Matrix: (Units=GPa)
#
#
# Indices 1 2 3 4 5 6 
#
# 1 100.8809 14.3921 24.2455 0.0000 0.0000 0.0000
# 2 14.3921 36.8302 23.5307 0.0000 0.0000 0.0000
# 3 24.2455 23.5307 141.4794 0.0000 0.0000 0.0000
# 4 0.0000 0.0000 0.0000 25.0251 0.0000 0.0000
# 5 0.0000 0.0000 0.0000 0.0000 9.5067 0.0000
# 6 0.0000 0.0000 0.0000 0.0000 0.0000 21.0390
#
#
#
# Elastic Compliance Matrix: (Units=1/GPa)
#
#
# Indices 1 2 3 4 5 6 
#
# 1 0.010699 -0.003367 -0.001273 0.000000 0.000000 0.000000
# 2 -0.003367 0.031440 -0.004652 0.000000 0.000000 0.000000
# 3 -0.001273 -0.004652 0.008060 0.000000 0.000000 0.000000
# 4 0.000000 0.000000 0.000000 0.039960 0.000000 0.000000
# 5 0.000000 0.000000 0.000000 0.000000 0.105188 0.000000
# 6 0.000000 0.000000 0.000000 0.000000 0.000000 0.047531
#
#
# Mechanical properties :
#
#
# Convention : Reuss Voigt Hill
#
# Bulk Modulus (GPa) = 31.63215 44.83634 38.23424
# Shear Modulus (GPa) = 18.38228 25.58231 21.98229
#
# Velocity S-wave (km/s) = 2.80988 3.31480 3.07273
# Velocity P-wave (km/s) = 4.91056 5.82308 5.38618
#
# Compressibility (1/GPa) = 0.03161341
#
# Stress axis : x y z
#
# Youngs Moduli (GPa) = 93.46549 31.80708 124.06782
#
# Poissons Ratio (x) = 0.10710 0.15800
# Poissons Ratio (y) = 0.31472 0.57716
# Poissons Ratio (z) = 0.11903 0.14796
#
# Static dielectric constant tensor:
#      x y z
#    x 4.151810 0.000000 0.000000 
#    y 0.000000 3.985240 0.000000 
#    z 0.000000 0.000000 4.564350 
# 
# 
# High freq. dielectric constant tensor:
#      x y z
#    x 1.929330 0.000000 0.000000 
#    y 0.000000 1.880830 0.000000 
#    z 0.000000 0.000000 1.932590 
# 
# From -- ./inp_files/24194.got.cif
#   From: 2010.03.12/outbox.cif.g09.slc.cpg/sg64_13_cif.got.tgz:24194.got - 2010.04.10 20:19:32.
