data_PCOD8262998
_publ_section_title
;
Structure prediction by ZEFSAII (Michael W. Deem and Ramdas Pophale) SiO2 
 PCOD8262998
Probable space group: C M C A
;
_chemical_formula_sum "Si O2"
_cell_formula_units_Z 80
_cell_length_a 9.234298
_cell_length_b 18.099911
_cell_length_c 25.555735
_cell_angle_alpha 90.000000
_cell_angle_beta 90.000000
_cell_angle_gamma 90.000000
_cell_volume 4271.384831
_symmetry_space_group_name_H-M "C M C A"
_symmetry_group_IT_number 64
_symmetry_cell_setting 'orthorhombic'
loop_
_space_group_symop_operation_xyz
x,y,z
-x,1/2-y,1/2+z
x,-y,-z
-x,1/2+y,1/2-z
-x,-y,-z
x,1/2+y,1/2-z
-x,y,z
x,1/2-y,1/2+z
1/2+x,1/2+y,z
1/2-x,-y,1/2+z
1/2+x,1/2-y,-z
1/2-x,y,1/2-z
1/2-x,1/2-y,-z
1/2+x,y,1/2-z
1/2-x,1/2+y,z
1/2+x,-y,1/2+z
loop_
_atom_site_type_symbol
_atom_site_label
_atom_site_fract_x
_atom_site_fract_y
_atom_site_fract_z
Si Si1 0.669773 0.091208 0.197615
Si Si2 0.332673 0.834057 0.604510
Si Si3 0.168469 0.579417 0.801745
Si Si4 0.832053 0.338007 0.095157
Si Si5 0.330371 0.584228 0.998438
O O1 0.500000 0.105762 0.204263
O O2 0.750000 0.117373 0.250000
O O3 0.729735 0.139631 0.150587
O O4 0.704350 0.005723 0.185938
O O5 0.500000 0.848660 0.619420
O O6 0.302166 0.748572 0.594639
O O7 0.287584 0.878174 0.552851
O O8 0.250000 0.607079 0.750000
O O9 0.224659 0.627695 0.850381
O O10 0.000000 0.592001 0.791393
O O11 0.747377 0.373574 0.047796
O O12 0.000000 0.356940 0.087747
O O13 0.500000 0.589261 0.987540
O O14 0.276487 0.500000 0.000000
#
# Coordination Sequence:
#
# PCOD8262998 Si02
#       5
#    16  16  16  16  16
#     4  10  20  35  56  79 104 137 176 216 259 309
#     4  10  21  36  53  77 110 141 173 218 265 312
#     4   9  19  35  54  77 103 134 174 216 258 307
#     4  10  21  36  54  78 108 139 174 218 265 314
#     4  10  21  36  55  79 106 139 179 220 264 315
#
# _framework density 18.729288
#
# number of rings (size 3 to 8) (size 9 to 14) (size 15 to 20)
#    0.000    2.200    0.000    2.400    0.000    4.400 
#    0.000    2.000    0.000    0.000    0.000    0.000 
#    0.000    0.000    0.000    0.000    0.000    0.000 
#
# Total GULP energy -496198.991224 kJ/mol
# GULP energy per Si atom -12404.974781 kJ/mol
# Density = 1.868666 g / cm^3
# Si number density = 18.729288 Si / 1000 Ang^3
#
#
#
# Elastic Constant Matrix: (Units=GPa)
#
#
# Indices 1 2 3 4 5 6 
#
# 1 70.6904 48.8890 74.1296 0.0000 0.0000 0.0000
# 2 48.8890 101.5069 82.0823 0.0000 0.0000 0.0000
# 3 74.1296 82.0823 165.9927 0.0000 0.0000 0.0000
# 4 0.0000 0.0000 0.0000 -277.0863 0.0000 0.0000
# 5 0.0000 0.0000 0.0000 0.0000 40.9939 0.0000
# 6 0.0000 0.0000 0.0000 0.0000 0.0000 13.1061
#
#
#
# Elastic Compliance Matrix: (Units=1/GPa)
#
#
# Indices 1 2 3 4 5 6 
#
# 1 0.028466 -0.005716 -0.009886 0.000000 0.000000 0.000000
# 2 -0.005716 0.017563 -0.006132 0.000000 0.000000 0.000000
# 3 -0.009886 -0.006132 0.013472 0.000000 0.000000 0.000000
# 4 0.000000 0.000000 0.000000 -0.003609 0.000000 0.000000
# 5 0.000000 0.000000 0.000000 0.000000 0.024394 0.000000
# 6 0.000000 0.000000 0.000000 0.000000 0.000000 0.076301
#
#
# Mechanical properties :
#
#
# Convention : Reuss Voigt Hill
#
# Bulk Modulus (GPa) = 62.37277 83.15464 72.76371
# Shear Modulus (GPa) = 24.34273 -35.72468 -5.69097
#
# Velocity S-wave (km/s) = 3.60907 -4.37214 -1.74503
# Velocity P-wave (km/s) = 7.12332 4.35971 5.90545
#
# Compressibility (1/GPa) = 0.01603264
#
# Stress axis : x y z
#
# Youngs Moduli (GPa) = 35.12910 56.93659 74.22981
#
# Poissons Ratio (x) = 0.32546 0.73384
# Poissons Ratio (y) = 0.20080 0.45520
# Poissons Ratio (z) = 0.34729 0.34915
#
# Static dielectric constant tensor:
#      x y z
#    x 3.340100 0.000000 0.000000 
#    y 0.000000 3.582270 0.000000 
#    z 0.000000 0.000000 3.629330 
# 
# 
# High freq. dielectric constant tensor:
#      x y z
#    x 1.723270 0.000000 0.000000 
#    y 0.000000 1.733020 0.000000 
#    z 0.000000 0.000000 1.739960 
# 
# From -- ./inp_files/47828.got.cif
#   From: 2010.03.12/outbox.cif.g09.slc.cpg/sg64_24_cif.got.tgz:47828.got - 2010.04.10 20:19:32.
