data_PCOD8262131
_publ_section_title
;
Structure prediction by ZEFSAII (Michael W. Deem and Ramdas Pophale) SiO2 
 PCOD8262131
Probable space group: C M C A
;
_chemical_formula_sum "Si O2"
_cell_formula_units_Z 96
_cell_length_a 9.053817
_cell_length_b 29.769529
_cell_length_c 19.183344
_cell_angle_alpha 90.000000
_cell_angle_beta 90.000000
_cell_angle_gamma 90.000000
_cell_volume 5170.445804
_symmetry_space_group_name_H-M "C M C A"
_symmetry_group_IT_number 64
_symmetry_cell_setting 'orthorhombic'
loop_
_space_group_symop_operation_xyz
x,y,z
-x,1/2-y,1/2+z
x,-y,-z
-x,1/2+y,1/2-z
-x,-y,-z
x,1/2+y,1/2-z
-x,y,z
x,1/2-y,1/2+z
1/2+x,1/2+y,z
1/2-x,-y,1/2+z
1/2+x,1/2-y,-z
1/2-x,y,1/2-z
1/2-x,1/2-y,-z
1/2+x,y,1/2-z
1/2-x,1/2+y,z
1/2+x,-y,1/2+z
loop_
_atom_site_type_symbol
_atom_site_label
_atom_site_fract_x
_atom_site_fract_y
_atom_site_fract_z
Si Si1 0.330461 0.281651 0.903771
Si Si2 0.329848 0.812150 0.040461
Si Si3 0.323902 0.016408 0.825058
Si Si4 0.327017 0.066752 0.085173
Si Si5 0.328101 0.350497 0.680815
Si Si6 0.174209 0.411577 0.065712
O O1 0.500000 0.295413 0.893971
O O2 0.310911 0.227615 0.903032
O O3 0.236765 0.301956 0.840229
O O4 0.275150 0.302416 0.975931
O O5 0.500000 0.814441 0.013655
O O6 0.281920 0.859264 0.075434
O O7 0.500000 0.014699 0.815519
O O8 0.250000 0.017405 0.750000
O O9 0.269571 0.060351 0.867831
O O10 0.261692 0.973604 0.868254
O O11 0.500000 0.058275 0.080451
O O12 0.291558 0.114502 0.119852
O O13 0.259365 0.068368 0.006890
O O14 0.500000 0.345696 0.695644
O O15 0.250000 0.368532 0.750000
O O16 0.000000 0.416663 0.060690
#
# Coordination Sequence:
#
# PCOD8262131 Si02
#       6
#    16  16  16  16  16  16
#     4  10  19  31  50  77 106 136 172 211 261 315
#     4   9  17  32  54  77 102 132 171 218 259 302
#     4  10  20  34  54  77 104 137 172 213 260 314
#     4   9  17  31  54  80 101 131 175 219 259 309
#     4  11  21  34  52  75 108 142 176 218 267 316
#     4   9  16  31  56  81 101 131 177 219 255 304
#
# _framework density 18.567063999999998
#
# number of rings (size 3 to 8) (size 9 to 14) (size 15 to 20)
#    0.000    2.333    1.667    2.000    0.000    2.667 
#    0.000    2.500    0.000    3.000    0.000    0.000 
#    0.000    0.000    0.000    0.000    0.000    0.000 
#
# Total GULP energy -595057.704241 kJ/mol
# GULP energy per Si atom -12397.035505 kJ/mol
# Density = 1.852480 g / cm^3
# Si number density = 18.567064 Si / 1000 Ang^3
#
#
#
# Elastic Constant Matrix: (Units=GPa)
#
#
# Indices 1 2 3 4 5 6 
#
# 1 54.0322 35.5050 28.7090 0.0000 0.0000 0.0000
# 2 35.5050 140.6796 61.6304 0.0000 0.0000 0.0000
# 3 28.7090 61.6304 104.6627 0.0000 0.0000 0.0000
# 4 0.0000 0.0000 0.0000 15.7098 0.0000 0.0000
# 5 0.0000 0.0000 0.0000 0.0000 30.1377 0.0000
# 6 0.0000 0.0000 0.0000 0.0000 0.0000 18.5048
#
#
#
# Elastic Compliance Matrix: (Units=1/GPa)
#
#
# Indices 1 2 3 4 5 6 
#
# 1 0.023341 -0.004159 -0.003953 0.000000 0.000000 0.000000
# 2 -0.004159 0.010321 -0.004936 0.000000 0.000000 0.000000
# 3 -0.003953 -0.004936 0.013546 0.000000 0.000000 0.000000
# 4 0.000000 0.000000 0.000000 0.063654 0.000000 0.000000
# 5 0.000000 0.000000 0.000000 0.000000 0.033181 0.000000
# 6 0.000000 0.000000 0.000000 0.000000 0.000000 0.054040
#
#
# Mechanical properties :
#
#
# Convention : Reuss Voigt Hill
#
# Bulk Modulus (GPa) = 47.37170 61.22924 54.30047
# Shear Modulus (GPa) = 21.62474 24.43916 23.03195
#
# Velocity S-wave (km/s) = 3.41645 3.63197 3.52586
# Velocity P-wave (km/s) = 6.41343 7.11598 6.77382
#
# Compressibility (1/GPa) = 0.02110965
#
# Stress axis : x y z
#
# Youngs Moduli (GPa) = 42.84326 96.89368 73.82371
#
# Poissons Ratio (x) = 0.40297 0.29186
# Poissons Ratio (y) = 0.17818 0.36443
# Poissons Ratio (z) = 0.16938 0.47831
#
# Static dielectric constant tensor:
#      x y z
#    x 3.127760 0.000000 0.000000 
#    y 0.000000 3.730730 0.000000 
#    z 0.000000 0.000000 3.389260 
# 
# 
# High freq. dielectric constant tensor:
#      x y z
#    x 1.686380 0.000000 0.000000 
#    y 0.000000 1.733120 0.000000 
#    z 0.000000 0.000000 1.708810 
# 
# From -- ./inp_files/37081.got.cif
#   From: 2010.03.12/outbox.cif.g09.slc.cpg/sg64_19_cif.got.tgz:37081.got - 2010.04.10 20:19:32.
