data_PCOD8262691
_publ_section_title
;
Structure prediction by ZEFSAII (Michael W. Deem and Ramdas Pophale) SiO2 
 PCOD8262691
Probable space group: C M C A
;
_chemical_formula_sum "Si O2"
_cell_formula_units_Z 72
_cell_length_a 13.713877
_cell_length_b 21.049224
_cell_length_c 12.436428
_cell_angle_alpha 90.000000
_cell_angle_beta 90.000000
_cell_angle_gamma 90.000000
_cell_volume 3589.979756
_symmetry_space_group_name_H-M "C M C A"
_symmetry_group_IT_number 64
_symmetry_cell_setting 'orthorhombic'
loop_
_space_group_symop_operation_xyz
x,y,z
-x,1/2-y,1/2+z
x,-y,-z
-x,1/2+y,1/2-z
-x,-y,-z
x,1/2+y,1/2-z
-x,y,z
x,1/2-y,1/2+z
1/2+x,1/2+y,z
1/2-x,-y,1/2+z
1/2+x,1/2-y,-z
1/2-x,y,1/2-z
1/2-x,1/2-y,-z
1/2+x,y,1/2-z
1/2-x,1/2+y,z
1/2+x,-y,1/2+z
loop_
_atom_site_type_symbol
_atom_site_label
_atom_site_fract_x
_atom_site_fract_y
_atom_site_fract_z
Si Si1 0.340829 0.724058 0.191516
Si Si2 0.163153 0.000000 0.500000
Si Si3 0.000000 0.945696 0.351409
Si Si4 0.500000 0.452595 0.806360
Si Si5 0.704602 0.912238 0.635756
Si Si6 0.000000 0.334962 0.837076
Si Si7 0.000000 0.808229 0.412588
O O1 0.250000 0.760015 0.250000
O O2 0.299424 0.664281 0.123084
O O3 0.405427 0.698594 0.289735
O O4 0.402090 0.768639 0.112149
O O5 0.229237 0.057606 0.456512
O O6 0.098080 0.031420 0.591367
O O7 0.000000 0.869986 0.337448
O O8 0.000000 0.974430 0.231459
O O9 0.405068 0.438751 0.877586
O O10 0.500000 0.408926 0.697465
O O11 0.750000 0.932111 0.750000
O O12 0.000000 0.331031 0.964970
#
# Coordination Sequence:
#
# PCOD8262691 Si02
#       7
#    16   8   8   8  16   8   8
#     4   9  21  40  59  85 117 157 201 237 288 358
#     4  11  22  39  62  98 112 149 208 245 298 362
#     4  11  23  36  60  87 120 151 195 249 289 357
#     4  10  19  40  61  87 121 156 194 248 300 355
#     4  10  20  38  66  89 118 156 199 248 295 356
#     4   9  19  37  63  84 111 153 200 239 288 355
#     4  11  23  39  58  87 120 157 199 247 291 346
#
# _framework density 20.055823
#
# number of rings (size 3 to 8) (size 9 to 14) (size 15 to 20)
#    0.000    2.000    2.222    2.000    6.222    1.333 
#    4.000    2.222    0.000    0.000    0.000    0.000 
#    0.000    0.000    0.000    0.000    0.000    0.000 
#
# Total GULP energy -446379.595301 kJ/mol
# GULP energy per Si atom -12399.433203 kJ/mol
# Density = 2.001018 g / cm^3
# Si number density = 20.055823 Si / 1000 Ang^3
#
#
#
# Elastic Constant Matrix: (Units=GPa)
#
#
# Indices 1 2 3 4 5 6 
#
# 1 134.6740 34.6534 16.8060 0.0000 0.0000 0.0000
# 2 34.6534 95.2691 21.6392 0.0000 0.0000 0.0000
# 3 16.8060 21.6392 40.5728 0.0000 0.0000 0.0000
# 4 0.0000 0.0000 0.0000 26.6372 0.0000 0.0000
# 5 0.0000 0.0000 0.0000 0.0000 10.2171 0.0000
# 6 0.0000 0.0000 0.0000 0.0000 0.0000 13.5735
#
#
#
# Elastic Compliance Matrix: (Units=1/GPa)
#
#
# Indices 1 2 3 4 5 6 
#
# 1 0.008345 -0.002561 -0.002091 0.000000 0.000000 0.000000
# 2 -0.002561 0.012729 -0.005728 0.000000 0.000000 0.000000
# 3 -0.002091 -0.005728 0.028568 0.000000 0.000000 0.000000
# 4 0.000000 0.000000 0.000000 0.037542 0.000000 0.000000
# 5 0.000000 0.000000 0.000000 0.000000 0.097875 0.000000
# 6 0.000000 0.000000 0.000000 0.000000 0.000000 0.073673
#
#
# Mechanical properties :
#
#
# Convention : Reuss Voigt Hill
#
# Bulk Modulus (GPa) = 34.62279 46.30144 40.46212
# Shear Modulus (GPa) = 17.29391 23.24672 20.27031
#
# Velocity S-wave (km/s) = 2.93966 3.40825 3.18259
# Velocity P-wave (km/s) = 5.36869 6.21487 5.80721
#
# Compressibility (1/GPa) = 0.02888271
#
# Stress axis : x y z
#
# Youngs Moduli (GPa) = 119.83024 78.56030 35.00377
#
# Poissons Ratio (x) = 0.20115 0.07320
# Poissons Ratio (y) = 0.30683 0.20051
# Poissons Ratio (z) = 0.25057 0.45002
#
# Static dielectric constant tensor:
#      x y z
#    x 4.096840 0.000000 0.000000 
#    y 0.000000 3.627330 0.000000 
#    z 0.000000 0.000000 3.181300 
# 
# 
# High freq. dielectric constant tensor:
#      x y z
#    x 1.812520 0.000000 0.000000 
#    y 0.000000 1.771920 0.000000 
#    z 0.000000 0.000000 1.742250 
# 
# From -- ./inp_files/14401.got.cif
#   From: 2010.03.12/outbox.cif.g09.slc.cpg/sg64_8_cif.got.tgz:14401.got - 2010.04.10 20:19:32.
