data_PCOD8262767
_publ_section_title
;
Structure prediction by ZEFSAII (Michael W. Deem and Ramdas Pophale) SiO2 
 PCOD8262767
Probable space group: C M C A
;
_chemical_formula_sum "Si O2"
_cell_formula_units_Z 96
_cell_length_a 9.139876
_cell_length_b 24.983553
_cell_length_c 23.329519
_cell_angle_alpha 90.000000
_cell_angle_beta 90.000000
_cell_angle_gamma 90.000000
_cell_volume 5327.215794
_symmetry_space_group_name_H-M "C M C A"
_symmetry_group_IT_number 64
_symmetry_cell_setting 'orthorhombic'
loop_
_space_group_symop_operation_xyz
x,y,z
-x,1/2-y,1/2+z
x,-y,-z
-x,1/2+y,1/2-z
-x,-y,-z
x,1/2+y,1/2-z
-x,y,z
x,1/2-y,1/2+z
1/2+x,1/2+y,z
1/2-x,-y,1/2+z
1/2+x,1/2-y,-z
1/2-x,y,1/2-z
1/2-x,1/2-y,-z
1/2+x,y,1/2-z
1/2-x,1/2+y,z
1/2+x,-y,1/2+z
loop_
_atom_site_type_symbol
_atom_site_label
_atom_site_fract_x
_atom_site_fract_y
_atom_site_fract_z
Si Si1 0.670758 0.248114 0.308994
Si Si2 0.671814 0.060508 0.691577
Si Si3 0.328422 0.653174 0.106979
Si Si4 0.169890 0.146737 0.623930
Si Si5 0.330393 0.561999 0.192827
Si Si6 0.828160 0.193087 0.500359
O O1 0.500000 0.244778 0.296986
O O2 0.750000 0.236422 0.250000
O O3 0.717897 0.203478 0.354521
O O4 0.716700 0.305461 0.333796
O O5 0.500000 0.070140 0.698600
O O6 0.750000 0.078919 0.750000
O O7 0.733482 0.095160 0.639145
O O8 0.709797 0.998981 0.677501
O O9 0.500000 0.655051 0.091867
O O10 0.284109 0.598630 0.139352
O O11 0.235151 0.655029 0.049058
O O12 0.205735 0.163121 0.559364
O O13 0.000000 0.132495 0.631496
O O14 0.500000 0.569074 0.206216
O O15 0.250000 0.581662 0.250000
O O16 0.750000 0.250000 0.500000
O O17 0.000000 0.202645 0.491993
#
# Coordination Sequence:
#
# PCOD8262767 Si02
#       6
#    16  16  16  16  16  16
#     4  10  20  33  50  76 108 137 171 217 269 321
#     4  10  20  35  56  83 110 145 184 222 272 325
#     4  10  20  37  56  78 110 144 179 225 271 319
#     4  10  21  37  54  77 108 142 181 225 269 320
#     4   9  19  35  57  82 112 145 182 225 272 323
#     4  11  22  38  58  80 108 144 185 225 271 324
#
# _framework density 18.020671
#
# number of rings (size 3 to 8) (size 9 to 14) (size 15 to 20)
#    0.000    2.000    1.667    2.000    0.000    5.333 
#    0.000    0.833    0.000    5.000    0.000    0.000 
#    0.000    0.000    0.000    0.000    0.000    0.000 
#
# Total GULP energy -595404.752521 kJ/mol
# GULP energy per Si atom -12404.265678 kJ/mol
# Density = 1.797965 g / cm^3
# Si number density = 18.020671 Si / 1000 Ang^3
#
#
#
# Elastic Constant Matrix: (Units=GPa)
#
#
# Indices 1 2 3 4 5 6 
#
# 1 73.5962 48.0609 61.3134 0.0000 0.0000 0.0000
# 2 48.0609 99.9878 55.6266 0.0000 0.0000 0.0000
# 3 61.3134 55.6266 119.1264 0.0000 0.0000 0.0000
# 4 0.0000 0.0000 0.0000 26.1132 0.0000 0.0000
# 5 0.0000 0.0000 0.0000 0.0000 37.8527 0.0000
# 6 0.0000 0.0000 0.0000 0.0000 0.0000 27.2223
#
#
#
# Elastic Compliance Matrix: (Units=1/GPa)
#
#
# Indices 1 2 3 4 5 6 
#
# 1 0.027073 -0.007107 -0.010615 0.000000 0.000000 0.000000
# 2 -0.007107 0.015377 -0.003522 0.000000 0.000000 0.000000
# 3 -0.010615 -0.003522 0.015503 0.000000 0.000000 0.000000
# 4 0.000000 0.000000 0.000000 0.038295 0.000000 0.000000
# 5 0.000000 0.000000 0.000000 0.000000 0.026418 0.000000
# 6 0.000000 0.000000 0.000000 0.000000 0.000000 0.036735
#
#
# Mechanical properties :
#
#
# Convention : Reuss Voigt Hill
#
# Bulk Modulus (GPa) = 64.67176 69.19024 66.93100
# Shear Modulus (GPa) = 24.14947 26.75162 25.45054
#
# Velocity S-wave (km/s) = 3.66471 3.85710 3.76213
# Velocity P-wave (km/s) = 7.33977 7.63640 7.48955
#
# Compressibility (1/GPa) = 0.01546270
#
# Stress axis : x y z
#
# Youngs Moduli (GPa) = 36.93774 65.03205 64.50450
#
# Poissons Ratio (x) = 0.46220 0.68473
# Poissons Ratio (y) = 0.26253 0.22720
# Poissons Ratio (z) = 0.39210 0.22906
#
# Static dielectric constant tensor:
#      x y z
#    x 3.297130 0.000000 0.000000 
#    y 0.000000 3.419360 0.000000 
#    z 0.000000 0.000000 3.635390 
# 
# 
# High freq. dielectric constant tensor:
#      x y z
#    x 1.698760 0.000000 0.000000 
#    y 0.000000 1.700200 0.000000 
#    z 0.000000 0.000000 1.697650 
# 
# From -- ./inp_files/36990.got.cif
#   From: 2010.03.12/outbox.cif.g09.slc.cpg/sg64_19_cif.got.tgz:36990.got - 2010.04.10 20:19:32.
