data_PCOD8262193
_publ_section_title
;
Structure prediction by ZEFSAII (Michael W. Deem and Ramdas Pophale) SiO2 
 PCOD8262193
Probable space group: C M C A
;
_chemical_formula_sum "Si O2"
_cell_formula_units_Z 128
_cell_length_a 9.631604
_cell_length_b 25.038779
_cell_length_c 28.536415
_cell_angle_alpha 90.000000
_cell_angle_beta 90.000000
_cell_angle_gamma 90.000000
_cell_volume 6881.944686
_symmetry_space_group_name_H-M "C M C A"
_symmetry_group_IT_number 64
_symmetry_cell_setting 'orthorhombic'
loop_
_space_group_symop_operation_xyz
x,y,z
-x,1/2-y,1/2+z
x,-y,-z
-x,1/2+y,1/2-z
-x,-y,-z
x,1/2+y,1/2-z
-x,y,z
x,1/2-y,1/2+z
1/2+x,1/2+y,z
1/2-x,-y,1/2+z
1/2+x,1/2-y,-z
1/2-x,y,1/2-z
1/2-x,1/2-y,-z
1/2+x,y,1/2-z
1/2-x,1/2+y,z
1/2+x,-y,1/2+z
loop_
_atom_site_type_symbol
_atom_site_label
_atom_site_fract_x
_atom_site_fract_y
_atom_site_fract_z
Si Si1 0.337498 0.914070 0.623238
Si Si2 0.338141 0.004467 0.294015
Si Si3 0.342325 0.755876 0.455436
Si Si4 0.662886 0.719392 0.794739
Si Si5 0.664805 0.106866 0.665372
Si Si6 0.165181 0.943594 0.980452
Si Si7 0.159322 0.812302 0.632384
Si Si8 0.838105 0.125581 0.935440
O O1 0.500000 0.900256 0.620845
O O2 0.279358 0.931642 0.572070
O O3 0.258077 0.862181 0.642303
O O4 0.307213 0.961128 0.659838
O O5 0.500000 0.006981 0.280702
O O6 0.250000 0.026271 0.250000
O O7 0.288282 0.943955 0.304344
O O8 0.500000 0.755302 0.472731
O O9 0.250000 0.750000 0.500000
O O10 0.311949 0.707804 0.420144
O O11 0.308003 0.811808 0.430803
O O12 0.500000 0.717087 0.782658
O O13 0.750000 0.737200 0.750000
O O14 0.719318 0.661561 0.811460
O O15 0.695181 0.763645 0.833523
O O16 0.500000 0.110091 0.661608
O O17 0.724340 0.100204 0.612309
O O18 0.000000 0.943696 0.977933
O O19 0.225873 0.899503 0.016944
O O20 0.220351 0.000000 0.000000
O O21 0.000000 0.830255 0.638778
O O22 0.000000 0.112464 0.937765
#
# Coordination Sequence:
#
# PCOD8262193 Si02
#       8
#    16  16  16  16  16  16  16  16
#     4  10  21  36  54  80 110 139 178 227 269 312
#     4  10  21  36  56  80 106 136 175 224 277 328
#     4  10  19  32  51  76 105 140 178 215 260 314
#     4  10  20  35  55  79 106 139 181 225 271 323
#     4   9  16  31  54  79 107 137 172 220 272 323
#     4   9  16  27  47  78 109 135 170 216 265 311
#     4  10  21  37  54  75 107 146 183 217 264 326
#     4   9  15  26  48  74 102 136 170 208 258 313
#
# _framework density 18.599394
#
# number of rings (size 3 to 8) (size 9 to 14) (size 15 to 20)
#    0.000    2.375    1.250    1.875    0.000    6.000 
#    0.000    2.500    0.000    1.125    0.000    0.000 
#    0.000    0.000    0.000    0.000    0.000    0.000 
#
# Total GULP energy -793448.343624 kJ/mol
# GULP energy per Si atom -12397.630369 kJ/mol
# Density = 1.855706 g / cm^3
# Si number density = 18.599394 Si / 1000 Ang^3
#
#
#
# Elastic Constant Matrix: (Units=GPa)
#
#
# Indices 1 2 3 4 5 6 
#
# 1 40.3023 39.8802 41.1194 0.0000 0.0000 0.0000
# 2 39.8802 103.9792 35.0423 0.0000 0.0000 0.0000
# 3 41.1194 35.0423 116.3074 0.0000 0.0000 0.0000
# 4 0.0000 0.0000 0.0000 25.4914 0.0000 0.0000
# 5 0.0000 0.0000 0.0000 0.0000 26.8024 0.0000
# 6 0.0000 0.0000 0.0000 0.0000 0.0000 23.1957
#
#
#
# Elastic Compliance Matrix: (Units=1/GPa)
#
#
# Indices 1 2 3 4 5 6 
#
# 1 0.056577 -0.016649 -0.014986 0.000000 0.000000 0.000000
# 2 -0.016649 0.015604 0.001185 0.000000 0.000000 0.000000
# 3 -0.014986 0.001185 0.013539 0.000000 0.000000 0.000000
# 4 0.000000 0.000000 0.000000 0.039229 0.000000 0.000000
# 5 0.000000 0.000000 0.000000 0.000000 0.037310 0.000000
# 6 0.000000 0.000000 0.000000 0.000000 0.000000 0.043111
#
#
# Mechanical properties :
#
#
# Convention : Reuss Voigt Hill
#
# Bulk Modulus (GPa) = 40.29132 54.74140 47.51636
# Shear Modulus (GPa) = 18.21204 24.73437 21.47321
#
# Velocity S-wave (km/s) = 3.13257 3.65066 3.40150
# Velocity P-wave (km/s) = 5.89862 6.87499 6.40544
#
# Compressibility (1/GPa) = 0.02481924
#
# Stress axis : x y z
#
# Youngs Moduli (GPa) = 17.67502 64.08802 73.86020
#
# Poissons Ratio (x) = 1.06700 1.10688
# Poissons Ratio (y) = 0.29427 -0.08752
# Poissons Ratio (z) = 0.26488 -0.07594
#
# Static dielectric constant tensor:
#      x y z
#    x 3.006990 0.000000 0.000000 
#    y 0.000000 3.490320 0.000000 
#    z 0.000000 0.000000 3.555360 
# 
# 
# High freq. dielectric constant tensor:
#      x y z
#    x 1.669300 0.000000 0.000000 
#    y 0.000000 1.729650 0.000000 
#    z 0.000000 0.000000 1.736320 
# 
# From -- ./inp_files/44591.got.cif
#   From: 2010.03.12/outbox.cif.g09.slc.cpg/sg64_23_cif.got.tgz:44591.got - 2010.04.10 20:19:32.
