data_PCOD8262335
_publ_section_title
;
Structure prediction by ZEFSAII (Michael W. Deem and Ramdas Pophale) SiO2 
 PCOD8262335
Probable space group: C M C A
;
_chemical_formula_sum "Si O2"
_cell_formula_units_Z 112
_cell_length_a 16.626040
_cell_length_b 12.683967
_cell_length_c 24.821723
_cell_angle_alpha 90.000000
_cell_angle_beta 90.000000
_cell_angle_gamma 90.000000
_cell_volume 5234.507775
_symmetry_space_group_name_H-M "C M C A"
_symmetry_group_IT_number 64
_symmetry_cell_setting 'orthorhombic'
loop_
_space_group_symop_operation_xyz
x,y,z
-x,1/2-y,1/2+z
x,-y,-z
-x,1/2+y,1/2-z
-x,-y,-z
x,1/2+y,1/2-z
-x,y,z
x,1/2-y,1/2+z
1/2+x,1/2+y,z
1/2-x,-y,1/2+z
1/2+x,1/2-y,-z
1/2-x,y,1/2-z
1/2-x,1/2-y,-z
1/2+x,y,1/2-z
1/2-x,1/2+y,z
1/2+x,-y,1/2+z
loop_
_atom_site_type_symbol
_atom_site_label
_atom_site_fract_x
_atom_site_fract_y
_atom_site_fract_z
Si Si1 0.143746 0.183429 0.008609
Si Si2 0.093902 0.955924 0.642824
Si Si3 0.088584 0.365221 0.617794
Si Si4 0.903829 0.179220 0.688911
Si Si5 0.096169 0.093495 0.897503
Si Si6 0.906899 0.242149 0.804520
Si Si7 0.184487 0.103922 0.464877
O O1 0.134491 0.110900 0.956127
O O2 0.130825 0.305641 0.992853
O O3 0.078324 0.161092 0.054420
O O4 0.227393 0.155925 0.038898
O O5 0.105789 0.867269 0.688866
O O6 0.149296 0.924461 0.593008
O O7 0.000000 0.961451 0.624979
O O8 0.125349 0.065937 0.667354
O O9 0.133043 0.271428 0.650484
O O10 0.128962 0.480657 0.624114
O O11 0.000000 0.374182 0.643066
O O12 0.868408 0.201309 0.748611
O O13 0.000000 0.181073 0.688487
O O14 0.129951 0.180783 0.856022
O O15 0.000000 0.096172 0.903791
O O16 0.000000 0.212251 0.802967
O O17 0.183246 0.000000 0.500000
#
# Coordination Sequence:
#
# PCOD8262335 Si02
#       7
#    16  16  16  16  16  16  16
#     4  11  22  37  55  82 111 150 192 233 286 345
#     4  10  20  36  57  84 117 150 188 234 283 343
#     4  10  20  33  54  83 113 145 186 237 282 329
#     4   9  19  33  54  86 117 148 187 233 287 338
#     4  10  19  33  55  83 114 147 189 238 284 336
#     4   9  18  32  53  82 112 145 185 231 282 335
#     4  11  23  37  56  81 111 153 190 230 285 344
#
# _framework density 21.396473
#
# number of rings (size 3 to 8) (size 9 to 14) (size 15 to 20)
#    0.000    2.000    1.429    2.571    2.000    2.000 
#    0.000    0.000    0.000    0.857    0.000    0.000 
#    0.000    0.000    0.000    0.000    0.000    0.000 
#
# Total GULP energy -694142.439668 kJ/mol
# GULP energy per Si atom -12395.400708 kJ/mol
# Density = 2.134777 g / cm^3
# Si number density = 21.396473 Si / 1000 Ang^3
#
#
#
# Elastic Constant Matrix: (Units=GPa)
#
#
# Indices 1 2 3 4 5 6 
#
# 1 27.0616 14.6100 20.1602 0.0000 0.0000 0.0000
# 2 14.6100 163.7608 63.9506 0.0000 0.0000 0.0000
# 3 20.1602 63.9506 148.0990 0.0000 0.0000 0.0000
# 4 0.0000 0.0000 0.0000 40.4675 0.0000 0.0000
# 5 0.0000 0.0000 0.0000 0.0000 14.3040 0.0000
# 6 0.0000 0.0000 0.0000 0.0000 0.0000 21.2280
#
#
#
# Elastic Compliance Matrix: (Units=1/GPa)
#
#
# Indices 1 2 3 4 5 6 
#
# 1 0.041561 -0.001802 -0.004879 0.000000 0.000000 0.000000
# 2 -0.001802 0.007423 -0.002960 0.000000 0.000000 0.000000
# 3 -0.004879 -0.002960 0.008695 0.000000 0.000000 0.000000
# 4 0.000000 0.000000 0.000000 0.024711 0.000000 0.000000
# 5 0.000000 0.000000 0.000000 0.000000 0.069911 0.000000
# 6 0.000000 0.000000 0.000000 0.000000 0.000000 0.047107
#
#
# Mechanical properties :
#
#
# Convention : Reuss Voigt Hill
#
# Bulk Modulus (GPa) = 26.04495 59.59589 42.82042
# Shear Modulus (GPa) = 21.59924 31.21329 26.40626
#
# Velocity S-wave (km/s) = 3.18067 3.82357 3.51685
# Velocity P-wave (km/s) = 5.06832 6.88524 6.04543
#
# Compressibility (1/GPa) = 0.03839516
#
# Stress axis : x y z
#
# Youngs Moduli (GPa) = 24.06113 134.71262 115.01388
#
# Poissons Ratio (x) = 0.24282 0.56118
# Poissons Ratio (y) = 0.04337 0.34045
# Poissons Ratio (z) = 0.11740 0.39876
#
# Static dielectric constant tensor:
#      x y z
#    x 3.411930 0.000000 0.000000 
#    y 0.000000 4.250130 0.000000 
#    z 0.000000 0.000000 3.915360 
# 
# 
# High freq. dielectric constant tensor:
#      x y z
#    x 1.788310 0.000000 0.000000 
#    y 0.000000 1.863920 0.000000 
#    z 0.000000 0.000000 1.839090 
# 
# From -- ./inp_files/46337.got.cif
#   From: 2010.03.12/outbox.cif.g09.slc.cpg/sg64_24_cif.got.tgz:46337.got - 2010.04.10 20:19:32.
