data_PCOD8262870
_publ_section_title
;
Structure prediction by ZEFSAII (Michael W. Deem and Ramdas Pophale) SiO2 
 PCOD8262870
Probable space group: C M C A
;
_chemical_formula_sum "Si O2"
_cell_formula_units_Z 104
_cell_length_a 28.769489
_cell_length_b 20.793822
_cell_length_c 9.315318
_cell_angle_alpha 90.000000
_cell_angle_beta 90.000000
_cell_angle_gamma 90.000000
_cell_volume 5572.680641
_symmetry_space_group_name_H-M "C M C A"
_symmetry_group_IT_number 64
_symmetry_cell_setting 'orthorhombic'
loop_
_space_group_symop_operation_xyz
x,y,z
-x,1/2-y,1/2+z
x,-y,-z
-x,1/2+y,1/2-z
-x,-y,-z
x,1/2+y,1/2-z
-x,y,z
x,1/2-y,1/2+z
1/2+x,1/2+y,z
1/2-x,-y,1/2+z
1/2+x,1/2-y,-z
1/2-x,y,1/2-z
1/2-x,1/2-y,-z
1/2+x,y,1/2-z
1/2-x,1/2+y,z
1/2+x,-y,1/2+z
loop_
_atom_site_type_symbol
_atom_site_label
_atom_site_fract_x
_atom_site_fract_y
_atom_site_fract_z
Si Si1 0.250000 0.735843 0.750000
Si Si2 0.213210 0.550280 0.380591
Si Si3 0.392109 0.552152 0.115462
Si Si4 0.901427 0.302156 0.577966
Si Si5 0.299855 0.189070 0.496230
Si Si6 0.053903 0.799891 0.619547
Si Si7 0.554336 0.556253 0.401495
O O1 0.266129 0.777297 0.616027
O O2 0.210371 0.694751 0.668097
O O3 0.230566 0.500000 0.500000
O O4 0.250000 0.552205 0.250000
O O5 0.160398 0.537992 0.326405
O O6 0.208206 0.615237 0.467301
O O7 0.401814 0.621799 0.043196
O O8 0.426636 0.543721 0.245155
O O9 0.406755 0.500000 0.000000
O O10 0.849708 0.279609 0.538510
O O11 0.912843 0.290333 0.744162
O O12 0.937441 0.259308 0.487492
O O13 0.065680 0.869977 0.547967
O O14 0.000000 0.798578 0.667470
O O15 0.576656 0.500000 0.500000
O O16 0.500000 0.545727 0.394149
#
# Coordination Sequence:
#
# PCOD8262870 Si02
#       7
#     8  16  16  16  16  16  16
#     4  10  20  34  54  78 106 140 176 228 262 330
#     4  10  21  37  56  79 110 145 185 232 278 329
#     4   9  20  37  55  78 109 143 185 229 273 334
#     4  10  20  35  55  77 109 144 178 228 274 324
#     4  10  20  36  55  79 108 141 183 223 278 326
#     4  10  20  35  55  81 110 144 183 225 273 330
#     4   9  19  36  56  80 111 143 180 226 274 327
#
# _framework density 18.662474
#
# number of rings (size 3 to 8) (size 9 to 14) (size 15 to 20)
#    0.000    2.308    0.769    1.385    1.077    2.769 
#    0.000    3.077    0.000    0.000    0.000    0.000 
#    0.000    0.000    0.000    0.000    0.000    0.000 
#
# Total GULP energy -644199.297988 kJ/mol
# GULP energy per Si atom -12388.448038 kJ/mol
# Density = 1.862000 g / cm^3
# Si number density = 18.662474 Si / 1000 Ang^3
#
#
#
# Elastic Constant Matrix: (Units=GPa)
#
#
# Indices 1 2 3 4 5 6 
#
# 1 46.6283 33.6041 28.0722 0.0000 0.0000 0.0000
# 2 33.6041 89.7036 42.7993 0.0000 0.0000 0.0000
# 3 28.0722 42.7993 75.1462 0.0000 0.0000 0.0000
# 4 0.0000 0.0000 0.0000 36.3237 0.0000 0.0000
# 5 0.0000 0.0000 0.0000 0.0000 94.5791 0.0000
# 6 0.0000 0.0000 0.0000 0.0000 0.0000 22.2762
#
#
#
# Elastic Compliance Matrix: (Units=1/GPa)
#
#
# Indices 1 2 3 4 5 6 
#
# 1 0.031856 -0.008590 -0.007008 0.000000 0.000000 0.000000
# 2 -0.008590 0.017624 -0.006829 0.000000 0.000000 0.000000
# 3 -0.007008 -0.006829 0.019815 0.000000 0.000000 0.000000
# 4 0.000000 0.000000 0.000000 0.027530 0.000000 0.000000
# 5 0.000000 0.000000 0.000000 0.000000 0.010573 0.000000
# 6 0.000000 0.000000 0.000000 0.000000 0.000000 0.044891
#
#
# Mechanical properties :
#
#
# Convention : Reuss Voigt Hill
#
# Bulk Modulus (GPa) = 40.91460 46.71435 43.81447
# Shear Modulus (GPa) = 24.35592 37.76930 31.06261
#
# Velocity S-wave (km/s) = 3.61650 4.50356 4.08418
# Velocity P-wave (km/s) = 6.27772 7.21999 6.76528
#
# Compressibility (1/GPa) = 0.02444115
#
# Stress axis : x y z
#
# Youngs Moduli (GPa) = 31.39134 56.74129 50.46790
#
# Poissons Ratio (x) = 0.48741 0.35367
# Poissons Ratio (y) = 0.26965 0.34463
# Poissons Ratio (z) = 0.21999 0.38747
#
# Static dielectric constant tensor:
#      x y z
#    x 3.659840 0.000000 0.000000 
#    y 0.000000 3.768070 0.000000 
#    z 0.000000 0.000000 3.705790 
# 
# 
# High freq. dielectric constant tensor:
#      x y z
#    x 1.725660 0.000000 0.000000 
#    y 0.000000 1.735310 0.000000 
#    z 0.000000 0.000000 1.714010 
# 
# From -- ./inp_files/11207.got.cif
#   From: 2010.03.12/outbox.cif.g09.slc.cpg/sg64_6_cif.got.tgz:11207.got - 2010.04.10 20:19:32.
