data_PCOD8262931
_publ_section_title
;
Structure prediction by ZEFSAII (Michael W. Deem and Ramdas Pophale) SiO2 
 PCOD8262931
Probable space group: C M C A
;
_chemical_formula_sum "Si O2"
_cell_formula_units_Z 104
_cell_length_a 16.760706
_cell_length_b 14.603709
_cell_length_c 21.964267
_cell_angle_alpha 90.000000
_cell_angle_beta 90.000000
_cell_angle_gamma 90.000000
_cell_volume 5376.160095
_symmetry_space_group_name_H-M "C M C A"
_symmetry_group_IT_number 64
_symmetry_cell_setting 'orthorhombic'
loop_
_space_group_symop_operation_xyz
x,y,z
-x,1/2-y,1/2+z
x,-y,-z
-x,1/2+y,1/2-z
-x,-y,-z
x,1/2+y,1/2-z
-x,y,z
x,1/2-y,1/2+z
1/2+x,1/2+y,z
1/2-x,-y,1/2+z
1/2+x,1/2-y,-z
1/2-x,y,1/2-z
1/2-x,1/2-y,-z
1/2+x,y,1/2-z
1/2-x,1/2+y,z
1/2+x,-y,1/2+z
loop_
_atom_site_type_symbol
_atom_site_label
_atom_site_fract_x
_atom_site_fract_y
_atom_site_fract_z
Si Si1 0.909979 0.229644 0.140281
Si Si2 0.090721 0.422653 0.084162
Si Si3 0.905064 0.550880 0.701227
Si Si4 0.189837 0.561635 0.384801
Si Si5 0.713865 0.500000 0.500000
Si Si6 0.348609 0.557731 0.318533
Si Si7 0.590858 0.745050 0.281806
O O1 0.889169 0.333129 0.123100
O O2 0.847693 0.162200 0.108279
O O3 0.900626 0.218273 0.211866
O O4 0.000000 0.204715 0.119906
O O5 0.101078 0.510303 0.127683
O O6 0.000000 0.421170 0.058996
O O7 0.154086 0.424391 0.028842
O O8 0.879146 0.509830 0.635666
O O9 0.869209 0.488591 0.754662
O O10 0.871535 0.654662 0.705781
O O11 0.000000 0.548527 0.707712
O O12 0.228084 0.542269 0.449946
O O13 0.254841 0.551236 0.331422
O O14 0.366496 0.666189 0.320323
O O15 0.500000 0.747725 0.302949
#
# Coordination Sequence:
#
# PCOD8262931 Si02
#       7
#    16  16  16  16   8  16  16
#     4  10  20  36  61  89 117 153 196 233 288 359
#     4  10  20  39  65  89 113 155 198 243 291 341
#     4  11  21  37  59  86 120 153 191 238 289 354
#     4  11  24  40  57  86 118 161 194 240 297 337
#     4  10  25  42  57  78 120 156 204 252 283 338
#     4  11  21  35  58  91 124 148 184 237 296 356
#     4  10  20  34  57  90 123 152 182 229 289 356
#
# _framework density 19.344663000000001
#
# number of rings (size 3 to 8) (size 9 to 14) (size 15 to 20)
#    0.000    1.538    3.077    2.538    0.000    3.077 
#    2.769    3.077    0.000    7.385    0.000    0.000 
#    0.000    0.000    0.000    0.000    0.000    0.000 
#
# Total GULP energy -644772.714508 kJ/mol
# GULP energy per Si atom -12399.475279 kJ/mol
# Density = 1.930063 g / cm^3
# Si number density = 19.344663 Si / 1000 Ang^3
#
#
#
# Elastic Constant Matrix: (Units=GPa)
#
#
# Indices 1 2 3 4 5 6 
#
# 1 80.8990 41.8621 40.6219 0.0000 0.0000 0.0000
# 2 41.8621 129.4777 35.6972 0.0000 0.0000 0.0000
# 3 40.6219 35.6972 82.2252 0.0000 0.0000 0.0000
# 4 0.0000 0.0000 0.0000 17.4378 0.0000 0.0000
# 5 0.0000 0.0000 0.0000 0.0000 25.4244 0.0000
# 6 0.0000 0.0000 0.0000 0.0000 0.0000 24.9836
#
#
#
# Elastic Compliance Matrix: (Units=1/GPa)
#
#
# Indices 1 2 3 4 5 6 
#
# 1 0.017959 -0.003817 -0.007215 0.000000 0.000000 0.000000
# 2 -0.003817 0.009585 -0.002275 0.000000 0.000000 0.000000
# 3 -0.007215 -0.002275 0.016714 0.000000 0.000000 0.000000
# 4 0.000000 0.000000 0.000000 0.057347 0.000000 0.000000
# 5 0.000000 0.000000 0.000000 0.000000 0.039332 0.000000
# 6 0.000000 0.000000 0.000000 0.000000 0.000000 0.040026
#
#
# Mechanical properties :
#
#
# Convention : Reuss Voigt Hill
#
# Bulk Modulus (GPa) = 56.68096 58.77380 57.72738
# Shear Modulus (GPa) = 23.42358 25.19721 24.31040
#
# Velocity S-wave (km/s) = 3.48351 3.61299 3.54884
# Velocity P-wave (km/s) = 6.74863 6.91761 6.83364
#
# Compressibility (1/GPa) = 0.01764261
#
# Stress axis : x y z
#
# Youngs Moduli (GPa) = 55.68121 104.33161 59.82971
#
# Poissons Ratio (x) = 0.39826 0.43169
# Poissons Ratio (y) = 0.21255 0.13613
# Poissons Ratio (z) = 0.40176 0.23739
#
# Static dielectric constant tensor:
#      x y z
#    x 3.639970 0.000000 0.000000 
#    y 0.000000 3.689050 0.000000 
#    z 0.000000 0.000000 3.352540 
# 
# 
# High freq. dielectric constant tensor:
#      x y z
#    x 1.761990 0.000000 0.000000 
#    y 0.000000 1.760460 0.000000 
#    z 0.000000 0.000000 1.727920 
# 
# From -- ./inp_files/40261.got.cif
#   From: 2010.03.12/outbox.cif.g09.slc.cpg/sg64_21_cif.got.tgz:40261.got - 2010.04.10 20:19:32.
