data_PCOD8262949
_publ_section_title
;
Structure prediction by ZEFSAII (Michael W. Deem and Ramdas Pophale) SiO2 
 PCOD8262949
Probable space group: C M C A
;
_chemical_formula_sum "Si O2"
_cell_formula_units_Z 72
_cell_length_a 10.873215
_cell_length_b 13.999917
_cell_length_c 22.497640
_cell_angle_alpha 90.000000
_cell_angle_beta 90.000000
_cell_angle_gamma 90.000000
_cell_volume 3424.683170
_symmetry_space_group_name_H-M "C M C A"
_symmetry_group_IT_number 64
_symmetry_cell_setting 'orthorhombic'
loop_
_space_group_symop_operation_xyz
x,y,z
-x,1/2-y,1/2+z
x,-y,-z
-x,1/2+y,1/2-z
-x,-y,-z
x,1/2+y,1/2-z
-x,y,z
x,1/2-y,1/2+z
1/2+x,1/2+y,z
1/2-x,-y,1/2+z
1/2+x,1/2-y,-z
1/2-x,y,1/2-z
1/2-x,1/2-y,-z
1/2+x,y,1/2-z
1/2-x,1/2+y,z
1/2+x,-y,1/2+z
loop_
_atom_site_type_symbol
_atom_site_label
_atom_site_fract_x
_atom_site_fract_y
_atom_site_fract_z
Si Si1 0.642294 0.389319 0.999432
Si Si2 0.264651 0.609932 0.321075
Si Si3 0.744957 0.240622 0.910601
Si Si4 0.500000 0.996308 0.809723
Si Si5 0.500000 0.696990 0.645605
Si Si6 0.000000 0.595115 0.317552
O O1 0.500000 0.380843 0.980085
O O2 0.661895 0.339215 0.064031
O O3 0.683197 0.500000 0.000000
O O4 0.729299 0.331129 0.954721
O O5 0.250000 0.620329 0.250000
O O6 0.295417 0.714092 0.348789
O O7 0.374451 0.539935 0.340937
O O8 0.132098 0.570537 0.348786
O O9 0.615219 0.189976 0.898584
O O10 0.500000 0.956840 0.744242
O O11 0.500000 0.109678 0.808586
O O12 0.500000 0.789591 0.688126
#
# Coordination Sequence:
#
# PCOD8262949 Si02
#       6
#    16  16  16   8   8   8
#     4  10  22  40  62  86 117 159 206 252 305 366
#     4   9  19  37  62  89 127 157 196 249 301 365
#     4  10  21  39  62  87 122 159 197 253 312 356
#     4  10  20  34  61  93 114 158 211 244 286 362
#     4  10  20  38  63  84 123 162 191 252 315 353
#     4   8  18  40  58  80 127 163 191 240 303 361
#
# _framework density 21.023842999999999
#
# number of rings (size 3 to 8) (size 9 to 14) (size 15 to 20)
#    0.000    2.444    1.111    0.000    4.667    0.000 
#    0.000   27.222    0.000    0.000    0.000    0.000 
#    0.000    0.000    0.000    0.000    0.000    0.000 
#
# Total GULP energy -445976.335352 kJ/mol
# GULP energy per Si atom -12388.231538 kJ/mol
# Density = 2.097599 g / cm^3
# Si number density = 21.023843 Si / 1000 Ang^3
#
#
#
# Elastic Constant Matrix: (Units=GPa)
#
#
# Indices 1 2 3 4 5 6 
#
# 1 115.5980 50.8587 4.9168 0.0000 0.0000 0.0000
# 2 50.8587 137.2566 31.0155 0.0000 0.0000 0.0000
# 3 4.9168 31.0155 42.7266 0.0000 0.0000 0.0000
# 4 0.0000 0.0000 0.0000 16.3225 0.0000 0.0000
# 5 0.0000 0.0000 0.0000 0.0000 22.7711 0.0000
# 6 0.0000 0.0000 0.0000 0.0000 0.0000 19.5239
#
#
#
# Elastic Compliance Matrix: (Units=1/GPa)
#
#
# Indices 1 2 3 4 5 6 
#
# 1 0.010467 -0.004314 0.001927 0.000000 0.000000 0.000000
# 2 -0.004314 0.010493 -0.007121 0.000000 0.000000 0.000000
# 3 0.001927 -0.007121 0.028352 0.000000 0.000000 0.000000
# 4 0.000000 0.000000 0.000000 0.061265 0.000000 0.000000
# 5 0.000000 0.000000 0.000000 0.000000 0.043915 0.000000
# 6 0.000000 0.000000 0.000000 0.000000 0.000000 0.051219
#
#
# Mechanical properties :
#
#
# Convention : Reuss Voigt Hill
#
# Bulk Modulus (GPa) = 33.00694 52.12922 42.56808
# Shear Modulus (GPa) = 21.29248 25.64284 23.46766
#
# Velocity S-wave (km/s) = 3.18587 3.49621 3.34464
# Velocity P-wave (km/s) = 5.40989 6.41460 5.93355
#
# Compressibility (1/GPa) = 0.03029666
#
# Stress axis : x y z
#
# Youngs Moduli (GPa) = 95.54243 95.30159 35.27119
#
# Poissons Ratio (x) = 0.41110 -0.06796
# Poissons Ratio (y) = 0.41214 0.25115
# Poissons Ratio (z) = -0.18410 0.67860
#
# Static dielectric constant tensor:
#      x y z
#    x 4.551580 0.000000 0.000000 
#    y 0.000000 3.647420 0.000000 
#    z 0.000000 0.000000 3.834080 
# 
# 
# High freq. dielectric constant tensor:
#      x y z
#    x 1.831910 0.000000 0.000000 
#    y 0.000000 1.808270 0.000000 
#    z 0.000000 0.000000 1.806960 
# 
# From -- ./inp_files/43874.got.cif
#   From: 2010.03.12/outbox.cif.g09.slc.cpg/sg64_22_cif.got.tgz:43874.got - 2010.04.10 20:19:32.
