data_PCOD8262428
_publ_section_title
;
Structure prediction by ZEFSAII (Michael W. Deem and Ramdas Pophale) SiO2 
 PCOD8262428
Probable space group: C M C A
;
_chemical_formula_sum "Si O2"
_cell_formula_units_Z 80
_cell_length_a 17.356660
_cell_length_b 18.533055
_cell_length_c 13.620093
_cell_angle_alpha 90.000000
_cell_angle_beta 90.000000
_cell_angle_gamma 90.000000
_cell_volume 4381.201662
_symmetry_space_group_name_H-M "C M C A"
_symmetry_group_IT_number 64
_symmetry_cell_setting 'orthorhombic'
loop_
_space_group_symop_operation_xyz
x,y,z
-x,1/2-y,1/2+z
x,-y,-z
-x,1/2+y,1/2-z
-x,-y,-z
x,1/2+y,1/2-z
-x,y,z
x,1/2-y,1/2+z
1/2+x,1/2+y,z
1/2-x,-y,1/2+z
1/2+x,1/2-y,-z
1/2-x,y,1/2-z
1/2-x,1/2-y,-z
1/2+x,y,1/2-z
1/2-x,1/2+y,z
1/2+x,-y,1/2+z
loop_
_atom_site_type_symbol
_atom_site_label
_atom_site_fract_x
_atom_site_fract_y
_atom_site_fract_z
Si Si1 0.909349 0.505856 0.885005
Si Si2 0.589263 0.274468 0.882141
Si Si3 0.661411 0.641287 0.723037
Si Si4 0.909340 0.787448 0.101119
Si Si5 0.411292 0.143069 0.194577
O O1 0.863571 0.570364 0.834704
O O2 0.874728 0.433201 0.835410
O O3 0.000000 0.517402 0.865690
O O4 0.891312 0.500000 0.000000
O O5 0.500000 0.248114 0.882370
O O6 0.642220 0.208659 0.847313
O O7 0.599524 0.343092 0.810717
O O8 0.615942 0.301375 0.989209
O O9 0.750000 0.638256 0.750000
O O10 0.618743 0.648529 0.828026
O O11 0.873733 0.710322 0.135521
O O12 0.000000 0.784203 0.112878
O O13 0.500000 0.138296 0.163671
#
# Coordination Sequence:
#
# PCOD8262428 Si02
#       5
#    16  16  16  16  16
#     4  10  19  34  56  76  97 133 182 228 260 296
#     4   9  17  33  56  77  98 130 174 218 257 306
#     4  11  22  34  49  77 114 142 168 208 265 324
#     4   9  17  33  57  79  99 130 175 223 263 304
#     4   8  15  28  49  76  97 118 163 219 261 298
#
# _framework density 18.259830999999998
#
# number of rings (size 3 to 8) (size 9 to 14) (size 15 to 20)
#    0.000    2.600    0.000    4.200    0.000    4.000 
#    0.000    7.000    0.000    4.800    0.000    0.000 
#    0.000    0.000    0.000    0.000    0.000    0.000 
#
# Total GULP energy -495807.582700 kJ/mol
# GULP energy per Si atom -12395.189568 kJ/mol
# Density = 1.821827 g / cm^3
# Si number density = 18.259831 Si / 1000 Ang^3
#
#
#
# Elastic Constant Matrix: (Units=GPa)
#
#
# Indices 1 2 3 4 5 6 
#
# 1 56.3294 37.8444 46.1373 0.0000 0.0000 0.0000
# 2 37.8444 117.7225 68.6035 0.0000 0.0000 0.0000
# 3 46.1373 68.6035 167.1324 0.0000 0.0000 0.0000
# 4 0.0000 0.0000 0.0000 30.5078 0.0000 0.0000
# 5 0.0000 0.0000 0.0000 0.0000 17.7346 0.0000
# 6 0.0000 0.0000 0.0000 0.0000 0.0000 10.2649
#
#
#
# Elastic Compliance Matrix: (Units=1/GPa)
#
#
# Indices 1 2 3 4 5 6 
#
# 1 0.025251 -0.005330 -0.004783 0.000000 0.000000 0.000000
# 2 -0.005330 0.012291 -0.003574 0.000000 0.000000 0.000000
# 3 -0.004783 -0.003574 0.008770 0.000000 0.000000 0.000000
# 4 0.000000 0.000000 0.000000 0.032779 0.000000 0.000000
# 5 0.000000 0.000000 0.000000 0.000000 0.056387 0.000000
# 6 0.000000 0.000000 0.000000 0.000000 0.000000 0.097420
#
#
# Mechanical properties :
#
#
# Convention : Reuss Voigt Hill
#
# Bulk Modulus (GPa) = 52.80099 71.81719 62.30909
# Shear Modulus (GPa) = 18.75583 24.27471 21.51527
#
# Velocity S-wave (km/s) = 3.20842 3.65006 3.43634
# Velocity P-wave (km/s) = 6.53487 7.56174 7.06698
#
# Compressibility (1/GPa) = 0.01893904
#
# Stress axis : x y z
#
# Youngs Moduli (GPa) = 39.60207 81.36290 114.02028
#
# Poissons Ratio (x) = 0.43370 0.54532
# Poissons Ratio (y) = 0.21110 0.40745
# Poissons Ratio (z) = 0.18940 0.29075
#
# Static dielectric constant tensor:
#      x y z
#    x 3.013160 0.000000 0.000000 
#    y 0.000000 3.396270 0.000000 
#    z 0.000000 0.000000 3.657590 
# 
# 
# High freq. dielectric constant tensor:
#      x y z
#    x 1.669810 0.000000 0.000000 
#    y 0.000000 1.696150 0.000000 
#    z 0.000000 0.000000 1.723420 
# 
# From -- ./inp_files/25307.got.cif
#   From: 2010.03.12/outbox.cif.g09.slc.cpg/sg64_13_cif.got.tgz:25307.got - 2010.04.10 20:19:32.
