data_PCOD8262926
_publ_section_title
;
Structure prediction by ZEFSAII (Michael W. Deem and Ramdas Pophale) SiO2 
 PCOD8262926
Probable space group: C M C A
;
_chemical_formula_sum "Si O2"
_cell_formula_units_Z 96
_cell_length_a 16.965697
_cell_length_b 24.017803
_cell_length_c 11.821480
_cell_angle_alpha 90.000000
_cell_angle_beta 90.000000
_cell_angle_gamma 90.000000
_cell_volume 4817.002110
_symmetry_space_group_name_H-M "C M C A"
_symmetry_group_IT_number 64
_symmetry_cell_setting 'orthorhombic'
loop_
_space_group_symop_operation_xyz
x,y,z
-x,1/2-y,1/2+z
x,-y,-z
-x,1/2+y,1/2-z
-x,-y,-z
x,1/2+y,1/2-z
-x,y,z
x,1/2-y,1/2+z
1/2+x,1/2+y,z
1/2-x,-y,1/2+z
1/2+x,1/2-y,-z
1/2-x,y,1/2-z
1/2-x,1/2-y,-z
1/2+x,y,1/2-z
1/2-x,1/2+y,z
1/2+x,-y,1/2+z
loop_
_atom_site_type_symbol
_atom_site_label
_atom_site_fract_x
_atom_site_fract_y
_atom_site_fract_z
Si Si1 0.407768 0.328534 0.116874
Si Si2 0.661268 0.584974 0.718123
Si Si3 0.091335 0.532410 0.238336
Si Si4 0.591065 0.395192 0.519677
Si Si5 0.093986 0.137135 0.125002
Si Si6 0.406625 0.207393 0.169264
O O1 0.500000 0.320645 0.098692
O O2 0.393936 0.371448 0.217359
O O3 0.369884 0.268226 0.145569
O O4 0.370794 0.351195 0.999221
O O5 0.750000 0.599631 0.750000
O O6 0.642207 0.522594 0.757021
O O7 0.647370 0.591398 0.584829
O O8 0.120992 0.576122 0.333003
O O9 0.000000 0.517090 0.255180
O O10 0.104597 0.557738 0.114023
O O11 0.500000 0.395786 0.479972
O O12 0.615141 0.334728 0.567858
O O13 0.126963 0.183851 0.211798
O O14 0.000000 0.138359 0.127116
O O15 0.500000 0.211050 0.179751
#
# Coordination Sequence:
#
# PCOD8262926 Si02
#       6
#    16  16  16  16  16  16
#     4  10  20  34  57  86 114 146 178 223 281 331
#     4  12  25  37  49  81 119 149 185 226 273 333
#     4   9  18  38  63  82 105 141 190 241 278 318
#     4   9  18  37  65  87 104 139 191 240 276 315
#     4   8  16  32  55  86 112 134 175 227 282 331
#     4   8  16  31  59  90 110 134 178 233 273 316
#
# _framework density 19.929407000000001
#
# number of rings (size 3 to 8) (size 9 to 14) (size 15 to 20)
#    0.000    2.667    0.000    4.000    2.333    2.000 
#    6.000    3.333    0.000    0.000    0.000    0.000 
#    0.000    0.000    0.000    0.000    0.000    0.000 
#
# Total GULP energy -595139.367620 kJ/mol
# GULP energy per Si atom -12398.736825 kJ/mol
# Density = 1.988405 g / cm^3
# Si number density = 19.929407 Si / 1000 Ang^3
#
#
#
# Elastic Constant Matrix: (Units=GPa)
#
#
# Indices 1 2 3 4 5 6 
#
# 1 24.6141 6.6722 7.4802 0.0000 0.0000 0.0000
# 2 6.6722 146.7689 34.1188 0.0000 0.0000 0.0000
# 3 7.4802 34.1188 49.0681 0.0000 0.0000 0.0000
# 4 0.0000 0.0000 0.0000 25.2671 0.0000 0.0000
# 5 0.0000 0.0000 0.0000 0.0000 6.9951 0.0000
# 6 0.0000 0.0000 0.0000 0.0000 0.0000 2.6160
#
#
#
# Elastic Compliance Matrix: (Units=1/GPa)
#
#
# Indices 1 2 3 4 5 6 
#
# 1 0.042633 -0.000510 -0.006145 0.000000 0.000000 0.000000
# 2 -0.000510 0.008133 -0.005578 0.000000 0.000000 0.000000
# 3 -0.006145 -0.005578 0.025195 0.000000 0.000000 0.000000
# 4 0.000000 0.000000 0.000000 0.039577 0.000000 0.000000
# 5 0.000000 0.000000 0.000000 0.000000 0.142958 0.000000
# 6 0.000000 0.000000 0.000000 0.000000 0.000000 0.382265
#
#
# Mechanical properties :
#
#
# Convention : Reuss Voigt Hill
#
# Bulk Modulus (GPa) = 19.41873 35.22150 27.32011
# Shear Modulus (GPa) = 7.32719 18.45430 12.89074
#
# Velocity S-wave (km/s) = 1.91952 3.04630 2.54602
# Velocity P-wave (km/s) = 3.83114 5.48496 4.73088
#
# Compressibility (1/GPa) = 0.05149668
#
# Stress axis : x y z
#
# Youngs Moduli (GPa) = 23.45621 122.95279 39.69063
#
# Poissons Ratio (x) = 0.06266 0.24389
# Poissons Ratio (y) = 0.01195 0.22138
# Poissons Ratio (z) = 0.14413 0.68578
#
# Static dielectric constant tensor:
#      x y z
#    x 3.014310 0.000000 0.000000 
#    y 0.000000 3.890670 0.000000 
#    z 0.000000 0.000000 3.784380 
# 
# 
# High freq. dielectric constant tensor:
#      x y z
#    x 1.720800 0.000000 0.000000 
#    y 0.000000 1.791230 0.000000 
#    z 0.000000 0.000000 1.782740 
# 
# From -- ./inp_files/16202.got.cif
#   From: 2010.03.12/outbox.cif.g09.slc.cpg/sg64_9_cif.got.tgz:16202.got - 2010.04.10 20:19:32.
