data_PCOD8262792
_publ_section_title
;
Structure prediction by ZEFSAII (Michael W. Deem and Ramdas Pophale) SiO2 
 PCOD8262792
Probable space group: C M C A
;
_chemical_formula_sum "Si O2"
_cell_formula_units_Z 80
_cell_length_a 8.946028
_cell_length_b 26.827045
_cell_length_c 18.165927
_cell_angle_alpha 90.000000
_cell_angle_beta 90.000000
_cell_angle_gamma 90.000000
_cell_volume 4359.740656
_symmetry_space_group_name_H-M "C M C A"
_symmetry_group_IT_number 64
_symmetry_cell_setting 'orthorhombic'
loop_
_space_group_symop_operation_xyz
x,y,z
-x,1/2-y,1/2+z
x,-y,-z
-x,1/2+y,1/2-z
-x,-y,-z
x,1/2+y,1/2-z
-x,y,z
x,1/2-y,1/2+z
1/2+x,1/2+y,z
1/2-x,-y,1/2+z
1/2+x,1/2-y,-z
1/2-x,y,1/2-z
1/2-x,1/2-y,-z
1/2+x,y,1/2-z
1/2-x,1/2+y,z
1/2+x,-y,1/2+z
loop_
_atom_site_type_symbol
_atom_site_label
_atom_site_fract_x
_atom_site_fract_y
_atom_site_fract_z
Si Si1 0.172537 0.596667 0.971632
Si Si2 0.324375 0.702176 0.465286
Si Si3 0.672196 0.553001 0.106908
Si Si4 0.173382 0.839647 0.826634
Si Si5 0.825581 0.041737 0.674559
O O1 0.208554 0.583349 0.887222
O O2 0.000000 0.586576 0.991124
O O3 0.214072 0.654382 0.983909
O O4 0.268558 0.560562 0.024004
O O5 0.500000 0.710504 0.457871
O O6 0.250000 0.750000 0.500000
O O7 0.254497 0.695348 0.385216
O O8 0.500000 0.537249 0.102589
O O9 0.696994 0.602865 0.153368
O O10 0.763657 0.511200 0.149115
O O11 0.250000 0.827777 0.750000
O O12 0.000000 0.825306 0.823541
O O13 0.750000 0.059818 0.750000
O O14 0.000000 0.035357 0.689055
#
# Coordination Sequence:
#
# PCOD8262792 Si02
#       5
#    16  16  16  16  16
#     4   9  20  37  55  75 103 139 176 217 263 312
#     4  10  20  37  59  80 104 136 175 219 268 319
#     4  10  20  33  53  80 108 139 175 215 258 309
#     4  10  20  34  53  80 110 138 172 215 264 313
#     4  11  22  35  51  74 106 143 179 214 255 304
#
# _framework density 18.349715
#
# number of rings (size 3 to 8) (size 9 to 14) (size 15 to 20)
#    0.000    2.000    0.000    3.600    0.000    8.800 
#    0.000    1.000    0.000    2.400    0.000    0.000 
#    0.000    0.000    0.000    0.000    0.000    0.000 
#
# Total GULP energy -496183.179731 kJ/mol
# GULP energy per Si atom -12404.579493 kJ/mol
# Density = 1.830795 g / cm^3
# Si number density = 18.349715 Si / 1000 Ang^3
#
#
#
# Elastic Constant Matrix: (Units=GPa)
#
#
# Indices 1 2 3 4 5 6 
#
# 1 119.6581 52.1904 83.1172 0.0000 0.0000 0.0000
# 2 52.1904 80.9634 67.3758 0.0000 0.0000 0.0000
# 3 83.1172 67.3758 168.7989 0.0000 0.0000 0.0000
# 4 0.0000 0.0000 0.0000 22.1366 0.0000 0.0000
# 5 0.0000 0.0000 0.0000 0.0000 38.9721 0.0000
# 6 0.0000 0.0000 0.0000 0.0000 0.0000 26.6158
#
#
#
# Elastic Compliance Matrix: (Units=1/GPa)
#
#
# Indices 1 2 3 4 5 6 
#
# 1 0.013880 -0.004881 -0.004886 0.000000 0.000000 0.000000
# 2 -0.004881 0.020211 -0.005664 0.000000 0.000000 0.000000
# 3 -0.004886 -0.005664 0.010591 0.000000 0.000000 0.000000
# 4 0.000000 0.000000 0.000000 0.045174 0.000000 0.000000
# 5 0.000000 0.000000 0.000000 0.000000 0.025659 0.000000
# 6 0.000000 0.000000 0.000000 0.000000 0.000000 0.037572
#
#
# Mechanical properties :
#
#
# Convention : Reuss Voigt Hill
#
# Bulk Modulus (GPa) = 72.36032 86.08745 79.22389
# Shear Modulus (GPa) = 26.51729 28.66071 27.58900
#
# Velocity S-wave (km/s) = 3.80558 3.95640 3.88172
# Velocity P-wave (km/s) = 7.67004 8.23939 7.95981
#
# Compressibility (1/GPa) = 0.01381973
#
# Stress axis : x y z
#
# Youngs Moduli (GPa) = 72.04443 49.47833 94.42032
#
# Poissons Ratio (x) = 0.24151 0.46138
# Poissons Ratio (y) = 0.35166 0.53476
# Poissons Ratio (z) = 0.35204 0.28023
#
# Static dielectric constant tensor:
#      x y z
#    x 3.567900 0.000000 0.000000 
#    y 0.000000 3.160420 0.000000 
#    z 0.000000 0.000000 3.481280 
# 
# 
# High freq. dielectric constant tensor:
#      x y z
#    x 1.727770 0.000000 0.000000 
#    y 0.000000 1.695150 0.000000 
#    z 0.000000 0.000000 1.717570 
# 
# From -- ./inp_files/29692.got.cif
#   From: 2010.03.12/outbox.cif.g09.slc.cpg/sg64_15_cif.got.tgz:29692.got - 2010.04.10 20:19:32.
