data_PCOD8262165
_publ_section_title
;
Structure prediction by ZEFSAII (Michael W. Deem and Ramdas Pophale) SiO2 
 PCOD8262165
Probable space group: C M C A
;
_chemical_formula_sum "Si O2"
_cell_formula_units_Z 112
_cell_length_a 16.651652
_cell_length_b 24.626805
_cell_length_c 14.134519
_cell_angle_alpha 90.000000
_cell_angle_beta 90.000000
_cell_angle_gamma 90.000000
_cell_volume 5796.240960
_symmetry_space_group_name_H-M "C M C A"
_symmetry_group_IT_number 64
_symmetry_cell_setting 'orthorhombic'
loop_
_space_group_symop_operation_xyz
x,y,z
-x,1/2-y,1/2+z
x,-y,-z
-x,1/2+y,1/2-z
-x,-y,-z
x,1/2+y,1/2-z
-x,y,z
x,1/2-y,1/2+z
1/2+x,1/2+y,z
1/2-x,-y,1/2+z
1/2+x,1/2-y,-z
1/2-x,y,1/2-z
1/2-x,1/2-y,-z
1/2+x,y,1/2-z
1/2-x,1/2+y,z
1/2+x,-y,1/2+z
loop_
_atom_site_type_symbol
_atom_site_label
_atom_site_fract_x
_atom_site_fract_y
_atom_site_fract_z
Si Si1 0.092643 0.441135 0.035126
Si Si2 0.792582 0.623106 0.849085
Si Si3 0.091385 0.216863 0.700290
Si Si4 0.907461 0.656163 0.318265
Si Si5 0.912582 0.766827 0.085953
Si Si6 0.863985 0.349224 0.887712
Si Si7 0.699653 0.839695 0.521318
O O1 0.145832 0.425584 0.126884
O O2 0.000000 0.441070 0.065959
O O3 0.120097 0.500000 0.000000
O O4 0.107939 0.399290 0.950417
O O5 0.750000 0.611416 0.750000
O O6 0.843777 0.679210 0.853019
O O7 0.724531 0.624362 0.930728
O O8 0.107188 0.279121 0.673816
O O9 0.105081 0.207357 0.811600
O O10 0.000000 0.200625 0.671309
O O11 0.868408 0.633149 0.221932
O O12 0.863681 0.629272 0.409539
O O13 0.000000 0.639883 0.319607
O O14 0.921440 0.701984 0.094201
O O15 0.000000 0.787526 0.049370
O O16 0.842810 0.784455 0.014577
O O17 0.775720 0.327208 0.913029
#
# Coordination Sequence:
#
# PCOD8262165 Si02
#       7
#    16  16  16  16  16  16  16
#     4  10  22  41  64  86 106 141 197 250 292 337
#     4  11  22  37  56  82 115 147 184 233 289 335
#     4   9  19  33  51  74 111 155 191 221 265 333
#     4  10  21  35  51  78 117 158 192 225 272 339
#     4  10  19  32  49  77 116 153 182 216 265 335
#     4  10  21  36  57  78 111 146 189 237 286 326
#     4  11  22  32  50  82 114 151 189 224 271 337
#
# _framework density 19.322866999999999
#
# number of rings (size 3 to 8) (size 9 to 14) (size 15 to 20)
#    0.000    1.857    1.429    3.857    6.000    0.000 
#    0.000    2.857    0.000    0.000    0.000    0.000 
#    0.000   22.857    0.000    0.000    0.000    0.000 
#
# Total GULP energy -694215.265640 kJ/mol
# GULP energy per Si atom -12396.701172 kJ/mol
# Density = 1.927889 g / cm^3
# Si number density = 19.322867 Si / 1000 Ang^3
#
#
#
# Elastic Constant Matrix: (Units=GPa)
#
#
# Indices 1 2 3 4 5 6 
#
# 1 112.9848 25.7867 69.8391 0.0000 0.0000 0.0000
# 2 25.7867 58.4168 20.1886 0.0000 0.0000 0.0000
# 3 69.8391 20.1886 134.5007 0.0000 0.0000 0.0000
# 4 0.0000 0.0000 0.0000 18.0825 0.0000 0.0000
# 5 0.0000 0.0000 0.0000 0.0000 34.0830 0.0000
# 6 0.0000 0.0000 0.0000 0.0000 0.0000 17.4777
#
#
#
# Elastic Compliance Matrix: (Units=1/GPa)
#
#
# Indices 1 2 3 4 5 6 
#
# 1 0.013795 -0.003812 -0.006591 0.000000 0.000000 0.000000
# 2 -0.003812 0.019108 -0.000889 0.000000 0.000000 0.000000
# 3 -0.006591 -0.000889 0.010991 0.000000 0.000000 0.000000
# 4 0.000000 0.000000 0.000000 0.055302 0.000000 0.000000
# 5 0.000000 0.000000 0.000000 0.000000 0.029340 0.000000
# 6 0.000000 0.000000 0.000000 0.000000 0.000000 0.057216
#
#
# Mechanical properties :
#
#
# Convention : Reuss Voigt Hill
#
# Bulk Modulus (GPa) = 46.92464 59.72568 53.32516
# Shear Modulus (GPa) = 23.20860 26.60115 24.90487
#
# Velocity S-wave (km/s) = 3.46944 3.71437 3.59399
# Velocity P-wave (km/s) = 6.35504 7.02651 6.69919
#
# Compressibility (1/GPa) = 0.02131076
#
# Stress axis : x y z
#
# Youngs Moduli (GPa) = 72.49247 52.33376 90.98751
#
# Poissons Ratio (x) = 0.19947 0.59967
# Poissons Ratio (y) = 0.27631 0.08089
# Poissons Ratio (z) = 0.47777 0.04652
#
# Static dielectric constant tensor:
#      x y z
#    x 3.747890 0.000000 0.000000 
#    y 0.000000 2.996280 0.000000 
#    z 0.000000 0.000000 3.767330 
# 
# 
# High freq. dielectric constant tensor:
#      x y z
#    x 1.770560 0.000000 0.000000 
#    y 0.000000 1.682420 0.000000 
#    z 0.000000 0.000000 1.768900 
# 
# From -- ./inp_files/24422.got.cif
#   From: 2010.03.12/outbox.cif.g09.slc.cpg/sg64_13_cif.got.tgz:24422.got - 2010.04.10 20:19:32.
