data_PCOD8262874
_publ_section_title
;
Structure prediction by ZEFSAII (Michael W. Deem and Ramdas Pophale) SiO2 
 PCOD8262874
Probable space group: C M C A
;
_chemical_formula_sum "Si O2"
_cell_formula_units_Z 104
_cell_length_a 27.822040
_cell_length_b 10.228238
_cell_length_c 20.275198
_cell_angle_alpha 90.000000
_cell_angle_beta 90.000000
_cell_angle_gamma 90.000000
_cell_volume 5769.722153
_symmetry_space_group_name_H-M "C M C A"
_symmetry_group_IT_number 64
_symmetry_cell_setting 'orthorhombic'
loop_
_space_group_symop_operation_xyz
x,y,z
-x,1/2-y,1/2+z
x,-y,-z
-x,1/2+y,1/2-z
-x,-y,-z
x,1/2+y,1/2-z
-x,y,z
x,1/2-y,1/2+z
1/2+x,1/2+y,z
1/2-x,-y,1/2+z
1/2+x,1/2-y,-z
1/2-x,y,1/2-z
1/2-x,1/2-y,-z
1/2+x,y,1/2-z
1/2-x,1/2+y,z
1/2+x,-y,1/2+z
loop_
_atom_site_type_symbol
_atom_site_label
_atom_site_fract_x
_atom_site_fract_y
_atom_site_fract_z
Si Si1 0.196403 0.500000 0.500000
Si Si2 0.636786 0.340795 0.104506
Si Si3 0.445108 0.357369 0.194680
Si Si4 0.944943 0.053835 0.313126
Si Si5 0.729638 0.208523 0.677907
Si Si6 0.877168 0.441938 0.931148
Si Si7 0.768210 0.534172 0.104611
O O1 0.161679 0.421731 0.452377
O O2 0.232836 0.583618 0.454123
O O3 0.589556 0.408121 0.135779
O O4 0.672451 0.312336 0.166800
O O5 0.618829 0.213307 0.066464
O O6 0.500000 0.374954 0.171555
O O7 0.433847 0.449975 0.256148
O O8 0.433889 0.203591 0.210309
O O9 0.911357 0.006457 0.372870
O O10 0.000000 0.043404 0.336236
O O11 0.750000 0.177208 0.750000
O O12 0.740168 0.359931 0.662075
O O13 0.755453 0.111041 0.627696
O O14 0.822252 0.480318 0.919495
O O15 0.895830 0.500000 0.000000
#
# Coordination Sequence:
#
# PCOD8262874 Si02
#       7
#     8  16  16  16  16  16  16
#     4  10  20  38  53  74 109 142 188 212 264 316
#     4   9  21  36  53  79 106 144 175 225 268 315
#     4   9  18  38  59  80 108 138 174 219 278 322
#     4   9  19  36  59  82 109 140 174 225 274 321
#     4  10  21  35  51  78 108 135 179 221 269 310
#     4  10  20  34  54  79 108 142 185 214 263 322
#     4  10  21  34  55  73 106 148 174 220 263 315
#
# _framework density 18.025131999999999
#
# number of rings (size 3 to 8) (size 9 to 14) (size 15 to 20)
#    0.000    2.462    0.769    0.462    4.308    2.154 
#   11.077    0.385    0.000    0.000    0.000    0.000 
#    0.000    0.000    0.000    0.000    0.000    0.000 
#
# Total GULP energy -644372.192192 kJ/mol
# GULP energy per Si atom -12391.772927 kJ/mol
# Density = 1.798411 g / cm^3
# Si number density = 18.025132 Si / 1000 Ang^3
#
#
#
# Elastic Constant Matrix: (Units=GPa)
#
#
# Indices 1 2 3 4 5 6 
#
# 1 115.9788 37.1275 78.2603 0.0000 0.0000 0.0000
# 2 37.1275 55.5695 39.4335 0.0000 0.0000 0.0000
# 3 78.2603 39.4335 124.7327 0.0000 0.0000 0.0000
# 4 0.0000 0.0000 0.0000 27.1762 0.0000 0.0000
# 5 0.0000 0.0000 0.0000 0.0000 34.2868 0.0000
# 6 0.0000 0.0000 0.0000 0.0000 0.0000 23.7331
#
#
#
# Elastic Compliance Matrix: (Units=1/GPa)
#
#
# Indices 1 2 3 4 5 6 
#
# 1 0.015794 -0.004538 -0.008474 0.000000 0.000000 0.000000
# 2 -0.004538 0.024504 -0.004899 0.000000 0.000000 0.000000
# 3 -0.008474 -0.004899 0.014883 0.000000 0.000000 0.000000
# 4 0.000000 0.000000 0.000000 0.036797 0.000000 0.000000
# 5 0.000000 0.000000 0.000000 0.000000 0.029166 0.000000
# 6 0.000000 0.000000 0.000000 0.000000 0.000000 0.042135
#
#
# Mechanical properties :
#
#
# Convention : Reuss Voigt Hill
#
# Bulk Modulus (GPa) = 51.66209 67.32486 59.49347
# Shear Modulus (GPa) = 24.32431 26.46988 25.39709
#
# Velocity S-wave (km/s) = 3.67749 3.83626 3.75771
# Velocity P-wave (km/s) = 6.83779 7.55342 7.20449
#
# Compressibility (1/GPa) = 0.01935655
#
# Stress axis : x y z
#
# Youngs Moduli (GPa) = 63.31713 40.80887 67.19016
#
# Poissons Ratio (x) = 0.18521 0.56940
# Poissons Ratio (y) = 0.28736 0.32919
# Poissons Ratio (z) = 0.53658 0.19994
#
# Static dielectric constant tensor:
#      x y z
#    x 3.566810 0.000000 0.000000 
#    y 0.000000 3.292210 0.000000 
#    z 0.000000 0.000000 3.381370 
# 
# 
# High freq. dielectric constant tensor:
#      x y z
#    x 1.708020 0.000000 0.000000 
#    y 0.000000 1.691360 0.000000 
#    z 0.000000 0.000000 1.689410 
# 
# From -- ./inp_files/35469.got.cif
#   From: 2010.03.12/outbox.cif.g09.slc.cpg/sg64_18_cif.got.tgz:35469.got - 2010.04.10 20:19:32.
