data_PCOD8262496
_publ_section_title
;
Structure prediction by ZEFSAII (Michael W. Deem and Ramdas Pophale) SiO2 
 PCOD8262496
Probable space group: C M C A
;
_chemical_formula_sum "Si O2"
_cell_formula_units_Z 112
_cell_length_a 18.985777
_cell_length_b 12.944701
_cell_length_c 23.413073
_cell_angle_alpha 90.000000
_cell_angle_beta 90.000000
_cell_angle_gamma 90.000000
_cell_volume 5754.118721
_symmetry_space_group_name_H-M "C M C A"
_symmetry_group_IT_number 64
_symmetry_cell_setting 'orthorhombic'
loop_
_space_group_symop_operation_xyz
x,y,z
-x,1/2-y,1/2+z
x,-y,-z
-x,1/2+y,1/2-z
-x,-y,-z
x,1/2+y,1/2-z
-x,y,z
x,1/2-y,1/2+z
1/2+x,1/2+y,z
1/2-x,-y,1/2+z
1/2+x,1/2-y,-z
1/2-x,y,1/2-z
1/2-x,1/2-y,-z
1/2+x,y,1/2-z
1/2-x,1/2+y,z
1/2+x,-y,1/2+z
loop_
_atom_site_type_symbol
_atom_site_label
_atom_site_fract_x
_atom_site_fract_y
_atom_site_fract_z
Si Si1 0.214390 0.355027 0.614752
Si Si2 0.362659 0.771947 0.924779
Si Si3 0.798897 0.440308 0.443902
Si Si4 0.676009 0.752463 0.226908
Si Si5 0.081413 0.409450 0.158592
Si Si6 0.421840 0.854570 0.818523
Si Si7 0.151014 0.327086 0.049966
O O1 0.294270 0.326154 0.601817
O O2 0.203261 0.477381 0.607357
O O3 0.193504 0.333236 0.679664
O O4 0.165209 0.289111 0.571921
O O5 0.354331 0.648389 0.928133
O O6 0.424118 0.797208 0.880020
O O7 0.381797 0.819339 0.986701
O O8 0.824315 0.500000 0.500000
O O9 0.723377 0.389499 0.454705
O O10 0.750000 0.798355 0.250000
O O11 0.630951 0.844474 0.200288
O O12 0.633592 0.698435 0.277148
O O13 0.099423 0.527185 0.171792
O O14 0.097784 0.385640 0.092153
O O15 0.000000 0.382590 0.170441
O O16 0.500000 0.846203 0.791901
#
# Coordination Sequence:
#
# PCOD8262496 Si02
#       7
#    16  16  16  16  16  16  16
#     4  10  19  35  54  90 122 156 192 249 311 356
#     4  11  20  35  57  91 123 157 202 248 302 359
#     4  11  18  31  59  90 127 157 190 253 312 358
#     4  11  23  41  64  91 119 153 211 261 306 358
#     4  10  24  43  62  86 123 169 206 246 307 374
#     4  11  25  43  61  87 125 162 204 253 303 365
#     4  10  20  32  57  88 124 157 198 245 299 363
#
# _framework density 19.464317999999999
#
# number of rings (size 3 to 8) (size 9 to 14) (size 15 to 20)
#    0.000    1.429    4.286    2.143    0.000    2.286 
#    0.000    1.429    0.000    3.857    0.000    0.000 
#    0.000    0.000    0.000    0.000    0.000    0.000 
#
# Total GULP energy -694454.634638 kJ/mol
# GULP energy per Si atom -12400.975619 kJ/mol
# Density = 1.942002 g / cm^3
# Si number density = 19.464318 Si / 1000 Ang^3
#
#
#
# Elastic Constant Matrix: (Units=GPa)
#
#
# Indices 1 2 3 4 5 6 
#
# 1 74.9521 44.3323 40.0487 0.0000 0.0000 0.0000
# 2 44.3323 128.5184 50.4617 0.0000 0.0000 0.0000
# 3 40.0487 50.4617 133.2918 0.0000 0.0000 0.0000
# 4 0.0000 0.0000 0.0000 25.8408 0.0000 0.0000
# 5 0.0000 0.0000 0.0000 0.0000 18.7212 0.0000
# 6 0.0000 0.0000 0.0000 0.0000 0.0000 21.7268
#
#
#
# Elastic Compliance Matrix: (Units=1/GPa)
#
#
# Indices 1 2 3 4 5 6 
#
# 1 0.018135 -0.004835 -0.003618 0.000000 0.000000 0.000000
# 2 -0.004835 0.010429 -0.002495 0.000000 0.000000 0.000000
# 3 -0.003618 -0.002495 0.009534 0.000000 0.000000 0.000000
# 4 0.000000 0.000000 0.000000 0.038699 0.000000 0.000000
# 5 0.000000 0.000000 0.000000 0.000000 0.053415 0.000000
# 6 0.000000 0.000000 0.000000 0.000000 0.000000 0.046026
#
#
# Mechanical properties :
#
#
# Convention : Reuss Voigt Hill
#
# Bulk Modulus (GPa) = 61.72685 67.38307 64.55496
# Shear Modulus (GPa) = 24.56577 26.71906 25.64242
#
# Velocity S-wave (km/s) = 3.55645 3.70904 3.63355
# Velocity P-wave (km/s) = 6.97468 7.28262 7.13031
#
# Compressibility (1/GPa) = 0.01620041
#
# Stress axis : x y z
#
# Youngs Moduli (GPa) = 55.14201 95.89047 104.88535
#
# Poissons Ratio (x) = 0.46362 0.37952
# Poissons Ratio (y) = 0.26661 0.26173
# Poissons Ratio (z) = 0.19953 0.23928
#
# Static dielectric constant tensor:
#      x y z
#    x 3.343010 0.000000 0.000000 
#    y 0.000000 3.671260 0.000000 
#    z 0.000000 0.000000 3.707220 
# 
# 
# High freq. dielectric constant tensor:
#      x y z
#    x 1.732320 0.000000 0.000000 
#    y 0.000000 1.764640 0.000000 
#    z 0.000000 0.000000 1.769000 
# 
# From -- ./inp_files/46355.got.cif
#   From: 2010.03.12/outbox.cif.g09.slc.cpg/sg64_24_cif.got.tgz:46355.got - 2010.04.10 20:19:32.
