data_PCOD8262734
_publ_section_title
;
Structure prediction by ZEFSAII (Michael W. Deem and Ramdas Pophale) SiO2 
 PCOD8262734
Probable space group: C M C A
;
_chemical_formula_sum "Si O2"
_cell_formula_units_Z 120
_cell_length_a 20.502300
_cell_length_b 12.846331
_cell_length_c 25.234866
_cell_angle_alpha 90.000000
_cell_angle_beta 90.000000
_cell_angle_gamma 90.000000
_cell_volume 6646.342152
_symmetry_space_group_name_H-M "C M C A"
_symmetry_group_IT_number 64
_symmetry_cell_setting 'orthorhombic'
loop_
_space_group_symop_operation_xyz
x,y,z
-x,1/2-y,1/2+z
x,-y,-z
-x,1/2+y,1/2-z
-x,-y,-z
x,1/2+y,1/2-z
-x,y,z
x,1/2-y,1/2+z
1/2+x,1/2+y,z
1/2-x,-y,1/2+z
1/2+x,1/2-y,-z
1/2-x,y,1/2-z
1/2-x,1/2-y,-z
1/2+x,y,1/2-z
1/2-x,1/2+y,z
1/2+x,-y,1/2+z
loop_
_atom_site_type_symbol
_atom_site_label
_atom_site_fract_x
_atom_site_fract_y
_atom_site_fract_z
Si Si1 0.424342 0.986707 0.160932
Si Si2 0.854167 0.029729 0.443141
Si Si3 0.814150 0.241695 0.400095
Si Si4 0.926351 0.243221 0.692064
Si Si5 0.209898 0.035133 0.941211
Si Si6 0.375208 0.195693 0.203509
Si Si7 0.308926 0.873121 0.645352
Si Si8 0.750000 0.366956 0.750000
O O1 0.500000 0.010369 0.168460
O O2 0.403873 0.874534 0.182313
O O3 0.407219 0.994007 0.099157
O O4 0.384984 0.072263 0.194275
O O5 0.838802 0.152705 0.440268
O O6 0.883767 0.000000 0.500000
O O7 0.787404 0.967106 0.433365
O O8 0.813320 0.347256 0.433006
O O9 0.868307 0.253754 0.352971
O O10 0.742733 0.211347 0.377359
O O11 0.928855 0.259123 0.756186
O O12 0.877428 0.319921 0.661035
O O13 0.000000 0.262042 0.670687
O O14 0.175374 0.960738 0.898086
O O15 0.189012 0.000000 0.000000
O O16 0.307548 0.211027 0.234228
O O17 0.275315 0.929191 0.697414
#
# Coordination Sequence:
#
# PCOD8262734 Si02
#       8
#    16  16  16  16  16  16  16   8
#     4  10  20  33  49  71  99 130 168 208 241 289
#     4   9  19  33  52  74  98 129 164 208 253 292
#     4   9  18  33  50  73 103 131 161 201 254 303
#     4  10  20  33  51  73  99 133 168 206 249 293
#     4  10  20  32  51  78 104 133 167 206 253 309
#     4   9  18  33  49  71 101 130 163 202 250 304
#     4   9  18  32  50  73 102 132 167 207 252 302
#     4   8  16  30  48  72  96 124 162 206 250 296
#
# _framework density 18.055043999999999
#
# number of rings (size 3 to 8) (size 9 to 14) (size 15 to 20)
#    0.000    2.667    0.000    2.000    0.000    8.267 
#    0.000    5.333    0.000    3.600    0.000    0.000 
#    0.000    0.000    0.000    0.000    0.000    0.000 
#
# Total GULP energy -743563.509135 kJ/mol
# GULP energy per Si atom -12392.725152 kJ/mol
# Density = 1.801395 g / cm^3
# Si number density = 18.055044 Si / 1000 Ang^3
#
#
#
# Elastic Constant Matrix: (Units=GPa)
#
#
# Indices 1 2 3 4 5 6 
#
# 1 54.4819 28.1319 23.0119 0.0000 0.0000 0.0000
# 2 28.1319 109.2958 68.1160 0.0000 0.0000 0.0000
# 3 23.0119 68.1160 122.1906 0.0000 0.0000 0.0000
# 4 0.0000 0.0000 0.0000 24.8635 0.0000 0.0000
# 5 0.0000 0.0000 0.0000 0.0000 19.7406 0.0000
# 6 0.0000 0.0000 0.0000 0.0000 0.0000 17.3228
#
#
#
# Elastic Compliance Matrix: (Units=1/GPa)
#
#
# Indices 1 2 3 4 5 6 
#
# 1 0.021338 -0.004578 -0.001466 0.000000 0.000000 0.000000
# 2 -0.004578 0.015003 -0.007501 0.000000 0.000000 0.000000
# 3 -0.001466 -0.007501 0.012642 0.000000 0.000000 0.000000
# 4 0.000000 0.000000 0.000000 0.040220 0.000000 0.000000
# 5 0.000000 0.000000 0.000000 0.000000 0.050657 0.000000
# 6 0.000000 0.000000 0.000000 0.000000 0.000000 0.057728
#
#
# Mechanical properties :
#
#
# Convention : Reuss Voigt Hill
#
# Bulk Modulus (GPa) = 45.68126 58.27643 51.97885
# Shear Modulus (GPa) = 21.55399 23.49928 22.52664
#
# Velocity S-wave (km/s) = 3.45888 3.61159 3.53606
# Velocity P-wave (km/s) = 6.42712 7.05256 6.74709
#
# Compressibility (1/GPa) = 0.02189082
#
# Stress axis : x y z
#
# Youngs Moduli (GPa) = 46.86449 66.65384 79.10334
#
# Poissons Ratio (x) = 0.30517 0.11599
# Poissons Ratio (y) = 0.21457 0.59337
# Poissons Ratio (z) = 0.06872 0.49999
#
# Static dielectric constant tensor:
#      x y z
#    x 3.187360 0.000000 0.000000 
#    y 0.000000 3.095400 0.000000 
#    z 0.000000 0.000000 3.540480 
# 
# 
# High freq. dielectric constant tensor:
#      x y z
#    x 1.681860 0.000000 0.000000 
#    y 0.000000 1.679030 0.000000 
#    z 0.000000 0.000000 1.709750 
# 
# From -- ./inp_files/46451.got.cif
#   From: 2010.03.12/outbox.cif.g09.slc.cpg/sg64_24_cif.got.tgz:46451.got - 2010.04.10 20:19:32.
