data_PCOD8262477
_publ_section_title
;
Structure prediction by ZEFSAII (Michael W. Deem and Ramdas Pophale) SiO2 
 PCOD8262477
Probable space group: C M C A
;
_chemical_formula_sum "Si O2"
_cell_formula_units_Z 96
_cell_length_a 8.778196
_cell_length_b 19.887890
_cell_length_c 27.754629
_cell_angle_alpha 90.000000
_cell_angle_beta 90.000000
_cell_angle_gamma 90.000000
_cell_volume 4845.397481
_symmetry_space_group_name_H-M "C M C A"
_symmetry_group_IT_number 64
_symmetry_cell_setting 'orthorhombic'
loop_
_space_group_symop_operation_xyz
x,y,z
-x,1/2-y,1/2+z
x,-y,-z
-x,1/2+y,1/2-z
-x,-y,-z
x,1/2+y,1/2-z
-x,y,z
x,1/2-y,1/2+z
1/2+x,1/2+y,z
1/2-x,-y,1/2+z
1/2+x,1/2-y,-z
1/2-x,y,1/2-z
1/2-x,1/2-y,-z
1/2+x,y,1/2-z
1/2-x,1/2+y,z
1/2+x,-y,1/2+z
loop_
_atom_site_type_symbol
_atom_site_label
_atom_site_fract_x
_atom_site_fract_y
_atom_site_fract_z
Si Si1 0.179796 0.012577 0.801662
Si Si2 0.675019 0.867247 0.145530
Si Si3 0.675984 0.767785 0.700650
Si Si4 0.677911 0.171225 0.551096
Si Si5 0.677600 0.325990 0.547054
Si Si6 0.320673 0.609860 0.352632
O O1 0.250000 0.995055 0.750000
O O2 0.228728 0.086357 0.818679
O O3 0.000000 0.009049 0.797107
O O4 0.238024 0.959758 0.841186
O O5 0.500000 0.890289 0.147650
O O6 0.696851 0.790633 0.161758
O O7 0.735296 0.872948 0.091001
O O8 0.500000 0.786071 0.708508
O O9 0.750000 0.742117 0.750000
O O10 0.764553 0.833572 0.683900
O O11 0.500000 0.159448 0.558073
O O12 0.724120 0.249123 0.557562
O O13 0.728937 0.145711 0.498451
O O14 0.500000 0.330666 0.534753
O O15 0.722850 0.370664 0.592847
O O16 0.500000 0.601281 0.346235
#
# Coordination Sequence:
#
# PCOD8262477 Si02
#       6
#    16  16  16  16  16  16
#     4  12  26  44  64  87 120 161 205 249 303 363
#     4  11  23  40  62  89 121 159 202 249 302 359
#     4  11  23  37  58  87 118 152 196 249 300 353
#     4  10  19  34  59  91 124 159 198 246 301 358
#     4   9  19  35  58  89 123 160 197 243 300 358
#     4  11  22  40  63  88 121 158 201 247 299 357
#
# _framework density 19.812615999999998
#
# number of rings (size 3 to 8) (size 9 to 14) (size 15 to 20)
#    0.000    1.333    1.667    4.500    0.000    5.333 
#    0.000    0.833    0.000    5.000    0.000    0.000 
#    0.000    0.000    0.000    0.000    0.000    0.000 
#
# Total GULP energy -595529.687998 kJ/mol
# GULP energy per Si atom -12406.868500 kJ/mol
# Density = 1.976752 g / cm^3
# Si number density = 19.812616 Si / 1000 Ang^3
#
#
#
# Elastic Constant Matrix: (Units=GPa)
#
#
# Indices 1 2 3 4 5 6 
#
# 1 115.1853 28.6589 53.7429 0.0000 0.0000 0.0000
# 2 28.6589 54.3080 18.6649 0.0000 0.0000 0.0000
# 3 53.7429 18.6649 118.9639 0.0000 0.0000 0.0000
# 4 0.0000 0.0000 0.0000 30.4529 0.0000 0.0000
# 5 0.0000 0.0000 0.0000 0.0000 38.1469 0.0000
# 6 0.0000 0.0000 0.0000 0.0000 0.0000 33.0330
#
#
#
# Elastic Compliance Matrix: (Units=1/GPa)
#
#
# Indices 1 2 3 4 5 6 
#
# 1 0.012056 -0.004746 -0.004702 0.000000 0.000000 0.000000
# 2 -0.004746 0.021331 -0.001203 0.000000 0.000000 0.000000
# 3 -0.004702 -0.001203 0.010719 0.000000 0.000000 0.000000
# 4 0.000000 0.000000 0.000000 0.032838 0.000000 0.000000
# 5 0.000000 0.000000 0.000000 0.000000 0.026214 0.000000
# 6 0.000000 0.000000 0.000000 0.000000 0.000000 0.030273
#
#
# Mechanical properties :
#
#
# Convention : Reuss Voigt Hill
#
# Bulk Modulus (GPa) = 43.85017 54.51006 49.18011
# Shear Modulus (GPa) = 30.80056 32.81925 31.80990
#
# Velocity S-wave (km/s) = 3.94711 4.07441 4.01126
# Velocity P-wave (km/s) = 6.55388 7.05031 6.80663
#
# Compressibility (1/GPa) = 0.02280493
#
# Stress axis : x y z
#
# Youngs Moduli (GPa) = 82.94375 46.87907 93.29478
#
# Poissons Ratio (x) = 0.22250 0.43866
# Poissons Ratio (y) = 0.39368 0.11220
# Poissons Ratio (z) = 0.38999 0.05638
#
# Static dielectric constant tensor:
#      x y z
#    x 3.678610 0.000000 0.000000 
#    y 0.000000 3.383100 0.000000 
#    z 0.000000 0.000000 3.684840 
# 
# 
# High freq. dielectric constant tensor:
#      x y z
#    x 1.784810 0.000000 0.000000 
#    y 0.000000 1.752470 0.000000 
#    z 0.000000 0.000000 1.785620 
# 
# From -- ./inp_files/48155.got.cif
#   From: 2010.03.12/outbox.cif.g09.slc.cpg/sg64_25_cif.got.tgz:48155.got - 2010.04.10 20:19:32.
