data_PCOD8262591
_publ_section_title
;
Structure prediction by ZEFSAII (Michael W. Deem and Ramdas Pophale) SiO2 
 PCOD8262591
Probable space group: C M C A
;
_chemical_formula_sum "Si O2"
_cell_formula_units_Z 88
_cell_length_a 30.408517
_cell_length_b 15.438770
_cell_length_c 9.885911
_cell_angle_alpha 90.000000
_cell_angle_beta 90.000000
_cell_angle_gamma 90.000000
_cell_volume 4641.139626
_symmetry_space_group_name_H-M "C M C A"
_symmetry_group_IT_number 64
_symmetry_cell_setting 'orthorhombic'
loop_
_space_group_symop_operation_xyz
x,y,z
-x,1/2-y,1/2+z
x,-y,-z
-x,1/2+y,1/2-z
-x,-y,-z
x,1/2+y,1/2-z
-x,y,z
x,1/2-y,1/2+z
1/2+x,1/2+y,z
1/2-x,-y,1/2+z
1/2+x,1/2-y,-z
1/2-x,y,1/2-z
1/2-x,1/2-y,-z
1/2+x,y,1/2-z
1/2-x,1/2+y,z
1/2+x,-y,1/2+z
loop_
_atom_site_type_symbol
_atom_site_label
_atom_site_fract_x
_atom_site_fract_y
_atom_site_fract_z
Si Si1 0.147585 0.617091 0.830077
Si Si2 0.666208 0.399174 0.029444
Si Si3 0.259569 0.077379 0.901421
Si Si4 0.406478 0.500000 0.500000
Si Si5 0.903758 0.783585 0.897451
Si Si6 0.051740 0.324725 0.886200
O O1 0.143711 0.619053 0.670667
O O2 0.196626 0.634974 0.888519
O O3 0.118317 0.692193 0.884668
O O4 0.126057 0.527129 0.878401
O O5 0.635775 0.351832 0.920794
O O6 0.667656 0.500000 0.000000
O O7 0.717737 0.368748 0.038186
O O8 0.250000 0.040423 0.750000
O O9 0.271708 0.000000 0.000000
O O10 0.435216 0.582054 0.450186
O O11 0.929017 0.815519 0.765033
O O12 0.935546 0.761292 0.025073
O O13 0.000000 0.324269 0.871338
#
# Coordination Sequence:
#
# PCOD8262591 Si02
#       6
#    16  16  16   8  16  16
#     4  10  19  36  58  87 119 155 200 236 294 351
#     4  10  20  36  58  84 121 158 199 237 291 351
#     4   9  18  33  55  84 120 157 196 243 280 342
#     4  10  21  36  66  86 118 154 198 246 297 366
#     4  11  22  39  62  85 120 159 192 250 302 354
#     4  11  23  41  63  89 117 153 201 254 308 357
#
# _framework density 18.96086
#
# number of rings (size 3 to 8) (size 9 to 14) (size 15 to 20)
#    0.000    1.818    2.727    1.909    0.000    0.727 
#    0.000    0.000    0.000    2.182    0.000    0.000 
#    0.000    0.000    0.000    0.000    0.000    0.000 
#
# Total GULP energy -545075.253846 kJ/mol
# GULP energy per Si atom -12388.073951 kJ/mol
# Density = 1.891770 g / cm^3
# Si number density = 18.960860 Si / 1000 Ang^3
#
#
#
# Elastic Constant Matrix: (Units=GPa)
#
#
# Indices 1 2 3 4 5 6 
#
# 1 131.9065 31.5025 49.3625 0.0000 0.0000 0.0000
# 2 31.5025 49.0479 10.2538 0.0000 0.0000 0.0000
# 3 49.3625 10.2538 82.6392 0.0000 0.0000 0.0000
# 4 0.0000 0.0000 0.0000 22.6964 0.0000 0.0000
# 5 0.0000 0.0000 0.0000 0.0000 30.3058 0.0000
# 6 0.0000 0.0000 0.0000 0.0000 0.0000 -8.6011
#
#
#
# Elastic Compliance Matrix: (Units=1/GPa)
#
#
# Indices 1 2 3 4 5 6 
#
# 1 0.011243 -0.005972 -0.005975 0.000000 0.000000 0.000000
# 2 -0.005972 0.024104 0.000577 0.000000 0.000000 0.000000
# 3 -0.005975 0.000577 0.015598 0.000000 0.000000 0.000000
# 4 0.000000 0.000000 0.000000 0.044060 0.000000 0.000000
# 5 0.000000 0.000000 0.000000 0.000000 0.032997 0.000000
# 6 0.000000 0.000000 0.000000 0.000000 0.000000 -0.116264
#
#
# Mechanical properties :
#
#
# Convention : Reuss Voigt Hill
#
# Bulk Modulus (GPa) = 35.45589 49.53680 42.49634
# Shear Modulus (GPa) = 113.94456 20.37854 67.16155
#
# Velocity S-wave (km/s) = 7.76048 3.28192 5.95802
# Velocity P-wave (km/s) = 9.95189 6.36741 8.35416
#
# Compressibility (1/GPa) = 0.02820406
#
# Stress axis : x y z
#
# Youngs Moduli (GPa) = 88.94084 41.48759 64.10986
#
# Poissons Ratio (x) = 0.24778 0.38305
# Poissons Ratio (y) = 0.53118 -0.03697
# Poissons Ratio (z) = 0.53142 -0.02393
#
# Static dielectric constant tensor:
#      x y z
#    x 3.750180 0.000000 0.000000 
#    y 0.000000 3.346140 0.000000 
#    z 0.000000 0.000000 3.523680 
# 
# 
# High freq. dielectric constant tensor:
#      x y z
#    x 1.751630 0.000000 0.000000 
#    y 0.000000 1.714870 0.000000 
#    z 0.000000 0.000000 1.747190 
# 
# From -- ./inp_files/11093.got.cif
#   From: 2010.03.12/outbox.cif.g09.slc.cpg/sg64_6_cif.got.tgz:11093.got - 2010.04.10 20:19:32.
