data_PCOD8262934
_publ_section_title
;
Structure prediction by ZEFSAII (Michael W. Deem and Ramdas Pophale) SiO2 
 PCOD8262934
Probable space group: C M C A
;
_chemical_formula_sum "Si O2"
_cell_formula_units_Z 112
_cell_length_a 14.306121
_cell_length_b 14.272392
_cell_length_c 29.151938
_cell_angle_alpha 90.000000
_cell_angle_beta 90.000000
_cell_angle_gamma 90.000000
_cell_volume 5952.317531
_symmetry_space_group_name_H-M "C M C A"
_symmetry_group_IT_number 64
_symmetry_cell_setting 'orthorhombic'
loop_
_space_group_symop_operation_xyz
x,y,z
-x,1/2-y,1/2+z
x,-y,-z
-x,1/2+y,1/2-z
-x,-y,-z
x,1/2+y,1/2-z
-x,y,z
x,1/2-y,1/2+z
1/2+x,1/2+y,z
1/2-x,-y,1/2+z
1/2+x,1/2-y,-z
1/2-x,y,1/2-z
1/2-x,1/2-y,-z
1/2+x,y,1/2-z
1/2-x,1/2+y,z
1/2+x,-y,1/2+z
loop_
_atom_site_type_symbol
_atom_site_label
_atom_site_fract_x
_atom_site_fract_y
_atom_site_fract_z
Si Si1 0.109428 0.714720 0.416107
Si Si2 0.393349 0.394136 0.010226
Si Si3 0.771625 0.142759 0.905898
Si Si4 0.101149 0.905331 0.687383
Si Si5 0.601590 0.700878 0.823562
Si Si6 0.652669 0.529362 0.770579
Si Si7 0.717014 0.945984 0.637074
O O1 0.114355 0.673184 0.466741
O O2 0.167871 0.812425 0.412455
O O3 0.159687 0.639855 0.383512
O O4 0.000000 0.731363 0.402109
O O5 0.500000 0.400920 0.027889
O O6 0.331583 0.341418 0.048338
O O7 0.357224 0.500000 0.000000
O O8 0.818467 0.189959 0.861532
O O9 0.773983 0.031320 0.898362
O O10 0.116841 0.798256 0.703203
O O11 0.000000 0.918608 0.663859
O O12 0.100662 0.969267 0.732417
O O13 0.175627 0.925554 0.648185
O O14 0.500000 0.698219 0.848235
O O15 0.599101 0.623508 0.783603
O O16 0.750000 0.562678 0.750000
O O17 0.662458 0.468579 0.816391
#
# Coordination Sequence:
#
# PCOD8262934 Si02
#       7
#    16  16  16  16  16  16  16
#     4  11  23  39  60  90 122 154 197 241 292 353
#     4  10  20  36  62  92 118 153 197 243 293 348
#     4  11  21  38  62  86 120 153 192 244 296 349
#     4  10  20  37  56  80 115 150 191 240 291 349
#     4  10  20  34  58  86 111 147 195 238 287 348
#     4   9  20  35  55  80 112 152 190 238 289 344
#     4  10  21  38  58  84 115 154 192 240 294 349
#
# _framework density 18.816199999999998
#
# number of rings (size 3 to 8) (size 9 to 14) (size 15 to 20)
#    0.000    1.857    2.857    1.286    0.000    5.143 
#    2.571    0.000    0.000    0.429    0.000    0.000 
#    0.000    0.000    0.000    0.000    0.000    0.000 
#
# Total GULP energy -694004.497455 kJ/mol
# GULP energy per Si atom -12392.937455 kJ/mol
# Density = 1.877337 g / cm^3
# Si number density = 18.816200 Si / 1000 Ang^3
#
#
#
# Elastic Constant Matrix: (Units=GPa)
#
#
# Indices 1 2 3 4 5 6 
#
# 1 111.5330 34.4396 38.6795 0.0000 0.0000 0.0000
# 2 34.4396 57.1110 20.8908 0.0000 0.0000 0.0000
# 3 38.6795 20.8908 79.0063 0.0000 0.0000 0.0000
# 4 0.0000 0.0000 0.0000 12.4174 0.0000 0.0000
# 5 0.0000 0.0000 0.0000 0.0000 -12.6155 0.0000
# 6 0.0000 0.0000 0.0000 0.0000 0.0000 9.7667
#
#
#
# Elastic Compliance Matrix: (Units=1/GPa)
#
#
# Indices 1 2 3 4 5 6 
#
# 1 0.012310 -0.005778 -0.004499 0.000000 0.000000 0.000000
# 2 -0.005778 0.022096 -0.003014 0.000000 0.000000 0.000000
# 3 -0.004499 -0.003014 0.015657 0.000000 0.000000 0.000000
# 4 0.000000 0.000000 0.000000 0.080532 0.000000 0.000000
# 5 0.000000 0.000000 0.000000 0.000000 -0.079267 0.000000
# 6 0.000000 0.000000 0.000000 0.000000 0.000000 0.102389
#
#
# Mechanical properties :
#
#
# Convention : Reuss Voigt Hill
#
# Bulk Modulus (GPa) = 42.58621 48.40779 45.49700
# Shear Modulus (GPa) = 26.57793 12.15641 19.36717
#
# Velocity S-wave (km/s) = 3.76240 2.54453 3.21172
# Velocity P-wave (km/s) = 6.44640 5.86646 6.16326
#
# Compressibility (1/GPa) = 0.02348178
#
# Stress axis : x y z
#
# Youngs Moduli (GPa) = 81.23270 45.25616 63.86991
#
# Poissons Ratio (x) = 0.26148 0.28736
# Poissons Ratio (y) = 0.46934 0.19251
# Poissons Ratio (z) = 0.36547 0.13641
#
# Static dielectric constant tensor:
#      x y z
#    x 3.567750 0.000000 0.000000 
#    y 0.000000 3.545870 0.000000 
#    z 0.000000 0.000000 3.419470 
# 
# 
# High freq. dielectric constant tensor:
#      x y z
#    x 1.738000 0.000000 0.000000 
#    y 0.000000 1.733920 0.000000 
#    z 0.000000 0.000000 1.720740 
# 
# From -- ./inp_files/50042.got.cif
#   From: 2010.03.12/outbox.cif.g09.slc.cpg/sg64_26_cif.got.tgz:50042.got - 2010.04.10 20:19:32.
