data_PCOD8262979
_publ_section_title
;
Structure prediction by ZEFSAII (Michael W. Deem and Ramdas Pophale) SiO2 
 PCOD8262979
Probable space group: C M C A
;
_chemical_formula_sum "Si O2"
_cell_formula_units_Z 64
_cell_length_a 8.605454
_cell_length_b 28.085352
_cell_length_c 13.932845
_cell_angle_alpha 90.000000
_cell_angle_beta 90.000000
_cell_angle_gamma 90.000000
_cell_volume 3367.390362
_symmetry_space_group_name_H-M "C M C A"
_symmetry_group_IT_number 64
_symmetry_cell_setting 'orthorhombic'
loop_
_space_group_symop_operation_xyz
x,y,z
-x,1/2-y,1/2+z
x,-y,-z
-x,1/2+y,1/2-z
-x,-y,-z
x,1/2+y,1/2-z
-x,y,z
x,1/2-y,1/2+z
1/2+x,1/2+y,z
1/2-x,-y,1/2+z
1/2+x,1/2-y,-z
1/2-x,y,1/2-z
1/2-x,1/2-y,-z
1/2+x,y,1/2-z
1/2-x,1/2+y,z
1/2+x,-y,1/2+z
loop_
_atom_site_type_symbol
_atom_site_label
_atom_site_fract_x
_atom_site_fract_y
_atom_site_fract_z
Si Si1 0.182405 0.741372 0.351624
Si Si2 0.817038 0.679104 0.529253
Si Si3 0.815904 0.492399 0.853515
Si Si4 0.316035 0.070355 0.517150
O O1 0.250000 0.725703 0.250000
O O2 0.240352 0.702836 0.429815
O O3 0.239429 0.793981 0.381168
O O4 0.000000 0.741818 0.343256
O O5 0.763630 0.624571 0.531591
O O6 0.000000 0.684089 0.540665
O O7 0.750000 0.479220 0.750000
O O8 0.771666 0.449371 0.923934
O O9 0.000000 0.498926 0.850595
O O10 0.736643 0.541242 0.889171
O O11 0.500000 0.065240 0.501915
#
# Coordination Sequence:
#
# PCOD8262979 Si02
#       4
#    16  16  16  16
#     4  10  20  35  55  79 108 141 177 218 263 312
#     4   9  20  37  56  79 107 140 177 218 264 315
#     4  11  22  37  56  80 109 142 180 219 265 317
#     4  10  20  37  58  81 109 139 176 222 270 318
#
# _framework density 19.005817
#
# number of rings (size 3 to 8) (size 9 to 14) (size 15 to 20)
#    0.000    2.000    0.000    5.250    0.000    5.000 
#    0.000    2.500    0.000    0.000    0.000    0.000 
#    0.000    0.000    0.000    0.000    0.000    0.000 
#
# Total GULP energy -396918.415923 kJ/mol
# GULP energy per Si atom -12403.700498 kJ/mol
# Density = 1.896256 g / cm^3
# Si number density = 19.005817 Si / 1000 Ang^3
#
#
#
# Elastic Constant Matrix: (Units=GPa)
#
#
# Indices 1 2 3 4 5 6 
#
# 1 59.6899 18.1081 10.9238 0.0000 0.0000 0.0000
# 2 18.1081 76.1318 -18.9093 0.0000 0.0000 0.0000
# 3 10.9238 -18.9093 60.2351 0.0000 0.0000 0.0000
# 4 0.0000 0.0000 0.0000 14.4275 0.0000 0.0000
# 5 0.0000 0.0000 0.0000 0.0000 37.4989 0.0000
# 6 0.0000 0.0000 0.0000 0.0000 0.0000 28.1749
#
#
#
# Elastic Compliance Matrix: (Units=1/GPa)
#
#
# Indices 1 2 3 4 5 6 
#
# 1 0.019569 -0.006004 -0.005434 0.000000 0.000000 0.000000
# 2 -0.006004 0.016088 0.006139 0.000000 0.000000 0.000000
# 3 -0.005434 0.006139 0.019514 0.000000 0.000000 0.000000
# 4 0.000000 0.000000 0.000000 0.069312 0.000000 0.000000
# 5 0.000000 0.000000 0.000000 0.000000 0.026667 0.000000
# 6 0.000000 0.000000 0.000000 0.000000 0.000000 0.035493
#
#
# Mechanical properties :
#
#
# Convention : Reuss Voigt Hill
#
# Bulk Modulus (GPa) = 22.43445 24.03355 23.23400
# Shear Modulus (GPa) = 23.57386 28.41586 25.99486
#
# Velocity S-wave (km/s) = 3.52568 3.87086 3.70230
# Velocity P-wave (km/s) = 5.32950 5.71410 5.52515
#
# Compressibility (1/GPa) = 0.04457431
#
# Stress axis : x y z
#
# Youngs Moduli (GPa) = 51.10075 62.15776 51.24438
#
# Poissons Ratio (x) = 0.37321 0.27845
# Poissons Ratio (y) = 0.30682 -0.31461
# Poissons Ratio (z) = 0.27767 -0.38161
#
# Static dielectric constant tensor:
#      x y z
#    x 3.517060 0.000000 0.000000 
#    y 0.000000 3.562800 0.000000 
#    z 0.000000 0.000000 3.612010 
# 
# 
# High freq. dielectric constant tensor:
#      x y z
#    x 1.748860 0.000000 0.000000 
#    y 0.000000 1.737570 0.000000 
#    z 0.000000 0.000000 1.740960 
# 
# From -- ./inp_files/12130.got.cif
#   From: 2010.03.12/outbox.cif.g09.slc.cpg/sg64_7_cif.got.tgz:12130.got - 2010.04.10 20:19:32.
