data_PCOD8262278
_publ_section_title
;
Structure prediction by ZEFSAII (Michael W. Deem and Ramdas Pophale) SiO2 
 PCOD8262278
Probable space group: C M C A
;
_chemical_formula_sum "Si O2"
_cell_formula_units_Z 104
_cell_length_a 33.472846
_cell_length_b 33.936065
_cell_length_c 5.128870
_cell_angle_alpha 90.000000
_cell_angle_beta 90.000000
_cell_angle_gamma 90.000000
_cell_volume 5826.071548
_symmetry_space_group_name_H-M "C M C A"
_symmetry_group_IT_number 64
_symmetry_cell_setting 'orthorhombic'
loop_
_space_group_symop_operation_xyz
x,y,z
-x,1/2-y,1/2+z
x,-y,-z
-x,1/2+y,1/2-z
-x,-y,-z
x,1/2+y,1/2-z
-x,y,z
x,1/2-y,1/2+z
1/2+x,1/2+y,z
1/2-x,-y,1/2+z
1/2+x,1/2-y,-z
1/2-x,y,1/2-z
1/2-x,1/2-y,-z
1/2+x,y,1/2-z
1/2-x,1/2+y,z
1/2+x,-y,1/2+z
loop_
_atom_site_type_symbol
_atom_site_label
_atom_site_fract_x
_atom_site_fract_y
_atom_site_fract_z
Si Si1 0.222344 0.414293 0.501010
Si Si2 0.046421 0.929386 0.544674
Si Si3 0.639232 0.119586 0.529455
Si Si4 0.454541 0.275515 0.469652
Si Si5 0.276656 0.000000 0.500000
Si Si6 0.411870 0.456464 0.043169
Si Si7 0.903504 0.852604 0.531706
O O1 0.250000 0.409510 0.250000
O O2 0.187166 0.382141 0.490979
O O3 0.200585 0.457886 0.517522
O O4 0.250000 0.406563 0.750000
O O5 0.068686 0.955441 0.328476
O O6 0.061353 0.884592 0.528474
O O7 0.000000 0.929749 0.483601
O O8 0.054196 0.947671 0.828373
O O9 0.623288 0.074975 0.514733
O O10 0.621819 0.145591 0.295866
O O11 0.627122 0.140602 0.796348
O O12 0.500000 0.291362 0.493278
O O13 0.446733 0.242141 0.684738
O O14 0.423610 0.310373 0.512213
O O15 0.250000 0.995601 0.250000
O O16 0.393587 0.500000 0.000000
#
# Coordination Sequence:
#
# PCOD8262278 Si02
#       7
#    16  16  16  16   8  16  16
#     4  10  19  33  51  74 100 129 173 217 261 313
#     4  10  20  33  49  67  91 131 172 210 254 290
#     4  10  21  34  52  72 102 140 167 210 259 307
#     4  10  20  34  56  84 111 140 170 206 249 299
#     4   8  16  28  44  68  94 124 159 208 265 304
#     4  10  21  33  46  67  93 128 173 217 257 291
#     4  10  20  36  51  75 107 135 168 201 252 311
#
# _framework density 17.850795000000002
#
# number of rings (size 3 to 8) (size 9 to 14) (size 15 to 20)
#    0.000    2.154    0.000    3.231    1.077    1.846 
#    0.000    4.615    0.000    0.000    0.000    0.000 
#    0.000   43.077    0.000    0.000    0.000    0.000 
#
# Total GULP energy -644678.196808 kJ/mol
# GULP energy per Si atom -12397.657631 kJ/mol
# Density = 1.781017 g / cm^3
# Si number density = 17.850795 Si / 1000 Ang^3
#
#
#
# Elastic Constant Matrix: (Units=GPa)
#
#
# Indices 1 2 3 4 5 6 
#
# 1 77.6465 31.6219 14.9340 0.0000 0.0000 0.0000
# 2 31.6219 64.8167 4.7926 0.0000 0.0000 0.0000
# 3 14.9340 4.7926 89.4032 0.0000 0.0000 0.0000
# 4 0.0000 0.0000 0.0000 13.6236 0.0000 0.0000
# 5 0.0000 0.0000 0.0000 0.0000 13.4836 0.0000
# 6 0.0000 0.0000 0.0000 0.0000 0.0000 21.6436
#
#
#
# Elastic Compliance Matrix: (Units=1/GPa)
#
#
# Indices 1 2 3 4 5 6 
#
# 1 0.016546 -0.007899 -0.002340 0.000000 0.000000 0.000000
# 2 -0.007899 0.019261 0.000287 0.000000 0.000000 0.000000
# 3 -0.002340 0.000287 0.011561 0.000000 0.000000 0.000000
# 4 0.000000 0.000000 0.000000 0.073402 0.000000 0.000000
# 5 0.000000 0.000000 0.000000 0.000000 0.074164 0.000000
# 6 0.000000 0.000000 0.000000 0.000000 0.000000 0.046203
#
#
# Mechanical properties :
#
#
# Convention : Reuss Voigt Hill
#
# Bulk Modulus (GPa) = 36.41358 37.17370 36.79364
# Shear Modulus (GPa) = 18.50507 21.78469 20.14488
#
# Velocity S-wave (km/s) = 3.22320 3.49718 3.36298
# Velocity P-wave (km/s) = 5.85621 6.09729 5.97796
#
# Compressibility (1/GPa) = 0.02746229
#
# Stress axis : x y z
#
# Youngs Moduli (GPa) = 60.43751 51.91931 86.49885
#
# Poissons Ratio (x) = 0.41012 0.20244
# Poissons Ratio (y) = 0.47741 -0.02483
# Poissons Ratio (z) = 0.14145 -0.01490
#
# Static dielectric constant tensor:
#      x y z
#    x 3.005480 0.000000 0.000000 
#    y 0.000000 3.124410 0.000000 
#    z 0.000000 0.000000 3.376280 
# 
# 
# High freq. dielectric constant tensor:
#      x y z
#    x 1.671120 0.000000 0.000000 
#    y 0.000000 1.666830 0.000000 
#    z 0.000000 0.000000 1.715980 
# 
# From -- ./inp_files/3477.got.cif
#   From: 2010.03.12/outbox.cif.g09.slc.cpg/sg64_2_cif.got.tgz:3477.got - 2010.04.10 20:19:32.
