data_PCOD8262910
_publ_section_title
;
Structure prediction by ZEFSAII (Michael W. Deem and Ramdas Pophale) SiO2 
 PCOD8262910
Probable space group: C M C A
;
_chemical_formula_sum "Si O2"
_cell_formula_units_Z 96
_cell_length_a 26.504973
_cell_length_b 19.881874
_cell_length_c 8.793524
_cell_angle_alpha 90.000000
_cell_angle_beta 90.000000
_cell_angle_gamma 90.000000
_cell_volume 4633.910447
_symmetry_space_group_name_H-M "C M C A"
_symmetry_group_IT_number 64
_symmetry_cell_setting 'orthorhombic'
loop_
_space_group_symop_operation_xyz
x,y,z
-x,1/2-y,1/2+z
x,-y,-z
-x,1/2+y,1/2-z
-x,-y,-z
x,1/2+y,1/2-z
-x,y,z
x,1/2-y,1/2+z
1/2+x,1/2+y,z
1/2-x,-y,1/2+z
1/2+x,1/2-y,-z
1/2-x,y,1/2-z
1/2-x,1/2-y,-z
1/2+x,y,1/2-z
1/2-x,1/2+y,z
1/2+x,-y,1/2+z
loop_
_atom_site_type_symbol
_atom_site_label
_atom_site_fract_x
_atom_site_fract_y
_atom_site_fract_z
Si Si1 0.394535 0.918236 0.607811
Si Si2 0.442046 0.674006 0.658811
Si Si3 0.557809 0.959995 0.297786
Si Si4 0.106254 0.783081 0.035857
Si Si5 0.218965 0.936779 0.902038
Si Si6 0.221514 0.805080 0.092594
O O1 0.405924 0.939791 0.435202
O O2 0.400830 0.836919 0.604775
O O3 0.338620 0.940384 0.650378
O O4 0.429701 0.959994 0.729768
O O5 0.500000 0.689180 0.616642
O O6 0.431584 0.592388 0.658883
O O7 0.406107 0.709845 0.535077
O O8 0.432454 0.701378 0.828847
O O9 0.500000 0.952508 0.348096
O O10 0.162506 0.785153 0.106325
O O11 0.250000 0.930597 0.750000
O O12 0.228839 0.874210 0.008279
O O13 0.236544 0.000000 0.000000
O O14 0.250000 0.811723 0.250000
O O15 0.250000 0.750000 0.000000
#
# Coordination Sequence:
#
# PCOD8262910 Si02
#       6
#    16  16  16  16  16  16
#     4   9  17  33  56  79 115 144 198 247 294 354
#     4  10  20  34  55  86 119 151 193 244 302 361
#     4   9  16  30  57  86 112 146 192 248 301 359
#     4  10  21  36  58  85 115 157 197 250 301 360
#     4  11  22  38  59  87 123 163 208 257 313 367
#     4  11  23  41  63  88 121 162 208 257 309 376
#
# _framework density 20.716844999999999
#
# number of rings (size 3 to 8) (size 9 to 14) (size 15 to 20)
#    0.000    2.000    1.667    3.500    0.000    3.333 
#    3.000    0.000    0.000    0.000    0.000    3.500 
#    0.000    0.000    0.000    0.000    0.000    0.000 
#
# Total GULP energy -594765.855638 kJ/mol
# GULP energy per Si atom -12390.955326 kJ/mol
# Density = 2.066969 g / cm^3
# Si number density = 20.716845 Si / 1000 Ang^3
#
#
#
# Elastic Constant Matrix: (Units=GPa)
#
#
# Indices 1 2 3 4 5 6 
#
# 1 115.7782 47.2845 43.8937 0.0000 0.0000 0.0000
# 2 47.2845 100.4496 26.4054 0.0000 0.0000 0.0000
# 3 43.8937 26.4054 72.8391 0.0000 0.0000 0.0000
# 4 0.0000 0.0000 0.0000 32.0857 0.0000 0.0000
# 5 0.0000 0.0000 0.0000 0.0000 36.9363 0.0000
# 6 0.0000 0.0000 0.0000 0.0000 0.0000 33.0276
#
#
#
# Elastic Compliance Matrix: (Units=1/GPa)
#
#
# Indices 1 2 3 4 5 6 
#
# 1 0.012739 -0.004398 -0.006083 0.000000 0.000000 0.000000
# 2 -0.004398 0.012522 -0.001889 0.000000 0.000000 0.000000
# 3 -0.006083 -0.001889 0.018079 0.000000 0.000000 0.000000
# 4 0.000000 0.000000 0.000000 0.031167 0.000000 0.000000
# 5 0.000000 0.000000 0.000000 0.000000 0.027074 0.000000
# 6 0.000000 0.000000 0.000000 0.000000 0.000000 0.030278
#
#
# Mechanical properties :
#
#
# Convention : Reuss Voigt Hill
#
# Bulk Modulus (GPa) = 53.75985 58.24824 56.00404
# Shear Modulus (GPa) = 30.71285 31.84213 31.27749
#
# Velocity S-wave (km/s) = 3.85451 3.92473 3.88978
# Velocity P-wave (km/s) = 6.76874 6.97965 6.87500
#
# Compressibility (1/GPa) = 0.01860124
#
# Stress axis : x y z
#
# Youngs Moduli (GPa) = 78.49704 79.85907 55.31208
#
# Poissons Ratio (x) = 0.35121 0.33644
# Poissons Ratio (y) = 0.34522 0.10450
# Poissons Ratio (z) = 0.47747 0.15087
#
# Static dielectric constant tensor:
#      x y z
#    x 3.982400 0.000000 0.000000 
#    y 0.000000 4.546520 0.000000 
#    z 0.000000 0.000000 3.186250 
# 
# 
# High freq. dielectric constant tensor:
#      x y z
#    x 1.818280 0.000000 0.000000 
#    y 0.000000 1.830610 0.000000 
#    z 0.000000 0.000000 1.768970 
# 
# From -- ./inp_files/10374.got.cif
#   From: 2010.03.12/outbox.cif.g09.slc.cpg/sg64_6_cif.got.tgz:10374.got - 2010.04.10 20:19:32.
