data_PCOD8262334
_publ_section_title
;
Structure prediction by ZEFSAII (Michael W. Deem and Ramdas Pophale) SiO2 
 PCOD8262334
Probable space group: C M C A
;
_chemical_formula_sum "Si O2"
_cell_formula_units_Z 80
_cell_length_a 9.338723
_cell_length_b 15.223959
_cell_length_c 28.906541
_cell_angle_alpha 90.000000
_cell_angle_beta 90.000000
_cell_angle_gamma 90.000000
_cell_volume 4109.710462
_symmetry_space_group_name_H-M "C M C A"
_symmetry_group_IT_number 64
_symmetry_cell_setting 'orthorhombic'
loop_
_space_group_symop_operation_xyz
x,y,z
-x,1/2-y,1/2+z
x,-y,-z
-x,1/2+y,1/2-z
-x,-y,-z
x,1/2+y,1/2-z
-x,y,z
x,1/2-y,1/2+z
1/2+x,1/2+y,z
1/2-x,-y,1/2+z
1/2+x,1/2-y,-z
1/2-x,y,1/2-z
1/2-x,1/2-y,-z
1/2+x,y,1/2-z
1/2-x,1/2+y,z
1/2+x,-y,1/2+z
loop_
_atom_site_type_symbol
_atom_site_label
_atom_site_fract_x
_atom_site_fract_y
_atom_site_fract_z
Si Si1 0.163931 0.145760 0.116774
Si Si2 0.331552 0.485526 0.052168
Si Si3 0.336504 0.896423 0.206156
Si Si4 0.665672 0.603237 0.294597
Si Si5 0.163970 0.158271 0.606202
O O1 0.214526 0.070839 0.081363
O O2 0.266790 0.148036 0.160676
O O3 0.177526 0.239918 0.091466
O O4 0.000000 0.129396 0.132864
O O5 0.500000 0.469438 0.054300
O O6 0.257244 0.398613 0.071377
O O7 0.278691 0.500000 0.000000
O O8 0.500000 0.871563 0.215433
O O9 0.250000 0.858908 0.250000
O O10 0.280084 0.852269 0.158958
O O11 0.312852 0.999667 0.200666
O O12 0.500000 0.629693 0.290399
O O13 0.750000 0.639188 0.250000
O O14 0.000000 0.125255 0.603536
#
# Coordination Sequence:
#
# PCOD8262334 Si02
#       5
#    16  16  16  16  16
#     4  10  21  37  58  83 115 150 186 232 283 334
#     4  10  22  40  60  83 112 146 186 235 290 343
#     4   9  18  32  52  78 109 144 183 222 264 321
#     4  10  19  33  55  82 114 151 190 228 272 329
#     4  10  21  38  58  84 114 147 188 232 279 335
#
# _framework density 19.466090999999999
#
# number of rings (size 3 to 8) (size 9 to 14) (size 15 to 20)
#    0.000    2.200    2.000    0.600    0.000    4.400 
#    0.000    2.000    0.000    0.000    0.000    0.000 
#    0.000    0.000    0.000    0.000    0.000    0.000 
#
# Total GULP energy -496124.061843 kJ/mol
# GULP energy per Si atom -12403.101546 kJ/mol
# Density = 1.942179 g / cm^3
# Si number density = 19.466091 Si / 1000 Ang^3
#
#
#
# Elastic Constant Matrix: (Units=GPa)
#
#
# Indices 1 2 3 4 5 6 
#
# 1 72.9885 38.3491 49.8676 0.0000 0.0000 0.0000
# 2 38.3491 79.3012 46.3184 0.0000 0.0000 0.0000
# 3 49.8676 46.3184 125.0817 0.0000 0.0000 0.0000
# 4 0.0000 0.0000 0.0000 9.4864 0.0000 0.0000
# 5 0.0000 0.0000 0.0000 0.0000 33.3639 0.0000
# 6 0.0000 0.0000 0.0000 0.0000 0.0000 22.6201
#
#
#
# Elastic Compliance Matrix: (Units=1/GPa)
#
#
# Indices 1 2 3 4 5 6 
#
# 1 0.021392 -0.006844 -0.005994 0.000000 0.000000 0.000000
# 2 -0.006844 0.018280 -0.004041 0.000000 0.000000 0.000000
# 3 -0.005994 -0.004041 0.011881 0.000000 0.000000 0.000000
# 4 0.000000 0.000000 0.000000 0.105414 0.000000 0.000000
# 5 0.000000 0.000000 0.000000 0.000000 0.029973 0.000000
# 6 0.000000 0.000000 0.000000 0.000000 0.000000 0.044208
#
#
# Mechanical properties :
#
#
# Convention : Reuss Voigt Hill
#
# Bulk Modulus (GPa) = 56.19468 60.71574 58.45521
# Shear Modulus (GPa) = 18.46131 22.61650 20.53891
#
# Velocity S-wave (km/s) = 3.08292 3.41228 3.25177
# Velocity P-wave (km/s) = 6.45006 6.83981 6.64779
#
# Compressibility (1/GPa) = 0.01779528
#
# Stress axis : x y z
#
# Youngs Moduli (GPa) = 46.74628 54.70521 84.16907
#
# Poissons Ratio (x) = 0.37439 0.50453
# Poissons Ratio (y) = 0.31992 0.34010
# Poissons Ratio (z) = 0.28021 0.22104
#
# Static dielectric constant tensor:
#      x y z
#    x 3.485210 0.000000 0.000000 
#    y 0.000000 3.465290 0.000000 
#    z 0.000000 0.000000 3.544870 
# 
# 
# High freq. dielectric constant tensor:
#      x y z
#    x 1.751490 0.000000 0.000000 
#    y 0.000000 1.758000 0.000000 
#    z 0.000000 0.000000 1.752490 
# 
# From -- ./inp_files/47832.got.cif
#   From: 2010.03.12/outbox.cif.g09.slc.cpg/sg64_24_cif.got.tgz:47832.got - 2010.04.10 20:19:32.
