data_PCOD8262963
_publ_section_title
;
Structure prediction by ZEFSAII (Michael W. Deem and Ramdas Pophale) SiO2 
 PCOD8262963
Probable space group: C M C A
;
_chemical_formula_sum "Si O2"
_cell_formula_units_Z 96
_cell_length_a 8.886492
_cell_length_b 27.345126
_cell_length_c 19.472255
_cell_angle_alpha 90.000000
_cell_angle_beta 90.000000
_cell_angle_gamma 90.000000
_cell_volume 4731.801650
_symmetry_space_group_name_H-M "C M C A"
_symmetry_group_IT_number 64
_symmetry_cell_setting 'orthorhombic'
loop_
_space_group_symop_operation_xyz
x,y,z
-x,1/2-y,1/2+z
x,-y,-z
-x,1/2+y,1/2-z
-x,-y,-z
x,1/2+y,1/2-z
-x,y,z
x,1/2-y,1/2+z
1/2+x,1/2+y,z
1/2-x,-y,1/2+z
1/2+x,1/2-y,-z
1/2-x,y,1/2-z
1/2-x,1/2-y,-z
1/2+x,y,1/2-z
1/2-x,1/2+y,z
1/2+x,-y,1/2+z
loop_
_atom_site_type_symbol
_atom_site_label
_atom_site_fract_x
_atom_site_fract_y
_atom_site_fract_z
Si Si1 0.821499 0.708650 0.047591
Si Si2 0.678409 0.598881 0.451184
Si Si3 0.174594 0.858726 0.319383
Si Si4 0.678743 0.036969 0.174588
Si Si5 0.178137 0.247750 0.178408
Si Si6 0.322433 0.554340 0.587369
O O1 0.768148 0.653617 0.028456
O O2 0.762489 0.714443 0.124241
O O3 0.000000 0.714229 0.043021
O O4 0.750000 0.750000 0.000000
O O5 0.500000 0.598265 0.454206
O O6 0.727650 0.582655 0.374208
O O7 0.736982 0.559295 0.508404
O O8 0.250000 0.876791 0.250000
O O9 0.219359 0.803735 0.339571
O O10 0.226568 0.894203 0.379689
O O11 0.000000 0.862489 0.305284
O O12 0.500000 0.034004 0.184508
O O13 0.750000 0.042006 0.250000
O O14 0.744094 0.989729 0.133267
O O15 0.250000 0.232233 0.250000
O O16 0.000000 0.238376 0.178152
O O17 0.500000 0.546702 0.586672
#
# Coordination Sequence:
#
# PCOD8262963 Si02
#       6
#    16  16  16  16  16  16
#     4  11  22  37  57  81 110 144 185 231 279 329
#     4   9  19  35  55  79 105 137 179 223 264 314
#     4   9  17  29  48  75 106 138 172 218 269 317
#     4  10  20  35  57  82 108 139 174 214 261 316
#     4  10  20  35  54  78 110 146 186 230 277 329
#     4   9  16  30  54  80 104 134 175 218 261 313
#
# _framework density 20.288253999999998
#
# number of rings (size 3 to 8) (size 9 to 14) (size 15 to 20)
#    0.000    2.333    0.000    3.000    0.000    6.000 
#    0.000    3.333    0.000    5.000    0.000    0.000 
#    0.000    0.000    0.000    0.000    0.000    0.000 
#
# Total GULP energy -594812.505292 kJ/mol
# GULP energy per Si atom -12391.927194 kJ/mol
# Density = 2.024208 g / cm^3
# Si number density = 20.288254 Si / 1000 Ang^3
#
#
#
# Elastic Constant Matrix: (Units=GPa)
#
#
# Indices 1 2 3 4 5 6 
#
# 1 37.4707 26.4148 32.9111 0.0000 0.0000 0.0000
# 2 26.4148 104.2110 72.0723 0.0000 0.0000 0.0000
# 3 32.9111 72.0723 150.9422 0.0000 0.0000 0.0000
# 4 0.0000 0.0000 0.0000 41.2260 0.0000 0.0000
# 5 0.0000 0.0000 0.0000 0.0000 35.0282 0.0000
# 6 0.0000 0.0000 0.0000 0.0000 0.0000 18.6059
#
#
#
# Elastic Compliance Matrix: (Units=1/GPa)
#
#
# Indices 1 2 3 4 5 6 
#
# 1 0.034899 -0.005350 -0.005055 0.000000 0.000000 0.000000
# 2 -0.005350 0.015147 -0.006066 0.000000 0.000000 0.000000
# 3 -0.005055 -0.006066 0.010624 0.000000 0.000000 0.000000
# 4 0.000000 0.000000 0.000000 0.024257 0.000000 0.000000
# 5 0.000000 0.000000 0.000000 0.000000 0.028548 0.000000
# 6 0.000000 0.000000 0.000000 0.000000 0.000000 0.053746
#
#
# Mechanical properties :
#
#
# Convention : Reuss Voigt Hill
#
# Bulk Modulus (GPa) = 36.06472 61.71337 48.88905
# Shear Modulus (GPa) = 23.87718 29.72041 26.79880
#
# Velocity S-wave (km/s) = 3.43431 3.83156 3.63836
# Velocity P-wave (km/s) = 5.79144 7.07523 6.46528
#
# Compressibility (1/GPa) = 0.02772793
#
# Stress axis : x y z
#
# Youngs Moduli (GPa) = 28.65443 66.01841 94.13015
#
# Poissons Ratio (x) = 0.35320 0.47580
# Poissons Ratio (y) = 0.15330 0.57100
# Poissons Ratio (z) = 0.14484 0.40047
#
# Static dielectric constant tensor:
#      x y z
#    x 3.305240 0.000000 0.000000 
#    y 0.000000 4.043380 0.000000 
#    z 0.000000 0.000000 3.917750 
# 
# 
# High freq. dielectric constant tensor:
#      x y z
#    x 1.746950 0.000000 0.000000 
#    y 0.000000 1.798580 0.000000 
#    z 0.000000 0.000000 1.809990 
# 
# From -- ./inp_files/36948.got.cif
#   From: 2010.03.12/outbox.cif.g09.slc.cpg/sg64_19_cif.got.tgz:36948.got - 2010.04.10 20:19:32.
