data_PCOD8262120
_publ_section_title
;
Structure prediction by ZEFSAII (Michael W. Deem and Ramdas Pophale) SiO2 
 PCOD8262120
Probable space group: C M C A
;
_chemical_formula_sum "Si O2"
_cell_formula_units_Z 64
_cell_length_a 8.844976
_cell_length_b 22.975233
_cell_length_c 19.150598
_cell_angle_alpha 90.000000
_cell_angle_beta 90.000000
_cell_angle_gamma 90.000000
_cell_volume 3891.696136
_symmetry_space_group_name_H-M "C M C A"
_symmetry_group_IT_number 64
_symmetry_cell_setting 'orthorhombic'
loop_
_space_group_symop_operation_xyz
x,y,z
-x,1/2-y,1/2+z
x,-y,-z
-x,1/2+y,1/2-z
-x,-y,-z
x,1/2+y,1/2-z
-x,y,z
x,1/2-y,1/2+z
1/2+x,1/2+y,z
1/2-x,-y,1/2+z
1/2+x,1/2-y,-z
1/2-x,y,1/2-z
1/2-x,1/2-y,-z
1/2+x,y,1/2-z
1/2-x,1/2+y,z
1/2+x,-y,1/2+z
loop_
_atom_site_type_symbol
_atom_site_label
_atom_site_fract_x
_atom_site_fract_y
_atom_site_fract_z
Si Si1 0.179009 0.002075 0.177386
Si Si2 0.821619 0.091239 0.589119
Si Si3 0.671127 0.924498 0.547193
Si Si4 0.671356 0.809618 0.481202
O O1 0.250000 0.022626 0.250000
O O2 0.231179 0.050071 0.120150
O O3 0.000000 0.997679 0.184512
O O4 0.246862 0.939352 0.156230
O O5 0.770761 0.054513 0.519734
O O6 0.758429 0.157563 0.582616
O O7 0.000000 0.091967 0.597447
O O8 0.500000 0.946007 0.533684
O O9 0.676867 0.853408 0.548352
O O10 0.500000 0.796916 0.457900
O O11 0.750000 0.750000 0.500000
#
# Coordination Sequence:
#
# PCOD8262120 Si02
#       4
#    16  16  16  16
#     4  11  21  34  49  71 102 135 164 200 247 295
#     4  10  19  31  50  75 100 129 164 204 244 293
#     4   8  18  33  50  70 100 131 160 202 250 292
#     4   9  17  31  50  75  99 126 163 207 248 289
#
# _framework density 16.445271999999999
#
# number of rings (size 3 to 8) (size 9 to 14) (size 15 to 20)
#    1.500    1.000    0.000    3.750    0.000    5.000 
#    0.000    0.000    0.000    1.500    0.000    7.000 
#    0.000    0.000    0.000    0.000    0.000    0.000 
#
# Total GULP energy -396435.142688 kJ/mol
# GULP energy per Si atom -12388.598209 kJ/mol
# Density = 1.640784 g / cm^3
# Si number density = 16.445272 Si / 1000 Ang^3
#
#
#
# Elastic Constant Matrix: (Units=GPa)
#
#
# Indices 1 2 3 4 5 6 
#
# 1 107.5551 21.4716 30.1169 0.0000 0.0000 0.0000
# 2 21.4716 68.5190 22.3187 0.0000 0.0000 0.0000
# 3 30.1169 22.3187 76.1879 0.0000 0.0000 0.0000
# 4 0.0000 0.0000 0.0000 14.8187 0.0000 0.0000
# 5 0.0000 0.0000 0.0000 0.0000 27.2787 0.0000
# 6 0.0000 0.0000 0.0000 0.0000 0.0000 20.3904
#
#
#
# Elastic Compliance Matrix: (Units=1/GPa)
#
#
# Indices 1 2 3 4 5 6 
#
# 1 0.010745 -0.002193 -0.003605 0.000000 0.000000 0.000000
# 2 -0.002193 0.016582 -0.003991 0.000000 0.000000 0.000000
# 3 -0.003605 -0.003991 0.015720 0.000000 0.000000 0.000000
# 4 0.000000 0.000000 0.000000 0.067483 0.000000 0.000000
# 5 0.000000 0.000000 0.000000 0.000000 0.036659 0.000000
# 6 0.000000 0.000000 0.000000 0.000000 0.000000 0.049043
#
#
# Mechanical properties :
#
#
# Convention : Reuss Voigt Hill
#
# Bulk Modulus (GPa) = 42.60955 44.45293 43.53124
# Shear Modulus (GPa) = 22.35841 24.38787 23.37314
#
# Velocity S-wave (km/s) = 3.69123 3.85511 3.77406
# Velocity P-wave (km/s) = 6.64327 6.84875 6.74679
#
# Compressibility (1/GPa) = 0.02346892
#
# Stress axis : x y z
#
# Youngs Moduli (GPa) = 93.06854 60.30817 63.61515
#
# Poissons Ratio (x) = 0.13224 0.22933
# Poissons Ratio (y) = 0.20408 0.25386
# Poissons Ratio (z) = 0.33551 0.24067
#
# Static dielectric constant tensor:
#      x y z
#    x 3.084560 0.000000 0.000000 
#    y 0.000000 3.016090 0.000000 
#    z 0.000000 0.000000 2.900170 
# 
# 
# High freq. dielectric constant tensor:
#      x y z
#    x 1.645100 0.000000 0.000000 
#    y 0.000000 1.622600 0.000000 
#    z 0.000000 0.000000 1.596460 
# 
# From -- ./inp_files/29434.got.cif
#   From: 2010.03.12/outbox.cif.g09.slc.cpg/sg64_15_cif.got.tgz:29434.got - 2010.04.10 20:19:32.
