data_PCOD8262121
_publ_section_title
;
Structure prediction by ZEFSAII (Michael W. Deem and Ramdas Pophale) SiO2 
 PCOD8262121
Probable space group: C M C A
;
_chemical_formula_sum "Si O2"
_cell_formula_units_Z 80
_cell_length_a 9.135517
_cell_length_b 18.196330
_cell_length_c 25.808787
_cell_angle_alpha 90.000000
_cell_angle_beta 90.000000
_cell_angle_gamma 90.000000
_cell_volume 4290.269045
_symmetry_space_group_name_H-M "C M C A"
_symmetry_group_IT_number 64
_symmetry_cell_setting 'orthorhombic'
loop_
_space_group_symop_operation_xyz
x,y,z
-x,1/2-y,1/2+z
x,-y,-z
-x,1/2+y,1/2-z
-x,-y,-z
x,1/2+y,1/2-z
-x,y,z
x,1/2-y,1/2+z
1/2+x,1/2+y,z
1/2-x,-y,1/2+z
1/2+x,1/2-y,-z
1/2-x,y,1/2-z
1/2-x,1/2-y,-z
1/2+x,y,1/2-z
1/2-x,1/2+y,z
1/2+x,-y,1/2+z
loop_
_atom_site_type_symbol
_atom_site_label
_atom_site_fract_x
_atom_site_fract_y
_atom_site_fract_z
Si Si1 0.334425 0.841030 0.200012
Si Si2 0.169981 0.169495 0.401343
Si Si3 0.835205 0.834027 0.799800
Si Si4 0.167663 0.586342 0.995483
Si Si5 0.328615 0.339373 0.097490
O O1 0.500000 0.871269 0.199945
O O2 0.250000 0.872934 0.250000
O O3 0.332838 0.753517 0.201868
O O4 0.252674 0.868992 0.148637
O O5 0.258308 0.138290 0.352241
O O6 0.218566 0.122869 0.450909
O O7 0.208433 0.254187 0.412489
O O8 0.000000 0.159554 0.388345
O O9 0.750000 0.865972 0.750000
O O10 0.000000 0.864480 0.798564
O O11 0.000000 0.608216 0.982814
O O12 0.186692 0.500000 0.000000
O O13 0.273150 0.614686 0.950955
O O14 0.500000 0.352248 0.105163
#
# Coordination Sequence:
#
# PCOD8262121 Si02
#       5
#    16  16  16  16  16
#     4   9  16  27  45  71 102 131 160 196 240 289
#     4   9  18  32  50  73 100 129 163 202 243 289
#     4   9  16  26  44  71 101 130 159 195 240 288
#     4  10  21  36  52  70  96 131 167 205 250 295
#     4  10  19  31  50  75 101 129 163 203 244 289
#
# _framework density 18.646847999999999
#
# number of rings (size 3 to 8) (size 9 to 14) (size 15 to 20)
#    0.000    2.600    0.000    2.400    0.000    6.800 
#    0.000    0.000    0.000    1.200    0.000    5.600 
#    0.000    0.000    0.000    0.000    0.000    0.000 
#
# Total GULP energy -496079.405667 kJ/mol
# GULP energy per Si atom -12401.985142 kJ/mol
# Density = 1.860441 g / cm^3
# Si number density = 18.646848 Si / 1000 Ang^3
#
#
#
# Elastic Constant Matrix: (Units=GPa)
#
#
# Indices 1 2 3 4 5 6 
#
# 1 130.5134 28.9641 92.6090 0.0000 0.0000 0.0000
# 2 28.9641 34.7184 39.9459 0.0000 0.0000 0.0000
# 3 92.6090 39.9459 179.1417 0.0000 0.0000 0.0000
# 4 0.0000 0.0000 0.0000 -2.2240 0.0000 0.0000
# 5 0.0000 0.0000 0.0000 0.0000 43.8718 0.0000
# 6 0.0000 0.0000 0.0000 0.0000 0.0000 8.8009
#
#
#
# Elastic Compliance Matrix: (Units=1/GPa)
#
#
# Indices 1 2 3 4 5 6 
#
# 1 0.012506 -0.004028 -0.005567 0.000000 0.000000 0.000000
# 2 -0.004028 0.040041 -0.006846 0.000000 0.000000 0.000000
# 3 -0.005567 -0.006846 0.009987 0.000000 0.000000 0.000000
# 4 0.000000 0.000000 0.000000 -0.449631 0.000000 0.000000
# 5 0.000000 0.000000 0.000000 0.000000 0.022794 0.000000
# 6 0.000000 0.000000 0.000000 0.000000 0.000000 0.113625
#
#
# Mechanical properties :
#
#
# Convention : Reuss Voigt Hill
#
# Bulk Modulus (GPa) = 33.72573 74.15685 53.94129
# Shear Modulus (GPa) = -24.04849 22.28003 -0.88423
#
# Velocity S-wave (km/s) = -3.59511 3.46040 -0.68937
# Velocity P-wave (km/s) = 0.94485 7.47136 5.32513
#
# Compressibility (1/GPa) = 0.02965095
#
# Stress axis : x y z
#
# Youngs Moduli (GPa) = 79.96049 24.97470 100.13395
#
# Poissons Ratio (x) = 0.10060 0.55744
# Poissons Ratio (y) = 0.32210 0.68552
# Poissons Ratio (z) = 0.44514 0.17098
#
# Static dielectric constant tensor:
#      x y z
#    x 3.549630 0.000000 0.000000 
#    y 0.000000 2.915420 0.000000 
#    z 0.000000 0.000000 3.606660 
# 
# 
# High freq. dielectric constant tensor:
#      x y z
#    x 1.732950 0.000000 0.000000 
#    y 0.000000 1.668480 0.000000 
#    z 0.000000 0.000000 1.740810 
# 
# From -- ./inp_files/47821.got.cif
#   From: 2010.03.12/outbox.cif.g09.slc.cpg/sg64_24_cif.got.tgz:47821.got - 2010.04.10 20:19:32.
