data_PCOD8262444
_publ_section_title
;
Structure prediction by ZEFSAII (Michael W. Deem and Ramdas Pophale) SiO2 
 PCOD8262444
Probable space group: C M C A
;
_chemical_formula_sum "Si O2"
_cell_formula_units_Z 80
_cell_length_a 16.869292
_cell_length_b 14.622362
_cell_length_c 17.502740
_cell_angle_alpha 90.000000
_cell_angle_beta 90.000000
_cell_angle_gamma 90.000000
_cell_volume 4317.381523
_symmetry_space_group_name_H-M "C M C A"
_symmetry_group_IT_number 64
_symmetry_cell_setting 'orthorhombic'
loop_
_space_group_symop_operation_xyz
x,y,z
-x,1/2-y,1/2+z
x,-y,-z
-x,1/2+y,1/2-z
-x,-y,-z
x,1/2+y,1/2-z
-x,y,z
x,1/2-y,1/2+z
1/2+x,1/2+y,z
1/2-x,-y,1/2+z
1/2+x,1/2-y,-z
1/2-x,y,1/2-z
1/2-x,1/2-y,-z
1/2+x,y,1/2-z
1/2-x,1/2+y,z
1/2+x,-y,1/2+z
loop_
_atom_site_type_symbol
_atom_site_label
_atom_site_fract_x
_atom_site_fract_y
_atom_site_fract_z
Si Si1 0.260789 0.452221 0.662420
Si Si2 0.267995 0.657609 0.837113
Si Si3 0.308220 0.210682 0.436507
Si Si4 0.088427 0.269993 0.432863
Si Si5 0.411516 0.943843 0.926303
O O1 0.250000 0.420341 0.750000
O O2 0.221877 0.550476 0.646511
O O3 0.220684 0.381571 0.604336
O O4 0.354325 0.462152 0.645541
O O5 0.250000 0.677138 0.750000
O O6 0.191057 0.705419 0.876423
O O7 0.350286 0.703763 0.865374
O O8 0.250000 0.250000 0.500000
O O9 0.388977 0.188924 0.482944
O O10 0.089873 0.162236 0.446099
O O11 0.000000 0.304170 0.410794
O O12 0.500000 0.976096 0.903214
O O13 0.381090 0.000000 0.000000
#
# Coordination Sequence:
#
# PCOD8262444 Si02
#       5
#    16  16  16  16  16
#     4  11  22  36  58  89 117 151 196 240 294 349
#     4  10  21  37  58  84 114 155 196 236 288 348
#     4  10  19  34  57  82 111 150 192 235 277 350
#     4  10  21  37  56  85 115 149 189 239 292 337
#     4  10  20  35  59  87 115 147 194 251 292 334
#
# _framework density 18.529751000000001
#
# number of rings (size 3 to 8) (size 9 to 14) (size 15 to 20)
#    0.000    1.800    4.000    1.800    2.800    0.000 
#    0.000    8.000    0.000    0.000    0.000    0.000 
#    0.000    0.000    0.000    0.000    0.000    0.000 
#
# Total GULP energy -495584.888348 kJ/mol
# GULP energy per Si atom -12389.622209 kJ/mol
# Density = 1.848758 g / cm^3
# Si number density = 18.529751 Si / 1000 Ang^3
#
#
#
# Elastic Constant Matrix: (Units=GPa)
#
#
# Indices 1 2 3 4 5 6 
#
# 1 113.8411 20.9431 67.6062 0.0000 0.0000 0.0000
# 2 20.9431 94.2260 56.0120 0.0000 0.0000 0.0000
# 3 67.6062 56.0120 142.5593 0.0000 0.0000 0.0000
# 4 0.0000 0.0000 0.0000 32.6888 0.0000 0.0000
# 5 0.0000 0.0000 0.0000 0.0000 25.5197 0.0000
# 6 0.0000 0.0000 0.0000 0.0000 0.0000 21.9994
#
#
#
# Elastic Compliance Matrix: (Units=1/GPa)
#
#
# Indices 1 2 3 4 5 6 
#
# 1 0.012294 0.000957 -0.006206 0.000000 0.000000 0.000000
# 2 0.000957 0.013921 -0.005923 0.000000 0.000000 0.000000
# 3 -0.006206 -0.005923 0.012285 0.000000 0.000000 0.000000
# 4 0.000000 0.000000 0.000000 0.030592 0.000000 0.000000
# 5 0.000000 0.000000 0.000000 0.000000 0.039185 0.000000
# 6 0.000000 0.000000 0.000000 0.000000 0.000000 0.045456
#
#
# Mechanical properties :
#
#
# Convention : Reuss Voigt Hill
#
# Bulk Modulus (GPa) = 61.90194 71.08322 66.49258
# Shear Modulus (GPa) = 27.55385 29.77924 28.66655
#
# Velocity S-wave (km/s) = 3.86036 4.01322 3.93753
# Velocity P-wave (km/s) = 7.30405 7.74077 7.52558
#
# Compressibility (1/GPa) = 0.01615458
#
# Stress axis : x y z
#
# Youngs Moduli (GPa) = 81.34271 71.83256 81.40026
#
# Poissons Ratio (x) = -0.06872 0.50516
# Poissons Ratio (y) = -0.07781 0.48216
# Poissons Ratio (z) = 0.50481 0.42549
#
# Static dielectric constant tensor:
#      x y z
#    x 3.993930 0.000000 0.000000 
#    y 0.000000 3.530890 0.000000 
#    z 0.000000 0.000000 3.586580 
# 
# 
# High freq. dielectric constant tensor:
#      x y z
#    x 1.699090 0.000000 0.000000 
#    y 0.000000 1.728380 0.000000 
#    z 0.000000 0.000000 1.720070 
# 
# From -- ./inp_files/32980.got.cif
#   From: 2010.03.12/outbox.cif.g09.slc.cpg/sg64_17_cif.got.tgz:32980.got - 2010.04.10 20:19:32.
