data_PCOD8262263
_publ_section_title
;
Structure prediction by ZEFSAII (Michael W. Deem and Ramdas Pophale) SiO2 
 PCOD8262263
Probable space group: C M C A
;
_chemical_formula_sum "Si O2"
_cell_formula_units_Z 96
_cell_length_a 22.986223
_cell_length_b 11.408942
_cell_length_c 18.895490
_cell_angle_alpha 90.000000
_cell_angle_beta 90.000000
_cell_angle_gamma 90.000000
_cell_volume 4955.313626
_symmetry_space_group_name_H-M "C M C A"
_symmetry_group_IT_number 64
_symmetry_cell_setting 'orthorhombic'
loop_
_space_group_symop_operation_xyz
x,y,z
-x,1/2-y,1/2+z
x,-y,-z
-x,1/2+y,1/2-z
-x,-y,-z
x,1/2+y,1/2-z
-x,y,z
x,1/2-y,1/2+z
1/2+x,1/2+y,z
1/2-x,-y,1/2+z
1/2+x,1/2-y,-z
1/2-x,y,1/2-z
1/2-x,1/2-y,-z
1/2+x,y,1/2-z
1/2-x,1/2+y,z
1/2+x,-y,1/2+z
loop_
_atom_site_type_symbol
_atom_site_label
_atom_site_fract_x
_atom_site_fract_y
_atom_site_fract_z
Si Si1 0.936048 0.599059 0.660419
Si Si2 0.432706 0.967580 0.181893
Si Si3 0.160155 0.522122 0.420123
Si Si4 0.364526 0.690370 0.305935
Si Si5 0.763101 0.638655 0.668727
Si Si6 0.144627 0.756111 0.350922
O O1 0.930185 0.526035 0.733017
O O2 0.896885 0.551748 0.597425
O O3 0.921047 0.731405 0.680280
O O4 0.000000 0.593660 0.629097
O O5 0.500000 0.988194 0.156625
O O6 0.410827 0.843844 0.149197
O O7 0.384608 0.066227 0.160014
O O8 0.179973 0.500000 0.500000
O O9 0.211810 0.478503 0.368093
O O10 0.142563 0.658389 0.411759
O O11 0.307654 0.751242 0.341241
O O12 0.351224 0.684445 0.222447
O O13 0.750000 0.606097 0.750000
O O14 0.702431 0.669834 0.632643
#
# Coordination Sequence:
#
# PCOD8262263 Si02
#       6
#    16  16  16  16  16  16
#     4   9  18  33  53  79 112 149 189 235 291 350
#     4  10  19  32  57  88 116 144 187 249 301 340
#     4  11  23  38  56  83 120 158 199 242 297 368
#     4   9  17  33  55  87 111 144 182 244 300 341
#     4   9  21  36  61  85 114 149 195 245 299 350
#     4  10  21  34  54  82 115 149 190 240 294 356
#
# _framework density 19.373142999999999
#
# number of rings (size 3 to 8) (size 9 to 14) (size 15 to 20)
#    0.000    2.333    1.667    1.500    2.333    3.000 
#    0.000    0.000    0.000    0.000    0.000    5.833 
#    0.000    0.000    0.000    0.000    0.000    0.000 
#
# Total GULP energy -594798.616887 kJ/mol
# GULP energy per Si atom -12391.637852 kJ/mol
# Density = 1.932905 g / cm^3
# Si number density = 19.373143 Si / 1000 Ang^3
#
#
#
# Elastic Constant Matrix: (Units=GPa)
#
#
# Indices 1 2 3 4 5 6 
#
# 1 114.6565 38.4061 27.7079 0.0000 0.0000 0.0000
# 2 38.4061 86.4606 25.8898 0.0000 0.0000 0.0000
# 3 27.7079 25.8898 59.8584 0.0000 0.0000 0.0000
# 4 0.0000 0.0000 0.0000 20.0803 0.0000 0.0000
# 5 0.0000 0.0000 0.0000 0.0000 14.2538 0.0000
# 6 0.0000 0.0000 0.0000 0.0000 0.0000 25.6509
#
#
#
# Elastic Compliance Matrix: (Units=1/GPa)
#
#
# Indices 1 2 3 4 5 6 
#
# 1 0.010804 -0.003793 -0.003361 0.000000 0.000000 0.000000
# 2 -0.003793 0.014618 -0.004567 0.000000 0.000000 0.000000
# 3 -0.003361 -0.004567 0.020237 0.000000 0.000000 0.000000
# 4 0.000000 0.000000 0.000000 0.049800 0.000000 0.000000
# 5 0.000000 0.000000 0.000000 0.000000 0.070157 0.000000
# 6 0.000000 0.000000 0.000000 0.000000 0.000000 0.038985
#
#
# Mechanical properties :
#
#
# Convention : Reuss Voigt Hill
#
# Bulk Modulus (GPa) = 45.00769 49.44258 47.22513
# Shear Modulus (GPa) = 21.23601 23.26178 22.24889
#
# Velocity S-wave (km/s) = 3.31442 3.46890 3.39254
# Velocity P-wave (km/s) = 6.15870 6.45143 6.30677
#
# Compressibility (1/GPa) = 0.02221843
#
# Stress axis : x y z
#
# Youngs Moduli (GPa) = 92.55507 68.40709 49.41440
#
# Poissons Ratio (x) = 0.25947 0.16607
# Poissons Ratio (y) = 0.35106 0.22567
# Poissons Ratio (z) = 0.31105 0.31241
#
# Static dielectric constant tensor:
#      x y z
#    x 3.678290 0.000000 0.000000 
#    y 0.000000 3.502860 0.000000 
#    z 0.000000 0.000000 2.974280 
# 
# 
# High freq. dielectric constant tensor:
#      x y z
#    x 1.765960 0.000000 0.000000 
#    y 0.000000 1.757400 0.000000 
#    z 0.000000 0.000000 1.689440 
# 
# From -- ./inp_files/34933.got.cif
#   From: 2010.03.12/outbox.cif.g09.slc.cpg/sg64_18_cif.got.tgz:34933.got - 2010.04.10 20:19:32.
