data_PCOD8262546
_publ_section_title
;
Structure prediction by ZEFSAII (Michael W. Deem and Ramdas Pophale) SiO2 
 PCOD8262546
Probable space group: C M C A
;
_chemical_formula_sum "Si O2"
_cell_formula_units_Z 104
_cell_length_a 18.319684
_cell_length_b 19.306580
_cell_length_c 14.463821
_cell_angle_alpha 90.000000
_cell_angle_beta 90.000000
_cell_angle_gamma 90.000000
_cell_volume 5115.715282
_symmetry_space_group_name_H-M "C M C A"
_symmetry_group_IT_number 64
_symmetry_cell_setting 'orthorhombic'
loop_
_space_group_symop_operation_xyz
x,y,z
-x,1/2-y,1/2+z
x,-y,-z
-x,1/2+y,1/2-z
-x,-y,-z
x,1/2+y,1/2-z
-x,y,z
x,1/2-y,1/2+z
1/2+x,1/2+y,z
1/2-x,-y,1/2+z
1/2+x,1/2-y,-z
1/2-x,y,1/2-z
1/2-x,1/2-y,-z
1/2+x,y,1/2-z
1/2-x,1/2+y,z
1/2+x,-y,1/2+z
loop_
_atom_site_type_symbol
_atom_site_label
_atom_site_fract_x
_atom_site_fract_y
_atom_site_fract_z
Si Si1 0.913496 0.724668 0.910795
Si Si2 0.330105 0.500000 0.000000
Si Si3 0.081826 0.554518 0.229411
Si Si4 0.586293 0.173675 0.103334
Si Si5 0.413069 0.811592 0.292389
Si Si6 0.182362 0.939794 0.188556
Si Si7 0.080806 0.876351 0.923051
O O1 0.887246 0.692019 0.814609
O O2 0.880231 0.801240 0.929279
O O3 0.000000 0.733957 0.906171
O O4 0.889146 0.675661 0.995894
O O5 0.287857 0.478826 0.094827
O O6 0.378180 0.567019 0.017962
O O7 0.116018 0.601998 0.147085
O O8 0.134692 0.490809 0.247803
O O9 0.076868 0.605099 0.316015
O O10 0.000000 0.526756 0.205302
O O11 0.500000 0.172197 0.113945
O O12 0.614004 0.242032 0.156648
O O13 0.500000 0.823578 0.303015
O O14 0.369013 0.874993 0.338298
O O15 0.250000 0.914897 0.250000
O O16 0.000000 0.872388 0.966516
#
# Coordination Sequence:
#
# PCOD8262546 Si02
#       7
#    16   8  16  16  16  16  16
#     4   9  16  27  49  83 117 143 176 222 279 337
#     4  10  21  36  58  78 109 144 198 232 280 340
#     4   9  17  33  56  81 109 141 181 227 278 333
#     4   9  16  29  53  84 114 141 177 228 280 332
#     4  10  19  35  59  87 116 146 184 233 284 335
#     4  11  24  41  56  78 113 151 187 236 285 333
#     4   9  15  27  52  86 116 140 170 229 288 330
#
# _framework density 20.329512999999999
#
# number of rings (size 3 to 8) (size 9 to 14) (size 15 to 20)
#    0.000    2.462    1.538    1.615    0.000    3.077 
#    2.769    0.769    0.000    5.538    0.000    0.000 
#    0.000    0.000    0.000    0.000    0.000    0.000 
#
# Total GULP energy -644417.063920 kJ/mol
# GULP energy per Si atom -12392.635845 kJ/mol
# Density = 2.028324 g / cm^3
# Si number density = 20.329513 Si / 1000 Ang^3
#
#
#
# Elastic Constant Matrix: (Units=GPa)
#
#
# Indices 1 2 3 4 5 6 
#
# 1 34.8067 6.8212 5.4223 0.0000 0.0000 0.0000
# 2 6.8212 65.6729 5.5599 0.0000 0.0000 0.0000
# 3 5.4223 5.5599 97.4834 0.0000 0.0000 0.0000
# 4 0.0000 0.0000 0.0000 32.8091 0.0000 0.0000
# 5 0.0000 0.0000 0.0000 0.0000 11.9993 0.0000
# 6 0.0000 0.0000 0.0000 0.0000 0.0000 59.6804
#
#
#
# Elastic Compliance Matrix: (Units=1/GPa)
#
#
# Indices 1 2 3 4 5 6 
#
# 1 0.029537 -0.002943 -0.001475 0.000000 0.000000 0.000000
# 2 -0.002943 0.015594 -0.000726 0.000000 0.000000 0.000000
# 3 -0.001475 -0.000726 0.010382 0.000000 0.000000 0.000000
# 4 0.000000 0.000000 0.000000 0.030479 0.000000 0.000000
# 5 0.000000 0.000000 0.000000 0.000000 0.083338 0.000000
# 6 0.000000 0.000000 0.000000 0.000000 0.000000 0.016756
#
#
# Mechanical properties :
#
#
# Convention : Reuss Voigt Hill
#
# Bulk Modulus (GPa) = 22.11177 25.95222 24.03199
# Shear Modulus (GPa) = 23.64646 32.90839 28.27743
#
# Velocity S-wave (km/s) = 3.41421 4.02773 3.73360
# Velocity P-wave (km/s) = 5.14225 5.86717 5.51663
#
# Compressibility (1/GPa) = 0.04522479
#
# Stress axis : x y z
#
# Youngs Moduli (GPa) = 33.85629 64.12680 96.32433
#
# Poissons Ratio (x) = 0.18872 0.14208
# Poissons Ratio (y) = 0.09964 0.06990
# Poissons Ratio (z) = 0.04994 0.04654
#
# Static dielectric constant tensor:
#      x y z
#    x 3.074670 0.000000 0.000000 
#    y 0.000000 3.673010 0.000000 
#    z 0.000000 0.000000 3.930940 
# 
# 
# High freq. dielectric constant tensor:
#      x y z
#    x 1.725630 0.000000 0.000000 
#    y 0.000000 1.799210 0.000000 
#    z 0.000000 0.000000 1.807620 
# 
# From -- ./inp_files/27548.got.cif
#   From: 2010.03.12/outbox.cif.g09.slc.cpg/sg64_14_cif.got.tgz:27548.got - 2010.04.10 20:19:32.
