data_PCOD8262981
_publ_section_title
;
Structure prediction by ZEFSAII (Michael W. Deem and Ramdas Pophale) SiO2 
 PCOD8262981
Probable space group: C M C A
;
_chemical_formula_sum "Si O2"
_cell_formula_units_Z 96
_cell_length_a 8.950780
_cell_length_b 18.047101
_cell_length_c 31.004775
_cell_angle_alpha 90.000000
_cell_angle_beta 90.000000
_cell_angle_gamma 90.000000
_cell_volume 5008.375884
_symmetry_space_group_name_H-M "C M C A"
_symmetry_group_IT_number 64
_symmetry_cell_setting 'orthorhombic'
loop_
_space_group_symop_operation_xyz
x,y,z
-x,1/2-y,1/2+z
x,-y,-z
-x,1/2+y,1/2-z
-x,-y,-z
x,1/2+y,1/2-z
-x,y,z
x,1/2-y,1/2+z
1/2+x,1/2+y,z
1/2-x,-y,1/2+z
1/2+x,1/2-y,-z
1/2-x,y,1/2-z
1/2-x,1/2-y,-z
1/2+x,y,1/2-z
1/2-x,1/2+y,z
1/2+x,-y,1/2+z
loop_
_atom_site_type_symbol
_atom_site_label
_atom_site_fract_x
_atom_site_fract_y
_atom_site_fract_z
Si Si1 0.824410 0.038073 0.293961
Si Si2 0.323088 0.208361 0.622890
Si Si3 0.174751 0.960030 0.126404
Si Si4 0.175787 0.708324 0.206396
Si Si5 0.826948 0.050456 0.040788
Si Si6 0.322890 0.706945 0.460963
O O1 0.750000 0.008502 0.250000
O O2 0.779257 0.123256 0.301961
O O3 0.000000 0.027613 0.289732
O O4 0.766146 0.990963 0.333695
O O5 0.500000 0.214294 0.623549
O O6 0.271032 0.123774 0.618349
O O7 0.258970 0.243680 0.666905
O O8 0.261385 0.255173 0.582653
O O9 0.000000 0.963467 0.137443
O O10 0.213499 0.005901 0.083815
O O11 0.250000 0.738658 0.250000
O O12 0.000000 0.717736 0.211253
O O13 0.723501 0.121815 0.038731
O O14 0.000000 0.074542 0.039869
O O15 0.788010 0.000000 0.000000
O O16 0.500000 0.713281 0.464689
O O17 0.250000 0.750000 0.500000
#
# Coordination Sequence:
#
# PCOD8262981 Si02
#       6
#    16  16  16  16  16  16
#     4  10  20  35  55  79 108 142 182 228 277 328
#     4   9  19  36  56  78 108 145 179 217 272 330
#     4  10  20  35  56  80 109 145 183 223 272 330
#     4   9  18  34  55  77 103 137 177 219 265 318
#     4  10  21  38  59  83 114 151 188 228 278 334
#     4  11  22  38  60  84 112 146 186 231 279 333
#
# _framework density 19.167891000000001
#
# number of rings (size 3 to 8) (size 9 to 14) (size 15 to 20)
#    0.000    2.167    0.000    3.000    0.000    6.333 
#    0.000    7.500    0.000    0.000    0.000    0.000 
#    0.000    0.000    0.000    0.000    0.000    0.000 
#
# Total GULP energy -595367.500548 kJ/mol
# GULP energy per Si atom -12403.489595 kJ/mol
# Density = 1.912426 g / cm^3
# Si number density = 19.167891 Si / 1000 Ang^3
#
#
#
# Elastic Constant Matrix: (Units=GPa)
#
#
# Indices 1 2 3 4 5 6 
#
# 1 55.4334 44.5058 51.2456 0.0000 0.0000 0.0000
# 2 44.5058 127.2117 84.1001 0.0000 0.0000 0.0000
# 3 51.2456 84.1001 183.1023 0.0000 0.0000 0.0000
# 4 0.0000 0.0000 0.0000 40.5841 0.0000 0.0000
# 5 0.0000 0.0000 0.0000 0.0000 33.5634 0.0000
# 6 0.0000 0.0000 0.0000 0.0000 0.0000 44.5428
#
#
#
# Elastic Compliance Matrix: (Units=1/GPa)
#
#
# Indices 1 2 3 4 5 6 
#
# 1 0.027680 -0.006552 -0.004737 0.000000 0.000000 0.000000
# 2 -0.006552 0.012840 -0.004064 0.000000 0.000000 0.000000
# 3 -0.004737 -0.004064 0.008654 0.000000 0.000000 0.000000
# 4 0.000000 0.000000 0.000000 0.024640 0.000000 0.000000
# 5 0.000000 0.000000 0.000000 0.000000 0.029794 0.000000
# 6 0.000000 0.000000 0.000000 0.000000 0.000000 0.022450
#
#
# Mechanical properties :
#
#
# Convention : Reuss Voigt Hill
#
# Bulk Modulus (GPa) = 54.15070 80.60558 67.37814
# Shear Modulus (GPa) = 30.69002 36.13112 33.41057
#
# Velocity S-wave (km/s) = 4.00574 4.34635 4.17951
# Velocity P-wave (km/s) = 7.05029 8.20557 7.64977
#
# Compressibility (1/GPa) = 0.01846698
#
# Stress axis : x y z
#
# Youngs Moduli (GPa) = 36.12773 77.88398 115.55681
#
# Poissons Ratio (x) = 0.51029 0.54744
# Poissons Ratio (y) = 0.23671 0.46958
# Poissons Ratio (z) = 0.17115 0.31649
#
# Static dielectric constant tensor:
#      x y z
#    x 3.304880 0.000000 0.000000 
#    y 0.000000 3.690060 0.000000 
#    z 0.000000 0.000000 3.648390 
# 
# 
# High freq. dielectric constant tensor:
#      x y z
#    x 1.726550 0.000000 0.000000 
#    y 0.000000 1.750920 0.000000 
#    z 0.000000 0.000000 1.765470 
# 
# From -- ./inp_files/48162.got.cif
#   From: 2010.03.12/outbox.cif.g09.slc.cpg/sg64_25_cif.got.tgz:48162.got - 2010.04.10 20:19:32.
