data_PCOD8262454
_publ_section_title
;
Structure prediction by ZEFSAII (Michael W. Deem and Ramdas Pophale) SiO2 
 PCOD8262454
Probable space group: C M C A
;
_chemical_formula_sum "Si O2"
_cell_formula_units_Z 88
_cell_length_a 13.112015
_cell_length_b 19.193402
_cell_length_c 18.294910
_cell_angle_alpha 90.000000
_cell_angle_beta 90.000000
_cell_angle_gamma 90.000000
_cell_volume 4604.173430
_symmetry_space_group_name_H-M "C M C A"
_symmetry_group_IT_number 64
_symmetry_cell_setting 'orthorhombic'
loop_
_space_group_symop_operation_xyz
x,y,z
-x,1/2-y,1/2+z
x,-y,-z
-x,1/2+y,1/2-z
-x,-y,-z
x,1/2+y,1/2-z
-x,y,z
x,1/2-y,1/2+z
1/2+x,1/2+y,z
1/2-x,-y,1/2+z
1/2+x,1/2-y,-z
1/2-x,y,1/2-z
1/2-x,1/2-y,-z
1/2+x,y,1/2-z
1/2-x,1/2+y,z
1/2+x,-y,1/2+z
loop_
_atom_site_type_symbol
_atom_site_label
_atom_site_fract_x
_atom_site_fract_y
_atom_site_fract_z
Si Si1 0.618303 0.803731 0.553221
Si Si2 0.142369 0.231136 0.217128
Si Si3 0.000000 0.509899 0.837337
Si Si4 0.193147 0.348073 0.030363
Si Si5 0.166866 0.121076 0.690201
Si Si6 0.000000 0.088727 0.462602
Si Si7 0.500000 0.857561 0.810472
O O1 0.500000 0.824054 0.535137
O O2 0.635403 0.808529 0.640265
O O3 0.701950 0.855662 0.516571
O O4 0.641759 0.727610 0.521443
O O5 0.250000 0.247946 0.250000
O O6 0.097570 0.309958 0.208786
O O7 0.096075 0.182291 0.278506
O O8 0.098847 0.553187 0.817371
O O9 0.000000 0.488489 0.924291
O O10 0.000000 0.439437 0.788237
O O11 0.224304 0.362843 0.113841
O O12 0.104648 0.402605 0.007839
O O13 0.250000 0.101857 0.750000
O O14 0.000000 0.147745 0.398351
#
# Coordination Sequence:
#
# PCOD8262454 Si02
#       7
#    16  16   8  16  16   8   8
#     4  10  19  34  57  91 127 157 192 258 313 356
#     4  10  19  35  61  86 119 156 201 246 304 362
#     4  10  24  39  60  83 124 155 203 252 302 362
#     4  10  20  36  59  87 122 158 205 249 303 366
#     4  10  22  41  59  85 116 164 203 248 306 365
#     4  10  21  37  59  92 116 160 199 255 299 360
#     4  10  21  34  56  91 114 151 192 251 297 351
#
# _framework density 19.113095000000001
#
# number of rings (size 3 to 8) (size 9 to 14) (size 15 to 20)
#    0.545    1.455    1.818    2.182    2.545    3.636 
#    1.636    0.000    0.000    0.000    0.000    2.545 
#    0.000    0.000    0.000    0.000    0.000    0.000 
#
# Total GULP energy -545120.317260 kJ/mol
# GULP energy per Si atom -12389.098120 kJ/mol
# Density = 1.906959 g / cm^3
# Si number density = 19.113095 Si / 1000 Ang^3
#
#
#
# Elastic Constant Matrix: (Units=GPa)
#
#
# Indices 1 2 3 4 5 6 
#
# 1 134.0966 32.3975 47.4704 0.0000 0.0000 0.0000
# 2 32.3975 86.5117 20.1234 0.0000 0.0000 0.0000
# 3 47.4704 20.1234 88.9257 0.0000 0.0000 0.0000
# 4 0.0000 0.0000 0.0000 22.2907 0.0000 0.0000
# 5 0.0000 0.0000 0.0000 0.0000 -2.1013 0.0000
# 6 0.0000 0.0000 0.0000 0.0000 0.0000 24.8185
#
#
#
# Elastic Compliance Matrix: (Units=1/GPa)
#
#
# Indices 1 2 3 4 5 6 
#
# 1 0.009706 -0.002564 -0.004601 0.000000 0.000000 0.000000
# 2 -0.002564 0.012879 -0.001546 0.000000 0.000000 0.000000
# 3 -0.004601 -0.001546 0.014051 0.000000 0.000000 0.000000
# 4 0.000000 0.000000 0.000000 0.044862 0.000000 0.000000
# 5 0.000000 0.000000 0.000000 0.000000 -0.475905 0.000000
# 6 0.000000 0.000000 0.000000 0.000000 0.000000 0.040293
#
#
# Mechanical properties :
#
#
# Convention : Reuss Voigt Hill
#
# Bulk Modulus (GPa) = 52.04462 56.61294 54.32878
# Shear Modulus (GPa) = -15.13826 22.97109 3.91642
#
# Velocity S-wave (km/s) = -2.81737 3.47053 1.43301
# Velocity P-wave (km/s) = 4.08724 6.76341 5.58790
#
# Compressibility (1/GPa) = 0.01921428
#
# Stress axis : x y z
#
# Youngs Moduli (GPa) = 103.03412 77.64594 71.16921
#
# Poissons Ratio (x) = 0.19912 0.32743
# Poissons Ratio (y) = 0.26422 0.10999
# Poissons Ratio (z) = 0.47403 0.12000
#
# Static dielectric constant tensor:
#      x y z
#    x 3.474420 0.000000 0.000000 
#    y 0.000000 3.338910 0.000000 
#    z 0.000000 0.000000 3.578400 
# 
# 
# High freq. dielectric constant tensor:
#      x y z
#    x 1.739440 0.000000 0.000000 
#    y 0.000000 1.721530 0.000000 
#    z 0.000000 0.000000 1.751440 
# 
# From -- ./inp_files/23819.got.cif
#   From: 2010.03.12/outbox.cif.g09.slc.cpg/sg64_12_cif.got.tgz:23819.got - 2010.04.10 20:19:32.
