data_PCOD8262366
_publ_section_title
;
Structure prediction by ZEFSAII (Michael W. Deem and Ramdas Pophale) SiO2 
 PCOD8262366
Probable space group: C M C A
;
_chemical_formula_sum "Si O2"
_cell_formula_units_Z 96
_cell_length_a 14.482323
_cell_length_b 14.869164
_cell_length_c 22.696977
_cell_angle_alpha 90.000000
_cell_angle_beta 90.000000
_cell_angle_gamma 90.000000
_cell_volume 4887.567839
_symmetry_space_group_name_H-M "C M C A"
_symmetry_group_IT_number 64
_symmetry_cell_setting 'orthorhombic'
loop_
_space_group_symop_operation_xyz
x,y,z
-x,1/2-y,1/2+z
x,-y,-z
-x,1/2+y,1/2-z
-x,-y,-z
x,1/2+y,1/2-z
-x,y,z
x,1/2-y,1/2+z
1/2+x,1/2+y,z
1/2-x,-y,1/2+z
1/2+x,1/2-y,-z
1/2-x,y,1/2-z
1/2-x,1/2-y,-z
1/2+x,y,1/2-z
1/2-x,1/2+y,z
1/2+x,-y,1/2+z
loop_
_atom_site_type_symbol
_atom_site_label
_atom_site_fract_x
_atom_site_fract_y
_atom_site_fract_z
Si Si1 0.500000 0.401723 0.073969
Si Si2 0.500000 0.887961 0.564973
Si Si3 0.179570 0.682473 0.631793
Si Si4 0.325086 0.180964 0.375328
Si Si5 0.233212 0.000409 0.160794
Si Si6 0.395902 0.270148 0.257972
Si Si7 0.602357 0.525381 0.735617
O O1 0.500000 0.508894 0.091708
O O2 0.413216 0.346163 0.098697
O O3 0.500000 0.395012 0.004503
O O4 0.415768 0.824165 0.585003
O O5 0.244912 0.754600 0.598377
O O6 0.247072 0.595747 0.630657
O O7 0.160226 0.725700 0.696528
O O8 0.348049 0.206064 0.306773
O O9 0.284019 0.081169 0.383039
O O10 0.325986 0.028556 0.195310
O O11 0.139200 0.984761 0.198344
O O12 0.500000 0.235296 0.246083
O O13 0.398762 0.370732 0.283936
O O14 0.500000 0.483064 0.730809
#
# Coordination Sequence:
#
# PCOD8262366 Si02
#       7
#     8   8  16  16  16  16  16
#     4  11  24  49  68  87 121 166 224 265 315 368
#     4  11  26  43  72  93 111 168 228 267 307 366
#     4  11  22  40  63  90 129 166 199 263 320 370
#     4  12  23  37  61  97 126 159 212 257 313 379
#     4  10  21  35  52  85 126 169 206 250 305 373
#     4  10  19  33  56  87 124 161 194 235 313 386
#     4   9  19  33  50  75 125 174 197 237 305 370
#
# _framework density 19.641670999999999
#
# number of rings (size 3 to 8) (size 9 to 14) (size 15 to 20)
#    0.000    1.500    5.000    0.500    7.000    0.667 
#    1.500    0.000    0.000    0.000    0.000    1.167 
#    0.000    0.000    0.000    0.000    0.000    0.000 
#
# Total GULP energy -594629.112316 kJ/mol
# GULP energy per Si atom -12388.106507 kJ/mol
# Density = 1.959697 g / cm^3
# Si number density = 19.641671 Si / 1000 Ang^3
#
#
#
# Elastic Constant Matrix: (Units=GPa)
#
#
# Indices 1 2 3 4 5 6 
#
# 1 150.3085 45.1448 26.2544 0.0000 0.0000 0.0000
# 2 45.1448 87.4486 22.1681 0.0000 0.0000 0.0000
# 3 26.2544 22.1681 58.1463 0.0000 0.0000 0.0000
# 4 0.0000 0.0000 0.0000 20.7899 0.0000 0.0000
# 5 0.0000 0.0000 0.0000 0.0000 4.3204 0.0000
# 6 0.0000 0.0000 0.0000 0.0000 0.0000 28.3019
#
#
#
# Elastic Compliance Matrix: (Units=1/GPa)
#
#
# Indices 1 2 3 4 5 6 
#
# 1 0.008142 -0.003621 -0.002296 0.000000 0.000000 0.000000
# 2 -0.003621 0.014269 -0.003805 0.000000 0.000000 0.000000
# 3 -0.002296 -0.003805 0.019685 0.000000 0.000000 0.000000
# 4 0.000000 0.000000 0.000000 0.048100 0.000000 0.000000
# 5 0.000000 0.000000 0.000000 0.000000 0.231460 0.000000
# 6 0.000000 0.000000 0.000000 0.000000 0.000000 0.035333
#
#
# Mechanical properties :
#
#
# Convention : Reuss Voigt Hill
#
# Bulk Modulus (GPa) = 44.14534 53.67090 48.90812
# Shear Modulus (GPa) = 13.02138 24.17151 18.59644
#
# Velocity S-wave (km/s) = 2.57757 3.51183 3.08033
# Velocity P-wave (km/s) = 5.60202 6.62029 6.13233
#
# Compressibility (1/GPa) = 0.02265245
#
# Stress axis : x y z
#
# Youngs Moduli (GPa) = 122.82694 70.08078 50.79966
#
# Poissons Ratio (x) = 0.25377 0.11661
# Poissons Ratio (y) = 0.44477 0.19330
# Poissons Ratio (z) = 0.28196 0.26666
#
# Static dielectric constant tensor:
#      x y z
#    x 3.831850 0.000000 0.000000 
#    y 0.000000 3.779780 0.000000 
#    z 0.000000 0.000000 3.091820 
# 
# 
# High freq. dielectric constant tensor:
#      x y z
#    x 1.784420 0.000000 0.000000 
#    y 0.000000 1.769830 0.000000 
#    z 0.000000 0.000000 1.702680 
# 
# From -- ./inp_files/45190.got.cif
#   From: 2010.03.12/outbox.cif.g09.slc.cpg/sg64_23_cif.got.tgz:45190.got - 2010.04.10 20:19:32.
