data_PCOD8262433
_publ_section_title
;
Structure prediction by ZEFSAII (Michael W. Deem and Ramdas Pophale) SiO2 
 PCOD8262433
Probable space group: C M C A
;
_chemical_formula_sum "Si O2"
_cell_formula_units_Z 96
_cell_length_a 16.174067
_cell_length_b 20.340885
_cell_length_c 14.833702
_cell_angle_alpha 90.000000
_cell_angle_beta 90.000000
_cell_angle_gamma 90.000000
_cell_volume 4880.211369
_symmetry_space_group_name_H-M "C M C A"
_symmetry_group_IT_number 64
_symmetry_cell_setting 'orthorhombic'
loop_
_space_group_symop_operation_xyz
x,y,z
-x,1/2-y,1/2+z
x,-y,-z
-x,1/2+y,1/2-z
-x,-y,-z
x,1/2+y,1/2-z
-x,y,z
x,1/2-y,1/2+z
1/2+x,1/2+y,z
1/2-x,-y,1/2+z
1/2+x,1/2-y,-z
1/2-x,y,1/2-z
1/2-x,1/2-y,-z
1/2+x,y,1/2-z
1/2-x,1/2+y,z
1/2+x,-y,1/2+z
loop_
_atom_site_type_symbol
_atom_site_label
_atom_site_fract_x
_atom_site_fract_y
_atom_site_fract_z
Si Si1 0.597652 0.955989 0.422004
Si Si2 0.597617 0.558369 0.438727
Si Si3 0.400644 0.194360 0.980156
Si Si4 0.405417 0.812104 0.398277
Si Si5 0.903486 0.024065 0.724092
Si Si6 0.659219 0.666477 0.712244
O O1 0.500000 0.949937 0.436663
O O2 0.636693 0.882547 0.423287
O O3 0.617308 0.992203 0.327706
O O4 0.638866 0.000000 0.500000
O O5 0.634185 0.500000 0.500000
O O6 0.500000 0.561663 0.449533
O O7 0.632886 0.628513 0.470080
O O8 0.622347 0.539230 0.335712
O O9 0.500000 0.193848 0.970091
O O10 0.358883 0.203223 0.881946
O O11 0.366099 0.253499 0.042936
O O12 0.500000 0.814118 0.425926
O O13 0.399469 0.803085 0.290125
O O14 0.855398 0.089322 0.693450
O O15 0.000000 0.040621 0.710577
O O16 0.750000 0.679833 0.750000
#
# Coordination Sequence:
#
# PCOD8262433 Si02
#       6
#    16  16  16  16  16  16
#     4   8  14  27  48  73 101 134 167 205 258 312
#     4   9  15  26  51  82 102 123 160 213 271 305
#     4  10  19  34  56  81 106 133 176 229 270 311
#     4   9  19  35  54  78 104 133 177 224 264 312
#     4   9  16  30  53  76 101 130 171 218 257 308
#     4  11  21  33  53  74 104 144 176 207 261 329
#
# _framework density 19.671278000000001
#
# number of rings (size 3 to 8) (size 9 to 14) (size 15 to 20)
#    0.000    2.667    1.667    2.500    0.000    0.667 
#    3.000    0.000   14.667    1.000    0.000    0.000 
#    0.000    0.000    0.000    0.000    0.000    0.000 
#
# Total GULP energy -594805.366888 kJ/mol
# GULP energy per Si atom -12391.778477 kJ/mol
# Density = 1.962651 g / cm^3
# Si number density = 19.671278 Si / 1000 Ang^3
#
#
#
# Elastic Constant Matrix: (Units=GPa)
#
#
# Indices 1 2 3 4 5 6 
#
# 1 21.4737 12.9612 11.8195 0.0000 0.0000 0.0000
# 2 12.9612 131.1376 106.5796 0.0000 0.0000 0.0000
# 3 11.8195 106.5796 182.5677 0.0000 0.0000 0.0000
# 4 0.0000 0.0000 0.0000 39.4309 0.0000 0.0000
# 5 0.0000 0.0000 0.0000 0.0000 15.6393 0.0000
# 6 0.0000 0.0000 0.0000 0.0000 0.0000 6.2714
#
#
#
# Elastic Compliance Matrix: (Units=1/GPa)
#
#
# Indices 1 2 3 4 5 6 
#
# 1 0.049565 -0.004359 -0.000664 0.000000 0.000000 0.000000
# 2 -0.004359 0.014893 -0.008412 0.000000 0.000000 0.000000
# 3 -0.000664 -0.008412 0.010431 0.000000 0.000000 0.000000
# 4 0.000000 0.000000 0.000000 0.025361 0.000000 0.000000
# 5 0.000000 0.000000 0.000000 0.000000 0.063941 0.000000
# 6 0.000000 0.000000 0.000000 0.000000 0.000000 0.159455
#
#
# Mechanical properties :
#
#
# Convention : Reuss Voigt Hill
#
# Bulk Modulus (GPa) = 20.82515 66.43332 43.62923
# Shear Modulus (GPa) = 13.64167 25.85623 19.74895
#
# Velocity S-wave (km/s) = 2.63626 3.62942 3.17195
# Velocity P-wave (km/s) = 4.45826 7.16998 5.97012
#
# Compressibility (1/GPa) = 0.04801886
#
# Stress axis : x y z
#
# Youngs Moduli (GPa) = 20.17547 67.14435 95.86524
#
# Poissons Ratio (x) = 0.29269 0.06366
# Poissons Ratio (y) = 0.08795 0.80644
# Poissons Ratio (z) = 0.01340 0.56483
#
# Static dielectric constant tensor:
#      x y z
#    x 3.081410 0.000000 0.000000 
#    y 0.000000 3.774710 0.000000 
#    z 0.000000 0.000000 3.853170 
# 
# 
# High freq. dielectric constant tensor:
#      x y z
#    x 1.720380 0.000000 0.000000 
#    y 0.000000 1.747720 0.000000 
#    z 0.000000 0.000000 1.778210 
# 
# From -- ./inp_files/23858.got.cif
#   From: 2010.03.12/outbox.cif.g09.slc.cpg/sg64_12_cif.got.tgz:23858.got - 2010.04.10 20:19:32.
