data_PCOD8262550
_publ_section_title
;
Structure prediction by ZEFSAII (Michael W. Deem and Ramdas Pophale) SiO2 
 PCOD8262550
Probable space group: C M C A
;
_chemical_formula_sum "Si O2"
_cell_formula_units_Z 96
_cell_length_a 8.753162
_cell_length_b 19.825454
_cell_length_c 27.857543
_cell_angle_alpha 90.000000
_cell_angle_beta 90.000000
_cell_angle_gamma 90.000000
_cell_volume 4834.270162
_symmetry_space_group_name_H-M "C M C A"
_symmetry_group_IT_number 64
_symmetry_cell_setting 'orthorhombic'
loop_
_space_group_symop_operation_xyz
x,y,z
-x,1/2-y,1/2+z
x,-y,-z
-x,1/2+y,1/2-z
-x,-y,-z
x,1/2+y,1/2-z
-x,y,z
x,1/2-y,1/2+z
1/2+x,1/2+y,z
1/2-x,-y,1/2+z
1/2+x,1/2-y,-z
1/2-x,y,1/2-z
1/2-x,1/2-y,-z
1/2+x,y,1/2-z
1/2-x,1/2+y,z
1/2+x,-y,1/2+z
loop_
_atom_site_type_symbol
_atom_site_label
_atom_site_fract_x
_atom_site_fract_y
_atom_site_fract_z
Si Si1 0.176028 0.894725 0.146003
Si Si2 0.678740 0.326339 0.047392
Si Si3 0.179567 0.514711 0.198872
Si Si4 0.822223 0.741762 0.698731
Si Si5 0.319992 0.638588 0.145492
Si Si6 0.678372 0.329373 0.550609
O O1 0.226388 0.870184 0.093324
O O2 0.201766 0.835599 0.184398
O O3 0.000000 0.917792 0.145809
O O4 0.280496 0.957425 0.160201
O O5 0.500000 0.331690 0.036496
O O6 0.724030 0.248886 0.056864
O O7 0.770289 0.355232 0.001766
O O8 0.250000 0.494855 0.250000
O O9 0.244674 0.585616 0.181429
O O10 0.000000 0.520734 0.204633
O O11 0.750000 0.755496 0.750000
O O12 0.735589 0.787261 0.660144
O O13 0.000000 0.761434 0.698899
O O14 0.500000 0.631746 0.149446
O O15 0.266876 0.626865 0.090651
O O16 0.500000 0.341608 0.557660
#
# Coordination Sequence:
#
# PCOD8262550 Si02
#       6
#    16  16  16  16  16  16
#     4  10  21  40  63  89 123 159 200 246 299 357
#     4   9  18  35  59  90 125 161 196 242 299 358
#     4  12  26  44  64  87 120 161 205 250 304 364
#     4  11  22  38  59  88 121 154 196 251 302 355
#     4  12  24  40  62  88 119 159 204 250 303 360
#     4  10  19  35  59  91 125 159 198 247 301 357
#
# _framework density 19.858221
#
# number of rings (size 3 to 8) (size 9 to 14) (size 15 to 20)
#    0.000    1.333    1.667    5.000    0.000    4.000 
#    0.000    0.833    0.000    5.000    0.000    0.000 
#    0.000    0.000    0.000    0.000    0.000    0.000 
#
# Total GULP energy -595487.415425 kJ/mol
# GULP energy per Si atom -12405.987821 kJ/mol
# Density = 1.981302 g / cm^3
# Si number density = 19.858221 Si / 1000 Ang^3
#
#
#
# Elastic Constant Matrix: (Units=GPa)
#
#
# Indices 1 2 3 4 5 6 
#
# 1 125.9252 30.2564 47.5177 0.0000 0.0000 0.0000
# 2 30.2564 47.4475 18.5417 0.0000 0.0000 0.0000
# 3 47.5177 18.5417 118.2057 0.0000 0.0000 0.0000
# 4 0.0000 0.0000 0.0000 31.5620 0.0000 0.0000
# 5 0.0000 0.0000 0.0000 0.0000 37.5236 0.0000
# 6 0.0000 0.0000 0.0000 0.0000 0.0000 32.0483
#
#
#
# Elastic Compliance Matrix: (Units=1/GPa)
#
#
# Indices 1 2 3 4 5 6 
#
# 1 0.010510 -0.005381 -0.003381 0.000000 0.000000 0.000000
# 2 -0.005381 0.025207 -0.001791 0.000000 0.000000 0.000000
# 3 -0.003381 -0.001791 0.010100 0.000000 0.000000 0.000000
# 4 0.000000 0.000000 0.000000 0.031684 0.000000 0.000000
# 5 0.000000 0.000000 0.000000 0.000000 0.026650 0.000000
# 6 0.000000 0.000000 0.000000 0.000000 0.000000 0.031203
#
#
# Mechanical properties :
#
#
# Convention : Reuss Voigt Hill
#
# Bulk Modulus (GPa) = 40.46684 53.80112 47.13398
# Shear Modulus (GPa) = 30.35905 33.24426 31.80166
#
# Velocity S-wave (km/s) = 3.91422 4.09599 4.00614
# Velocity P-wave (km/s) = 6.39142 7.03711 6.72202
#
# Compressibility (1/GPa) = 0.02471159
#
# Stress axis : x y z
#
# Youngs Moduli (GPa) = 95.14912 39.67149 99.01165
#
# Poissons Ratio (x) = 0.21346 0.33474
# Poissons Ratio (y) = 0.51197 0.17733
# Poissons Ratio (z) = 0.32168 0.07105
#
# Static dielectric constant tensor:
#      x y z
#    x 3.603270 0.000000 0.000000 
#    y 0.000000 3.399660 0.000000 
#    z 0.000000 0.000000 3.790890 
# 
# 
# High freq. dielectric constant tensor:
#      x y z
#    x 1.780000 0.000000 0.000000 
#    y 0.000000 1.753380 0.000000 
#    z 0.000000 0.000000 1.791790 
# 
# From -- ./inp_files/48044.got.cif
#   From: 2010.03.12/outbox.cif.g09.slc.cpg/sg64_25_cif.got.tgz:48044.got - 2010.04.10 20:19:32.
