data_PCOD8262353
_publ_section_title
;
Structure prediction by ZEFSAII (Michael W. Deem and Ramdas Pophale) SiO2 
 PCOD8262353
Probable space group: C M C A
;
_chemical_formula_sum "Si O2"
_cell_formula_units_Z 96
_cell_length_a 9.054313
_cell_length_b 29.193359
_cell_length_c 18.768909
_cell_angle_alpha 90.000000
_cell_angle_beta 90.000000
_cell_angle_gamma 90.000000
_cell_volume 4961.107073
_symmetry_space_group_name_H-M "C M C A"
_symmetry_group_IT_number 64
_symmetry_cell_setting 'orthorhombic'
loop_
_space_group_symop_operation_xyz
x,y,z
-x,1/2-y,1/2+z
x,-y,-z
-x,1/2+y,1/2-z
-x,-y,-z
x,1/2+y,1/2-z
-x,y,z
x,1/2-y,1/2+z
1/2+x,1/2+y,z
1/2-x,-y,1/2+z
1/2+x,1/2-y,-z
1/2-x,y,1/2-z
1/2-x,1/2-y,-z
1/2+x,y,1/2-z
1/2-x,1/2+y,z
1/2+x,-y,1/2+z
loop_
_atom_site_type_symbol
_atom_site_label
_atom_site_fract_x
_atom_site_fract_y
_atom_site_fract_z
Si Si1 0.329578 0.585357 0.446738
Si Si2 0.828437 0.485308 0.824198
Si Si3 0.170114 0.851194 0.180534
Si Si4 0.170593 0.062433 0.913229
Si Si5 0.330024 0.726453 0.603903
Si Si6 0.169771 0.189106 0.446947
O O1 0.500000 0.584694 0.471531
O O2 0.305722 0.559209 0.372974
O O3 0.235361 0.559892 0.507328
O O4 0.275153 0.637292 0.435149
O O5 0.750000 0.474831 0.750000
O O6 0.758045 0.529151 0.861297
O O7 0.000000 0.495716 0.810642
O O8 0.250000 0.871875 0.250000
O O9 0.191145 0.886160 0.115472
O O10 0.242046 0.802469 0.162216
O O11 0.000000 0.843383 0.198607
O O12 0.000000 0.047640 0.915128
O O13 0.500000 0.728342 0.626156
O O14 0.267391 0.778029 0.602820
O O15 0.305519 0.702051 0.528655
O O16 0.000000 0.195139 0.424473
#
# Coordination Sequence:
#
# PCOD8262353 Si02
#       6
#    16  16  16  16  16  16
#     4  10  21  39  62  88 116 154 197 242 292 345
#     4  11  24  41  61  84 116 155 196 239 292 350
#     4  11  23  37  55  82 117 155 194 239 293 351
#     4  11  23  38  60  89 118 151 193 243 295 350
#     4  10  19  33  56  83 113 150 190 234 285 341
#     4   9  18  34  57  83 114 149 188 235 284 338
#
# _framework density 19.350519999999999
#
# number of rings (size 3 to 8) (size 9 to 14) (size 15 to 20)
#    0.000    1.667    1.667    3.000    0.000    8.000 
#    0.000    0.833    0.000    2.000    0.000    0.000 
#    0.000    0.000    0.000    0.000    0.000    0.000 
#
# Total GULP energy -595470.746177 kJ/mol
# GULP energy per Si atom -12405.640545 kJ/mol
# Density = 1.930648 g / cm^3
# Si number density = 19.350520 Si / 1000 Ang^3
#
#
#
# Elastic Constant Matrix: (Units=GPa)
#
#
# Indices 1 2 3 4 5 6 
#
# 1 132.4417 56.7479 62.3501 0.0000 0.0000 0.0000
# 2 56.7479 95.7222 43.8564 0.0000 0.0000 0.0000
# 3 62.3501 43.8564 95.2939 0.0000 0.0000 0.0000
# 4 0.0000 0.0000 0.0000 25.2400 0.0000 0.0000
# 5 0.0000 0.0000 0.0000 0.0000 36.0590 0.0000
# 6 0.0000 0.0000 0.0000 0.0000 0.0000 32.4055
#
#
#
# Elastic Compliance Matrix: (Units=1/GPa)
#
#
# Indices 1 2 3 4 5 6 
#
# 1 0.012311 -0.004572 -0.005951 0.000000 0.000000 0.000000
# 2 -0.004572 0.014936 -0.003883 0.000000 0.000000 0.000000
# 3 -0.005951 -0.003883 0.016174 0.000000 0.000000 0.000000
# 4 0.000000 0.000000 0.000000 0.039620 0.000000 0.000000
# 5 0.000000 0.000000 0.000000 0.000000 0.027732 0.000000
# 6 0.000000 0.000000 0.000000 0.000000 0.000000 0.030859
#
#
# Mechanical properties :
#
#
# Convention : Reuss Voigt Hill
#
# Bulk Modulus (GPa) = 68.44311 72.15186 70.29749
# Shear Modulus (GPa) = 28.52035 29.44113 28.98074
#
# Velocity S-wave (km/s) = 3.84328 3.90483 3.87418
# Velocity P-wave (km/s) = 7.42572 7.59592 7.51130
#
# Compressibility (1/GPa) = 0.01461067
#
# Stress axis : x y z
#
# Youngs Moduli (GPa) = 81.22829 66.95142 61.82647
#
# Poissons Ratio (x) = 0.30610 0.36792
# Poissons Ratio (y) = 0.37137 0.24005
# Poissons Ratio (z) = 0.48338 0.25994
#
# Static dielectric constant tensor:
#      x y z
#    x 3.632080 0.000000 0.000000 
#    y 0.000000 3.581960 0.000000 
#    z 0.000000 0.000000 3.387740 
# 
# 
# High freq. dielectric constant tensor:
#      x y z
#    x 1.762740 0.000000 0.000000 
#    y 0.000000 1.758590 0.000000 
#    z 0.000000 0.000000 1.739100 
# 
# From -- ./inp_files/37119.got.cif
#   From: 2010.03.12/outbox.cif.g09.slc.cpg/sg64_19_cif.got.tgz:37119.got - 2010.04.10 20:19:32.
