data_PCOD8262045
_publ_section_title
;
Structure prediction by ZEFSAII (Michael W. Deem and Ramdas Pophale) SiO2 
 PCOD8262045
Probable space group: C M C A
;
_chemical_formula_sum "Si O2"
_cell_formula_units_Z 104
_cell_length_a 14.693015
_cell_length_b 15.079042
_cell_length_c 23.674415
_cell_angle_alpha 90.000000
_cell_angle_beta 90.000000
_cell_angle_gamma 90.000000
_cell_volume 5245.222665
_symmetry_space_group_name_H-M "C M C A"
_symmetry_group_IT_number 64
_symmetry_cell_setting 'orthorhombic'
loop_
_space_group_symop_operation_xyz
x,y,z
-x,1/2-y,1/2+z
x,-y,-z
-x,1/2+y,1/2-z
-x,-y,-z
x,1/2+y,1/2-z
-x,y,z
x,1/2-y,1/2+z
1/2+x,1/2+y,z
1/2-x,-y,1/2+z
1/2+x,1/2-y,-z
1/2-x,y,1/2-z
1/2-x,1/2-y,-z
1/2+x,y,1/2-z
1/2-x,1/2+y,z
1/2+x,-y,1/2+z
loop_
_atom_site_type_symbol
_atom_site_label
_atom_site_fract_x
_atom_site_fract_y
_atom_site_fract_z
Si Si1 0.178074 0.730270 0.702463
Si Si2 0.757438 0.238934 0.086060
Si Si3 0.681146 0.000000 0.000000
Si Si4 0.655785 0.962791 0.283072
Si Si5 0.738201 0.460063 0.888000
Si Si6 0.607405 0.810956 0.999715
Si Si7 0.097500 0.918273 0.689062
O O1 0.250000 0.755171 0.750000
O O2 0.233329 0.712847 0.644477
O O3 0.122536 0.639873 0.716737
O O4 0.111922 0.813720 0.698939
O O5 0.791509 0.139076 0.096631
O O6 0.844395 0.288200 0.059181
O O7 0.665198 0.241430 0.048012
O O8 0.616752 0.084134 0.010969
O O9 0.746856 0.015622 0.945641
O O10 0.750000 0.967812 0.250000
O O11 0.662156 0.995664 0.348103
O O12 0.590937 0.029023 0.248684
O O13 0.832179 0.460435 0.853769
O O14 0.500000 0.784462 0.998794
O O15 0.000000 0.927553 0.659310
#
# Coordination Sequence:
#
# PCOD8262045 Si02
#       7
#    16  16   8  16  16  16  16
#     4  10  19  34  55  76 102 136 174 212 260 317
#     4   9  19  34  53  77 104 143 180 214 272 323
#     4  10  19  30  52  80 103 134 171 216 274 322
#     4   9  18  34  55  75  98 133 173 213 256 308
#     4   9  18  34  53  73 103 135 172 217 262 316
#     4  10  20  34  52  77 107 137 177 224 267 318
#     4  10  20  33  50  75 106 136 170 215 262 312
#
# _framework density 19.827566000000001
#
# number of rings (size 3 to 8) (size 9 to 14) (size 15 to 20)
#    0.000    2.462    0.000    3.462    0.000    6.769 
#    0.000    3.077    0.000    0.000    0.000   45.231 
#    0.000    0.000    0.000    0.000    0.000    0.000 
#
# Total GULP energy -644511.053586 kJ/mol
# GULP energy per Si atom -12394.443338 kJ/mol
# Density = 1.978244 g / cm^3
# Si number density = 19.827566 Si / 1000 Ang^3
#
#
#
# Elastic Constant Matrix: (Units=GPa)
#
#
# Indices 1 2 3 4 5 6 
#
# 1 72.7230 11.3798 24.6304 0.0000 0.0000 0.0000
# 2 11.3798 61.1405 20.7779 0.0000 0.0000 0.0000
# 3 24.6304 20.7779 123.0299 0.0000 0.0000 0.0000
# 4 0.0000 0.0000 0.0000 32.9418 0.0000 0.0000
# 5 0.0000 0.0000 0.0000 0.0000 7.1904 0.0000
# 6 0.0000 0.0000 0.0000 0.0000 0.0000 4.4402
#
#
#
# Elastic Compliance Matrix: (Units=1/GPa)
#
#
# Indices 1 2 3 4 5 6 
#
# 1 0.014950 -0.001873 -0.002677 0.000000 0.000000 0.000000
# 2 -0.001873 0.017586 -0.002595 0.000000 0.000000 0.000000
# 3 -0.002677 -0.002595 0.009102 0.000000 0.000000 0.000000
# 4 0.000000 0.000000 0.000000 0.030357 0.000000 0.000000
# 5 0.000000 0.000000 0.000000 0.000000 0.139073 0.000000
# 6 0.000000 0.000000 0.000000 0.000000 0.000000 0.225214
#
#
# Mechanical properties :
#
#
# Convention : Reuss Voigt Hill
#
# Bulk Modulus (GPa) = 36.56390 41.16327 38.86359
# Shear Modulus (GPa) = 10.87692 22.25484 16.56588
#
# Velocity S-wave (km/s) = 2.34471 3.35389 2.89363
# Velocity P-wave (km/s) = 5.08047 5.98363 5.55045
#
# Compressibility (1/GPa) = 0.02734938
#
# Stress axis : x y z
#
# Youngs Moduli (GPa) = 66.88749 56.86241 109.86284
#
# Poissons Ratio (x) = 0.10650 0.29407
# Poissons Ratio (y) = 0.12528 0.28510
# Poissons Ratio (z) = 0.17904 0.14756
#
# Static dielectric constant tensor:
#      x y z
#    x 3.167660 0.000000 0.000000 
#    y 0.000000 3.706190 0.000000 
#    z 0.000000 0.000000 3.951750 
# 
# 
# High freq. dielectric constant tensor:
#      x y z
#    x 1.727050 0.000000 0.000000 
#    y 0.000000 1.779610 0.000000 
#    z 0.000000 0.000000 1.786370 
# 
# From -- ./inp_files/45868.got.cif
#   From: 2010.03.12/outbox.cif.g09.slc.cpg/sg64_23_cif.got.tgz:45868.got - 2010.04.10 20:19:32.
