data_PCOD8262314
_publ_section_title
;
Structure prediction by ZEFSAII (Michael W. Deem and Ramdas Pophale) SiO2 
 PCOD8262314
Probable space group: C M C A
;
_chemical_formula_sum "Si O2"
_cell_formula_units_Z 80
_cell_length_a 24.784238
_cell_length_b 33.963978
_cell_length_c 4.995800
_cell_angle_alpha 90.000000
_cell_angle_beta 90.000000
_cell_angle_gamma 90.000000
_cell_volume 4205.321131
_symmetry_space_group_name_H-M "C M C A"
_symmetry_group_IT_number 64
_symmetry_cell_setting 'orthorhombic'
loop_
_space_group_symop_operation_xyz
x,y,z
-x,1/2-y,1/2+z
x,-y,-z
-x,1/2+y,1/2-z
-x,-y,-z
x,1/2+y,1/2-z
-x,y,z
x,1/2-y,1/2+z
1/2+x,1/2+y,z
1/2-x,-y,1/2+z
1/2+x,1/2-y,-z
1/2-x,y,1/2-z
1/2-x,1/2-y,-z
1/2+x,y,1/2-z
1/2-x,1/2+y,z
1/2+x,-y,1/2+z
loop_
_atom_site_type_symbol
_atom_site_label
_atom_site_fract_x
_atom_site_fract_y
_atom_site_fract_z
Si Si1 0.285587 0.454057 0.997460
Si Si2 0.500000 0.344781 0.360007
Si Si3 0.686527 0.225978 0.767173
Si Si4 0.500000 0.104878 0.355366
Si Si5 0.884943 0.397508 0.530836
Si Si6 0.114976 0.843865 0.464555
O O1 0.250000 0.441045 0.250000
O O2 0.299741 0.500000 0.000000
O O3 0.250000 0.441553 0.750000
O O4 0.341359 0.431575 0.963538
O O5 0.500000 0.384164 0.542994
O O6 0.555830 0.322224 0.439679
O O7 0.500000 0.355838 0.045633
O O8 0.668447 0.239174 0.471092
O O9 0.750000 0.218775 0.750000
O O10 0.660993 0.185869 0.872404
O O11 0.443774 0.082190 0.414347
O O12 0.884645 0.380763 0.233230
O O13 0.873903 0.361568 0.740085
#
# Coordination Sequence:
#
# PCOD8262314 Si02
#       6
#    16   8  16   8  16  16
#     4  10  21  36  52  74 108 141 166 204 257 300
#     4   8  16  30  48  73 101 126 155 204 261 296
#     4  10  21  36  50  68  99 134 164 203 256 300
#     4   8  16  30  49  73 102 130 159 206 259 294
#     4  10  19  33  54  78 101 131 172 211 248 299
#     4  10  19  33  54  76  99 129 169 210 248 300
#
# _framework density 19.023517999999999
#
# number of rings (size 3 to 8) (size 9 to 14) (size 15 to 20)
#    0.000    2.400    0.000    2.400    0.000    2.400 
#    0.000    1.500    0.000    0.000    0.000   12.600 
#    0.000    0.000    0.000    0.000    0.000    0.000 
#
# Total GULP energy -495594.291411 kJ/mol
# GULP energy per Si atom -12389.857285 kJ/mol
# Density = 1.898022 g / cm^3
# Si number density = 19.023518 Si / 1000 Ang^3
#
#
#
# Elastic Constant Matrix: (Units=GPa)
#
#
# Indices 1 2 3 4 5 6 
#
# 1 133.0342 53.6301 33.5491 0.0000 0.0000 0.0000
# 2 53.6301 45.8125 12.9151 0.0000 0.0000 0.0000
# 3 33.5491 12.9151 98.2483 0.0000 0.0000 0.0000
# 4 0.0000 0.0000 0.0000 26.5044 0.0000 0.0000
# 5 0.0000 0.0000 0.0000 0.0000 220.5679 0.0000
# 6 0.0000 0.0000 0.0000 0.0000 0.0000 4.1326
#
#
#
# Elastic Compliance Matrix: (Units=1/GPa)
#
#
# Indices 1 2 3 4 5 6 
#
# 1 0.015001 -0.016737 -0.002922 0.000000 0.000000 0.000000
# 2 -0.016737 0.041342 0.000281 0.000000 0.000000 0.000000
# 3 -0.002922 0.000281 0.011139 0.000000 0.000000 0.000000
# 4 0.000000 0.000000 0.000000 0.037730 0.000000 0.000000
# 5 0.000000 0.000000 0.000000 0.000000 0.004534 0.000000
# 6 0.000000 0.000000 0.000000 0.000000 0.000000 0.241977
#
#
# Mechanical properties :
#
#
# Convention : Reuss Voigt Hill
#
# Bulk Modulus (GPa) = 34.81282 53.03151 43.92217
# Shear Modulus (GPa) = 12.49828 62.04104 37.26966
#
# Velocity S-wave (km/s) = 2.56596 5.71696 4.43101
# Velocity P-wave (km/s) = 5.20754 8.45668 7.02261
#
# Compressibility (1/GPa) = 0.02872505
#
# Stress axis : x y z
#
# Youngs Moduli (GPa) = 66.66228 24.18851 89.77237
#
# Poissons Ratio (x) = 0.40484 0.26234
# Poissons Ratio (y) = 1.11572 -0.02520
# Poissons Ratio (z) = 0.19481 -0.00679
#
# Static dielectric constant tensor:
#      x y z
#    x 3.865990 0.000000 0.000000 
#    y 0.000000 2.891070 0.000000 
#    z 0.000000 0.000000 3.842720 
# 
# 
# High freq. dielectric constant tensor:
#      x y z
#    x 1.758910 0.000000 0.000000 
#    y 0.000000 1.676550 0.000000 
#    z 0.000000 0.000000 1.768490 
# 
# From -- ./inp_files/2371.got.cif
#   From: 2010.03.12/outbox.cif.g09.slc.cpg/sg64_2_cif.got.tgz:2371.got - 2010.04.10 20:19:32.
