data_PCOD8262221
_publ_section_title
;
Structure prediction by ZEFSAII (Michael W. Deem and Ramdas Pophale) SiO2 
 PCOD8262221
Probable space group: C M C A
;
_chemical_formula_sum "Si O2"
_cell_formula_units_Z 112
_cell_length_a 15.887712
_cell_length_b 14.595970
_cell_length_c 27.184931
_cell_angle_alpha 90.000000
_cell_angle_beta 90.000000
_cell_angle_gamma 90.000000
_cell_volume 6304.092193
_symmetry_space_group_name_H-M "C M C A"
_symmetry_group_IT_number 64
_symmetry_cell_setting 'orthorhombic'
loop_
_space_group_symop_operation_xyz
x,y,z
-x,1/2-y,1/2+z
x,-y,-z
-x,1/2+y,1/2-z
-x,-y,-z
x,1/2+y,1/2-z
-x,y,z
x,1/2-y,1/2+z
1/2+x,1/2+y,z
1/2-x,-y,1/2+z
1/2+x,1/2-y,-z
1/2-x,y,1/2-z
1/2-x,1/2-y,-z
1/2+x,y,1/2-z
1/2-x,1/2+y,z
1/2+x,-y,1/2+z
loop_
_atom_site_type_symbol
_atom_site_label
_atom_site_fract_x
_atom_site_fract_y
_atom_site_fract_z
Si Si1 0.205609 0.285210 0.450715
Si Si2 0.595094 0.145710 0.320544
Si Si3 0.405550 0.150441 0.799624
Si Si4 0.668526 0.969732 0.281130
Si Si5 0.270366 0.575472 0.627063
Si Si6 0.592062 0.105084 0.487105
Si Si7 0.729735 0.619125 0.096340
O O1 0.250000 0.250000 0.500000
O O2 0.257553 0.361431 0.420529
O O3 0.116670 0.331567 0.465586
O O4 0.199673 0.196996 0.414620
O O5 0.500000 0.137803 0.343014
O O6 0.604666 0.240849 0.291538
O O7 0.669637 0.147920 0.359558
O O8 0.609883 0.059378 0.284837
O O9 0.500000 0.123933 0.813534
O O10 0.381451 0.108705 0.747201
O O11 0.352263 0.110234 0.844669
O O12 0.750000 0.999311 0.250000
O O13 0.691788 0.927757 0.334711
O O14 0.282541 0.472375 0.606867
O O15 0.500000 0.139461 0.468293
O O16 0.666392 0.111179 0.448708
O O17 0.583315 0.000000 0.500000
#
# Coordination Sequence:
#
# PCOD8262221 Si02
#       7
#    16  16  16  16  16  16  16
#     4  10  20  34  54  79 108 143 176 219 262 320
#     4  10  19  32  54  79 101 131 175 219 261 311
#     4  10  20  36  54  78 107 138 176 222 266 315
#     4   9  20  34  52  74 103 139 171 217 264 318
#     4  10  19  36  53  80 105 139 182 216 266 322
#     4  10  19  32  52  79 108 136 170 220 270 309
#     4  10  19  34  55  77 103 140 176 214 262 315
#
# _framework density 17.766237
#
# number of rings (size 3 to 8) (size 9 to 14) (size 15 to 20)
#    0.000    2.143    2.857    0.857    0.000    1.714 
#    2.571    1.429    0.000    0.000    0.000    4.000 
#    0.000    0.000    0.000    0.000    0.000    0.000 
#
# Total GULP energy -693859.721900 kJ/mol
# GULP energy per Si atom -12390.352177 kJ/mol
# Density = 1.772580 g / cm^3
# Si number density = 17.766237 Si / 1000 Ang^3
#
#
#
# Elastic Constant Matrix: (Units=GPa)
#
#
# Indices 1 2 3 4 5 6 
#
# 1 77.5400 49.4305 24.9638 0.0000 0.0000 0.0000
# 2 49.4305 132.7581 51.5366 0.0000 0.0000 0.0000
# 3 24.9638 51.5366 77.8110 0.0000 0.0000 0.0000
# 4 0.0000 0.0000 0.0000 38.5107 0.0000 0.0000
# 5 0.0000 0.0000 0.0000 0.0000 33.1588 0.0000
# 6 0.0000 0.0000 0.0000 0.0000 0.0000 22.0540
#
#
#
# Elastic Compliance Matrix: (Units=1/GPa)
#
#
# Indices 1 2 3 4 5 6 
#
# 1 0.017077 -0.005696 -0.001706 0.000000 0.000000 0.000000
# 2 -0.005696 0.012039 -0.006147 0.000000 0.000000 0.000000
# 3 -0.001706 -0.006147 0.017470 0.000000 0.000000 0.000000
# 4 0.000000 0.000000 0.000000 0.025967 0.000000 0.000000
# 5 0.000000 0.000000 0.000000 0.000000 0.030158 0.000000
# 6 0.000000 0.000000 0.000000 0.000000 0.000000 0.045343
#
#
# Mechanical properties :
#
#
# Convention : Reuss Voigt Hill
#
# Bulk Modulus (GPa) = 51.31100 59.99677 55.65388
# Shear Modulus (GPa) = 27.52569 29.55658 28.54114
#
# Velocity S-wave (km/s) = 3.94042 4.08320 4.01244
# Velocity P-wave (km/s) = 7.04602 7.48822 7.27048
#
# Compressibility (1/GPa) = 0.01948900
#
# Stress axis : x y z
#
# Youngs Moduli (GPa) = 58.55835 83.06014 57.24056
#
# Poissons Ratio (x) = 0.47312 0.09766
# Poissons Ratio (y) = 0.33355 0.35184
# Poissons Ratio (z) = 0.09990 0.51054
#
# Static dielectric constant tensor:
#      x y z
#    x 3.578370 0.000000 0.000000 
#    y 0.000000 3.754250 0.000000 
#    z 0.000000 0.000000 3.429740 
# 
# 
# High freq. dielectric constant tensor:
#      x y z
#    x 1.669130 0.000000 0.000000 
#    y 0.000000 1.702650 0.000000 
#    z 0.000000 0.000000 1.684340 
# 
# From -- ./inp_files/53369.got.cif
#   From: 2010.03.12/outbox.cif.g09.slc.cpg/sg64_27_cif.got.tgz:53369.got - 2010.04.10 20:19:32.
