data_PCOD8262144
_publ_section_title
;
Structure prediction by ZEFSAII (Michael W. Deem and Ramdas Pophale) SiO2 
 PCOD8262144
Probable space group: C M C A
;
_chemical_formula_sum "Si O2"
_cell_formula_units_Z 112
_cell_length_a 10.070052
_cell_length_b 22.590109
_cell_length_c 25.867271
_cell_angle_alpha 90.000000
_cell_angle_beta 90.000000
_cell_angle_gamma 90.000000
_cell_volume 5884.379213
_symmetry_space_group_name_H-M "C M C A"
_symmetry_group_IT_number 64
_symmetry_cell_setting 'orthorhombic'
loop_
_space_group_symop_operation_xyz
x,y,z
-x,1/2-y,1/2+z
x,-y,-z
-x,1/2+y,1/2-z
-x,-y,-z
x,1/2+y,1/2-z
-x,y,z
x,1/2-y,1/2+z
1/2+x,1/2+y,z
1/2-x,-y,1/2+z
1/2+x,1/2-y,-z
1/2-x,y,1/2-z
1/2-x,1/2-y,-z
1/2+x,y,1/2-z
1/2-x,1/2+y,z
1/2+x,-y,1/2+z
loop_
_atom_site_type_symbol
_atom_site_label
_atom_site_fract_x
_atom_site_fract_y
_atom_site_fract_z
Si Si1 0.854683 0.078627 0.291272
Si Si2 0.343350 0.091295 0.052350
Si Si3 0.209798 0.992456 0.375859
Si Si4 0.344138 0.319609 0.637736
Si Si5 0.154532 0.187285 0.869376
Si Si6 0.352928 0.381111 0.437005
Si Si7 0.350931 0.080850 0.703383
O O1 0.750000 0.054068 0.250000
O O2 0.878268 0.029720 0.335609
O O3 0.790692 0.138377 0.316034
O O4 0.000000 0.089578 0.265936
O O5 0.500000 0.075691 0.057818
O O6 0.256217 0.037487 0.076997
O O7 0.307365 0.152381 0.082010
O O8 0.302199 0.098006 0.993003
O O9 0.131202 0.936904 0.398991
O O10 0.335336 0.966213 0.343805
O O11 0.500000 0.319164 0.644617
O O12 0.290476 0.252939 0.643405
O O13 0.244297 0.164868 0.916643
O O14 0.173371 0.146936 0.818645
O O15 0.000000 0.187805 0.886979
O O16 0.500000 0.351670 0.440985
O O17 0.500000 0.074260 0.725236
O O18 0.250000 0.068726 0.750000
#
# Coordination Sequence:
#
# PCOD8262144 Si02
#       7
#    16  16  16  16  16  16  16
#     4  10  20  33  51  74  98 128 165 203 249 299
#     4   9  17  30  51  78 102 131 172 211 248 294
#     4  10  19  32  51  73 103 134 163 202 251 298
#     4   8  16  33  53  71  97 132 166 203 249 300
#     4   9  19  36  53  71 100 135 167 201 249 305
#     4  10  19  31  51  79 105 130 168 213 249 289
#     4  10  22  36  52  75 101 132 169 207 249 300
#
# _framework density 19.033443999999999
#
# number of rings (size 3 to 8) (size 9 to 14) (size 15 to 20)
#    0.000    2.571    0.000    3.000    0.000    7.429 
#    0.000    1.429    0.000    5.143    0.000    0.000 
#    0.000    0.000    0.000    0.000    0.000    0.000 
#
# Total GULP energy -693907.496107 kJ/mol
# GULP energy per Si atom -12391.205288 kJ/mol
# Density = 1.899012 g / cm^3
# Si number density = 19.033444 Si / 1000 Ang^3
#
#
#
# Elastic Constant Matrix: (Units=GPa)
#
#
# Indices 1 2 3 4 5 6 
#
# 1 71.1374 20.0978 38.6646 0.0000 0.0000 0.0000
# 2 20.0978 103.8837 23.1203 0.0000 0.0000 0.0000
# 3 38.6646 23.1203 91.5982 0.0000 0.0000 0.0000
# 4 0.0000 0.0000 0.0000 19.1146 0.0000 0.0000
# 5 0.0000 0.0000 0.0000 0.0000 24.3395 0.0000
# 6 0.0000 0.0000 0.0000 0.0000 0.0000 17.7483
#
#
#
# Elastic Compliance Matrix: (Units=1/GPa)
#
#
# Indices 1 2 3 4 5 6 
#
# 1 0.018613 -0.001963 -0.007361 0.000000 0.000000 0.000000
# 2 -0.001963 0.010406 -0.001798 0.000000 0.000000 0.000000
# 3 -0.007361 -0.001798 0.014478 0.000000 0.000000 0.000000
# 4 0.000000 0.000000 0.000000 0.052316 0.000000 0.000000
# 5 0.000000 0.000000 0.000000 0.000000 0.041086 0.000000
# 6 0.000000 0.000000 0.000000 0.000000 0.000000 0.056344
#
#
# Mechanical properties :
#
#
# Convention : Reuss Voigt Hill
#
# Bulk Modulus (GPa) = 47.05182 47.82052 47.43617
# Shear Modulus (GPa) = 22.46477 24.55624 23.51050
#
# Velocity S-wave (km/s) = 3.43925 3.59578 3.51838
# Velocity P-wave (km/s) = 6.36753 6.51295 6.44065
#
# Compressibility (1/GPa) = 0.02125316
#
# Stress axis : x y z
#
# Youngs Moduli (GPa) = 53.72649 96.09804 69.06836
#
# Poissons Ratio (x) = 0.18860 0.50843
# Poissons Ratio (y) = 0.10544 0.12420
# Poissons Ratio (z) = 0.39550 0.17280
#
# Static dielectric constant tensor:
#      x y z
#    x 3.124860 0.000000 0.000000 
#    y 0.000000 3.886160 0.000000 
#    z 0.000000 0.000000 3.513430 
# 
# 
# High freq. dielectric constant tensor:
#      x y z
#    x 1.702010 0.000000 0.000000 
#    y 0.000000 1.745260 0.000000 
#    z 0.000000 0.000000 1.739010 
# 
# From -- ./inp_files/44531.got.cif
#   From: 2010.03.12/outbox.cif.g09.slc.cpg/sg64_23_cif.got.tgz:44531.got - 2010.04.10 20:19:32.
