data_PCOD8262795
_publ_section_title
;
Structure prediction by ZEFSAII (Michael W. Deem and Ramdas Pophale) SiO2 
 PCOD8262795
Probable space group: C M C A
;
_chemical_formula_sum "Si O2"
_cell_formula_units_Z 96
_cell_length_a 9.013622
_cell_length_b 22.840895
_cell_length_c 23.184220
_cell_angle_alpha 90.000000
_cell_angle_beta 90.000000
_cell_angle_gamma 90.000000
_cell_volume 4773.148520
_symmetry_space_group_name_H-M "C M C A"
_symmetry_group_IT_number 64
_symmetry_cell_setting 'orthorhombic'
loop_
_space_group_symop_operation_xyz
x,y,z
-x,1/2-y,1/2+z
x,-y,-z
-x,1/2+y,1/2-z
-x,-y,-z
x,1/2+y,1/2-z
-x,y,z
x,1/2-y,1/2+z
1/2+x,1/2+y,z
1/2-x,-y,1/2+z
1/2+x,1/2-y,-z
1/2-x,y,1/2-z
1/2-x,1/2-y,-z
1/2+x,y,1/2-z
1/2-x,1/2+y,z
1/2+x,-y,1/2+z
loop_
_atom_site_type_symbol
_atom_site_label
_atom_site_fract_x
_atom_site_fract_y
_atom_site_fract_z
Si Si1 0.671185 0.395781 0.599824
Si Si2 0.827681 0.691951 0.865226
Si Si3 0.829573 0.880495 0.473613
Si Si4 0.666499 0.090918 0.695830
Si Si5 0.174946 0.314308 0.687594
Si Si6 0.168852 0.015742 0.916240
O O1 0.500000 0.396477 0.619021
O O2 0.692464 0.359508 0.539813
O O3 0.766743 0.369975 0.652101
O O4 0.723865 0.460703 0.585049
O O5 0.785598 0.673263 0.930989
O O6 0.740531 0.652105 0.820548
O O7 0.782152 0.758534 0.851866
O O8 0.000000 0.682269 0.853522
O O9 0.727029 0.937237 0.462691
O O10 0.000000 0.899168 0.462546
O O11 0.500000 0.105550 0.713538
O O12 0.750000 0.062728 0.750000
O O13 0.676417 0.043494 0.646434
O O14 0.250000 0.310423 0.750000
O O15 0.000000 0.320572 0.696709
O O16 0.000000 0.998341 0.932383
#
# Coordination Sequence:
#
# PCOD8262795 Si02
#       6
#    16  16  16  16  16  16
#     4  11  23  38  58  83 114 152 189 228 276 333
#     4   9  19  37  60  84 112 145 182 228 280 333
#     4   9  19  37  60  87 116 146 183 228 282 338
#     4  10  20  33  53  81 110 143 184 232 283 332
#     4  11  24  41  60  82 111 149 190 231 277 330
#     4  10  21  36  55  82 115 150 190 235 282 333
#
# _framework density 20.112511000000001
#
# number of rings (size 3 to 8) (size 9 to 14) (size 15 to 20)
#    0.000    2.000    0.000    3.000    0.000    9.333 
#    0.000    1.667    0.000    0.000    0.000    0.000 
#    0.000    0.000    0.000    0.000    0.000    0.000 
#
# Total GULP energy -595210.264477 kJ/mol
# GULP energy per Si atom -12400.213843 kJ/mol
# Density = 2.006673 g / cm^3
# Si number density = 20.112511 Si / 1000 Ang^3
#
#
#
# Elastic Constant Matrix: (Units=GPa)
#
#
# Indices 1 2 3 4 5 6 
#
# 1 87.6968 32.4818 55.0597 0.0000 0.0000 0.0000
# 2 32.4818 69.6801 44.3912 0.0000 0.0000 0.0000
# 3 55.0597 44.3912 100.1065 0.0000 0.0000 0.0000
# 4 0.0000 0.0000 0.0000 2.4715 0.0000 0.0000
# 5 0.0000 0.0000 0.0000 0.0000 30.3146 0.0000
# 6 0.0000 0.0000 0.0000 0.0000 0.0000 29.5026
#
#
#
# Elastic Compliance Matrix: (Units=1/GPa)
#
#
# Indices 1 2 3 4 5 6 
#
# 1 0.017822 -0.002875 -0.008527 0.000000 0.000000 0.000000
# 2 -0.002875 0.020466 -0.007494 0.000000 0.000000 0.000000
# 3 -0.008527 -0.007494 0.018002 0.000000 0.000000 0.000000
# 4 0.000000 0.000000 0.000000 0.404615 0.000000 0.000000
# 5 0.000000 0.000000 0.000000 0.000000 0.032987 0.000000
# 6 0.000000 0.000000 0.000000 0.000000 0.000000 0.033895
#
#
# Mechanical properties :
#
#
# Convention : Reuss Voigt Hill
#
# Bulk Modulus (GPa) = 54.06196 57.92764 55.99480
# Shear Modulus (GPa) = 8.74515 20.82779 14.78647
#
# Velocity S-wave (km/s) = 2.08747 3.22151 2.71438
# Velocity P-wave (km/s) = 5.72260 6.53466 6.14207
#
# Compressibility (1/GPa) = 0.01849729
#
# Stress axis : x y z
#
# Youngs Moduli (GPa) = 56.11196 48.86210 55.54815
#
# Poissons Ratio (x) = 0.14049 0.47366
# Poissons Ratio (y) = 0.16134 0.41627
# Poissons Ratio (z) = 0.47847 0.36617
#
# Static dielectric constant tensor:
#      x y z
#    x 3.800570 0.000000 0.000000 
#    y 0.000000 3.440740 0.000000 
#    z 0.000000 0.000000 3.969840 
# 
# 
# High freq. dielectric constant tensor:
#      x y z
#    x 1.793970 0.000000 0.000000 
#    y 0.000000 1.765980 0.000000 
#    z 0.000000 0.000000 1.799770 
# 
# From -- ./inp_files/42955.got.cif
#   From: 2010.03.12/outbox.cif.g09.slc.cpg/sg64_22_cif.got.tgz:42955.got - 2010.04.10 20:19:32.
