data_PCOD8262711
_publ_section_title
;
Structure prediction by ZEFSAII (Michael W. Deem and Ramdas Pophale) SiO2 
 PCOD8262711
Probable space group: C M C A
;
_chemical_formula_sum "Si O2"
_cell_formula_units_Z 80
_cell_length_a 9.824505
_cell_length_b 18.572523
_cell_length_c 25.582980
_cell_angle_alpha 90.000000
_cell_angle_beta 90.000000
_cell_angle_gamma 90.000000
_cell_volume 4668.020065
_symmetry_space_group_name_H-M "C M C A"
_symmetry_group_IT_number 64
_symmetry_cell_setting 'orthorhombic'
loop_
_space_group_symop_operation_xyz
x,y,z
-x,1/2-y,1/2+z
x,-y,-z
-x,1/2+y,1/2-z
-x,-y,-z
x,1/2+y,1/2-z
-x,y,z
x,1/2-y,1/2+z
1/2+x,1/2+y,z
1/2-x,-y,1/2+z
1/2+x,1/2-y,-z
1/2-x,y,1/2-z
1/2-x,1/2-y,-z
1/2+x,y,1/2-z
1/2-x,1/2+y,z
1/2+x,-y,1/2+z
loop_
_atom_site_type_symbol
_atom_site_label
_atom_site_fract_x
_atom_site_fract_y
_atom_site_fract_z
Si Si1 0.350688 0.337976 0.293104
Si Si2 0.652136 0.833171 0.705471
Si Si3 0.161023 0.323111 0.591214
Si Si4 0.839676 0.838937 0.411024
Si Si5 0.156929 0.584343 0.506635
O O1 0.500000 0.368877 0.280528
O O2 0.250000 0.371671 0.250000
O O3 0.353902 0.252330 0.289342
O O4 0.307160 0.361003 0.351364
O O5 0.500000 0.865277 0.712935
O O6 0.750000 0.866660 0.750000
O O7 0.713842 0.851324 0.647829
O O8 0.212513 0.242516 0.578253
O O9 0.209671 0.377084 0.546163
O O10 0.000000 0.319152 0.596637
O O11 0.752048 0.892156 0.446135
O O12 0.000000 0.847105 0.423579
O O13 0.173586 0.500000 0.500000
O O14 0.000000 0.605385 0.518093
#
# Coordination Sequence:
#
# PCOD8262711 Si02
#       5
#    16  16  16  16  16
#     4   8  14  24  40  64  90 113 138 172 217 263
#     4   8  13  23  40  62  88 113 137 172 217 261
#     4   8  15  29  47  66  90 118 146 180 223 266
#     4   9  17  30  48  68  90 117 148 183 223 264
#     4  10  20  32  46  65  89 119 154 188 224 267
#
# _framework density 17.137886000000002
#
# number of rings (size 3 to 8) (size 9 to 14) (size 15 to 20)
#    0.000    3.400    0.000    3.000    0.000    1.200 
#    0.000    4.000    0.000    1.200    0.000    5.600 
#    0.000    0.000    0.000    0.000    0.000    0.000 
#
# Total GULP energy -495742.232812 kJ/mol
# GULP energy per Si atom -12393.555820 kJ/mol
# Density = 1.709888 g / cm^3
# Si number density = 17.137886 Si / 1000 Ang^3
#
#
#
# Elastic Constant Matrix: (Units=GPa)
#
#
# Indices 1 2 3 4 5 6 
#
# 1 77.2990 31.3490 78.2089 0.0000 0.0000 0.0000
# 2 31.3490 45.7737 43.7978 0.0000 0.0000 0.0000
# 3 78.2089 43.7978 151.8953 0.0000 0.0000 0.0000
# 4 0.0000 0.0000 0.0000 2.6539 0.0000 0.0000
# 5 0.0000 0.0000 0.0000 0.0000 34.0759 0.0000
# 6 0.0000 0.0000 0.0000 0.0000 0.0000 12.2498
#
#
#
# Elastic Compliance Matrix: (Units=1/GPa)
#
#
# Indices 1 2 3 4 5 6 
#
# 1 0.028823 -0.007651 -0.012634 0.000000 0.000000 0.000000
# 2 -0.007651 0.032201 -0.005346 0.000000 0.000000 0.000000
# 3 -0.012634 -0.005346 0.014630 0.000000 0.000000 0.000000
# 4 0.000000 0.000000 0.000000 0.376807 0.000000 0.000000
# 5 0.000000 0.000000 0.000000 0.000000 0.029346 0.000000
# 6 0.000000 0.000000 0.000000 0.000000 0.000000 0.081634
#
#
# Mechanical properties :
#
#
# Convention : Reuss Voigt Hill
#
# Bulk Modulus (GPa) = 40.99633 64.63107 52.81370
# Shear Modulus (GPa) = 8.02782 17.90339 12.96561
#
# Velocity S-wave (km/s) = 2.16666 3.23564 2.75352
# Velocity P-wave (km/s) = 5.49842 7.19398 6.40258
#
# Compressibility (1/GPa) = 0.02439243
#
# Stress axis : x y z
#
# Youngs Moduli (GPa) = 34.69489 31.05459 68.35194
#
# Poissons Ratio (x) = 0.23759 0.86358
# Poissons Ratio (y) = 0.26544 0.36539
# Poissons Ratio (z) = 0.43835 0.16601
#
# Static dielectric constant tensor:
#      x y z
#    x 3.234990 0.000000 0.000000 
#    y 0.000000 2.755000 0.000000 
#    z 0.000000 0.000000 3.535560 
# 
# 
# High freq. dielectric constant tensor:
#      x y z
#    x 1.643150 0.000000 0.000000 
#    y 0.000000 1.612090 0.000000 
#    z 0.000000 0.000000 1.676050 
# 
# From -- ./inp_files/43910.got.cif
#   From: 2010.03.12/outbox.cif.g09.slc.cpg/sg64_22_cif.got.tgz:43910.got - 2010.04.10 20:19:32.
