data_PCOD8262630
_publ_section_title
;
Structure prediction by ZEFSAII (Michael W. Deem and Ramdas Pophale) SiO2 
 PCOD8262630
Probable space group: C M C A
;
_chemical_formula_sum "Si O2"
_cell_formula_units_Z 96
_cell_length_a 14.123370
_cell_length_b 15.705168
_cell_length_c 22.535498
_cell_angle_alpha 90.000000
_cell_angle_beta 90.000000
_cell_angle_gamma 90.000000
_cell_volume 4998.596526
_symmetry_space_group_name_H-M "C M C A"
_symmetry_group_IT_number 64
_symmetry_cell_setting 'orthorhombic'
loop_
_space_group_symop_operation_xyz
x,y,z
-x,1/2-y,1/2+z
x,-y,-z
-x,1/2+y,1/2-z
-x,-y,-z
x,1/2+y,1/2-z
-x,y,z
x,1/2-y,1/2+z
1/2+x,1/2+y,z
1/2-x,-y,1/2+z
1/2+x,1/2-y,-z
1/2-x,y,1/2-z
1/2-x,1/2-y,-z
1/2+x,y,1/2-z
1/2-x,1/2+y,z
1/2+x,-y,1/2+z
loop_
_atom_site_type_symbol
_atom_site_label
_atom_site_fract_x
_atom_site_fract_y
_atom_site_fract_z
Si Si1 0.392016 0.739422 0.044821
Si Si2 0.763562 0.376992 0.995245
Si Si3 0.612007 0.566266 0.704700
Si Si4 0.240807 0.991240 0.400007
Si Si5 0.392794 0.249216 0.316908
Si Si6 0.112389 0.059583 0.188383
O O1 0.500000 0.724642 0.026204
O O2 0.333820 0.654060 0.034256
O O3 0.383370 0.766206 0.113198
O O4 0.347105 0.809002 0.001103
O O5 0.803579 0.444701 0.948389
O O6 0.735125 0.408089 0.061234
O O7 0.500000 0.566812 0.693598
O O8 0.659515 0.525633 0.647420
O O9 0.649115 0.664691 0.714631
O O10 0.639842 0.505887 0.759513
O O11 0.337001 0.024977 0.370262
O O12 0.500000 0.242813 0.296035
O O13 0.348915 0.156638 0.298252
O O14 0.000000 0.061558 0.175900
#
# Coordination Sequence:
#
# PCOD8262630 Si02
#       6
#    16  16  16  16  16  16
#     4  10  19  37  58  81 114 152 192 233 281 339
#     4  10  22  34  56  86 116 150 188 232 282 347
#     4  10  21  38  60  84 112 151 197 240 288 343
#     4  11  21  36  54  84 119 149 186 236 288 339
#     4   9  17  35  60  81 108 149 191 235 286 336
#     4  10  21  38  60  84 112 151 197 240 288 343
#
# _framework density 19.205390999999999
#
# number of rings (size 3 to 8) (size 9 to 14) (size 15 to 20)
#    0.000    2.000    3.333    0.500    0.000    1.333 
#    0.000   10.000    0.000    2.000    0.000    0.000 
#    0.000    0.000    0.000    0.000    0.000    0.000 
#
# Total GULP energy -594722.900408 kJ/mol
# GULP energy per Si atom -12390.060425 kJ/mol
# Density = 1.916168 g / cm^3
# Si number density = 19.205391 Si / 1000 Ang^3
#
#
#
# Elastic Constant Matrix: (Units=GPa)
#
#
# Indices 1 2 3 4 5 6 
#
# 1 50.5600 22.4362 19.9110 0.0000 0.0000 0.0000
# 2 22.4362 91.8544 29.7302 0.0000 0.0000 0.0000
# 3 19.9110 29.7302 78.7723 0.0000 0.0000 0.0000
# 4 0.0000 0.0000 0.0000 35.5882 0.0000 0.0000
# 5 0.0000 0.0000 0.0000 0.0000 27.5816 0.0000
# 6 0.0000 0.0000 0.0000 0.0000 0.0000 15.1874
#
#
#
# Elastic Compliance Matrix: (Units=1/GPa)
#
#
# Indices 1 2 3 4 5 6 
#
# 1 0.023383 -0.004327 -0.004277 0.000000 0.000000 0.000000
# 2 -0.004327 0.013203 -0.003889 0.000000 0.000000 0.000000
# 3 -0.004277 -0.003889 0.015244 0.000000 0.000000 0.000000
# 4 0.000000 0.000000 0.000000 0.028099 0.000000 0.000000
# 5 0.000000 0.000000 0.000000 0.000000 0.036256 0.000000
# 6 0.000000 0.000000 0.000000 0.000000 0.000000 0.065844
#
#
# Mechanical properties :
#
#
# Convention : Reuss Voigt Hill
#
# Bulk Modulus (GPa) = 37.25464 40.59351 38.92407
# Shear Modulus (GPa) = 23.15210 25.61206 24.38208
#
# Velocity S-wave (km/s) = 3.47580 3.65579 3.56693
# Velocity P-wave (km/s) = 5.96224 6.24517 6.10535
#
# Compressibility (1/GPa) = 0.02684229
#
# Stress axis : x y z
#
# Youngs Moduli (GPa) = 42.76597 75.74312 65.60039
#
# Poissons Ratio (x) = 0.32775 0.28059
# Poissons Ratio (y) = 0.18505 0.25513
# Poissons Ratio (z) = 0.18292 0.29458
#
# Static dielectric constant tensor:
#      x y z
#    x 3.284760 0.000000 0.000000 
#    y 0.000000 4.012040 0.000000 
#    z 0.000000 0.000000 3.454360 
# 
# 
# High freq. dielectric constant tensor:
#      x y z
#    x 1.728690 0.000000 0.000000 
#    y 0.000000 1.767400 0.000000 
#    z 0.000000 0.000000 1.738940 
# 
# From -- ./inp_files/39218.got.cif
#   From: 2010.03.12/outbox.cif.g09.slc.cpg/sg64_20_cif.got.tgz:39218.got - 2010.04.10 20:19:32.
