data_PCOD8262961
_publ_section_title
;
Structure prediction by ZEFSAII (Michael W. Deem and Ramdas Pophale) SiO2 
 PCOD8262961
Probable space group: C M C A
;
_chemical_formula_sum "Si O2"
_cell_formula_units_Z 104
_cell_length_a 28.829900
_cell_length_b 9.109148
_cell_length_c 21.679475
_cell_angle_alpha 90.000000
_cell_angle_beta 90.000000
_cell_angle_gamma 90.000000
_cell_volume 5693.373233
_symmetry_space_group_name_H-M "C M C A"
_symmetry_group_IT_number 64
_symmetry_cell_setting 'orthorhombic'
loop_
_space_group_symop_operation_xyz
x,y,z
-x,1/2-y,1/2+z
x,-y,-z
-x,1/2+y,1/2-z
-x,-y,-z
x,1/2+y,1/2-z
-x,y,z
x,1/2-y,1/2+z
1/2+x,1/2+y,z
1/2-x,-y,1/2+z
1/2+x,1/2-y,-z
1/2-x,y,1/2-z
1/2-x,1/2-y,-z
1/2+x,y,1/2-z
1/2-x,1/2+y,z
1/2+x,-y,1/2+z
loop_
_atom_site_type_symbol
_atom_site_label
_atom_site_fract_x
_atom_site_fract_y
_atom_site_fract_z
Si Si1 0.250000 0.920291 0.750000
Si Si2 0.552965 0.171367 0.486667
Si Si3 0.052241 0.712737 0.118738
Si Si4 0.389075 0.785200 0.631289
Si Si5 0.551814 0.932958 0.193354
Si Si6 0.688230 0.834451 0.206870
Si Si7 0.885559 0.422236 0.302196
O O1 0.284081 0.818434 0.710296
O O2 0.277786 0.025138 0.798398
O O3 0.500000 0.204182 0.463479
O O4 0.564608 0.265165 0.547305
O O5 0.592803 0.219046 0.438614
O O6 0.557899 0.000000 0.500000
O O7 0.055767 0.540736 0.134473
O O8 0.000000 0.772057 0.131132
O O9 0.087807 0.795752 0.162118
O O10 0.431553 0.728822 0.673397
O O11 0.345362 0.676515 0.646592
O O12 0.373622 0.948535 0.650119
O O13 0.500000 0.919413 0.218273
O O14 0.582642 0.994132 0.249207
O O15 0.660125 0.852524 0.271293
#
# Coordination Sequence:
#
# PCOD8262961 Si02
#       7
#     8  16  16  16  16  16  16
#     4  10  20  38  60  82 118 138 168 222 298 364
#     4  10  20  35  54  76 109 160 210 239 267 314
#     4  10  21  35  52  77 114 160 201 233 268 319
#     4  11  21  34  53  80 111 143 190 236 273 333
#     4  10  21  32  48  76 113 149 183 232 284 323
#     4  10  21  36  57  89 111 141 172 223 291 354
#     4  11  20  33  53  81 115 142 183 227 280 342
#
# _framework density 18.266850999999999
#
# number of rings (size 3 to 8) (size 9 to 14) (size 15 to 20)
#    0.000    1.692    3.077    2.769    2.154    3.692 
#    0.000    2.308    0.000    0.000    0.000   11.846 
#    0.000    0.000    0.000    0.000    0.000    0.000 
#
# Total GULP energy -644567.803727 kJ/mol
# GULP energy per Si atom -12395.534687 kJ/mol
# Density = 1.822527 g / cm^3
# Si number density = 18.266851 Si / 1000 Ang^3
#
#
#
# Elastic Constant Matrix: (Units=GPa)
#
#
# Indices 1 2 3 4 5 6 
#
# 1 103.8410 39.9509 48.6537 0.0000 0.0000 0.0000
# 2 39.9509 79.0908 23.9035 0.0000 0.0000 0.0000
# 3 48.6537 23.9035 91.6080 0.0000 0.0000 0.0000
# 4 0.0000 0.0000 0.0000 25.7024 0.0000 0.0000
# 5 0.0000 0.0000 0.0000 0.0000 26.7295 0.0000
# 6 0.0000 0.0000 0.0000 0.0000 0.0000 11.2425
#
#
#
# Elastic Compliance Matrix: (Units=1/GPa)
#
#
# Indices 1 2 3 4 5 6 
#
# 1 0.014748 -0.005518 -0.006393 0.000000 0.000000 0.000000
# 2 -0.005518 0.015790 -0.001190 0.000000 0.000000 0.000000
# 3 -0.006393 -0.001190 0.014622 0.000000 0.000000 0.000000
# 4 0.000000 0.000000 0.000000 0.038907 0.000000 0.000000
# 5 0.000000 0.000000 0.000000 0.000000 0.037412 0.000000
# 6 0.000000 0.000000 0.000000 0.000000 0.000000 0.088948
#
#
# Mechanical properties :
#
#
# Convention : Reuss Voigt Hill
#
# Bulk Modulus (GPa) = 52.74396 55.50625 54.12510
# Shear Modulus (GPa) = 20.58045 23.53699 22.05872
#
# Velocity S-wave (km/s) = 3.36021 3.59347 3.47880
# Velocity P-wave (km/s) = 6.63261 6.90432 6.76983
#
# Compressibility (1/GPa) = 0.01895952
#
# Stress axis : x y z
#
# Youngs Moduli (GPa) = 67.80399 63.32977 68.38989
#
# Poissons Ratio (x) = 0.34943 0.43724
# Poissons Ratio (y) = 0.37411 0.08137
# Poissons Ratio (z) = 0.43349 0.07535
#
# Static dielectric constant tensor:
#      x y z
#    x 3.494680 0.000000 0.000000 
#    y 0.000000 3.387810 0.000000 
#    z 0.000000 0.000000 3.217000 
# 
# 
# High freq. dielectric constant tensor:
#      x y z
#    x 1.701510 0.000000 0.000000 
#    y 0.000000 1.718310 0.000000 
#    z 0.000000 0.000000 1.677130 
# 
# From -- ./inp_files/42084.got.cif
#   From: 2010.03.12/outbox.cif.g09.slc.cpg/sg64_22_cif.got.tgz:42084.got - 2010.04.10 20:19:32.
