data_PCOD8262847
_publ_section_title
;
Structure prediction by ZEFSAII (Michael W. Deem and Ramdas Pophale) SiO2 
 PCOD8262847
Probable space group: C M C A
;
_chemical_formula_sum "Si O2"
_cell_formula_units_Z 96
_cell_length_a 9.058594
_cell_length_b 19.169309
_cell_length_c 30.562127
_cell_angle_alpha 90.000000
_cell_angle_beta 90.000000
_cell_angle_gamma 90.000000
_cell_volume 5307.021285
_symmetry_space_group_name_H-M "C M C A"
_symmetry_group_IT_number 64
_symmetry_cell_setting 'orthorhombic'
loop_
_space_group_symop_operation_xyz
x,y,z
-x,1/2-y,1/2+z
x,-y,-z
-x,1/2+y,1/2-z
-x,-y,-z
x,1/2+y,1/2-z
-x,y,z
x,1/2-y,1/2+z
1/2+x,1/2+y,z
1/2-x,-y,1/2+z
1/2+x,1/2-y,-z
1/2-x,y,1/2-z
1/2-x,1/2-y,-z
1/2+x,y,1/2-z
1/2-x,1/2+y,z
1/2+x,-y,1/2+z
loop_
_atom_site_type_symbol
_atom_site_label
_atom_site_fract_x
_atom_site_fract_y
_atom_site_fract_z
Si Si1 0.173504 0.539215 0.205358
Si Si2 0.828993 0.792582 0.462557
Si Si3 0.170768 0.045998 0.541042
Si Si4 0.827903 0.199976 0.293881
Si Si5 0.670985 0.792859 0.374015
Si Si6 0.328762 0.545124 0.870332
O O1 0.250000 0.513832 0.250000
O O2 0.211371 0.619844 0.196207
O O3 0.236552 0.495315 0.165645
O O4 0.000000 0.526101 0.209576
O O5 0.750000 0.750000 0.500000
O O6 0.800649 0.873961 0.471368
O O7 0.763267 0.769820 0.416083
O O8 0.000000 0.773476 0.462838
O O9 0.269462 0.023059 0.582089
O O10 0.000000 0.032780 0.553044
O O11 0.221249 0.000000 0.500000
O O12 0.750000 0.226577 0.250000
O O13 0.769922 0.246506 0.333950
O O14 0.000000 0.211218 0.286745
O O15 0.500000 0.777747 0.384033
O O16 0.697654 0.873225 0.362147
O O17 0.500000 0.524782 0.866991
#
# Coordination Sequence:
#
# PCOD8262847 Si02
#       6
#    16  16  16  16  16  16
#     4  10  20  35  54  75 102 134 169 208 249 297
#     4  10  20  34  53  76 102 133 168 208 253 300
#     4   9  19  36  55  74  99 134 174 211 249 297
#     4   9  19  35  54  75 100 132 168 207 249 293
#     4   9  19  36  54  74 102 134 169 208 250 297
#     4  10  20  34  53  77 105 134 166 208 255 302
#
# _framework density 18.089244000000001
#
# number of rings (size 3 to 8) (size 9 to 14) (size 15 to 20)
#    0.000    2.500    0.000    1.500    0.000    5.000 
#    0.000    8.333    0.000    0.000    0.000    0.000 
#    0.000    0.000    0.000    0.000    0.000    0.000 
#
# Total GULP energy -595390.993940 kJ/mol
# GULP energy per Si atom -12403.979040 kJ/mol
# Density = 1.804807 g / cm^3
# Si number density = 18.089244 Si / 1000 Ang^3
#
#
#
# Elastic Constant Matrix: (Units=GPa)
#
#
# Indices 1 2 3 4 5 6 
#
# 1 94.5064 49.1358 83.7363 0.0000 0.0000 0.0000
# 2 49.1358 69.2252 84.8942 0.0000 0.0000 0.0000
# 3 83.7363 84.8942 176.1559 0.0000 0.0000 0.0000
# 4 0.0000 0.0000 0.0000 39.2096 0.0000 0.0000
# 5 0.0000 0.0000 0.0000 0.0000 41.9195 0.0000
# 6 0.0000 0.0000 0.0000 0.0000 0.0000 26.9211
#
#
#
# Elastic Compliance Matrix: (Units=1/GPa)
#
#
# Indices 1 2 3 4 5 6 
#
# 1 0.019239 -0.005967 -0.006270 0.000000 0.000000 0.000000
# 2 -0.005967 0.037171 -0.015077 0.000000 0.000000 0.000000
# 3 -0.006270 -0.015077 0.015923 0.000000 0.000000 0.000000
# 4 0.000000 0.000000 0.000000 0.025504 0.000000 0.000000
# 5 0.000000 0.000000 0.000000 0.000000 0.023855 0.000000
# 6 0.000000 0.000000 0.000000 0.000000 0.000000 0.037146
#
#
# Mechanical properties :
#
#
# Convention : Reuss Voigt Hill
#
# Bulk Modulus (GPa) = 56.48022 86.15778 71.31900
# Shear Modulus (GPa) = 22.79291 29.75144 26.27218
#
# Velocity S-wave (km/s) = 3.55354 4.05989 3.81512
# Velocity P-wave (km/s) = 6.93741 8.34923 7.67585
#
# Compressibility (1/GPa) = 0.01770531
#
# Stress axis : x y z
#
# Youngs Moduli (GPa) = 51.97861 26.90288 62.80164
#
# Poissons Ratio (x) = 0.16053 0.39374
# Poissons Ratio (y) = 0.31015 0.94687
# Poissons Ratio (z) = 0.32588 0.40562
#
# Static dielectric constant tensor:
#      x y z
#    x 3.406290 0.000000 0.000000 
#    y 0.000000 3.340800 0.000000 
#    z 0.000000 0.000000 3.454580 
# 
# 
# High freq. dielectric constant tensor:
#      x y z
#    x 1.707200 0.000000 0.000000 
#    y 0.000000 1.695340 0.000000 
#    z 0.000000 0.000000 1.709450 
# 
# From -- ./inp_files/48059.got.cif
#   From: 2010.03.12/outbox.cif.g09.slc.cpg/sg64_25_cif.got.tgz:48059.got - 2010.04.10 20:19:32.
