data_PCOD8262108
_publ_section_title
;
Structure prediction by ZEFSAII (Michael W. Deem and Ramdas Pophale) SiO2 
 PCOD8262108
Probable space group: C M C A
;
_chemical_formula_sum "Si O2"
_cell_formula_units_Z 96
_cell_length_a 8.918928
_cell_length_b 23.533703
_cell_length_c 25.803755
_cell_angle_alpha 90.000000
_cell_angle_beta 90.000000
_cell_angle_gamma 90.000000
_cell_volume 5416.089545
_symmetry_space_group_name_H-M "C M C A"
_symmetry_group_IT_number 64
_symmetry_cell_setting 'orthorhombic'
loop_
_space_group_symop_operation_xyz
x,y,z
-x,1/2-y,1/2+z
x,-y,-z
-x,1/2+y,1/2-z
-x,-y,-z
x,1/2+y,1/2-z
-x,y,z
x,1/2-y,1/2+z
1/2+x,1/2+y,z
1/2-x,-y,1/2+z
1/2+x,1/2-y,-z
1/2-x,y,1/2-z
1/2-x,1/2-y,-z
1/2+x,y,1/2-z
1/2-x,1/2+y,z
1/2+x,-y,1/2+z
loop_
_atom_site_type_symbol
_atom_site_label
_atom_site_fract_x
_atom_site_fract_y
_atom_site_fract_z
Si Si1 0.676271 0.585529 0.804717
Si Si2 0.170738 0.613117 0.072113
Si Si3 0.325329 0.827463 0.392991
Si Si4 0.331454 0.414047 0.458424
Si Si5 0.323383 0.729951 0.053836
Si Si6 0.326776 0.497112 0.626365
O O1 0.500000 0.582107 0.798131
O O2 0.750000 0.597918 0.750000
O O3 0.724180 0.637803 0.841822
O O4 0.730678 0.525187 0.827751
O O5 0.281059 0.666243 0.070196
O O6 0.216500 0.569293 0.118131
O O7 0.000000 0.634731 0.079839
O O8 0.182643 0.576140 0.019544
O O9 0.500000 0.813071 0.392575
O O10 0.286434 0.865312 0.443083
O O11 0.233165 0.769074 0.398437
O O12 0.500000 0.393202 0.444119
O O13 0.293240 0.471530 0.427978
O O14 0.500000 0.735023 0.047325
O O15 0.250000 0.750000 0.000000
O O16 0.500000 0.502664 0.642091
#
# Coordination Sequence:
#
# PCOD8262108 Si02
#       6
#    16  16  16  16  16  16
#     4  10  21  37  59  83 106 133 170 220 273 321
#     4  10  19  31  49  74 107 145 180 212 253 306
#     4  10  20  34  52  77 106 137 177 222 265 310
#     4   9  16  28  48  73 104 141 176 210 251 304
#     4  12  23  34  50  73 106 147 185 220 258 309
#     4   9  18  32  51  77 107 138 174 215 261 314
#
# _framework density 17.724965000000001
#
# number of rings (size 3 to 8) (size 9 to 14) (size 15 to 20)
#    0.000    2.000    1.667    3.000    0.000    4.667 
#    0.000    0.000    0.000    6.000    0.000    4.667 
#    0.000    0.000    0.000    0.000    0.000    0.000 
#
# Total GULP energy -595080.524345 kJ/mol
# GULP energy per Si atom -12397.510924 kJ/mol
# Density = 1.768462 g / cm^3
# Si number density = 17.724965 Si / 1000 Ang^3
#
#
#
# Elastic Constant Matrix: (Units=GPa)
#
#
# Indices 1 2 3 4 5 6 
#
# 1 93.5403 49.5310 38.9742 0.0000 0.0000 0.0000
# 2 49.5310 104.1614 40.5306 0.0000 0.0000 0.0000
# 3 38.9742 40.5306 77.7101 0.0000 0.0000 0.0000
# 4 0.0000 0.0000 0.0000 15.5698 0.0000 0.0000
# 5 0.0000 0.0000 0.0000 0.0000 23.1218 0.0000
# 6 0.0000 0.0000 0.0000 0.0000 0.0000 30.8862
#
#
#
# Elastic Compliance Matrix: (Units=1/GPa)
#
#
# Indices 1 2 3 4 5 6 
#
# 1 0.015693 -0.005520 -0.004992 0.000000 0.000000 0.000000
# 2 -0.005520 0.013987 -0.004526 0.000000 0.000000 0.000000
# 3 -0.004992 -0.004526 0.017733 0.000000 0.000000 0.000000
# 4 0.000000 0.000000 0.000000 0.064227 0.000000 0.000000
# 5 0.000000 0.000000 0.000000 0.000000 0.043249 0.000000
# 6 0.000000 0.000000 0.000000 0.000000 0.000000 0.032377
#
#
# Mechanical properties :
#
#
# Convention : Reuss Voigt Hill
#
# Bulk Modulus (GPa) = 57.68246 59.27591 58.47919
# Shear Modulus (GPa) = 22.40934 23.67394 23.04164
#
# Velocity S-wave (km/s) = 3.55953 3.65859 3.60940
# Velocity P-wave (km/s) = 7.03615 7.16671 7.10173
#
# Compressibility (1/GPa) = 0.01733629
#
# Stress axis : x y z
#
# Youngs Moduli (GPa) = 63.72090 71.49618 56.39336
#
# Poissons Ratio (x) = 0.39468 0.28149
# Poissons Ratio (y) = 0.35176 0.25526
# Poissons Ratio (z) = 0.31807 0.32362
#
# Static dielectric constant tensor:
#      x y z
#    x 3.290390 0.000000 0.000000 
#    y 0.000000 3.389450 0.000000 
#    z 0.000000 0.000000 3.073990 
# 
# 
# High freq. dielectric constant tensor:
#      x y z
#    x 1.686880 0.000000 0.000000 
#    y 0.000000 1.684930 0.000000 
#    z 0.000000 0.000000 1.652190 
# 
# From -- ./inp_files/43034.got.cif
#   From: 2010.03.12/outbox.cif.g09.slc.cpg/sg64_22_cif.got.tgz:43034.got - 2010.04.10 20:19:32.
