data_PCOD8262632
_publ_section_title
;
Structure prediction by ZEFSAII (Michael W. Deem and Ramdas Pophale) SiO2 
 PCOD8262632
Probable space group: C M C A
;
_chemical_formula_sum "Si O2"
_cell_formula_units_Z 96
_cell_length_a 21.947213
_cell_length_b 20.267462
_cell_length_c 11.408758
_cell_angle_alpha 90.000000
_cell_angle_beta 90.000000
_cell_angle_gamma 90.000000
_cell_volume 5074.778766
_symmetry_space_group_name_H-M "C M C A"
_symmetry_group_IT_number 64
_symmetry_cell_setting 'orthorhombic'
loop_
_space_group_symop_operation_xyz
x,y,z
-x,1/2-y,1/2+z
x,-y,-z
-x,1/2+y,1/2-z
-x,-y,-z
x,1/2+y,1/2-z
-x,y,z
x,1/2-y,1/2+z
1/2+x,1/2+y,z
1/2-x,-y,1/2+z
1/2+x,1/2-y,-z
1/2-x,y,1/2-z
1/2-x,1/2-y,-z
1/2+x,y,1/2-z
1/2-x,1/2+y,z
1/2+x,-y,1/2+z
loop_
_atom_site_type_symbol
_atom_site_label
_atom_site_fract_x
_atom_site_fract_y
_atom_site_fract_z
Si Si1 0.163324 0.189962 0.983199
Si Si2 0.928320 0.312477 0.686988
Si Si3 0.933256 0.554451 0.868041
Si Si4 0.392020 0.417612 0.619344
Si Si5 0.869225 0.671835 0.768472
Si Si6 0.199665 0.667196 0.001076
O O1 0.156405 0.154855 0.859014
O O2 0.162526 0.268168 0.958514
O O3 0.109653 0.167005 0.070753
O O4 0.229447 0.170673 0.034186
O O5 0.920781 0.369017 0.784591
O O6 0.900690 0.243390 0.730457
O O7 0.000000 0.304950 0.656577
O O8 0.887423 0.493656 0.836770
O O9 0.920334 0.617336 0.788747
O O10 0.000000 0.527951 0.836895
O O11 0.933301 0.579233 0.002703
O O12 0.325335 0.393351 0.578259
O O13 0.814143 0.661782 0.861747
#
# Coordination Sequence:
#
# PCOD8262632 Si02
#       6
#    16  16  16  16  16  16
#     4  10  20  36  56  86 115 147 188 239 298 344
#     4  11  22  34  55  87 120 151 189 236 288 349
#     4  10  20  35  60  84 115 155 194 238 288 340
#     4  10  19  37  58  84 110 152 198 240 280 336
#     4  10  20  36  56  86 115 150 191 240 290 342
#     4   9  19  35  61  82 108 148 196 241 284 341
#
# _framework density 18.917081
#
# number of rings (size 3 to 8) (size 9 to 14) (size 15 to 20)
#    0.000    2.000    1.667    3.000    0.000    2.000 
#    0.000    0.833   25.667    2.000    0.000    0.000 
#    0.000    0.000    0.000    0.000    0.000    0.000 
#
# Total GULP energy -594884.969226 kJ/mol
# GULP energy per Si atom -12393.436859 kJ/mol
# Density = 1.887402 g / cm^3
# Si number density = 18.917081 Si / 1000 Ang^3
#
#
#
# Elastic Constant Matrix: (Units=GPa)
#
#
# Indices 1 2 3 4 5 6 
#
# 1 93.3072 23.3055 34.4994 0.0000 0.0000 0.0000
# 2 23.3055 101.5665 37.6955 0.0000 0.0000 0.0000
# 3 34.4994 37.6955 82.2526 0.0000 0.0000 0.0000
# 4 0.0000 0.0000 0.0000 28.6698 0.0000 0.0000
# 5 0.0000 0.0000 0.0000 0.0000 14.3313 0.0000
# 6 0.0000 0.0000 0.0000 0.0000 0.0000 21.7537
#
#
#
# Elastic Compliance Matrix: (Units=1/GPa)
#
#
# Indices 1 2 3 4 5 6 
#
# 1 0.012793 -0.001137 -0.004844 0.000000 0.000000 0.000000
# 2 -0.001137 0.011965 -0.005006 0.000000 0.000000 0.000000
# 3 -0.004844 -0.005006 0.016484 0.000000 0.000000 0.000000
# 4 0.000000 0.000000 0.000000 0.034880 0.000000 0.000000
# 5 0.000000 0.000000 0.000000 0.000000 0.069777 0.000000
# 6 0.000000 0.000000 0.000000 0.000000 0.000000 0.045969
#
#
# Mechanical properties :
#
#
# Convention : Reuss Voigt Hill
#
# Bulk Modulus (GPa) = 51.90728 52.01412 51.96070
# Shear Modulus (GPa) = 22.69988 25.05935 23.87962
#
# Velocity S-wave (km/s) = 3.46781 3.64358 3.55678
# Velocity P-wave (km/s) = 6.59797 6.72729 6.66295
#
# Compressibility (1/GPa) = 0.01926512
#
# Stress axis : x y z
#
# Youngs Moduli (GPa) = 78.17065 83.57854 60.66545
#
# Poissons Ratio (x) = 0.09507 0.29388
# Poissons Ratio (y) = 0.08891 0.30371
# Poissons Ratio (z) = 0.37868 0.41842
#
# Static dielectric constant tensor:
#      x y z
#    x 3.381110 0.000000 0.000000 
#    y 0.000000 3.548990 0.000000 
#    z 0.000000 0.000000 3.350390 
# 
# 
# High freq. dielectric constant tensor:
#      x y z
#    x 1.727830 0.000000 0.000000 
#    y 0.000000 1.728220 0.000000 
#    z 0.000000 0.000000 1.724450 
# 
# From -- ./inp_files/17334.got.cif
#   From: 2010.03.12/outbox.cif.g09.slc.cpg/sg64_9_cif.got.tgz:17334.got - 2010.04.10 20:19:32.
