data_PCOD8262137
_publ_section_title
;
Structure prediction by ZEFSAII (Michael W. Deem and Ramdas Pophale) SiO2 
 PCOD8262137
Probable space group: C M C A
;
_chemical_formula_sum "Si O2"
_cell_formula_units_Z 128
_cell_length_a 17.804000
_cell_length_b 19.088326
_cell_length_c 21.207639
_cell_angle_alpha 90.000000
_cell_angle_beta 90.000000
_cell_angle_gamma 90.000000
_cell_volume 7207.385493
_symmetry_space_group_name_H-M "C M C A"
_symmetry_group_IT_number 64
_symmetry_cell_setting 'orthorhombic'
loop_
_space_group_symop_operation_xyz
x,y,z
-x,1/2-y,1/2+z
x,-y,-z
-x,1/2+y,1/2-z
-x,-y,-z
x,1/2+y,1/2-z
-x,y,z
x,1/2-y,1/2+z
1/2+x,1/2+y,z
1/2-x,-y,1/2+z
1/2+x,1/2-y,-z
1/2-x,y,1/2-z
1/2-x,1/2-y,-z
1/2+x,y,1/2-z
1/2-x,1/2+y,z
1/2+x,-y,1/2+z
loop_
_atom_site_type_symbol
_atom_site_label
_atom_site_fract_x
_atom_site_fract_y
_atom_site_fract_z
Si Si1 0.820549 0.158403 0.205876
Si Si2 0.704907 0.996028 0.685353
Si Si3 0.688664 0.764694 0.576723
Si Si4 0.585307 0.217300 0.762587
Si Si5 0.586891 0.884753 0.348940
Si Si6 0.185796 0.162141 0.955369
Si Si7 0.702632 0.037197 0.932851
Si Si8 0.410841 0.144623 0.887708
O O1 0.750000 0.160441 0.250000
O O2 0.840008 0.077349 0.192480
O O3 0.803911 0.199226 0.142907
O O4 0.884579 0.203188 0.240749
O O5 0.750000 0.013961 0.750000
O O6 0.640191 0.052823 0.674022
O O7 0.761701 0.991019 0.624693
O O8 0.771370 0.732272 0.566775
O O9 0.665747 0.825962 0.528146
O O10 0.623101 0.706517 0.569050
O O11 0.500000 0.227015 0.780495
O O12 0.599665 0.180928 0.696443
O O13 0.617316 0.165617 0.817180
O O14 0.500000 0.909661 0.349824
O O15 0.609920 0.854571 0.417077
O O16 0.239203 0.096881 0.948299
O O17 0.624741 0.069918 0.906979
O O18 0.686640 0.000000 0.000000
O O19 0.500000 0.138719 0.896091
#
# Coordination Sequence:
#
# PCOD8262137 Si02
#       8
#    16  16  16  16  16  16  16  16
#     4  10  19  31  51  76  98 125 165 209 251 299
#     4  10  21  35  52  75 104 136 172 212 259 311
#     4   9  17  31  50  71  99 130 163 209 256 303
#     4   9  18  33  52  74 100 129 164 207 253 302
#     4  10  20  34  53  76 103 135 173 217 260 308
#     4   9  18  31  49  72  96 129 168 205 254 306
#     4  10  19  32  51  72  99 133 169 210 253 303
#     4   9  18  31  49  74 100 131 170 208 253 308
#
# _framework density 17.75956
#
# number of rings (size 3 to 8) (size 9 to 14) (size 15 to 20)
#    0.000    2.500    0.000    2.250    0.000    3.750 
#    0.000    0.000    0.000   13.500    0.000    0.000 
#    0.000    0.000    0.000    0.000    0.000    0.000 
#
# Total GULP energy -793005.176361 kJ/mol
# GULP energy per Si atom -12390.705881 kJ/mol
# Density = 1.771914 g / cm^3
# Si number density = 17.759560 Si / 1000 Ang^3
#
#
#
# Elastic Constant Matrix: (Units=GPa)
#
#
# Indices 1 2 3 4 5 6 
#
# 1 66.1626 35.1766 8.8596 0.0000 0.0000 0.0000
# 2 35.1766 89.2021 27.0209 0.0000 0.0000 0.0000
# 3 8.8596 27.0209 28.9064 0.0000 0.0000 0.0000
# 4 0.0000 0.0000 0.0000 31.0863 0.0000 0.0000
# 5 0.0000 0.0000 0.0000 0.0000 22.4961 0.0000
# 6 0.0000 0.0000 0.0000 0.0000 0.0000 23.0648
#
#
#
# Elastic Compliance Matrix: (Units=1/GPa)
#
#
# Indices 1 2 3 4 5 6 
#
# 1 0.019181 -0.008068 0.001662 0.000000 0.000000 0.000000
# 2 -0.008068 0.019032 -0.015318 0.000000 0.000000 0.000000
# 3 0.001662 -0.015318 0.048404 0.000000 0.000000 0.000000
# 4 0.000000 0.000000 0.000000 0.032169 0.000000 0.000000
# 5 0.000000 0.000000 0.000000 0.000000 0.044452 0.000000
# 6 0.000000 0.000000 0.000000 0.000000 0.000000 0.043356
#
#
# Mechanical properties :
#
#
# Convention : Reuss Voigt Hill
#
# Bulk Modulus (GPa) = 23.16394 36.26505 29.71450
# Shear Modulus (GPa) = 18.90864 22.87704 20.89284
#
# Velocity S-wave (km/s) = 3.26652 3.59298 3.43363
# Velocity P-wave (km/s) = 5.22477 6.13816 5.69979
#
# Compressibility (1/GPa) = 0.04317055
#
# Stress axis : x y z
#
# Youngs Moduli (GPa) = 52.13522 52.54315 20.65960
#
# Poissons Ratio (x) = 0.42389 -0.03435
# Poissons Ratio (y) = 0.42060 0.31646
# Poissons Ratio (z) = -0.08667 0.80485
#
# Static dielectric constant tensor:
#      x y z
#    x 3.221130 0.000000 0.000000 
#    y 0.000000 3.628350 0.000000 
#    z 0.000000 0.000000 3.466230 
# 
# 
# High freq. dielectric constant tensor:
#      x y z
#    x 1.672460 0.000000 0.000000 
#    y 0.000000 1.685440 0.000000 
#    z 0.000000 0.000000 1.697250 
# 
# From -- ./inp_files/40548.got.cif
#   From: 2010.03.12/outbox.cif.g09.slc.cpg/sg64_21_cif.got.tgz:40548.got - 2010.04.10 20:19:32.
