data_PCOD8262903
_publ_section_title
;
Structure prediction by ZEFSAII (Michael W. Deem and Ramdas Pophale) SiO2 
 PCOD8262903
Probable space group: C M C A
;
_chemical_formula_sum "Si O2"
_cell_formula_units_Z 96
_cell_length_a 9.040888
_cell_length_b 22.383416
_cell_length_c 23.132482
_cell_angle_alpha 90.000000
_cell_angle_beta 90.000000
_cell_angle_gamma 90.000000
_cell_volume 4681.226860
_symmetry_space_group_name_H-M "C M C A"
_symmetry_group_IT_number 64
_symmetry_cell_setting 'orthorhombic'
loop_
_space_group_symop_operation_xyz
x,y,z
-x,1/2-y,1/2+z
x,-y,-z
-x,1/2+y,1/2-z
-x,-y,-z
x,1/2+y,1/2-z
-x,y,z
x,1/2-y,1/2+z
1/2+x,1/2+y,z
1/2-x,-y,1/2+z
1/2+x,1/2-y,-z
1/2-x,y,1/2-z
1/2-x,1/2-y,-z
1/2+x,y,1/2-z
1/2-x,1/2+y,z
1/2+x,-y,1/2+z
loop_
_atom_site_type_symbol
_atom_site_label
_atom_site_fract_x
_atom_site_fract_y
_atom_site_fract_z
Si Si1 0.833514 0.344018 0.693903
Si Si2 0.672771 0.446341 0.625748
Si Si3 0.671043 0.147540 0.598216
Si Si4 0.171146 0.388057 0.525998
Si Si5 0.673003 0.930760 0.188199
Si Si6 0.665992 0.732764 0.084828
O O1 0.750000 0.320543 0.750000
O O2 0.751510 0.401485 0.669097
O O3 0.832488 0.288626 0.650785
O O4 0.000000 0.363689 0.709307
O O5 0.500000 0.432571 0.624937
O O6 0.735933 0.437992 0.560645
O O7 0.707688 0.512235 0.648549
O O8 0.500000 0.149501 0.616007
O O9 0.694977 0.104097 0.542673
O O10 0.764556 0.125842 0.653130
O O11 0.721129 0.213059 0.578432
O O12 0.222502 0.321416 0.544427
O O13 0.000000 0.395852 0.544016
O O14 0.500000 0.921522 0.198735
O O15 0.750000 0.937167 0.250000
O O16 0.500000 0.752898 0.067115
#
# Coordination Sequence:
#
# PCOD8262903 Si02
#       6
#    16  16  16  16  16  16
#     4  10  20  34  55  83 114 148 188 236 289 342
#     4  10  21  37  60  87 113 146 188 236 288 337
#     4  11  23  38  59  86 116 153 192 231 279 334
#     4   9  20  38  60  88 119 150 185 229 284 339
#     4  11  25  43  61  83 113 151 193 235 282 336
#     4   9  19  36  56  81 116 154 190 232 281 335
#
# _framework density 20.507445000000001
#
# number of rings (size 3 to 8) (size 9 to 14) (size 15 to 20)
#    0.000    2.000    0.000    4.000    0.000   10.000 
#    0.000    5.000    0.000    0.000    0.000    0.000 
#    0.000    0.000    0.000    0.000    0.000    0.000 
#
# Total GULP energy -595308.865032 kJ/mol
# GULP energy per Si atom -12402.268021 kJ/mol
# Density = 2.046077 g / cm^3
# Si number density = 20.507445 Si / 1000 Ang^3
#
#
#
# Elastic Constant Matrix: (Units=GPa)
#
#
# Indices 1 2 3 4 5 6 
#
# 1 113.0164 39.4406 56.5180 0.0000 0.0000 0.0000
# 2 39.4406 56.2879 21.4595 0.0000 0.0000 0.0000
# 3 56.5180 21.4595 83.7029 0.0000 0.0000 0.0000
# 4 0.0000 0.0000 0.0000 13.4792 0.0000 0.0000
# 5 0.0000 0.0000 0.0000 0.0000 37.0306 0.0000
# 6 0.0000 0.0000 0.0000 0.0000 0.0000 29.9684
#
#
#
# Elastic Compliance Matrix: (Units=1/GPa)
#
#
# Indices 1 2 3 4 5 6 
#
# 1 0.015975 -0.007849 -0.008775 0.000000 0.000000 0.000000
# 2 -0.007849 0.023546 -0.000737 0.000000 0.000000 0.000000
# 3 -0.008775 -0.000737 0.018061 0.000000 0.000000 0.000000
# 4 0.000000 0.000000 0.000000 0.074188 0.000000 0.000000
# 5 0.000000 0.000000 0.000000 0.000000 0.027005 0.000000
# 6 0.000000 0.000000 0.000000 0.000000 0.000000 0.033368
#
#
# Mechanical properties :
#
#
# Convention : Reuss Voigt Hill
#
# Bulk Modulus (GPa) = 43.74149 54.20483 48.97316
# Shear Modulus (GPa) = 21.32326 25.13491 23.22909
#
# Velocity S-wave (km/s) = 3.22806 3.50472 3.36923
# Velocity P-wave (km/s) = 5.93883 6.54726 6.25045
#
# Compressibility (1/GPa) = 0.02286159
#
# Stress axis : x y z
#
# Youngs Moduli (GPa) = 62.59625 42.46946 55.36818
#
# Poissons Ratio (x) = 0.33332 0.48584
# Poissons Ratio (y) = 0.49129 0.04082
# Poissons Ratio (z) = 0.54927 0.03131
#
# Static dielectric constant tensor:
#      x y z
#    x 3.773090 0.000000 0.000000 
#    y 0.000000 3.454780 0.000000 
#    z 0.000000 0.000000 3.891840 
# 
# 
# High freq. dielectric constant tensor:
#      x y z
#    x 1.808910 0.000000 0.000000 
#    y 0.000000 1.785400 0.000000 
#    z 0.000000 0.000000 1.811630 
# 
# From -- ./inp_files/42947.got.cif
#   From: 2010.03.12/outbox.cif.g09.slc.cpg/sg64_22_cif.got.tgz:42947.got - 2010.04.10 20:19:32.
