data_PCOD8262862
_publ_section_title
;
Structure prediction by ZEFSAII (Michael W. Deem and Ramdas Pophale) SiO2 
 PCOD8262862
Probable space group: C M C A
;
_chemical_formula_sum "Si O2"
_cell_formula_units_Z 112
_cell_length_a 13.984375
_cell_length_b 27.998174
_cell_length_c 14.357772
_cell_angle_alpha 90.000000
_cell_angle_beta 90.000000
_cell_angle_gamma 90.000000
_cell_volume 5621.598466
_symmetry_space_group_name_H-M "C M C A"
_symmetry_group_IT_number 64
_symmetry_cell_setting 'orthorhombic'
loop_
_space_group_symop_operation_xyz
x,y,z
-x,1/2-y,1/2+z
x,-y,-z
-x,1/2+y,1/2-z
-x,-y,-z
x,1/2+y,1/2-z
-x,y,z
x,1/2-y,1/2+z
1/2+x,1/2+y,z
1/2-x,-y,1/2+z
1/2+x,1/2-y,-z
1/2-x,y,1/2-z
1/2-x,1/2-y,-z
1/2+x,y,1/2-z
1/2-x,1/2+y,z
1/2+x,-y,1/2+z
loop_
_atom_site_type_symbol
_atom_site_label
_atom_site_fract_x
_atom_site_fract_y
_atom_site_fract_z
Si Si1 0.609842 0.345231 0.700906
Si Si2 0.388429 0.550647 0.248667
Si Si3 0.747984 0.535523 0.087370
Si Si4 0.612284 0.259150 0.218629
Si Si5 0.110769 0.310519 0.103194
Si Si6 0.739694 0.359987 0.527224
Si Si7 0.389554 0.283637 0.016979
O O1 0.500000 0.346232 0.668154
O O2 0.631373 0.392050 0.763826
O O3 0.635002 0.295448 0.752913
O O4 0.671677 0.344227 0.609500
O O5 0.500000 0.537668 0.250216
O O6 0.339696 0.525098 0.159435
O O7 0.343795 0.534256 0.348260
O O8 0.729870 0.585509 0.036758
O O9 0.753892 0.500000 0.000000
O O10 0.500000 0.264116 0.209928
O O11 0.650418 0.296044 0.295077
O O12 0.655729 0.273071 0.118829
O O13 0.000000 0.326701 0.105810
O O14 0.177070 0.353534 0.067059
O O15 0.125413 0.264678 0.038734
O O16 0.834421 0.327893 0.528213
O O17 0.500000 0.298883 0.019208
#
# Coordination Sequence:
#
# PCOD8262862 Si02
#       7
#    16  16  16  16  16  16  16
#     4   9  17  33  57  84 114 144 186 246 292 334
#     4   9  20  40  66  93 118 151 196 248 312 370
#     4  10  23  42  62  91 126 151 196 261 310 355
#     4   9  18  32  50  75 115 155 185 233 284 324
#     4  10  20  34  53  79 113 152 190 233 286 344
#     4  11  21  35  55  82 108 155 197 232 292 350
#     4  10  21  36  49  76 119 153 193 238 278 342
#
# _framework density 19.923159999999999
#
# number of rings (size 3 to 8) (size 9 to 14) (size 15 to 20)
#    0.000    2.286    1.429    0.857    2.000    2.286 
#    0.000    2.857    0.000    1.714    0.000    0.000 
#    0.000    0.000    0.000    0.000    0.000    0.000 
#
# Total GULP energy -694057.244929 kJ/mol
# GULP energy per Si atom -12393.879374 kJ/mol
# Density = 1.987781 g / cm^3
# Si number density = 19.923160 Si / 1000 Ang^3
#
#
#
# Elastic Constant Matrix: (Units=GPa)
#
#
# Indices 1 2 3 4 5 6 
#
# 1 91.2741 29.2431 33.3183 0.0000 0.0000 0.0000
# 2 29.2431 66.0976 35.0294 0.0000 0.0000 0.0000
# 3 33.3183 35.0294 99.6662 0.0000 0.0000 0.0000
# 4 0.0000 0.0000 0.0000 31.7173 0.0000 0.0000
# 5 0.0000 0.0000 0.0000 0.0000 22.7311 0.0000
# 6 0.0000 0.0000 0.0000 0.0000 0.0000 20.8011
#
#
#
# Elastic Compliance Matrix: (Units=1/GPa)
#
#
# Indices 1 2 3 4 5 6 
#
# 1 0.013437 -0.004380 -0.002953 0.000000 0.000000 0.000000
# 2 -0.004380 0.020020 -0.005572 0.000000 0.000000 0.000000
# 3 -0.002953 -0.005572 0.012979 0.000000 0.000000 0.000000
# 4 0.000000 0.000000 0.000000 0.031529 0.000000 0.000000
# 5 0.000000 0.000000 0.000000 0.000000 0.043993 0.000000
# 6 0.000000 0.000000 0.000000 0.000000 0.000000 0.048074
#
#
# Mechanical properties :
#
#
# Convention : Reuss Voigt Hill
#
# Bulk Modulus (GPa) = 48.48128 50.24659 49.36394
# Shear Modulus (GPa) = 24.66494 25.67970 25.17232
#
# Velocity S-wave (km/s) = 3.52234 3.59407 3.55839
# Velocity P-wave (km/s) = 6.39762 6.51905 6.45862
#
# Compressibility (1/GPa) = 0.02062652
#
# Stress axis : x y z
#
# Youngs Moduli (GPa) = 74.42064 49.94999 77.04795
#
# Poissons Ratio (x) = 0.21879 0.22749
# Poissons Ratio (y) = 0.32597 0.42932
# Poissons Ratio (z) = 0.21973 0.27833
#
# Static dielectric constant tensor:
#      x y z
#    x 3.740530 0.000000 0.000000 
#    y 0.000000 3.451940 0.000000 
#    z 0.000000 0.000000 4.100980 
# 
# 
# High freq. dielectric constant tensor:
#      x y z
#    x 1.790590 0.000000 0.000000 
#    y 0.000000 1.733440 0.000000 
#    z 0.000000 0.000000 1.780450 
# 
# From -- ./inp_files/24421.got.cif
#   From: 2010.03.12/outbox.cif.g09.slc.cpg/sg64_13_cif.got.tgz:24421.got - 2010.04.10 20:19:32.
