data_PCOD8262698
_publ_section_title
;
Structure prediction by ZEFSAII (Michael W. Deem and Ramdas Pophale) SiO2 
 PCOD8262698
Probable space group: C M C A
;
_chemical_formula_sum "Si O2"
_cell_formula_units_Z 104
_cell_length_a 26.263017
_cell_length_b 8.819003
_cell_length_c 23.859306
_cell_angle_alpha 90.000000
_cell_angle_beta 90.000000
_cell_angle_gamma 90.000000
_cell_volume 5526.140370
_symmetry_space_group_name_H-M "C M C A"
_symmetry_group_IT_number 64
_symmetry_cell_setting 'orthorhombic'
loop_
_space_group_symop_operation_xyz
x,y,z
-x,1/2-y,1/2+z
x,-y,-z
-x,1/2+y,1/2-z
-x,-y,-z
x,1/2+y,1/2-z
-x,y,z
x,1/2-y,1/2+z
1/2+x,1/2+y,z
1/2-x,-y,1/2+z
1/2+x,1/2-y,-z
1/2-x,y,1/2-z
1/2-x,1/2-y,-z
1/2+x,y,1/2-z
1/2-x,1/2+y,z
1/2+x,-y,1/2+z
loop_
_atom_site_type_symbol
_atom_site_label
_atom_site_fract_x
_atom_site_fract_y
_atom_site_fract_z
Si Si1 0.577834 0.332172 0.150103
Si Si2 0.683130 0.277275 0.105902
Si Si3 0.265467 0.504385 0.574757
Si Si4 0.184522 0.711220 0.476058
Si Si5 0.000000 0.014087 0.212772
Si Si6 0.500000 0.748749 0.613564
Si Si7 0.500000 0.915940 0.841762
Si Si8 0.417795 0.075159 0.442451
O O1 0.638884 0.306095 0.151703
O O2 0.551296 0.411146 0.204172
O O3 0.550660 0.172266 0.138581
O O4 0.567331 0.444643 0.099978
O O5 0.727290 0.402056 0.114658
O O6 0.703376 0.106660 0.116015
O O7 0.665208 0.291650 0.040506
O O8 0.236398 0.389179 0.530405
O O9 0.305104 0.616980 0.543799
O O10 0.141054 0.628834 0.439574
O O11 0.000000 0.157913 0.171544
O O12 0.000000 0.073421 0.275051
O O13 0.500000 0.573810 0.627549
O O14 0.451039 0.779711 0.574590
O O15 0.434328 0.000000 0.500000
#
# Coordination Sequence:
#
# PCOD8262698 Si02
#       8
#    16  16  16  16   8   8   8  16
#     4  10  21  36  62  85 111 141 187 229 295 344
#     4  11  18  32  49  82 116 154 197 226 258 317
#     4  10  20  29  50  78 120 170 203 222 253 299
#     4  11  18  31  50  74 118 168 196 224 253 306
#     4   9  21  44  66  81 103 133 172 247 315 357
#     4  10  23  35  58  81 104 139 190 222 294 360
#     4  11  23  43  61  86 103 124 189 267 296 341
#     4  11  20  37  51  76 120 165 182 217 272 346
#
# _framework density 18.819645000000001
#
# number of rings (size 3 to 8) (size 9 to 14) (size 15 to 20)
#    0.000    1.538    3.077    5.308    2.154    0.000 
#    0.000    1.538    0.000    0.000    0.000    3.231 
#    0.000    0.000    0.000    0.000    0.000    0.000 
#
# Total GULP energy -644448.670264 kJ/mol
# GULP energy per Si atom -12393.243659 kJ/mol
# Density = 1.877681 g / cm^3
# Si number density = 18.819645 Si / 1000 Ang^3
#
#
#
# Elastic Constant Matrix: (Units=GPa)
#
#
# Indices 1 2 3 4 5 6 
#
# 1 102.5999 44.4750 39.1843 0.0000 0.0000 0.0000
# 2 44.4750 143.9027 28.4042 0.0000 0.0000 0.0000
# 3 39.1843 28.4042 45.8818 0.0000 0.0000 0.0000
# 4 0.0000 0.0000 0.0000 18.4254 0.0000 0.0000
# 5 0.0000 0.0000 0.0000 0.0000 9.3009 0.0000
# 6 0.0000 0.0000 0.0000 0.0000 0.0000 35.1604
#
#
#
# Elastic Compliance Matrix: (Units=1/GPa)
#
#
# Indices 1 2 3 4 5 6 
#
# 1 0.015175 -0.002429 -0.011456 0.000000 0.000000 0.000000
# 2 -0.002429 0.008305 -0.003067 0.000000 0.000000 0.000000
# 3 -0.011456 -0.003067 0.033478 0.000000 0.000000 0.000000
# 4 0.000000 0.000000 0.000000 0.054273 0.000000 0.000000
# 5 0.000000 0.000000 0.000000 0.000000 0.107517 0.000000
# 6 0.000000 0.000000 0.000000 0.000000 0.000000 0.028441
#
#
# Mechanical properties :
#
#
# Convention : Reuss Voigt Hill
#
# Bulk Modulus (GPa) = 43.37731 57.39014 50.38373
# Shear Modulus (GPa) = 17.31440 24.59873 20.95656
#
# Velocity S-wave (km/s) = 3.03647 3.61927 3.34061
# Velocity P-wave (km/s) = 5.94916 6.93012 6.45829
#
# Compressibility (1/GPa) = 0.02305353
#
# Stress axis : x y z
#
# Youngs Moduli (GPa) = 65.89971 120.40637 29.87052
#
# Poissons Ratio (x) = 0.29243 0.34220
# Poissons Ratio (y) = 0.16005 0.09162
# Poissons Ratio (z) = 0.75495 0.36933
#
# Static dielectric constant tensor:
#      x y z
#    x 3.736790 0.000000 0.000000 
#    y 0.000000 3.830870 0.000000 
#    z 0.000000 0.000000 3.033170 
# 
# 
# High freq. dielectric constant tensor:
#      x y z
#    x 1.732960 0.000000 0.000000 
#    y 0.000000 1.758650 0.000000 
#    z 0.000000 0.000000 1.670400 
# 
# From -- ./inp_files/41892.got.cif
#   From: 2010.03.12/outbox.cif.g09.slc.cpg/sg64_21_cif.got.tgz:41892.got - 2010.04.10 20:19:32.
