data_PCOD8262666
_publ_section_title
;
Structure prediction by ZEFSAII (Michael W. Deem and Ramdas Pophale) SiO2 
 PCOD8262666
Probable space group: C M C A
;
_chemical_formula_sum "Si O2"
_cell_formula_units_Z 80
_cell_length_a 10.446514
_cell_length_b 24.929971
_cell_length_c 14.471405
_cell_angle_alpha 90.000000
_cell_angle_beta 90.000000
_cell_angle_gamma 90.000000
_cell_volume 3768.806688
_symmetry_space_group_name_H-M "C M C A"
_symmetry_group_IT_number 64
_symmetry_cell_setting 'orthorhombic'
loop_
_space_group_symop_operation_xyz
x,y,z
-x,1/2-y,1/2+z
x,-y,-z
-x,1/2+y,1/2-z
-x,-y,-z
x,1/2+y,1/2-z
-x,y,z
x,1/2-y,1/2+z
1/2+x,1/2+y,z
1/2-x,-y,1/2+z
1/2+x,1/2-y,-z
1/2-x,y,1/2-z
1/2-x,1/2-y,-z
1/2+x,y,1/2-z
1/2-x,1/2+y,z
1/2+x,-y,1/2+z
loop_
_atom_site_type_symbol
_atom_site_label
_atom_site_fract_x
_atom_site_fract_y
_atom_site_fract_z
Si Si1 0.500000 0.183011 0.059845
Si Si2 0.226992 0.054022 0.951883
Si Si3 0.750000 0.132417 0.250000
Si Si4 0.000000 0.416360 0.801660
Si Si5 0.000000 0.039187 0.636867
Si Si6 0.000000 0.409200 0.330486
Si Si7 0.500000 0.800272 0.433179
Si Si8 0.232484 0.162013 0.046953
O O1 0.500000 0.130125 0.122268
O O2 0.500000 0.241098 0.112838
O O3 0.368499 0.180013 0.000679
O O4 0.374325 0.052042 0.921746
O O5 0.130058 0.064183 0.867802
O O6 0.207901 0.099518 0.028594
O O7 0.182702 0.000000 0.000000
O O8 0.627914 0.092906 0.257332
O O9 0.755469 0.170151 0.158457
O O10 0.000000 0.476346 0.839949
O O11 0.000000 0.080073 0.722193
O O12 0.000000 0.345467 0.353595
O O13 0.378034 0.803331 0.500900
#
# Coordination Sequence:
#
# PCOD8262666 Si02
#       8
#     8  16   8   8   8   8   8  16
#     4  10  19  38  61  88 118 155 201 253 307 353
#     4  11  22  39  60  91 124 157 205 249 306 366
#     4  10  20  38  56  90 126 148 200 250 308 352
#     4  10  23  34  62  88 120 151 197 254 303 360
#     4  12  24  39  62  90 126 162 202 250 312 364
#     4  10  25  39  62  88 124 169 201 250 303 372
#     4  10  21  40  62  87 121 164 209 245 303 364
#     4  10  21  36  63  89 120 159 201 253 297 362
#
# _framework density 21.226879
#
# number of rings (size 3 to 8) (size 9 to 14) (size 15 to 20)
#    0.000    1.600    0.000    5.400    5.600    0.000 
#    0.000    0.000   52.800    0.000    0.000    0.000 
#    0.000    0.000    0.000    0.000    0.000    0.000 
#
# Total GULP energy -495733.877904 kJ/mol
# GULP energy per Si atom -12393.346948 kJ/mol
# Density = 2.117857 g / cm^3
# Si number density = 21.226879 Si / 1000 Ang^3
#
#
#
# Elastic Constant Matrix: (Units=GPa)
#
#
# Indices 1 2 3 4 5 6 
#
# 1 147.4928 -4.2594 -5.5339 0.0000 0.0000 0.0000
# 2 -4.2594 94.4815 7.6457 0.0000 0.0000 0.0000
# 3 -5.5339 7.6457 57.7945 0.0000 0.0000 0.0000
# 4 0.0000 0.0000 0.0000 17.0648 0.0000 0.0000
# 5 0.0000 0.0000 0.0000 0.0000 -37.5473 0.0000
# 6 0.0000 0.0000 0.0000 0.0000 0.0000 95.6887
#
#
#
# Elastic Compliance Matrix: (Units=1/GPa)
#
#
# Indices 1 2 3 4 5 6 
#
# 1 0.006811 0.000257 0.000618 0.000000 0.000000 0.000000
# 2 0.000257 0.010708 -0.001392 0.000000 0.000000 0.000000
# 3 0.000618 -0.001392 0.017546 0.000000 0.000000 0.000000
# 4 0.000000 0.000000 0.000000 0.058600 0.000000 0.000000
# 5 0.000000 0.000000 0.000000 0.000000 -0.026633 0.000000
# 6 0.000000 0.000000 0.000000 0.000000 0.000000 0.010451
#
#
# Mechanical properties :
#
#
# Convention : Reuss Voigt Hill
#
# Bulk Modulus (GPa) = 29.38481 32.83042 31.10761
# Shear Modulus (GPa) = 55.64203 35.16899 45.40551
#
# Velocity S-wave (km/s) = 5.12542 4.07481 4.63001
# Velocity P-wave (km/s) = 6.99284 6.13505 6.57794
#
# Compressibility (1/GPa) = 0.03403119
#
# Stress axis : x y z
#
# Youngs Moduli (GPa) = 146.82981 93.38536 56.99296
#
# Poissons Ratio (x) = -0.02400 -0.03523
# Poissons Ratio (y) = -0.03774 0.07933
# Poissons Ratio (z) = -0.09076 0.12999
#
# Static dielectric constant tensor:
#      x y z
#    x 5.078670 0.000000 0.000000 
#    y 0.000000 3.815960 0.000000 
#    z 0.000000 0.000000 3.514800 
# 
# 
# High freq. dielectric constant tensor:
#      x y z
#    x 1.868860 0.000000 0.000000 
#    y 0.000000 1.830440 0.000000 
#    z 0.000000 0.000000 1.796930 
# 
# From -- ./inp_files/22414.got.cif
#   From: 2010.03.12/outbox.cif.g09.slc.cpg/sg64_12_cif.got.tgz:22414.got - 2010.04.10 20:19:32.
