data_PCOD8262434
_publ_section_title
;
Structure prediction by ZEFSAII (Michael W. Deem and Ramdas Pophale) SiO2 
 PCOD8262434
Probable space group: C M C A
;
_chemical_formula_sum "Si O2"
_cell_formula_units_Z 96
_cell_length_a 8.819757
_cell_length_b 29.963820
_cell_length_c 20.339796
_cell_angle_alpha 90.000000
_cell_angle_beta 90.000000
_cell_angle_gamma 90.000000
_cell_volume 5375.271340
_symmetry_space_group_name_H-M "C M C A"
_symmetry_group_IT_number 64
_symmetry_cell_setting 'orthorhombic'
loop_
_space_group_symop_operation_xyz
x,y,z
-x,1/2-y,1/2+z
x,-y,-z
-x,1/2+y,1/2-z
-x,-y,-z
x,1/2+y,1/2-z
-x,y,z
x,1/2-y,1/2+z
1/2+x,1/2+y,z
1/2-x,-y,1/2+z
1/2+x,1/2-y,-z
1/2-x,y,1/2-z
1/2-x,1/2-y,-z
1/2+x,y,1/2-z
1/2-x,1/2+y,z
1/2+x,-y,1/2+z
loop_
_atom_site_type_symbol
_atom_site_label
_atom_site_fract_x
_atom_site_fract_y
_atom_site_fract_z
Si Si1 0.323966 0.189712 0.684869
Si Si2 0.180056 0.790738 0.039168
Si Si3 0.669798 0.101610 0.843777
Si Si4 0.174182 0.881856 0.492619
Si Si5 0.820784 0.964475 0.945914
Si Si6 0.176532 0.499079 0.184134
O O1 0.500000 0.197775 0.690748
O O2 0.250000 0.212310 0.750000
O O3 0.263732 0.210448 0.615761
O O4 0.288736 0.136807 0.685575
O O5 0.236048 0.835461 0.003664
O O6 0.000000 0.788789 0.035926
O O7 0.250000 0.750000 0.000000
O O8 0.500000 0.119273 0.828485
O O9 0.692326 0.095995 0.921466
O O10 0.699762 0.053981 0.812002
O O11 0.245408 0.916315 0.543873
O O12 0.000000 0.872724 0.511145
O O13 0.000000 0.959031 0.949345
O O14 0.770869 0.980971 0.875166
O O15 0.762971 0.000000 0.000000
O O16 0.250000 0.519561 0.250000
O O17 0.000000 0.511956 0.177814
#
# Coordination Sequence:
#
# PCOD8262434 Si02
#       6
#    16  16  16  16  16  16
#     4  10  20  32  50  76 108 141 175 214 263 322
#     4  10  21  37  57  83 111 142 180 224 273 328
#     4   9  18  31  49  74 105 141 177 214 263 320
#     4  10  19  34  56  81 108 141 180 224 272 323
#     4  11  22  35  54  79 108 144 186 228 269 320
#     4  11  22  35  50  73 106 145 187 230 275 324
#
# _framework density 17.859563000000001
#
# number of rings (size 3 to 8) (size 9 to 14) (size 15 to 20)
#    0.000    1.833    1.667    3.000    0.000    6.000 
#    0.000    0.000    0.000    1.000    0.000    4.667 
#    0.000    0.000    0.000    0.000    0.000    0.000 
#
# Total GULP energy -595237.634401 kJ/mol
# GULP energy per Si atom -12400.784050 kJ/mol
# Density = 1.781891 g / cm^3
# Si number density = 17.859563 Si / 1000 Ang^3
#
#
#
# Elastic Constant Matrix: (Units=GPa)
#
#
# Indices 1 2 3 4 5 6 
#
# 1 69.6811 32.4244 33.0258 0.0000 0.0000 0.0000
# 2 32.4244 73.3536 42.3011 0.0000 0.0000 0.0000
# 3 33.0258 42.3011 110.4628 0.0000 0.0000 0.0000
# 4 0.0000 0.0000 0.0000 18.8970 0.0000 0.0000
# 5 0.0000 0.0000 0.0000 0.0000 31.8277 0.0000
# 6 0.0000 0.0000 0.0000 0.0000 0.0000 29.9162
#
#
#
# Elastic Compliance Matrix: (Units=1/GPa)
#
#
# Indices 1 2 3 4 5 6 
#
# 1 0.018881 -0.006533 -0.003143 0.000000 0.000000 0.000000
# 2 -0.006533 0.019757 -0.005613 0.000000 0.000000 0.000000
# 3 -0.003143 -0.005613 0.012142 0.000000 0.000000 0.000000
# 4 0.000000 0.000000 0.000000 0.052919 0.000000 0.000000
# 5 0.000000 0.000000 0.000000 0.000000 0.031419 0.000000
# 6 0.000000 0.000000 0.000000 0.000000 0.000000 0.033427
#
#
# Mechanical properties :
#
#
# Convention : Reuss Voigt Hill
#
# Bulk Modulus (GPa) = 49.50028 52.11114 50.80571
# Shear Modulus (GPa) = 24.28879 25.84459 25.06669
#
# Velocity S-wave (km/s) = 3.69180 3.80820 3.75046
# Velocity P-wave (km/s) = 6.77858 6.96981 6.87486
#
# Compressibility (1/GPa) = 0.02020191
#
# Stress axis : x y z
#
# Youngs Moduli (GPa) = 52.96349 50.61453 82.36003
#
# Poissons Ratio (x) = 0.33069 0.25886
# Poissons Ratio (y) = 0.34603 0.46225
# Poissons Ratio (z) = 0.16647 0.28408
#
# Static dielectric constant tensor:
#      x y z
#    x 3.380650 0.000000 0.000000 
#    y 0.000000 3.036090 0.000000 
#    z 0.000000 0.000000 3.384680 
# 
# 
# High freq. dielectric constant tensor:
#      x y z
#    x 1.704160 0.000000 0.000000 
#    y 0.000000 1.657200 0.000000 
#    z 0.000000 0.000000 1.694660 
# 
# From -- ./inp_files/37028.got.cif
#   From: 2010.03.12/outbox.cif.g09.slc.cpg/sg64_19_cif.got.tgz:37028.got - 2010.04.10 20:19:32.
