data_PCOD8262564
_publ_section_title
;
Structure prediction by ZEFSAII (Michael W. Deem and Ramdas Pophale) SiO2 
 PCOD8262564
Probable space group: C M C A
;
_chemical_formula_sum "Si O2"
_cell_formula_units_Z 56
_cell_length_a 15.701718
_cell_length_b 17.689736
_cell_length_c 9.579269
_cell_angle_alpha 90.000000
_cell_angle_beta 90.000000
_cell_angle_gamma 90.000000
_cell_volume 2660.730536
_symmetry_space_group_name_H-M "C M C A"
_symmetry_group_IT_number 64
_symmetry_cell_setting 'orthorhombic'
loop_
_space_group_symop_operation_xyz
x,y,z
-x,1/2-y,1/2+z
x,-y,-z
-x,1/2+y,1/2-z
-x,-y,-z
x,1/2+y,1/2-z
-x,y,z
x,1/2-y,1/2+z
1/2+x,1/2+y,z
1/2-x,-y,1/2+z
1/2+x,1/2-y,-z
1/2-x,y,1/2-z
1/2-x,1/2-y,-z
1/2+x,y,1/2-z
1/2-x,1/2+y,z
1/2+x,-y,1/2+z
loop_
_atom_site_type_symbol
_atom_site_label
_atom_site_fract_x
_atom_site_fract_y
_atom_site_fract_z
Si Si1 0.094322 0.979082 0.658545
Si Si2 0.821934 0.696781 0.557373
Si Si3 0.250000 0.573964 0.750000
Si Si4 0.149789 0.322801 0.742526
O O1 0.166493 0.022469 0.742792
O O2 0.000000 0.005471 0.707914
O O3 0.108712 0.000000 0.500000
O O4 0.100162 0.889051 0.678823
O O5 0.750000 0.750000 0.500000
O O6 0.771314 0.624345 0.615253
O O7 0.872112 0.742423 0.680368
O O8 0.880165 0.677768 0.421372
O O9 0.250000 0.339888 0.750000
#
# Coordination Sequence:
#
# PCOD8262564 Si02
#       4
#    16  16   8  16
#     4  11  25  42  64  97 134 173 215 262 327 394
#     4  10  19  35  65  96 120 167 221 259 321 382
#     4  12  22  38  70  92 132 172 212 272 324 384
#     4  10  19  38  62  93 125 164 216 266 316 385
#
# _framework density 21.046852000000001
#
# number of rings (size 3 to 8) (size 9 to 14) (size 15 to 20)
#    0.000    1.429    5.714    3.429    0.000    0.000 
#    0.000    5.714    0.000    1.714    0.000    0.000 
#    0.000    0.000    0.000    0.000    0.000    0.000 
#
# Total GULP energy -346965.556454 kJ/mol
# GULP energy per Si atom -12391.627016 kJ/mol
# Density = 2.099895 g / cm^3
# Si number density = 21.046852 Si / 1000 Ang^3
#
#
#
# Elastic Constant Matrix: (Units=GPa)
#
#
# Indices 1 2 3 4 5 6 
#
# 1 93.0651 34.5706 25.6722 0.0000 0.0000 0.0000
# 2 34.5706 100.7702 36.5629 0.0000 0.0000 0.0000
# 3 25.6722 36.5629 132.5879 0.0000 0.0000 0.0000
# 4 0.0000 0.0000 0.0000 40.5139 0.0000 0.0000
# 5 0.0000 0.0000 0.0000 0.0000 7.3934 0.0000
# 6 0.0000 0.0000 0.0000 0.0000 0.0000 6.4349
#
#
#
# Elastic Compliance Matrix: (Units=1/GPa)
#
#
# Indices 1 2 3 4 5 6 
#
# 1 0.012538 -0.003801 -0.001379 0.000000 0.000000 0.000000
# 2 -0.003801 0.012179 -0.002623 0.000000 0.000000 0.000000
# 3 -0.001379 -0.002623 0.008532 0.000000 0.000000 0.000000
# 4 0.000000 0.000000 0.000000 0.024683 0.000000 0.000000
# 5 0.000000 0.000000 0.000000 0.000000 0.135255 0.000000
# 6 0.000000 0.000000 0.000000 0.000000 0.000000 0.155404
#
#
# Mechanical properties :
#
#
# Convention : Reuss Voigt Hill
#
# Bulk Modulus (GPa) = 56.67807 57.78161 57.22984
# Shear Modulus (GPa) = 13.51068 26.17625 19.84347
#
# Velocity S-wave (km/s) = 2.53639 3.53046 3.07387
# Velocity P-wave (km/s) = 5.96369 6.64321 6.31260
#
# Compressibility (1/GPa) = 0.01764351
#
# Stress axis : x y z
#
# Youngs Moduli (GPa) = 79.76060 82.10845 117.19899
#
# Poissons Ratio (x) = 0.31206 0.16168
# Poissons Ratio (y) = 0.30314 0.30737
# Poissons Ratio (z) = 0.11003 0.21534
#
# Static dielectric constant tensor:
#      x y z
#    x 3.453660 0.000000 0.000000 
#    y 0.000000 3.804450 0.000000 
#    z 0.000000 0.000000 5.280780 
# 
# 
# High freq. dielectric constant tensor:
#      x y z
#    x 1.781480 0.000000 0.000000 
#    y 0.000000 1.831440 0.000000 
#    z 0.000000 0.000000 1.837360 
# 
# From -- ./inp_files/6435.got.cif
#   From: 2010.03.12/outbox.cif.g09.slc.cpg/sg64_4_cif.got.tgz:6435.got - 2010.04.10 20:19:32.
