data_PCOD8262825
_publ_section_title
;
Structure prediction by ZEFSAII (Michael W. Deem and Ramdas Pophale) SiO2 
 PCOD8262825
Probable space group: C M C A
;
_chemical_formula_sum "Si O2"
_cell_formula_units_Z 80
_cell_length_a 8.737390
_cell_length_b 20.555552
_cell_length_c 27.648909
_cell_angle_alpha 90.000000
_cell_angle_beta 90.000000
_cell_angle_gamma 90.000000
_cell_volume 4965.795884
_symmetry_space_group_name_H-M "C M C A"
_symmetry_group_IT_number 64
_symmetry_cell_setting 'orthorhombic'
loop_
_space_group_symop_operation_xyz
x,y,z
-x,1/2-y,1/2+z
x,-y,-z
-x,1/2+y,1/2-z
-x,-y,-z
x,1/2+y,1/2-z
-x,y,z
x,1/2-y,1/2+z
1/2+x,1/2+y,z
1/2-x,-y,1/2+z
1/2+x,1/2-y,-z
1/2-x,y,1/2-z
1/2-x,1/2-y,-z
1/2+x,y,1/2-z
1/2-x,1/2+y,z
1/2+x,-y,1/2+z
loop_
_atom_site_type_symbol
_atom_site_label
_atom_site_fract_x
_atom_site_fract_y
_atom_site_fract_z
Si Si1 0.319553 0.436700 0.945049
Si Si2 0.818838 0.572918 0.952342
Si Si3 0.327359 0.746578 0.800800
Si Si4 0.319940 0.806152 0.112106
Si Si5 0.172852 0.322967 0.891080
O O1 0.500000 0.446963 0.946912
O O2 0.240015 0.504658 0.931211
O O3 0.276117 0.384482 0.904362
O O4 0.260191 0.411362 0.996669
O O5 0.769165 0.628507 0.914879
O O6 0.000000 0.569983 0.959916
O O7 0.500000 0.722555 0.792242
O O8 0.250000 0.760603 0.750000
O O9 0.238391 0.690890 0.831912
O O10 0.324121 0.813440 0.832566
O O11 0.500000 0.796473 0.110943
O O12 0.242091 0.743616 0.085564
O O13 0.000000 0.333150 0.910217
#
# Coordination Sequence:
#
# PCOD8262825 Si02
#       5
#    16  16  16  16  16
#     4  11  21  32  50  72  99 134 169 205 240 290
#     4  10  20  34  51  70 100 136 166 201 243 293
#     4   9  18  31  52  75  99 128 158 201 248 294
#     4   9  18  32  51  75  98 127 165 204 244 287
#     4   9  19  33  50  73  99 130 163 203 246 289
#
# _framework density 16.110208
#
# number of rings (size 3 to 8) (size 9 to 14) (size 15 to 20)
#    1.200    1.200    0.000    4.800    0.000    4.000 
#    0.000    0.000    0.000    1.200    0.000    5.600 
#    0.000    0.000    0.000    0.000    0.000    0.000 
#
# Total GULP energy -495687.386455 kJ/mol
# GULP energy per Si atom -12392.184661 kJ/mol
# Density = 1.607354 g / cm^3
# Si number density = 16.110208 Si / 1000 Ang^3
#
#
#
# Elastic Constant Matrix: (Units=GPa)
#
#
# Indices 1 2 3 4 5 6 
#
# 1 77.6271 21.2901 22.0995 0.0000 0.0000 0.0000
# 2 21.2901 81.9929 41.7782 0.0000 0.0000 0.0000
# 3 22.0995 41.7782 68.9800 0.0000 0.0000 0.0000
# 4 0.0000 0.0000 0.0000 9.6585 0.0000 0.0000
# 5 0.0000 0.0000 0.0000 0.0000 28.4434 0.0000
# 6 0.0000 0.0000 0.0000 0.0000 0.0000 27.6087
#
#
#
# Elastic Compliance Matrix: (Units=1/GPa)
#
#
# Indices 1 2 3 4 5 6 
#
# 1 0.014400 -0.002008 -0.003397 0.000000 0.000000 0.000000
# 2 -0.002008 0.017920 -0.010210 0.000000 0.000000 0.000000
# 3 -0.003397 -0.010210 0.021769 0.000000 0.000000 0.000000
# 4 0.000000 0.000000 0.000000 0.103536 0.000000 0.000000
# 5 0.000000 0.000000 0.000000 0.000000 0.035158 0.000000
# 6 0.000000 0.000000 0.000000 0.000000 0.000000 0.036220
#
#
# Mechanical properties :
#
#
# Convention : Reuss Voigt Hill
#
# Bulk Modulus (GPa) = 43.74747 44.32619 44.03683
# Shear Modulus (GPa) = 18.66697 22.70427 20.68562
#
# Velocity S-wave (km/s) = 3.40767 3.75815 3.58719
# Velocity P-wave (km/s) = 6.53429 6.81217 6.67468
#
# Compressibility (1/GPa) = 0.02285846
#
# Stress axis : x y z
#
# Youngs Moduli (GPa) = 69.44457 55.80385 45.93673
#
# Poissons Ratio (x) = 0.11206 0.15606
# Poissons Ratio (y) = 0.13945 0.46901
# Poissons Ratio (z) = 0.23592 0.56976
#
# Static dielectric constant tensor:
#      x y z
#    x 3.185020 0.000000 0.000000 
#    y 0.000000 2.941600 0.000000 
#    z 0.000000 0.000000 2.853820 
# 
# 
# High freq. dielectric constant tensor:
#      x y z
#    x 1.642510 0.000000 0.000000 
#    y 0.000000 1.603590 0.000000 
#    z 0.000000 0.000000 1.595900 
# 
# From -- ./inp_files/51939.got.cif
#   From: 2010.03.12/outbox.cif.g09.slc.cpg/sg64_26_cif.got.tgz:51939.got - 2010.04.10 20:19:32.
