data_PCOD8262478
_publ_section_title
;
Structure prediction by ZEFSAII (Michael W. Deem and Ramdas Pophale) SiO2 
 PCOD8262478
Probable space group: C M C A
;
_chemical_formula_sum "Si O2"
_cell_formula_units_Z 128
_cell_length_a 22.077725
_cell_length_b 26.565489
_cell_length_c 11.033539
_cell_angle_alpha 90.000000
_cell_angle_beta 90.000000
_cell_angle_gamma 90.000000
_cell_volume 6471.231977
_symmetry_space_group_name_H-M "C M C A"
_symmetry_group_IT_number 64
_symmetry_cell_setting 'orthorhombic'
loop_
_space_group_symop_operation_xyz
x,y,z
-x,1/2-y,1/2+z
x,-y,-z
-x,1/2+y,1/2-z
-x,-y,-z
x,1/2+y,1/2-z
-x,y,z
x,1/2-y,1/2+z
1/2+x,1/2+y,z
1/2-x,-y,1/2+z
1/2+x,1/2-y,-z
1/2-x,y,1/2-z
1/2-x,1/2-y,-z
1/2+x,y,1/2-z
1/2-x,1/2+y,z
1/2+x,-y,1/2+z
loop_
_atom_site_type_symbol
_atom_site_label
_atom_site_fract_x
_atom_site_fract_y
_atom_site_fract_z
Si Si1 0.069277 0.781570 0.764290
Si Si2 0.313933 0.969557 0.204639
Si Si3 0.854321 0.108968 0.888020
Si Si4 0.355399 0.576925 0.336535
Si Si5 0.869852 0.817811 0.329948
Si Si6 0.933110 0.349016 0.952568
Si Si7 0.278604 0.881616 0.026129
Si Si8 0.930833 0.616038 0.384537
O O1 0.120409 0.740820 0.800311
O O2 0.093039 0.806087 0.637988
O O3 0.069814 0.823875 0.868600
O O4 0.000000 0.759881 0.751618
O O5 0.250000 0.991525 0.250000
O O6 0.348149 0.943720 0.317585
O O7 0.303755 0.929328 0.100039
O O8 0.351271 0.016855 0.155316
O O9 0.868501 0.153720 0.796259
O O10 0.792989 0.124043 0.959062
O O11 0.909846 0.103021 0.979890
O O12 0.402147 0.596603 0.438038
O O13 0.293831 0.606375 0.383672
O O14 0.380992 0.591560 0.204952
O O15 0.929031 0.833029 0.407880
O O16 0.811728 0.831641 0.416632
O O17 0.000000 0.357641 0.907018
O O18 0.000000 0.595683 0.365121
#
# Coordination Sequence:
#
# PCOD8262478 Si02
#       8
#    16  16  16  16  16  16  16  16
#     4   9  19  35  57  82 109 151 204 247 284 344
#     4   9  19  35  59  89 113 148 195 239 287 346
#     4  10  22  39  58  83 123 153 187 241 301 352
#     4  10  19  35  61  83 116 148 195 240 286 337
#     4  10  19  34  60  82 114 152 194 245 297 337
#     4   9  19  35  55  82 112 151 199 244 290 340
#     4   9  20  38  60  85 116 150 192 245 292 343
#     4  10  23  40  57  84 122 156 192 240 293 352
#
# _framework density 19.779848999999999
#
# number of rings (size 3 to 8) (size 9 to 14) (size 15 to 20)
#    0.000    2.500    0.000    3.000    3.500    1.500 
#    0.000    2.500    8.250   21.000    0.000    0.000 
#    0.000    0.000    0.000    0.000    0.000    0.000 
#
# Total GULP energy -792850.466519 kJ/mol
# GULP energy per Si atom -12388.288539 kJ/mol
# Density = 1.973483 g / cm^3
# Si number density = 19.779849 Si / 1000 Ang^3
#
#
#
# Elastic Constant Matrix: (Units=GPa)
#
#
# Indices 1 2 3 4 5 6 
#
# 1 74.5118 53.9305 45.9445 0.0000 0.0000 0.0000
# 2 53.9305 103.5513 22.8746 0.0000 0.0000 0.0000
# 3 45.9445 22.8746 98.8744 0.0000 0.0000 0.0000
# 4 0.0000 0.0000 0.0000 11.0360 0.0000 0.0000
# 5 0.0000 0.0000 0.0000 0.0000 29.7070 0.0000
# 6 0.0000 0.0000 0.0000 0.0000 0.0000 15.1606
#
#
#
# Elastic Compliance Matrix: (Units=1/GPa)
#
#
# Indices 1 2 3 4 5 6 
#
# 1 0.029342 -0.012931 -0.010643 0.000000 0.000000 0.000000
# 2 -0.012931 0.015876 0.002336 0.000000 0.000000 0.000000
# 3 -0.010643 0.002336 0.014519 0.000000 0.000000 0.000000
# 4 0.000000 0.000000 0.000000 0.090612 0.000000 0.000000
# 5 0.000000 0.000000 0.000000 0.000000 0.033662 0.000000
# 6 0.000000 0.000000 0.000000 0.000000 0.000000 0.065960
#
#
# Mechanical properties :
#
#
# Convention : Reuss Voigt Hill
#
# Bulk Modulus (GPa) = 57.93478 58.04853 57.99165
# Shear Modulus (GPa) = 16.76718 21.45992 19.11355
#
# Velocity S-wave (km/s) = 2.91467 3.29741 3.11193
# Velocity P-wave (km/s) = 6.37812 6.62633 6.50341
#
# Compressibility (1/GPa) = 0.01726079
#
# Stress axis : x y z
#
# Youngs Moduli (GPa) = 34.08034 62.99004 68.87483
#
# Poissons Ratio (x) = 0.81451 0.73305
# Poissons Ratio (y) = 0.44068 -0.16088
# Poissons Ratio (z) = 0.36272 -0.14713
#
# Static dielectric constant tensor:
#      x y z
#    x 3.643700 0.000000 0.000000 
#    y 0.000000 3.390420 0.000000 
#    z 0.000000 0.000000 3.782620 
# 
# 
# High freq. dielectric constant tensor:
#      x y z
#    x 1.760190 0.000000 0.000000 
#    y 0.000000 1.752850 0.000000 
#    z 0.000000 0.000000 1.778650 
# 
# From -- ./inp_files/18744.got.cif
#   From: 2010.03.12/outbox.cif.g09.slc.cpg/sg64_10_cif.got.tgz:18744.got - 2010.04.10 20:19:32.
