data_PCOD8262662
_publ_section_title
;
Structure prediction by ZEFSAII (Michael W. Deem and Ramdas Pophale) SiO2 
 PCOD8262662
Probable space group: C M C A
;
_chemical_formula_sum "Si O2"
_cell_formula_units_Z 88
_cell_length_a 10.523130
_cell_length_b 13.880898
_cell_length_c 28.517916
_cell_angle_alpha 90.000000
_cell_angle_beta 90.000000
_cell_angle_gamma 90.000000
_cell_volume 4165.626083
_symmetry_space_group_name_H-M "C M C A"
_symmetry_group_IT_number 64
_symmetry_cell_setting 'orthorhombic'
loop_
_space_group_symop_operation_xyz
x,y,z
-x,1/2-y,1/2+z
x,-y,-z
-x,1/2+y,1/2-z
-x,-y,-z
x,1/2+y,1/2-z
-x,y,z
x,1/2-y,1/2+z
1/2+x,1/2+y,z
1/2-x,-y,1/2+z
1/2+x,1/2-y,-z
1/2-x,y,1/2-z
1/2-x,1/2-y,-z
1/2+x,y,1/2-z
1/2-x,1/2+y,z
1/2+x,-y,1/2+z
loop_
_atom_site_type_symbol
_atom_site_label
_atom_site_fract_x
_atom_site_fract_y
_atom_site_fract_z
Si Si1 0.236089 0.174675 0.568050
Si Si2 0.000000 0.483560 0.335934
Si Si3 0.361200 0.141157 0.473385
Si Si4 0.717083 0.296720 0.651497
Si Si5 0.000000 0.782863 0.212867
Si Si6 0.251915 0.516881 0.105845
Si Si7 0.000000 0.804110 0.813236
O O1 0.328887 0.133458 0.528045
O O2 0.136971 0.246826 0.543542
O O3 0.319348 0.232445 0.606517
O O4 0.172025 0.079814 0.592738
O O5 0.119541 0.478819 0.370330
O O6 0.000000 0.396039 0.298741
O O7 0.000000 0.580708 0.304014
O O8 0.500000 0.098404 0.465937
O O9 0.268847 0.077490 0.441855
O O10 0.629686 0.265596 0.694467
O O11 0.684131 0.409741 0.642071
O O12 0.869710 0.280582 0.658586
O O13 0.000000 0.763283 0.267883
#
# Coordination Sequence:
#
# PCOD8262662 Si02
#       7
#    16   8  16  16   8  16   8
#     4  10  21  35  56  89 123 159 210 252 306 358
#     4  10  20  38  66  90 116 169 210 248 307 389
#     4  10  21  34  58  87 121 165 211 258 293 357
#     4  10  23  40  65  92 124 163 204 259 313 372
#     4  12  22  44  67  98 122 152 208 274 315 372
#     4  10  19  38  59  87 123 164 210 249 302 374
#     4  10  24  46  64  89 127 161 204 257 321 390
#
# _framework density 21.125274999999998
#
# number of rings (size 3 to 8) (size 9 to 14) (size 15 to 20)
#    0.000    1.818    2.727    1.091    6.364    0.727 
#    4.909    1.818    0.000    3.273    0.000    0.000 
#    0.000    0.000    0.000    0.000    0.000    0.000 
#
# Total GULP energy -545142.872534 kJ/mol
# GULP energy per Si atom -12389.610739 kJ/mol
# Density = 2.107719 g / cm^3
# Si number density = 21.125275 Si / 1000 Ang^3
#
#
#
# Elastic Constant Matrix: (Units=GPa)
#
#
# Indices 1 2 3 4 5 6 
#
# 1 51.4871 7.0658 -0.0065 0.0000 0.0000 0.0000
# 2 7.0658 144.1847 37.2874 0.0000 0.0000 0.0000
# 3 -0.0065 37.2874 90.2454 0.0000 0.0000 0.0000
# 4 0.0000 0.0000 0.0000 41.5389 0.0000 0.0000
# 5 0.0000 0.0000 0.0000 0.0000 16.4212 0.0000
# 6 0.0000 0.0000 0.0000 0.0000 0.0000 15.2441
#
#
#
# Elastic Compliance Matrix: (Units=1/GPa)
#
#
# Indices 1 2 3 4 5 6 
#
# 1 0.019570 -0.001074 0.000445 0.000000 0.000000 0.000000
# 2 -0.001074 0.007824 -0.003233 0.000000 0.000000 0.000000
# 3 0.000445 -0.003233 0.012417 0.000000 0.000000 0.000000
# 4 0.000000 0.000000 0.000000 0.024074 0.000000 0.000000
# 5 0.000000 0.000000 0.000000 0.000000 0.060897 0.000000
# 6 0.000000 0.000000 0.000000 0.000000 0.000000 0.065599
#
#
# Mechanical properties :
#
#
# Convention : Reuss Voigt Hill
#
# Bulk Modulus (GPa) = 31.16519 41.62340 36.39429
# Shear Modulus (GPa) = 23.94637 30.74554 27.34596
#
# Velocity S-wave (km/s) = 3.37046 3.81910 3.60177
# Velocity P-wave (km/s) = 5.47095 6.26045 5.87897
#
# Compressibility (1/GPa) = 0.03208708
#
# Stress axis : x y z
#
# Youngs Moduli (GPa) = 51.09916 127.80802 80.53688
#
# Poissons Ratio (x) = 0.13729 -0.03586
# Poissons Ratio (y) = 0.05489 0.26037
# Poissons Ratio (z) = -0.02275 0.41319
#
# Static dielectric constant tensor:
#      x y z
#    x 3.468540 0.000000 0.000000 
#    y 0.000000 4.186520 0.000000 
#    z 0.000000 0.000000 3.701750 
# 
# 
# High freq. dielectric constant tensor:
#      x y z
#    x 1.784660 0.000000 0.000000 
#    y 0.000000 1.850080 0.000000 
#    z 0.000000 0.000000 1.826080 
# 
# From -- ./inp_files/52768.got.cif
#   From: 2010.03.12/outbox.cif.g09.slc.cpg/sg64_27_cif.got.tgz:52768.got - 2010.04.10 20:19:32.
