data_PCOD8262132
_publ_section_title
;
Structure prediction by ZEFSAII (Michael W. Deem and Ramdas Pophale) SiO2 
 PCOD8262132
Probable space group: C M C A
;
_chemical_formula_sum "Si O2"
_cell_formula_units_Z 96
_cell_length_a 18.658919
_cell_length_b 19.023674
_cell_length_c 15.994774
_cell_angle_alpha 90.000000
_cell_angle_beta 90.000000
_cell_angle_gamma 90.000000
_cell_volume 5677.524049
_symmetry_space_group_name_H-M "C M C A"
_symmetry_group_IT_number 64
_symmetry_cell_setting 'orthorhombic'
loop_
_space_group_symop_operation_xyz
x,y,z
-x,1/2-y,1/2+z
x,-y,-z
-x,1/2+y,1/2-z
-x,-y,-z
x,1/2+y,1/2-z
-x,y,z
x,1/2-y,1/2+z
1/2+x,1/2+y,z
1/2-x,-y,1/2+z
1/2+x,1/2-y,-z
1/2-x,y,1/2-z
1/2-x,1/2-y,-z
1/2+x,y,1/2-z
1/2-x,1/2+y,z
1/2+x,-y,1/2+z
loop_
_atom_site_type_symbol
_atom_site_label
_atom_site_fract_x
_atom_site_fract_y
_atom_site_fract_z
Si Si1 0.782813 0.674551 0.024179
Si Si2 0.577502 0.211665 0.958670
Si Si3 0.148293 0.082735 0.005344
Si Si4 0.920327 0.183907 0.885777
Si Si5 0.677822 0.215141 0.204418
Si Si6 0.081704 0.661261 0.341983
O O1 0.854904 0.659499 0.969055
O O2 0.728416 0.612987 0.002821
O O3 0.800938 0.672213 0.121905
O O4 0.750000 0.750000 0.000000
O O5 0.500000 0.172164 0.954341
O O6 0.578785 0.261500 0.038831
O O7 0.587639 0.259732 0.877485
O O8 0.108605 0.104762 0.090582
O O9 0.106637 0.109895 0.922933
O O10 0.152044 0.000000 0.000000
O O11 0.867783 0.214183 0.814594
O O12 0.000000 0.174178 0.847854
O O13 0.750000 0.239992 0.250000
O O14 0.631333 0.160491 0.259829
O O15 0.000000 0.642726 0.317819
#
# Coordination Sequence:
#
# PCOD8262132 Si02
#       6
#    16  16  16  16  16  16
#     4  11  17  33  54  75 106 139 186 226 264 320
#     4   8  15  28  49  74 101 130 172 225 263 304
#     4  11  21  34  55  81 107 145 182 223 270 332
#     4   9  18  31  49  76 103 134 175 218 265 320
#     4  11  18  29  54  77 107 135 174 230 279 309
#     4  10  19  31  50  81 110 137 176 221 276 325
#
# _framework density 16.90878
#
# number of rings (size 3 to 8) (size 9 to 14) (size 15 to 20)
#    0.000    2.000    6.667    2.000    0.000    2.000 
#    0.000    0.000    3.667    0.500    0.000    0.000 
#    0.000    0.000    0.000    0.000    0.000    0.000 
#
# Total GULP energy -594978.847610 kJ/mol
# GULP energy per Si atom -12395.392659 kJ/mol
# Density = 1.687029 g / cm^3
# Si number density = 16.908780 Si / 1000 Ang^3
#
#
#
# Elastic Constant Matrix: (Units=GPa)
#
#
# Indices 1 2 3 4 5 6 
#
# 1 156.1627 45.7831 35.3821 0.0000 0.0000 0.0000
# 2 45.7831 78.6296 22.8901 0.0000 0.0000 0.0000
# 3 35.3821 22.8901 64.3742 0.0000 0.0000 0.0000
# 4 0.0000 0.0000 0.0000 11.2456 0.0000 0.0000
# 5 0.0000 0.0000 0.0000 0.0000 27.3080 0.0000
# 6 0.0000 0.0000 0.0000 0.0000 0.0000 16.7183
#
#
#
# Elastic Compliance Matrix: (Units=1/GPa)
#
#
# Indices 1 2 3 4 5 6 
#
# 1 0.008259 -0.003890 -0.003156 0.000000 0.000000 0.000000
# 2 -0.003890 0.016019 -0.003558 0.000000 0.000000 0.000000
# 3 -0.003156 -0.003558 0.018534 0.000000 0.000000 0.000000
# 4 0.000000 0.000000 0.000000 0.088924 0.000000 0.000000
# 5 0.000000 0.000000 0.000000 0.000000 0.036619 0.000000
# 6 0.000000 0.000000 0.000000 0.000000 0.000000 0.059815
#
#
# Mechanical properties :
#
#
# Convention : Reuss Voigt Hill
#
# Bulk Modulus (GPa) = 46.28870 56.36409 51.32639
# Shear Modulus (GPa) = 19.48717 24.06179 21.77448
#
# Velocity S-wave (km/s) = 3.39851 3.77641 3.59243
# Velocity P-wave (km/s) = 6.54483 7.24027 6.90132
#
# Compressibility (1/GPa) = 0.02160355
#
# Stress axis : x y z
#
# Youngs Moduli (GPa) = 121.07696 62.42714 53.95493
#
# Poissons Ratio (x) = 0.24285 0.17030
# Poissons Ratio (y) = 0.47101 0.19196
# Poissons Ratio (z) = 0.38215 0.22210
#
# Static dielectric constant tensor:
#      x y z
#    x 4.081430 0.000000 0.000000 
#    y 0.000000 2.603630 0.000000 
#    z 0.000000 0.000000 3.215340 
# 
# 
# High freq. dielectric constant tensor:
#      x y z
#    x 1.685820 0.000000 0.000000 
#    y 0.000000 1.578450 0.000000 
#    z 0.000000 0.000000 1.646330 
# 
# From -- ./inp_files/34410.got.cif
#   From: 2010.03.12/outbox.cif.g09.slc.cpg/sg64_18_cif.got.tgz:34410.got - 2010.04.10 20:19:32.
