data_PCOD8262557
_publ_section_title
;
Structure prediction by ZEFSAII (Michael W. Deem and Ramdas Pophale) SiO2 
 PCOD8262557
Probable space group: C M C A
;
_chemical_formula_sum "Si O2"
_cell_formula_units_Z 96
_cell_length_a 12.717340
_cell_length_b 22.002994
_cell_length_c 14.531355
_cell_angle_alpha 90.000000
_cell_angle_beta 90.000000
_cell_angle_gamma 90.000000
_cell_volume 4066.157300
_symmetry_space_group_name_H-M "C M C A"
_symmetry_group_IT_number 64
_symmetry_cell_setting 'orthorhombic'
loop_
_space_group_symop_operation_xyz
x,y,z
-x,1/2-y,1/2+z
x,-y,-z
-x,1/2+y,1/2-z
-x,-y,-z
x,1/2+y,1/2-z
-x,y,z
x,1/2-y,1/2+z
1/2+x,1/2+y,z
1/2-x,-y,1/2+z
1/2+x,1/2-y,-z
1/2-x,y,1/2-z
1/2-x,1/2-y,-z
1/2+x,y,1/2-z
1/2-x,1/2+y,z
1/2+x,-y,1/2+z
loop_
_atom_site_type_symbol
_atom_site_label
_atom_site_fract_x
_atom_site_fract_y
_atom_site_fract_z
Si Si1 0.626407 0.327441 0.104808
Si Si2 0.621018 0.635400 0.201424
Si Si3 0.817638 0.566231 0.481305
Si Si4 0.881328 0.596965 0.105076
Si Si5 0.624350 0.273220 0.294577
Si Si6 0.120383 0.716361 0.991380
O O1 0.500000 0.327142 0.107139
O O2 0.672915 0.307675 0.205207
O O3 0.666138 0.393761 0.073227
O O4 0.672494 0.278838 0.030005
O O5 0.500000 0.639857 0.229267
O O6 0.630149 0.599074 0.106206
O O7 0.669085 0.600577 0.291700
O O8 0.665251 0.703755 0.195767
O O9 0.868193 0.500000 0.500000
O O10 0.694090 0.555655 0.457918
O O11 0.000000 0.570995 0.099989
O O12 0.872305 0.665181 0.067677
O O13 0.500000 0.276287 0.281874
O O14 0.662831 0.305273 0.390508
O O15 0.000000 0.734747 0.973135
#
# Coordination Sequence:
#
# PCOD8262557 Si02
#       6
#    16  16  16  16  16  16
#     4  10  19  35  61  95 134 165 199 257 324 384
#     4  10  19  38  67  95 124 160 206 261 323 383
#     4  12  26  41  59  92 135 175 217 256 308 385
#     4  10  22  42  65  88 118 166 221 271 317 368
#     4   9  16  31  58  95 133 164 198 256 323 383
#     4   9  16  32  60  92 126 156 201 265 326 379
#
# _framework density 23.609514999999998
#
# number of rings (size 3 to 8) (size 9 to 14) (size 15 to 20)
#    0.000    2.000    3.333    1.000    0.000    2.333 
#    0.000    4.167    0.000    4.000    0.000    0.000 
#    0.000    0.000    0.000    0.000    0.000    0.000 
#
# Total GULP energy -594986.841072 kJ/mol
# GULP energy per Si atom -12395.559189 kJ/mol
# Density = 2.355578 g / cm^3
# Si number density = 23.609515 Si / 1000 Ang^3
#
#
#
# Elastic Constant Matrix: (Units=GPa)
#
#
# Indices 1 2 3 4 5 6 
#
# 1 37.9592 3.9045 42.6776 0.0000 0.0000 0.0000
# 2 3.9045 120.5423 71.2325 0.0000 0.0000 0.0000
# 3 42.6776 71.2325 189.6251 0.0000 0.0000 0.0000
# 4 0.0000 0.0000 0.0000 26.7301 0.0000 0.0000
# 5 0.0000 0.0000 0.0000 0.0000 39.4671 0.0000
# 6 0.0000 0.0000 0.0000 0.0000 0.0000 13.6669
#
#
#
# Elastic Compliance Matrix: (Units=1/GPa)
#
#
# Indices 1 2 3 4 5 6 
#
# 1 0.037333 0.004828 -0.010216 0.000000 0.000000 0.000000
# 2 0.004828 0.011287 -0.005326 0.000000 0.000000 0.000000
# 3 -0.010216 -0.005326 0.009574 0.000000 0.000000 0.000000
# 4 0.000000 0.000000 0.000000 0.037411 0.000000 0.000000
# 5 0.000000 0.000000 0.000000 0.000000 0.025338 0.000000
# 6 0.000000 0.000000 0.000000 0.000000 0.000000 0.073169
#
#
# Mechanical properties :
#
#
# Convention : Reuss Voigt Hill
#
# Bulk Modulus (GPa) = 27.20014 64.86176 46.03095
# Shear Modulus (GPa) = 21.94946 31.32695 26.63820
#
# Velocity S-wave (km/s) = 3.05238 3.64659 3.36264
# Velocity P-wave (km/s) = 4.89577 6.72774 5.88350
#
# Compressibility (1/GPa) = 0.03676452
#
# Stress axis : x y z
#
# Youngs Moduli (GPa) = 26.78580 88.59694 104.45325
#
# Poissons Ratio (x) = -0.42771 1.06707
# Poissons Ratio (y) = -0.12931 0.55637
# Poissons Ratio (z) = 0.27364 0.47191
#
# Static dielectric constant tensor:
#      x y z
#    x 4.789240 0.000000 0.000000 
#    y 0.000000 3.608280 0.000000 
#    z 0.000000 0.000000 4.543570 
# 
# 
# High freq. dielectric constant tensor:
#      x y z
#    x 1.981590 0.000000 0.000000 
#    y 0.000000 1.865040 0.000000 
#    z 0.000000 0.000000 1.957390 
# 
# From -- ./inp_files/23937.got.cif
#   From: 2010.03.12/outbox.cif.g09.slc.cpg/sg64_12_cif.got.tgz:23937.got - 2010.04.10 20:19:32.
