data_PCOD8262276
_publ_section_title
;
Structure prediction by ZEFSAII (Michael W. Deem and Ramdas Pophale) SiO2 
 PCOD8262276
Probable space group: C M C A
;
_chemical_formula_sum "Si O2"
_cell_formula_units_Z 96
_cell_length_a 9.516802
_cell_length_b 20.600103
_cell_length_c 28.155325
_cell_angle_alpha 90.000000
_cell_angle_beta 90.000000
_cell_angle_gamma 90.000000
_cell_volume 5519.769856
_symmetry_space_group_name_H-M "C M C A"
_symmetry_group_IT_number 64
_symmetry_cell_setting 'orthorhombic'
loop_
_space_group_symop_operation_xyz
x,y,z
-x,1/2-y,1/2+z
x,-y,-z
-x,1/2+y,1/2-z
-x,-y,-z
x,1/2+y,1/2-z
-x,y,z
x,1/2-y,1/2+z
1/2+x,1/2+y,z
1/2-x,-y,1/2+z
1/2+x,1/2-y,-z
1/2-x,y,1/2-z
1/2-x,1/2-y,-z
1/2+x,y,1/2-z
1/2-x,1/2+y,z
1/2+x,-y,1/2+z
loop_
_atom_site_type_symbol
_atom_site_label
_atom_site_fract_x
_atom_site_fract_y
_atom_site_fract_z
Si Si1 0.336766 0.449086 0.794877
Si Si2 0.664888 0.242541 0.895182
Si Si3 0.666613 0.367060 0.953089
Si Si4 0.839429 0.298567 0.706167
Si Si5 0.666552 0.009830 0.396771
Si Si6 0.333149 0.126889 0.561536
O O1 0.500000 0.461477 0.784451
O O2 0.250000 0.475855 0.750000
O O3 0.304753 0.373559 0.804040
O O4 0.284889 0.486887 0.841882
O O5 0.500000 0.229759 0.903814
O O6 0.719965 0.301816 0.927640
O O7 0.697017 0.258091 0.840539
O O8 0.754391 0.179685 0.907200
O O9 0.500000 0.370636 0.949945
O O10 0.731183 0.430115 0.926710
O O11 0.717259 0.366379 0.007335
O O12 0.750000 0.270997 0.750000
O O13 0.000000 0.289958 0.720811
O O14 0.500000 0.015464 0.398917
O O15 0.717746 0.942962 0.419787
O O16 0.500000 0.136025 0.566819
#
# Coordination Sequence:
#
# PCOD8262276 Si02
#       6
#    16  16  16  16  16  16
#     4   9  16  29  50  73  95 120 157 202 244 285
#     4  10  19  33  51  71 100 134 161 193 246 299
#     4   9  16  30  52  74  95 127 170 205 235 280
#     4   9  17  30  50  73  94 122 160 201 242 285
#     4   9  16  30  51  74  98 126 162 203 243 284
#     4  10  20  31  49  76 102 128 163 205 240 279
#
# _framework density 17.392029000000001
#
# number of rings (size 3 to 8) (size 9 to 14) (size 15 to 20)
#    0.000    2.667    1.667    1.000    0.000    2.667 
#    0.000    1.667    0.000    8.000    0.000    0.000 
#    0.000    0.000    0.000    0.000    0.000    0.000 
#
# Total GULP energy -595185.804018 kJ/mol
# GULP energy per Si atom -12399.704250 kJ/mol
# Density = 1.735244 g / cm^3
# Si number density = 17.392029 Si / 1000 Ang^3
#
#
#
# Elastic Constant Matrix: (Units=GPa)
#
#
# Indices 1 2 3 4 5 6 
#
# 1 35.0448 29.4632 41.7805 0.0000 0.0000 0.0000
# 2 29.4632 90.6617 52.1008 0.0000 0.0000 0.0000
# 3 41.7805 52.1008 128.4278 0.0000 0.0000 0.0000
# 4 0.0000 0.0000 0.0000 15.3928 0.0000 0.0000
# 5 0.0000 0.0000 0.0000 0.0000 25.7779 0.0000
# 6 0.0000 0.0000 0.0000 0.0000 0.0000 20.3860
#
#
#
# Elastic Compliance Matrix: (Units=1/GPa)
#
#
# Indices 1 2 3 4 5 6 
#
# 1 0.052082 -0.009374 -0.013141 0.000000 0.000000 0.000000
# 2 -0.009374 0.016070 -0.003470 0.000000 0.000000 0.000000
# 3 -0.013141 -0.003470 0.013469 0.000000 0.000000 0.000000
# 4 0.000000 0.000000 0.000000 0.064966 0.000000 0.000000
# 5 0.000000 0.000000 0.000000 0.000000 0.038793 0.000000
# 6 0.000000 0.000000 0.000000 0.000000 0.000000 0.049053
#
#
# Mechanical properties :
#
#
# Convention : Reuss Voigt Hill
#
# Bulk Modulus (GPa) = 33.72383 55.64705 44.68544
# Shear Modulus (GPa) = 16.87551 21.03066 18.95308
#
# Velocity S-wave (km/s) = 3.11835 3.48115 3.30473
# Velocity P-wave (km/s) = 5.69192 6.94428 6.34905
#
# Compressibility (1/GPa) = 0.02965262
#
# Stress axis : x y z
#
# Youngs Moduli (GPa) = 19.20031 62.22602 74.24385
#
# Poissons Ratio (x) = 0.58331 0.97562
# Poissons Ratio (y) = 0.17999 0.25762
# Poissons Ratio (z) = 0.25231 0.21592
#
# Static dielectric constant tensor:
#      x y z
#    x 2.873300 0.000000 0.000000 
#    y 0.000000 3.196360 0.000000 
#    z 0.000000 0.000000 3.464360 
# 
# 
# High freq. dielectric constant tensor:
#      x y z
#    x 1.630670 0.000000 0.000000 
#    y 0.000000 1.662320 0.000000 
#    z 0.000000 0.000000 1.688730 
# 
# From -- ./inp_files/38275.got.cif
#   From: 2010.03.12/outbox.cif.g09.slc.cpg/sg64_20_cif.got.tgz:38275.got - 2010.04.10 20:19:32.
