data_PCOD8262731
_publ_section_title
;
Structure prediction by ZEFSAII (Michael W. Deem and Ramdas Pophale) SiO2 
 PCOD8262731
Probable space group: C M C A
;
_chemical_formula_sum "Si O2"
_cell_formula_units_Z 88
_cell_length_a 22.456848
_cell_length_b 14.412933
_cell_length_c 14.248349
_cell_angle_alpha 90.000000
_cell_angle_beta 90.000000
_cell_angle_gamma 90.000000
_cell_volume 4611.749522
_symmetry_space_group_name_H-M "C M C A"
_symmetry_group_IT_number 64
_symmetry_cell_setting 'orthorhombic'
loop_
_space_group_symop_operation_xyz
x,y,z
-x,1/2-y,1/2+z
x,-y,-z
-x,1/2+y,1/2-z
-x,-y,-z
x,1/2+y,1/2-z
-x,y,z
x,1/2-y,1/2+z
1/2+x,1/2+y,z
1/2-x,-y,1/2+z
1/2+x,1/2-y,-z
1/2-x,y,1/2-z
1/2-x,1/2-y,-z
1/2+x,y,1/2-z
1/2-x,1/2+y,z
1/2+x,-y,1/2+z
loop_
_atom_site_type_symbol
_atom_site_label
_atom_site_fract_x
_atom_site_fract_y
_atom_site_fract_z
Si Si1 0.133359 0.298172 0.817193
Si Si2 0.765617 0.814011 0.084617
Si Si3 0.690528 0.520455 0.304050
Si Si4 0.430588 0.608654 0.488178
Si Si5 0.257647 0.500000 0.500000
Si Si6 0.638223 0.838170 0.165786
O O1 0.176667 0.224210 0.865085
O O2 0.168561 0.381076 0.764437
O O3 0.104831 0.235712 0.733818
O O4 0.086544 0.346358 0.887547
O O5 0.708512 0.816476 0.152846
O O6 0.750000 0.750000 0.000000
O O7 0.781411 0.916630 0.043620
O O8 0.750000 0.489368 0.250000
O O9 0.700486 0.537908 0.415997
O O10 0.639184 0.442347 0.290108
O O11 0.414810 0.500000 0.500000
O O12 0.500000 0.624850 0.503227
O O13 0.395517 0.665755 0.567124
#
# Coordination Sequence:
#
# PCOD8262731 Si02
#       6
#    16  16  16  16   8  16
#     4  12  22  37  61  91 124 158 203 251 311 374
#     4  11  19  33  56  88 127 166 193 236 307 384
#     4  11  20  33  53  83 125 162 190 234 295 365
#     4  11  24  45  67  84 112 163 220 263 297 350
#     4  10  20  32  50  76 126 168 200 228 274 362
#     4  11  22  37  58  93 121 156 202 250 304 367
#
# _framework density 19.081695
#
# number of rings (size 3 to 8) (size 9 to 14) (size 15 to 20)
#    0.000    0.909    5.455    4.909    1.273    0.727 
#    0.000    0.000    0.000    0.000    0.000    1.909 
#    0.000    0.000    0.000    0.000    0.000    0.000 
#
# Total GULP energy -545324.784609 kJ/mol
# GULP energy per Si atom -12393.745105 kJ/mol
# Density = 1.903826 g / cm^3
# Si number density = 19.081695 Si / 1000 Ang^3
#
#
#
# Elastic Constant Matrix: (Units=GPa)
#
#
# Indices 1 2 3 4 5 6 
#
# 1 56.8853 14.5853 19.5544 0.0000 0.0000 0.0000
# 2 14.5853 128.1488 40.2026 0.0000 0.0000 0.0000
# 3 19.5544 40.2026 96.6835 0.0000 0.0000 0.0000
# 4 0.0000 0.0000 0.0000 45.2493 0.0000 0.0000
# 5 0.0000 0.0000 0.0000 0.0000 16.8319 0.0000
# 6 0.0000 0.0000 0.0000 0.0000 0.0000 19.2170
#
#
#
# Elastic Compliance Matrix: (Units=1/GPa)
#
#
# Indices 1 2 3 4 5 6 
#
# 1 0.019027 -0.001102 -0.003390 0.000000 0.000000 0.000000
# 2 -0.001102 0.009038 -0.003535 0.000000 0.000000 0.000000
# 3 -0.003390 -0.003535 0.012499 0.000000 0.000000 0.000000
# 4 0.000000 0.000000 0.000000 0.022100 0.000000 0.000000
# 5 0.000000 0.000000 0.000000 0.000000 0.059411 0.000000
# 6 0.000000 0.000000 0.000000 0.000000 0.000000 0.052037
#
#
# Mechanical properties :
#
#
# Convention : Reuss Voigt Hill
#
# Bulk Modulus (GPa) = 40.80119 47.82248 44.31183
# Shear Modulus (GPa) = 25.20976 30.08468 27.64722
#
# Velocity S-wave (km/s) = 3.63870 3.97498 3.81055
# Velocity P-wave (km/s) = 6.25159 6.79586 6.52940
#
# Compressibility (1/GPa) = 0.02450909
#
# Stress axis : x y z
#
# Youngs Moduli (GPa) = 52.55658 110.64488 80.00858
#
# Poissons Ratio (x) = 0.12194 0.27123
# Poissons Ratio (y) = 0.05792 0.28285
# Poissons Ratio (z) = 0.17817 0.39115
#
# Static dielectric constant tensor:
#      x y z
#    x 3.223080 0.000000 0.000000 
#    y 0.000000 3.830420 0.000000 
#    z 0.000000 0.000000 2.908360 
# 
# 
# High freq. dielectric constant tensor:
#      x y z
#    x 1.687670 0.000000 0.000000 
#    y 0.000000 1.762710 0.000000 
#    z 0.000000 0.000000 1.747660 
# 
# From -- ./inp_files/27303.got.cif
#   From: 2010.03.12/outbox.cif.g09.slc.cpg/sg64_14_cif.got.tgz:27303.got - 2010.04.10 20:19:32.
