data_PCOD8262902
_publ_section_title
;
Structure prediction by ZEFSAII (Michael W. Deem and Ramdas Pophale) SiO2 
 PCOD8262902
Probable space group: C M C A
;
_chemical_formula_sum "Si O2"
_cell_formula_units_Z 48
_cell_length_a 17.815576
_cell_length_b 29.255572
_cell_length_c 4.992633
_cell_angle_alpha 90.000000
_cell_angle_beta 90.000000
_cell_angle_gamma 90.000000
_cell_volume 2602.184616
_symmetry_space_group_name_H-M "C M C A"
_symmetry_group_IT_number 64
_symmetry_cell_setting 'orthorhombic'
loop_
_space_group_symop_operation_xyz
x,y,z
-x,1/2-y,1/2+z
x,-y,-z
-x,1/2+y,1/2-z
-x,-y,-z
x,1/2+y,1/2-z
-x,y,z
x,1/2-y,1/2+z
1/2+x,1/2+y,z
1/2-x,-y,1/2+z
1/2+x,1/2-y,-z
1/2-x,y,1/2-z
1/2-x,1/2-y,-z
1/2+x,y,1/2-z
1/2-x,1/2+y,z
1/2+x,-y,1/2+z
loop_
_atom_site_type_symbol
_atom_site_label
_atom_site_fract_x
_atom_site_fract_y
_atom_site_fract_z
Si Si1 0.083082 0.367653 0.806434
Si Si2 0.300196 0.000000 0.500000
Si Si3 0.336669 0.404783 0.184765
Si Si4 0.500000 0.281226 0.648494
O O1 0.137453 0.371311 0.551659
O O2 0.074015 0.313671 0.880846
O O3 0.000000 0.387394 0.734260
O O4 0.114928 0.396164 0.052831
O O5 0.350588 0.042819 0.592490
O O6 0.250000 0.016954 0.250000
O O7 0.250000 0.395682 0.250000
O O8 0.500000 0.240322 0.441795
#
# Coordination Sequence:
#
# PCOD8262902 Si02
#       4
#    16   8  16   8
#     4  10  22  36  59  86 113 142 198 230 288 334
#     4  10  20  34  55  82 115 160 198 218 266 344
#     4  11  20  37  58  84 116 154 191 233 272 329
#     4  10  20  38  64  81 106 149 192 224 280 368
#
# _framework density 18.446038000000001
#
# number of rings (size 3 to 8) (size 9 to 14) (size 15 to 20)
#    1.000    0.667    0.000    8.000    0.000    0.000 
#    0.000    5.000    0.000   20.000    0.000    0.000 
#    0.000    0.000    0.000    0.000    0.000    0.000 
#
# Total GULP energy -297494.480037 kJ/mol
# GULP energy per Si atom -12395.603335 kJ/mol
# Density = 1.840405 g / cm^3
# Si number density = 18.446038 Si / 1000 Ang^3
#
#
#
# Elastic Constant Matrix: (Units=GPa)
#
#
# Indices 1 2 3 4 5 6 
#
# 1 83.5739 56.6978 46.0711 0.0000 0.0000 0.0000
# 2 56.6978 85.9326 30.3884 0.0000 0.0000 0.0000
# 3 46.0711 30.3884 123.7003 0.0000 0.0000 0.0000
# 4 0.0000 0.0000 0.0000 41.3814 0.0000 0.0000
# 5 0.0000 0.0000 0.0000 0.0000 24.9168 0.0000
# 6 0.0000 0.0000 0.0000 0.0000 0.0000 33.8519
#
#
#
# Elastic Compliance Matrix: (Units=1/GPa)
#
#
# Indices 1 2 3 4 5 6 
#
# 1 0.024894 -0.014397 -0.005735 0.000000 0.000000 0.000000
# 2 -0.014397 0.021070 0.000186 0.000000 0.000000 0.000000
# 3 -0.005735 0.000186 0.010174 0.000000 0.000000 0.000000
# 4 0.000000 0.000000 0.000000 0.024165 0.000000 0.000000
# 5 0.000000 0.000000 0.000000 0.000000 0.040134 0.000000
# 6 0.000000 0.000000 0.000000 0.000000 0.000000 0.029540
#
#
# Mechanical properties :
#
#
# Convention : Reuss Voigt Hill
#
# Bulk Modulus (GPa) = 61.55037 62.16905 61.85971
# Shear Modulus (GPa) = 25.60363 30.69999 28.15181
#
# Velocity S-wave (km/s) = 3.72967 4.08403 3.91086
# Velocity P-wave (km/s) = 7.21023 7.48434 7.34857
#
# Compressibility (1/GPa) = 0.01624685
#
# Stress axis : x y z
#
# Youngs Moduli (GPa) = 40.17062 47.46027 98.28727
#
# Poissons Ratio (x) = 0.68328 0.56365
# Poissons Ratio (y) = 0.57833 -0.01826
# Poissons Ratio (z) = 0.23037 -0.00882
#
# Static dielectric constant tensor:
#      x y z
#    x 3.384710 0.000000 0.000000 
#    y 0.000000 3.329790 0.000000 
#    z 0.000000 0.000000 3.679610 
# 
# 
# High freq. dielectric constant tensor:
#      x y z
#    x 1.692330 0.000000 0.000000 
#    y 0.000000 1.706910 0.000000 
#    z 0.000000 0.000000 1.740300 
# 
# From -- ./inp_files/820.got.cif
#   From: 2010.03.12/outbox.cif.g09.slc.cpg/sg64_1_cif.got.tgz:820.got - 2010.04.10 20:19:32.
