data_PCOD8262495
_publ_section_title
;
Structure prediction by ZEFSAII (Michael W. Deem and Ramdas Pophale) SiO2 
 PCOD8262495
Probable space group: C M C A
;
_chemical_formula_sum "Si O2"
_cell_formula_units_Z 112
_cell_length_a 22.304952
_cell_length_b 11.224205
_cell_length_c 22.738173
_cell_angle_alpha 90.000000
_cell_angle_beta 90.000000
_cell_angle_gamma 90.000000
_cell_volume 5692.623345
_symmetry_space_group_name_H-M "C M C A"
_symmetry_group_IT_number 64
_symmetry_cell_setting 'orthorhombic'
loop_
_space_group_symop_operation_xyz
x,y,z
-x,1/2-y,1/2+z
x,-y,-z
-x,1/2+y,1/2-z
-x,-y,-z
x,1/2+y,1/2-z
-x,y,z
x,1/2-y,1/2+z
1/2+x,1/2+y,z
1/2-x,-y,1/2+z
1/2+x,1/2-y,-z
1/2-x,y,1/2-z
1/2-x,1/2-y,-z
1/2+x,y,1/2-z
1/2-x,1/2+y,z
1/2+x,-y,1/2+z
loop_
_atom_site_type_symbol
_atom_site_label
_atom_site_fract_x
_atom_site_fract_y
_atom_site_fract_z
Si Si1 0.429724 0.960244 0.759728
Si Si2 0.149896 0.451077 0.334670
Si Si3 0.823937 0.625306 0.971636
Si Si4 0.302160 0.798033 0.431335
Si Si5 0.761507 0.899555 0.660811
Si Si6 0.349664 0.891065 0.153457
Si Si7 0.837821 0.766781 0.744805
O O1 0.500000 0.952580 0.767695
O O2 0.402773 0.827003 0.767595
O O3 0.413838 0.007637 0.693424
O O4 0.404069 0.047474 0.810744
O O5 0.150564 0.387854 0.398821
O O6 0.191084 0.569433 0.332929
O O7 0.174771 0.354205 0.289619
O O8 0.752683 0.626570 0.957724
O O9 0.865866 0.645193 0.913680
O O10 0.841457 0.500000 0.000000
O O11 0.839100 0.732138 0.017109
O O12 0.274093 0.698316 0.388652
O O13 0.787483 0.859738 0.724065
O O14 0.793185 0.022776 0.643415
O O15 0.328823 0.770079 0.186818
#
# Coordination Sequence:
#
# PCOD8262495 Si02
#       7
#    16  16  16  16  16  16  16
#     4  10  23  40  59  80 108 150 197 247 296 342
#     4  10  20  35  56  84 119 151 188 235 284 348
#     4  11  20  35  56  84 124 159 190 225 276 343
#     4  10  20  34  55  86 125 158 185 222 276 351
#     4  10  19  35  54  85 122 150 184 220 289 352
#     4  10  20  37  57  85 117 153 186 237 285 348
#     4   9  22  34  53  83 115 151 182 236 288 348
#
# _framework density 19.674585
#
# number of rings (size 3 to 8) (size 9 to 14) (size 15 to 20)
#    0.000    2.000    2.857    0.000    2.000    8.571 
#    0.000    0.000    0.000    1.286    0.000    1.000 
#    0.000    0.000    0.000    0.000    0.000    0.000 
#
# Total GULP energy -693892.286710 kJ/mol
# GULP energy per Si atom -12390.933691 kJ/mol
# Density = 1.962981 g / cm^3
# Si number density = 19.674585 Si / 1000 Ang^3
#
#
#
# Elastic Constant Matrix: (Units=GPa)
#
#
# Indices 1 2 3 4 5 6 
#
# 1 43.5282 0.1218 25.7165 0.0000 0.0000 0.0000
# 2 0.1218 80.9942 38.7146 0.0000 0.0000 0.0000
# 3 25.7165 38.7146 130.9901 0.0000 0.0000 0.0000
# 4 0.0000 0.0000 0.0000 40.7016 0.0000 0.0000
# 5 0.0000 0.0000 0.0000 0.0000 17.0615 0.0000
# 6 0.0000 0.0000 0.0000 0.0000 0.0000 9.4610
#
#
#
# Elastic Compliance Matrix: (Units=1/GPa)
#
#
# Indices 1 2 3 4 5 6 
#
# 1 0.026543 0.002854 -0.006055 0.000000 0.000000 0.000000
# 2 0.002854 0.014685 -0.004900 0.000000 0.000000 0.000000
# 3 -0.006055 -0.004900 0.010271 0.000000 0.000000 0.000000
# 4 0.000000 0.000000 0.000000 0.024569 0.000000 0.000000
# 5 0.000000 0.000000 0.000000 0.000000 0.058612 0.000000
# 6 0.000000 0.000000 0.000000 0.000000 0.000000 0.105697
#
#
# Mechanical properties :
#
#
# Convention : Reuss Voigt Hill
#
# Bulk Modulus (GPa) = 28.33119 42.73536 35.53328
# Shear Modulus (GPa) = 18.63283 26.17545 22.40414
#
# Velocity S-wave (km/s) = 3.08076 3.65145 3.37818
# Velocity P-wave (km/s) = 5.20441 6.28854 5.77198
#
# Compressibility (1/GPa) = 0.03529679
#
# Stress axis : x y z
#
# Youngs Moduli (GPa) = 37.67520 68.09832 97.36003
#
# Poissons Ratio (x) = -0.19436 0.58947
# Poissons Ratio (y) = -0.10753 0.47711
# Poissons Ratio (z) = 0.22810 0.33371
#
# Static dielectric constant tensor:
#      x y z
#    x 2.955930 0.000000 0.000000 
#    y 0.000000 3.978430 0.000000 
#    z 0.000000 0.000000 4.116470 
# 
# 
# High freq. dielectric constant tensor:
#      x y z
#    x 1.689790 0.000000 0.000000 
#    y 0.000000 1.795550 0.000000 
#    z 0.000000 0.000000 1.777810 
# 
# From -- ./inp_files/46707.got.cif
#   From: 2010.03.12/outbox.cif.g09.slc.cpg/sg64_24_cif.got.tgz:46707.got - 2010.04.10 20:19:32.
