data_PCOD8262977
_publ_section_title
;
Structure prediction by ZEFSAII (Michael W. Deem and Ramdas Pophale) SiO2 
 PCOD8262977
Probable space group: C M C A
;
_chemical_formula_sum "Si O2"
_cell_formula_units_Z 80
_cell_length_a 8.945609
_cell_length_b 25.222930
_cell_length_c 18.441706
_cell_angle_alpha 90.000000
_cell_angle_beta 90.000000
_cell_angle_gamma 90.000000
_cell_volume 4161.084552
_symmetry_space_group_name_H-M "C M C A"
_symmetry_group_IT_number 64
_symmetry_cell_setting 'orthorhombic'
loop_
_space_group_symop_operation_xyz
x,y,z
-x,1/2-y,1/2+z
x,-y,-z
-x,1/2+y,1/2-z
-x,-y,-z
x,1/2+y,1/2-z
-x,y,z
x,1/2-y,1/2+z
1/2+x,1/2+y,z
1/2-x,-y,1/2+z
1/2+x,1/2-y,-z
1/2-x,y,1/2-z
1/2-x,1/2-y,-z
1/2+x,y,1/2-z
1/2-x,1/2+y,z
1/2+x,-y,1/2+z
loop_
_atom_site_type_symbol
_atom_site_label
_atom_site_fract_x
_atom_site_fract_y
_atom_site_fract_z
Si Si1 0.173718 0.190918 0.082250
Si Si2 0.322779 0.503846 0.418929
Si Si3 0.175677 0.594990 0.827347
Si Si4 0.676884 0.604471 0.326486
Si Si5 0.327169 0.687857 0.566387
O O1 0.263565 0.160531 0.144610
O O2 0.206463 0.253016 0.094077
O O3 0.000000 0.177320 0.089525
O O4 0.229346 0.172974 0.003304
O O5 0.255058 0.500000 0.500000
O O6 0.500000 0.499535 0.422973
O O7 0.259765 0.455165 0.371547
O O8 0.273388 0.559028 0.382884
O O9 0.250000 0.597390 0.750000
O O10 0.218316 0.648505 0.869553
O O11 0.000000 0.589548 0.816400
O O12 0.500000 0.607260 0.316930
O O13 0.750000 0.590627 0.250000
O O14 0.500000 0.681015 0.543787
#
# Coordination Sequence:
#
# PCOD8262977 Si02
#       5
#    16  16  16  16  16
#     4  10  20  35  56  82 109 139 180 225 267 315
#     4   9  18  34  57  80 102 135 178 220 266 321
#     4  10  20  35  55  79 108 139 174 217 265 318
#     4  11  22  36  55  79 110 145 180 220 267 319
#     4   9  19  36  57  80 107 142 181 220 265 318
#
# _framework density 19.225757000000002
#
# number of rings (size 3 to 8) (size 9 to 14) (size 15 to 20)
#    0.000    2.200    0.000    3.000    0.000    5.600 
#    0.000    3.000    0.000    4.200    0.000    0.000 
#    0.000    0.000    0.000    0.000    0.000    0.000 
#
# Total GULP energy -496151.645509 kJ/mol
# GULP energy per Si atom -12403.791138 kJ/mol
# Density = 1.918200 g / cm^3
# Si number density = 19.225757 Si / 1000 Ang^3
#
#
#
# Elastic Constant Matrix: (Units=GPa)
#
#
# Indices 1 2 3 4 5 6 
#
# 1 60.7553 39.2668 47.3202 0.0000 0.0000 0.0000
# 2 39.2668 106.5314 63.0142 0.0000 0.0000 0.0000
# 3 47.3202 63.0142 136.4204 0.0000 0.0000 0.0000
# 4 0.0000 0.0000 0.0000 31.2166 0.0000 0.0000
# 5 0.0000 0.0000 0.0000 0.0000 37.4415 0.0000
# 6 0.0000 0.0000 0.0000 0.0000 0.0000 21.1168
#
#
#
# Elastic Compliance Matrix: (Units=1/GPa)
#
#
# Indices 1 2 3 4 5 6 
#
# 1 0.024736 -0.005562 -0.006011 0.000000 0.000000 0.000000
# 2 -0.005562 0.014166 -0.004614 0.000000 0.000000 0.000000
# 3 -0.006011 -0.004614 0.011547 0.000000 0.000000 0.000000
# 4 0.000000 0.000000 0.000000 0.032034 0.000000 0.000000
# 5 0.000000 0.000000 0.000000 0.000000 0.026708 0.000000
# 6 0.000000 0.000000 0.000000 0.000000 0.000000 0.047356
#
#
# Mechanical properties :
#
#
# Convention : Reuss Voigt Hill
#
# Bulk Modulus (GPa) = 55.32665 66.98993 61.15829
# Shear Modulus (GPa) = 25.64797 28.22869 26.93833
#
# Velocity S-wave (km/s) = 3.65642 3.83596 3.74727
# Velocity P-wave (km/s) = 6.83123 7.38505 7.11353
#
# Compressibility (1/GPa) = 0.01807447
#
# Stress axis : x y z
#
# Youngs Moduli (GPa) = 40.42686 70.58932 86.60434
#
# Poissons Ratio (x) = 0.39262 0.52058
# Poissons Ratio (y) = 0.22485 0.39962
# Poissons Ratio (z) = 0.24301 0.32573
#
# Static dielectric constant tensor:
#      x y z
#    x 3.322300 0.000000 0.000000 
#    y 0.000000 3.745000 0.000000 
#    z 0.000000 0.000000 3.533920 
# 
# 
# High freq. dielectric constant tensor:
#      x y z
#    x 1.728080 0.000000 0.000000 
#    y 0.000000 1.761870 0.000000 
#    z 0.000000 0.000000 1.753020 
# 
# From -- ./inp_files/29760.got.cif
#   From: 2010.03.12/outbox.cif.g09.slc.cpg/sg64_15_cif.got.tgz:29760.got - 2010.04.10 20:19:32.
