data_PCOD8262207
_publ_section_title
;
Structure prediction by ZEFSAII (Michael W. Deem and Ramdas Pophale) SiO2 
 PCOD8262207
Probable space group: C M C A
;
_chemical_formula_sum "Si O2"
_cell_formula_units_Z 80
_cell_length_a 9.032438
_cell_length_b 18.868432
_cell_length_c 25.788343
_cell_angle_alpha 90.000000
_cell_angle_beta 90.000000
_cell_angle_gamma 90.000000
_cell_volume 4395.054230
_symmetry_space_group_name_H-M "C M C A"
_symmetry_group_IT_number 64
_symmetry_cell_setting 'orthorhombic'
loop_
_space_group_symop_operation_xyz
x,y,z
-x,1/2-y,1/2+z
x,-y,-z
-x,1/2+y,1/2-z
-x,-y,-z
x,1/2+y,1/2-z
-x,y,z
x,1/2-y,1/2+z
1/2+x,1/2+y,z
1/2-x,-y,1/2+z
1/2+x,1/2-y,-z
1/2-x,y,1/2-z
1/2-x,1/2-y,-z
1/2+x,y,1/2-z
1/2-x,1/2+y,z
1/2+x,-y,1/2+z
loop_
_atom_site_type_symbol
_atom_site_label
_atom_site_fract_x
_atom_site_fract_y
_atom_site_fract_z
Si Si1 0.833308 0.084167 0.502155
Si Si2 0.674040 0.661710 0.697099
Si Si3 0.828119 0.419678 0.394904
Si Si4 0.671380 0.414026 0.899780
Si Si5 0.172794 0.174921 0.197764
O O1 0.736659 0.109764 0.550991
O O2 0.761219 0.114019 0.449550
O O3 0.000000 0.113725 0.507563
O O4 0.832737 0.000000 0.500000
O O5 0.500000 0.648430 0.701503
O O6 0.750000 0.635821 0.750000
O O7 0.738866 0.616035 0.650949
O O8 0.712388 0.743605 0.686452
O O9 0.802895 0.503312 0.389851
O O10 0.000000 0.399236 0.391755
O O11 0.500000 0.397247 0.910223
O O12 0.732035 0.371560 0.850115
O O13 0.250000 0.147634 0.250000
O O14 0.000000 0.163238 0.205726
#
# Coordination Sequence:
#
# PCOD8262207 Si02
#       5
#    16  16  16  16  16
#     4   9  17  30  49  74 102 131 163 200 244 292
#     4  10  20  35  53  72  98 131 166 203 244 292
#     4  10  19  32  52  76 102 131 163 202 246 292
#     4   9  18  33  52  75 101 129 163 203 247 292
#     4   9  19  35  53  72  97 130 165 202 245 292
#
# _framework density 18.202278
#
# number of rings (size 3 to 8) (size 9 to 14) (size 15 to 20)
#    0.000    2.600    0.000    1.800    0.000    5.600 
#    0.000    3.000    0.000    0.000    0.000    0.000 
#    0.000    0.000    0.000    0.000    0.000    0.000 
#
# Total GULP energy -496081.622438 kJ/mol
# GULP energy per Si atom -12402.040561 kJ/mol
# Density = 1.816085 g / cm^3
# Si number density = 18.202278 Si / 1000 Ang^3
#
#
#
# Elastic Constant Matrix: (Units=GPa)
#
#
# Indices 1 2 3 4 5 6 
#
# 1 100.9063 33.6617 75.0085 0.0000 0.0000 0.0000
# 2 33.6617 36.0250 50.7995 0.0000 0.0000 0.0000
# 3 75.0085 50.7995 177.9734 0.0000 0.0000 0.0000
# 4 0.0000 0.0000 0.0000 -26.4367 0.0000 0.0000
# 5 0.0000 0.0000 0.0000 0.0000 43.0494 0.0000
# 6 0.0000 0.0000 0.0000 0.0000 0.0000 19.9900
#
#
#
# Elastic Compliance Matrix: (Units=1/GPa)
#
#
# Indices 1 2 3 4 5 6 
#
# 1 0.016046 -0.009133 -0.004156 0.000000 0.000000 0.000000
# 2 -0.009133 0.051656 -0.010895 0.000000 0.000000 0.000000
# 3 -0.004156 -0.010895 0.010480 0.000000 0.000000 0.000000
# 4 0.000000 0.000000 0.000000 -0.037826 0.000000 0.000000
# 5 0.000000 0.000000 0.000000 0.000000 0.023229 0.000000
# 6 0.000000 0.000000 0.000000 0.000000 0.000000 0.050025
#
#
# Mechanical properties :
#
#
# Convention : Reuss Voigt Hill
#
# Bulk Modulus (GPa) = 33.54139 70.42711 51.98425
# Shear Modulus (GPa) = 29.08386 17.68287 23.38337
#
# Velocity S-wave (km/s) = 4.00160 3.12021 3.58808
# Velocity P-wave (km/s) = 6.31011 7.19419 6.76660
#
# Compressibility (1/GPa) = 0.02981391
#
# Stress axis : x y z
#
# Youngs Moduli (GPa) = 62.31975 19.35888 95.41863
#
# Poissons Ratio (x) = 0.17681 0.39655
# Poissons Ratio (y) = 0.56919 1.03958
# Poissons Ratio (z) = 0.25899 0.21091
#
# Static dielectric constant tensor:
#      x y z
#    x 3.475120 0.000000 0.000000 
#    y 0.000000 3.131830 0.000000 
#    z 0.000000 0.000000 3.603430 
# 
# 
# High freq. dielectric constant tensor:
#      x y z
#    x 1.713970 0.000000 0.000000 
#    y 0.000000 1.674080 0.000000 
#    z 0.000000 0.000000 1.720500 
# 
# From -- ./inp_files/47801.got.cif
#   From: 2010.03.12/outbox.cif.g09.slc.cpg/sg64_24_cif.got.tgz:47801.got - 2010.04.10 20:19:32.
