data_PCOD8262201
_publ_section_title
;
Structure prediction by ZEFSAII (Michael W. Deem and Ramdas Pophale) SiO2 
 PCOD8262201
Probable space group: C M C A
;
_chemical_formula_sum "Si O2"
_cell_formula_units_Z 96
_cell_length_a 8.840437
_cell_length_b 23.239106
_cell_length_c 22.924447
_cell_angle_alpha 90.000000
_cell_angle_beta 90.000000
_cell_angle_gamma 90.000000
_cell_volume 4709.686709
_symmetry_space_group_name_H-M "C M C A"
_symmetry_group_IT_number 64
_symmetry_cell_setting 'orthorhombic'
loop_
_space_group_symop_operation_xyz
x,y,z
-x,1/2-y,1/2+z
x,-y,-z
-x,1/2+y,1/2-z
-x,-y,-z
x,1/2+y,1/2-z
-x,y,z
x,1/2-y,1/2+z
1/2+x,1/2+y,z
1/2-x,-y,1/2+z
1/2+x,1/2-y,-z
1/2-x,y,1/2-z
1/2-x,1/2-y,-z
1/2+x,y,1/2-z
1/2-x,1/2+y,z
1/2+x,-y,1/2+z
loop_
_atom_site_type_symbol
_atom_site_label
_atom_site_fract_x
_atom_site_fract_y
_atom_site_fract_z
Si Si1 0.821007 0.558136 0.813866
Si Si2 0.170853 0.272406 0.916764
Si Si3 0.176553 0.855005 0.104059
Si Si4 0.821105 0.049397 0.128519
Si Si5 0.327630 0.149033 0.193545
Si Si6 0.825807 0.626251 0.476155
O O1 0.750000 0.550585 0.750000
O O2 0.771389 0.618414 0.842786
O O3 0.762410 0.510179 0.858987
O O4 0.000000 0.555087 0.807609
O O5 0.240084 0.209013 0.908124
O O6 0.181228 0.302725 0.854825
O O7 0.255980 0.310682 0.964702
O O8 0.000000 0.266336 0.939128
O O9 0.000000 0.854019 0.121921
O O10 0.200450 0.890899 0.043677
O O11 0.773290 0.093527 0.178685
O O12 0.762710 0.075774 0.066295
O O13 0.000000 0.038294 0.129227
O O14 0.500000 0.129530 0.204767
O O15 0.250000 0.177050 0.250000
O O16 0.000000 0.633564 0.460855
#
# Coordination Sequence:
#
# PCOD8262201 Si02
#       6
#    16  16  16  16  16  16
#     4  12  26  43  61  82 109 148 190 233 281 334
#     4   9  19  34  55  82 116 152 188 231 279 328
#     4  10  21  39  59  84 117 153 189 228 274 331
#     4  10  20  37  59  84 112 145 183 229 281 335
#     4  10  19  32  51  79 110 144 185 233 282 330
#     4   9  19  35  60  89 117 148 185 229 280 331
#
# _framework density 20.383520999999998
#
# number of rings (size 3 to 8) (size 9 to 14) (size 15 to 20)
#    0.000    2.000    0.000    3.500    0.000    4.000 
#    0.000    5.000    0.000    0.000    0.000    0.000 
#    0.000    0.000    0.000    0.000    0.000    0.000 
#
# Total GULP energy -595169.018310 kJ/mol
# GULP energy per Si atom -12399.354548 kJ/mol
# Density = 2.033713 g / cm^3
# Si number density = 20.383521 Si / 1000 Ang^3
#
#
#
# Elastic Constant Matrix: (Units=GPa)
#
#
# Indices 1 2 3 4 5 6 
#
# 1 90.5355 33.4324 33.8328 0.0000 0.0000 0.0000
# 2 33.4324 92.9430 30.1999 0.0000 0.0000 0.0000
# 3 33.8328 30.1999 70.9634 0.0000 0.0000 0.0000
# 4 0.0000 0.0000 0.0000 9.7819 0.0000 0.0000
# 5 0.0000 0.0000 0.0000 0.0000 28.8195 0.0000
# 6 0.0000 0.0000 0.0000 0.0000 0.0000 32.4092
#
#
#
# Elastic Compliance Matrix: (Units=1/GPa)
#
#
# Indices 1 2 3 4 5 6 
#
# 1 0.014310 -0.003401 -0.005375 0.000000 0.000000 0.000000
# 2 -0.003401 0.013294 -0.004036 0.000000 0.000000 0.000000
# 3 -0.005375 -0.004036 0.018372 0.000000 0.000000 0.000000
# 4 0.000000 0.000000 0.000000 0.102230 0.000000 0.000000
# 5 0.000000 0.000000 0.000000 0.000000 0.034699 0.000000
# 6 0.000000 0.000000 0.000000 0.000000 0.000000 0.030855
#
#
# Mechanical properties :
#
#
# Convention : Reuss Voigt Hill
#
# Bulk Modulus (GPa) = 49.13574 49.93023 49.53299
# Shear Modulus (GPa) = 20.31130 24.66724 22.48927
#
# Velocity S-wave (km/s) = 3.16009 3.48250 3.32521
# Velocity P-wave (km/s) = 6.12151 6.38114 6.25268
#
# Compressibility (1/GPa) = 0.02035178
#
# Stress axis : x y z
#
# Youngs Moduli (GPa) = 69.88170 75.22160 54.43034
#
# Poissons Ratio (x) = 0.25582 0.29257
# Poissons Ratio (y) = 0.23766 0.21969
# Poissons Ratio (z) = 0.37562 0.30361
#
# Static dielectric constant tensor:
#      x y z
#    x 3.695570 0.000000 0.000000 
#    y 0.000000 3.686900 0.000000 
#    z 0.000000 0.000000 3.774530 
# 
# 
# High freq. dielectric constant tensor:
#      x y z
#    x 1.789740 0.000000 0.000000 
#    y 0.000000 1.790910 0.000000 
#    z 0.000000 0.000000 1.804600 
# 
# From -- ./inp_files/42948.got.cif
#   From: 2010.03.12/outbox.cif.g09.slc.cpg/sg64_22_cif.got.tgz:42948.got - 2010.04.10 20:19:32.
