data_PCOD8262173
_publ_section_title
;
Structure prediction by ZEFSAII (Michael W. Deem and Ramdas Pophale) SiO2 
 PCOD8262173
Probable space group: C M C A
;
_chemical_formula_sum "Si O2"
_cell_formula_units_Z 96
_cell_length_a 8.999392
_cell_length_b 30.219830
_cell_length_c 19.984108
_cell_angle_alpha 90.000000
_cell_angle_beta 90.000000
_cell_angle_gamma 90.000000
_cell_volume 5434.879937
_symmetry_space_group_name_H-M "C M C A"
_symmetry_group_IT_number 64
_symmetry_cell_setting 'orthorhombic'
loop_
_space_group_symop_operation_xyz
x,y,z
-x,1/2-y,1/2+z
x,-y,-z
-x,1/2+y,1/2-z
-x,-y,-z
x,1/2+y,1/2-z
-x,y,z
x,1/2-y,1/2+z
1/2+x,1/2+y,z
1/2-x,-y,1/2+z
1/2+x,1/2-y,-z
1/2-x,y,1/2-z
1/2-x,1/2-y,-z
1/2+x,y,1/2-z
1/2-x,1/2+y,z
1/2+x,-y,1/2+z
loop_
_atom_site_type_symbol
_atom_site_label
_atom_site_fract_x
_atom_site_fract_y
_atom_site_fract_z
Si Si1 0.164117 0.289950 0.581333
Si Si2 0.176941 0.612161 0.425606
Si Si3 0.675715 0.118153 0.932671
Si Si4 0.327605 0.551824 0.683058
Si Si5 0.334944 0.706170 0.922439
Si Si6 0.824614 0.450074 0.818672
O O1 0.218851 0.338935 0.602581
O O2 0.272088 0.251772 0.609545
O O3 0.158469 0.288589 0.501568
O O4 0.000000 0.280813 0.610306
O O5 0.239714 0.605615 0.499772
O O6 0.254018 0.576397 0.379367
O O7 0.000000 0.605733 0.427537
O O8 0.500000 0.119707 0.945892
O O9 0.722824 0.080876 0.879777
O O10 0.728651 0.165361 0.903392
O O11 0.500000 0.557078 0.696405
O O12 0.250000 0.569439 0.750000
O O13 0.284727 0.501158 0.668079
O O14 0.500000 0.697994 0.893464
O O15 0.750000 0.433648 0.750000
O O16 0.000000 0.441580 0.815074
#
# Coordination Sequence:
#
# PCOD8262173 Si02
#       6
#    16  16  16  16  16  16
#     4   8  15  27  43  65  96 130 162 197 238 288
#     4  10  20  33  50  76 104 131 166 206 248 292
#     4  10  19  32  50  74 103 133 165 204 250 294
#     4   9  20  36  54  74  97 130 169 205 245 297
#     4   9  16  26  43  69  98 128 163 200 241 291
#     4  10  20  36  55  74  98 130 167 205 247 297
#
# _framework density 17.663682999999999
#
# number of rings (size 3 to 8) (size 9 to 14) (size 15 to 20)
#    0.000    2.667    0.000    3.000    0.000    7.333 
#    0.000    3.333    0.000    1.000    0.000    4.667 
#    0.000    0.000    0.000    0.000    0.000    0.000 
#
# Total GULP energy -595101.744836 kJ/mol
# GULP energy per Si atom -12397.953017 kJ/mol
# Density = 1.762348 g / cm^3
# Si number density = 17.663683 Si / 1000 Ang^3
#
#
#
# Elastic Constant Matrix: (Units=GPa)
#
#
# Indices 1 2 3 4 5 6 
#
# 1 96.0054 56.7811 47.5191 0.0000 0.0000 0.0000
# 2 56.7811 111.1202 61.3393 0.0000 0.0000 0.0000
# 3 47.5191 61.3393 75.6673 0.0000 0.0000 0.0000
# 4 0.0000 0.0000 0.0000 -0.5049 0.0000 0.0000
# 5 0.0000 0.0000 0.0000 0.0000 26.0831 0.0000
# 6 0.0000 0.0000 0.0000 0.0000 0.0000 31.1166
#
#
#
# Elastic Compliance Matrix: (Units=1/GPa)
#
#
# Indices 1 2 3 4 5 6 
#
# 1 0.016466 -0.004897 -0.006371 0.000000 0.000000 0.000000
# 2 -0.004897 0.017744 -0.011309 0.000000 0.000000 0.000000
# 3 -0.006371 -0.011309 0.026384 0.000000 0.000000 0.000000
# 4 0.000000 0.000000 0.000000 -1.980776 0.000000 0.000000
# 5 0.000000 0.000000 0.000000 0.000000 0.038339 0.000000
# 6 0.000000 0.000000 0.000000 0.000000 0.000000 0.032137
#
#
# Mechanical properties :
#
#
# Convention : Reuss Voigt Hill
#
# Bulk Modulus (GPa) = 64.76415 68.23021 66.49718
# Shear Modulus (GPa) = -2.77870 19.14920 8.18525
#
# Velocity S-wave (km/s) = -1.25560 3.29614 2.15499
# Velocity P-wave (km/s) = 5.88581 7.29365 6.62722
#
# Compressibility (1/GPa) = 0.01544064
#
# Stress axis : x y z
#
# Youngs Moduli (GPa) = 60.73257 56.35636 37.90175
#
# Poissons Ratio (x) = 0.27598 0.24146
# Poissons Ratio (y) = 0.29741 0.42863
# Poissons Ratio (z) = 0.38690 0.63733
#
# Static dielectric constant tensor:
#      x y z
#    x 3.455760 0.000000 0.000000 
#    y 0.000000 3.565430 0.000000 
#    z 0.000000 0.000000 2.951400 
# 
# 
# High freq. dielectric constant tensor:
#      x y z
#    x 1.696430 0.000000 0.000000 
#    y 0.000000 1.692890 0.000000 
#    z 0.000000 0.000000 1.639990 
# 
# From -- ./inp_files/37040.got.cif
#   From: 2010.03.12/outbox.cif.g09.slc.cpg/sg64_19_cif.got.tgz:37040.got - 2010.04.10 20:19:32.
