data_PCOD8262580
_publ_section_title
;
Structure prediction by ZEFSAII (Michael W. Deem and Ramdas Pophale) SiO2 
 PCOD8262580
Probable space group: C M C A
;
_chemical_formula_sum "Si O2"
_cell_formula_units_Z 80
_cell_length_a 9.059126
_cell_length_b 25.161799
_cell_length_c 19.613594
_cell_angle_alpha 90.000000
_cell_angle_beta 90.000000
_cell_angle_gamma 90.000000
_cell_volume 4470.799257
_symmetry_space_group_name_H-M "C M C A"
_symmetry_group_IT_number 64
_symmetry_cell_setting 'orthorhombic'
loop_
_space_group_symop_operation_xyz
x,y,z
-x,1/2-y,1/2+z
x,-y,-z
-x,1/2+y,1/2-z
-x,-y,-z
x,1/2+y,1/2-z
-x,y,z
x,1/2-y,1/2+z
1/2+x,1/2+y,z
1/2-x,-y,1/2+z
1/2+x,1/2-y,-z
1/2-x,y,1/2-z
1/2-x,1/2-y,-z
1/2+x,y,1/2-z
1/2-x,1/2+y,z
1/2+x,-y,1/2+z
loop_
_atom_site_type_symbol
_atom_site_label
_atom_site_fract_x
_atom_site_fract_y
_atom_site_fract_z
Si Si1 0.325274 0.939998 0.679054
Si Si2 0.670056 0.735737 0.930842
Si Si3 0.830183 0.849886 0.603005
Si Si4 0.329919 0.483488 0.423314
Si Si5 0.829717 0.635928 0.946569
O O1 0.500000 0.939770 0.687596
O O2 0.250000 0.954644 0.750000
O O3 0.272534 0.881915 0.654762
O O4 0.278555 0.984834 0.625524
O O5 0.500000 0.725403 0.946249
O O6 0.690123 0.786742 0.881145
O O7 0.740789 0.680728 0.903201
O O8 0.750000 0.750000 0.000000
O O9 0.781424 0.864144 0.525882
O O10 0.000000 0.867214 0.614159
O O11 0.293831 0.500000 0.500000
O O12 0.500000 0.497132 0.405934
O O13 0.297455 0.421064 0.413368
O O14 0.000000 0.651474 0.941993
#
# Coordination Sequence:
#
# PCOD8262580 Si02
#       5
#    16  16  16  16  16
#     4  12  25  38  55  79 108 144 185 230 276 329
#     4   9  17  28  46  73 107 140 170 211 260 312
#     4   9  17  33  52  74 106 143 177 214 269 322
#     4  10  19  36  58  79 110 147 181 223 277 330
#     4   9  17  30  52  79 108 142 174 215 269 319
#
# _framework density 17.893892000000001
#
# number of rings (size 3 to 8) (size 9 to 14) (size 15 to 20)
#    0.000    2.200    2.000    3.600    0.000    5.200 
#    0.000    0.000    0.000    1.200    0.000    8.400 
#    0.000    0.000    0.000    0.000    0.000    0.000 
#
# Total GULP energy -495875.849380 kJ/mol
# GULP energy per Si atom -12396.896235 kJ/mol
# Density = 1.785316 g / cm^3
# Si number density = 17.893892 Si / 1000 Ang^3
#
#
#
# Elastic Constant Matrix: (Units=GPa)
#
#
# Indices 1 2 3 4 5 6 
#
# 1 115.6865 63.0817 42.5148 0.0000 0.0000 0.0000
# 2 63.0817 130.2188 37.5811 0.0000 0.0000 0.0000
# 3 42.5148 37.5811 55.2874 0.0000 0.0000 0.0000
# 4 0.0000 0.0000 0.0000 13.9153 0.0000 0.0000
# 5 0.0000 0.0000 0.0000 0.0000 24.1632 0.0000
# 6 0.0000 0.0000 0.0000 0.0000 0.0000 35.8593
#
#
#
# Elastic Compliance Matrix: (Units=1/GPa)
#
#
# Indices 1 2 3 4 5 6 
#
# 1 0.013922 -0.004546 -0.007615 0.000000 0.000000 0.000000
# 2 -0.004546 0.011038 -0.004007 0.000000 0.000000 0.000000
# 3 -0.007615 -0.004007 0.026667 0.000000 0.000000 0.000000
# 4 0.000000 0.000000 0.000000 0.071863 0.000000 0.000000
# 5 0.000000 0.000000 0.000000 0.000000 0.041385 0.000000
# 6 0.000000 0.000000 0.000000 0.000000 0.000000 0.027887
#
#
# Mechanical properties :
#
#
# Convention : Reuss Voigt Hill
#
# Bulk Modulus (GPa) = 51.84107 65.28309 58.56208
# Shear Modulus (GPa) = 21.59558 25.32190 23.45874
#
# Velocity S-wave (km/s) = 3.47777 3.76588 3.62469
# Velocity P-wave (km/s) = 6.72018 7.44794 7.09340
#
# Compressibility (1/GPa) = 0.01928972
#
# Stress axis : x y z
#
# Youngs Moduli (GPa) = 71.83082 90.59456 37.49965
#
# Poissons Ratio (x) = 0.41187 0.28556
# Poissons Ratio (y) = 0.32656 0.15026
# Poissons Ratio (z) = 0.54700 0.36302
#
# Static dielectric constant tensor:
#      x y z
#    x 3.409520 0.000000 0.000000 
#    y 0.000000 4.306930 0.000000 
#    z 0.000000 0.000000 3.170800 
# 
# 
# High freq. dielectric constant tensor:
#      x y z
#    x 1.693520 0.000000 0.000000 
#    y 0.000000 1.715060 0.000000 
#    z 0.000000 0.000000 1.636680 
# 
# From -- ./inp_files/29739.got.cif
#   From: 2010.03.12/outbox.cif.g09.slc.cpg/sg64_15_cif.got.tgz:29739.got - 2010.04.10 20:19:32.
