data_PCOD8262840
_publ_section_title
;
Structure prediction by ZEFSAII (Michael W. Deem and Ramdas Pophale) SiO2 
 PCOD8262840
Probable space group: C M C A
;
_chemical_formula_sum "Si O2"
_cell_formula_units_Z 80
_cell_length_a 9.047908
_cell_length_b 25.287430
_cell_length_c 18.521922
_cell_angle_alpha 90.000000
_cell_angle_beta 90.000000
_cell_angle_gamma 90.000000
_cell_volume 4237.785011
_symmetry_space_group_name_H-M "C M C A"
_symmetry_group_IT_number 64
_symmetry_cell_setting 'orthorhombic'
loop_
_space_group_symop_operation_xyz
x,y,z
-x,1/2-y,1/2+z
x,-y,-z
-x,1/2+y,1/2-z
-x,-y,-z
x,1/2+y,1/2-z
-x,y,z
x,1/2-y,1/2+z
1/2+x,1/2+y,z
1/2-x,-y,1/2+z
1/2+x,1/2-y,-z
1/2-x,y,1/2-z
1/2-x,1/2-y,-z
1/2+x,y,1/2-z
1/2-x,1/2+y,z
1/2+x,-y,1/2+z
loop_
_atom_site_type_symbol
_atom_site_label
_atom_site_fract_x
_atom_site_fract_y
_atom_site_fract_z
Si Si1 0.174361 0.605262 0.585587
Si Si2 0.325987 0.308313 0.324565
Si Si3 0.825729 0.501398 0.673194
Si Si4 0.825067 0.905453 0.923545
Si Si5 0.327431 0.812389 0.676783
O O1 0.260234 0.657177 0.611082
O O2 0.216580 0.556963 0.637346
O O3 0.233261 0.592087 0.505380
O O4 0.000000 0.616838 0.586031
O O5 0.500000 0.317753 0.317021
O O6 0.250000 0.325695 0.250000
O O7 0.286648 0.247703 0.343491
O O8 0.750000 0.496749 0.750000
O O9 0.762812 0.455002 0.621762
O O10 0.000000 0.495918 0.683950
O O11 0.772399 0.850463 0.887410
O O12 0.000000 0.909488 0.924846
O O13 0.500000 0.818945 0.690336
O O14 0.250000 0.830709 0.750000
#
# Coordination Sequence:
#
# PCOD8262840 Si02
#       5
#    16  16  16  16  16
#     4  10  20  34  53  76 103 135 168 204 249 300
#     4  10  20  34  52  75 102 133 170 209 249 295
#     4  10  20  34  54  77 100 130 169 209 249 298
#     4   9  18  34  54  75 101 133 168 206 251 302
#     4   9  18  33  53  75 100 132 170 210 250 295
#
# _framework density 18.877786
#
# number of rings (size 3 to 8) (size 9 to 14) (size 15 to 20)
#    0.000    2.400    0.000    2.400    0.000    6.400 
#    0.000    2.000    0.000    2.400    0.000    0.000 
#    0.000    0.000    0.000    0.000    0.000    0.000 
#
# Total GULP energy -496077.283203 kJ/mol
# GULP energy per Si atom -12401.932080 kJ/mol
# Density = 1.883482 g / cm^3
# Si number density = 18.877786 Si / 1000 Ang^3
#
#
#
# Elastic Constant Matrix: (Units=GPa)
#
#
# Indices 1 2 3 4 5 6 
#
# 1 34.4438 27.0952 26.8492 0.0000 0.0000 0.0000
# 2 27.0952 95.3485 47.7315 0.0000 0.0000 0.0000
# 3 26.8492 47.7315 119.5887 0.0000 0.0000 0.0000
# 4 0.0000 0.0000 0.0000 34.3956 0.0000 0.0000
# 5 0.0000 0.0000 0.0000 0.0000 29.6619 0.0000
# 6 0.0000 0.0000 0.0000 0.0000 0.0000 21.3552
#
#
#
# Elastic Compliance Matrix: (Units=1/GPa)
#
#
# Indices 1 2 3 4 5 6 
#
# 1 0.040161 -0.008621 -0.005576 0.000000 0.000000 0.000000
# 2 -0.008621 0.014957 -0.004034 0.000000 0.000000 0.000000
# 3 -0.005576 -0.004034 0.011224 0.000000 0.000000 0.000000
# 4 0.000000 0.000000 0.000000 0.029073 0.000000 0.000000
# 5 0.000000 0.000000 0.000000 0.000000 0.033713 0.000000
# 6 0.000000 0.000000 0.000000 0.000000 0.000000 0.046827
#
#
# Mechanical properties :
#
#
# Convention : Reuss Voigt Hill
#
# Bulk Modulus (GPa) = 33.46746 50.30363 41.88554
# Shear Modulus (GPa) = 22.48415 26.92954 24.70685
#
# Velocity S-wave (km/s) = 3.45488 3.78103 3.62163
# Velocity P-wave (km/s) = 5.80362 6.76509 6.30271
#
# Compressibility (1/GPa) = 0.02987977
#
# Stress axis : x y z
#
# Youngs Moduli (GPa) = 24.89972 66.85664 89.09472
#
# Poissons Ratio (x) = 0.57640 0.49676
# Poissons Ratio (y) = 0.21467 0.35944
# Poissons Ratio (z) = 0.13883 0.26972
#
# Static dielectric constant tensor:
#      x y z
#    x 3.198070 0.000000 0.000000 
#    y 0.000000 3.656740 0.000000 
#    z 0.000000 0.000000 3.593370 
# 
# 
# High freq. dielectric constant tensor:
#      x y z
#    x 1.705830 0.000000 0.000000 
#    y 0.000000 1.748090 0.000000 
#    z 0.000000 0.000000 1.738930 
# 
# From -- ./inp_files/22345.got.cif
#   From: 2010.03.12/outbox.cif.g09.slc.cpg/sg64_12_cif.got.tgz:22345.got - 2010.04.10 20:19:32.
