data_PCOD8262494
_publ_section_title
;
Structure prediction by ZEFSAII (Michael W. Deem and Ramdas Pophale) SiO2 
 PCOD8262494
Probable space group: C M C A
;
_chemical_formula_sum "Si O2"
_cell_formula_units_Z 104
_cell_length_a 23.046191
_cell_length_b 9.257853
_cell_length_c 25.871836
_cell_angle_alpha 90.000000
_cell_angle_beta 90.000000
_cell_angle_gamma 90.000000
_cell_volume 5519.969614
_symmetry_space_group_name_H-M "C M C A"
_symmetry_group_IT_number 64
_symmetry_cell_setting 'orthorhombic'
loop_
_space_group_symop_operation_xyz
x,y,z
-x,1/2-y,1/2+z
x,-y,-z
-x,1/2+y,1/2-z
-x,-y,-z
x,1/2+y,1/2-z
-x,y,z
x,1/2-y,1/2+z
1/2+x,1/2+y,z
1/2-x,-y,1/2+z
1/2+x,1/2-y,-z
1/2-x,y,1/2-z
1/2-x,1/2-y,-z
1/2+x,y,1/2-z
1/2-x,1/2+y,z
1/2+x,-y,1/2+z
loop_
_atom_site_type_symbol
_atom_site_label
_atom_site_fract_x
_atom_site_fract_y
_atom_site_fract_z
Si Si1 0.930531 0.072784 0.190277
Si Si2 0.864170 0.500000 0.500000
Si Si3 0.179427 0.506938 0.938706
Si Si4 0.434021 0.098936 0.592871
Si Si5 0.065664 0.074562 0.385167
Si Si6 0.067848 0.608973 0.785599
Si Si7 0.224868 0.802373 0.946713
O O1 0.909146 0.018805 0.133785
O O2 0.906159 0.960796 0.233307
O O3 0.000000 0.073689 0.191952
O O4 0.905085 0.233417 0.201379
O O5 0.902061 0.601602 0.537525
O O6 0.827600 0.590884 0.459168
O O7 0.112182 0.482612 0.926234
O O8 0.200416 0.662501 0.916252
O O9 0.223446 0.384885 0.915304
O O10 0.186255 0.500000 0.000000
O O11 0.500000 0.060200 0.580081
O O12 0.428887 0.253889 0.620296
O O13 0.000000 0.031047 0.402746
O O14 0.081444 0.004806 0.330570
O O15 0.000000 0.631731 0.778358
O O16 0.250000 0.750000 0.000000
#
# Coordination Sequence:
#
# PCOD8262494 Si02
#       7
#    16   8  16  16  16  16  16
#     4   9  17  31  51  74 106 145 185 222 269 329
#     4  12  21  34  56  76 111 142 190 234 266 326
#     4  10  20  35  54  77 106 141 190 232 271 318
#     4  10  21  34  50  77 114 155 182 218 277 336
#     4  10  21  35  52  80 116 147 179 221 283 337
#     4   9  17  31  51  76 106 141 181 227 270 329
#     4  10  19  35  54  75 100 138 190 237 269 305
#
# _framework density 18.840682999999999
#
# number of rings (size 3 to 8) (size 9 to 14) (size 15 to 20)
#    0.000    2.154    2.308    3.000    2.154    4.000 
#    0.000    0.769    0.000    0.000    0.000    1.077 
#    4.615    0.000    0.000    0.000    0.000    0.000 
#
# Total GULP energy -644420.559047 kJ/mol
# GULP energy per Si atom -12392.703059 kJ/mol
# Density = 1.879780 g / cm^3
# Si number density = 18.840683 Si / 1000 Ang^3
#
#
#
# Elastic Constant Matrix: (Units=GPa)
#
#
# Indices 1 2 3 4 5 6 
#
# 1 80.4381 40.8405 29.7599 0.0000 0.0000 0.0000
# 2 40.8405 113.6160 29.2370 0.0000 0.0000 0.0000
# 3 29.7599 29.2370 55.6917 0.0000 0.0000 0.0000
# 4 0.0000 0.0000 0.0000 26.2417 0.0000 0.0000
# 5 0.0000 0.0000 0.0000 0.0000 5.5553 0.0000
# 6 0.0000 0.0000 0.0000 0.0000 0.0000 21.9178
#
#
#
# Elastic Compliance Matrix: (Units=1/GPa)
#
#
# Indices 1 2 3 4 5 6 
#
# 1 0.017222 -0.004420 -0.006883 0.000000 0.000000 0.000000
# 2 -0.004420 0.011310 -0.003576 0.000000 0.000000 0.000000
# 3 -0.006883 -0.003576 0.023511 0.000000 0.000000 0.000000
# 4 0.000000 0.000000 0.000000 0.038107 0.000000 0.000000
# 5 0.000000 0.000000 0.000000 0.000000 0.180009 0.000000
# 6 0.000000 0.000000 0.000000 0.000000 0.000000 0.045625
#
#
# Mechanical properties :
#
#
# Convention : Reuss Voigt Hill
#
# Bulk Modulus (GPa) = 44.86905 49.93563 47.40234
# Shear Modulus (GPa) = 14.16544 20.73686 17.45115
#
# Velocity S-wave (km/s) = 2.74497 3.32119 3.04673
# Velocity P-wave (km/s) = 5.82350 6.42408 6.13115
#
# Compressibility (1/GPa) = 0.02228708
#
# Stress axis : x y z
#
# Youngs Moduli (GPa) = 58.06414 88.41361 42.53264
#
# Poissons Ratio (x) = 0.39075 0.29275
# Poissons Ratio (y) = 0.25662 0.15210
# Poissons Ratio (z) = 0.39965 0.31617
#
# Static dielectric constant tensor:
#      x y z
#    x 3.094290 0.000000 0.000000 
#    y 0.000000 4.046460 0.000000 
#    z 0.000000 0.000000 3.176850 
# 
# 
# High freq. dielectric constant tensor:
#      x y z
#    x 1.697610 0.000000 0.000000 
#    y 0.000000 1.753710 0.000000 
#    z 0.000000 0.000000 1.696820 
# 
# From -- ./inp_files/51027.got.cif
#   From: 2010.03.12/outbox.cif.g09.slc.cpg/sg64_26_cif.got.tgz:51027.got - 2010.04.10 20:19:32.
