data_PCOD8262112
_publ_section_title
;
Structure prediction by ZEFSAII (Michael W. Deem and Ramdas Pophale) SiO2 
 PCOD8262112
Probable space group: C M C A
;
_chemical_formula_sum "Si O2"
_cell_formula_units_Z 96
_cell_length_a 8.833385
_cell_length_b 20.150455
_cell_length_c 29.668851
_cell_angle_alpha 90.000000
_cell_angle_beta 90.000000
_cell_angle_gamma 90.000000
_cell_volume 5280.958370
_symmetry_space_group_name_H-M "C M C A"
_symmetry_group_IT_number 64
_symmetry_cell_setting 'orthorhombic'
loop_
_space_group_symop_operation_xyz
x,y,z
-x,1/2-y,1/2+z
x,-y,-z
-x,1/2+y,1/2-z
-x,-y,-z
x,1/2+y,1/2-z
-x,y,z
x,1/2-y,1/2+z
1/2+x,1/2+y,z
1/2-x,-y,1/2+z
1/2+x,1/2-y,-z
1/2-x,y,1/2-z
1/2-x,1/2-y,-z
1/2+x,y,1/2-z
1/2-x,1/2+y,z
1/2+x,-y,1/2+z
loop_
_atom_site_type_symbol
_atom_site_label
_atom_site_fract_x
_atom_site_fract_y
_atom_site_fract_z
Si Si1 0.178482 0.309706 0.972736
Si Si2 0.676917 0.606726 0.612831
Si Si3 0.670256 0.103783 0.705127
Si Si4 0.176138 0.237805 0.114289
Si Si5 0.829784 0.261582 0.794431
Si Si6 0.325945 0.429285 0.022887
O O1 0.232224 0.306024 0.921295
O O2 0.000000 0.303472 0.975837
O O3 0.250000 0.250000 0.000000
O O4 0.228093 0.378961 0.993609
O O5 0.500000 0.591151 0.610395
O O6 0.738266 0.581034 0.660876
O O7 0.709886 0.684682 0.606120
O O8 0.763039 0.567025 0.573718
O O9 0.500000 0.075567 0.702473
O O10 0.750000 0.074749 0.750000
O O11 0.667714 0.182657 0.707913
O O12 0.232655 0.214457 0.163058
O O13 0.000000 0.221962 0.109684
O O14 0.750000 0.290971 0.750000
O O15 0.000000 0.289620 0.797863
O O16 0.500000 0.405996 0.024118
O O17 0.307783 0.500000 0.000000
#
# Coordination Sequence:
#
# PCOD8262112 Si02
#       6
#    16  16  16  16  16  16
#     4  12  23  36  56  80 107 140 179 223 267 318
#     4  10  19  31  50  74 103 139 176 217 266 318
#     4   9  16  26  42  66  99 134 171 214 261 315
#     4  10  19  31  49  75 104 137 176 220 266 317
#     4   9  16  26  41  65  99 137 172 212 262 317
#     4  11  24  40  57  78 107 143 182 225 273 324
#
# _framework density 18.178519000000001
#
# number of rings (size 3 to 8) (size 9 to 14) (size 15 to 20)
#    0.000    1.833    1.667    4.000    0.000    6.667 
#    0.000    0.000    0.000    0.000    0.000    1.167 
#    0.000    8.000    0.000    0.000    0.000    0.000 
#
# Total GULP energy -595336.708997 kJ/mol
# GULP energy per Si atom -12402.848104 kJ/mol
# Density = 1.813714 g / cm^3
# Si number density = 18.178519 Si / 1000 Ang^3
#
#
#
# Elastic Constant Matrix: (Units=GPa)
#
#
# Indices 1 2 3 4 5 6 
#
# 1 160.1841 34.0495 76.9150 0.0000 0.0000 0.0000
# 2 34.0495 34.8267 33.4552 0.0000 0.0000 0.0000
# 3 76.9150 33.4552 168.8910 0.0000 0.0000 0.0000
# 4 0.0000 0.0000 0.0000 13.8898 0.0000 0.0000
# 5 0.0000 0.0000 0.0000 0.0000 41.9907 0.0000
# 6 0.0000 0.0000 0.0000 0.0000 0.0000 17.7411
#
#
#
# Elastic Compliance Matrix: (Units=1/GPa)
#
#
# Indices 1 2 3 4 5 6 
#
# 1 0.008881 -0.005925 -0.002871 0.000000 0.000000 0.000000
# 2 -0.005925 0.039414 -0.005109 0.000000 0.000000 0.000000
# 3 -0.002871 -0.005109 0.008240 0.000000 0.000000 0.000000
# 4 0.000000 0.000000 0.000000 0.071995 0.000000 0.000000
# 5 0.000000 0.000000 0.000000 0.000000 0.023815 0.000000
# 6 0.000000 0.000000 0.000000 0.000000 0.000000 0.056366
#
#
# Mechanical properties :
#
#
# Convention : Reuss Voigt Hill
#
# Bulk Modulus (GPa) = 34.81195 72.52681 53.66938
# Shear Modulus (GPa) = 20.31723 29.35645 24.83684
#
# Velocity S-wave (km/s) = 3.34675 4.02294 3.70032
# Velocity P-wave (km/s) = 5.84174 7.84617 6.91695
#
# Compressibility (1/GPa) = 0.02872577
#
# Stress axis : x y z
#
# Youngs Moduli (GPa) = 112.60440 25.37154 121.35303
#
# Poissons Ratio (x) = 0.15032 0.34837
# Poissons Ratio (y) = 0.66716 0.62002
# Poissons Ratio (z) = 0.32326 0.12963
#
# Static dielectric constant tensor:
#      x y z
#    x 3.610250 0.000000 0.000000 
#    y 0.000000 2.470300 0.000000 
#    z 0.000000 0.000000 3.586550 
# 
# 
# High freq. dielectric constant tensor:
#      x y z
#    x 1.727130 0.000000 0.000000 
#    y 0.000000 1.631670 0.000000 
#    z 0.000000 0.000000 1.726780 
# 
# From -- ./inp_files/48062.got.cif
#   From: 2010.03.12/outbox.cif.g09.slc.cpg/sg64_25_cif.got.tgz:48062.got - 2010.04.10 20:19:32.
