data_PCOD8262625
_publ_section_title
;
Structure prediction by ZEFSAII (Michael W. Deem and Ramdas Pophale) SiO2 
 PCOD8262625
Probable space group: C M C A
;
_chemical_formula_sum "Si O2"
_cell_formula_units_Z 88
_cell_length_a 16.687619
_cell_length_b 17.218616
_cell_length_c 15.522134
_cell_angle_alpha 90.000000
_cell_angle_beta 90.000000
_cell_angle_gamma 90.000000
_cell_volume 4460.094337
_symmetry_space_group_name_H-M "C M C A"
_symmetry_group_IT_number 64
_symmetry_cell_setting 'orthorhombic'
loop_
_space_group_symop_operation_xyz
x,y,z
-x,1/2-y,1/2+z
x,-y,-z
-x,1/2+y,1/2-z
-x,-y,-z
x,1/2+y,1/2-z
-x,y,z
x,1/2-y,1/2+z
1/2+x,1/2+y,z
1/2-x,-y,1/2+z
1/2+x,1/2-y,-z
1/2-x,y,1/2-z
1/2-x,1/2-y,-z
1/2+x,y,1/2-z
1/2-x,1/2+y,z
1/2+x,-y,1/2+z
loop_
_atom_site_type_symbol
_atom_site_label
_atom_site_fract_x
_atom_site_fract_y
_atom_site_fract_z
Si Si1 0.327942 0.272919 0.446145
Si Si2 0.000000 0.580517 0.451329
Si Si3 0.000000 0.237125 0.970934
Si Si4 0.000000 0.493909 0.898447
Si Si5 0.872297 0.857914 0.824092
Si Si6 0.000000 0.828056 0.691182
Si Si7 0.669553 0.951956 0.090411
Si Si8 0.250000 0.473997 0.750000
O O1 0.250000 0.250000 0.500000
O O2 0.417261 0.269473 0.487528
O O3 0.323564 0.212656 0.366893
O O4 0.313941 0.361716 0.421920
O O5 0.000000 0.500000 0.500000
O O6 0.000000 0.644714 0.525588
O O7 0.078312 0.591743 0.393239
O O8 0.000000 0.255151 0.871080
O O9 0.081095 0.536236 0.868064
O O10 0.000000 0.405958 0.865704
O O11 0.000000 0.500000 0.000000
O O12 0.822609 0.919129 0.771677
O O13 0.924649 0.817337 0.751767
O O14 0.732048 0.976988 0.163921
O O15 0.681196 0.000000 0.000000
#
# Coordination Sequence:
#
# PCOD8262625 Si02
#       8
#    16   8   8   8  16   8  16   8
#     4  11  24  44  68  95 133 178 224 275 336 401
#     4   9  21  45  64  86 119 172 220 263 322 392
#     4  10  22  41  67  96 123 177 227 261 328 404
#     4  10  19  36  67  92 122 164 219 271 323 387
#     4  10  24  40  62  92 132 168 214 273 331 403
#     4  11  20  42  65  94 130 175 210 275 347 382
#     4  11  23  41  66  98 128 170 227 276 327 401
#     4  12  24  40  64  96 134 170 214 274 338 392
#
# _framework density 19.730525
#
# number of rings (size 3 to 8) (size 9 to 14) (size 15 to 20)
#    0.000    1.455    1.818    4.364    2.545    4.364 
#    3.273    0.000    0.000    0.000    0.000    0.000 
#    0.000    0.000    0.000    0.000    0.000    0.000 
#
# Total GULP energy -545226.165972 kJ/mol
# GULP energy per Si atom -12391.503772 kJ/mol
# Density = 1.968562 g / cm^3
# Si number density = 19.730525 Si / 1000 Ang^3
#
#
#
# Elastic Constant Matrix: (Units=GPa)
#
#
# Indices 1 2 3 4 5 6 
#
# 1 106.8748 32.9182 41.6575 0.0000 0.0000 0.0000
# 2 32.9182 140.1004 63.3881 0.0000 0.0000 0.0000
# 3 41.6575 63.3881 125.6900 0.0000 0.0000 0.0000
# 4 0.0000 0.0000 0.0000 36.7892 0.0000 0.0000
# 5 0.0000 0.0000 0.0000 0.0000 39.0461 0.0000
# 6 0.0000 0.0000 0.0000 0.0000 0.0000 16.7253
#
#
#
# Elastic Compliance Matrix: (Units=1/GPa)
#
#
# Indices 1 2 3 4 5 6 
#
# 1 0.010898 -0.001200 -0.003007 0.000000 0.000000 0.000000
# 2 -0.001200 0.009380 -0.004333 0.000000 0.000000 0.000000
# 3 -0.003007 -0.004333 0.011138 0.000000 0.000000 0.000000
# 4 0.000000 0.000000 0.000000 0.027182 0.000000 0.000000
# 5 0.000000 0.000000 0.000000 0.000000 0.025611 0.000000
# 6 0.000000 0.000000 0.000000 0.000000 0.000000 0.059790
#
#
# Mechanical properties :
#
#
# Convention : Reuss Voigt Hill
#
# Bulk Modulus (GPa) = 69.75146 72.06586 70.90866
# Shear Modulus (GPa) = 30.14643 34.15888 32.15265
#
# Velocity S-wave (km/s) = 3.91309 4.16537 4.04120
# Velocity P-wave (km/s) = 7.47296 7.72904 7.60208
#
# Compressibility (1/GPa) = 0.01433662
#
# Stress axis : x y z
#
# Youngs Moduli (GPa) = 91.75653 106.60841 89.78506
#
# Poissons Ratio (x) = 0.12796 0.26996
# Poissons Ratio (y) = 0.11014 0.38902
# Poissons Ratio (z) = 0.27589 0.46191
#
# Static dielectric constant tensor:
#      x y z
#    x 3.355590 0.000000 0.000000 
#    y 0.000000 3.498040 0.000000 
#    z 0.000000 0.000000 3.654820 
# 
# 
# High freq. dielectric constant tensor:
#      x y z
#    x 1.783530 0.000000 0.000000 
#    y 0.000000 1.771470 0.000000 
#    z 0.000000 0.000000 1.770530 
# 
# From -- ./inp_files/25472.got.cif
#   From: 2010.03.12/outbox.cif.g09.slc.cpg/sg64_13_cif.got.tgz:25472.got - 2010.04.10 20:19:32.
