data_PCOD8262289
_publ_section_title
;
Structure prediction by ZEFSAII (Michael W. Deem and Ramdas Pophale) SiO2 
 PCOD8262289
Probable space group: C M C A
;
_chemical_formula_sum "Si O2"
_cell_formula_units_Z 96
_cell_length_a 8.905057
_cell_length_b 23.519388
_cell_length_c 25.734392
_cell_angle_alpha 90.000000
_cell_angle_beta 90.000000
_cell_angle_gamma 90.000000
_cell_volume 5389.849424
_symmetry_space_group_name_H-M "C M C A"
_symmetry_group_IT_number 64
_symmetry_cell_setting 'orthorhombic'
loop_
_space_group_symop_operation_xyz
x,y,z
-x,1/2-y,1/2+z
x,-y,-z
-x,1/2+y,1/2-z
-x,-y,-z
x,1/2+y,1/2-z
-x,y,z
x,1/2-y,1/2+z
1/2+x,1/2+y,z
1/2-x,-y,1/2+z
1/2+x,1/2-y,-z
1/2-x,y,1/2-z
1/2-x,1/2-y,-z
1/2+x,y,1/2-z
1/2-x,1/2+y,z
1/2+x,-y,1/2+z
loop_
_atom_site_type_symbol
_atom_site_label
_atom_site_fract_x
_atom_site_fract_y
_atom_site_fract_z
Si Si1 0.677724 0.247155 0.056856
Si Si2 0.677882 0.364052 0.902388
Si Si3 0.676596 0.935154 0.696726
Si Si4 0.677527 0.435206 0.196462
Si Si5 0.177522 0.131854 0.902534
Si Si6 0.321286 0.563293 0.999944
O O1 0.500000 0.242860 0.049334
O O2 0.738683 0.195531 0.091139
O O3 0.723416 0.302688 0.090086
O O4 0.750000 0.250000 0.000000
O O5 0.500000 0.353814 0.904217
O O6 0.730246 0.393264 0.848905
O O7 0.732028 0.405179 0.948295
O O8 0.500000 0.932025 0.703503
O O9 0.750000 0.913624 0.750000
O O10 0.725856 0.999862 0.683750
O O11 0.500000 0.430234 0.201757
O O12 0.750000 0.414178 0.250000
O O13 0.740915 0.394016 0.151207
O O14 0.245791 0.096226 0.950452
O O15 0.000000 0.124460 0.902937
O O16 0.500000 0.561476 0.997569
O O17 0.254150 0.500000 0.000000
#
# Coordination Sequence:
#
# PCOD8262289 Si02
#       6
#    16  16  16  16  16  16
#     4  11  21  35  53  74 102 139 174 211 257 308
#     4  10  19  33  52  77 103 131 173 215 254 303
#     4   9  18  32  53  78 104 133 167 209 255 305
#     4   9  17  32  53  77 102 131 167 208 255 303
#     4   9  17  30  49  73  99 129 168 207 246 299
#     4   9  15  25  47  76 100 123 159 209 255 298
#
# _framework density 17.811257999999999
#
# number of rings (size 3 to 8) (size 9 to 14) (size 15 to 20)
#    0.000    2.500    1.667    1.500    0.000    4.667 
#    0.000    2.500    0.000    4.500    0.000    0.000 
#    0.000    0.000    0.000    0.000    0.000    0.000 
#
# Total GULP energy -595151.070358 kJ/mol
# GULP energy per Si atom -12398.980632 kJ/mol
# Density = 1.777072 g / cm^3
# Si number density = 17.811258 Si / 1000 Ang^3
#
#
#
# Elastic Constant Matrix: (Units=GPa)
#
#
# Indices 1 2 3 4 5 6 
#
# 1 27.0644 33.9180 34.8931 0.0000 0.0000 0.0000
# 2 33.9180 161.4295 102.4366 0.0000 0.0000 0.0000
# 3 34.8931 102.4366 181.8903 0.0000 0.0000 0.0000
# 4 0.0000 0.0000 0.0000 31.4721 0.0000 0.0000
# 5 0.0000 0.0000 0.0000 0.0000 27.1652 0.0000
# 6 0.0000 0.0000 0.0000 0.0000 0.0000 22.9541
#
#
#
# Elastic Compliance Matrix: (Units=1/GPa)
#
#
# Indices 1 2 3 4 5 6 
#
# 1 0.054323 -0.007471 -0.006214 0.000000 0.000000 0.000000
# 2 -0.007471 0.010667 -0.004574 0.000000 0.000000 0.000000
# 3 -0.006214 -0.004574 0.009266 0.000000 0.000000 0.000000
# 4 0.000000 0.000000 0.000000 0.031774 0.000000 0.000000
# 5 0.000000 0.000000 0.000000 0.000000 0.036812 0.000000
# 6 0.000000 0.000000 0.000000 0.000000 0.000000 0.043565
#
#
# Mechanical properties :
#
#
# Convention : Reuss Voigt Hill
#
# Bulk Modulus (GPa) = 26.49838 79.20883 52.85360
# Shear Modulus (GPa) = 21.23111 29.59405 25.41258
#
# Velocity S-wave (km/s) = 3.45629 4.08062 3.78136
# Velocity P-wave (km/s) = 5.55315 8.17127 6.98596
#
# Compressibility (1/GPa) = 0.03773816
#
# Stress axis : x y z
#
# Youngs Moduli (GPa) = 18.40853 93.74740 107.92227
#
# Poissons Ratio (x) = 0.70037 0.67059
# Poissons Ratio (y) = 0.13753 0.49366
# Poissons Ratio (z) = 0.11438 0.42882
#
# Static dielectric constant tensor:
#      x y z
#    x 2.940350 0.000000 0.000000 
#    y 0.000000 3.471290 0.000000 
#    z 0.000000 0.000000 3.450220 
# 
# 
# High freq. dielectric constant tensor:
#      x y z
#    x 1.651930 0.000000 0.000000 
#    y 0.000000 1.693370 0.000000 
#    z 0.000000 0.000000 1.695160 
# 
# From -- ./inp_files/43006.got.cif
#   From: 2010.03.12/outbox.cif.g09.slc.cpg/sg64_22_cif.got.tgz:43006.got - 2010.04.10 20:19:32.
