data_PCOD8262677
_publ_section_title
;
Structure prediction by ZEFSAII (Michael W. Deem and Ramdas Pophale) SiO2 
 PCOD8262677
Probable space group: C M C A
;
_chemical_formula_sum "Si O2"
_cell_formula_units_Z 64
_cell_length_a 17.719766
_cell_length_b 18.974998
_cell_length_c 9.267809
_cell_angle_alpha 90.000000
_cell_angle_beta 90.000000
_cell_angle_gamma 90.000000
_cell_volume 3116.138816
_symmetry_space_group_name_H-M "C M C A"
_symmetry_group_IT_number 64
_symmetry_cell_setting 'orthorhombic'
loop_
_space_group_symop_operation_xyz
x,y,z
-x,1/2-y,1/2+z
x,-y,-z
-x,1/2+y,1/2-z
-x,-y,-z
x,1/2+y,1/2-z
-x,y,z
x,1/2-y,1/2+z
1/2+x,1/2+y,z
1/2-x,-y,1/2+z
1/2+x,1/2-y,-z
1/2-x,y,1/2-z
1/2-x,1/2-y,-z
1/2+x,y,1/2-z
1/2-x,1/2+y,z
1/2+x,-y,1/2+z
loop_
_atom_site_type_symbol
_atom_site_label
_atom_site_fract_x
_atom_site_fract_y
_atom_site_fract_z
Si Si1 0.412925 0.945865 0.130145
Si Si2 0.589794 0.670128 0.167891
Si Si3 0.180072 0.469108 0.651572
Si Si4 0.910518 0.696409 0.009359
O O1 0.500000 0.940189 0.175887
O O2 0.367352 0.970148 0.269568
O O3 0.379819 0.870367 0.080756
O O4 0.402479 0.000000 0.000000
O O5 0.500000 0.659990 0.162822
O O6 0.627490 0.597671 0.119764
O O7 0.618003 0.691642 0.326973
O O8 0.618368 0.730977 0.059963
O O9 0.209711 0.500000 0.500000
O O10 0.250000 0.445758 0.750000
O O11 0.000000 0.693445 0.005648
#
# Coordination Sequence:
#
# PCOD8262677 Si02
#       4
#    16  16  16  16
#     4  10  19  38  67  93 121 162 205 254 315 373
#     4  10  21  40  65  95 127 160 202 255 312 375
#     4  12  27  43  61  88 124 170 215 265 309 366
#     4   9  19  35  62  95 126 158 197 252 310 367
#
# _framework density 20.538238
#
# number of rings (size 3 to 8) (size 9 to 14) (size 15 to 20)
#    0.000    1.750    2.500    1.500    3.500    2.000 
#    0.000    2.500    0.000    0.000    0.000    0.000 
#    0.000    0.000    0.000    0.000    0.000    0.000 
#
# Total GULP energy -396900.697894 kJ/mol
# GULP energy per Si atom -12403.146809 kJ/mol
# Density = 2.049149 g / cm^3
# Si number density = 20.538238 Si / 1000 Ang^3
#
#
#
# Elastic Constant Matrix: (Units=GPa)
#
#
# Indices 1 2 3 4 5 6 
#
# 1 48.3103 23.1778 20.9061 0.0000 0.0000 0.0000
# 2 23.1778 130.6803 47.6144 0.0000 0.0000 0.0000
# 3 20.9061 47.6144 97.8444 0.0000 0.0000 0.0000
# 4 0.0000 0.0000 0.0000 38.6279 0.0000 0.0000
# 5 0.0000 0.0000 0.0000 0.0000 26.5351 0.0000
# 6 0.0000 0.0000 0.0000 0.0000 0.0000 6.6002
#
#
#
# Elastic Compliance Matrix: (Units=1/GPa)
#
#
# Indices 1 2 3 4 5 6 
#
# 1 0.023657 -0.002862 -0.003662 0.000000 0.000000 0.000000
# 2 -0.002862 0.009648 -0.004083 0.000000 0.000000 0.000000
# 3 -0.003662 -0.004083 0.012990 0.000000 0.000000 0.000000
# 4 0.000000 0.000000 0.000000 0.025888 0.000000 0.000000
# 5 0.000000 0.000000 0.000000 0.000000 0.037686 0.000000
# 6 0.000000 0.000000 0.000000 0.000000 0.000000 0.151511
#
#
# Mechanical properties :
#
#
# Convention : Reuss Voigt Hill
#
# Bulk Modulus (GPa) = 39.87189 51.13686 45.50437
# Shear Modulus (GPa) = 17.18480 26.69509 21.93995
#
# Velocity S-wave (km/s) = 2.89575 3.60915 3.27195
# Velocity P-wave (km/s) = 5.53499 6.50541 6.03972
#
# Compressibility (1/GPa) = 0.02508033
#
# Stress axis : x y z
#
# Youngs Moduli (GPa) = 42.27043 103.65242 76.98254
#
# Poissons Ratio (x) = 0.29661 0.28193
# Poissons Ratio (y) = 0.12096 0.31435
# Poissons Ratio (z) = 0.15480 0.42326
#
# Static dielectric constant tensor:
#      x y z
#    x 3.419020 0.000000 0.000000 
#    y 0.000000 3.920840 0.000000 
#    z 0.000000 0.000000 3.815190 
# 
# 
# High freq. dielectric constant tensor:
#      x y z
#    x 1.770810 0.000000 0.000000 
#    y 0.000000 1.813550 0.000000 
#    z 0.000000 0.000000 1.807800 
# 
# From -- ./inp_files/6571.got.cif
#   From: 2010.03.12/outbox.cif.g09.slc.cpg/sg64_4_cif.got.tgz:6571.got - 2010.04.10 20:19:32.
