data_PCOD8262119
_publ_section_title
;
Structure prediction by ZEFSAII (Michael W. Deem and Ramdas Pophale) SiO2 
 PCOD8262119
Probable space group: C M C A
;
_chemical_formula_sum "Si O2"
_cell_formula_units_Z 64
_cell_length_a 8.842467
_cell_length_b 19.258376
_cell_length_c 22.953967
_cell_angle_alpha 90.000000
_cell_angle_beta 90.000000
_cell_angle_gamma 90.000000
_cell_volume 3908.866717
_symmetry_space_group_name_H-M "C M C A"
_symmetry_group_IT_number 64
_symmetry_cell_setting 'orthorhombic'
loop_
_space_group_symop_operation_xyz
x,y,z
-x,1/2-y,1/2+z
x,-y,-z
-x,1/2+y,1/2-z
-x,-y,-z
x,1/2+y,1/2-z
-x,y,z
x,1/2-y,1/2+z
1/2+x,1/2+y,z
1/2-x,-y,1/2+z
1/2+x,1/2-y,-z
1/2-x,y,1/2-z
1/2-x,1/2-y,-z
1/2+x,y,1/2-z
1/2-x,1/2+y,z
1/2+x,-y,1/2+z
loop_
_atom_site_type_symbol
_atom_site_label
_atom_site_fract_x
_atom_site_fract_y
_atom_site_fract_z
Si Si1 0.171739 0.003366 0.808999
Si Si2 0.328225 0.055962 0.571762
Si Si3 0.321509 0.577593 0.402208
Si Si4 0.320861 0.676223 0.012284
O O1 0.250000 0.029031 0.750000
O O2 0.179997 0.065422 0.857377
O O3 0.000000 0.982149 0.795374
O O4 0.258056 0.936194 0.836696
O O5 0.500000 0.040083 0.552335
O O6 0.268695 0.125043 0.540232
O O7 0.229461 0.987157 0.555944
O O8 0.500000 0.585698 0.401010
O O9 0.246388 0.647488 0.427192
O O10 0.500000 0.682845 0.016791
O O11 0.250000 0.750000 0.000000
#
# Coordination Sequence:
#
# PCOD8262119 Si02
#       4
#    16  16  16  16
#     4   9  17  31  50  75  99 126 161 204 247 287
#     4   8  18  33  50  70 100 131 160 202 249 290
#     4  10  19  31  50  75 100 129 164 204 244 291
#     4  11  21  34  49  71 102 135 166 203 249 297
#
# _framework density 16.373031999999998
#
# number of rings (size 3 to 8) (size 9 to 14) (size 15 to 20)
#    1.500    1.000    0.000    3.750    0.000    5.000 
#    0.000    0.000    0.000    1.500    0.000    7.000 
#    0.000    0.000    0.000    0.000    0.000    0.000 
#
# Total GULP energy -396420.500065 kJ/mol
# GULP energy per Si atom -12388.140627 kJ/mol
# Density = 1.633577 g / cm^3
# Si number density = 16.373032 Si / 1000 Ang^3
#
#
#
# Elastic Constant Matrix: (Units=GPa)
#
#
# Indices 1 2 3 4 5 6 
#
# 1 106.7277 33.5684 21.8273 0.0000 0.0000 0.0000
# 2 33.5684 82.4913 23.1261 0.0000 0.0000 0.0000
# 3 21.8273 23.1261 65.5134 0.0000 0.0000 0.0000
# 4 0.0000 0.0000 0.0000 12.6156 0.0000 0.0000
# 5 0.0000 0.0000 0.0000 0.0000 27.6519 0.0000
# 6 0.0000 0.0000 0.0000 0.0000 0.0000 26.6184
#
#
#
# Elastic Compliance Matrix: (Units=1/GPa)
#
#
# Indices 1 2 3 4 5 6 
#
# 1 0.011055 -0.003847 -0.002325 0.000000 0.000000 0.000000
# 2 -0.003847 0.014792 -0.003940 0.000000 0.000000 0.000000
# 3 -0.002325 -0.003940 0.017430 0.000000 0.000000 0.000000
# 4 0.000000 0.000000 0.000000 0.079267 0.000000 0.000000
# 5 0.000000 0.000000 0.000000 0.000000 0.036164 0.000000
# 6 0.000000 0.000000 0.000000 0.000000 0.000000 0.037568
#
#
# Mechanical properties :
#
#
# Convention : Reuss Voigt Hill
#
# Bulk Modulus (GPa) = 43.37869 45.75289 44.56579
# Shear Modulus (GPa) = 22.30307 25.12457 23.71382
#
# Velocity S-wave (km/s) = 3.69478 3.92153 3.80984
# Velocity P-wave (km/s) = 6.68980 6.96486 6.82871
#
# Compressibility (1/GPa) = 0.02305279
#
# Stress axis : x y z
#
# Youngs Moduli (GPa) = 90.45589 67.60207 57.37358
#
# Poissons Ratio (x) = 0.26005 0.13341
# Poissons Ratio (y) = 0.34796 0.22606
# Poissons Ratio (z) = 0.21034 0.26636
#
# Static dielectric constant tensor:
#      x y z
#    x 3.077920 0.000000 0.000000 
#    y 0.000000 2.816440 0.000000 
#    z 0.000000 0.000000 3.084560 
# 
# 
# High freq. dielectric constant tensor:
#      x y z
#    x 1.642650 0.000000 0.000000 
#    y 0.000000 1.588480 0.000000 
#    z 0.000000 0.000000 1.624060 
# 
# From -- ./inp_files/36280.got.cif
#   From: 2010.03.12/outbox.cif.g09.slc.cpg/sg64_19_cif.got.tgz:36280.got - 2010.04.10 20:19:32.
