data_PCOD8262533
_publ_section_title
;
Structure prediction by ZEFSAII (Michael W. Deem and Ramdas Pophale) SiO2 
 PCOD8262533
Probable space group: C M C A
;
_chemical_formula_sum "Si O2"
_cell_formula_units_Z 96
_cell_length_a 8.864918
_cell_length_b 20.068128
_cell_length_c 27.849221
_cell_angle_alpha 90.000000
_cell_angle_beta 90.000000
_cell_angle_gamma 90.000000
_cell_volume 4954.440723
_symmetry_space_group_name_H-M "C M C A"
_symmetry_group_IT_number 64
_symmetry_cell_setting 'orthorhombic'
loop_
_space_group_symop_operation_xyz
x,y,z
-x,1/2-y,1/2+z
x,-y,-z
-x,1/2+y,1/2-z
-x,-y,-z
x,1/2+y,1/2-z
-x,y,z
x,1/2-y,1/2+z
1/2+x,1/2+y,z
1/2-x,-y,1/2+z
1/2+x,1/2-y,-z
1/2-x,y,1/2-z
1/2-x,1/2-y,-z
1/2+x,y,1/2-z
1/2-x,1/2+y,z
1/2+x,-y,1/2+z
loop_
_atom_site_type_symbol
_atom_site_label
_atom_site_fract_x
_atom_site_fract_y
_atom_site_fract_z
Si Si1 0.175229 0.397491 0.950397
Si Si2 0.177298 0.736201 0.104899
Si Si3 0.321622 0.296372 0.798956
Si Si4 0.823095 0.449140 0.701870
Si Si5 0.321770 0.014979 0.603663
Si Si6 0.822804 0.139732 0.558552
O O1 0.217662 0.335764 0.916575
O O2 0.273791 0.460806 0.935722
O O3 0.000000 0.416609 0.945846
O O4 0.218690 0.380247 0.004601
O O5 0.254875 0.744992 0.156650
O O6 0.242347 0.790632 0.068739
O O7 0.000000 0.746497 0.110257
O O8 0.500000 0.287473 0.797344
O O9 0.250000 0.267541 0.750000
O O10 0.270819 0.372998 0.805412
O O11 0.750000 0.479544 0.750000
O O12 0.768244 0.491145 0.656212
O O13 0.000000 0.453068 0.708170
O O14 0.500000 0.025082 0.600856
O O15 0.239250 0.084407 0.594809
O O16 0.000000 0.148266 0.565984
#
# Coordination Sequence:
#
# PCOD8262533 Si02
#       6
#    16  16  16  16  16  16
#     4  10  22  39  60  85 114 151 197 241 287 343
#     4  11  22  38  60  87 116 152 194 240 290 344
#     4  10  19  35  58  87 117 149 188 236 287 339
#     4   9  19  34  56  85 114 145 185 232 281 335
#     4  11  22  38  59  87 118 151 192 238 288 345
#     4  11  24  40  57  82 118 157 194 239 291 345
#
# _framework density 19.376556000000001
#
# number of rings (size 3 to 8) (size 9 to 14) (size 15 to 20)
#    0.000    1.667    1.667    3.000    0.000    6.000 
#    0.000    0.833    0.000    2.000    0.000    0.000 
#    0.000    0.000    0.000    0.000    0.000    0.000 
#
# Total GULP energy -595481.850584 kJ/mol
# GULP energy per Si atom -12405.871887 kJ/mol
# Density = 1.933245 g / cm^3
# Si number density = 19.376556 Si / 1000 Ang^3
#
#
#
# Elastic Constant Matrix: (Units=GPa)
#
#
# Indices 1 2 3 4 5 6 
#
# 1 67.6528 20.8539 31.4469 0.0000 0.0000 0.0000
# 2 20.8539 39.6881 9.1001 0.0000 0.0000 0.0000
# 3 31.4469 9.1001 105.8845 0.0000 0.0000 0.0000
# 4 0.0000 0.0000 0.0000 10.6708 0.0000 0.0000
# 5 0.0000 0.0000 0.0000 0.0000 36.2519 0.0000
# 6 0.0000 0.0000 0.0000 0.0000 0.0000 33.2269
#
#
#
# Elastic Compliance Matrix: (Units=1/GPa)
#
#
# Indices 1 2 3 4 5 6 
#
# 1 0.020062 -0.009360 -0.005154 0.000000 0.000000 0.000000
# 2 -0.009360 0.030070 0.000195 0.000000 0.000000 0.000000
# 3 -0.005154 0.000195 0.010958 0.000000 0.000000 0.000000
# 4 0.000000 0.000000 0.000000 0.093714 0.000000 0.000000
# 5 0.000000 0.000000 0.000000 0.000000 0.027585 0.000000
# 6 0.000000 0.000000 0.000000 0.000000 0.000000 0.030096
#
#
# Mechanical properties :
#
#
# Convention : Reuss Voigt Hill
#
# Bulk Modulus (GPa) = 30.81327 37.33635 34.07481
# Shear Modulus (GPa) = 19.84609 26.15155 22.99882
#
# Velocity S-wave (km/s) = 3.20383 3.67774 3.44894
# Velocity P-wave (km/s) = 5.44270 6.11106 5.78654
#
# Compressibility (1/GPa) = 0.03245355
#
# Stress axis : x y z
#
# Youngs Moduli (GPa) = 49.84498 33.25606 91.25651
#
# Poissons Ratio (x) = 0.31127 0.47033
# Poissons Ratio (y) = 0.46654 -0.01784
# Poissons Ratio (z) = 0.25690 -0.00650
#
# Static dielectric constant tensor:
#      x y z
#    x 3.499760 0.000000 0.000000 
#    y 0.000000 3.400090 0.000000 
#    z 0.000000 0.000000 3.717130 
# 
# 
# High freq. dielectric constant tensor:
#      x y z
#    x 1.760570 0.000000 0.000000 
#    y 0.000000 1.737360 0.000000 
#    z 0.000000 0.000000 1.768920 
# 
# From -- ./inp_files/48065.got.cif
#   From: 2010.03.12/outbox.cif.g09.slc.cpg/sg64_25_cif.got.tgz:48065.got - 2010.04.10 20:19:32.
