data_PCOD8262039
_publ_section_title
;
Structure prediction by ZEFSAII (Michael W. Deem and Ramdas Pophale) SiO2 
 PCOD8262039
Probable space group: C M C A
;
_chemical_formula_sum "Si O2"
_cell_formula_units_Z 80
_cell_length_a 13.958859
_cell_length_b 24.054709
_cell_length_c 13.376264
_cell_angle_alpha 90.000000
_cell_angle_beta 90.000000
_cell_angle_gamma 90.000000
_cell_volume 4491.432316
_symmetry_space_group_name_H-M "C M C A"
_symmetry_group_IT_number 64
_symmetry_cell_setting 'orthorhombic'
loop_
_space_group_symop_operation_xyz
x,y,z
-x,1/2-y,1/2+z
x,-y,-z
-x,1/2+y,1/2-z
-x,-y,-z
x,1/2+y,1/2-z
-x,y,z
x,1/2-y,1/2+z
1/2+x,1/2+y,z
1/2-x,-y,1/2+z
1/2+x,1/2-y,-z
1/2-x,y,1/2-z
1/2-x,1/2-y,-z
1/2+x,y,1/2-z
1/2-x,1/2+y,z
1/2+x,-y,1/2+z
loop_
_atom_site_type_symbol
_atom_site_label
_atom_site_fract_x
_atom_site_fract_y
_atom_site_fract_z
Si Si1 0.773748 0.828732 0.969607
Si Si2 0.890240 0.246058 0.419303
Si Si3 0.891185 0.437230 0.771563
Si Si4 0.271068 0.953459 0.581933
Si Si5 0.606569 0.186495 0.278353
O O1 0.668570 0.801389 0.980306
O O2 0.769451 0.894930 0.976382
O O3 0.814675 0.806968 0.863384
O O4 0.844033 0.806282 0.056819
O O5 0.883608 0.236573 0.300224
O O6 0.000000 0.243368 0.456057
O O7 0.827994 0.464683 0.858998
O O8 0.857880 0.455654 0.661082
O O9 0.877076 0.370947 0.782233
O O10 0.000000 0.456513 0.787044
O O11 0.288157 0.000000 0.500000
O O12 0.500000 0.185727 0.326451
#
# Coordination Sequence:
#
# PCOD8262039 Si02
#       5
#    16  16  16  16  16
#     4  10  19  32  51  77 105 135 171 215 261 303
#     4  10  19  30  50  77 104 132 170 214 256 307
#     4   9  18  34  55  79 104 135 180 223 261 312
#     4  10  20  34  56  81 107 141 179 220 265 315
#     4   9  16  30  53  76 100 131 169 212 256 306
#
# _framework density 17.811691
#
# number of rings (size 3 to 8) (size 9 to 14) (size 15 to 20)
#    0.000    2.400    2.000    1.200    0.000    1.600 
#    0.000    0.000   17.600    0.000    0.000    0.000 
#    0.000    0.000    0.000    0.000    0.000    0.000 
#
# Total GULP energy -495960.316572 kJ/mol
# GULP energy per Si atom -12399.007914 kJ/mol
# Density = 1.777115 g / cm^3
# Si number density = 17.811691 Si / 1000 Ang^3
#
#
#
# Elastic Constant Matrix: (Units=GPa)
#
#
# Indices 1 2 3 4 5 6 
#
# 1 122.1665 33.0065 23.6741 0.0000 0.0000 0.0000
# 2 33.0065 97.0818 48.4177 0.0000 0.0000 0.0000
# 3 23.6741 48.4177 66.1522 0.0000 0.0000 0.0000
# 4 0.0000 0.0000 0.0000 35.0243 0.0000 0.0000
# 5 0.0000 0.0000 0.0000 0.0000 20.6550 0.0000
# 6 0.0000 0.0000 0.0000 0.0000 0.0000 17.2315
#
#
#
# Elastic Compliance Matrix: (Units=1/GPa)
#
#
# Indices 1 2 3 4 5 6 
#
# 1 0.009115 -0.002318 -0.001565 0.000000 0.000000 0.000000
# 2 -0.002318 0.016812 -0.011475 0.000000 0.000000 0.000000
# 3 -0.001565 -0.011475 0.024076 0.000000 0.000000 0.000000
# 4 0.000000 0.000000 0.000000 0.028552 0.000000 0.000000
# 5 0.000000 0.000000 0.000000 0.000000 0.048414 0.000000
# 6 0.000000 0.000000 0.000000 0.000000 0.000000 0.058033
#
#
# Mechanical properties :
#
#
# Convention : Reuss Voigt Hill
#
# Bulk Modulus (GPa) = 51.85331 55.06633 53.45982
# Shear Modulus (GPa) = 22.50754 26.60231 24.55493
#
# Velocity S-wave (km/s) = 3.55863 3.86882 3.71696
# Velocity P-wave (km/s) = 6.78677 7.13722 6.96420
#
# Compressibility (1/GPa) = 0.01928517
#
# Stress axis : x y z
#
# Youngs Moduli (GPa) = 109.70621 59.48195 41.53586
#
# Poissons Ratio (x) = 0.13791 0.06501
# Poissons Ratio (y) = 0.25435 0.47663
# Poissons Ratio (z) = 0.17171 0.68256
#
# Static dielectric constant tensor:
#      x y z
#    x 3.566530 0.000000 0.000000 
#    y 0.000000 3.022190 0.000000 
#    z 0.000000 0.000000 3.077850 
# 
# 
# High freq. dielectric constant tensor:
#      x y z
#    x 1.710910 0.000000 0.000000 
#    y 0.000000 1.653660 0.000000 
#    z 0.000000 0.000000 1.669230 
# 
# From -- ./inp_files/14426.got.cif
#   From: 2010.03.12/outbox.cif.g09.slc.cpg/sg64_8_cif.got.tgz:14426.got - 2010.04.10 20:19:32.
