data_PCOD8262154
_publ_section_title
;
Structure prediction by ZEFSAII (Michael W. Deem and Ramdas Pophale) SiO2 
 PCOD8262154
Probable space group: C M C A
;
_chemical_formula_sum "Si O2"
_cell_formula_units_Z 96
_cell_length_a 8.847192
_cell_length_b 20.395769
_cell_length_c 27.823942
_cell_angle_alpha 90.000000
_cell_angle_beta 90.000000
_cell_angle_gamma 90.000000
_cell_volume 5020.699125
_symmetry_space_group_name_H-M "C M C A"
_symmetry_group_IT_number 64
_symmetry_cell_setting 'orthorhombic'
loop_
_space_group_symop_operation_xyz
x,y,z
-x,1/2-y,1/2+z
x,-y,-z
-x,1/2+y,1/2-z
-x,-y,-z
x,1/2+y,1/2-z
-x,y,z
x,1/2-y,1/2+z
1/2+x,1/2+y,z
1/2-x,-y,1/2+z
1/2+x,1/2-y,-z
1/2-x,y,1/2-z
1/2-x,1/2-y,-z
1/2+x,y,1/2-z
1/2-x,1/2+y,z
1/2+x,-y,1/2+z
loop_
_atom_site_type_symbol
_atom_site_label
_atom_site_fract_x
_atom_site_fract_y
_atom_site_fract_z
Si Si1 0.175014 0.808067 0.442759
Si Si2 0.174674 0.669860 0.049589
Si Si3 0.675846 0.892303 0.634659
Si Si4 0.676117 0.729129 0.200936
Si Si5 0.178326 0.137637 0.656631
Si Si6 0.320387 0.501767 0.698594
O O1 0.203090 0.844998 0.493172
O O2 0.275752 0.743575 0.438569
O O3 0.221133 0.857623 0.399891
O O4 0.000000 0.785935 0.437684
O O5 0.269979 0.616575 0.079693
O O6 0.000000 0.662272 0.063328
O O7 0.500000 0.910748 0.636486
O O8 0.712228 0.823805 0.660391
O O9 0.771286 0.948941 0.659526
O O10 0.500000 0.735399 0.210095
O O11 0.750000 0.704999 0.250000
O O12 0.744967 0.799019 0.184343
O O13 0.000000 0.136777 0.662327
O O14 0.244638 0.071777 0.680322
O O15 0.500000 0.501479 0.703307
O O16 0.250000 0.484240 0.750000
#
# Coordination Sequence:
#
# PCOD8262154 Si02
#       6
#    16  16  16  16  16  16
#     4   9  17  34  57  82 115 150 184 225 281 341
#     4  10  19  31  55  88 115 143 184 234 283 334
#     4  11  22  38  58  78 111 152 188 231 281 334
#     4  10  20  34  54  78 104 138 180 227 276 324
#     4   9  18  36  58  80 108 147 186 224 274 335
#     4  11  23  39  59  81 111 148 189 230 276 335
#
# _framework density 19.120844000000002
#
# number of rings (size 3 to 8) (size 9 to 14) (size 15 to 20)
#    0.000    2.000    1.667    2.500    0.000    3.333 
#    0.000    3.333    0.000    5.000    0.000    0.000 
#    0.000    0.000    0.000    0.000    0.000    0.000 
#
# Total GULP energy -595246.311536 kJ/mol
# GULP energy per Si atom -12400.964824 kJ/mol
# Density = 1.907732 g / cm^3
# Si number density = 19.120844 Si / 1000 Ang^3
#
#
#
# Elastic Constant Matrix: (Units=GPa)
#
#
# Indices 1 2 3 4 5 6 
#
# 1 49.3288 23.2947 23.1077 0.0000 0.0000 0.0000
# 2 23.2947 64.1619 7.7272 0.0000 0.0000 0.0000
# 3 23.1077 7.7272 90.8177 0.0000 0.0000 0.0000
# 4 0.0000 0.0000 0.0000 34.7646 0.0000 0.0000
# 5 0.0000 0.0000 0.0000 0.0000 29.7323 0.0000
# 6 0.0000 0.0000 0.0000 0.0000 0.0000 24.0754
#
#
#
# Elastic Compliance Matrix: (Units=1/GPa)
#
#
# Indices 1 2 3 4 5 6 
#
# 1 0.027559 -0.009256 -0.006225 0.000000 0.000000 0.000000
# 2 -0.009256 0.018856 0.000751 0.000000 0.000000 0.000000
# 3 -0.006225 0.000751 0.012531 0.000000 0.000000 0.000000
# 4 0.000000 0.000000 0.000000 0.028765 0.000000 0.000000
# 5 0.000000 0.000000 0.000000 0.000000 0.033633 0.000000
# 6 0.000000 0.000000 0.000000 0.000000 0.000000 0.041536
#
#
# Mechanical properties :
#
#
# Convention : Reuss Voigt Hill
#
# Bulk Modulus (GPa) = 33.91438 34.72976 34.32207
# Shear Modulus (GPa) = 24.73189 27.72640 26.22915
#
# Velocity S-wave (km/s) = 3.60036 3.81210 3.70774
# Velocity P-wave (km/s) = 5.92105 6.13016 6.02651
#
# Compressibility (1/GPa) = 0.02948601
#
# Stress axis : x y z
#
# Youngs Moduli (GPa) = 36.28586 53.03458 79.80219
#
# Poissons Ratio (x) = 0.49088 0.49674
# Poissons Ratio (y) = 0.33586 -0.05991
# Poissons Ratio (z) = 0.22586 -0.03982
#
# Static dielectric constant tensor:
#      x y z
#    x 3.352050 0.000000 0.000000 
#    y 0.000000 3.505220 0.000000 
#    z 0.000000 0.000000 3.715160 
# 
# 
# High freq. dielectric constant tensor:
#      x y z
#    x 1.730970 0.000000 0.000000 
#    y 0.000000 1.725120 0.000000 
#    z 0.000000 0.000000 1.759810 
# 
# From -- ./inp_files/48136.got.cif
#   From: 2010.03.12/outbox.cif.g09.slc.cpg/sg64_25_cif.got.tgz:48136.got - 2010.04.10 20:19:32.
