data_PCOD8262887
_publ_section_title
;
Structure prediction by ZEFSAII (Michael W. Deem and Ramdas Pophale) SiO2 
 PCOD8262887
Probable space group: C M C A
;
_chemical_formula_sum "Si O2"
_cell_formula_units_Z 64
_cell_length_a 9.295612
_cell_length_b 14.723857
_cell_length_c 24.112792
_cell_angle_alpha 90.000000
_cell_angle_beta 90.000000
_cell_angle_gamma 90.000000
_cell_volume 3300.251816
_symmetry_space_group_name_H-M "C M C A"
_symmetry_group_IT_number 64
_symmetry_cell_setting 'orthorhombic'
loop_
_space_group_symop_operation_xyz
x,y,z
-x,1/2-y,1/2+z
x,-y,-z
-x,1/2+y,1/2-z
-x,-y,-z
x,1/2+y,1/2-z
-x,y,z
x,1/2-y,1/2+z
1/2+x,1/2+y,z
1/2-x,-y,1/2+z
1/2+x,1/2-y,-z
1/2-x,y,1/2-z
1/2-x,1/2-y,-z
1/2+x,y,1/2-z
1/2-x,1/2+y,z
1/2+x,-y,1/2+z
loop_
_atom_site_type_symbol
_atom_site_label
_atom_site_fract_x
_atom_site_fract_y
_atom_site_fract_z
Si Si1 0.334442 0.728617 0.693552
Si Si2 0.170123 0.618111 0.391235
Si Si3 0.833290 0.932779 0.385841
Si Si4 0.158416 0.606052 0.512223
O O1 0.500000 0.746552 0.706863
O O2 0.250000 0.738412 0.750000
O O3 0.278057 0.803877 0.650329
O O4 0.311263 0.628833 0.668318
O O5 0.251252 0.526143 0.374535
O O6 0.209621 0.651288 0.453999
O O7 0.000000 0.598905 0.387713
O O8 0.771564 0.876881 0.438657
O O9 0.000000 0.952579 0.397620
O O10 0.148861 0.500000 0.500000
O O11 0.000000 0.642223 0.529863
#
# Coordination Sequence:
#
# PCOD8262887 Si02
#       4
#    16  16  16  16
#     4  10  23  40  55  75 105 140 180 222 261 307
#     4   9  19  37  57  77 106 142 175 211 260 315
#     4  10  20  34  54  82 111 136 169 217 265 308
#     4   8  15  30  53  79 107 139 171 205 256 319
#
# _framework density 19.392458000000001
#
# number of rings (size 3 to 8) (size 9 to 14) (size 15 to 20)
#    0.000    2.750    0.000    2.250    0.000    9.500 
#    0.000    5.000    0.000    0.000    0.000    0.000 
#    0.000    0.000    0.000    0.000    0.000    0.000 
#
# Total GULP energy -396713.236204 kJ/mol
# GULP energy per Si atom -12397.288631 kJ/mol
# Density = 1.934832 g / cm^3
# Si number density = 19.392458 Si / 1000 Ang^3
#
#
#
# Elastic Constant Matrix: (Units=GPa)
#
#
# Indices 1 2 3 4 5 6 
#
# 1 65.8180 21.8739 31.7158 0.0000 0.0000 0.0000
# 2 21.8739 46.2711 10.0275 0.0000 0.0000 0.0000
# 3 31.7158 10.0275 86.7989 0.0000 0.0000 0.0000
# 4 0.0000 0.0000 0.0000 28.0404 0.0000 0.0000
# 5 0.0000 0.0000 0.0000 0.0000 38.6714 0.0000
# 6 0.0000 0.0000 0.0000 0.0000 0.0000 23.3315
#
#
#
# Elastic Compliance Matrix: (Units=1/GPa)
#
#
# Indices 1 2 3 4 5 6 
#
# 1 0.021332 -0.008611 -0.006800 0.000000 0.000000 0.000000
# 2 -0.008611 0.025642 0.000184 0.000000 0.000000 0.000000
# 3 -0.006800 0.000184 0.013984 0.000000 0.000000 0.000000
# 4 0.000000 0.000000 0.000000 0.035663 0.000000 0.000000
# 5 0.000000 0.000000 0.000000 0.000000 0.025859 0.000000
# 6 0.000000 0.000000 0.000000 0.000000 0.000000 0.042860
#
#
# Mechanical properties :
#
#
# Convention : Reuss Voigt Hill
#
# Bulk Modulus (GPa) = 32.78101 36.23582 34.50841
# Shear Modulus (GPa) = 24.27635 27.02671 25.65153
#
# Velocity S-wave (km/s) = 3.54198 3.73724 3.64092
# Velocity P-wave (km/s) = 5.80243 6.11136 5.95890
#
# Compressibility (1/GPa) = 0.03050547
#
# Stress axis : x y z
#
# Youngs Moduli (GPa) = 46.87875 38.99786 71.50927
#
# Poissons Ratio (x) = 0.33579 0.48624
# Poissons Ratio (y) = 0.40365 -0.01315
# Poissons Ratio (z) = 0.31876 -0.00717
#
# Static dielectric constant tensor:
#      x y z
#    x 3.518420 0.000000 0.000000 
#    y 0.000000 3.339490 0.000000 
#    z 0.000000 0.000000 3.760400 
# 
# 
# High freq. dielectric constant tensor:
#      x y z
#    x 1.751640 0.000000 0.000000 
#    y 0.000000 1.743280 0.000000 
#    z 0.000000 0.000000 1.754950 
# 
# From -- ./inp_files/36278.got.cif
#   From: 2010.03.12/outbox.cif.g09.slc.cpg/sg64_19_cif.got.tgz:36278.got - 2010.04.10 20:19:32.
