data_PCOD8262987
_publ_section_title
;
Structure prediction by ZEFSAII (Michael W. Deem and Ramdas Pophale) SiO2 
 PCOD8262987
Probable space group: C M C A
;
_chemical_formula_sum "Si O2"
_cell_formula_units_Z 80
_cell_length_a 8.799802
_cell_length_b 18.418460
_cell_length_c 25.916338
_cell_angle_alpha 90.000000
_cell_angle_beta 90.000000
_cell_angle_gamma 90.000000
_cell_volume 4200.488993
_symmetry_space_group_name_H-M "C M C A"
_symmetry_group_IT_number 64
_symmetry_cell_setting 'orthorhombic'
loop_
_space_group_symop_operation_xyz
x,y,z
-x,1/2-y,1/2+z
x,-y,-z
-x,1/2+y,1/2-z
-x,-y,-z
x,1/2+y,1/2-z
-x,y,z
x,1/2-y,1/2+z
1/2+x,1/2+y,z
1/2-x,-y,1/2+z
1/2+x,1/2-y,-z
1/2-x,y,1/2-z
1/2-x,1/2-y,-z
1/2+x,y,1/2-z
1/2-x,1/2+y,z
1/2+x,-y,1/2+z
loop_
_atom_site_type_symbol
_atom_site_label
_atom_site_fract_x
_atom_site_fract_y
_atom_site_fract_z
Si Si1 0.817666 0.673234 0.587791
Si Si2 0.330398 0.162744 0.199456
Si Si3 0.325483 0.914420 0.996413
Si Si4 0.820274 0.671344 0.406876
Si Si5 0.666008 0.834595 0.299263
O O1 0.745626 0.617958 0.548092
O O2 0.760065 0.754163 0.576181
O O3 0.760161 0.647934 0.644887
O O4 0.000000 0.673716 0.584626
O O5 0.500000 0.129975 0.193699
O O6 0.250000 0.128518 0.250000
O O7 0.232368 0.143382 0.149132
O O8 0.341848 0.248498 0.206535
O O9 0.500000 0.889070 0.990623
O O10 0.227488 0.889310 0.947717
O O11 0.312449 0.000000 0.000000
O O12 0.000000 0.682669 0.406989
O O13 0.500000 0.869419 0.297796
O O14 0.750000 0.869469 0.250000
#
# Coordination Sequence:
#
# PCOD8262987 Si02
#       5
#    16  16  16  16  16
#     4  10  20  35  55  80 109 139 175 218 262 313
#     4   9  16  28  47  75 109 140 173 213 260 310
#     4  11  24  40  56  75 102 137 177 223 273 322
#     4  11  21  34  55  81 109 141 177 218 264 313
#     4   8  15  26  44  72 104 135 165 203 249 299
#
# _framework density 19.045400000000001
#
# number of rings (size 3 to 8) (size 9 to 14) (size 15 to 20)
#    0.000    2.200    0.000    5.400    0.000    7.200 
#    0.000    0.000    0.000    1.200    0.000    2.800 
#    0.000    0.000    0.000    0.000    0.000    0.000 
#
# Total GULP energy -495885.648490 kJ/mol
# GULP energy per Si atom -12397.141212 kJ/mol
# Density = 1.900205 g / cm^3
# Si number density = 19.045400 Si / 1000 Ang^3
#
#
#
# Elastic Constant Matrix: (Units=GPa)
#
#
# Indices 1 2 3 4 5 6 
#
# 1 85.1197 26.9239 45.7130 0.0000 0.0000 0.0000
# 2 26.9239 43.3515 39.9542 0.0000 0.0000 0.0000
# 3 45.7130 39.9542 155.5855 0.0000 0.0000 0.0000
# 4 0.0000 0.0000 0.0000 -1.7032 0.0000 0.0000
# 5 0.0000 0.0000 0.0000 0.0000 37.1493 0.0000
# 6 0.0000 0.0000 0.0000 0.0000 0.0000 22.1496
#
#
#
# Elastic Compliance Matrix: (Units=1/GPa)
#
#
# Indices 1 2 3 4 5 6 
#
# 1 0.015451 -0.007090 -0.002719 0.000000 0.000000 0.000000
# 2 -0.007090 0.033473 -0.006513 0.000000 0.000000 0.000000
# 3 -0.002719 -0.006513 0.008899 0.000000 0.000000 0.000000
# 4 0.000000 0.000000 0.000000 -0.587119 0.000000 0.000000
# 5 0.000000 0.000000 0.000000 0.000000 0.026918 0.000000
# 6 0.000000 0.000000 0.000000 0.000000 0.000000 0.045148
#
#
# Mechanical properties :
#
#
# Convention : Reuss Voigt Hill
#
# Bulk Modulus (GPa) = 39.71547 56.58208 48.14878
# Shear Modulus (GPa) = -12.01364 22.95016 5.46826
#
# Velocity S-wave (km/s) = -2.51428 3.47511 1.69629
# Velocity P-wave (km/s) = 3.53122 6.77314 5.40115
#
# Compressibility (1/GPa) = 0.02517910
#
# Stress axis : x y z
#
# Youngs Moduli (GPa) = 64.72065 29.87496 112.37668
#
# Poissons Ratio (x) = 0.21182 0.30555
# Poissons Ratio (y) = 0.45888 0.73187
# Poissons Ratio (z) = 0.17597 0.19456
#
# Static dielectric constant tensor:
#      x y z
#    x 3.769850 0.000000 0.000000 
#    y 0.000000 2.924060 0.000000 
#    z 0.000000 0.000000 3.844600 
# 
# 
# High freq. dielectric constant tensor:
#      x y z
#    x 1.753800 0.000000 0.000000 
#    y 0.000000 1.679550 0.000000 
#    z 0.000000 0.000000 1.764530 
# 
# From -- ./inp_files/47829.got.cif
#   From: 2010.03.12/outbox.cif.g09.slc.cpg/sg64_24_cif.got.tgz:47829.got - 2010.04.10 20:19:32.
