data_PCOD8262772
_publ_section_title
;
Structure prediction by ZEFSAII (Michael W. Deem and Ramdas Pophale) SiO2 
 PCOD8262772
Probable space group: C M C A
;
_chemical_formula_sum "Si O2"
_cell_formula_units_Z 96
_cell_length_a 8.543202
_cell_length_b 27.070801
_cell_length_c 23.720589
_cell_angle_alpha 90.000000
_cell_angle_beta 90.000000
_cell_angle_gamma 90.000000
_cell_volume 5485.891959
_symmetry_space_group_name_H-M "C M C A"
_symmetry_group_IT_number 64
_symmetry_cell_setting 'orthorhombic'
loop_
_space_group_symop_operation_xyz
x,y,z
-x,1/2-y,1/2+z
x,-y,-z
-x,1/2+y,1/2-z
-x,-y,-z
x,1/2+y,1/2-z
-x,y,z
x,1/2-y,1/2+z
1/2+x,1/2+y,z
1/2-x,-y,1/2+z
1/2+x,1/2-y,-z
1/2-x,y,1/2-z
1/2-x,1/2-y,-z
1/2+x,y,1/2-z
1/2-x,1/2+y,z
1/2+x,-y,1/2+z
loop_
_atom_site_type_symbol
_atom_site_label
_atom_site_fract_x
_atom_site_fract_y
_atom_site_fract_z
Si Si1 0.316395 0.319519 0.189796
Si Si2 0.682261 0.977704 0.080584
Si Si3 0.683230 0.066119 0.690073
Si Si4 0.817081 0.733773 0.916700
Si Si5 0.818177 0.174959 0.473241
Si Si6 0.681527 0.070193 0.474658
O O1 0.500000 0.308984 0.187107
O O2 0.250000 0.302776 0.250000
O O3 0.277392 0.376702 0.178679
O O4 0.227711 0.287568 0.143540
O O5 0.500000 0.967706 0.071792
O O6 0.730363 0.967187 0.144315
O O7 0.720653 0.034438 0.066299
O O8 0.775980 0.940731 0.039611
O O9 0.500000 0.055750 0.688033
O O10 0.750000 0.049289 0.750000
O O11 0.722903 0.784396 0.926230
O O12 0.000000 0.745638 0.919626
O O13 0.769485 0.694679 0.965003
O O14 0.719477 0.126356 0.459582
O O15 0.000000 0.161729 0.470392
O O16 0.500000 0.059654 0.464730
#
# Coordination Sequence:
#
# PCOD8262772 Si02
#       6
#    16  16  16  16  16  16
#     4  10  20  33  51  74 102 134 168 207 250 297
#     4  11  21  34  52  75 103 135 170 208 252 300
#     4  10  20  34  52  76 104 135 170 208 252 299
#     4  10  20  33  51  75 103 134 168 206 249 297
#     4  10  20  34  52  75 103 134 168 206 250 299
#     4  11  21  34  52  75 103 134 169 209 253 300
#
# _framework density 17.499431999999999
#
# number of rings (size 3 to 8) (size 9 to 14) (size 15 to 20)
#    0.000    1.667    0.000    7.000    0.000    6.667 
#    0.000    0.000    0.000    1.000    0.000    7.000 
#    0.000    0.000    0.000    0.000    0.000    0.000 
#
# Total GULP energy -595491.211642 kJ/mol
# GULP energy per Si atom -12406.066909 kJ/mol
# Density = 1.745960 g / cm^3
# Si number density = 17.499432 Si / 1000 Ang^3
#
#
#
# Elastic Constant Matrix: (Units=GPa)
#
#
# Indices 1 2 3 4 5 6 
#
# 1 70.6194 20.4643 21.5041 0.0000 0.0000 0.0000
# 2 20.4643 83.3541 41.9862 0.0000 0.0000 0.0000
# 3 21.5041 41.9862 110.3854 0.0000 0.0000 0.0000
# 4 0.0000 0.0000 0.0000 21.5254 0.0000 0.0000
# 5 0.0000 0.0000 0.0000 0.0000 31.9858 0.0000
# 6 0.0000 0.0000 0.0000 0.0000 0.0000 29.5207
#
#
#
# Elastic Compliance Matrix: (Units=1/GPa)
#
#
# Indices 1 2 3 4 5 6 
#
# 1 0.015579 -0.002840 -0.001955 0.000000 0.000000 0.000000
# 2 -0.002840 0.015358 -0.005288 0.000000 0.000000 0.000000
# 3 -0.001955 -0.005288 0.011451 0.000000 0.000000 0.000000
# 4 0.000000 0.000000 0.000000 0.046457 0.000000 0.000000
# 5 0.000000 0.000000 0.000000 0.000000 0.031264 0.000000
# 6 0.000000 0.000000 0.000000 0.000000 0.000000 0.033875
#
#
# Mechanical properties :
#
#
# Convention : Reuss Voigt Hill
#
# Bulk Modulus (GPa) = 45.00048 48.02980 46.51514
# Shear Modulus (GPa) = 27.53959 28.63332 28.08646
#
# Velocity S-wave (km/s) = 3.97135 4.04944 4.01058
# Velocity P-wave (km/s) = 6.84105 7.02638 6.93434
#
# Compressibility (1/GPa) = 0.02222198
#
# Stress axis : x y z
#
# Youngs Moduli (GPa) = 64.19051 65.11234 87.32556
#
# Poissons Ratio (x) = 0.18493 0.17068
# Poissons Ratio (y) = 0.18231 0.46180
# Poissons Ratio (z) = 0.12546 0.34433
#
# Static dielectric constant tensor:
#      x y z
#    x 3.370540 0.000000 0.000000 
#    y 0.000000 3.140090 0.000000 
#    z 0.000000 0.000000 3.177420 
# 
# 
# High freq. dielectric constant tensor:
#      x y z
#    x 1.696640 0.000000 0.000000 
#    y 0.000000 1.664670 0.000000 
#    z 0.000000 0.000000 1.666440 
# 
# From -- ./inp_files/37105.got.cif
#   From: 2010.03.12/outbox.cif.g09.slc.cpg/sg64_19_cif.got.tgz:37105.got - 2010.04.10 20:19:32.
