data_PCOD8262877
_publ_section_title
;
Structure prediction by ZEFSAII (Michael W. Deem and Ramdas Pophale) SiO2 
 PCOD8262877
Probable space group: C M C A
;
_chemical_formula_sum "Si O2"
_cell_formula_units_Z 80
_cell_length_a 9.020653
_cell_length_b 25.001697
_cell_length_c 19.514675
_cell_angle_alpha 90.000000
_cell_angle_beta 90.000000
_cell_angle_gamma 90.000000
_cell_volume 4401.176521
_symmetry_space_group_name_H-M "C M C A"
_symmetry_group_IT_number 64
_symmetry_cell_setting 'orthorhombic'
loop_
_space_group_symop_operation_xyz
x,y,z
-x,1/2-y,1/2+z
x,-y,-z
-x,1/2+y,1/2-z
-x,-y,-z
x,1/2+y,1/2-z
-x,y,z
x,1/2-y,1/2+z
1/2+x,1/2+y,z
1/2-x,-y,1/2+z
1/2+x,1/2-y,-z
1/2-x,y,1/2-z
1/2-x,1/2-y,-z
1/2+x,y,1/2-z
1/2-x,1/2+y,z
1/2+x,-y,1/2+z
loop_
_atom_site_type_symbol
_atom_site_label
_atom_site_fract_x
_atom_site_fract_y
_atom_site_fract_z
Si Si1 0.673025 0.140857 0.582580
Si Si2 0.832458 0.637732 0.421192
Si Si3 0.171796 0.436249 0.818797
Si Si4 0.174385 0.440157 0.179868
Si Si5 0.828005 0.744230 0.928007
O O1 0.500000 0.141007 0.600647
O O2 0.702739 0.136282 0.501788
O O3 0.753135 0.090914 0.617024
O O4 0.745929 0.195942 0.612021
O O5 0.722187 0.597819 0.383781
O O6 0.811535 0.698052 0.391045
O O7 0.000000 0.618300 0.408068
O O8 0.250000 0.415529 0.750000
O O9 0.210498 0.497830 0.833281
O O10 0.000000 0.427325 0.807342
O O11 0.250000 0.420451 0.250000
O O12 0.000000 0.428746 0.183850
O O13 0.000000 0.729579 0.938319
O O14 0.750000 0.750000 0.000000
#
# Coordination Sequence:
#
# PCOD8262877 Si02
#       5
#    16  16  16  16  16
#     4  10  20  34  54  80 107 138 173 213 259 306
#     4   9  19  34  53  78 107 137 171 210 255 304
#     4  10  21  36  55  76 102 137 174 213 260 309
#     4  10  21  37  55  76 103 137 174 214 260 311
#     4   9  17  31  51  76 106 139 172 210 257 308
#
# _framework density 18.176959
#
# number of rings (size 3 to 8) (size 9 to 14) (size 15 to 20)
#    0.000    2.400    0.000    3.600    0.000    8.000 
#    0.000    5.000    0.000    4.800    0.000    0.000 
#    0.000    0.000    0.000    0.000    0.000    0.000 
#
# Total GULP energy -495946.016985 kJ/mol
# GULP energy per Si atom -12398.650425 kJ/mol
# Density = 1.813559 g / cm^3
# Si number density = 18.176959 Si / 1000 Ang^3
#
#
#
# Elastic Constant Matrix: (Units=GPa)
#
#
# Indices 1 2 3 4 5 6 
#
# 1 116.4568 64.3083 42.6758 0.0000 0.0000 0.0000
# 2 64.3083 99.3578 49.8154 0.0000 0.0000 0.0000
# 3 42.6758 49.8154 60.8715 0.0000 0.0000 0.0000
# 4 0.0000 0.0000 0.0000 8.4733 0.0000 0.0000
# 5 0.0000 0.0000 0.0000 0.0000 33.9401 0.0000
# 6 0.0000 0.0000 0.0000 0.0000 0.0000 37.6477
#
#
#
# Elastic Compliance Matrix: (Units=1/GPa)
#
#
# Indices 1 2 3 4 5 6 
#
# 1 0.013927 -0.006985 -0.004048 0.000000 0.000000 0.000000
# 2 -0.006985 0.020571 -0.011937 0.000000 0.000000 0.000000
# 3 -0.004048 -0.011937 0.029035 0.000000 0.000000 0.000000
# 4 0.000000 0.000000 0.000000 0.118017 0.000000 0.000000
# 5 0.000000 0.000000 0.000000 0.000000 0.029464 0.000000
# 6 0.000000 0.000000 0.000000 0.000000 0.000000 0.026562
#
#
# Mechanical properties :
#
#
# Convention : Reuss Voigt Hill
#
# Bulk Modulus (GPa) = 56.84183 65.58722 61.21452
# Shear Modulus (GPa) = 17.27826 24.00469 20.64147
#
# Velocity S-wave (km/s) = 3.08646 3.63796 3.37350
# Velocity P-wave (km/s) = 6.63633 7.33535 6.99458
#
# Compressibility (1/GPa) = 0.01759268
#
# Stress axis : x y z
#
# Youngs Moduli (GPa) = 71.80152 48.61325 34.44076
#
# Poissons Ratio (x) = 0.33955 0.13942
# Poissons Ratio (y) = 0.50151 0.41114
# Poissons Ratio (z) = 0.29066 0.58032
#
# Static dielectric constant tensor:
#      x y z
#    x 3.551160 0.000000 0.000000 
#    y 0.000000 3.634470 0.000000 
#    z 0.000000 0.000000 3.058930 
# 
# 
# High freq. dielectric constant tensor:
#      x y z
#    x 1.721970 0.000000 0.000000 
#    y 0.000000 1.713450 0.000000 
#    z 0.000000 0.000000 1.673820 
# 
# From -- ./inp_files/29749.got.cif
#   From: 2010.03.12/outbox.cif.g09.slc.cpg/sg64_15_cif.got.tgz:29749.got - 2010.04.10 20:19:32.
