data_PCOD8262912
_publ_section_title
;
Structure prediction by ZEFSAII (Michael W. Deem and Ramdas Pophale) SiO2 
 PCOD8262912
Probable space group: C M C A
;
_chemical_formula_sum "Si O2"
_cell_formula_units_Z 96
_cell_length_a 8.668996
_cell_length_b 20.568550
_cell_length_c 28.030138
_cell_angle_alpha 90.000000
_cell_angle_beta 90.000000
_cell_angle_gamma 90.000000
_cell_volume 4998.016842
_symmetry_space_group_name_H-M "C M C A"
_symmetry_group_IT_number 64
_symmetry_cell_setting 'orthorhombic'
loop_
_space_group_symop_operation_xyz
x,y,z
-x,1/2-y,1/2+z
x,-y,-z
-x,1/2+y,1/2-z
-x,-y,-z
x,1/2+y,1/2-z
-x,y,z
x,1/2-y,1/2+z
1/2+x,1/2+y,z
1/2-x,-y,1/2+z
1/2+x,1/2-y,-z
1/2-x,y,1/2-z
1/2-x,1/2-y,-z
1/2+x,y,1/2-z
1/2-x,1/2+y,z
1/2+x,-y,1/2+z
loop_
_atom_site_type_symbol
_atom_site_label
_atom_site_fract_x
_atom_site_fract_y
_atom_site_fract_z
Si Si1 0.177239 0.997816 0.944483
Si Si2 0.180183 0.619929 0.108431
Si Si3 0.818111 0.429024 0.199996
Si Si4 0.319909 0.628519 0.889739
Si Si5 0.182264 0.746495 0.052374
Si Si6 0.681970 0.569387 0.199904
O O1 0.287806 0.945140 0.920980
O O2 0.000000 0.978439 0.934122
O O3 0.217159 0.068033 0.923692
O O4 0.213319 0.000000 0.000000
O O5 0.240788 0.681282 0.078300
O O6 0.269320 0.619628 0.158829
O O7 0.000000 0.625612 0.119243
O O8 0.750000 0.403864 0.250000
O O9 0.773914 0.377275 0.159500
O O10 0.746142 0.498520 0.186082
O O11 0.000000 0.436796 0.204588
O O12 0.500000 0.633246 0.877398
O O13 0.259657 0.692442 0.916693
O O14 0.000000 0.747631 0.047539
O O15 0.250000 0.750000 0.000000
O O16 0.500000 0.564815 0.204117
O O17 0.750000 0.594047 0.250000
#
# Coordination Sequence:
#
# PCOD8262912 Si02
#       6
#    16  16  16  16  16  16
#     4  10  20  34  56  83 111 148 194 242 292 344
#     4  11  22  37  57  86 119 152 194 242 293 343
#     4  11  21  35  58  88 119 151 189 237 292 348
#     4  10  20  37  58  83 116 154 197 238 287 344
#     4  10  23  41  61  84 117 160 199 241 289 346
#     4  11  21  36  59  87 118 153 191 237 292 350
#
# _framework density 19.207618
#
# number of rings (size 3 to 8) (size 9 to 14) (size 15 to 20)
#    0.000    1.500    1.667    5.500    0.000    3.667 
#    0.000    0.833    0.000    0.000    0.000    0.000 
#    0.000    0.000    0.000    0.000    0.000    0.000 
#
# Total GULP energy -595452.642849 kJ/mol
# GULP energy per Si atom -12405.263393 kJ/mol
# Density = 1.916390 g / cm^3
# Si number density = 19.207618 Si / 1000 Ang^3
#
#
#
# Elastic Constant Matrix: (Units=GPa)
#
#
# Indices 1 2 3 4 5 6 
#
# 1 104.9757 39.9067 55.6802 0.0000 0.0000 0.0000
# 2 39.9067 102.4017 65.7249 0.0000 0.0000 0.0000
# 3 55.6802 65.7249 162.9602 0.0000 0.0000 0.0000
# 4 0.0000 0.0000 0.0000 35.2260 0.0000 0.0000
# 5 0.0000 0.0000 0.0000 0.0000 37.1267 0.0000
# 6 0.0000 0.0000 0.0000 0.0000 0.0000 21.6143
#
#
#
# Elastic Compliance Matrix: (Units=1/GPa)
#
#
# Indices 1 2 3 4 5 6 
#
# 1 0.012204 -0.002806 -0.003038 0.000000 0.000000 0.000000
# 2 -0.002806 0.013822 -0.004616 0.000000 0.000000 0.000000
# 3 -0.003038 -0.004616 0.009036 0.000000 0.000000 0.000000
# 4 0.000000 0.000000 0.000000 0.028388 0.000000 0.000000
# 5 0.000000 0.000000 0.000000 0.000000 0.026935 0.000000
# 6 0.000000 0.000000 0.000000 0.000000 0.000000 0.046266
#
#
# Mechanical properties :
#
#
# Convention : Reuss Voigt Hill
#
# Bulk Modulus (GPa) = 70.71143 76.99567 73.85355
# Shear Modulus (GPa) = 30.81012 32.72847 31.76930
#
# Velocity S-wave (km/s) = 4.00941 4.13235 4.07135
# Velocity P-wave (km/s) = 7.63728 7.93356 7.78683
#
# Compressibility (1/GPa) = 0.01414199
#
# Stress axis : x y z
#
# Youngs Moduli (GPa) = 81.93882 72.35102 110.66652
#
# Poissons Ratio (x) = 0.20302 0.33623
# Poissons Ratio (y) = 0.22992 0.51080
# Poissons Ratio (z) = 0.24895 0.33395
#
# Static dielectric constant tensor:
#      x y z
#    x 3.455910 0.000000 0.000000 
#    y 0.000000 3.522350 0.000000 
#    z 0.000000 0.000000 3.702180 
# 
# 
# High freq. dielectric constant tensor:
#      x y z
#    x 1.747760 0.000000 0.000000 
#    y 0.000000 1.729150 0.000000 
#    z 0.000000 0.000000 1.767200 
# 
# From -- ./inp_files/48017.got.cif
#   From: 2010.03.12/outbox.cif.g09.slc.cpg/sg64_25_cif.got.tgz:48017.got - 2010.04.10 20:19:32.
