data_PCOD8262006
_publ_section_title
;
Structure prediction by ZEFSAII (Michael W. Deem and Ramdas Pophale) SiO2 
 PCOD8262006
Probable space group: C M C A
;
_chemical_formula_sum "Si O2"
_cell_formula_units_Z 96
_cell_length_a 9.239670
_cell_length_b 19.336559
_cell_length_c 30.856842
_cell_angle_alpha 90.000000
_cell_angle_beta 90.000000
_cell_angle_gamma 90.000000
_cell_volume 5512.989048
_symmetry_space_group_name_H-M "C M C A"
_symmetry_group_IT_number 64
_symmetry_cell_setting 'orthorhombic'
loop_
_space_group_symop_operation_xyz
x,y,z
-x,1/2-y,1/2+z
x,-y,-z
-x,1/2+y,1/2-z
-x,-y,-z
x,1/2+y,1/2-z
-x,y,z
x,1/2-y,1/2+z
1/2+x,1/2+y,z
1/2-x,-y,1/2+z
1/2+x,1/2-y,-z
1/2-x,y,1/2-z
1/2-x,1/2-y,-z
1/2+x,y,1/2-z
1/2-x,1/2+y,z
1/2+x,-y,1/2+z
loop_
_atom_site_type_symbol
_atom_site_label
_atom_site_fract_x
_atom_site_fract_y
_atom_site_fract_z
Si Si1 0.329551 0.828231 0.131624
Si Si2 0.831002 0.430456 0.207464
Si Si3 0.831677 0.588227 0.207612
Si Si4 0.828645 0.814186 0.628458
Si Si5 0.659831 0.664386 0.536294
Si Si6 0.338375 0.171535 0.456464
O O1 0.500000 0.809543 0.133587
O O2 0.282790 0.884801 0.166666
O O3 0.238215 0.759602 0.140674
O O4 0.291326 0.860125 0.084274
O O5 0.750000 0.402533 0.250000
O O6 0.786461 0.509323 0.197441
O O7 0.000000 0.423138 0.216375
O O8 0.750000 0.616282 0.250000
O O9 0.786988 0.633937 0.166779
O O10 0.000000 0.594399 0.217673
O O11 0.759742 0.846282 0.584977
O O12 0.000000 0.806705 0.621739
O O13 0.500000 0.635709 0.525257
O O14 0.656081 0.746935 0.537029
O O15 0.769243 0.636785 0.499554
O O16 0.500000 0.141594 0.450058
#
# Coordination Sequence:
#
# PCOD8262006 Si02
#       6
#    16  16  16  16  16  16
#     4   9  18  31  48  70  95 122 152 190 232 271
#     4   9  18  34  52  69  91 120 156 192 228 274
#     4   9  19  34  51  69  90 121 157 191 228 272
#     4  10  19  30  46  70  97 122 152 190 229 271
#     4   8  14  25  41  63  90 119 150 185 226 269
#     4   9  16  26  42  65  92 122 153 186 226 269
#
# _framework density 17.413421
#
# number of rings (size 3 to 8) (size 9 to 14) (size 15 to 20)
#    0.000    3.000    0.000    2.000    0.000    6.667 
#    0.000    3.333    0.000    1.000    0.000    7.000 
#    0.000    0.000    0.000    0.000    0.000    0.000 
#
# Total GULP energy -595085.875555 kJ/mol
# GULP energy per Si atom -12397.622407 kJ/mol
# Density = 1.737379 g / cm^3
# Si number density = 17.413421 Si / 1000 Ang^3
#
#
#
# Elastic Constant Matrix: (Units=GPa)
#
#
# Indices 1 2 3 4 5 6 
#
# 1 86.9361 37.7614 79.1952 0.0000 0.0000 0.0000
# 2 37.7614 47.8001 62.9004 0.0000 0.0000 0.0000
# 3 79.1952 62.9004 178.2588 0.0000 0.0000 0.0000
# 4 0.0000 0.0000 0.0000 3.2997 0.0000 0.0000
# 5 0.0000 0.0000 0.0000 0.0000 35.6329 0.0000
# 6 0.0000 0.0000 0.0000 0.0000 0.0000 17.6110
#
#
#
# Elastic Compliance Matrix: (Units=1/GPa)
#
#
# Indices 1 2 3 4 5 6 
#
# 1 0.020838 -0.007989 -0.006439 0.000000 0.000000 0.000000
# 2 -0.007989 0.042118 -0.011312 0.000000 0.000000 0.000000
# 3 -0.006439 -0.011312 0.012462 0.000000 0.000000 0.000000
# 4 0.000000 0.000000 0.000000 0.303059 0.000000 0.000000
# 5 0.000000 0.000000 0.000000 0.000000 0.028064 0.000000
# 6 0.000000 0.000000 0.000000 0.000000 0.000000 0.056783
#
#
# Mechanical properties :
#
#
# Convention : Reuss Voigt Hill
#
# Bulk Modulus (GPa) = 41.77532 74.74544 58.26038
# Shear Modulus (GPa) = 9.56418 20.18457 14.87438
#
# Velocity S-wave (km/s) = 2.34613 3.40831 2.92582
# Velocity P-wave (km/s) = 5.60192 7.64892 6.70401
#
# Compressibility (1/GPa) = 0.02393758
#
# Stress axis : x y z
#
# Youngs Moduli (GPa) = 47.98839 23.74303 80.24346
#
# Poissons Ratio (x) = 0.18969 0.51668
# Poissons Ratio (y) = 0.38338 0.90774
# Poissons Ratio (z) = 0.30899 0.26859
#
# Static dielectric constant tensor:
#      x y z
#    x 3.346410 0.000000 0.000000 
#    y 0.000000 2.885390 0.000000 
#    z 0.000000 0.000000 3.543220 
# 
# 
# High freq. dielectric constant tensor:
#      x y z
#    x 1.677020 0.000000 0.000000 
#    y 0.000000 1.624330 0.000000 
#    z 0.000000 0.000000 1.687940 
# 
# From -- ./inp_files/48370.got.cif
#   From: 2010.03.12/outbox.cif.g09.slc.cpg/sg64_25_cif.got.tgz:48370.got - 2010.04.10 20:19:32.
