data_PCOD8262742
_publ_section_title
;
Structure prediction by ZEFSAII (Michael W. Deem and Ramdas Pophale) SiO2 
 PCOD8262742
Probable space group: C M C A
;
_chemical_formula_sum "Si O2"
_cell_formula_units_Z 72
_cell_length_a 10.183076
_cell_length_b 20.814264
_cell_length_c 18.458241
_cell_angle_alpha 90.000000
_cell_angle_beta 90.000000
_cell_angle_gamma 90.000000
_cell_volume 3912.283841
_symmetry_space_group_name_H-M "C M C A"
_symmetry_group_IT_number 64
_symmetry_cell_setting 'orthorhombic'
loop_
_space_group_symop_operation_xyz
x,y,z
-x,1/2-y,1/2+z
x,-y,-z
-x,1/2+y,1/2-z
-x,-y,-z
x,1/2+y,1/2-z
-x,y,z
x,1/2-y,1/2+z
1/2+x,1/2+y,z
1/2-x,-y,1/2+z
1/2+x,1/2-y,-z
1/2-x,y,1/2-z
1/2-x,1/2-y,-z
1/2+x,y,1/2-z
1/2-x,1/2+y,z
1/2+x,-y,1/2+z
loop_
_atom_site_type_symbol
_atom_site_label
_atom_site_fract_x
_atom_site_fract_y
_atom_site_fract_z
Si Si1 0.000000 0.681297 0.986152
Si Si2 0.250000 0.708019 0.750000
Si Si3 0.000000 0.229197 0.288832
Si Si4 0.260528 0.368093 0.395920
Si Si5 0.500000 0.188861 0.565506
Si Si6 0.500000 0.101354 0.133081
Si Si7 0.351773 0.012488 0.816716
O O1 0.872186 0.667982 0.939635
O O2 0.000000 0.757210 0.003068
O O3 0.000000 0.634013 0.054942
O O4 0.125854 0.754281 0.759124
O O5 0.240443 0.662211 0.682131
O O6 0.000000 0.271354 0.360835
O O7 0.000000 0.154144 0.304456
O O8 0.296557 0.442252 0.381061
O O9 0.125915 0.358105 0.440763
O O10 0.369353 0.057514 0.145523
O O11 0.500000 0.035857 0.791109
O O12 0.250000 0.009632 0.750000
#
# Coordination Sequence:
#
# PCOD8262742 Si02
#       7
#     8   8   8  16   8   8  16
#     4  11  20  40  60  84 118 161 191 231 291 362
#     4  10  20  32  54  90 108 144 194 234 304 334
#     4   9  19  32  52  76 116 145 180 237 278 356
#     4  11  20  35  61  85 119 148 196 246 286 346
#     4   9  22  34  54  85 119 147 182 236 293 339
#     4   9  23  38  56  84 115 157 198 227 296 349
#     4  10  22  36  60  86 115 151 196 252 278 337
#
# _framework density 18.403572
#
# number of rings (size 3 to 8) (size 9 to 14) (size 15 to 20)
#    0.667    1.333    2.222    1.333    3.111    1.778 
#    0.000    0.000    2.444    1.333    0.000    0.000 
#    0.000    0.000    0.000    0.000    0.000    0.000 
#
# Total GULP energy -446151.028790 kJ/mol
# GULP energy per Si atom -12393.084133 kJ/mol
# Density = 1.836168 g / cm^3
# Si number density = 18.403572 Si / 1000 Ang^3
#
#
#
# Elastic Constant Matrix: (Units=GPa)
#
#
# Indices 1 2 3 4 5 6 
#
# 1 137.7008 30.5080 14.2025 0.0000 0.0000 0.0000
# 2 30.5080 95.2594 2.6785 0.0000 0.0000 0.0000
# 3 14.2025 2.6785 37.1499 0.0000 0.0000 0.0000
# 4 0.0000 0.0000 0.0000 -165.7362 0.0000 0.0000
# 5 0.0000 0.0000 0.0000 0.0000 46.1113 0.0000
# 6 0.0000 0.0000 0.0000 0.0000 0.0000 60.7090
#
#
#
# Elastic Compliance Matrix: (Units=1/GPa)
#
#
# Indices 1 2 3 4 5 6 
#
# 1 0.008122 -0.002519 -0.002923 0.000000 0.000000 0.000000
# 2 -0.002519 0.011300 0.000148 0.000000 0.000000 0.000000
# 3 -0.002923 0.000148 0.028025 0.000000 0.000000 0.000000
# 4 0.000000 0.000000 0.000000 -0.006034 0.000000 0.000000
# 5 0.000000 0.000000 0.000000 0.000000 0.021687 0.000000
# 6 0.000000 0.000000 0.000000 0.000000 0.000000 0.016472
#
#
# Mechanical properties :
#
#
# Convention : Reuss Voigt Hill
#
# Bulk Modulus (GPa) = 27.13055 40.54312 33.83684
# Shear Modulus (GPa) = 48.80618 3.06488 25.93553
#
# Velocity S-wave (km/s) = 5.15534 1.29189 3.75809
# Velocity P-wave (km/s) = 7.08595 4.92982 6.10385
#
# Compressibility (1/GPa) = 0.03685882
#
# Stress axis : x y z
#
# Youngs Moduli (GPa) = 123.12691 88.49409 35.68255
#
# Poissons Ratio (x) = 0.22291 0.10431
# Poissons Ratio (y) = 0.31014 -0.00529
# Poissons Ratio (z) = 0.35994 -0.01312
#
# Static dielectric constant tensor:
#      x y z
#    x 3.648360 0.000000 0.000000 
#    y 0.000000 3.453650 0.000000 
#    z 0.000000 0.000000 3.199380 
# 
# 
# High freq. dielectric constant tensor:
#      x y z
#    x 1.723480 0.000000 0.000000 
#    y 0.000000 1.711950 0.000000 
#    z 0.000000 0.000000 1.694870 
# 
# From -- ./inp_files/29579.got.cif
#   From: 2010.03.12/outbox.cif.g09.slc.cpg/sg64_15_cif.got.tgz:29579.got - 2010.04.10 20:19:32.
