data_PCOD8262056
_publ_section_title
;
Structure prediction by ZEFSAII (Michael W. Deem and Ramdas Pophale) SiO2 
 PCOD8262056
Probable space group: C M C A
;
_chemical_formula_sum "Si O2"
_cell_formula_units_Z 80
_cell_length_a 9.045490
_cell_length_b 27.992570
_cell_length_c 18.506451
_cell_angle_alpha 90.000000
_cell_angle_beta 90.000000
_cell_angle_gamma 90.000000
_cell_volume 4685.953907
_symmetry_space_group_name_H-M "C M C A"
_symmetry_group_IT_number 64
_symmetry_cell_setting 'orthorhombic'
loop_
_space_group_symop_operation_xyz
x,y,z
-x,1/2-y,1/2+z
x,-y,-z
-x,1/2+y,1/2-z
-x,-y,-z
x,1/2+y,1/2-z
-x,y,z
x,1/2-y,1/2+z
1/2+x,1/2+y,z
1/2-x,-y,1/2+z
1/2+x,1/2-y,-z
1/2-x,y,1/2-z
1/2-x,1/2-y,-z
1/2+x,y,1/2-z
1/2-x,1/2+y,z
1/2+x,-y,1/2+z
loop_
_atom_site_type_symbol
_atom_site_label
_atom_site_fract_x
_atom_site_fract_y
_atom_site_fract_z
Si Si1 0.167245 0.319497 0.368654
Si Si2 0.836928 0.636997 0.472666
Si Si3 0.825256 0.735650 0.425897
Si Si4 0.674013 0.050623 0.974077
Si Si5 0.175440 0.589614 0.820133
O O1 0.166539 0.337172 0.450495
O O2 0.247879 0.267594 0.363479
O O3 0.261703 0.356623 0.321821
O O4 0.000000 0.315630 0.338442
O O5 0.796661 0.678480 0.413957
O O6 0.727071 0.592112 0.471215
O O7 0.000000 0.616634 0.456895
O O8 0.750000 0.750000 0.500000
O O9 0.000000 0.746668 0.429140
O O10 0.500000 0.050013 0.979380
O O11 0.725125 0.060675 0.891793
O O12 0.740679 0.000000 0.000000
O O13 0.250000 0.564369 0.750000
O O14 0.000000 0.590647 0.812011
#
# Coordination Sequence:
#
# PCOD8262056 Si02
#       5
#    16  16  16  16  16
#     4   9  16  26  40  60  86 114 145 177 214 263
#     4   8  15  25  38  59  86 114 143 178 219 265
#     4   9  15  23  36  57  85 114 143 173 209 254
#     4   9  18  31  46  65  89 118 153 195 240 281
#     4  10  19  31  47  66  91 120 150 186 229 280
#
# _framework density 17.072296999999999
#
# number of rings (size 3 to 8) (size 9 to 14) (size 15 to 20)
#    0.000    3.000    0.000    3.000    0.000    6.800 
#    0.000    0.000    0.000    0.000    0.000    1.400 
#    0.000    6.400    0.000    0.000    0.000    0.000 
#
# Total GULP energy -495584.403209 kJ/mol
# GULP energy per Si atom -12389.610080 kJ/mol
# Density = 1.703344 g / cm^3
# Si number density = 17.072297 Si / 1000 Ang^3
#
#
#
# Elastic Constant Matrix: (Units=GPa)
#
#
# Indices 1 2 3 4 5 6 
#
# 1 73.9954 43.7792 26.6373 0.0000 0.0000 0.0000
# 2 43.7792 124.8071 39.0667 0.0000 0.0000 0.0000
# 3 26.6373 39.0667 46.5137 0.0000 0.0000 0.0000
# 4 0.0000 0.0000 0.0000 13.7295 0.0000 0.0000
# 5 0.0000 0.0000 0.0000 0.0000 18.6487 0.0000
# 6 0.0000 0.0000 0.0000 0.0000 0.0000 26.1526
#
#
#
# Elastic Compliance Matrix: (Units=1/GPa)
#
#
# Indices 1 2 3 4 5 6 
#
# 1 0.018601 -0.004328 -0.007017 0.000000 0.000000 0.000000
# 2 -0.004328 0.011877 -0.007497 0.000000 0.000000 0.000000
# 3 -0.007017 -0.007497 0.031814 0.000000 0.000000 0.000000
# 4 0.000000 0.000000 0.000000 0.072836 0.000000 0.000000
# 5 0.000000 0.000000 0.000000 0.000000 0.053623 0.000000
# 6 0.000000 0.000000 0.000000 0.000000 0.000000 0.038237
#
#
# Mechanical properties :
#
#
# Convention : Reuss Voigt Hill
#
# Bulk Modulus (GPa) = 40.63727 51.58694 46.11211
# Shear Modulus (GPa) = 18.32331 20.76170 19.54251
#
# Velocity S-wave (km/s) = 3.27965 3.49105 3.38700
# Velocity P-wave (km/s) = 6.18030 6.82146 6.50878
#
# Compressibility (1/GPa) = 0.02460795
#
# Stress axis : x y z
#
# Youngs Moduli (GPa) = 53.75967 84.19405 31.43246
#
# Poissons Ratio (x) = 0.36443 0.22057
# Poissons Ratio (y) = 0.23269 0.23565
# Poissons Ratio (z) = 0.37724 0.63120
#
# Static dielectric constant tensor:
#      x y z
#    x 3.295430 0.000000 0.000000 
#    y 0.000000 3.724880 0.000000 
#    z 0.000000 0.000000 3.243040 
# 
# 
# High freq. dielectric constant tensor:
#      x y z
#    x 1.668480 0.000000 0.000000 
#    y 0.000000 1.649920 0.000000 
#    z 0.000000 0.000000 1.605960 
# 
# From -- ./inp_files/29954.got.cif
#   From: 2010.03.12/outbox.cif.g09.slc.cpg/sg64_15_cif.got.tgz:29954.got - 2010.04.10 20:19:32.
