data_PCOD8262398
_publ_section_title
;
Structure prediction by ZEFSAII (Michael W. Deem and Ramdas Pophale) SiO2 
 PCOD8262398
Probable space group: C M C A
;
_chemical_formula_sum "Si O2"
_cell_formula_units_Z 96
_cell_length_a 15.537768
_cell_length_b 28.664077
_cell_length_c 10.600722
_cell_angle_alpha 90.000000
_cell_angle_beta 90.000000
_cell_angle_gamma 90.000000
_cell_volume 4721.304812
_symmetry_space_group_name_H-M "C M C A"
_symmetry_group_IT_number 64
_symmetry_cell_setting 'orthorhombic'
loop_
_space_group_symop_operation_xyz
x,y,z
-x,1/2-y,1/2+z
x,-y,-z
-x,1/2+y,1/2-z
-x,-y,-z
x,1/2+y,1/2-z
-x,y,z
x,1/2-y,1/2+z
1/2+x,1/2+y,z
1/2-x,-y,1/2+z
1/2+x,1/2-y,-z
1/2-x,y,1/2-z
1/2-x,1/2-y,-z
1/2+x,y,1/2-z
1/2-x,1/2+y,z
1/2+x,-y,1/2+z
loop_
_atom_site_type_symbol
_atom_site_label
_atom_site_fract_x
_atom_site_fract_y
_atom_site_fract_z
Si Si1 0.099465 0.108734 0.719926
Si Si2 0.599354 0.384964 0.988688
Si Si3 0.347312 0.975921 0.619518
Si Si4 0.102724 0.780806 0.010328
Si Si5 0.602593 0.286656 0.292317
Si Si6 0.345107 0.485388 0.370318
O O1 0.133624 0.160309 0.683914
O O2 0.154850 0.070795 0.643035
O O3 0.000000 0.103404 0.681866
O O4 0.112641 0.099508 0.867506
O O5 0.500000 0.387905 0.949769
O O6 0.651717 0.419949 0.897494
O O7 0.633938 0.332374 0.969731
O O8 0.395679 0.000000 0.500000
O O9 0.393627 0.990906 0.750465
O O10 0.251096 0.995323 0.624499
O O11 0.140419 0.744746 0.906512
O O12 0.000000 0.779567 0.010819
O O13 0.135200 0.769250 0.153504
O O14 0.500000 0.285259 0.291986
O O15 0.392934 0.500000 0.500000
#
# Coordination Sequence:
#
# PCOD8262398 Si02
#       6
#    16  16  16  16  16  16
#     4   9  17  31  51  74 102 135 168 204 249 298
#     4   9  17  30  52  78  98 128 175 213 240 286
#     4  10  19  34  53  70  94 131 175 207 245 298
#     4   8  14  26  44  69 100 128 158 197 243 294
#     4   8  14  26  45  68  97 131 161 195 241 293
#     4  10  21  34  48  71 101 130 170 209 252 304
#
# _framework density 20.333362000000001
#
# number of rings (size 3 to 8) (size 9 to 14) (size 15 to 20)
#    0.000    3.000    1.667    2.000    0.000    1.333 
#    3.000    0.000    0.000    0.000    0.000    9.333 
#    0.000    0.000    0.000    0.000    0.000    0.333 
#
# Total GULP energy -594751.612808 kJ/mol
# GULP energy per Si atom -12390.658600 kJ/mol
# Density = 2.028708 g / cm^3
# Si number density = 20.333362 Si / 1000 Ang^3
#
#
#
# Elastic Constant Matrix: (Units=GPa)
#
#
# Indices 1 2 3 4 5 6 
#
# 1 25.7101 21.7007 9.5327 0.0000 0.0000 0.0000
# 2 21.7007 176.3977 106.8819 0.0000 0.0000 0.0000
# 3 9.5327 106.8819 181.1606 0.0000 0.0000 0.0000
# 4 0.0000 0.0000 0.0000 46.3584 0.0000 0.0000
# 5 0.0000 0.0000 0.0000 0.0000 36.4379 0.0000
# 6 0.0000 0.0000 0.0000 0.0000 0.0000 8.8751
#
#
#
# Elastic Compliance Matrix: (Units=1/GPa)
#
#
# Indices 1 2 3 4 5 6 
#
# 1 0.043615 -0.006186 0.001355 0.000000 0.000000 0.000000
# 2 -0.006186 0.009701 -0.005398 0.000000 0.000000 0.000000
# 3 0.001355 -0.005398 0.008633 0.000000 0.000000 0.000000
# 4 0.000000 0.000000 0.000000 0.021571 0.000000 0.000000
# 5 0.000000 0.000000 0.000000 0.000000 0.027444 0.000000
# 6 0.000000 0.000000 0.000000 0.000000 0.000000 0.112675
#
#
# Mechanical properties :
#
#
# Convention : Reuss Voigt Hill
#
# Bulk Modulus (GPa) = 24.10223 73.27765 48.68994
# Shear Modulus (GPa) = 19.38535 34.67782 27.03159
#
# Velocity S-wave (km/s) = 3.09103 4.13421 3.65008
# Velocity P-wave (km/s) = 4.96171 7.67498 6.46235
#
# Compressibility (1/GPa) = 0.04148993
#
# Stress axis : x y z
#
# Youngs Moduli (GPa) = 22.92812 103.08640 115.83184
#
# Poissons Ratio (x) = 0.63774 -0.15694
# Poissons Ratio (y) = 0.14184 0.62522
# Poissons Ratio (z) = -0.03107 0.55643
#
# Static dielectric constant tensor:
#      x y z
#    x 2.878380 0.000000 0.000000 
#    y 0.000000 3.854000 0.000000 
#    z 0.000000 0.000000 5.984730 
# 
# 
# High freq. dielectric constant tensor:
#      x y z
#    x 1.741940 0.000000 0.000000 
#    y 0.000000 1.798060 0.000000 
#    z 0.000000 0.000000 1.795140 
# 
# From -- ./inp_files/16324.got.cif
#   From: 2010.03.12/outbox.cif.g09.slc.cpg/sg64_9_cif.got.tgz:16324.got - 2010.04.10 20:19:32.
