data_PCOD8262857
_publ_section_title
;
Structure prediction by ZEFSAII (Michael W. Deem and Ramdas Pophale) SiO2 
 PCOD8262857
Probable space group: C M C A
;
_chemical_formula_sum "Si O2"
_cell_formula_units_Z 96
_cell_length_a 8.868833
_cell_length_b 19.113004
_cell_length_c 30.181510
_cell_angle_alpha 90.000000
_cell_angle_beta 90.000000
_cell_angle_gamma 90.000000
_cell_volume 5116.068986
_symmetry_space_group_name_H-M "C M C A"
_symmetry_group_IT_number 64
_symmetry_cell_setting 'orthorhombic'
loop_
_space_group_symop_operation_xyz
x,y,z
-x,1/2-y,1/2+z
x,-y,-z
-x,1/2+y,1/2-z
-x,-y,-z
x,1/2+y,1/2-z
-x,y,z
x,1/2-y,1/2+z
1/2+x,1/2+y,z
1/2-x,-y,1/2+z
1/2+x,1/2-y,-z
1/2-x,y,1/2-z
1/2-x,1/2-y,-z
1/2+x,y,1/2-z
1/2-x,1/2+y,z
1/2+x,-y,1/2+z
loop_
_atom_site_type_symbol
_atom_site_label
_atom_site_fract_x
_atom_site_fract_y
_atom_site_fract_z
Si Si1 0.675434 0.258807 0.126984
Si Si2 0.175627 0.849861 0.703916
Si Si3 0.676972 0.541857 0.143378
Si Si4 0.177315 0.597410 0.886529
Si Si5 0.676467 0.149740 0.432602
Si Si6 0.823500 0.078102 0.511801
O O1 0.500000 0.273475 0.119505
O O2 0.707294 0.213574 0.170569
O O3 0.762748 0.330961 0.134099
O O4 0.739368 0.219147 0.083950
O O5 0.250000 0.828271 0.750000
O O6 0.250451 0.920715 0.685787
O O7 0.000000 0.863859 0.710425
O O8 0.500000 0.536970 0.150931
O O9 0.744870 0.464977 0.140036
O O10 0.718129 0.584583 0.098966
O O11 0.221570 0.594130 0.938027
O O12 0.000000 0.591186 0.879699
O O13 0.500000 0.165712 0.432838
O O14 0.732520 0.132744 0.481801
O O15 0.000000 0.087872 0.502536
O O16 0.770975 0.000000 0.500000
#
# Coordination Sequence:
#
# PCOD8262857 Si02
#       6
#    16  16  16  16  16  16
#     4  10  22  39  58  81 114 151 186 229 285 341
#     4  10  21  39  64  89 112 142 180 224 276 336
#     4  10  20  35  57  84 114 145 183 229 276 329
#     4  11  22  36  56  82 114 151 191 235 284 333
#     4  10  20  34  55  81 109 147 194 237 276 327
#     4  10  20  34  53  78 111 151 194 239 285 331
#
# _framework density 18.764408
#
# number of rings (size 3 to 8) (size 9 to 14) (size 15 to 20)
#    0.000    1.833    1.667    2.500    0.000    5.667 
#    0.000    0.833    0.000    2.000    0.000    0.000 
#    0.000    0.000    0.000    0.000    0.000    0.000 
#
# Total GULP energy -595517.635681 kJ/mol
# GULP energy per Si atom -12406.617410 kJ/mol
# Density = 1.872170 g / cm^3
# Si number density = 18.764408 Si / 1000 Ang^3
#
#
#
# Elastic Constant Matrix: (Units=GPa)
#
#
# Indices 1 2 3 4 5 6 
#
# 1 88.9392 47.8963 44.7537 0.0000 0.0000 0.0000
# 2 47.8963 120.1696 35.0082 0.0000 0.0000 0.0000
# 3 44.7537 35.0082 81.6412 0.0000 0.0000 0.0000
# 4 0.0000 0.0000 0.0000 18.5970 0.0000 0.0000
# 5 0.0000 0.0000 0.0000 0.0000 33.5865 0.0000
# 6 0.0000 0.0000 0.0000 0.0000 0.0000 36.5800
#
#
#
# Elastic Compliance Matrix: (Units=1/GPa)
#
#
# Indices 1 2 3 4 5 6 
#
# 1 0.017677 -0.004825 -0.007621 0.000000 0.000000 0.000000
# 2 -0.004825 0.010827 -0.001997 0.000000 0.000000 0.000000
# 3 -0.007621 -0.001997 0.017283 0.000000 0.000000 0.000000
# 4 0.000000 0.000000 0.000000 0.053772 0.000000 0.000000
# 5 0.000000 0.000000 0.000000 0.000000 0.029774 0.000000
# 6 0.000000 0.000000 0.000000 0.000000 0.000000 0.027337
#
#
# Mechanical properties :
#
#
# Convention : Reuss Voigt Hill
#
# Bulk Modulus (GPa) = 59.17478 60.67404 59.92441
# Shear Modulus (GPa) = 26.15190 28.62548 27.38869
#
# Velocity S-wave (km/s) = 3.73728 3.91003 3.82463
# Velocity P-wave (km/s) = 7.08711 7.26562 7.17692
#
# Compressibility (1/GPa) = 0.01689909
#
# Stress axis : x y z
#
# Youngs Moduli (GPa) = 56.57042 92.36388 57.86093
#
# Poissons Ratio (x) = 0.44570 0.44096
# Poissons Ratio (y) = 0.27298 0.11557
# Poissons Ratio (z) = 0.43112 0.18449
#
# Static dielectric constant tensor:
#      x y z
#    x 3.474980 0.000000 0.000000 
#    y 0.000000 3.407390 0.000000 
#    z 0.000000 0.000000 2.019990 
# 
# 
# High freq. dielectric constant tensor:
#      x y z
#    x 1.741990 0.000000 0.000000 
#    y 0.000000 1.729130 0.000000 
#    z 0.000000 0.000000 1.715560 
# 
# From -- ./inp_files/48158.got.cif
#   From: 2010.03.12/outbox.cif.g09.slc.cpg/sg64_25_cif.got.tgz:48158.got - 2010.04.10 20:19:32.
