data_PCOD8262191
_publ_section_title
;
Structure prediction by ZEFSAII (Michael W. Deem and Ramdas Pophale) SiO2 
 PCOD8262191
Probable space group: C M C A
;
_chemical_formula_sum "Si O2"
_cell_formula_units_Z 96
_cell_length_a 8.661628
_cell_length_b 28.002517
_cell_length_c 21.115313
_cell_angle_alpha 90.000000
_cell_angle_beta 90.000000
_cell_angle_gamma 90.000000
_cell_volume 5121.463958
_symmetry_space_group_name_H-M "C M C A"
_symmetry_group_IT_number 64
_symmetry_cell_setting 'orthorhombic'
loop_
_space_group_symop_operation_xyz
x,y,z
-x,1/2-y,1/2+z
x,-y,-z
-x,1/2+y,1/2-z
-x,-y,-z
x,1/2+y,1/2-z
-x,y,z
x,1/2-y,1/2+z
1/2+x,1/2+y,z
1/2-x,-y,1/2+z
1/2+x,1/2-y,-z
1/2-x,y,1/2-z
1/2-x,1/2-y,-z
1/2+x,y,1/2-z
1/2-x,1/2+y,z
1/2+x,-y,1/2+z
loop_
_atom_site_type_symbol
_atom_site_label
_atom_site_fract_x
_atom_site_fract_y
_atom_site_fract_z
Si Si1 0.679135 0.099938 0.185918
Si Si2 0.180122 0.536811 0.945804
Si Si3 0.329329 0.365350 0.033744
Si Si4 0.182052 0.765412 0.066452
Si Si5 0.818097 0.501651 0.682166
Si Si6 0.671283 0.323993 0.894881
O O1 0.500000 0.087202 0.193037
O O2 0.750000 0.120906 0.250000
O O3 0.705207 0.139880 0.134042
O O4 0.769484 0.052233 0.166969
O O5 0.209143 0.591205 0.967617
O O6 0.260819 0.532210 0.877585
O O7 0.000000 0.527509 0.936721
O O8 0.243576 0.500000 0.000000
O O9 0.500000 0.385583 0.050870
O O10 0.281970 0.321742 0.081570
O O11 0.337309 0.338145 0.967666
O O12 0.265628 0.729970 0.116475
O O13 0.000000 0.756117 0.067440
O O14 0.250000 0.750000 0.000000
O O15 0.750000 0.519187 0.750000
O O16 0.000000 0.505995 0.687117
O O17 0.500000 0.328180 0.864270
#
# Coordination Sequence:
#
# PCOD8262191 Si02
#       6
#    16  16  16  16  16  16
#     4  11  21  34  52  75 103 134 171 212 257 309
#     4  11  23  36  53  80 111 142 180 225 270 316
#     4   9  19  33  50  74 104 137 172 212 259 309
#     4   9  17  30  48  72 101 133 169 207 252 308
#     4  11  22  38  58  78 106 142 181 221 265 321
#     4  10  19  32  51  76 105 136 171 210 258 312
#
# _framework density 18.744641000000001
#
# number of rings (size 3 to 8) (size 9 to 14) (size 15 to 20)
#    0.000    1.833    0.000    7.500    0.000    8.000 
#    0.000    0.000    0.000    1.000    0.000    0.000 
#    0.000    0.000    0.000    0.000    0.000    0.000 
#
# Total GULP energy -594860.379207 kJ/mol
# GULP energy per Si atom -12392.924567 kJ/mol
# Density = 1.870198 g / cm^3
# Si number density = 18.744641 Si / 1000 Ang^3
#
#
#
# Elastic Constant Matrix: (Units=GPa)
#
#
# Indices 1 2 3 4 5 6 
#
# 1 112.9188 36.5589 29.6972 0.0000 0.0000 0.0000
# 2 36.5589 105.5533 30.1856 0.0000 0.0000 0.0000
# 3 29.6972 30.1856 54.4547 0.0000 0.0000 0.0000
# 4 0.0000 0.0000 0.0000 21.3746 0.0000 0.0000
# 5 0.0000 0.0000 0.0000 0.0000 27.6844 0.0000
# 6 0.0000 0.0000 0.0000 0.0000 0.0000 31.1559
#
#
#
# Elastic Compliance Matrix: (Units=1/GPa)
#
#
# Indices 1 2 3 4 5 6 
#
# 1 0.010849 -0.002455 -0.004556 0.000000 0.000000 0.000000
# 2 -0.002455 0.011814 -0.005210 0.000000 0.000000 0.000000
# 3 -0.004556 -0.005210 0.023737 0.000000 0.000000 0.000000
# 4 0.000000 0.000000 0.000000 0.046784 0.000000 0.000000
# 5 0.000000 0.000000 0.000000 0.000000 0.036121 0.000000
# 6 0.000000 0.000000 0.000000 0.000000 0.000000 0.032097
#
#
# Mechanical properties :
#
#
# Convention : Reuss Voigt Hill
#
# Bulk Modulus (GPa) = 45.54110 51.75666 48.64888
# Shear Modulus (GPa) = 25.88495 27.80867 26.84681
#
# Velocity S-wave (km/s) = 3.72011 3.85587 3.78860
# Velocity P-wave (km/s) = 6.54222 6.89166 6.71921
#
# Compressibility (1/GPa) = 0.02195819
#
# Stress axis : x y z
#
# Youngs Moduli (GPa) = 92.17602 84.64492 42.12918
#
# Poissons Ratio (x) = 0.20778 0.19193
# Poissons Ratio (y) = 0.22626 0.21950
# Poissons Ratio (z) = 0.41993 0.44101
#
# Static dielectric constant tensor:
#      x y z
#    x 3.772700 0.000000 0.000000 
#    y 0.000000 3.606870 0.000000 
#    z 0.000000 0.000000 3.305690 
# 
# 
# High freq. dielectric constant tensor:
#      x y z
#    x 1.741780 0.000000 0.000000 
#    y 0.000000 1.729530 0.000000 
#    z 0.000000 0.000000 1.693230 
# 
# From -- ./inp_files/36980.got.cif
#   From: 2010.03.12/outbox.cif.g09.slc.cpg/sg64_19_cif.got.tgz:36980.got - 2010.04.10 20:19:32.
