data_PCOD8262854
_publ_section_title
;
Structure prediction by ZEFSAII (Michael W. Deem and Ramdas Pophale) SiO2 
 PCOD8262854
Probable space group: C M C A
;
_chemical_formula_sum "Si O2"
_cell_formula_units_Z 80
_cell_length_a 23.632322
_cell_length_b 34.359080
_cell_length_c 4.896886
_cell_angle_alpha 90.000000
_cell_angle_beta 90.000000
_cell_angle_gamma 90.000000
_cell_volume 3976.197206
_symmetry_space_group_name_H-M "C M C A"
_symmetry_group_IT_number 64
_symmetry_cell_setting 'orthorhombic'
loop_
_space_group_symop_operation_xyz
x,y,z
-x,1/2-y,1/2+z
x,-y,-z
-x,1/2+y,1/2-z
-x,-y,-z
x,1/2+y,1/2-z
-x,y,z
x,1/2-y,1/2+z
1/2+x,1/2+y,z
1/2-x,-y,1/2+z
1/2+x,1/2-y,-z
1/2-x,y,1/2-z
1/2-x,1/2-y,-z
1/2+x,y,1/2-z
1/2-x,1/2+y,z
1/2+x,-y,1/2+z
loop_
_atom_site_type_symbol
_atom_site_label
_atom_site_fract_x
_atom_site_fract_y
_atom_site_fract_z
Si Si1 0.435257 0.114948 0.670115
Si Si2 0.815035 0.775416 0.757907
Si Si3 0.807273 0.927425 0.587244
Si Si4 0.372088 0.355264 0.656041
Si Si5 0.131528 0.956393 0.083237
O O1 0.500000 0.119718 0.581482
O O2 0.392115 0.133753 0.457297
O O3 0.420634 0.068677 0.706249
O O4 0.424691 0.137694 0.952758
O O5 0.828216 0.738670 0.563419
O O6 0.750000 0.789083 0.750000
O O7 0.854443 0.810589 0.663967
O O8 0.750000 0.937410 0.750000
O O9 0.817941 0.881075 0.546924
O O10 0.815160 0.951194 0.299056
O O11 0.857181 0.939262 0.786865
O O12 0.115063 0.000000 0.000000
#
# Coordination Sequence:
#
# PCOD8262854 Si02
#       5
#    16  16  16  16  16
#     4  10  21  37  58  79 102 142 187 230 278 318
#     4  10  20  34  56  86 116 145 175 213 268 325
#     4  10  20  34  53  77 107 145 180 214 265 327
#     4  10  20  36  57  80 109 140 181 228 266 323
#     4  10  21  35  52  78 108 138 180 227 271 321
#
# _framework density 20.119724999999999
#
# number of rings (size 3 to 8) (size 9 to 14) (size 15 to 20)
#    0.000    2.000    0.000    3.600    0.000    2.000 
#    0.000    6.000    0.000   19.200    0.000    0.000 
#    0.000    0.000    0.000    0.000    0.000    0.000 
#
# Total GULP energy -495613.522336 kJ/mol
# GULP energy per Si atom -12390.338058 kJ/mol
# Density = 2.007393 g / cm^3
# Si number density = 20.119725 Si / 1000 Ang^3
#
#
#
# Elastic Constant Matrix: (Units=GPa)
#
#
# Indices 1 2 3 4 5 6 
#
# 1 64.7451 44.5504 8.7649 0.0000 0.0000 0.0000
# 2 44.5504 120.9945 25.8762 0.0000 0.0000 0.0000
# 3 8.7649 25.8762 94.9381 0.0000 0.0000 0.0000
# 4 0.0000 0.0000 0.0000 26.5608 0.0000 0.0000
# 5 0.0000 0.0000 0.0000 0.0000 25.2528 0.0000
# 6 0.0000 0.0000 0.0000 0.0000 0.0000 12.1355
#
#
#
# Elastic Compliance Matrix: (Units=1/GPa)
#
#
# Indices 1 2 3 4 5 6 
#
# 1 0.020689 -0.007655 0.000177 0.000000 0.000000 0.000000
# 2 -0.007655 0.011609 -0.002457 0.000000 0.000000 0.000000
# 3 0.000177 -0.002457 0.011187 0.000000 0.000000 0.000000
# 4 0.000000 0.000000 0.000000 0.037650 0.000000 0.000000
# 5 0.000000 0.000000 0.000000 0.000000 0.039599 0.000000
# 6 0.000000 0.000000 0.000000 0.000000 0.000000 0.082403
#
#
# Mechanical properties :
#
#
# Convention : Reuss Voigt Hill
#
# Bulk Modulus (GPa) = 42.35125 48.78451 45.56788
# Shear Modulus (GPa) = 21.65625 26.22223 23.93924
#
# Velocity S-wave (km/s) = 3.28437 3.61405 3.45315
# Velocity P-wave (km/s) = 5.95635 6.45871 6.21261
#
# Compressibility (1/GPa) = 0.02361205
#
# Stress axis : x y z
#
# Youngs Moduli (GPa) = 48.33499 86.13897 89.39215
#
# Poissons Ratio (x) = 0.65943 -0.01578
# Poissons Ratio (y) = 0.37003 0.21967
# Poissons Ratio (z) = -0.00853 0.21168
#
# Static dielectric constant tensor:
#      x y z
#    x 3.238720 0.000000 0.000000 
#    y 0.000000 3.718660 0.000000 
#    z 0.000000 0.000000 3.845090 
# 
# 
# High freq. dielectric constant tensor:
#      x y z
#    x 1.746700 0.000000 0.000000 
#    y 0.000000 1.777450 0.000000 
#    z 0.000000 0.000000 1.809000 
# 
# From -- ./inp_files/2344.got.cif
#   From: 2010.03.12/outbox.cif.g09.slc.cpg/sg64_2_cif.got.tgz:2344.got - 2010.04.10 20:19:32.
