data_PCOD8262057
_publ_section_title
;
Structure prediction by ZEFSAII (Michael W. Deem and Ramdas Pophale) SiO2 
 PCOD8262057
Probable space group: C M C A
;
_chemical_formula_sum "Si O2"
_cell_formula_units_Z 96
_cell_length_a 9.082124
_cell_length_b 25.162213
_cell_length_c 25.286087
_cell_angle_alpha 90.000000
_cell_angle_beta 90.000000
_cell_angle_gamma 90.000000
_cell_volume 5778.536879
_symmetry_space_group_name_H-M "C M C A"
_symmetry_group_IT_number 64
_symmetry_cell_setting 'orthorhombic'
loop_
_space_group_symop_operation_xyz
x,y,z
-x,1/2-y,1/2+z
x,-y,-z
-x,1/2+y,1/2-z
-x,-y,-z
x,1/2+y,1/2-z
-x,y,z
x,1/2-y,1/2+z
1/2+x,1/2+y,z
1/2-x,-y,1/2+z
1/2+x,1/2-y,-z
1/2-x,y,1/2-z
1/2-x,1/2-y,-z
1/2+x,y,1/2-z
1/2-x,1/2+y,z
1/2+x,-y,1/2+z
loop_
_atom_site_type_symbol
_atom_site_label
_atom_site_fract_x
_atom_site_fract_y
_atom_site_fract_z
Si Si1 0.672675 0.858922 0.193794
Si Si2 0.171395 0.059122 0.392788
Si Si3 0.673629 0.628578 0.193114
Si Si4 0.329232 0.065340 0.898427
Si Si5 0.831608 0.256406 0.695919
Si Si6 0.834124 0.436916 0.502535
O O1 0.500000 0.866644 0.203419
O O2 0.750000 0.867841 0.250000
O O3 0.730884 0.902217 0.152066
O O4 0.708521 0.800073 0.168268
O O5 0.254029 0.084920 0.343811
O O6 0.240453 0.081857 0.446920
O O7 0.000000 0.073912 0.391855
O O8 0.197599 0.996435 0.387442
O O9 0.500000 0.616979 0.199012
O O10 0.750000 0.624482 0.250000
O O11 0.702076 0.687511 0.166348
O O12 0.500000 0.077404 0.909207
O O13 0.240360 0.085735 0.949541
O O14 0.750000 0.258506 0.750000
O O15 0.000000 0.255191 0.711801
O O16 0.833831 0.500000 0.500000
O O17 0.000000 0.414648 0.507312
#
# Coordination Sequence:
#
# PCOD8262057 Si02
#       6
#    16  16  16  16  16  16
#     4   9  17  30  47  68  93 120 150 184 224 268
#     4  10  19  31  47  68  94 123 152 184 225 271
#     4  10  19  31  47  68  93 121 153 188 226 267
#     4   9  18  31  47  68  94 122 150 183 226 273
#     4   8  15  28  46  65  86 115 151 188 222 260
#     4   9  17  30  48  68  89 117 154 191 224 263
#
# _framework density 16.613202000000001
#
# number of rings (size 3 to 8) (size 9 to 14) (size 15 to 20)
#    0.000    2.833    0.000    1.500    0.000    4.667 
#    0.000    1.667    0.000    1.000    0.000    0.000 
#    0.000    0.000    0.000    0.000    0.000    0.000 
#
# Total GULP energy -594708.251109 kJ/mol
# GULP energy per Si atom -12389.755231 kJ/mol
# Density = 1.657539 g / cm^3
# Si number density = 16.613202 Si / 1000 Ang^3
#
#
#
# Elastic Constant Matrix: (Units=GPa)
#
#
# Indices 1 2 3 4 5 6 
#
# 1 90.0564 44.0853 56.9812 0.0000 0.0000 0.0000
# 2 44.0853 67.7481 53.4822 0.0000 0.0000 0.0000
# 3 56.9812 53.4822 113.4947 0.0000 0.0000 0.0000
# 4 0.0000 0.0000 0.0000 2.8506 0.0000 0.0000
# 5 0.0000 0.0000 0.0000 0.0000 31.4041 0.0000
# 6 0.0000 0.0000 0.0000 0.0000 0.0000 20.1169
#
#
#
# Elastic Compliance Matrix: (Units=1/GPa)
#
#
# Indices 1 2 3 4 5 6 
#
# 1 0.018360 -0.007437 -0.005713 0.000000 0.000000 0.000000
# 2 -0.007437 0.026517 -0.008762 0.000000 0.000000 0.000000
# 3 -0.005713 -0.008762 0.015808 0.000000 0.000000 0.000000
# 4 0.000000 0.000000 0.000000 0.350798 0.000000 0.000000
# 5 0.000000 0.000000 0.000000 0.000000 0.031843 0.000000
# 6 0.000000 0.000000 0.000000 0.000000 0.000000 0.049710
#
#
# Mechanical properties :
#
#
# Convention : Reuss Voigt Hill
#
# Bulk Modulus (GPa) = 59.30886 64.48852 61.89869
# Shear Modulus (GPa) = 9.21695 18.65769 13.93732
#
# Velocity S-wave (km/s) = 2.35797 3.35485 2.89957
# Velocity P-wave (km/s) = 6.57196 7.34225 6.96776
#
# Compressibility (1/GPa) = 0.01686089
#
# Stress axis : x y z
#
# Youngs Moduli (GPa) = 54.46738 37.71214 63.25879
#
# Poissons Ratio (x) = 0.28046 0.36140
# Poissons Ratio (y) = 0.40507 0.55425
# Poissons Ratio (z) = 0.31118 0.33042
#
# Static dielectric constant tensor:
#      x y z
#    x 3.233000 0.000000 0.000000 
#    y 0.000000 3.554870 0.000000 
#    z 0.000000 0.000000 2.995250 
# 
# 
# High freq. dielectric constant tensor:
#      x y z
#    x 1.651150 0.000000 0.000000 
#    y 0.000000 1.629520 0.000000 
#    z 0.000000 0.000000 1.619100 
# 
# From -- ./inp_files/36995.got.cif
#   From: 2010.03.12/outbox.cif.g09.slc.cpg/sg64_19_cif.got.tgz:36995.got - 2010.04.10 20:19:32.
