data_PCOD8262034
_publ_section_title
;
Structure prediction by ZEFSAII (Michael W. Deem and Ramdas Pophale) SiO2 
 PCOD8262034
Probable space group: C M C A
;
_chemical_formula_sum "Si O2"
_cell_formula_units_Z 80
_cell_length_a 8.773178
_cell_length_b 25.124309
_cell_length_c 21.026650
_cell_angle_alpha 90.000000
_cell_angle_beta 90.000000
_cell_angle_gamma 90.000000
_cell_volume 4634.694929
_symmetry_space_group_name_H-M "C M C A"
_symmetry_group_IT_number 64
_symmetry_cell_setting 'orthorhombic'
loop_
_space_group_symop_operation_xyz
x,y,z
-x,1/2-y,1/2+z
x,-y,-z
-x,1/2+y,1/2-z
-x,-y,-z
x,1/2+y,1/2-z
-x,y,z
x,1/2-y,1/2+z
1/2+x,1/2+y,z
1/2-x,-y,1/2+z
1/2+x,1/2-y,-z
1/2-x,y,1/2-z
1/2-x,1/2-y,-z
1/2+x,y,1/2-z
1/2-x,1/2+y,z
1/2+x,-y,1/2+z
loop_
_atom_site_type_symbol
_atom_site_label
_atom_site_fract_x
_atom_site_fract_y
_atom_site_fract_z
Si Si1 0.822117 0.317318 0.946726
Si Si2 0.680233 0.425923 0.948513
Si Si3 0.820089 0.460311 0.413713
Si Si4 0.821997 0.788255 0.410225
Si Si5 0.319543 0.872106 0.319192
O O1 0.767750 0.374686 0.921220
O O2 0.731298 0.272882 0.907272
O O3 0.000000 0.309263 0.934415
O O4 0.780676 0.312780 0.021206
O O5 0.500000 0.415121 0.947147
O O6 0.725054 0.477468 0.905627
O O7 0.741598 0.437121 0.019741
O O8 0.756825 0.424805 0.355712
O O9 0.000000 0.455939 0.417240
O O10 0.730956 0.819692 0.356539
O O11 0.000000 0.791731 0.395392
O O12 0.500000 0.872601 0.314008
O O13 0.250000 0.872045 0.250000
#
# Coordination Sequence:
#
# PCOD8262034 Si02
#       5
#    16  16  16  16  16
#     4  10  19  30  48  76 106 132 161 209 263 306
#     4   9  15  29  51  74  99 131 166 206 253 304
#     4   8  16  29  49  73  99 131 169 205 247 299
#     4  10  20  33  49  72 101 135 172 207 252 305
#     4  11  21  35  53  74 102 136 171 209 248 295
#
# _framework density 17.261113000000002
#
# number of rings (size 3 to 8) (size 9 to 14) (size 15 to 20)
#    0.000    2.400    2.000    3.000    0.000    1.600 
#    0.000    4.000    0.000    1.200    0.000    5.600 
#    0.000    0.000    0.000    0.000    0.000    0.000 
#
# Total GULP energy -495929.793234 kJ/mol
# GULP energy per Si atom -12398.244831 kJ/mol
# Density = 1.722183 g / cm^3
# Si number density = 17.261113 Si / 1000 Ang^3
#
#
#
# Elastic Constant Matrix: (Units=GPa)
#
#
# Indices 1 2 3 4 5 6 
#
# 1 53.4604 32.3601 28.2715 0.0000 0.0000 0.0000
# 2 32.3601 148.7219 51.6019 0.0000 0.0000 0.0000
# 3 28.2715 51.6019 86.4475 0.0000 0.0000 0.0000
# 4 0.0000 0.0000 0.0000 13.5145 0.0000 0.0000
# 5 0.0000 0.0000 0.0000 0.0000 19.9380 0.0000
# 6 0.0000 0.0000 0.0000 0.0000 0.0000 29.4312
#
#
#
# Elastic Compliance Matrix: (Units=1/GPa)
#
#
# Indices 1 2 3 4 5 6 
#
# 1 0.023707 -0.003113 -0.005895 0.000000 0.000000 0.000000
# 2 -0.003113 0.008889 -0.004288 0.000000 0.000000 0.000000
# 3 -0.005895 -0.004288 0.016055 0.000000 0.000000 0.000000
# 4 0.000000 0.000000 0.000000 0.073994 0.000000 0.000000
# 5 0.000000 0.000000 0.000000 0.000000 0.050156 0.000000
# 6 0.000000 0.000000 0.000000 0.000000 0.000000 0.033978
#
#
# Mechanical properties :
#
#
# Convention : Reuss Voigt Hill
#
# Bulk Modulus (GPa) = 45.33175 57.01075 51.17125
# Shear Modulus (GPa) = 20.77068 24.33650 22.55359
#
# Velocity S-wave (km/s) = 3.47266 3.75894 3.61863
# Velocity P-wave (km/s) = 6.51141 7.20692 6.86797
#
# Compressibility (1/GPa) = 0.02205959
#
# Stress axis : x y z
#
# Youngs Moduli (GPa) = 42.18129 112.49719 62.28546
#
# Poissons Ratio (x) = 0.35021 0.36717
# Poissons Ratio (y) = 0.13131 0.26708
# Poissons Ratio (z) = 0.24865 0.48238
#
# Static dielectric constant tensor:
#      x y z
#    x 3.032830 0.000000 0.000000 
#    y 0.000000 3.471960 0.000000 
#    z 0.000000 0.000000 2.994400 
# 
# 
# High freq. dielectric constant tensor:
#      x y z
#    x 1.658060 0.000000 0.000000 
#    y 0.000000 1.683520 0.000000 
#    z 0.000000 0.000000 1.619840 
# 
# From -- ./inp_files/29805.got.cif
#   From: 2010.03.12/outbox.cif.g09.slc.cpg/sg64_15_cif.got.tgz:29805.got - 2010.04.10 20:19:32.
