data_PCOD8262474
_publ_section_title
;
Structure prediction by ZEFSAII (Michael W. Deem and Ramdas Pophale) SiO2 
 PCOD8262474
Probable space group: C M C A
;
_chemical_formula_sum "Si O2"
_cell_formula_units_Z 80
_cell_length_a 16.653166
_cell_length_b 26.565368
_cell_length_c 8.683673
_cell_angle_alpha 90.000000
_cell_angle_beta 90.000000
_cell_angle_gamma 90.000000
_cell_volume 3841.635080
_symmetry_space_group_name_H-M "C M C A"
_symmetry_group_IT_number 64
_symmetry_cell_setting 'orthorhombic'
loop_
_space_group_symop_operation_xyz
x,y,z
-x,1/2-y,1/2+z
x,-y,-z
-x,1/2+y,1/2-z
-x,-y,-z
x,1/2+y,1/2-z
-x,y,z
x,1/2-y,1/2+z
1/2+x,1/2+y,z
1/2-x,-y,1/2+z
1/2+x,1/2-y,-z
1/2-x,y,1/2-z
1/2-x,1/2-y,-z
1/2+x,y,1/2-z
1/2-x,1/2+y,z
1/2+x,-y,1/2+z
loop_
_atom_site_type_symbol
_atom_site_label
_atom_site_fract_x
_atom_site_fract_y
_atom_site_fract_z
Si Si1 0.162394 0.297827 0.827782
Si Si2 0.835880 0.494475 0.320301
Si Si3 0.160924 0.696690 0.809303
Si Si4 0.658845 0.603499 0.192121
Si Si5 0.408636 0.393606 0.136851
O O1 0.250000 0.298540 0.750000
O O2 0.120647 0.246803 0.765835
O O3 0.115424 0.349064 0.776142
O O4 0.165322 0.295873 0.009651
O O5 0.821328 0.500000 0.500000
O O6 0.750000 0.482309 0.250000
O O7 0.875102 0.547864 0.262394
O O8 0.894496 0.447958 0.282362
O O9 0.250000 0.686827 0.750000
O O10 0.106709 0.649224 0.763436
O O11 0.750000 0.603281 0.250000
O O12 0.650976 0.612868 0.008644
O O13 0.500000 0.390816 0.078423
#
# Coordination Sequence:
#
# PCOD8262474 Si02
#       5
#    16  16  16  16  16
#     4  10  19  34  59  89 114 144 194 247 292 340
#     4   9  19  34  58  86 114 151 196 242 288 346
#     4  11  20  35  60  86 116 152 195 241 288 350
#     4   9  18  36  59  87 117 150 198 244 291 349
#     4  11  23  38  57  86 124 161 196 240 296 351
#
# _framework density 20.824466000000001
#
# number of rings (size 3 to 8) (size 9 to 14) (size 15 to 20)
#    0.000    2.000    0.000    6.600    0.000    8.400 
#    0.000    5.000    0.000    4.200    0.000    0.000 
#    0.000    0.000    0.000    0.000    0.000    0.000 
#
# Total GULP energy -495598.335577 kJ/mol
# GULP energy per Si atom -12389.958389 kJ/mol
# Density = 2.077707 g / cm^3
# Si number density = 20.824466 Si / 1000 Ang^3
#
#
#
# Elastic Constant Matrix: (Units=GPa)
#
#
# Indices 1 2 3 4 5 6 
#
# 1 53.7697 38.2539 26.6590 0.0000 0.0000 0.0000
# 2 38.2539 225.7097 76.7798 0.0000 0.0000 0.0000
# 3 26.6590 76.7798 127.4779 0.0000 0.0000 0.0000
# 4 0.0000 0.0000 0.0000 34.8510 0.0000 0.0000
# 5 0.0000 0.0000 0.0000 0.0000 13.5618 0.0000
# 6 0.0000 0.0000 0.0000 0.0000 0.0000 1.7864
#
#
#
# Elastic Compliance Matrix: (Units=1/GPa)
#
#
# Indices 1 2 3 4 5 6 
#
# 1 0.022003 -0.002721 -0.002962 0.000000 0.000000 0.000000
# 2 -0.002721 0.005909 -0.002990 0.000000 0.000000 0.000000
# 3 -0.002962 -0.002990 0.010265 0.000000 0.000000 0.000000
# 4 0.000000 0.000000 0.000000 0.028694 0.000000 0.000000
# 5 0.000000 0.000000 0.000000 0.000000 0.073736 0.000000
# 6 0.000000 0.000000 0.000000 0.000000 0.000000 0.559769
#
#
# Mechanical properties :
#
#
# Convention : Reuss Voigt Hill
#
# Bulk Modulus (GPa) = 48.00918 76.70474 62.35696
# Shear Modulus (GPa) = 6.89974 27.72417 17.31195
#
# Velocity S-wave (km/s) = 1.82222 3.65269 2.88640
# Velocity P-wave (km/s) = 5.24705 7.39618 6.41229
#
# Compressibility (1/GPa) = 0.02082935
#
# Stress axis : x y z
#
# Youngs Moduli (GPa) = 45.44909 169.24193 97.42157
#
# Poissons Ratio (x) = 0.46057 0.28859
# Poissons Ratio (y) = 0.12369 0.29126
# Poissons Ratio (z) = 0.13463 0.50598
#
# Static dielectric constant tensor:
#      x y z
#    x 3.199930 0.000000 0.000000 
#    y 0.000000 5.438300 0.000000 
#    z 0.000000 0.000000 3.843820 
# 
# 
# High freq. dielectric constant tensor:
#      x y z
#    x 1.751350 0.000000 0.000000 
#    y 0.000000 1.859960 0.000000 
#    z 0.000000 0.000000 1.807790 
# 
# From -- ./inp_files/8601.got.cif
#   From: 2010.03.12/outbox.cif.g09.slc.cpg/sg64_5_cif.got.tgz:8601.got - 2010.04.10 20:19:32.
