data_PCOD8262707
_publ_section_title
;
Structure prediction by ZEFSAII (Michael W. Deem and Ramdas Pophale) SiO2 
 PCOD8262707
Probable space group: C M C A
;
_chemical_formula_sum "Si O2"
_cell_formula_units_Z 56
_cell_length_a 22.697336
_cell_length_b 26.785279
_cell_length_c 5.138645
_cell_angle_alpha 90.000000
_cell_angle_beta 90.000000
_cell_angle_gamma 90.000000
_cell_volume 3124.062235
_symmetry_space_group_name_H-M "C M C A"
_symmetry_group_IT_number 64
_symmetry_cell_setting 'orthorhombic'
loop_
_space_group_symop_operation_xyz
x,y,z
-x,1/2-y,1/2+z
x,-y,-z
-x,1/2+y,1/2-z
-x,-y,-z
x,1/2+y,1/2-z
-x,y,z
x,1/2-y,1/2+z
1/2+x,1/2+y,z
1/2-x,-y,1/2+z
1/2+x,1/2-y,-z
1/2-x,y,1/2-z
1/2-x,1/2-y,-z
1/2+x,y,1/2-z
1/2-x,1/2+y,z
1/2+x,-y,1/2+z
loop_
_atom_site_type_symbol
_atom_site_label
_atom_site_fract_x
_atom_site_fract_y
_atom_site_fract_z
Si Si1 0.932115 0.218127 0.448061
Si Si2 0.138837 0.943527 0.004080
Si Si3 0.864357 0.883497 0.483810
Si Si4 0.250000 0.590263 0.750000
O O1 0.916944 0.257825 0.671224
O O2 0.892009 0.170207 0.481612
O O3 0.000000 0.201515 0.465283
O O4 0.123766 0.917206 0.734421
O O5 0.106762 0.912549 0.236706
O O6 0.209452 0.944022 0.061592
O O7 0.115069 0.000000 0.000000
O O8 0.793974 0.876184 0.428803
#
# Coordination Sequence:
#
# PCOD8262707 Si02
#       4
#    16  16  16   8
#     4  10  21  39  61  78  96 134 183 224 265 310
#     4  10  20  31  53  79 110 144 175 204 250 312
#     4  10  20  33  52  80 110 132 179 219 256 304
#     4   8  22  28  54  78 110 144 172 208 256 304
#
# _framework density 17.925379
#
# number of rings (size 3 to 8) (size 9 to 14) (size 15 to 20)
#    1.714    0.571    0.000    3.429    4.000    0.000 
#    0.000    1.429    0.000    5.143    0.000    0.000 
#    0.000    0.000    0.000    0.000    0.000    0.000 
#
# Total GULP energy -346921.303081 kJ/mol
# GULP energy per Si atom -12390.046539 kJ/mol
# Density = 1.788458 g / cm^3
# Si number density = 17.925379 Si / 1000 Ang^3
#
#
#
# Elastic Constant Matrix: (Units=GPa)
#
#
# Indices 1 2 3 4 5 6 
#
# 1 25.0529 31.1575 10.5618 0.0000 0.0000 0.0000
# 2 31.1575 95.0114 16.7682 0.0000 0.0000 0.0000
# 3 10.5618 16.7682 106.2760 0.0000 0.0000 0.0000
# 4 0.0000 0.0000 0.0000 24.0290 0.0000 0.0000
# 5 0.0000 0.0000 0.0000 0.0000 12.5858 0.0000
# 6 0.0000 0.0000 0.0000 0.0000 0.0000 -211.9065
#
#
#
# Elastic Compliance Matrix: (Units=1/GPa)
#
#
# Indices 1 2 3 4 5 6 
#
# 1 0.068553 -0.021888 -0.003359 0.000000 0.000000 0.000000
# 2 -0.021888 0.017815 -0.000636 0.000000 0.000000 0.000000
# 3 -0.003359 -0.000636 0.009844 0.000000 0.000000 0.000000
# 4 0.000000 0.000000 0.000000 0.041616 0.000000 0.000000
# 5 0.000000 0.000000 0.000000 0.000000 0.079454 0.000000
# 6 0.000000 0.000000 0.000000 0.000000 0.000000 -0.004719
#
#
# Mechanical properties :
#
#
# Convention : Reuss Voigt Hill
#
# Bulk Modulus (GPa) = 22.49928 38.14615 30.32271
# Shear Modulus (GPa) = 17.91180 -23.86814 -2.97817
#
# Velocity S-wave (km/s) = 3.16451 -3.65297 -1.29036
# Velocity P-wave (km/s) = 5.09225 1.88002 3.83833
#
# Compressibility (1/GPa) = 0.04444587
#
# Stress axis : x y z
#
# Youngs Moduli (GPa) = 14.58715 56.13212 101.58881
#
# Poissons Ratio (x) = 1.22863 0.34128
# Poissons Ratio (y) = 0.31929 0.06457
# Poissons Ratio (z) = 0.04900 0.03568
#
# Static dielectric constant tensor:
#      x y z
#    x 3.034370 0.000000 0.000000 
#    y 0.000000 3.119830 0.000000 
#    z 0.000000 0.000000 3.555880 
# 
# 
# High freq. dielectric constant tensor:
#      x y z
#    x 1.655390 0.000000 0.000000 
#    y 0.000000 1.682880 0.000000 
#    z 0.000000 0.000000 1.716640 
# 
# From -- ./inp_files/2170.got.cif
#   From: 2010.03.12/outbox.cif.g09.slc.cpg/sg64_2_cif.got.tgz:2170.got - 2010.04.10 20:19:32.
