data_PCOD8262626
_publ_section_title
;
Structure prediction by ZEFSAII (Michael W. Deem and Ramdas Pophale) SiO2 
 PCOD8262626
Probable space group: C M C A
;
_chemical_formula_sum "Si O2"
_cell_formula_units_Z 72
_cell_length_a 21.665965
_cell_length_b 13.328464
_cell_length_c 13.441006
_cell_angle_alpha 90.000000
_cell_angle_beta 90.000000
_cell_angle_gamma 90.000000
_cell_volume 3881.413531
_symmetry_space_group_name_H-M "C M C A"
_symmetry_group_IT_number 64
_symmetry_cell_setting 'orthorhombic'
loop_
_space_group_symop_operation_xyz
x,y,z
-x,1/2-y,1/2+z
x,-y,-z
-x,1/2+y,1/2-z
-x,-y,-z
x,1/2+y,1/2-z
-x,y,z
x,1/2-y,1/2+z
1/2+x,1/2+y,z
1/2-x,-y,1/2+z
1/2+x,1/2-y,-z
1/2-x,y,1/2-z
1/2-x,1/2-y,-z
1/2+x,y,1/2-z
1/2-x,1/2+y,z
1/2+x,-y,1/2+z
loop_
_atom_site_type_symbol
_atom_site_label
_atom_site_fract_x
_atom_site_fract_y
_atom_site_fract_z
Si Si1 0.786396 0.839506 0.614838
Si Si2 0.646868 0.161568 0.715234
Si Si3 0.250000 0.511768 0.750000
Si Si4 0.659300 0.234917 0.923235
Si Si5 0.071682 0.611795 0.533918
O O1 0.830006 0.769598 0.680430
O O2 0.716740 0.799576 0.615202
O O3 0.815515 0.844766 0.504505
O O4 0.785055 0.948162 0.665384
O O5 0.700396 0.080999 0.694578
O O6 0.630005 0.171212 0.832191
O O7 0.588187 0.126558 0.650452
O O8 0.608432 0.309421 0.966701
O O9 0.089264 0.500000 0.500000
O O10 0.000000 0.633776 0.518733
#
# Coordination Sequence:
#
# PCOD8262626 Si02
#       5
#    16  16   8  16  16
#     4  10  20  33  51  87 119 147 187 225 294 359
#     4  11  21  36  56  88 117 150 193 235 292 352
#     4  12  18  32  56  84 124 152 176 232 292 356
#     4  10  19  37  55  80 121 147 188 243 286 351
#     4  10  23  40  60  84 110 155 209 245 286 346
#
# _framework density 18.549942999999999
#
# number of rings (size 3 to 8) (size 9 to 14) (size 15 to 20)
#    0.000    1.556    4.444    1.333    0.000    1.778 
#    0.000    0.000    0.000    0.000    0.000    4.667 
#    0.000    0.000    0.000    0.000    0.000    0.000 
#
# Total GULP energy -446393.282450 kJ/mol
# GULP energy per Si atom -12399.813401 kJ/mol
# Density = 1.850772 g / cm^3
# Si number density = 18.549943 Si / 1000 Ang^3
#
#
#
# Elastic Constant Matrix: (Units=GPa)
#
#
# Indices 1 2 3 4 5 6 
#
# 1 54.5996 6.2672 15.8918 0.0000 0.0000 0.0000
# 2 6.2672 59.3882 24.7426 0.0000 0.0000 0.0000
# 3 15.8918 24.7426 124.6111 0.0000 0.0000 0.0000
# 4 0.0000 0.0000 0.0000 21.9844 0.0000 0.0000
# 5 0.0000 0.0000 0.0000 0.0000 -2.6399 0.0000
# 6 0.0000 0.0000 0.0000 0.0000 0.0000 26.5251
#
#
#
# Elastic Compliance Matrix: (Units=1/GPa)
#
#
# Indices 1 2 3 4 5 6 
#
# 1 0.019086 -0.001090 -0.002218 0.000000 0.000000 0.000000
# 2 -0.001090 0.018419 -0.003518 0.000000 0.000000 0.000000
# 3 -0.002218 -0.003518 0.009006 0.000000 0.000000 0.000000
# 4 0.000000 0.000000 0.000000 0.045487 0.000000 0.000000
# 5 0.000000 0.000000 0.000000 0.000000 -0.378800 0.000000
# 6 0.000000 0.000000 0.000000 0.000000 0.000000 0.037700
#
#
# Mechanical properties :
#
#
# Convention : Reuss Voigt Hill
#
# Bulk Modulus (GPa) = 30.43282 36.93355 33.68318
# Shear Modulus (GPa) = -22.27201 21.95373 -0.15914
#
# Velocity S-wave (km/s) = -3.46880 3.44393 -0.29322
# Velocity P-wave (km/s) = 0.63092 5.98061 4.25240
#
# Compressibility (1/GPa) = 0.03285926
#
# Stress axis : x y z
#
# Youngs Moduli (GPa) = 52.39515 54.29113 111.03275
#
# Poissons Ratio (x) = 0.05919 0.24622
# Poissons Ratio (y) = 0.05712 0.39064
# Poissons Ratio (z) = 0.11619 0.19101
#
# Static dielectric constant tensor:
#      x y z
#    x 3.141320 0.000000 0.000000 
#    y 0.000000 3.353470 0.000000 
#    z 0.000000 0.000000 3.761410 
# 
# 
# High freq. dielectric constant tensor:
#      x y z
#    x 1.688240 0.000000 0.000000 
#    y 0.000000 1.715660 0.000000 
#    z 0.000000 0.000000 1.738820 
# 
# From -- ./inp_files/27002.got.cif
#   From: 2010.03.12/outbox.cif.g09.slc.cpg/sg64_14_cif.got.tgz:27002.got - 2010.04.10 20:19:32.
