data_PCOD8262671
_publ_section_title
;
Structure prediction by ZEFSAII (Michael W. Deem and Ramdas Pophale) SiO2 
 PCOD8262671
Probable space group: C M C A
;
_chemical_formula_sum "Si O2"
_cell_formula_units_Z 112
_cell_length_a 24.257700
_cell_length_b 14.158473
_cell_length_c 14.859455
_cell_angle_alpha 90.000000
_cell_angle_beta 90.000000
_cell_angle_gamma 90.000000
_cell_volume 5103.509397
_symmetry_space_group_name_H-M "C M C A"
_symmetry_group_IT_number 64
_symmetry_cell_setting 'orthorhombic'
loop_
_space_group_symop_operation_xyz
x,y,z
-x,1/2-y,1/2+z
x,-y,-z
-x,1/2+y,1/2-z
-x,-y,-z
x,1/2+y,1/2-z
-x,y,z
x,1/2-y,1/2+z
1/2+x,1/2+y,z
1/2-x,-y,1/2+z
1/2+x,1/2-y,-z
1/2-x,y,1/2-z
1/2-x,1/2-y,-z
1/2+x,y,1/2-z
1/2-x,1/2+y,z
1/2+x,-y,1/2+z
loop_
_atom_site_type_symbol
_atom_site_label
_atom_site_fract_x
_atom_site_fract_y
_atom_site_fract_z
Si Si1 0.061693 0.347218 0.889582
Si Si2 0.750685 0.407977 0.439122
Si Si3 0.699725 0.033213 0.300286
Si Si4 0.126007 0.353119 0.061619
Si Si5 0.437270 0.869139 0.392183
Si Si6 0.406043 0.480436 0.283670
Si Si7 0.351778 0.852439 0.538505
O O1 0.076921 0.239211 0.862262
O O2 0.064477 0.419683 0.805736
O O3 0.000000 0.348484 0.929435
O O4 0.104396 0.386639 0.964097
O O5 0.747328 0.500000 0.500000
O O6 0.773596 0.438899 0.342273
O O7 0.691218 0.363580 0.429385
O O8 0.794598 0.335042 0.483673
O O9 0.750000 0.090418 0.250000
O O10 0.663307 0.089896 0.372272
O O11 0.658856 0.000106 0.222647
O O12 0.088675 0.405132 0.135600
O O13 0.116827 0.241279 0.070709
O O14 0.500000 0.876823 0.427623
O O15 0.431302 0.937443 0.306690
O O16 0.395352 0.904105 0.470901
#
# Coordination Sequence:
#
# PCOD8262671 Si02
#       7
#    16  16  16  16  16  16  16
#     4  10  24  44  66  94 134 174 221 275 329 393
#     4  10  19  38  62  89 124 168 209 259 328 385
#     4  11  23  41  62  95 135 168 212 273 333 394
#     4  11  23  39  64  97 128 176 218 267 335 402
#     4  10  23  45  68  96 131 174 227 278 324 392
#     4  12  23  39  67  98 131 172 222 271 335 389
#     4  10  23  42  64  92 131 175 216 272 333 399
#
# _framework density 21.945684
#
# number of rings (size 3 to 8) (size 9 to 14) (size 15 to 20)
#    0.000    1.429    2.857    2.143    4.000    1.714 
#    2.571    2.143    0.000    0.000    0.000    0.000 
#    0.000    0.000    0.000    0.000    0.000    0.000 
#
# Total GULP energy -694122.605361 kJ/mol
# GULP energy per Si atom -12395.046524 kJ/mol
# Density = 2.189573 g / cm^3
# Si number density = 21.945684 Si / 1000 Ang^3
#
#
#
# Elastic Constant Matrix: (Units=GPa)
#
#
# Indices 1 2 3 4 5 6 
#
# 1 98.8003 19.8715 35.6886 0.0000 0.0000 0.0000
# 2 19.8715 77.3404 46.7658 0.0000 0.0000 0.0000
# 3 35.6886 46.7658 108.4931 0.0000 0.0000 0.0000
# 4 0.0000 0.0000 0.0000 29.7343 0.0000 0.0000
# 5 0.0000 0.0000 0.0000 0.0000 31.8416 0.0000
# 6 0.0000 0.0000 0.0000 0.0000 0.0000 25.1634
#
#
#
# Elastic Compliance Matrix: (Units=1/GPa)
#
#
# Indices 1 2 3 4 5 6 
#
# 1 0.011533 -0.000905 -0.003404 0.000000 0.000000 0.000000
# 2 -0.000905 0.017559 -0.007271 0.000000 0.000000 0.000000
# 3 -0.003404 -0.007271 0.013471 0.000000 0.000000 0.000000
# 4 0.000000 0.000000 0.000000 0.033631 0.000000 0.000000
# 5 0.000000 0.000000 0.000000 0.000000 0.031405 0.000000
# 6 0.000000 0.000000 0.000000 0.000000 0.000000 0.039740
#
#
# Mechanical properties :
#
#
# Convention : Reuss Voigt Hill
#
# Bulk Modulus (GPa) = 51.53749 54.36507 52.95128
# Shear Modulus (GPa) = 28.25384 29.50173 28.87779
#
# Velocity S-wave (km/s) = 3.59199 3.67046 3.63144
# Velocity P-wave (km/s) = 6.38265 6.54136 6.46249
#
# Compressibility (1/GPa) = 0.01940335
#
# Stress axis : x y z
#
# Youngs Moduli (GPa) = 86.70839 56.95066 74.23382
#
# Poissons Ratio (x) = 0.05155 0.25266
# Poissons Ratio (y) = 0.07849 0.53976
# Poissons Ratio (z) = 0.29512 0.41409
#
# Static dielectric constant tensor:
#      x y z
#    x 4.152680 0.000000 0.000000 
#    y 0.000000 3.860920 0.000000 
#    z 0.000000 0.000000 3.923490 
# 
# 
# High freq. dielectric constant tensor:
#      x y z
#    x 1.873940 0.000000 0.000000 
#    y 0.000000 1.850300 0.000000 
#    z 0.000000 0.000000 1.857100 
# 
# From -- ./inp_files/27421.got.cif
#   From: 2010.03.12/outbox.cif.g09.slc.cpg/sg64_14_cif.got.tgz:27421.got - 2010.04.10 20:19:32.
