data_PCOD8262786
_publ_section_title
;
Structure prediction by ZEFSAII (Michael W. Deem and Ramdas Pophale) SiO2 
 PCOD8262786
Probable space group: C M C A
;
_chemical_formula_sum "Si O2"
_cell_formula_units_Z 96
_cell_length_a 8.472823
_cell_length_b 23.499810
_cell_length_c 25.575636
_cell_angle_alpha 90.000000
_cell_angle_beta 90.000000
_cell_angle_gamma 90.000000
_cell_volume 5092.357996
_symmetry_space_group_name_H-M "C M C A"
_symmetry_group_IT_number 64
_symmetry_cell_setting 'orthorhombic'
loop_
_space_group_symop_operation_xyz
x,y,z
-x,1/2-y,1/2+z
x,-y,-z
-x,1/2+y,1/2-z
-x,-y,-z
x,1/2+y,1/2-z
-x,y,z
x,1/2-y,1/2+z
1/2+x,1/2+y,z
1/2-x,-y,1/2+z
1/2+x,1/2-y,-z
1/2-x,y,1/2-z
1/2-x,1/2-y,-z
1/2+x,y,1/2-z
1/2-x,1/2+y,z
1/2+x,-y,1/2+z
loop_
_atom_site_type_symbol
_atom_site_label
_atom_site_fract_x
_atom_site_fract_y
_atom_site_fract_z
Si Si1 0.684938 0.355510 0.906234
Si Si2 0.814166 0.063272 0.000248
Si Si3 0.184859 0.682736 0.693396
Si Si4 0.682013 0.743439 0.943836
Si Si5 0.680678 0.866936 0.096130
Si Si6 0.313898 0.314209 0.692627
O O1 0.500000 0.342410 0.915347
O O2 0.802749 0.303599 0.916677
O O3 0.724704 0.361588 0.844498
O O4 0.740189 0.405622 0.945790
O O5 0.766984 0.094467 0.946800
O O6 0.000000 0.059330 0.000537
O O7 0.739452 0.000000 0.000000
O O8 0.250000 0.668197 0.750000
O O9 0.250591 0.632753 0.655039
O O10 0.227973 0.748167 0.677008
O O11 0.000000 0.676258 0.693975
O O12 0.500000 0.722530 0.942688
O O13 0.796931 0.698532 0.917787
O O14 0.750000 0.750000 0.000000
O O15 0.500000 0.885458 0.096490
O O16 0.500000 0.324609 0.690900
O O17 0.250000 0.326931 0.750000
#
# Coordination Sequence:
#
# PCOD8262786 Si02
#       6
#    16  16  16  16  16  16
#     4  11  21  34  56  82 113 148 185 228 280 338
#     4  10  23  42  61  81 109 148 192 239 289 337
#     4  10  20  34  53  80 117 154 188 225 272 333
#     4  12  22  33  50  79 114 148 183 224 278 338
#     4  12  23  35  56  83 115 151 187 230 280 338
#     4  10  20  33  52  79 116 153 187 224 271 331
#
# _framework density 18.851777999999999
#
# number of rings (size 3 to 8) (size 9 to 14) (size 15 to 20)
#    0.000    1.167    3.333    4.500    0.000    2.333 
#    0.000    0.000    0.000    1.000    0.000    4.667 
#    0.000    0.000    0.000    0.000    0.000    0.000 
#
# Total GULP energy -594672.691648 kJ/mol
# GULP energy per Si atom -12389.014409 kJ/mol
# Density = 1.880887 g / cm^3
# Si number density = 18.851778 Si / 1000 Ang^3
#
#
#
# Elastic Constant Matrix: (Units=GPa)
#
#
# Indices 1 2 3 4 5 6 
#
# 1 34.2376 11.1340 24.0803 0.0000 0.0000 0.0000
# 2 11.1340 91.1653 58.7428 0.0000 0.0000 0.0000
# 3 24.0803 58.7428 140.6628 0.0000 0.0000 0.0000
# 4 0.0000 0.0000 0.0000 12.9736 0.0000 0.0000
# 5 0.0000 0.0000 0.0000 0.0000 32.8318 0.0000
# 6 0.0000 0.0000 0.0000 0.0000 0.0000 15.6646
#
#
#
# Elastic Compliance Matrix: (Units=1/GPa)
#
#
# Indices 1 2 3 4 5 6 
#
# 1 0.033225 -0.000537 -0.005463 0.000000 0.000000 0.000000
# 2 -0.000537 0.015016 -0.006179 0.000000 0.000000 0.000000
# 3 -0.005463 -0.006179 0.010625 0.000000 0.000000 0.000000
# 4 0.000000 0.000000 0.000000 0.077080 0.000000 0.000000
# 5 0.000000 0.000000 0.000000 0.000000 0.030458 0.000000
# 6 0.000000 0.000000 0.000000 0.000000 0.000000 0.063838
#
#
# Mechanical properties :
#
#
# Convention : Reuss Voigt Hill
#
# Bulk Modulus (GPa) = 28.98002 50.44220 39.71111
# Shear Modulus (GPa) = 18.78967 23.76792 21.27879
#
# Velocity S-wave (km/s) = 3.16049 3.55460 3.36332
# Velocity P-wave (km/s) = 5.35950 6.60774 6.01608
#
# Compressibility (1/GPa) = 0.03450653
#
# Stress axis : x y z
#
# Youngs Moduli (GPa) = 30.09783 66.59489 94.11836
#
# Poissons Ratio (x) = 0.03579 0.51421
# Poissons Ratio (y) = 0.01617 0.58155
# Poissons Ratio (z) = 0.16444 0.41149
#
# Static dielectric constant tensor:
#      x y z
#    x 3.383570 0.000000 0.000000 
#    y 0.000000 3.355740 0.000000 
#    z 0.000000 0.000000 3.830350 
# 
# 
# High freq. dielectric constant tensor:
#      x y z
#    x 1.738680 0.000000 0.000000 
#    y 0.000000 1.678070 0.000000 
#    z 0.000000 0.000000 1.760130 
# 
# From -- ./inp_files/48123.got.cif
#   From: 2010.03.12/outbox.cif.g09.slc.cpg/sg64_25_cif.got.tgz:48123.got - 2010.04.10 20:19:32.
