data_PCOD8262785
_publ_section_title
;
Structure prediction by ZEFSAII (Michael W. Deem and Ramdas Pophale) SiO2 
 PCOD8262785
Probable space group: C M C A
;
_chemical_formula_sum "Si O2"
_cell_formula_units_Z 96
_cell_length_a 8.850133
_cell_length_b 24.431974
_cell_length_c 21.856834
_cell_angle_alpha 90.000000
_cell_angle_beta 90.000000
_cell_angle_gamma 90.000000
_cell_volume 4726.020583
_symmetry_space_group_name_H-M "C M C A"
_symmetry_group_IT_number 64
_symmetry_cell_setting 'orthorhombic'
loop_
_space_group_symop_operation_xyz
x,y,z
-x,1/2-y,1/2+z
x,-y,-z
-x,1/2+y,1/2-z
-x,-y,-z
x,1/2+y,1/2-z
-x,y,z
x,1/2-y,1/2+z
1/2+x,1/2+y,z
1/2-x,-y,1/2+z
1/2+x,1/2-y,-z
1/2-x,y,1/2-z
1/2-x,1/2-y,-z
1/2+x,y,1/2-z
1/2-x,1/2+y,z
1/2+x,-y,1/2+z
loop_
_atom_site_type_symbol
_atom_site_label
_atom_site_fract_x
_atom_site_fract_y
_atom_site_fract_z
Si Si1 0.821710 0.455221 0.309973
Si Si2 0.179726 0.926222 0.844385
Si Si3 0.322279 0.740945 0.567509
Si Si4 0.826247 0.870531 0.088315
Si Si5 0.679032 0.692135 0.187733
Si Si6 0.325534 0.944127 0.523966
O O1 0.750000 0.428031 0.250000
O O2 0.759771 0.517607 0.314276
O O3 0.768993 0.418262 0.366639
O O4 0.000000 0.455092 0.305542
O O5 0.236368 0.871114 0.811523
O O6 0.248428 0.925573 0.912688
O O7 0.000000 0.925584 0.845450
O O8 0.500000 0.746805 0.557796
O O9 0.250000 0.750000 0.500000
O O10 0.280264 0.681665 0.594008
O O11 0.267597 0.781454 0.622605
O O12 0.000000 0.854210 0.101804
O O13 0.807229 0.893105 0.020396
O O14 0.500000 0.698286 0.192771
O O15 0.750000 0.718998 0.250000
O O16 0.500000 0.958591 0.536158
O O17 0.246820 0.000000 0.500000
#
# Coordination Sequence:
#
# PCOD8262785 Si02
#       6
#    16  16  16  16  16  16
#     4  10  20  33  52  79 111 147 185 225 277 336
#     4   9  16  30  53  82 112 142 182 234 286 341
#     4  11  24  42  63  88 117 153 197 248 300 354
#     4  10  20  35  57  85 112 144 186 231 282 340
#     4  10  22  39  60  86 116 153 201 250 298 352
#     4   9  14  26  52  83 111 140 182 231 275 333
#
# _framework density 20.313072999999999
#
# number of rings (size 3 to 8) (size 9 to 14) (size 15 to 20)
#    0.000    2.167    1.667    2.000    0.000    5.333 
#    0.000    3.333    0.000    1.500    0.000    0.000 
#    0.000    0.000    0.000    0.000    0.000    0.000 
#
# Total GULP energy -594778.599358 kJ/mol
# GULP energy per Si atom -12391.220820 kJ/mol
# Density = 2.026684 g / cm^3
# Si number density = 20.313073 Si / 1000 Ang^3
#
#
#
# Elastic Constant Matrix: (Units=GPa)
#
#
# Indices 1 2 3 4 5 6 
#
# 1 26.3504 26.8174 33.1312 0.0000 0.0000 0.0000
# 2 26.8174 105.1248 39.6445 0.0000 0.0000 0.0000
# 3 33.1312 39.6445 162.4797 0.0000 0.0000 0.0000
# 4 0.0000 0.0000 0.0000 18.5594 0.0000 0.0000
# 5 0.0000 0.0000 0.0000 0.0000 28.8580 0.0000
# 6 0.0000 0.0000 0.0000 0.0000 0.0000 25.2013
#
#
#
# Elastic Compliance Matrix: (Units=1/GPa)
#
#
# Indices 1 2 3 4 5 6 
#
# 1 0.062822 -0.012330 -0.009802 0.000000 0.000000 0.000000
# 2 -0.012330 0.012896 -0.000633 0.000000 0.000000 0.000000
# 3 -0.009802 -0.000633 0.008308 0.000000 0.000000 0.000000
# 4 0.000000 0.000000 0.000000 0.053881 0.000000 0.000000
# 5 0.000000 0.000000 0.000000 0.000000 0.034652 0.000000
# 6 0.000000 0.000000 0.000000 0.000000 0.000000 0.039680
#
#
# Mechanical properties :
#
#
# Convention : Reuss Voigt Hill
#
# Bulk Modulus (GPa) = 25.97509 54.79347 40.38428
# Shear Modulus (GPa) = 18.47744 27.48120 22.97932
#
# Velocity S-wave (km/s) = 3.01928 3.68215 3.36707
# Velocity P-wave (km/s) = 4.99699 6.71645 5.91948
#
# Compressibility (1/GPa) = 0.03849842
#
# Stress axis : x y z
#
# Youngs Moduli (GPa) = 15.91798 77.54142 120.37156
#
# Poissons Ratio (x) = 0.95605 1.17984
# Poissons Ratio (y) = 0.19626 0.07614
# Poissons Ratio (z) = 0.15602 0.04905
#
# Static dielectric constant tensor:
#      x y z
#    x 3.151520 0.000000 0.000000 
#    y 0.000000 3.835700 0.000000 
#    z 0.000000 0.000000 3.987870 
# 
# 
# High freq. dielectric constant tensor:
#      x y z
#    x 1.739770 0.000000 0.000000 
#    y 0.000000 1.796710 0.000000 
#    z 0.000000 0.000000 1.814920 
# 
# From -- ./inp_files/37012.got.cif
#   From: 2010.03.12/outbox.cif.g09.slc.cpg/sg64_19_cif.got.tgz:37012.got - 2010.04.10 20:19:32.
