data_PCOD8262901
_publ_section_title
;
Structure prediction by ZEFSAII (Michael W. Deem and Ramdas Pophale) SiO2 
 PCOD8262901
Probable space group: C M C A
;
_chemical_formula_sum "Si O2"
_cell_formula_units_Z 96
_cell_length_a 9.014379
_cell_length_b 22.423219
_cell_length_c 23.043566
_cell_angle_alpha 90.000000
_cell_angle_beta 90.000000
_cell_angle_gamma 90.000000
_cell_volume 4657.828129
_symmetry_space_group_name_H-M "C M C A"
_symmetry_group_IT_number 64
_symmetry_cell_setting 'orthorhombic'
loop_
_space_group_symop_operation_xyz
x,y,z
-x,1/2-y,1/2+z
x,-y,-z
-x,1/2+y,1/2-z
-x,-y,-z
x,1/2+y,1/2-z
-x,y,z
x,1/2-y,1/2+z
1/2+x,1/2+y,z
1/2-x,-y,1/2+z
1/2+x,1/2-y,-z
1/2-x,y,1/2-z
1/2-x,1/2-y,-z
1/2+x,y,1/2-z
1/2-x,1/2+y,z
1/2+x,-y,1/2+z
loop_
_atom_site_type_symbol
_atom_site_label
_atom_site_fract_x
_atom_site_fract_y
_atom_site_fract_z
Si Si1 0.334831 0.351891 0.191913
Si Si2 0.324897 0.431026 0.687548
Si Si3 0.172022 0.883331 0.021161
Si Si4 0.169745 0.349210 0.603918
Si Si5 0.165075 0.969854 0.116933
Si Si6 0.827038 0.786738 0.404487
O O1 0.500000 0.328450 0.205260
O O2 0.250000 0.366180 0.250000
O O3 0.340428 0.412802 0.157369
O O4 0.248633 0.301454 0.156625
O O5 0.500000 0.430937 0.696516
O O6 0.250000 0.440071 0.750000
O O7 0.272400 0.369397 0.657645
O O8 0.279960 0.483327 0.643135
O O9 0.217242 0.945186 0.053561
O O10 0.263168 0.826450 0.043538
O O11 0.000000 0.869312 0.034762
O O12 0.198923 0.891375 0.952312
O O13 0.207208 0.282432 0.583548
O O14 0.000000 0.353915 0.624952
O O15 0.000000 0.999137 0.113303
O O16 0.000000 0.800197 0.399563
#
# Coordination Sequence:
#
# PCOD8262901 Si02
#       6
#    16  16  16  16  16  16
#     4  10  20  34  55  82 112 148 190 237 289 341
#     4  12  26  42  61  83 111 150 192 236 283 334
#     4   9  19  37  62  89 117 150 186 229 282 336
#     4  10  22  40  60  84 116 154 192 229 277 336
#     4   9  19  37  60  85 113 146 184 229 282 338
#     4  10  20  34  56  85 117 152 189 233 281 332
#
# _framework density 20.610465000000001
#
# number of rings (size 3 to 8) (size 9 to 14) (size 15 to 20)
#    0.000    2.000    0.000    4.500    0.000    8.000 
#    0.000    3.333    0.000    0.000    0.000    0.000 
#    0.000    0.000    0.000    0.000    0.000    0.000 
#
# Total GULP energy -595201.635040 kJ/mol
# GULP energy per Si atom -12400.034063 kJ/mol
# Density = 2.056355 g / cm^3
# Si number density = 20.610465 Si / 1000 Ang^3
#
#
#
# Elastic Constant Matrix: (Units=GPa)
#
#
# Indices 1 2 3 4 5 6 
#
# 1 126.8266 40.2705 32.4578 0.0000 0.0000 0.0000
# 2 40.2705 62.4955 16.9483 0.0000 0.0000 0.0000
# 3 32.4578 16.9483 60.5235 0.0000 0.0000 0.0000
# 4 0.0000 0.0000 0.0000 14.7900 0.0000 0.0000
# 5 0.0000 0.0000 0.0000 0.0000 30.1467 0.0000
# 6 0.0000 0.0000 0.0000 0.0000 0.0000 33.3517
#
#
#
# Elastic Compliance Matrix: (Units=1/GPa)
#
#
# Indices 1 2 3 4 5 6 
#
# 1 0.010801 -0.005832 -0.004159 0.000000 0.000000 0.000000
# 2 -0.005832 0.020465 -0.002603 0.000000 0.000000 0.000000
# 3 -0.004159 -0.002603 0.019482 0.000000 0.000000 0.000000
# 4 0.000000 0.000000 0.000000 0.067613 0.000000 0.000000
# 5 0.000000 0.000000 0.000000 0.000000 0.033171 0.000000
# 6 0.000000 0.000000 0.000000 0.000000 0.000000 0.029984
#
#
# Mechanical properties :
#
#
# Convention : Reuss Voigt Hill
#
# Bulk Modulus (GPa) = 39.12484 47.68876 43.40680
# Shear Modulus (GPa) = 23.23152 26.33561 24.78357
#
# Velocity S-wave (km/s) = 3.36098 3.57848 3.47143
# Velocity P-wave (km/s) = 5.83830 6.34527 6.09706
#
# Compressibility (1/GPa) = 0.02555921
#
# Stress axis : x y z
#
# Youngs Moduli (GPa) = 92.58384 48.86375 51.32929
#
# Poissons Ratio (x) = 0.28497 0.21349
# Poissons Ratio (y) = 0.53994 0.13362
# Poissons Ratio (z) = 0.38509 0.12720
#
# Static dielectric constant tensor:
#      x y z
#    x 3.778060 0.000000 0.000000 
#    y 0.000000 3.695920 0.000000 
#    z 0.000000 0.000000 4.037270 
# 
# 
# High freq. dielectric constant tensor:
#      x y z
#    x 1.800930 0.000000 0.000000 
#    y 0.000000 1.801320 0.000000 
#    z 0.000000 0.000000 1.814830 
# 
# From -- ./inp_files/43008.got.cif
#   From: 2010.03.12/outbox.cif.g09.slc.cpg/sg64_22_cif.got.tgz:43008.got - 2010.04.10 20:19:32.
