data_PCOD8262431
_publ_section_title
;
Structure prediction by ZEFSAII (Michael W. Deem and Ramdas Pophale) SiO2 
 PCOD8262431
Probable space group: C M C A
;
_chemical_formula_sum "Si O2"
_cell_formula_units_Z 96
_cell_length_a 9.138328
_cell_length_b 19.459042
_cell_length_c 28.007925
_cell_angle_alpha 90.000000
_cell_angle_beta 90.000000
_cell_angle_gamma 90.000000
_cell_volume 4980.456282
_symmetry_space_group_name_H-M "C M C A"
_symmetry_group_IT_number 64
_symmetry_cell_setting 'orthorhombic'
loop_
_space_group_symop_operation_xyz
x,y,z
-x,1/2-y,1/2+z
x,-y,-z
-x,1/2+y,1/2-z
-x,-y,-z
x,1/2+y,1/2-z
-x,y,z
x,1/2-y,1/2+z
1/2+x,1/2+y,z
1/2-x,-y,1/2+z
1/2+x,1/2-y,-z
1/2-x,y,1/2-z
1/2-x,1/2-y,-z
1/2+x,y,1/2-z
1/2-x,1/2+y,z
1/2+x,-y,1/2+z
loop_
_atom_site_type_symbol
_atom_site_label
_atom_site_fract_x
_atom_site_fract_y
_atom_site_fract_z
Si Si1 0.662152 0.364576 0.795157
Si Si2 0.173993 0.047910 0.042417
Si Si3 0.836064 0.502847 0.355766
Si Si4 0.172765 0.889201 0.300214
Si Si5 0.672578 0.744022 0.643139
Si Si6 0.174620 0.705880 0.459195
O O1 0.500000 0.346774 0.776853
O O2 0.750000 0.392051 0.750000
O O3 0.656382 0.420863 0.835978
O O4 0.738629 0.297525 0.818355
O O5 0.228180 0.010792 0.090895
O O6 0.229717 0.126585 0.037737
O O7 0.000000 0.049487 0.042609
O O8 0.235918 0.000000 0.000000
O O9 0.727559 0.459940 0.322655
O O10 0.000000 0.470176 0.355581
O O11 0.250000 0.873797 0.250000
O O12 0.215596 0.831695 0.339242
O O13 0.000000 0.893128 0.291032
O O14 0.500000 0.755712 0.642225
O O15 0.731672 0.760025 0.590225
O O16 0.250000 0.750000 0.500000
O O17 0.000000 0.710457 0.464535
#
# Coordination Sequence:
#
# PCOD8262431 Si02
#       6
#    16  16  16  16  16  16
#     4  10  19  34  56  79 103 139 180 223 272 323
#     4   9  18  34  58  85 111 145 188 229 272 330
#     4  10  20  36  58  82 112 146 184 229 277 329
#     4  11  23  38  56  80 112 149 186 227 276 331
#     4   9  19  37  57  77 109 147 181 221 275 329
#     4  10  20  37  59  84 113 145 183 228 278 330
#
# _framework density 19.275341999999998
#
# number of rings (size 3 to 8) (size 9 to 14) (size 15 to 20)
#    0.000    2.167    1.667    1.500    2.333    2.000 
#    0.000    3.333    0.000    1.000    0.000    0.000 
#    0.000    0.000    0.000    0.000    0.000    0.000 
#
# Total GULP energy -595105.793622 kJ/mol
# GULP energy per Si atom -12398.037367 kJ/mol
# Density = 1.923147 g / cm^3
# Si number density = 19.275342 Si / 1000 Ang^3
#
#
#
# Elastic Constant Matrix: (Units=GPa)
#
#
# Indices 1 2 3 4 5 6 
#
# 1 50.7501 28.8136 37.6828 0.0000 0.0000 0.0000
# 2 28.8136 95.8092 40.7815 0.0000 0.0000 0.0000
# 3 37.6828 40.7815 145.4114 0.0000 0.0000 0.0000
# 4 0.0000 0.0000 0.0000 39.7253 0.0000 0.0000
# 5 0.0000 0.0000 0.0000 0.0000 25.0192 0.0000
# 6 0.0000 0.0000 0.0000 0.0000 0.0000 19.4941
#
#
#
# Elastic Compliance Matrix: (Units=1/GPa)
#
#
# Indices 1 2 3 4 5 6 
#
# 1 0.026998 -0.005838 -0.005359 0.000000 0.000000 0.000000
# 2 -0.005838 0.013115 -0.002165 0.000000 0.000000 0.000000
# 3 -0.005359 -0.002165 0.008873 0.000000 0.000000 0.000000
# 4 0.000000 0.000000 0.000000 0.025173 0.000000 0.000000
# 5 0.000000 0.000000 0.000000 0.000000 0.039969 0.000000
# 6 0.000000 0.000000 0.000000 0.000000 0.000000 0.051298
#
#
# Mechanical properties :
#
#
# Convention : Reuss Voigt Hill
#
# Bulk Modulus (GPa) = 44.92155 56.28073 50.60114
# Shear Modulus (GPa) = 25.05365 29.16056 27.10711
#
# Velocity S-wave (km/s) = 3.60915 3.89375 3.75415
# Velocity P-wave (km/s) = 6.38152 7.03397 6.71567
#
# Compressibility (1/GPa) = 0.02226103
#
# Stress axis : x y z
#
# Youngs Moduli (GPa) = 37.03928 76.24954 112.70059
#
# Poissons Ratio (x) = 0.44517 0.60398
# Poissons Ratio (y) = 0.21625 0.24401
# Poissons Ratio (z) = 0.19850 0.16509
#
# Static dielectric constant tensor:
#      x y z
#    x 3.151250 0.000000 0.000000 
#    y 0.000000 3.552980 0.000000 
#    z 0.000000 0.000000 3.703010 
# 
# 
# High freq. dielectric constant tensor:
#      x y z
#    x 1.707980 0.000000 0.000000 
#    y 0.000000 1.758770 0.000000 
#    z 0.000000 0.000000 1.766040 
# 
# From -- ./inp_files/38304.got.cif
#   From: 2010.03.12/outbox.cif.g09.slc.cpg/sg64_20_cif.got.tgz:38304.got - 2010.04.10 20:19:32.
