data_PCOD8262083
_publ_section_title
;
Structure prediction by ZEFSAII (Michael W. Deem and Ramdas Pophale) SiO2 
 PCOD8262083
Probable space group: C M C A
;
_chemical_formula_sum "Si O2"
_cell_formula_units_Z 80
_cell_length_a 9.012450
_cell_length_b 20.598962
_cell_length_c 27.174496
_cell_angle_alpha 90.000000
_cell_angle_beta 90.000000
_cell_angle_gamma 90.000000
_cell_volume 5044.866786
_symmetry_space_group_name_H-M "C M C A"
_symmetry_group_IT_number 64
_symmetry_cell_setting 'orthorhombic'
loop_
_space_group_symop_operation_xyz
x,y,z
-x,1/2-y,1/2+z
x,-y,-z
-x,1/2+y,1/2-z
-x,-y,-z
x,1/2+y,1/2-z
-x,y,z
x,1/2-y,1/2+z
1/2+x,1/2+y,z
1/2-x,-y,1/2+z
1/2+x,1/2-y,-z
1/2-x,y,1/2-z
1/2-x,1/2-y,-z
1/2+x,y,1/2-z
1/2-x,1/2+y,z
1/2+x,-y,1/2+z
loop_
_atom_site_type_symbol
_atom_site_label
_atom_site_fract_x
_atom_site_fract_y
_atom_site_fract_z
Si Si1 0.667458 0.426685 0.609157
Si Si2 0.327140 0.309650 0.937647
Si Si3 0.175528 0.552358 0.610531
Si Si4 0.827594 0.821143 0.050781
Si Si5 0.832408 0.506423 0.800736
O O1 0.500000 0.424935 0.588225
O O2 0.747803 0.359324 0.598823
O O3 0.756236 0.487598 0.584537
O O4 0.666557 0.438642 0.668430
O O5 0.500000 0.310238 0.926016
O O6 0.265355 0.238084 0.926849
O O7 0.291509 0.330772 0.993387
O O8 0.222880 0.614064 0.578517
O O9 0.245303 0.559705 0.665595
O O10 0.000000 0.544784 0.614175
O O11 0.000000 0.805741 0.059027
O O12 0.750000 0.494522 0.750000
O O13 0.000000 0.530803 0.790971
#
# Coordination Sequence:
#
# PCOD8262083 Si02
#       5
#    16  16  16  16  16
#     4   9  19  32  47  71  98 125 159 200 240 283
#     4  10  19  31  49  70  96 132 167 197 234 283
#     4   9  17  31  50  71  96 126 160 199 238 281
#     4   9  19  33  48  69  98 132 164 196 237 283
#     4   9  18  31  50  73  96 123 155 196 243 288
#
# _framework density 15.857703000000001
#
# number of rings (size 3 to 8) (size 9 to 14) (size 15 to 20)
#    1.200    1.600    0.000    1.800    0.000    3.200 
#    0.000    4.000    0.000    1.200    0.000    5.600 
#    0.000    0.000    0.000    0.000    0.000    0.000 
#
# Total GULP energy -495695.682732 kJ/mol
# GULP energy per Si atom -12392.392068 kJ/mol
# Density = 1.582161 g / cm^3
# Si number density = 15.857703 Si / 1000 Ang^3
#
#
#
# Elastic Constant Matrix: (Units=GPa)
#
#
# Indices 1 2 3 4 5 6 
#
# 1 96.3252 37.8791 21.2758 0.0000 0.0000 0.0000
# 2 37.8791 65.3774 15.4421 0.0000 0.0000 0.0000
# 3 21.2758 15.4421 39.5592 0.0000 0.0000 0.0000
# 4 0.0000 0.0000 0.0000 9.9611 0.0000 0.0000
# 5 0.0000 0.0000 0.0000 0.0000 25.5904 0.0000
# 6 0.0000 0.0000 0.0000 0.0000 0.0000 31.4285
#
#
#
# Elastic Compliance Matrix: (Units=1/GPa)
#
#
# Indices 1 2 3 4 5 6 
#
# 1 0.014256 -0.007104 -0.004894 0.000000 0.000000 0.000000
# 2 -0.007104 0.020389 -0.004138 0.000000 0.000000 0.000000
# 3 -0.004894 -0.004138 0.029526 0.000000 0.000000 0.000000
# 4 0.000000 0.000000 0.000000 0.100391 0.000000 0.000000
# 5 0.000000 0.000000 0.000000 0.000000 0.039077 0.000000
# 6 0.000000 0.000000 0.000000 0.000000 0.000000 0.031818
#
#
# Mechanical properties :
#
#
# Convention : Reuss Voigt Hill
#
# Bulk Modulus (GPa) = 31.34939 38.93955 35.14447
# Shear Modulus (GPa) = 17.96214 21.84032 19.90123
#
# Velocity S-wave (km/s) = 3.36922 3.71518 3.54642
# Velocity P-wave (km/s) = 5.91165 6.55838 6.24340
#
# Compressibility (1/GPa) = 0.03189855
#
# Stress axis : x y z
#
# Youngs Moduli (GPa) = 70.14585 49.04567 33.86822
#
# Poissons Ratio (x) = 0.34841 0.16576
# Poissons Ratio (y) = 0.49830 0.14016
# Poissons Ratio (z) = 0.34331 0.20297
#
# Static dielectric constant tensor:
#      x y z
#    x 3.114900 0.000000 0.000000 
#    y 0.000000 2.856990 0.000000 
#    z 0.000000 0.000000 2.780050 
# 
# 
# High freq. dielectric constant tensor:
#      x y z
#    x 1.629150 0.000000 0.000000 
#    y 0.000000 1.593030 0.000000 
#    z 0.000000 0.000000 1.583310 
# 
# From -- ./inp_files/51933.got.cif
#   From: 2010.03.12/outbox.cif.g09.slc.cpg/sg64_26_cif.got.tgz:51933.got - 2010.04.10 20:19:32.
