data_PCOD8262997
_publ_section_title
;
Structure prediction by ZEFSAII (Michael W. Deem and Ramdas Pophale) SiO2 
 PCOD8262997
Probable space group: C M C A
;
_chemical_formula_sum "Si O2"
_cell_formula_units_Z 112
_cell_length_a 17.872303
_cell_length_b 24.256998
_cell_length_c 13.461397
_cell_angle_alpha 90.000000
_cell_angle_beta 90.000000
_cell_angle_gamma 90.000000
_cell_volume 5835.898147
_symmetry_space_group_name_H-M "C M C A"
_symmetry_group_IT_number 64
_symmetry_cell_setting 'orthorhombic'
loop_
_space_group_symop_operation_xyz
x,y,z
-x,1/2-y,1/2+z
x,-y,-z
-x,1/2+y,1/2-z
-x,-y,-z
x,1/2+y,1/2-z
-x,y,z
x,1/2-y,1/2+z
1/2+x,1/2+y,z
1/2-x,-y,1/2+z
1/2+x,1/2-y,-z
1/2-x,y,1/2-z
1/2-x,1/2-y,-z
1/2+x,y,1/2-z
1/2-x,1/2+y,z
1/2+x,-y,1/2+z
loop_
_atom_site_type_symbol
_atom_site_label
_atom_site_fract_x
_atom_site_fract_y
_atom_site_fract_z
Si Si1 0.838253 0.329368 0.251296
Si Si2 0.586663 0.932585 0.344489
Si Si3 0.089087 0.055165 0.446671
Si Si4 0.913671 0.122974 0.047745
Si Si5 0.413097 0.666830 0.547542
Si Si6 0.410656 0.551619 0.223199
Si Si7 0.087321 0.774521 0.070707
O O1 0.750000 0.327779 0.250000
O O2 0.866386 0.389929 0.279468
O O3 0.867020 0.314085 0.142422
O O4 0.869161 0.283265 0.326652
O O5 0.500000 0.925460 0.314309
O O6 0.598503 0.922184 0.461312
O O7 0.616783 0.992959 0.318438
O O8 0.117157 0.108340 0.507361
O O9 0.120690 0.059528 0.334490
O O10 0.000000 0.053791 0.443401
O O11 0.119989 0.000000 0.500000
O O12 0.877350 0.099213 0.149803
O O13 0.000000 0.131909 0.070722
O O14 0.880852 0.182124 0.012199
O O15 0.500000 0.663072 0.576270
O O16 0.399637 0.712149 0.462433
O O17 0.500000 0.553436 0.222001
O O18 0.000000 0.787691 0.089848
#
# Coordination Sequence:
#
# PCOD8262997 Si02
#       7
#    16  16  16  16  16  16  16
#     4  11  22  35  53  75 103 140 174 208 255 313
#     4   9  16  29  50  74 100 131 173 216 255 308
#     4   9  17  28  45  74 106 132 164 209 259 309
#     4   8  14  25  44  74 105 129 159 207 262 307
#     4  10  20  35  56  78 101 133 173 217 263 308
#     4   9  15  24  45  75 103 131 166 215 267 309
#     4   9  19  35  55  79 104 131 172 222 262 304
#
# _framework density 19.191562000000001
#
# number of rings (size 3 to 8) (size 9 to 14) (size 15 to 20)
#    0.000    2.714    0.000    3.429    0.000    5.714 
#    0.000    4.286    0.000   10.286    0.000    1.000 
#    0.000    0.000    0.000    0.000    0.000    0.000 
#
# Total GULP energy -694239.488952 kJ/mol
# GULP energy per Si atom -12397.133731 kJ/mol
# Density = 1.914788 g / cm^3
# Si number density = 19.191562 Si / 1000 Ang^3
#
#
#
# Elastic Constant Matrix: (Units=GPa)
#
#
# Indices 1 2 3 4 5 6 
#
# 1 52.7566 31.1111 37.7323 0.0000 0.0000 0.0000
# 2 31.1111 122.7502 59.7766 0.0000 0.0000 0.0000
# 3 37.7323 59.7766 130.7128 0.0000 0.0000 0.0000
# 4 0.0000 0.0000 0.0000 27.0053 0.0000 0.0000
# 5 0.0000 0.0000 0.0000 0.0000 7.0077 0.0000
# 6 0.0000 0.0000 0.0000 0.0000 0.0000 7.9885
#
#
#
# Elastic Compliance Matrix: (Units=1/GPa)
#
#
# Indices 1 2 3 4 5 6 
#
# 1 0.025093 -0.003644 -0.005577 0.000000 0.000000 0.000000
# 2 -0.003644 0.011010 -0.003983 0.000000 0.000000 0.000000
# 3 -0.005577 -0.003983 0.011082 0.000000 0.000000 0.000000
# 4 0.000000 0.000000 0.000000 0.037030 0.000000 0.000000
# 5 0.000000 0.000000 0.000000 0.000000 0.142701 0.000000
# 6 0.000000 0.000000 0.000000 0.000000 0.000000 0.125180
#
#
# Mechanical properties :
#
#
# Convention : Reuss Voigt Hill
#
# Bulk Modulus (GPa) = 48.13175 62.60663 55.36919
# Shear Modulus (GPa) = 12.97259 20.24026 16.60642
#
# Velocity S-wave (km/s) = 2.60273 3.25105 2.94479
# Velocity P-wave (km/s) = 5.84520 6.83997 6.36206
#
# Compressibility (1/GPa) = 0.02077631
#
# Stress axis : x y z
#
# Youngs Moduli (GPa) = 39.85247 90.82786 90.23850
#
# Poissons Ratio (x) = 0.33097 0.50326
# Poissons Ratio (y) = 0.14522 0.35943
# Poissons Ratio (z) = 0.22226 0.36177
#
# Static dielectric constant tensor:
#      x y z
#    x 2.908430 0.000000 0.000000 
#    y 0.000000 3.606770 0.000000 
#    z 0.000000 0.000000 3.695920 
# 
# 
# High freq. dielectric constant tensor:
#      x y z
#    x 1.678690 0.000000 0.000000 
#    y 0.000000 1.751680 0.000000 
#    z 0.000000 0.000000 1.756710 
# 
# From -- ./inp_files/17666.got.cif
#   From: 2010.03.12/outbox.cif.g09.slc.cpg/sg64_9_cif.got.tgz:17666.got - 2010.04.10 20:19:32.
