data_PCOD8262216
_publ_section_title
;
Structure prediction by ZEFSAII (Michael W. Deem and Ramdas Pophale) SiO2 
 PCOD8262216
Probable space group: C M C A
;
_chemical_formula_sum "Si O2"
_cell_formula_units_Z 128
_cell_length_a 17.971065
_cell_length_b 23.837921
_cell_length_c 17.025838
_cell_angle_alpha 90.000000
_cell_angle_beta 90.000000
_cell_angle_gamma 90.000000
_cell_volume 7293.746886
_symmetry_space_group_name_H-M "C M C A"
_symmetry_group_IT_number 64
_symmetry_cell_setting 'orthorhombic'
loop_
_space_group_symop_operation_xyz
x,y,z
-x,1/2-y,1/2+z
x,-y,-z
-x,1/2+y,1/2-z
-x,-y,-z
x,1/2+y,1/2-z
-x,y,z
x,1/2-y,1/2+z
1/2+x,1/2+y,z
1/2-x,-y,1/2+z
1/2+x,1/2-y,-z
1/2-x,y,1/2-z
1/2-x,1/2-y,-z
1/2+x,y,1/2-z
1/2-x,1/2+y,z
1/2+x,-y,1/2+z
loop_
_atom_site_type_symbol
_atom_site_label
_atom_site_fract_x
_atom_site_fract_y
_atom_site_fract_z
Si Si1 0.790386 0.630897 0.596369
Si Si2 0.918945 0.752523 0.711083
Si Si3 0.915974 0.135107 0.205956
Si Si4 0.733581 0.250835 0.157592
Si Si5 0.310062 0.446812 0.318627
Si Si6 0.687876 0.073356 0.183389
Si Si7 0.706687 0.142405 0.414958
Si Si8 0.085316 0.373918 0.277916
O O1 0.749376 0.686544 0.629066
O O2 0.729446 0.581714 0.606392
O O3 0.811177 0.636664 0.505923
O O4 0.866839 0.617712 0.642555
O O5 0.912864 0.797961 0.780491
O O6 0.854834 0.761813 0.646070
O O7 0.908735 0.690916 0.749987
O O8 0.000000 0.756991 0.669402
O O9 0.885729 0.103942 0.284058
O O10 0.866074 0.119750 0.130680
O O11 0.000000 0.114552 0.190184
O O12 0.750000 0.243266 0.250000
O O13 0.780228 0.207492 0.106087
O O14 0.250000 0.445183 0.250000
O O15 0.332897 0.510041 0.340874
O O16 0.383321 0.412974 0.291724
O O17 0.750000 0.075151 0.250000
O O18 0.720479 0.106290 0.108266
O O19 0.000000 0.391106 0.295212
#
# Coordination Sequence:
#
# PCOD8262216 Si02
#       8
#    16  16  16  16  16  16  16  16
#     4  10  21  31  50  80 109 138 173 214 274 327
#     4   9  16  28  49  73  99 131 170 215 261 302
#     4  10  19  32  52  78 102 136 179 221 262 311
#     4  11  17  32  52  73 104 138 184 224 254 307
#     4   9  18  34  53  74  98 136 180 217 249 303
#     4   9  18  34  53  73 100 135 180 217 250 301
#     4  11  20  32  49  79 110 139 169 218 275 326
#     4   9  18  33  54  77 103 137 177 221 262 308
#
# _framework density 17.54928
#
# number of rings (size 3 to 8) (size 9 to 14) (size 15 to 20)
#    0.000    2.250    2.500    2.625    0.000    1.500 
#    0.000    0.000    0.000    1.500    0.000    8.750 
#    0.000    0.000    0.000    0.000    0.000    0.000 
#
# Total GULP energy -793362.806623 kJ/mol
# GULP energy per Si atom -12396.293853 kJ/mol
# Density = 1.750934 g / cm^3
# Si number density = 17.549280 Si / 1000 Ang^3
#
#
#
# Elastic Constant Matrix: (Units=GPa)
#
#
# Indices 1 2 3 4 5 6 
#
# 1 111.8947 38.1417 33.9120 0.0000 0.0000 0.0000
# 2 38.1417 100.6580 24.9970 0.0000 0.0000 0.0000
# 3 33.9120 24.9970 68.2611 0.0000 0.0000 0.0000
# 4 0.0000 0.0000 0.0000 15.3044 0.0000 0.0000
# 5 0.0000 0.0000 0.0000 0.0000 16.5490 0.0000
# 6 0.0000 0.0000 0.0000 0.0000 0.0000 18.4382
#
#
#
# Elastic Compliance Matrix: (Units=1/GPa)
#
#
# Indices 1 2 3 4 5 6 
#
# 1 0.011387 -0.003201 -0.004485 0.000000 0.000000 0.000000
# 2 -0.003201 0.011828 -0.002741 0.000000 0.000000 0.000000
# 3 -0.004485 -0.002741 0.017882 0.000000 0.000000 0.000000
# 4 0.000000 0.000000 0.000000 0.065341 0.000000 0.000000
# 5 0.000000 0.000000 0.000000 0.000000 0.060427 0.000000
# 6 0.000000 0.000000 0.000000 0.000000 0.000000 0.054235
#
#
# Mechanical properties :
#
#
# Convention : Reuss Voigt Hill
#
# Bulk Modulus (GPa) = 49.40054 52.76834 51.08444
# Shear Modulus (GPa) = 20.10436 22.30918 21.20677
#
# Velocity S-wave (km/s) = 3.38834 3.56930 3.47999
# Velocity P-wave (km/s) = 6.59685 6.86444 6.73197
#
# Compressibility (1/GPa) = 0.02024269
#
# Stress axis : x y z
#
# Youngs Moduli (GPa) = 87.81607 84.54252 55.92345
#
# Poissons Ratio (x) = 0.27064 0.25082
# Poissons Ratio (y) = 0.28112 0.15330
# Poissons Ratio (z) = 0.39386 0.23174
#
# Static dielectric constant tensor:
#      x y z
#    x 3.456710 0.000000 0.000000 
#    y 0.000000 3.460740 0.000000 
#    z 0.000000 0.000000 2.837540 
# 
# 
# High freq. dielectric constant tensor:
#      x y z
#    x 1.678940 0.000000 0.000000 
#    y 0.000000 1.685310 0.000000 
#    z 0.000000 0.000000 1.631220 
# 
# From -- ./inp_files/34697.got.cif
#   From: 2010.03.12/outbox.cif.g09.slc.cpg/sg64_18_cif.got.tgz:34697.got - 2010.04.10 20:19:32.
