data_PCOD8262849
_publ_section_title
;
Structure prediction by ZEFSAII (Michael W. Deem and Ramdas Pophale) SiO2 
 PCOD8262849
Probable space group: C M C A
;
_chemical_formula_sum "Si O2"
_cell_formula_units_Z 80
_cell_length_a 17.765264
_cell_length_b 25.266749
_cell_length_c 9.372374
_cell_angle_alpha 90.000000
_cell_angle_beta 90.000000
_cell_angle_gamma 90.000000
_cell_volume 4206.981889
_symmetry_space_group_name_H-M "C M C A"
_symmetry_group_IT_number 64
_symmetry_cell_setting 'orthorhombic'
loop_
_space_group_symop_operation_xyz
x,y,z
-x,1/2-y,1/2+z
x,-y,-z
-x,1/2+y,1/2-z
-x,-y,-z
x,1/2+y,1/2-z
-x,y,z
x,1/2-y,1/2+z
1/2+x,1/2+y,z
1/2-x,-y,1/2+z
1/2+x,1/2-y,-z
1/2-x,y,1/2-z
1/2-x,1/2-y,-z
1/2+x,y,1/2-z
1/2-x,1/2+y,z
1/2+x,-y,1/2+z
loop_
_atom_site_type_symbol
_atom_site_label
_atom_site_fract_x
_atom_site_fract_y
_atom_site_fract_z
Si Si1 0.086441 0.439908 0.540406
Si Si2 0.585036 0.275669 0.926482
Si Si3 0.841885 0.850940 0.120566
Si Si4 0.174626 0.331184 0.062766
Si Si5 0.913749 0.132312 0.296839
O O1 0.103607 0.500000 0.500000
O O2 0.142150 0.408851 0.438171
O O3 0.102745 0.421162 0.704376
O O4 0.000000 0.425430 0.506163
O O5 0.500000 0.253789 0.920109
O O6 0.643063 0.227884 0.929728
O O7 0.602879 0.315011 0.795429
O O8 0.594384 0.309081 0.072452
O O9 0.844430 0.859391 0.288933
O O10 0.764586 0.828952 0.051556
O O11 0.140051 0.365885 0.934392
O O12 0.000000 0.132473 0.349337
#
# Coordination Sequence:
#
# PCOD8262849 Si02
#       5
#    16  16  16  16  16
#     4   9  19  39  62  78  99 136 179 222 272 327
#     4  10  20  34  53  76 107 149 186 217 263 320
#     4  10  22  36  51  78 111 144 178 216 270 325
#     4  11  21  33  50  79 114 144 177 219 264 318
#     4   9  19  34  55  83 107 138 185 224 262 315
#
# _framework density 19.016006999999998
#
# number of rings (size 3 to 8) (size 9 to 14) (size 15 to 20)
#    0.000    2.200    0.000    4.200    0.000    9.600 
#    0.000    5.000    0.000    3.600    0.000    0.000 
#    0.000    0.000    0.000    0.000    0.000    0.000 
#
# Total GULP energy -495846.398116 kJ/mol
# GULP energy per Si atom -12396.159953 kJ/mol
# Density = 1.897273 g / cm^3
# Si number density = 19.016007 Si / 1000 Ang^3
#
#
#
# Elastic Constant Matrix: (Units=GPa)
#
#
# Indices 1 2 3 4 5 6 
#
# 1 79.1113 65.5699 54.6168 0.0000 0.0000 0.0000
# 2 65.5699 117.0070 53.7918 0.0000 0.0000 0.0000
# 3 54.6168 53.7918 123.2989 0.0000 0.0000 0.0000
# 4 0.0000 0.0000 0.0000 9.7638 0.0000 0.0000
# 5 0.0000 0.0000 0.0000 0.0000 31.1338 0.0000
# 6 0.0000 0.0000 0.0000 0.0000 0.0000 12.4599
#
#
#
# Elastic Compliance Matrix: (Units=1/GPa)
#
#
# Indices 1 2 3 4 5 6 
#
# 1 0.027555 -0.012297 -0.006841 0.000000 0.000000 0.000000
# 2 -0.012297 0.016178 -0.001611 0.000000 0.000000 0.000000
# 3 -0.006841 -0.001611 0.011844 0.000000 0.000000 0.000000
# 4 0.000000 0.000000 0.000000 0.102419 0.000000 0.000000
# 5 0.000000 0.000000 0.000000 0.000000 0.032119 0.000000
# 6 0.000000 0.000000 0.000000 0.000000 0.000000 0.080258
#
#
# Mechanical properties :
#
#
# Convention : Reuss Voigt Hill
#
# Bulk Modulus (GPa) = 71.02754 74.15269 72.59011
# Shear Modulus (GPa) = 15.79455 20.36741 18.08098
#
# Velocity S-wave (km/s) = 2.88513 3.27627 3.08690
# Velocity P-wave (km/s) = 6.96643 7.30694 7.13872
#
# Compressibility (1/GPa) = 0.01407905
#
# Stress axis : x y z
#
# Youngs Moduli (GPa) = 36.29053 61.81178 84.43313
#
# Poissons Ratio (x) = 0.76008 0.57763
# Poissons Ratio (y) = 0.44625 0.13603
# Poissons Ratio (z) = 0.24828 0.09958
#
# Static dielectric constant tensor:
#      x y z
#    x 3.575760 0.000000 0.000000 
#    y 0.000000 3.299230 0.000000 
#    z 0.000000 0.000000 3.534710 
# 
# 
# High freq. dielectric constant tensor:
#      x y z
#    x 1.743920 0.000000 0.000000 
#    y 0.000000 1.717710 0.000000 
#    z 0.000000 0.000000 1.740390 
# 
# From -- ./inp_files/7075.got.cif
#   From: 2010.03.12/outbox.cif.g09.slc.cpg/sg64_4_cif.got.tgz:7075.got - 2010.04.10 20:19:32.
