data_PCOD8262708
_publ_section_title
;
Structure prediction by ZEFSAII (Michael W. Deem and Ramdas Pophale) SiO2 
 PCOD8262708
Probable space group: C M C A
;
_chemical_formula_sum "Si O2"
_cell_formula_units_Z 104
_cell_length_a 20.484810
_cell_length_b 14.690428
_cell_length_c 17.548733
_cell_angle_alpha 90.000000
_cell_angle_beta 90.000000
_cell_angle_gamma 90.000000
_cell_volume 5280.951214
_symmetry_space_group_name_H-M "C M C A"
_symmetry_group_IT_number 64
_symmetry_cell_setting 'orthorhombic'
loop_
_space_group_symop_operation_xyz
x,y,z
-x,1/2-y,1/2+z
x,-y,-z
-x,1/2+y,1/2-z
-x,-y,-z
x,1/2+y,1/2-z
-x,y,z
x,1/2-y,1/2+z
1/2+x,1/2+y,z
1/2-x,-y,1/2+z
1/2+x,1/2-y,-z
1/2-x,y,1/2-z
1/2-x,1/2-y,-z
1/2+x,y,1/2-z
1/2-x,1/2+y,z
1/2+x,-y,1/2+z
loop_
_atom_site_type_symbol
_atom_site_label
_atom_site_fract_x
_atom_site_fract_y
_atom_site_fract_z
Si Si1 0.500000 0.899217 0.858695
Si Si2 0.314084 0.793140 0.287542
Si Si3 0.863570 0.524748 0.758754
Si Si4 0.500000 0.583814 0.719698
Si Si5 0.870153 0.053078 0.422247
Si Si6 0.237858 0.199655 0.422794
Si Si7 0.137374 0.661191 0.322979
Si Si8 0.000000 0.297913 0.694816
O O1 0.567383 0.880193 0.905055
O O2 0.500000 0.842493 0.780088
O O3 0.500000 0.009608 0.848697
O O4 0.250000 0.748297 0.250000
O O5 0.313608 0.900454 0.272335
O O6 0.308711 0.768910 0.376012
O O7 0.370665 0.739607 0.242652
O O8 0.934886 0.561055 0.731827
O O9 0.859373 0.515108 0.850485
O O10 0.843650 0.432148 0.718101
O O11 0.500000 0.688032 0.692645
O O12 0.802848 0.107656 0.434076
O O13 0.884671 0.000000 0.500000
O O14 0.250000 0.250000 0.500000
O O15 0.309565 0.180701 0.387719
O O16 0.062545 0.663160 0.352857
#
# Coordination Sequence:
#
# PCOD8262708 Si02
#       8
#     8  16  16   8  16  16  16   8
#     4  10  21  42  60  99 132 164 214 272 327 398
#     4  10  22  36  62  89 121 164 213 263 316 384
#     4  11  21  38  62  95 122 164 219 261 319 384
#     4  10  20  31  61  94 122 153 209 266 323 374
#     4  11  24  39  63  93 137 171 209 269 331 388
#     4  11  26  43  59  94 136 170 216 272 329 394
#     4  11  22  40  65  92 128 168 217 268 324 388
#     4  12  18  37  65  93 130 166 211 278 325 382
#
# _framework density 19.693421000000001
#
# number of rings (size 3 to 8) (size 9 to 14) (size 15 to 20)
#    0.000    1.231    6.154    0.231    6.462    0.000 
#    0.000    0.769    0.000    0.000    0.000    2.692 
#    0.000    0.000    0.000    0.000    0.000    0.000 
#
# Total GULP energy -644249.739560 kJ/mol
# GULP energy per Si atom -12389.418068 kJ/mol
# Density = 1.964860 g / cm^3
# Si number density = 19.693421 Si / 1000 Ang^3
#
#
#
# Elastic Constant Matrix: (Units=GPa)
#
#
# Indices 1 2 3 4 5 6 
#
# 1 121.4396 19.0812 41.3042 0.0000 0.0000 0.0000
# 2 19.0812 105.4105 29.2410 0.0000 0.0000 0.0000
# 3 41.3042 29.2410 90.4191 0.0000 0.0000 0.0000
# 4 0.0000 0.0000 0.0000 32.0879 0.0000 0.0000
# 5 0.0000 0.0000 0.0000 0.0000 22.3364 0.0000
# 6 0.0000 0.0000 0.0000 0.0000 0.0000 30.9451
#
#
#
# Elastic Compliance Matrix: (Units=1/GPa)
#
#
# Indices 1 2 3 4 5 6 
#
# 1 0.009782 -0.000583 -0.004280 0.000000 0.000000 0.000000
# 2 -0.000583 0.010456 -0.003115 0.000000 0.000000 0.000000
# 3 -0.004280 -0.003115 0.014022 0.000000 0.000000 0.000000
# 4 0.000000 0.000000 0.000000 0.031164 0.000000 0.000000
# 5 0.000000 0.000000 0.000000 0.000000 0.044770 0.000000
# 6 0.000000 0.000000 0.000000 0.000000 0.000000 0.032315
#
#
# Mechanical properties :
#
#
# Convention : Reuss Voigt Hill
#
# Bulk Modulus (GPa) = 54.63335 55.16911 54.90123
# Shear Modulus (GPa) = 30.38266 32.25009 31.31637
#
# Velocity S-wave (km/s) = 3.93209 4.05113 3.99205
# Velocity P-wave (km/s) = 6.95825 7.06802 7.01335
#
# Compressibility (1/GPa) = 0.01830384
#
# Stress axis : x y z
#
# Youngs Moduli (GPa) = 102.23004 95.63473 71.31645
#
# Poissons Ratio (x) = 0.05580 0.30522
# Poissons Ratio (y) = 0.05965 0.22215
# Poissons Ratio (z) = 0.43752 0.29790
#
# Static dielectric constant tensor:
#      x y z
#    x 4.063540 0.000000 0.000000 
#    y 0.000000 3.578680 0.000000 
#    z 0.000000 0.000000 3.262800 
# 
# 
# High freq. dielectric constant tensor:
#      x y z
#    x 1.795910 0.000000 0.000000 
#    y 0.000000 1.765890 0.000000 
#    z 0.000000 0.000000 1.724580 
# 
# From -- ./inp_files/34388.got.cif
#   From: 2010.03.12/outbox.cif.g09.slc.cpg/sg64_18_cif.got.tgz:34388.got - 2010.04.10 20:19:32.
