data_PCOD8262363
_publ_section_title
;
Structure prediction by ZEFSAII (Michael W. Deem and Ramdas Pophale) SiO2 
 PCOD8262363
Probable space group: C M C A
;
_chemical_formula_sum "Si O2"
_cell_formula_units_Z 112
_cell_length_a 14.458338
_cell_length_b 14.870474
_cell_length_c 24.781683
_cell_angle_alpha 90.000000
_cell_angle_beta 90.000000
_cell_angle_gamma 90.000000
_cell_volume 5328.119817
_symmetry_space_group_name_H-M "C M C A"
_symmetry_group_IT_number 64
_symmetry_cell_setting 'orthorhombic'
loop_
_space_group_symop_operation_xyz
x,y,z
-x,1/2-y,1/2+z
x,-y,-z
-x,1/2+y,1/2-z
-x,-y,-z
x,1/2+y,1/2-z
-x,y,z
x,1/2-y,1/2+z
1/2+x,1/2+y,z
1/2-x,-y,1/2+z
1/2+x,1/2-y,-z
1/2-x,y,1/2-z
1/2-x,1/2-y,-z
1/2+x,y,1/2-z
1/2-x,1/2+y,z
1/2+x,-y,1/2+z
loop_
_atom_site_type_symbol
_atom_site_label
_atom_site_fract_x
_atom_site_fract_y
_atom_site_fract_z
Si Si1 0.781320 0.479733 0.874205
Si Si2 0.604462 0.761628 0.508432
Si Si3 0.397280 0.033498 0.675503
Si Si4 0.818333 0.223074 0.798626
Si Si5 0.101286 0.062743 0.544773
Si Si6 0.232291 0.286770 0.914164
Si Si7 0.603470 0.416629 0.720143
O O1 0.673787 0.506110 0.871539
O O2 0.832378 0.562647 0.903430
O O3 0.802953 0.388468 0.906581
O O4 0.822564 0.471882 0.814490
O O5 0.500000 0.805864 0.505282
O O6 0.590521 0.658494 0.519355
O O7 0.666553 0.798107 0.558104
O O8 0.660855 0.770296 0.451833
O O9 0.500000 0.029741 0.650820
O O10 0.381602 0.134551 0.697076
O O11 0.386184 0.955948 0.720263
O O12 0.750000 0.202566 0.750000
O O13 0.763894 0.239589 0.855325
O O14 0.878235 0.309799 0.781757
O O15 0.000000 0.024901 0.561119
O O16 0.148462 0.000000 0.500000
O O17 0.500000 0.433214 0.697943
#
# Coordination Sequence:
#
# PCOD8262363 Si02
#       7
#    16  16  16  16  16  16  16
#     4  11  20  36  60  83 119 155 197 246 303 357
#     4  10  21  38  58  84 120 157 199 248 296 351
#     4  11  24  40  59  87 123 161 203 249 297 360
#     4  11  22  40  64  88 120 161 202 250 309 368
#     4  10  19  33  56  86 112 144 191 247 302 347
#     4  10  22  37  59  88 117 157 201 243 299 363
#     4  10  21  37  59  89 120 154 198 246 302 367
#
# _framework density 21.020548999999999
#
# number of rings (size 3 to 8) (size 9 to 14) (size 15 to 20)
#    0.000    1.571    1.429    4.714    0.000    3.429 
#    0.000    2.857    0.000    0.429    0.000    0.000 
#    0.000    0.000    0.000    0.000    0.000    0.000 
#
# Total GULP energy -694081.131215 kJ/mol
# GULP energy per Si atom -12394.305915 kJ/mol
# Density = 2.097271 g / cm^3
# Si number density = 21.020549 Si / 1000 Ang^3
#
#
#
# Elastic Constant Matrix: (Units=GPa)
#
#
# Indices 1 2 3 4 5 6 
#
# 1 138.2399 2.6284 47.3984 0.0000 0.0000 0.0000
# 2 2.6284 59.6233 17.4785 0.0000 0.0000 0.0000
# 3 47.3984 17.4785 88.4242 0.0000 0.0000 0.0000
# 4 0.0000 0.0000 0.0000 22.2419 0.0000 0.0000
# 5 0.0000 0.0000 0.0000 0.0000 38.8155 0.0000
# 6 0.0000 0.0000 0.0000 0.0000 0.0000 31.3724
#
#
#
# Elastic Compliance Matrix: (Units=1/GPa)
#
#
# Indices 1 2 3 4 5 6 
#
# 1 0.008927 0.001071 -0.004997 0.000000 0.000000 0.000000
# 2 0.001071 0.017932 -0.004119 0.000000 0.000000 0.000000
# 3 -0.004997 -0.004119 0.014802 0.000000 0.000000 0.000000
# 4 0.000000 0.000000 0.000000 0.044960 0.000000 0.000000
# 5 0.000000 0.000000 0.000000 0.000000 0.025763 0.000000
# 6 0.000000 0.000000 0.000000 0.000000 0.000000 0.031875
#
#
# Mechanical properties :
#
#
# Convention : Reuss Voigt Hill
#
# Bulk Modulus (GPa) = 39.10541 46.81091 42.95816
# Shear Modulus (GPa) = 29.60831 33.07142 31.33986
#
# Velocity S-wave (km/s) = 3.75713 3.97077 3.86543
# Velocity P-wave (km/s) = 6.12088 6.58333 6.35631
#
# Compressibility (1/GPa) = 0.02557191
#
# Stress axis : x y z
#
# Youngs Moduli (GPa) = 112.02378 55.76571 67.55969
#
# Poissons Ratio (x) = -0.05974 0.33758
# Poissons Ratio (y) = -0.12001 0.27827
# Poissons Ratio (z) = 0.55976 0.22969
#
# Static dielectric constant tensor:
#      x y z
#    x 4.366280 0.000000 0.000000 
#    y 0.000000 3.756410 0.000000 
#    z 0.000000 0.000000 3.754050 
# 
# 
# High freq. dielectric constant tensor:
#      x y z
#    x 1.827750 0.000000 0.000000 
#    y 0.000000 1.817170 0.000000 
#    z 0.000000 0.000000 1.816700 
# 
# From -- ./inp_files/45242.got.cif
#   From: 2010.03.12/outbox.cif.g09.slc.cpg/sg64_23_cif.got.tgz:45242.got - 2010.04.10 20:19:32.
