data_PCOD8262796
_publ_section_title
;
Structure prediction by ZEFSAII (Michael W. Deem and Ramdas Pophale) SiO2 
 PCOD8262796
Probable space group: C M C A
;
_chemical_formula_sum "Si O2"
_cell_formula_units_Z 80
_cell_length_a 8.679239
_cell_length_b 27.144020
_cell_length_c 18.186095
_cell_angle_alpha 90.000000
_cell_angle_beta 90.000000
_cell_angle_gamma 90.000000
_cell_volume 4284.451882
_symmetry_space_group_name_H-M "C M C A"
_symmetry_group_IT_number 64
_symmetry_cell_setting 'orthorhombic'
loop_
_space_group_symop_operation_xyz
x,y,z
-x,1/2-y,1/2+z
x,-y,-z
-x,1/2+y,1/2-z
-x,-y,-z
x,1/2+y,1/2-z
-x,y,z
x,1/2-y,1/2+z
1/2+x,1/2+y,z
1/2-x,-y,1/2+z
1/2+x,1/2-y,-z
1/2-x,y,1/2-z
1/2-x,1/2-y,-z
1/2+x,y,1/2-z
1/2-x,1/2+y,z
1/2+x,-y,1/2+z
loop_
_atom_site_type_symbol
_atom_site_label
_atom_site_fract_x
_atom_site_fract_y
_atom_site_fract_z
Si Si1 0.682367 0.195943 0.598509
Si Si2 0.180856 0.449319 0.034889
Si Si3 0.317516 0.793079 0.670404
Si Si4 0.818737 0.151333 0.458311
Si Si5 0.820082 0.594937 0.672419
O O1 0.500000 0.199032 0.586029
O O2 0.741969 0.243619 0.639776
O O3 0.764392 0.190586 0.519631
O O4 0.730662 0.149755 0.648934
O O5 0.261825 0.444429 0.113290
O O6 0.000000 0.450375 0.048705
O O7 0.240912 0.500000 0.000000
O O8 0.226385 0.403977 0.981949
O O9 0.500000 0.786945 0.674955
O O10 0.250000 0.805203 0.750000
O O11 0.271193 0.838033 0.617146
O O12 0.000000 0.157825 0.445777
O O13 0.750000 0.580731 0.750000
O O14 0.000000 0.590594 0.678935
#
# Coordination Sequence:
#
# PCOD8262796 Si02
#       5
#    16  16  16  16  16
#     4  10  20  35  55  80 109 142 179 216 260 312
#     4   9  19  37  60  82 105 136 175 219 267 318
#     4  12  24  37  53  76 108 144 182 220 261 310
#     4  10  20  36  57  80 107 139 176 218 264 314
#     4  10  20  33  53  81 111 140 173 217 265 314
#
# _framework density 18.672167000000002
#
# number of rings (size 3 to 8) (size 9 to 14) (size 15 to 20)
#    0.000    1.800    0.000    4.800    0.000    5.200 
#    0.000    1.000    0.000    0.000    0.000    0.000 
#    0.000    0.000    0.000    0.000    0.000    0.000 
#
# Total GULP energy -496190.689961 kJ/mol
# GULP energy per Si atom -12404.767249 kJ/mol
# Density = 1.862967 g / cm^3
# Si number density = 18.672167 Si / 1000 Ang^3
#
#
#
# Elastic Constant Matrix: (Units=GPa)
#
#
# Indices 1 2 3 4 5 6 
#
# 1 47.1768 20.0891 26.5652 0.0000 0.0000 0.0000
# 2 20.0891 88.5369 56.0428 0.0000 0.0000 0.0000
# 3 26.5652 56.0428 144.6971 0.0000 0.0000 0.0000
# 4 0.0000 0.0000 0.0000 -1.6901 0.0000 0.0000
# 5 0.0000 0.0000 0.0000 0.0000 36.0795 0.0000
# 6 0.0000 0.0000 0.0000 0.0000 0.0000 23.3415
#
#
#
# Elastic Compliance Matrix: (Units=1/GPa)
#
#
# Indices 1 2 3 4 5 6 
#
# 1 0.024472 -0.003589 -0.003103 0.000000 0.000000 0.000000
# 2 -0.003589 0.015489 -0.005340 0.000000 0.000000 0.000000
# 3 -0.003103 -0.005340 0.009549 0.000000 0.000000 0.000000
# 4 0.000000 0.000000 0.000000 -0.591676 0.000000 0.000000
# 5 0.000000 0.000000 0.000000 0.000000 0.027717 0.000000
# 6 0.000000 0.000000 0.000000 0.000000 0.000000 0.042842
#
#
# Mechanical properties :
#
#
# Convention : Reuss Voigt Hill
#
# Bulk Modulus (GPa) = 39.29777 53.97834 46.63806
# Shear Modulus (GPa) = -11.38795 23.39374 6.00290
#
# Velocity S-wave (km/s) = -2.47227 3.54343 1.79496
# Velocity P-wave (km/s) = 3.59755 6.76109 5.41547
#
# Compressibility (1/GPa) = 0.02544674
#
# Stress axis : x y z
#
# Youngs Moduli (GPa) = 40.86254 64.56032 104.72229
#
# Poissons Ratio (x) = 0.23168 0.32495
# Poissons Ratio (y) = 0.14664 0.55926
# Poissons Ratio (z) = 0.12680 0.34478
#
# Static dielectric constant tensor:
#      x y z
#    x 3.500620 0.000000 0.000000 
#    y 0.000000 3.439960 0.000000 
#    z 0.000000 0.000000 3.669680 
# 
# 
# High freq. dielectric constant tensor:
#      x y z
#    x 1.737130 0.000000 0.000000 
#    y 0.000000 1.710990 0.000000 
#    z 0.000000 0.000000 1.731280 
# 
# From -- ./inp_files/29793.got.cif
#   From: 2010.03.12/outbox.cif.g09.slc.cpg/sg64_15_cif.got.tgz:29793.got - 2010.04.10 20:19:32.
