data_PCOD8262858
_publ_section_title
;
Structure prediction by ZEFSAII (Michael W. Deem and Ramdas Pophale) SiO2 
 PCOD8262858
Probable space group: C M C A
;
_chemical_formula_sum "Si O2"
_cell_formula_units_Z 80
_cell_length_a 8.982936
_cell_length_b 18.591787
_cell_length_c 25.668896
_cell_angle_alpha 90.000000
_cell_angle_beta 90.000000
_cell_angle_gamma 90.000000
_cell_volume 4286.932359
_symmetry_space_group_name_H-M "C M C A"
_symmetry_group_IT_number 64
_symmetry_cell_setting 'orthorhombic'
loop_
_space_group_symop_operation_xyz
x,y,z
-x,1/2-y,1/2+z
x,-y,-z
-x,1/2+y,1/2-z
-x,-y,-z
x,1/2+y,1/2-z
-x,y,z
x,1/2-y,1/2+z
1/2+x,1/2+y,z
1/2-x,-y,1/2+z
1/2+x,1/2-y,-z
1/2-x,y,1/2-z
1/2-x,1/2-y,-z
1/2+x,y,1/2-z
1/2-x,1/2+y,z
1/2+x,-y,1/2+z
loop_
_atom_site_type_symbol
_atom_site_label
_atom_site_fract_x
_atom_site_fract_y
_atom_site_fract_z
Si Si1 0.337043 0.418899 0.701167
Si Si2 0.821645 0.927283 0.586787
Si Si3 0.171753 0.173994 0.003296
Si Si4 0.828900 0.423669 0.404281
Si Si5 0.666451 0.089419 0.800158
O O1 0.500000 0.384840 0.704668
O O2 0.250000 0.384653 0.750000
O O3 0.268315 0.400779 0.644381
O O4 0.343383 0.504311 0.706373
O O5 0.758802 0.872119 0.545599
O O6 0.000000 0.931901 0.584003
O O7 0.757223 0.006191 0.575118
O O8 0.184840 0.137430 0.947334
O O9 0.000000 0.182201 0.020102
O O10 0.250000 0.250000 0.000000
O O11 0.757371 0.390867 0.352042
O O12 0.000000 0.444690 0.393404
O O13 0.500000 0.121962 0.803911
O O14 0.750000 0.123029 0.750000
#
# Coordination Sequence:
#
# PCOD8262858 Si02
#       5
#    16  16  16  16  16
#     4   8  15  26  43  71 103 133 164 201 247 297
#     4  10  20  34  54  80 108 138 174 216 261 311
#     4  11  24  39  55  75 102 138 177 219 267 316
#     4  10  20  34  53  79 108 137 174 218 261 309
#     4   9  16  27  46  74 106 138 170 208 257 307
#
# _framework density 18.661363000000001
#
# number of rings (size 3 to 8) (size 9 to 14) (size 15 to 20)
#    0.000    2.400    0.000    4.200    0.000   11.200 
#    0.000    0.000    0.000    1.200    0.000    5.600 
#    0.000    0.000    0.000    0.000    0.000    0.000 
#
# Total GULP energy -495890.853201 kJ/mol
# GULP energy per Si atom -12397.271330 kJ/mol
# Density = 1.861889 g / cm^3
# Si number density = 18.661363 Si / 1000 Ang^3
#
#
#
# Elastic Constant Matrix: (Units=GPa)
#
#
# Indices 1 2 3 4 5 6 
#
# 1 143.0993 43.9076 71.2427 0.0000 0.0000 0.0000
# 2 43.9076 61.2648 40.1569 0.0000 0.0000 0.0000
# 3 71.2427 40.1569 126.2742 0.0000 0.0000 0.0000
# 4 0.0000 0.0000 0.0000 -2.0912 0.0000 0.0000
# 5 0.0000 0.0000 0.0000 0.0000 38.9769 0.0000
# 6 0.0000 0.0000 0.0000 0.0000 0.0000 17.3141
#
#
#
# Elastic Compliance Matrix: (Units=1/GPa)
#
#
# Indices 1 2 3 4 5 6 
#
# 1 0.010685 -0.004682 -0.004539 0.000000 0.000000 0.000000
# 2 -0.004682 0.022673 -0.004569 0.000000 0.000000 0.000000
# 3 -0.004539 -0.004569 0.011933 0.000000 0.000000 0.000000
# 4 0.000000 0.000000 0.000000 -0.478198 0.000000 0.000000
# 5 0.000000 0.000000 0.000000 0.000000 0.025656 0.000000
# 6 0.000000 0.000000 0.000000 0.000000 0.000000 0.057756
#
#
# Mechanical properties :
#
#
# Convention : Reuss Voigt Hill
#
# Bulk Modulus (GPa) = 56.46343 71.25029 63.85686
# Shear Modulus (GPa) = -15.82220 22.52871 3.35326
#
# Velocity S-wave (km/s) = -2.91496 3.47830 1.34194
# Velocity P-wave (km/s) = 4.35812 7.37530 6.05757
#
# Compressibility (1/GPa) = 0.01771058
#
# Stress axis : x y z
#
# Youngs Moduli (GPa) = 93.59194 44.10559 83.80057
#
# Poissons Ratio (x) = 0.20652 0.38038
# Poissons Ratio (y) = 0.43823 0.38285
# Poissons Ratio (z) = 0.42483 0.20150
#
# Static dielectric constant tensor:
#      x y z
#    x 3.762060 0.000000 0.000000 
#    y 0.000000 2.745760 0.000000 
#    z 0.000000 0.000000 3.748470 
# 
# 
# High freq. dielectric constant tensor:
#      x y z
#    x 1.741270 0.000000 0.000000 
#    y 0.000000 1.665870 0.000000 
#    z 0.000000 0.000000 1.744880 
# 
# From -- ./inp_files/47858.got.cif
#   From: 2010.03.12/outbox.cif.g09.slc.cpg/sg64_24_cif.got.tgz:47858.got - 2010.04.10 20:19:32.
