data_PCOD8262395
_publ_section_title
;
Structure prediction by ZEFSAII (Michael W. Deem and Ramdas Pophale) SiO2 
 PCOD8262395
Probable space group: C M C A
;
_chemical_formula_sum "Si O2"
_cell_formula_units_Z 80
_cell_length_a 14.702871
_cell_length_b 14.019724
_cell_length_c 20.517678
_cell_angle_alpha 90.000000
_cell_angle_beta 90.000000
_cell_angle_gamma 90.000000
_cell_volume 4229.312935
_symmetry_space_group_name_H-M "C M C A"
_symmetry_group_IT_number 64
_symmetry_cell_setting 'orthorhombic'
loop_
_space_group_symop_operation_xyz
x,y,z
-x,1/2-y,1/2+z
x,-y,-z
-x,1/2+y,1/2-z
-x,-y,-z
x,1/2+y,1/2-z
-x,y,z
x,1/2-y,1/2+z
1/2+x,1/2+y,z
1/2-x,-y,1/2+z
1/2+x,1/2-y,-z
1/2-x,y,1/2-z
1/2-x,1/2-y,-z
1/2+x,y,1/2-z
1/2-x,1/2+y,z
1/2+x,-y,1/2+z
loop_
_atom_site_type_symbol
_atom_site_label
_atom_site_fract_x
_atom_site_fract_y
_atom_site_fract_z
Si Si1 0.393890 0.138433 0.797660
Si Si2 0.896690 0.943072 0.641767
Si Si3 0.604127 0.769323 0.337219
Si Si4 0.217113 0.776764 0.410032
Si Si5 0.764632 0.094693 0.473017
O O1 0.500000 0.155425 0.808433
O O2 0.366697 0.166935 0.724461
O O3 0.342758 0.209403 0.846358
O O4 0.364211 0.028873 0.810678
O O5 0.885798 0.843101 0.680399
O O6 0.842417 0.944313 0.574501
O O7 0.000000 0.961068 0.621282
O O8 0.500000 0.791927 0.359279
O O9 0.674830 0.792799 0.395129
O O10 0.188485 0.849278 0.466811
O O11 0.199098 0.667953 0.434498
O O12 0.712395 0.000000 0.500000
#
# Coordination Sequence:
#
# PCOD8262395 Si02
#       5
#    16  16  16  16  16
#     4  10  19  34  56  82 108 135 177 223 264 314
#     4   9  18  33  55  80 103 136 177 225 270 300
#     4   9  19  36  54  77 108 138 175 218 264 318
#     4  10  20  34  54  79 107 140 175 215 271 308
#     4  10  19  34  52  76 107 139 174 220 256 314
#
# _framework density 18.915603000000001
#
# number of rings (size 3 to 8) (size 9 to 14) (size 15 to 20)
#    0.000    2.400    2.000    0.600    0.000    1.200 
#    3.600    5.000    0.000    1.200    0.000    0.000 
#    0.000    0.000    0.000    0.000    0.000    0.000 
#
# Total GULP energy -495770.330075 kJ/mol
# GULP energy per Si atom -12394.258252 kJ/mol
# Density = 1.887255 g / cm^3
# Si number density = 18.915603 Si / 1000 Ang^3
#
#
#
# Elastic Constant Matrix: (Units=GPa)
#
#
# Indices 1 2 3 4 5 6 
#
# 1 32.7044 25.6697 28.1426 0.0000 0.0000 0.0000
# 2 25.6697 130.0976 47.6608 0.0000 0.0000 0.0000
# 3 28.1426 47.6608 83.6998 0.0000 0.0000 0.0000
# 4 0.0000 0.0000 0.0000 43.2944 0.0000 0.0000
# 5 0.0000 0.0000 0.0000 0.0000 21.3561 0.0000
# 6 0.0000 0.0000 0.0000 0.0000 0.0000 20.6025
#
#
#
# Elastic Compliance Matrix: (Units=1/GPa)
#
#
# Indices 1 2 3 4 5 6 
#
# 1 0.044766 -0.004193 -0.012664 0.000000 0.000000 0.000000
# 2 -0.004193 0.010105 -0.004344 0.000000 0.000000 0.000000
# 3 -0.012664 -0.004344 0.018679 0.000000 0.000000 0.000000
# 4 0.000000 0.000000 0.000000 0.023098 0.000000 0.000000
# 5 0.000000 0.000000 0.000000 0.000000 0.046825 0.000000
# 6 0.000000 0.000000 0.000000 0.000000 0.000000 0.048538
#
#
# Mechanical properties :
#
#
# Convention : Reuss Voigt Hill
#
# Bulk Modulus (GPa) = 32.10559 49.93866 41.02213
# Shear Modulus (GPa) = 20.42510 26.71917 23.57214
#
# Velocity S-wave (km/s) = 3.28960 3.76246 3.53395
# Velocity P-wave (km/s) = 5.60701 6.73297 6.19562
#
# Compressibility (1/GPa) = 0.03114722
#
# Stress axis : x y z
#
# Youngs Moduli (GPa) = 22.33848 98.95622 53.53529
#
# Poissons Ratio (x) = 0.41496 0.67797
# Poissons Ratio (y) = 0.09367 0.23258
# Poissons Ratio (z) = 0.28289 0.42990
#
# Static dielectric constant tensor:
#      x y z
#    x 3.276450 0.000000 0.000000 
#    y 0.000000 3.789260 0.000000 
#    z 0.000000 0.000000 3.419650 
# 
# 
# High freq. dielectric constant tensor:
#      x y z
#    x 1.706210 0.000000 0.000000 
#    y 0.000000 1.747780 0.000000 
#    z 0.000000 0.000000 1.731760 
# 
# From -- ./inp_files/32985.got.cif
#   From: 2010.03.12/outbox.cif.g09.slc.cpg/sg64_17_cif.got.tgz:32985.got - 2010.04.10 20:19:32.
