data_PCOD8262958
_publ_section_title
;
Structure prediction by ZEFSAII (Michael W. Deem and Ramdas Pophale) SiO2 
 PCOD8262958
Probable space group: C M C A
;
_chemical_formula_sum "Si O2"
_cell_formula_units_Z 80
_cell_length_a 8.992167
_cell_length_b 25.333744
_cell_length_c 18.404917
_cell_angle_alpha 90.000000
_cell_angle_beta 90.000000
_cell_angle_gamma 90.000000
_cell_volume 4192.736843
_symmetry_space_group_name_H-M "C M C A"
_symmetry_group_IT_number 64
_symmetry_cell_setting 'orthorhombic'
loop_
_space_group_symop_operation_xyz
x,y,z
-x,1/2-y,1/2+z
x,-y,-z
-x,1/2+y,1/2-z
-x,-y,-z
x,1/2+y,1/2-z
-x,y,z
x,1/2-y,1/2+z
1/2+x,1/2+y,z
1/2-x,-y,1/2+z
1/2+x,1/2-y,-z
1/2-x,y,1/2-z
1/2-x,1/2-y,-z
1/2+x,y,1/2-z
1/2-x,1/2+y,z
1/2+x,-y,1/2+z
loop_
_atom_site_type_symbol
_atom_site_label
_atom_site_fract_x
_atom_site_fract_y
_atom_site_fract_z
Si Si1 0.675931 0.433954 0.825197
Si Si2 0.824047 0.658268 0.426622
Si Si3 0.823357 0.254660 0.173319
Si Si4 0.174444 0.153195 0.910380
Si Si5 0.671787 0.947782 0.323106
O O1 0.500000 0.428490 0.816017
O O2 0.750000 0.416583 0.750000
O O3 0.735932 0.394575 0.887381
O O4 0.724691 0.493536 0.846602
O O5 0.771164 0.709728 0.383046
O O6 0.761278 0.661005 0.508486
O O7 0.000000 0.655525 0.430848
O O8 0.750000 0.241159 0.250000
O O9 0.765169 0.310357 0.144522
O O10 0.000000 0.256502 0.182452
O O11 0.205285 0.092542 0.888313
O O12 0.000000 0.167122 0.904731
O O13 0.500000 0.949203 0.303588
O O14 0.750000 0.928099 0.250000
#
# Coordination Sequence:
#
# PCOD8262958 Si02
#       5
#    16  16  16  16  16
#     4   9  17  32  52  75 101 132 168 208 249 295
#     4   9  19  34  53  76 103 131 166 209 253 298
#     4  11  22  36  54  76 100 132 170 209 250 298
#     4  10  20  35  53  76 104 134 166 206 252 300
#     4   9  18  31  51  75 100 131 168 206 247 293
#
# _framework density 19.080615000000002
#
# number of rings (size 3 to 8) (size 9 to 14) (size 15 to 20)
#    0.000    2.400    0.000    2.400    0.000    3.200 
#    0.000    7.000    0.000    0.000    0.000    7.000 
#    0.000    0.000    0.000    0.000    0.000    0.000 
#
# Total GULP energy -496027.914323 kJ/mol
# GULP energy per Si atom -12400.697858 kJ/mol
# Density = 1.903719 g / cm^3
# Si number density = 19.080615 Si / 1000 Ang^3
#
#
#
# Elastic Constant Matrix: (Units=GPa)
#
#
# Indices 1 2 3 4 5 6 
#
# 1 37.4728 24.2750 25.3282 0.0000 0.0000 0.0000
# 2 24.2750 94.3521 37.5863 0.0000 0.0000 0.0000
# 3 25.3282 37.5863 102.1606 0.0000 0.0000 0.0000
# 4 0.0000 0.0000 0.0000 34.7437 0.0000 0.0000
# 5 0.0000 0.0000 0.0000 0.0000 24.9869 0.0000
# 6 0.0000 0.0000 0.0000 0.0000 0.0000 21.5161
#
#
#
# Elastic Compliance Matrix: (Units=1/GPa)
#
#
# Indices 1 2 3 4 5 6 
#
# 1 0.035192 -0.006537 -0.006320 0.000000 0.000000 0.000000
# 2 -0.006537 0.013633 -0.003395 0.000000 0.000000 0.000000
# 3 -0.006320 -0.003395 0.012605 0.000000 0.000000 0.000000
# 4 0.000000 0.000000 0.000000 0.028782 0.000000 0.000000
# 5 0.000000 0.000000 0.000000 0.000000 0.040021 0.000000
# 6 0.000000 0.000000 0.000000 0.000000 0.000000 0.046477
#
#
# Mechanical properties :
#
#
# Convention : Reuss Voigt Hill
#
# Bulk Modulus (GPa) = 34.57107 45.37384 39.97246
# Shear Modulus (GPa) = 22.84614 26.03574 24.44094
#
# Velocity S-wave (km/s) = 3.46403 3.69794 3.58289
# Velocity P-wave (km/s) = 5.84440 6.48573 6.17340
#
# Compressibility (1/GPa) = 0.02892592
#
# Stress axis : x y z
#
# Youngs Moduli (GPa) = 28.41533 73.35239 79.33641
#
# Poissons Ratio (x) = 0.47947 0.50142
# Poissons Ratio (y) = 0.18574 0.26936
# Poissons Ratio (z) = 0.17959 0.24904
#
# Static dielectric constant tensor:
#      x y z
#    x 3.242190 0.000000 0.000000 
#    y 0.000000 3.720760 0.000000 
#    z 0.000000 0.000000 3.688580 
# 
# 
# High freq. dielectric constant tensor:
#      x y z
#    x 1.715740 0.000000 0.000000 
#    y 0.000000 1.756460 0.000000 
#    z 0.000000 0.000000 1.743850 
# 
# From -- ./inp_files/29712.got.cif
#   From: 2010.03.12/outbox.cif.g09.slc.cpg/sg64_15_cif.got.tgz:29712.got - 2010.04.10 20:19:32.
