data_PCOD8262984
_publ_section_title
;
Structure prediction by ZEFSAII (Michael W. Deem and Ramdas Pophale) SiO2 
 PCOD8262984
Probable space group: C M C A
;
_chemical_formula_sum "Si O2"
_cell_formula_units_Z 112
_cell_length_a 16.439737
_cell_length_b 15.083912
_cell_length_c 22.694452
_cell_angle_alpha 90.000000
_cell_angle_beta 90.000000
_cell_angle_gamma 90.000000
_cell_volume 5627.669131
_symmetry_space_group_name_H-M "C M C A"
_symmetry_group_IT_number 64
_symmetry_cell_setting 'orthorhombic'
loop_
_space_group_symop_operation_xyz
x,y,z
-x,1/2-y,1/2+z
x,-y,-z
-x,1/2+y,1/2-z
-x,-y,-z
x,1/2+y,1/2-z
-x,y,z
x,1/2-y,1/2+z
1/2+x,1/2+y,z
1/2-x,-y,1/2+z
1/2+x,1/2-y,-z
1/2-x,y,1/2-z
1/2-x,1/2-y,-z
1/2+x,y,1/2-z
1/2-x,1/2+y,z
1/2+x,-y,1/2+z
loop_
_atom_site_type_symbol
_atom_site_label
_atom_site_fract_x
_atom_site_fract_y
_atom_site_fract_z
Si Si1 0.407079 0.079843 0.826619
Si Si2 0.691113 0.095104 0.486816
Si Si3 0.150253 0.080275 0.545110
Si Si4 0.594274 0.606442 0.284334
Si Si5 0.908334 0.744008 0.017454
Si Si6 0.208758 0.830369 0.612048
Si Si7 0.320723 0.256246 0.794830
O O1 0.500000 0.093273 0.843217
O O2 0.363098 0.052678 0.887417
O O3 0.376870 0.170340 0.797663
O O4 0.396343 0.000345 0.778604
O O5 0.756364 0.112972 0.538944
O O6 0.620585 0.167693 0.483395
O O7 0.745834 0.094074 0.426711
O O8 0.649929 0.000000 0.500000
O O9 0.092025 0.162255 0.527902
O O10 0.130767 0.000000 0.500000
O O11 0.500000 0.632594 0.294753
O O12 0.648040 0.630122 0.340508
O O13 0.628050 0.657495 0.226860
O O14 0.846026 0.732015 0.071059
O O15 0.000000 0.757861 0.040827
O O16 0.281471 0.774466 0.641670
O O17 0.250000 0.232720 0.750000
#
# Coordination Sequence:
#
# PCOD8262984 Si02
#       7
#    16  16  16  16  16  16  16
#     4  11  21  35  58  83 110 142 175 223 282 329
#     4  10  20  35  55  79 112 150 186 219 259 327
#     4  10  20  35  58  86 111 139 179 226 277 332
#     4  10  21  37  57  82 109 136 177 232 281 324
#     4  11  21  33  53  82 116 147 180 226 274 326
#     4  10  20  36  57  79 108 146 184 226 277 324
#     4  10  22  38  57  78 106 146 188 228 269 326
#
# _framework density 19.901668000000001
#
# number of rings (size 3 to 8) (size 9 to 14) (size 15 to 20)
#    0.000    1.714    0.000    7.286    0.000    4.286 
#    0.000    2.143    0.000    3.857    0.000    0.000 
#    0.000    0.000    0.000    0.000    0.000    0.000 
#
# Total GULP energy -694144.856119 kJ/mol
# GULP energy per Si atom -12395.443859 kJ/mol
# Density = 1.985637 g / cm^3
# Si number density = 19.901668 Si / 1000 Ang^3
#
#
#
# Elastic Constant Matrix: (Units=GPa)
#
#
# Indices 1 2 3 4 5 6 
#
# 1 78.6839 55.6174 25.1860 0.0000 0.0000 0.0000
# 2 55.6174 129.2909 42.3722 0.0000 0.0000 0.0000
# 3 25.1860 42.3722 70.8598 0.0000 0.0000 0.0000
# 4 0.0000 0.0000 0.0000 25.0036 0.0000 0.0000
# 5 0.0000 0.0000 0.0000 0.0000 20.9011 0.0000
# 6 0.0000 0.0000 0.0000 0.0000 0.0000 23.5273
#
#
#
# Elastic Compliance Matrix: (Units=1/GPa)
#
#
# Indices 1 2 3 4 5 6 
#
# 1 0.018550 -0.007237 -0.002266 0.000000 0.000000 0.000000
# 2 -0.007237 0.012443 -0.004868 0.000000 0.000000 0.000000
# 3 -0.002266 -0.004868 0.017829 0.000000 0.000000 0.000000
# 4 0.000000 0.000000 0.000000 0.039994 0.000000 0.000000
# 5 0.000000 0.000000 0.000000 0.000000 0.047844 0.000000
# 6 0.000000 0.000000 0.000000 0.000000 0.000000 0.042504
#
#
# Mechanical properties :
#
#
# Convention : Reuss Voigt Hill
#
# Bulk Modulus (GPa) = 49.80187 58.35398 54.07792
# Shear Modulus (GPa) = 23.29919 24.26367 23.78143
#
# Velocity S-wave (km/s) = 3.42528 3.49546 3.46055
# Velocity P-wave (km/s) = 6.38136 6.75839 6.57258
#
# Compressibility (1/GPa) = 0.02007957
#
# Stress axis : x y z
#
# Youngs Moduli (GPa) = 53.90891 80.36518 56.08893
#
# Poissons Ratio (x) = 0.58161 0.12708
# Poissons Ratio (y) = 0.39014 0.27306
# Poissons Ratio (z) = 0.12214 0.39125
#
# Static dielectric constant tensor:
#      x y z
#    x 3.640180 0.000000 0.000000 
#    y 0.000000 3.684480 0.000000 
#    z 0.000000 0.000000 3.556530 
# 
# 
# High freq. dielectric constant tensor:
#      x y z
#    x 1.775660 0.000000 0.000000 
#    y 0.000000 1.781600 0.000000 
#    z 0.000000 0.000000 1.758680 
# 
# From -- ./inp_files/45307.got.cif
#   From: 2010.03.12/outbox.cif.g09.slc.cpg/sg64_23_cif.got.tgz:45307.got - 2010.04.10 20:19:32.
