data_PCOD8262365
_publ_section_title
;
Structure prediction by ZEFSAII (Michael W. Deem and Ramdas Pophale) SiO2 
 PCOD8262365
Probable space group: C M C A
;
_chemical_formula_sum "Si O2"
_cell_formula_units_Z 80
_cell_length_a 20.383743
_cell_length_b 12.156921
_cell_length_c 18.090966
_cell_angle_alpha 90.000000
_cell_angle_beta 90.000000
_cell_angle_gamma 90.000000
_cell_volume 4483.005658
_symmetry_space_group_name_H-M "C M C A"
_symmetry_group_IT_number 64
_symmetry_cell_setting 'orthorhombic'
loop_
_space_group_symop_operation_xyz
x,y,z
-x,1/2-y,1/2+z
x,-y,-z
-x,1/2+y,1/2-z
-x,-y,-z
x,1/2+y,1/2-z
-x,y,z
x,1/2-y,1/2+z
1/2+x,1/2+y,z
1/2-x,-y,1/2+z
1/2+x,1/2-y,-z
1/2-x,y,1/2-z
1/2-x,1/2-y,-z
1/2+x,y,1/2-z
1/2-x,1/2+y,z
1/2+x,-y,1/2+z
loop_
_atom_site_type_symbol
_atom_site_label
_atom_site_fract_x
_atom_site_fract_y
_atom_site_fract_z
Si Si1 0.336548 0.250573 0.063410
Si Si2 0.667668 0.412739 0.319842
Si Si3 0.077083 0.048483 0.420639
Si Si4 0.690732 0.801040 0.600871
Si Si5 0.686392 0.539086 0.848353
O O1 0.394917 0.171245 0.089131
O O2 0.269138 0.196142 0.091544
O O3 0.345802 0.371140 0.097916
O O4 0.341053 0.261411 0.975368
O O5 0.606054 0.468863 0.358504
O O6 0.668188 0.281717 0.334279
O O7 0.661415 0.435538 0.233433
O O8 0.734873 0.460484 0.353488
O O9 0.000000 0.053744 0.409115
O O10 0.097159 0.000000 0.500000
O O11 0.663160 0.919747 0.624308
#
# Coordination Sequence:
#
# PCOD8262365 Si02
#       5
#    16  16  16  16  16
#     4  10  20  34  57  84 114 149 191 231 290 336
#     4  10  21  34  53  87 115 148 190 228 292 346
#     4  11  22  39  60  80 114 158 200 234 264 341
#     4  10  19  33  56  86 118 142 182 244 289 342
#     4  10  21  32  58  86 120 144 173 249 305 336
#
# _framework density 17.845171000000001
#
# number of rings (size 3 to 8) (size 9 to 14) (size 15 to 20)
#    0.000    1.800    4.000    0.600    2.800    1.600 
#    0.000    1.000    0.000    4.800    0.000    0.000 
#    0.000    0.000    0.000    0.000    0.000    0.000 
#
# Total GULP energy -496135.652074 kJ/mol
# GULP energy per Si atom -12403.391302 kJ/mol
# Density = 1.780455 g / cm^3
# Si number density = 17.845171 Si / 1000 Ang^3
#
#
#
# Elastic Constant Matrix: (Units=GPa)
#
#
# Indices 1 2 3 4 5 6 
#
# 1 60.9484 30.5924 36.9381 0.0000 0.0000 0.0000
# 2 30.5924 128.8270 52.0046 0.0000 0.0000 0.0000
# 3 36.9381 52.0046 82.7588 0.0000 0.0000 0.0000
# 4 0.0000 0.0000 0.0000 28.4551 0.0000 0.0000
# 5 0.0000 0.0000 0.0000 0.0000 19.9166 0.0000
# 6 0.0000 0.0000 0.0000 0.0000 0.0000 23.1626
#
#
#
# Elastic Compliance Matrix: (Units=1/GPa)
#
#
# Indices 1 2 3 4 5 6 
#
# 1 0.022782 -0.001749 -0.009069 0.000000 0.000000 0.000000
# 2 -0.001749 0.010535 -0.005839 0.000000 0.000000 0.000000
# 3 -0.009069 -0.005839 0.019801 0.000000 0.000000 0.000000
# 4 0.000000 0.000000 0.000000 0.035143 0.000000 0.000000
# 5 0.000000 0.000000 0.000000 0.000000 0.050209 0.000000
# 6 0.000000 0.000000 0.000000 0.000000 0.000000 0.043173
#
#
# Mechanical properties :
#
#
# Convention : Reuss Voigt Hill
#
# Bulk Modulus (GPa) = 50.49977 56.84495 53.67236
# Shear Modulus (GPa) = 22.56742 24.50681 23.53711
#
# Velocity S-wave (km/s) = 3.56001 3.70983 3.63569
# Velocity P-wave (km/s) = 6.72745 7.09043 6.91132
#
# Compressibility (1/GPa) = 0.01980207
#
# Stress axis : x y z
#
# Youngs Moduli (GPa) = 43.89503 94.92263 50.50334
#
# Poissons Ratio (x) = 0.16601 0.45803
# Poissons Ratio (y) = 0.07677 0.29491
# Poissons Ratio (z) = 0.39810 0.55429
#
# Static dielectric constant tensor:
#      x y z
#    x 2.898790 0.000000 0.000000 
#    y 0.000000 3.357390 0.000000 
#    z 0.000000 0.000000 3.293250 
# 
# 
# High freq. dielectric constant tensor:
#      x y z
#    x 1.643030 0.000000 0.000000 
#    y 0.000000 1.706280 0.000000 
#    z 0.000000 0.000000 1.697360 
# 
# From -- ./inp_files/27060.got.cif
#   From: 2010.03.12/outbox.cif.g09.slc.cpg/sg64_14_cif.got.tgz:27060.got - 2010.04.10 20:19:32.
