data_PCOD8262727
_publ_section_title
;
Structure prediction by ZEFSAII (Michael W. Deem and Ramdas Pophale) SiO2 
 PCOD8262727
Probable space group: C M C A
;
_chemical_formula_sum "Si O2"
_cell_formula_units_Z 80
_cell_length_a 17.787130
_cell_length_b 18.621363
_cell_length_c 13.224122
_cell_angle_alpha 90.000000
_cell_angle_beta 90.000000
_cell_angle_gamma 90.000000
_cell_volume 4380.101682
_symmetry_space_group_name_H-M "C M C A"
_symmetry_group_IT_number 64
_symmetry_cell_setting 'orthorhombic'
loop_
_space_group_symop_operation_xyz
x,y,z
-x,1/2-y,1/2+z
x,-y,-z
-x,1/2+y,1/2-z
-x,-y,-z
x,1/2+y,1/2-z
-x,y,z
x,1/2-y,1/2+z
1/2+x,1/2+y,z
1/2-x,-y,1/2+z
1/2+x,1/2-y,-z
1/2-x,y,1/2-z
1/2-x,1/2-y,-z
1/2+x,y,1/2-z
1/2-x,1/2+y,z
1/2+x,-y,1/2+z
loop_
_atom_site_type_symbol
_atom_site_label
_atom_site_fract_x
_atom_site_fract_y
_atom_site_fract_z
Si Si1 0.088581 0.003934 0.885527
Si Si2 0.585339 0.653414 0.789061
Si Si3 0.664733 0.376650 0.768241
Si Si4 0.651887 0.227302 0.099932
Si Si5 0.818067 0.732056 0.871237
O O1 0.119253 0.943406 0.810509
O O2 0.000000 0.994345 0.890446
O O3 0.112844 0.079349 0.837875
O O4 0.121875 0.000000 0.000000
O O5 0.500000 0.647388 0.748270
O O6 0.587227 0.714666 0.876338
O O7 0.641800 0.673289 0.698595
O O8 0.750000 0.401131 0.750000
O O9 0.634554 0.346759 0.660076
O O10 0.653485 0.312536 0.849079
O O11 0.727993 0.265682 0.143380
O O12 0.658628 0.208866 0.983329
#
# Coordination Sequence:
#
# PCOD8262727 Si02
#       5
#    16  16  16  16  16
#     4  10  21  36  52  72 102 138 173 210 252 298
#     4  10  20  32  49  75 102 131 170 208 247 298
#     4   9  18  32  51  77 102 126 166 210 249 300
#     4   9  18  34  55  76  99 130 165 205 255 303
#     4   9  18  34  54  76 102 129 163 208 253 300
#
# _framework density 18.264416000000001
#
# number of rings (size 3 to 8) (size 9 to 14) (size 15 to 20)
#    0.000    2.600    0.000    3.000    0.000    5.600 
#    0.000    1.000    0.000    2.400    0.000    0.000 
#    0.000    0.000    0.000    0.000    0.000    0.000 
#
# Total GULP energy -495806.617155 kJ/mol
# GULP energy per Si atom -12395.165429 kJ/mol
# Density = 1.822285 g / cm^3
# Si number density = 18.264416 Si / 1000 Ang^3
#
#
#
# Elastic Constant Matrix: (Units=GPa)
#
#
# Indices 1 2 3 4 5 6 
#
# 1 40.5103 36.5176 38.0240 0.0000 0.0000 0.0000
# 2 36.5176 123.4611 59.3983 0.0000 0.0000 0.0000
# 3 38.0240 59.3983 115.2384 0.0000 0.0000 0.0000
# 4 0.0000 0.0000 0.0000 24.9372 0.0000 0.0000
# 5 0.0000 0.0000 0.0000 0.0000 26.0432 0.0000
# 6 0.0000 0.0000 0.0000 0.0000 0.0000 27.2215
#
#
#
# Elastic Compliance Matrix: (Units=1/GPa)
#
#
# Indices 1 2 3 4 5 6 
#
# 1 0.040191 -0.007324 -0.009487 0.000000 0.000000 0.000000
# 2 -0.007324 0.012105 -0.003823 0.000000 0.000000 0.000000
# 3 -0.009487 -0.003823 0.013778 0.000000 0.000000 0.000000
# 4 0.000000 0.000000 0.000000 0.040101 0.000000 0.000000
# 5 0.000000 0.000000 0.000000 0.000000 0.038398 0.000000
# 6 0.000000 0.000000 0.000000 0.000000 0.000000 0.036736
#
#
# Mechanical properties :
#
#
# Convention : Reuss Voigt Hill
#
# Bulk Modulus (GPa) = 40.30910 60.78776 50.54843
# Shear Modulus (GPa) = 21.65955 25.32504 23.49229
#
# Velocity S-wave (km/s) = 3.44741 3.72772 3.59030
# Velocity P-wave (km/s) = 6.16148 7.20293 6.70246
#
# Compressibility (1/GPa) = 0.02480829
#
# Stress axis : x y z
#
# Youngs Moduli (GPa) = 24.88097 82.60893 72.57774
#
# Poissons Ratio (x) = 0.60501 0.68851
# Poissons Ratio (y) = 0.18222 0.27746
# Poissons Ratio (z) = 0.23603 0.31581
#
# Static dielectric constant tensor:
#      x y z
#    x 3.266980 0.000000 0.000000 
#    y 0.000000 3.205370 0.000000 
#    z 0.000000 0.000000 3.476800 
# 
# 
# High freq. dielectric constant tensor:
#      x y z
#    x 1.694980 0.000000 0.000000 
#    y 0.000000 1.694970 0.000000 
#    z 0.000000 0.000000 1.716020 
# 
# From -- ./inp_files/25319.got.cif
#   From: 2010.03.12/outbox.cif.g09.slc.cpg/sg64_13_cif.got.tgz:25319.got - 2010.04.10 20:19:32.
