data_PCOD8262100
_publ_section_title
;
Structure prediction by ZEFSAII (Michael W. Deem and Ramdas Pophale) SiO2 
 PCOD8262100
Probable space group: C M C A
;
_chemical_formula_sum "Si O2"
_cell_formula_units_Z 96
_cell_length_a 8.604587
_cell_length_b 26.958503
_cell_length_c 23.960694
_cell_angle_alpha 90.000000
_cell_angle_beta 90.000000
_cell_angle_gamma 90.000000
_cell_volume 5558.085140
_symmetry_space_group_name_H-M "C M C A"
_symmetry_group_IT_number 64
_symmetry_cell_setting 'orthorhombic'
loop_
_space_group_symop_operation_xyz
x,y,z
-x,1/2-y,1/2+z
x,-y,-z
-x,1/2+y,1/2-z
-x,-y,-z
x,1/2+y,1/2-z
-x,y,z
x,1/2-y,1/2+z
1/2+x,1/2+y,z
1/2-x,-y,1/2+z
1/2+x,1/2-y,-z
1/2-x,y,1/2-z
1/2-x,1/2-y,-z
1/2+x,y,1/2-z
1/2-x,1/2+y,z
1/2+x,-y,1/2+z
loop_
_atom_site_type_symbol
_atom_site_label
_atom_site_fract_x
_atom_site_fract_y
_atom_site_fract_z
Si Si1 0.818742 0.069959 0.975848
Si Si2 0.182751 0.022542 0.418808
Si Si3 0.182228 0.677880 0.307398
Si Si4 0.178987 0.173220 0.524048
Si Si5 0.184330 0.435117 0.691254
Si Si6 0.318735 0.225617 0.420643
O O1 0.000000 0.058957 0.968902
O O2 0.723767 0.033706 0.935281
O O3 0.769012 0.060913 0.039938
O O4 0.782519 0.126303 0.958849
O O5 0.239588 0.031398 0.356288
O O6 0.000000 0.031089 0.423908
O O7 0.250000 0.699701 0.250000
O O8 0.239328 0.621657 0.317806
O O9 0.237633 0.712460 0.358367
O O10 0.000000 0.678830 0.301466
O O11 0.220373 0.192091 0.462510
O O12 0.214151 0.216365 0.568940
O O13 0.000000 0.157288 0.524758
O O14 0.250000 0.454893 0.750000
O O15 0.000000 0.440755 0.689528
O O16 0.500000 0.212910 0.429786
#
# Coordination Sequence:
#
# PCOD8262100 Si02
#       6
#    16  16  16  16  16  16
#     4  11  21  34  51  72 100 132 164 200 247 300
#     4  11  21  34  52  75 100 127 163 205 249 295
#     4   9  18  31  48  70  97 128 160 195 235 282
#     4  10  19  31  49  73  99 128 164 202 242 290
#     4  10  19  32  50  74 103 134 166 200 242 291
#     4   9  18  32  49  71 100 131 161 198 245 291
#
# _framework density 17.272134999999999
#
# number of rings (size 3 to 8) (size 9 to 14) (size 15 to 20)
#    0.000    2.000    0.000    6.000    0.000    3.333 
#    0.000    0.000    0.000    1.000    0.000    4.667 
#    0.000    0.000    0.000    0.000    0.000    0.000 
#
# Total GULP energy -595361.521875 kJ/mol
# GULP energy per Si atom -12403.365039 kJ/mol
# Density = 1.723282 g / cm^3
# Si number density = 17.272135 Si / 1000 Ang^3
#
#
#
# Elastic Constant Matrix: (Units=GPa)
#
#
# Indices 1 2 3 4 5 6 
#
# 1 63.5078 19.9513 23.8626 0.0000 0.0000 0.0000
# 2 19.9513 82.7352 45.2045 0.0000 0.0000 0.0000
# 3 23.8626 45.2045 132.5547 0.0000 0.0000 0.0000
# 4 0.0000 0.0000 0.0000 22.0254 0.0000 0.0000
# 5 0.0000 0.0000 0.0000 0.0000 29.7878 0.0000
# 6 0.0000 0.0000 0.0000 0.0000 0.0000 25.8400
#
#
#
# Elastic Compliance Matrix: (Units=1/GPa)
#
#
# Indices 1 2 3 4 5 6 
#
# 1 0.017501 -0.003071 -0.002103 0.000000 0.000000 0.000000
# 2 -0.003071 0.015394 -0.004697 0.000000 0.000000 0.000000
# 3 -0.002103 -0.004697 0.009524 0.000000 0.000000 0.000000
# 4 0.000000 0.000000 0.000000 0.045402 0.000000 0.000000
# 5 0.000000 0.000000 0.000000 0.000000 0.033571 0.000000
# 6 0.000000 0.000000 0.000000 0.000000 0.000000 0.038700
#
#
# Mechanical properties :
#
#
# Convention : Reuss Voigt Hill
#
# Bulk Modulus (GPa) = 44.09783 50.75939 47.42861
# Shear Modulus (GPa) = 26.68190 28.18259 27.43224
#
# Velocity S-wave (km/s) = 3.93465 4.04379 3.98959
# Velocity P-wave (km/s) = 6.79916 7.15924 6.98152
#
# Compressibility (1/GPa) = 0.02267685
#
# Stress axis : x y z
#
# Youngs Moduli (GPa) = 57.13891 64.96236 104.99384
#
# Poissons Ratio (x) = 0.19951 0.22083
# Poissons Ratio (y) = 0.17549 0.49312
# Poissons Ratio (z) = 0.12018 0.30511
#
# Static dielectric constant tensor:
#      x y z
#    x 3.273710 0.000000 0.000000 
#    y 0.000000 3.184550 0.000000 
#    z 0.000000 0.000000 3.244650 
# 
# 
# High freq. dielectric constant tensor:
#      x y z
#    x 1.678660 0.000000 0.000000 
#    y 0.000000 1.654070 0.000000 
#    z 0.000000 0.000000 1.657510 
# 
# From -- ./inp_files/43192.got.cif
#   From: 2010.03.12/outbox.cif.g09.slc.cpg/sg64_22_cif.got.tgz:43192.got - 2010.04.10 20:19:32.
