data_PCOD8262465
_publ_section_title
;
Structure prediction by ZEFSAII (Michael W. Deem and Ramdas Pophale) SiO2 
 PCOD8262465
Probable space group: C M C A
;
_chemical_formula_sum "Si O2"
_cell_formula_units_Z 80
_cell_length_a 10.530780
_cell_length_b 13.727053
_cell_length_c 26.477941
_cell_angle_alpha 90.000000
_cell_angle_beta 90.000000
_cell_angle_gamma 90.000000
_cell_volume 3827.560469
_symmetry_space_group_name_H-M "C M C A"
_symmetry_group_IT_number 64
_symmetry_cell_setting 'orthorhombic'
loop_
_space_group_symop_operation_xyz
x,y,z
-x,1/2-y,1/2+z
x,-y,-z
-x,1/2+y,1/2-z
-x,-y,-z
x,1/2+y,1/2-z
-x,y,z
x,1/2-y,1/2+z
1/2+x,1/2+y,z
1/2-x,-y,1/2+z
1/2+x,1/2-y,-z
1/2-x,y,1/2-z
1/2-x,1/2-y,-z
1/2+x,y,1/2-z
1/2-x,1/2+y,z
1/2+x,-y,1/2+z
loop_
_atom_site_type_symbol
_atom_site_label
_atom_site_fract_x
_atom_site_fract_y
_atom_site_fract_z
Si Si1 0.856634 0.050099 0.139731
Si Si2 0.234267 0.156915 0.873528
Si Si3 0.143905 0.102018 0.521762
Si Si4 0.361090 0.343289 0.584470
Si Si5 0.358039 0.274029 0.790694
O O1 0.751015 0.082912 0.099663
O O2 0.841592 0.114652 0.190241
O O3 0.000000 0.064040 0.117995
O O4 0.833506 0.936171 0.151950
O O5 0.280872 0.135350 0.929587
O O6 0.136782 0.245932 0.881717
O O7 0.344568 0.196894 0.836663
O O8 0.156269 0.179307 0.475392
O O9 0.000000 0.089721 0.539760
O O10 0.196765 0.000000 0.500000
O O11 0.500000 0.393424 0.592821
O O12 0.500000 0.260512 0.767850
O O13 0.250000 0.251063 0.750000
#
# Coordination Sequence:
#
# PCOD8262465 Si02
#       5
#    16  16  16  16  16
#     4  10  22  40  61  89 123 158 200 253 308 361
#     4  11  21  38  64  93 123 159 208 258 307 362
#     4  10  19  34  58  90 130 170 207 244 298 368
#     4  10  21  37  59  89 126 168 207 246 295 358
#     4  10  24  44  65  89 119 156 200 256 317 374
#
# _framework density 20.901040999999999
#
# number of rings (size 3 to 8) (size 9 to 14) (size 15 to 20)
#    0.000    1.800    2.000    1.800    0.000    6.400 
#    0.000    5.000    0.000    0.000    0.000    0.000 
#    0.000    0.000    0.000    0.000    0.000    0.000 
#
# Total GULP energy -495650.215355 kJ/mol
# GULP energy per Si atom -12391.255384 kJ/mol
# Density = 2.085347 g / cm^3
# Si number density = 20.901041 Si / 1000 Ang^3
#
#
#
# Elastic Constant Matrix: (Units=GPa)
#
#
# Indices 1 2 3 4 5 6 
#
# 1 145.7226 36.1601 46.2288 0.0000 0.0000 0.0000
# 2 36.1601 107.8019 23.4551 0.0000 0.0000 0.0000
# 3 46.2288 23.4551 73.7230 0.0000 0.0000 0.0000
# 4 0.0000 0.0000 0.0000 27.1750 0.0000 0.0000
# 5 0.0000 0.0000 0.0000 0.0000 28.7069 0.0000
# 6 0.0000 0.0000 0.0000 0.0000 0.0000 19.3429
#
#
#
# Elastic Compliance Matrix: (Units=1/GPa)
#
#
# Indices 1 2 3 4 5 6 
#
# 1 0.008917 -0.001906 -0.004985 0.000000 0.000000 0.000000
# 2 -0.001906 0.010374 -0.002105 0.000000 0.000000 0.000000
# 3 -0.004985 -0.002105 0.017360 0.000000 0.000000 0.000000
# 4 0.000000 0.000000 0.000000 0.036798 0.000000 0.000000
# 5 0.000000 0.000000 0.000000 0.000000 0.034835 0.000000
# 6 0.000000 0.000000 0.000000 0.000000 0.000000 0.051698
#
#
# Mechanical properties :
#
#
# Convention : Reuss Voigt Hill
#
# Bulk Modulus (GPa) = 53.59673 59.88170 56.73921
# Shear Modulus (GPa) = 27.14533 29.80523 28.47528
#
# Velocity S-wave (km/s) = 3.60773 3.78036 3.69506
# Velocity P-wave (km/s) = 6.56148 6.91138 6.73870
#
# Compressibility (1/GPa) = 0.01865786
#
# Stress axis : x y z
#
# Youngs Moduli (GPa) = 112.14799 96.39729 57.60442
#
# Poissons Ratio (x) = 0.18377 0.28715
# Poissons Ratio (y) = 0.21380 0.12126
# Poissons Ratio (z) = 0.55904 0.20292
#
# Static dielectric constant tensor:
#      x y z
#    x 3.740120 0.000000 0.000000 
#    y 0.000000 3.988790 0.000000 
#    z 0.000000 0.000000 3.599800 
# 
# 
# High freq. dielectric constant tensor:
#      x y z
#    x 1.818340 0.000000 0.000000 
#    y 0.000000 1.819530 0.000000 
#    z 0.000000 0.000000 1.801690 
# 
# From -- ./inp_files/43929.got.cif
#   From: 2010.03.12/outbox.cif.g09.slc.cpg/sg64_22_cif.got.tgz:43929.got - 2010.04.10 20:19:32.
