data_PCOD8262561
_publ_section_title
;
Structure prediction by ZEFSAII (Michael W. Deem and Ramdas Pophale) SiO2 
 PCOD8262561
Probable space group: C M C A
;
_chemical_formula_sum "Si O2"
_cell_formula_units_Z 112
_cell_length_a 15.082106
_cell_length_b 31.181822
_cell_length_c 11.396389
_cell_angle_alpha 90.000000
_cell_angle_beta 90.000000
_cell_angle_gamma 90.000000
_cell_volume 5359.579801
_symmetry_space_group_name_H-M "C M C A"
_symmetry_group_IT_number 64
_symmetry_cell_setting 'orthorhombic'
loop_
_space_group_symop_operation_xyz
x,y,z
-x,1/2-y,1/2+z
x,-y,-z
-x,1/2+y,1/2-z
-x,-y,-z
x,1/2+y,1/2-z
-x,y,z
x,1/2-y,1/2+z
1/2+x,1/2+y,z
1/2-x,-y,1/2+z
1/2+x,1/2-y,-z
1/2-x,y,1/2-z
1/2-x,1/2-y,-z
1/2+x,y,1/2-z
1/2-x,1/2+y,z
1/2+x,-y,1/2+z
loop_
_atom_site_type_symbol
_atom_site_label
_atom_site_fract_x
_atom_site_fract_y
_atom_site_fract_z
Si Si1 0.771912 0.334571 0.125928
Si Si2 0.401092 0.814853 0.487059
Si Si3 0.901371 0.591160 0.899907
Si Si4 0.902157 0.217694 0.467745
Si Si5 0.351179 0.330054 0.756666
Si Si6 0.305720 0.494874 0.365676
Si Si7 0.099236 0.082742 0.332524
O O1 0.750000 0.312858 0.250000
O O2 0.826482 0.378074 0.154420
O O3 0.678191 0.345316 0.060970
O O4 0.828672 0.300533 0.054503
O O5 0.500000 0.830422 0.447347
O O6 0.381457 0.767168 0.439538
O O7 0.398041 0.813799 0.626775
O O8 0.880780 0.541253 0.878894
O O9 0.000000 0.600568 0.848621
O O10 0.900816 0.601956 0.037206
O O11 0.904817 0.191418 0.347962
O O12 0.000000 0.213532 0.525932
O O13 0.250000 0.315030 0.750000
O O14 0.356603 0.381815 0.751239
O O15 0.261720 0.500000 0.500000
O O16 0.250000 0.480537 0.250000
O O17 0.346498 0.539323 0.324323
O O18 0.000000 0.073199 0.288816
#
# Coordination Sequence:
#
# PCOD8262561 Si02
#       7
#    16  16  16  16  16  16  16
#     4  12  25  40  62  87 123 166 215 259 319 382
#     4  11  26  42  61  93 128 164 210 268 326 380
#     4  10  20  39  63  92 125 165 217 264 312 379
#     4  11  24  42  63  87 120 166 213 257 316 385
#     4  12  22  39  67  92 125 162 208 266 323 377
#     4  10  21  37  61  93 129 167 211 264 324 380
#     4  10  19  35  62  94 122 158 212 267 314 371
#
# _framework density 20.897161000000001
#
# number of rings (size 3 to 8) (size 9 to 14) (size 15 to 20)
#    0.000    1.143    2.857    3.429    2.000    4.000 
#    0.000    0.000    0.000    1.714    0.000    0.000 
#    0.000    0.000    0.000    0.000    0.000    0.000 
#
# Total GULP energy -694156.476204 kJ/mol
# GULP energy per Si atom -12395.651361 kJ/mol
# Density = 2.084960 g / cm^3
# Si number density = 20.897161 Si / 1000 Ang^3
#
#
#
# Elastic Constant Matrix: (Units=GPa)
#
#
# Indices 1 2 3 4 5 6 
#
# 1 142.1432 33.5953 40.3221 0.0000 0.0000 0.0000
# 2 33.5953 88.5726 13.6966 0.0000 0.0000 0.0000
# 3 40.3221 13.6966 98.0066 0.0000 0.0000 0.0000
# 4 0.0000 0.0000 0.0000 17.3904 0.0000 0.0000
# 5 0.0000 0.0000 0.0000 0.0000 18.8105 0.0000
# 6 0.0000 0.0000 0.0000 0.0000 0.0000 25.8302
#
#
#
# Elastic Compliance Matrix: (Units=1/GPa)
#
#
# Indices 1 2 3 4 5 6 
#
# 1 0.008581 -0.002769 -0.003144 0.000000 0.000000 0.000000
# 2 -0.002769 0.012433 -0.000598 0.000000 0.000000 0.000000
# 3 -0.003144 -0.000598 0.011580 0.000000 0.000000 0.000000
# 4 0.000000 0.000000 0.000000 0.057503 0.000000 0.000000
# 5 0.000000 0.000000 0.000000 0.000000 0.053162 0.000000
# 6 0.000000 0.000000 0.000000 0.000000 0.000000 0.038714
#
#
# Mechanical properties :
#
#
# Convention : Reuss Voigt Hill
#
# Bulk Modulus (GPa) = 51.09061 55.99450 53.54256
# Shear Modulus (GPa) = 24.81146 28.48009 26.64577
#
# Velocity S-wave (km/s) = 3.44948 3.69571 3.57471
# Velocity P-wave (km/s) = 6.35349 6.71301 6.53572
#
# Compressibility (1/GPa) = 0.01957307
#
# Stress axis : x y z
#
# Youngs Moduli (GPa) = 116.53249 80.43187 86.35304
#
# Poissons Ratio (x) = 0.22269 0.27146
# Poissons Ratio (y) = 0.32265 0.05167
# Poissons Ratio (z) = 0.36633 0.04813
#
# Static dielectric constant tensor:
#      x y z
#    x 3.916050 0.000000 0.000000 
#    y 0.000000 3.636830 0.000000 
#    z 0.000000 0.000000 3.769720 
# 
# 
# High freq. dielectric constant tensor:
#      x y z
#    x 1.826800 0.000000 0.000000 
#    y 0.000000 1.815550 0.000000 
#    z 0.000000 0.000000 1.804800 
# 
# From -- ./inp_files/14929.got.cif
#   From: 2010.03.12/outbox.cif.g09.slc.cpg/sg64_8_cif.got.tgz:14929.got - 2010.04.10 20:19:32.
