data_PCOD8262302
_publ_section_title
;
Structure prediction by ZEFSAII (Michael W. Deem and Ramdas Pophale) SiO2 
 PCOD8262302
Probable space group: C M C A
;
_chemical_formula_sum "Si O2"
_cell_formula_units_Z 96
_cell_length_a 8.761057
_cell_length_b 18.949711
_cell_length_c 31.550271
_cell_angle_alpha 90.000000
_cell_angle_beta 90.000000
_cell_angle_gamma 90.000000
_cell_volume 5237.960160
_symmetry_space_group_name_H-M "C M C A"
_symmetry_group_IT_number 64
_symmetry_cell_setting 'orthorhombic'
loop_
_space_group_symop_operation_xyz
x,y,z
-x,1/2-y,1/2+z
x,-y,-z
-x,1/2+y,1/2-z
-x,-y,-z
x,1/2+y,1/2-z
-x,y,z
x,1/2-y,1/2+z
1/2+x,1/2+y,z
1/2-x,-y,1/2+z
1/2+x,1/2-y,-z
1/2-x,y,1/2-z
1/2-x,1/2-y,-z
1/2+x,y,1/2-z
1/2-x,1/2+y,z
1/2+x,-y,1/2+z
loop_
_atom_site_type_symbol
_atom_site_label
_atom_site_fract_x
_atom_site_fract_y
_atom_site_fract_z
Si Si1 0.679198 0.571686 0.366516
Si Si2 0.317714 0.919163 0.366719
Si Si3 0.324588 0.328416 0.293750
Si Si4 0.669996 0.584524 0.957472
Si Si5 0.323832 0.162167 0.293951
Si Si6 0.827814 0.582724 0.451931
O O1 0.500000 0.560991 0.364804
O O2 0.757027 0.497032 0.356731
O O3 0.731310 0.626865 0.331560
O O4 0.724523 0.605173 0.412181
O O5 0.500000 0.923073 0.367815
O O6 0.263364 0.864752 0.331903
O O7 0.254212 0.890627 0.412866
O O8 0.500000 0.352025 0.293945
O O9 0.250000 0.354291 0.250000
O O10 0.305559 0.245423 0.299445
O O11 0.500000 0.615192 0.960051
O O12 0.664774 0.500832 0.953952
O O13 0.746402 0.608521 0.002523
O O14 0.500000 0.138838 0.295006
O O15 0.250000 0.136701 0.250000
O O16 0.000000 0.612490 0.445698
#
# Coordination Sequence:
#
# PCOD8262302 Si02
#       6
#    16  16  16  16  16  16
#     4  11  21  32  49  77 108 134 167 209 251 293
#     4  10  19  33  53  77 105 135 168 206 250 296
#     4  10  21  37  56  77 100 129 166 206 250 302
#     4   7  12  24  45  70  96 130 167 201 241 293
#     4  10  21  38  57  75  98 130 167 206 251 303
#     4   8  13  26  46  68  97 132 168 202 244 295
#
# _framework density 18.327745
#
# number of rings (size 3 to 8) (size 9 to 14) (size 15 to 20)
#    0.000    2.667    0.000    5.000    0.000    2.667 
#    0.000   10.833    0.000    1.000    0.000    0.000 
#    0.000    0.000    0.000    0.000    0.000    0.000 
#
# Total GULP energy -594676.269601 kJ/mol
# GULP energy per Si atom -12389.088950 kJ/mol
# Density = 1.828603 g / cm^3
# Si number density = 18.327745 Si / 1000 Ang^3
#
#
#
# Elastic Constant Matrix: (Units=GPa)
#
#
# Indices 1 2 3 4 5 6 
#
# 1 102.2170 22.7798 58.2952 0.0000 0.0000 0.0000
# 2 22.7798 21.8536 37.7965 0.0000 0.0000 0.0000
# 3 58.2952 37.7965 188.2087 0.0000 0.0000 0.0000
# 4 0.0000 0.0000 0.0000 -23.3844 0.0000 0.0000
# 5 0.0000 0.0000 0.0000 0.0000 28.7188 0.0000
# 6 0.0000 0.0000 0.0000 0.0000 0.0000 22.1892
#
#
#
# Elastic Compliance Matrix: (Units=1/GPa)
#
#
# Indices 1 2 3 4 5 6 
#
# 1 0.013234 -0.010274 -0.002036 0.000000 0.000000 0.000000
# 2 -0.010274 0.078086 -0.012499 0.000000 0.000000 0.000000
# 3 -0.002036 -0.012499 0.008454 0.000000 0.000000 0.000000
# 4 0.000000 0.000000 0.000000 -0.042763 0.000000 0.000000
# 5 0.000000 0.000000 0.000000 0.000000 0.034820 0.000000
# 6 0.000000 0.000000 0.000000 0.000000 0.000000 0.045067
#
#
# Mechanical properties :
#
#
# Convention : Reuss Voigt Hill
#
# Bulk Modulus (GPa) = 19.93775 61.11359 40.52567
# Shear Modulus (GPa) = 24.60231 18.39858 21.50045
#
# Velocity S-wave (km/s) = 3.66779 3.17182 3.42878
# Velocity P-wave (km/s) = 5.37019 6.84333 6.15102
#
# Compressibility (1/GPa) = 0.05015612
#
# Stress axis : x y z
#
# Youngs Moduli (GPa) = 75.56479 12.80645 118.28814
#
# Poissons Ratio (x) = 0.13157 0.24081
# Poissons Ratio (y) = 0.77632 1.47851
# Poissons Ratio (z) = 0.15384 0.16007
#
# Static dielectric constant tensor:
#      x y z
#    x 3.343800 0.000000 0.000000 
#    y 0.000000 2.904900 0.000000 
#    z 0.000000 0.000000 4.159860 
# 
# 
# High freq. dielectric constant tensor:
#      x y z
#    x 1.700350 0.000000 0.000000 
#    y 0.000000 1.659480 0.000000 
#    z 0.000000 0.000000 1.742320 
# 
# From -- ./inp_files/48069.got.cif
#   From: 2010.03.12/outbox.cif.g09.slc.cpg/sg64_25_cif.got.tgz:48069.got - 2010.04.10 20:19:32.
