data_PCOD8262307
_publ_section_title
;
Structure prediction by ZEFSAII (Michael W. Deem and Ramdas Pophale) SiO2 
 PCOD8262307
Probable space group: C M C A
;
_chemical_formula_sum "Si O2"
_cell_formula_units_Z 128
_cell_length_a 18.872460
_cell_length_b 21.793740
_cell_length_c 16.313030
_cell_angle_alpha 90.000000
_cell_angle_beta 90.000000
_cell_angle_gamma 90.000000
_cell_volume 6709.573487
_symmetry_space_group_name_H-M "C M C A"
_symmetry_group_IT_number 64
_symmetry_cell_setting 'orthorhombic'
loop_
_space_group_symop_operation_xyz
x,y,z
-x,1/2-y,1/2+z
x,-y,-z
-x,1/2+y,1/2-z
-x,-y,-z
x,1/2+y,1/2-z
-x,y,z
x,1/2-y,1/2+z
1/2+x,1/2+y,z
1/2-x,-y,1/2+z
1/2+x,1/2-y,-z
1/2-x,y,1/2-z
1/2-x,1/2-y,-z
1/2+x,y,1/2-z
1/2-x,1/2+y,z
1/2+x,-y,1/2+z
loop_
_atom_site_type_symbol
_atom_site_label
_atom_site_fract_x
_atom_site_fract_y
_atom_site_fract_z
Si Si1 0.667775 0.845743 0.759407
Si Si2 0.079667 0.788409 0.882997
Si Si3 0.818440 0.186036 0.565843
Si Si4 0.683528 0.753078 0.898756
Si Si5 0.655242 0.968945 0.416628
Si Si6 0.321721 0.458859 0.423510
Si Si7 0.165752 0.518971 0.242224
Si Si8 0.420834 0.345768 0.053067
O O1 0.750000 0.856398 0.750000
O O2 0.632894 0.818892 0.679217
O O3 0.655849 0.796770 0.828693
O O4 0.636112 0.912974 0.777802
O O5 0.110388 0.721926 0.908534
O O6 0.000000 0.778170 0.848728
O O7 0.077896 0.838038 0.955543
O O8 0.751259 0.208754 0.621962
O O9 0.795125 0.203023 0.473927
O O10 0.834854 0.113835 0.567799
O O11 0.612246 0.715556 0.911298
O O12 0.739040 0.972091 0.420299
O O13 0.628994 0.899906 0.417134
O O14 0.623525 0.000000 0.500000
O O15 0.630635 0.998372 0.329462
O O16 0.352545 0.500000 0.500000
O O17 0.357570 0.478184 0.336602
O O18 0.250000 0.515726 0.250000
O O19 0.500000 0.355184 0.087750
#
# Coordination Sequence:
#
# PCOD8262307 Si02
#       8
#    16  16  16  16  16  16  16  16
#     4  11  20  35  57  83 111 148 191 237 286 341
#     4  10  22  38  57  84 116 151 188 238 300 356
#     4  10  19  35  57  83 113 146 190 238 287 344
#     4  10  20  33  55  84 109 144 193 238 281 345
#     4  10  19  33  53  79 113 153 189 238 289 345
#     4  10  19  33  56  84 115 151 189 240 293 339
#     4   9  20  33  50  81 113 145 192 241 284 345
#     4  10  21  37  55  79 116 154 191 236 294 356
#
# _framework density 19.077218999999999
#
# number of rings (size 3 to 8) (size 9 to 14) (size 15 to 20)
#    0.000    2.000    2.500    1.500    0.000    3.750 
#    2.250    0.625    0.000    1.125    0.000    0.000 
#    0.000    0.000    0.000    0.000    0.000    0.000 
#
# Total GULP energy -793058.276843 kJ/mol
# GULP energy per Si atom -12391.535576 kJ/mol
# Density = 1.903380 g / cm^3
# Si number density = 19.077219 Si / 1000 Ang^3
#
#
#
# Elastic Constant Matrix: (Units=GPa)
#
#
# Indices 1 2 3 4 5 6 
#
# 1 40.6937 11.0443 27.7854 0.0000 0.0000 0.0000
# 2 11.0443 139.5161 67.0290 0.0000 0.0000 0.0000
# 3 27.7854 67.0290 112.1185 0.0000 0.0000 0.0000
# 4 0.0000 0.0000 0.0000 19.9963 0.0000 0.0000
# 5 0.0000 0.0000 0.0000 0.0000 15.9238 0.0000
# 6 0.0000 0.0000 0.0000 0.0000 0.0000 14.6000
#
#
#
# Elastic Compliance Matrix: (Units=1/GPa)
#
#
# Indices 1 2 3 4 5 6 
#
# 1 0.029854 0.001671 -0.008398 0.000000 0.000000 0.000000
# 2 0.001671 0.010150 -0.006482 0.000000 0.000000 0.000000
# 3 -0.008398 -0.006482 0.014875 0.000000 0.000000 0.000000
# 4 0.000000 0.000000 0.000000 0.050009 0.000000 0.000000
# 5 0.000000 0.000000 0.000000 0.000000 0.062799 0.000000
# 6 0.000000 0.000000 0.000000 0.000000 0.000000 0.068493
#
#
# Mechanical properties :
#
#
# Convention : Reuss Voigt Hill
#
# Bulk Modulus (GPa) = 35.13413 56.00507 45.56960
# Shear Modulus (GPa) = 18.37662 22.53533 20.45598
#
# Velocity S-wave (km/s) = 3.10704 3.44069 3.27811
# Velocity P-wave (km/s) = 5.59717 6.72348 6.18601
#
# Compressibility (1/GPa) = 0.02846235
#
# Stress axis : x y z
#
# Youngs Moduli (GPa) = 33.49626 98.52672 67.22486
#
# Poissons Ratio (x) = -0.16467 0.56453
# Poissons Ratio (y) = -0.05598 0.43575
# Poissons Ratio (z) = 0.28129 0.63865
#
# Static dielectric constant tensor:
#      x y z
#    x 3.170220 0.000000 0.000000 
#    y 0.000000 3.625660 0.000000 
#    z 0.000000 0.000000 3.689170 
# 
# 
# High freq. dielectric constant tensor:
#      x y z
#    x 1.703670 0.000000 0.000000 
#    y 0.000000 1.752090 0.000000 
#    z 0.000000 0.000000 1.741210 
# 
# From -- ./inp_files/34696.got.cif
#   From: 2010.03.12/outbox.cif.g09.slc.cpg/sg64_18_cif.got.tgz:34696.got - 2010.04.10 20:19:32.
