data_PCOD8262850
_publ_section_title
;
Structure prediction by ZEFSAII (Michael W. Deem and Ramdas Pophale) SiO2 
 PCOD8262850
Probable space group: C M C A
;
_chemical_formula_sum "Si O2"
_cell_formula_units_Z 112
_cell_length_a 9.457758
_cell_length_b 25.080630
_cell_length_c 25.168782
_cell_angle_alpha 90.000000
_cell_angle_beta 90.000000
_cell_angle_gamma 90.000000
_cell_volume 5970.199418
_symmetry_space_group_name_H-M "C M C A"
_symmetry_group_IT_number 64
_symmetry_cell_setting 'orthorhombic'
loop_
_space_group_symop_operation_xyz
x,y,z
-x,1/2-y,1/2+z
x,-y,-z
-x,1/2+y,1/2-z
-x,-y,-z
x,1/2+y,1/2-z
-x,y,z
x,1/2-y,1/2+z
1/2+x,1/2+y,z
1/2-x,-y,1/2+z
1/2+x,1/2-y,-z
1/2-x,y,1/2-z
1/2-x,1/2-y,-z
1/2+x,y,1/2-z
1/2-x,1/2+y,z
1/2+x,-y,1/2+z
loop_
_atom_site_type_symbol
_atom_site_label
_atom_site_fract_x
_atom_site_fract_y
_atom_site_fract_z
Si Si1 0.332635 0.156003 0.507112
Si Si2 0.168950 0.042311 0.957746
Si Si3 0.664052 0.631035 0.799498
Si Si4 0.165986 0.817643 0.889660
Si Si5 0.833674 0.904872 0.801577
Si Si6 0.664281 0.284565 0.110661
Si Si7 0.167502 0.481454 0.341819
O O1 0.500000 0.150640 0.504368
O O2 0.268669 0.099640 0.525849
O O3 0.274411 0.169866 0.448655
O O4 0.289298 0.200562 0.550453
O O5 0.230457 0.024587 0.900904
O O6 0.000000 0.044404 0.956039
O O7 0.225038 0.000000 0.000000
O O8 0.500000 0.633640 0.785014
O O9 0.750000 0.655083 0.750000
O O10 0.696526 0.664902 0.852084
O O11 0.714715 0.570135 0.808355
O O12 0.201560 0.866703 0.851079
O O13 0.245254 0.765223 0.868562
O O14 0.000000 0.805681 0.890581
O O15 0.750000 0.884042 0.750000
O O16 0.000000 0.904664 0.788992
O O17 0.776280 0.964116 0.815404
O O18 0.500000 0.269093 0.113208
O O19 0.000000 0.484347 0.345976
#
# Coordination Sequence:
#
# PCOD8262850 Si02
#       7
#    16  16  16  16  16  16  16
#     4   9  16  30  50  76 107 134 166 211 260 308
#     4   9  14  22  44  76 107 135 163 203 257 310
#     4  10  20  34  53  77 104 134 171 214 258 307
#     4  10  21  35  53  78 106 135 173 217 257 302
#     4  10  21  36  54  77 105 137 174 215 258 306
#     4  10  20  35  54  76 104 139 174 211 258 311
#     4   9  16  30  50  75 105 133 166 209 258 310
#
# _framework density 18.759841999999999
#
# number of rings (size 3 to 8) (size 9 to 14) (size 15 to 20)
#    0.000    2.429    1.429    1.714    0.000    5.143 
#    0.000    2.857    0.000    0.000    0.000    0.000 
#    0.000    4.571    0.000    0.000    0.000    0.000 
#
# Total GULP energy -694365.188908 kJ/mol
# GULP energy per Si atom -12399.378373 kJ/mol
# Density = 1.871714 g / cm^3
# Si number density = 18.759842 Si / 1000 Ang^3
#
#
#
# Elastic Constant Matrix: (Units=GPa)
#
#
# Indices 1 2 3 4 5 6 
#
# 1 30.2315 37.4690 40.8465 0.0000 0.0000 0.0000
# 2 37.4690 120.3559 44.1418 0.0000 0.0000 0.0000
# 3 40.8465 44.1418 131.6781 0.0000 0.0000 0.0000
# 4 0.0000 0.0000 0.0000 17.3402 0.0000 0.0000
# 5 0.0000 0.0000 0.0000 0.0000 23.7895 0.0000
# 6 0.0000 0.0000 0.0000 0.0000 0.0000 23.1757
#
#
#
# Elastic Compliance Matrix: (Units=1/GPa)
#
#
# Indices 1 2 3 4 5 6 
#
# 1 0.081930 -0.018454 -0.019228 0.000000 0.000000 0.000000
# 2 -0.018454 0.013630 0.001155 0.000000 0.000000 0.000000
# 3 -0.019228 0.001155 0.013172 0.000000 0.000000 0.000000
# 4 0.000000 0.000000 0.000000 0.057669 0.000000 0.000000
# 5 0.000000 0.000000 0.000000 0.000000 0.042035 0.000000
# 6 0.000000 0.000000 0.000000 0.000000 0.000000 0.043149
#
#
# Mechanical properties :
#
#
# Convention : Reuss Voigt Hill
#
# Bulk Modulus (GPa) = 28.02899 58.57556 43.30227
# Shear Modulus (GPa) = 14.85745 23.51497 19.18621
#
# Velocity S-wave (km/s) = 2.81727 3.54428 3.20148
# Velocity P-wave (km/s) = 5.05530 6.93116 6.06618
#
# Compressibility (1/GPa) = 0.03567735
#
# Stress axis : x y z
#
# Youngs Moduli (GPa) = 12.20556 73.36729 75.92088
#
# Poissons Ratio (x) = 1.35392 1.45983
# Poissons Ratio (y) = 0.22524 -0.08771
# Poissons Ratio (z) = 0.23469 -0.08476
#
# Static dielectric constant tensor:
#      x y z
#    x 2.878010 0.000000 0.000000 
#    y 0.000000 3.527010 0.000000 
#    z 0.000000 0.000000 3.563130 
# 
# 
# High freq. dielectric constant tensor:
#      x y z
#    x 1.669760 0.000000 0.000000 
#    y 0.000000 1.737680 0.000000 
#    z 0.000000 0.000000 1.741420 
# 
# From -- ./inp_files/38450.got.cif
#   From: 2010.03.12/outbox.cif.g09.slc.cpg/sg64_20_cif.got.tgz:38450.got - 2010.04.10 20:19:32.
