data_PCOD8262453
_publ_section_title
;
Structure prediction by ZEFSAII (Michael W. Deem and Ramdas Pophale) SiO2 
 PCOD8262453
Probable space group: C M C A
;
_chemical_formula_sum "Si O2"
_cell_formula_units_Z 88
_cell_length_a 19.925397
_cell_length_b 15.409548
_cell_length_c 15.178196
_cell_angle_alpha 90.000000
_cell_angle_beta 90.000000
_cell_angle_gamma 90.000000
_cell_volume 4660.333965
_symmetry_space_group_name_H-M "C M C A"
_symmetry_group_IT_number 64
_symmetry_cell_setting 'orthorhombic'
loop_
_space_group_symop_operation_xyz
x,y,z
-x,1/2-y,1/2+z
x,-y,-z
-x,1/2+y,1/2-z
-x,-y,-z
x,1/2+y,1/2-z
-x,y,z
x,1/2-y,1/2+z
1/2+x,1/2+y,z
1/2-x,-y,1/2+z
1/2+x,1/2-y,-z
1/2-x,y,1/2-z
1/2-x,1/2-y,-z
1/2+x,y,1/2-z
1/2-x,1/2+y,z
1/2+x,-y,1/2+z
loop_
_atom_site_type_symbol
_atom_site_label
_atom_site_fract_x
_atom_site_fract_y
_atom_site_fract_z
Si Si1 0.881277 0.031521 0.236575
Si Si2 0.079643 0.265509 0.030290
Si Si3 0.920929 0.658587 0.780519
Si Si4 0.074979 0.575141 0.445524
Si Si5 0.131938 0.310595 0.844268
Si Si6 0.750000 0.619595 0.250000
O O1 0.930371 0.047006 0.155402
O O2 0.904100 0.099757 0.312528
O O3 0.805469 0.056629 0.204829
O O4 0.883990 0.932713 0.267562
O O5 0.098242 0.313237 0.120822
O O6 0.108899 0.168337 0.041056
O O7 0.000000 0.269213 0.013075
O O8 0.119303 0.306132 0.948314
O O9 0.896993 0.727667 0.707742
O O10 0.000000 0.646382 0.769267
O O11 0.114029 0.500000 0.500000
O O12 0.000000 0.583725 0.483785
O O13 0.212021 0.319630 0.822637
#
# Coordination Sequence:
#
# PCOD8262453 Si02
#       6
#    16  16  16  16  16   8
#     4  10  21  40  58  82 120 161 199 242 296 352
#     4  10  20  34  57  91 122 152 197 249 307 366
#     4  11  22  36  62  94 120 155 197 249 315 359
#     4  10  19  34  57  87 121 154 199 251 299 360
#     4  10  21  41  60  82 123 159 199 247 295 351
#     4   8  22  42  58  78 116 164 204 238 282 350
#
# _framework density 18.882767000000001
#
# number of rings (size 3 to 8) (size 9 to 14) (size 15 to 20)
#    1.091    0.909    1.818    2.182    0.000    5.091 
#    0.000    7.273    0.000    0.000    0.000    0.000 
#    0.000    0.000    0.000    0.000    0.000    0.000 
#
# Total GULP energy -545130.618176 kJ/mol
# GULP energy per Si atom -12389.332231 kJ/mol
# Density = 1.883979 g / cm^3
# Si number density = 18.882767 Si / 1000 Ang^3
#
#
#
# Elastic Constant Matrix: (Units=GPa)
#
#
# Indices 1 2 3 4 5 6 
#
# 1 58.9722 23.5806 20.6714 0.0000 0.0000 0.0000
# 2 23.5806 139.6318 34.4518 0.0000 0.0000 0.0000
# 3 20.6714 34.4518 96.1347 0.0000 0.0000 0.0000
# 4 0.0000 0.0000 0.0000 37.4233 0.0000 0.0000
# 5 0.0000 0.0000 0.0000 0.0000 7.7376 0.0000
# 6 0.0000 0.0000 0.0000 0.0000 0.0000 29.3845
#
#
#
# Elastic Compliance Matrix: (Units=1/GPa)
#
#
# Indices 1 2 3 4 5 6 
#
# 1 0.019058 -0.002421 -0.003230 0.000000 0.000000 0.000000
# 2 -0.002421 0.008164 -0.002405 0.000000 0.000000 0.000000
# 3 -0.003230 -0.002405 0.011959 0.000000 0.000000 0.000000
# 4 0.000000 0.000000 0.000000 0.026721 0.000000 0.000000
# 5 0.000000 0.000000 0.000000 0.000000 0.129239 0.000000
# 6 0.000000 0.000000 0.000000 0.000000 0.000000 0.034032
#
#
# Mechanical properties :
#
#
# Convention : Reuss Voigt Hill
#
# Bulk Modulus (GPa) = 43.35203 50.23847 46.79525
# Shear Modulus (GPa) = 19.76484 29.31141 24.53812
#
# Velocity S-wave (km/s) = 3.23880 3.94418 3.60877
# Velocity P-wave (km/s) = 6.08234 6.88515 6.49616
#
# Compressibility (1/GPa) = 0.02306697
#
# Stress axis : x y z
#
# Youngs Moduli (GPa) = 52.47246 122.48865 83.62228
#
# Poissons Ratio (x) = 0.29660 0.27011
# Poissons Ratio (y) = 0.12706 0.20112
# Poissons Ratio (z) = 0.16949 0.29459
#
# Static dielectric constant tensor:
#      x y z
#    x 3.180380 0.000000 0.000000 
#    y 0.000000 3.623210 0.000000 
#    z 0.000000 0.000000 3.327130 
# 
# 
# High freq. dielectric constant tensor:
#      x y z
#    x 1.704340 0.000000 0.000000 
#    y 0.000000 1.746210 0.000000 
#    z 0.000000 0.000000 1.728980 
# 
# From -- ./inp_files/27294.got.cif
#   From: 2010.03.12/outbox.cif.g09.slc.cpg/sg64_14_cif.got.tgz:27294.got - 2010.04.10 20:19:32.
