data_PCOD8262060
_publ_section_title
;
Structure prediction by ZEFSAII (Michael W. Deem and Ramdas Pophale) SiO2 
 PCOD8262060
Probable space group: C M C A
;
_chemical_formula_sum "Si O2"
_cell_formula_units_Z 112
_cell_length_a 19.494891
_cell_length_b 26.379362
_cell_length_c 12.243787
_cell_angle_alpha 90.000000
_cell_angle_beta 90.000000
_cell_angle_gamma 90.000000
_cell_volume 6296.524024
_symmetry_space_group_name_H-M "C M C A"
_symmetry_group_IT_number 64
_symmetry_cell_setting 'orthorhombic'
loop_
_space_group_symop_operation_xyz
x,y,z
-x,1/2-y,1/2+z
x,-y,-z
-x,1/2+y,1/2-z
-x,-y,-z
x,1/2+y,1/2-z
-x,y,z
x,1/2-y,1/2+z
1/2+x,1/2+y,z
1/2-x,-y,1/2+z
1/2+x,1/2-y,-z
1/2-x,y,1/2-z
1/2-x,1/2-y,-z
1/2+x,y,1/2-z
1/2-x,1/2+y,z
1/2+x,-y,1/2+z
loop_
_atom_site_type_symbol
_atom_site_label
_atom_site_fract_x
_atom_site_fract_y
_atom_site_fract_z
Si Si1 0.826536 0.433285 0.800357
Si Si2 0.423078 0.981256 0.122770
Si Si3 0.573914 0.702527 0.406886
Si Si4 0.771261 0.305723 0.128385
Si Si5 0.864942 0.386148 0.022470
Si Si6 0.841714 0.716011 0.470280
Si Si7 0.079113 0.649679 0.309988
O O1 0.750000 0.441177 0.750000
O O2 0.869236 0.486106 0.805002
O O3 0.869976 0.396065 0.721748
O O4 0.820263 0.412434 0.924983
O O5 0.500000 0.983834 0.174913
O O6 0.397180 0.923879 0.111617
O O7 0.427005 0.000000 0.000000
O O8 0.500000 0.725989 0.432531
O O9 0.576963 0.646845 0.461985
O O10 0.628129 0.742397 0.447946
O O11 0.584170 0.694577 0.278187
O O12 0.750000 0.316445 0.250000
O O13 0.824552 0.348499 0.098881
O O14 0.801204 0.248307 0.121604
O O15 0.709904 0.315851 0.043896
O O16 0.895920 0.676299 0.421524
O O17 0.000000 0.630579 0.322328
#
# Coordination Sequence:
#
# PCOD8262060 Si02
#       7
#    16  16  16  16  16  16  16
#     4  10  19  31  49  75 102 128 160 200 251 307
#     4   9  17  31  51  73  96 122 157 204 252 291
#     4   9  17  29  46  69  95 126 165 203 241 287
#     4  10  20  32  47  69  96 130 166 201 242 289
#     4   9  18  31  48  70  96 125 159 204 251 292
#     4  10  19  31  47  68  98 131 164 202 242 286
#     4  10  19  31  49  72 100 134 167 203 247 296
#
# _framework density 17.787592
#
# number of rings (size 3 to 8) (size 9 to 14) (size 15 to 20)
#    0.000    2.429    0.000    3.000    0.000    6.857 
#    0.000    0.000    0.000    2.571    0.000    0.000 
#    0.000   14.857    0.000    0.000    0.000    0.000 
#
# Total GULP energy -693938.679843 kJ/mol
# GULP energy per Si atom -12391.762140 kJ/mol
# Density = 1.774711 g / cm^3
# Si number density = 17.787592 Si / 1000 Ang^3
#
#
#
# Elastic Constant Matrix: (Units=GPa)
#
#
# Indices 1 2 3 4 5 6 
#
# 1 122.1559 34.5577 38.7266 0.0000 0.0000 0.0000
# 2 34.5577 69.2741 23.8588 0.0000 0.0000 0.0000
# 3 38.7266 23.8588 57.4650 0.0000 0.0000 0.0000
# 4 0.0000 0.0000 0.0000 21.1047 0.0000 0.0000
# 5 0.0000 0.0000 0.0000 0.0000 18.2828 0.0000
# 6 0.0000 0.0000 0.0000 0.0000 0.0000 20.9426
#
#
#
# Elastic Compliance Matrix: (Units=1/GPa)
#
#
# Indices 1 2 3 4 5 6 
#
# 1 0.011073 -0.003447 -0.006032 0.000000 0.000000 0.000000
# 2 -0.003447 0.017917 -0.005116 0.000000 0.000000 0.000000
# 3 -0.006032 -0.005116 0.023591 0.000000 0.000000 0.000000
# 4 0.000000 0.000000 0.000000 0.047383 0.000000 0.000000
# 5 0.000000 0.000000 0.000000 0.000000 0.054696 0.000000
# 6 0.000000 0.000000 0.000000 0.000000 0.000000 0.047749
#
#
# Mechanical properties :
#
#
# Convention : Reuss Voigt Hill
#
# Bulk Modulus (GPa) = 42.74888 49.24235 45.99561
# Shear Modulus (GPa) = 20.88589 22.18281 21.53435
#
# Velocity S-wave (km/s) = 3.43035 3.53525 3.48320
# Velocity P-wave (km/s) = 6.30674 6.66391 6.48778
#
# Compressibility (1/GPa) = 0.02339243
#
# Stress axis : x y z
#
# Youngs Moduli (GPa) = 90.30574 55.81333 42.38944
#
# Poissons Ratio (x) = 0.19237 0.25567
# Poissons Ratio (y) = 0.31126 0.21687
# Poissons Ratio (z) = 0.54468 0.28555
#
# Static dielectric constant tensor:
#      x y z
#    x 3.407300 0.000000 0.000000 
#    y 0.000000 3.360230 0.000000 
#    z 0.000000 0.000000 3.085940 
# 
# 
# High freq. dielectric constant tensor:
#      x y z
#    x 1.696520 0.000000 0.000000 
#    y 0.000000 1.677960 0.000000 
#    z 0.000000 0.000000 1.663820 
# 
# From -- ./inp_files/17531.got.cif
#   From: 2010.03.12/outbox.cif.g09.slc.cpg/sg64_9_cif.got.tgz:17531.got - 2010.04.10 20:19:32.
