data_PCOD8262347
_publ_section_title
;
Structure prediction by ZEFSAII (Michael W. Deem and Ramdas Pophale) SiO2 
 PCOD8262347
Probable space group: C M C A
;
_chemical_formula_sum "Si O2"
_cell_formula_units_Z 80
_cell_length_a 16.185433
_cell_length_b 26.041487
_cell_length_c 9.052736
_cell_angle_alpha 90.000000
_cell_angle_beta 90.000000
_cell_angle_gamma 90.000000
_cell_volume 3815.662529
_symmetry_space_group_name_H-M "C M C A"
_symmetry_group_IT_number 64
_symmetry_cell_setting 'orthorhombic'
loop_
_space_group_symop_operation_xyz
x,y,z
-x,1/2-y,1/2+z
x,-y,-z
-x,1/2+y,1/2-z
-x,-y,-z
x,1/2+y,1/2-z
-x,y,z
x,1/2-y,1/2+z
1/2+x,1/2+y,z
1/2-x,-y,1/2+z
1/2+x,1/2-y,-z
1/2-x,y,1/2-z
1/2-x,1/2-y,-z
1/2+x,y,1/2-z
1/2-x,1/2+y,z
1/2+x,-y,1/2+z
loop_
_atom_site_type_symbol
_atom_site_label
_atom_site_fract_x
_atom_site_fract_y
_atom_site_fract_z
Si Si1 0.157442 0.095530 0.809431
Si Si2 0.903803 0.411963 0.626411
Si Si3 0.405703 0.500816 0.340327
Si Si4 0.838456 0.805002 0.821109
Si Si5 0.336885 0.791729 0.332265
O O1 0.250000 0.089368 0.750000
O O2 0.098732 0.055911 0.726922
O O3 0.122919 0.153648 0.784982
O O4 0.153984 0.083315 0.982999
O O5 0.866834 0.455364 0.735827
O O6 0.894942 0.355429 0.697035
O O7 0.000000 0.421962 0.586371
O O8 0.360829 0.500000 0.500000
O O9 0.500000 0.517060 0.362306
O O10 0.750000 0.818041 0.750000
O O11 0.884853 0.758383 0.731755
O O12 0.827536 0.788710 0.991813
O O13 0.250000 0.787020 0.250000
#
# Coordination Sequence:
#
# PCOD8262347 Si02
#       5
#    16  16  16  16  16
#     4  10  21  36  58  85 111 147 195 239 284 343
#     4  10  22  40  59  82 118 159 193 234 294 350
#     4  10  22  38  56  80 113 152 190 235 294 349
#     4  10  19  33  56  81 110 148 190 232 279 339
#     4   9  18  32  52  81 111 143 181 229 288 336
#
# _framework density 20.966214000000001
#
# number of rings (size 3 to 8) (size 9 to 14) (size 15 to 20)
#    0.000    2.200    0.000    3.600    0.000   10.400 
#    0.000    5.000    0.000    0.000    0.000    0.000 
#    0.000    0.000    0.000    0.000    0.000    0.000 
#
# Total GULP energy -495695.604840 kJ/mol
# GULP energy per Si atom -12392.390121 kJ/mol
# Density = 2.091849 g / cm^3
# Si number density = 20.966214 Si / 1000 Ang^3
#
#
#
# Elastic Constant Matrix: (Units=GPa)
#
#
# Indices 1 2 3 4 5 6 
#
# 1 37.8475 21.4539 28.2234 0.0000 0.0000 0.0000
# 2 21.4539 160.2939 88.7621 0.0000 0.0000 0.0000
# 3 28.2234 88.7621 149.6439 0.0000 0.0000 0.0000
# 4 0.0000 0.0000 0.0000 41.1981 0.0000 0.0000
# 5 0.0000 0.0000 0.0000 0.0000 24.6408 0.0000
# 6 0.0000 0.0000 0.0000 0.0000 0.0000 27.0892
#
#
#
# Elastic Compliance Matrix: (Units=1/GPa)
#
#
# Indices 1 2 3 4 5 6 
#
# 1 0.030942 -0.001355 -0.005032 0.000000 0.000000 0.000000
# 2 -0.001355 0.009349 -0.005290 0.000000 0.000000 0.000000
# 3 -0.005032 -0.005290 0.010769 0.000000 0.000000 0.000000
# 4 0.000000 0.000000 0.000000 0.024273 0.000000 0.000000
# 5 0.000000 0.000000 0.000000 0.000000 0.040583 0.000000
# 6 0.000000 0.000000 0.000000 0.000000 0.000000 0.036915
#
#
# Mechanical properties :
#
#
# Convention : Reuss Voigt Hill
#
# Bulk Modulus (GPa) = 36.09201 69.40712 52.74957
# Shear Modulus (GPa) = 26.96553 32.54201 29.75377
#
# Velocity S-wave (km/s) = 3.59017 3.94396 3.77122
# Velocity P-wave (km/s) = 5.86835 7.34275 6.64656
#
# Compressibility (1/GPa) = 0.02770696
#
# Stress axis : x y z
#
# Youngs Moduli (GPa) = 32.31806 106.96118 92.85540
#
# Poissons Ratio (x) = 0.14491 0.46727
# Poissons Ratio (y) = 0.04378 0.49121
# Poissons Ratio (z) = 0.16263 0.56583
#
# Static dielectric constant tensor:
#      x y z
#    x 3.246570 0.000000 0.000000 
#    y 0.000000 4.554360 0.000000 
#    z 0.000000 0.000000 4.015250 
# 
# 
# High freq. dielectric constant tensor:
#      x y z
#    x 1.770360 0.000000 0.000000 
#    y 0.000000 1.849020 0.000000 
#    z 0.000000 0.000000 1.831540 
# 
# From -- ./inp_files/7092.got.cif
#   From: 2010.03.12/outbox.cif.g09.slc.cpg/sg64_4_cif.got.tgz:7092.got - 2010.04.10 20:19:32.
