data_PCOD8262256
_publ_section_title
;
Structure prediction by ZEFSAII (Michael W. Deem and Ramdas Pophale) SiO2 
 PCOD8262256
Probable space group: C M C A
;
_chemical_formula_sum "Si O2"
_cell_formula_units_Z 80
_cell_length_a 9.179538
_cell_length_b 15.167528
_cell_length_c 28.543200
_cell_angle_alpha 90.000000
_cell_angle_beta 90.000000
_cell_angle_gamma 90.000000
_cell_volume 3974.095415
_symmetry_space_group_name_H-M "C M C A"
_symmetry_group_IT_number 64
_symmetry_cell_setting 'orthorhombic'
loop_
_space_group_symop_operation_xyz
x,y,z
-x,1/2-y,1/2+z
x,-y,-z
-x,1/2+y,1/2-z
-x,-y,-z
x,1/2+y,1/2-z
-x,y,z
x,1/2-y,1/2+z
1/2+x,1/2+y,z
1/2-x,-y,1/2+z
1/2+x,1/2-y,-z
1/2-x,y,1/2-z
1/2-x,1/2-y,-z
1/2+x,y,1/2-z
1/2-x,1/2+y,z
1/2+x,-y,1/2+z
loop_
_atom_site_type_symbol
_atom_site_label
_atom_site_fract_x
_atom_site_fract_y
_atom_site_fract_z
Si Si1 0.667038 0.901863 0.350002
Si Si2 0.667484 0.153959 0.547344
Si Si3 0.668616 0.140313 0.043135
Si Si4 0.833032 0.403754 0.633127
Si Si5 0.827243 0.247783 0.701740
O O1 0.500000 0.870438 0.342679
O O2 0.714360 0.889131 0.403819
O O3 0.771587 0.846801 0.316170
O O4 0.685208 0.005217 0.337907
O O5 0.500000 0.135587 0.535448
O O6 0.700767 0.257141 0.551263
O O7 0.761827 0.109733 0.506090
O O8 0.500000 0.117035 0.041619
O O9 0.739676 0.088340 0.086061
O O10 0.779413 0.323271 0.665260
O O11 0.000000 0.389566 0.618137
O O12 0.750000 0.271906 0.750000
O O13 0.000000 0.244080 0.708954
#
# Coordination Sequence:
#
# PCOD8262256 Si02
#       5
#    16  16  16  16  16
#     4  10  21  40  63  88 118 154 197 240 288 346
#     4   9  18  33  55  82 116 159 198 238 286 341
#     4  10  19  32  55  85 118 158 200 241 283 338
#     4  10  22  39  61  88 119 154 193 238 291 348
#     4  11  24  42  64  88 115 149 188 239 296 349
#
# _framework density 20.130367
#
# number of rings (size 3 to 8) (size 9 to 14) (size 15 to 20)
#    0.000    2.000    2.000    1.200    0.000    4.800 
#    0.000    6.000    0.000    0.000    0.000    0.000 
#    0.000    0.000    0.000    0.000    0.000    0.000 
#
# Total GULP energy -496171.816468 kJ/mol
# GULP energy per Si atom -12404.295412 kJ/mol
# Density = 2.008455 g / cm^3
# Si number density = 20.130367 Si / 1000 Ang^3
#
#
#
# Elastic Constant Matrix: (Units=GPa)
#
#
# Indices 1 2 3 4 5 6 
#
# 1 79.0762 20.2487 41.4009 0.0000 0.0000 0.0000
# 2 20.2487 51.9147 17.2231 0.0000 0.0000 0.0000
# 3 41.4009 17.2231 86.5107 0.0000 0.0000 0.0000
# 4 0.0000 0.0000 0.0000 13.2887 0.0000 0.0000
# 5 0.0000 0.0000 0.0000 0.0000 38.0392 0.0000
# 6 0.0000 0.0000 0.0000 0.0000 0.0000 26.0503
#
#
#
# Elastic Compliance Matrix: (Units=1/GPa)
#
#
# Indices 1 2 3 4 5 6 
#
# 1 0.017765 -0.004399 -0.007626 0.000000 0.000000 0.000000
# 2 -0.004399 0.021714 -0.002218 0.000000 0.000000 0.000000
# 3 -0.007626 -0.002218 0.015650 0.000000 0.000000 0.000000
# 4 0.000000 0.000000 0.000000 0.075252 0.000000 0.000000
# 5 0.000000 0.000000 0.000000 0.000000 0.026289 0.000000
# 6 0.000000 0.000000 0.000000 0.000000 0.000000 0.038387
#
#
# Mechanical properties :
#
#
# Convention : Reuss Voigt Hill
#
# Bulk Modulus (GPa) = 37.53213 41.69411 39.61312
# Shear Modulus (GPa) = 21.51241 24.71758 23.11499
#
# Velocity S-wave (km/s) = 3.27258 3.50791 3.39228
# Velocity P-wave (km/s) = 5.74149 6.09625 5.92152
#
# Compressibility (1/GPa) = 0.02664384
#
# Stress axis : x y z
#
# Youngs Moduli (GPa) = 56.29013 46.05336 63.89669
#
# Poissons Ratio (x) = 0.20259 0.48727
# Poissons Ratio (y) = 0.24763 0.14170
# Poissons Ratio (z) = 0.42926 0.10213
#
# Static dielectric constant tensor:
#      x y z
#    x 3.575060 0.000000 0.000000 
#    y 0.000000 3.607310 0.000000 
#    z 0.000000 0.000000 3.604160 
# 
# 
# High freq. dielectric constant tensor:
#      x y z
#    x 1.782920 0.000000 0.000000 
#    y 0.000000 1.784830 0.000000 
#    z 0.000000 0.000000 1.781210 
# 
# From -- ./inp_files/47892.got.cif
#   From: 2010.03.12/outbox.cif.g09.slc.cpg/sg64_24_cif.got.tgz:47892.got - 2010.04.10 20:19:32.
