data_PCOD8262396
_publ_section_title
;
Structure prediction by ZEFSAII (Michael W. Deem and Ramdas Pophale) SiO2 
 PCOD8262396
Probable space group: C M C A
;
_chemical_formula_sum "Si O2"
_cell_formula_units_Z 112
_cell_length_a 21.785961
_cell_length_b 26.444057
_cell_length_c 9.852484
_cell_angle_alpha 90.000000
_cell_angle_beta 90.000000
_cell_angle_gamma 90.000000
_cell_volume 5676.106621
_symmetry_space_group_name_H-M "C M C A"
_symmetry_group_IT_number 64
_symmetry_cell_setting 'orthorhombic'
loop_
_space_group_symop_operation_xyz
x,y,z
-x,1/2-y,1/2+z
x,-y,-z
-x,1/2+y,1/2-z
-x,-y,-z
x,1/2+y,1/2-z
-x,y,z
x,1/2-y,1/2+z
1/2+x,1/2+y,z
1/2-x,-y,1/2+z
1/2+x,1/2-y,-z
1/2-x,y,1/2-z
1/2-x,1/2-y,-z
1/2+x,y,1/2-z
1/2-x,1/2+y,z
1/2+x,-y,1/2+z
loop_
_atom_site_type_symbol
_atom_site_label
_atom_site_fract_x
_atom_site_fract_y
_atom_site_fract_z
Si Si1 0.933362 0.514691 0.343727
Si Si2 0.196687 0.478008 0.347779
Si Si3 0.432410 0.730754 0.103246
Si Si4 0.702231 0.868531 0.438073
Si Si5 0.701615 0.164763 0.132561
Si Si6 0.143118 0.269265 0.341944
Si Si7 0.392675 0.375051 0.819748
O O1 0.932498 0.500000 0.500000
O O2 0.870537 0.491047 0.282176
O O3 0.933123 0.574759 0.319377
O O4 0.000000 0.495647 0.283046
O O5 0.204351 0.500000 0.500000
O O6 0.250000 0.501138 0.250000
O O7 0.204242 0.417817 0.345078
O O8 0.500000 0.754712 0.115733
O O9 0.384061 0.762931 0.191178
O O10 0.435712 0.672952 0.153691
O O11 0.412961 0.732085 0.947071
O O12 0.770673 0.855988 0.491993
O O13 0.679165 0.822008 0.346804
O O14 0.657592 0.879524 0.562803
O O15 0.750000 0.156155 0.250000
O O16 0.689556 0.224499 0.120002
O O17 0.640438 0.133560 0.173713
#
# Coordination Sequence:
#
# PCOD8262396 Si02
#       7
#    16  16  16  16  16  16  16
#     4  10  19  34  57  84 116 149 194 247 291 346
#     4  11  24  38  59  88 118 153 194 249 299 351
#     4  10  20  35  54  79 111 149 191 238 284 340
#     4  10  19  34  52  82 113 148 187 230 297 345
#     4   9  19  32  56  82 114 148 182 237 284 353
#     4  10  21  35  55  81 114 148 194 230 287 354
#     4   9  17  32  53  83 108 144 190 235 287 341
#
# _framework density 19.731836000000001
#
# number of rings (size 3 to 8) (size 9 to 14) (size 15 to 20)
#    0.000    2.143    2.857    2.143    2.000    1.714 
#    0.000    0.714    0.000    0.429    0.000    0.000 
#    0.000    0.000    0.000    0.000    0.000    0.000 
#
# Total GULP energy -694064.775508 kJ/mol
# GULP energy per Si atom -12394.013848 kJ/mol
# Density = 1.968693 g / cm^3
# Si number density = 19.731836 Si / 1000 Ang^3
#
#
#
# Elastic Constant Matrix: (Units=GPa)
#
#
# Indices 1 2 3 4 5 6 
#
# 1 97.5463 11.5177 20.1370 0.0000 0.0000 0.0000
# 2 11.5177 96.0121 18.1263 0.0000 0.0000 0.0000
# 3 20.1370 18.1263 40.8852 0.0000 0.0000 0.0000
# 4 0.0000 0.0000 0.0000 18.2822 0.0000 0.0000
# 5 0.0000 0.0000 0.0000 0.0000 13.6294 0.0000
# 6 0.0000 0.0000 0.0000 0.0000 0.0000 91.3869
#
#
#
# Elastic Compliance Matrix: (Units=1/GPa)
#
#
# Indices 1 2 3 4 5 6 
#
# 1 0.011422 -0.000336 -0.005476 0.000000 0.000000 0.000000
# 2 -0.000336 0.011377 -0.004878 0.000000 0.000000 0.000000
# 3 -0.005476 -0.004878 0.029319 0.000000 0.000000 0.000000
# 4 0.000000 0.000000 0.000000 0.054698 0.000000 0.000000
# 5 0.000000 0.000000 0.000000 0.000000 0.073371 0.000000
# 6 0.000000 0.000000 0.000000 0.000000 0.000000 0.010942
#
#
# Mechanical properties :
#
#
# Convention : Reuss Voigt Hill
#
# Bulk Modulus (GPa) = 32.53576 37.11172 34.82374
# Shear Modulus (GPa) = 22.44616 36.97054 29.70835
#
# Velocity S-wave (km/s) = 3.37643 4.33326 3.88442
# Velocity P-wave (km/s) = 5.63251 6.62458 6.14859
#
# Compressibility (1/GPa) = 0.03073541
#
# Stress axis : x y z
#
# Youngs Moduli (GPa) = 87.55204 87.89931 34.10790
#
# Poissons Ratio (x) = 0.02956 0.18679
# Poissons Ratio (y) = 0.02944 0.16638
# Poissons Ratio (z) = 0.47947 0.42879
#
# Static dielectric constant tensor:
#      x y z
#    x 3.870260 0.000000 0.000000 
#    y 0.000000 3.651440 0.000000 
#    z 0.000000 0.000000 3.382980 
# 
# 
# High freq. dielectric constant tensor:
#      x y z
#    x 1.775720 0.000000 0.000000 
#    y 0.000000 1.765820 0.000000 
#    z 0.000000 0.000000 1.734860 
# 
# From -- ./inp_files/17690.got.cif
#   From: 2010.03.12/outbox.cif.g09.slc.cpg/sg64_9_cif.got.tgz:17690.got - 2010.04.10 20:19:32.
