data_PCOD8262929
_publ_section_title
;
Structure prediction by ZEFSAII (Michael W. Deem and Ramdas Pophale) SiO2 
 PCOD8262929
Probable space group: C M C A
;
_chemical_formula_sum "Si O2"
_cell_formula_units_Z 96
_cell_length_a 8.918674
_cell_length_b 20.477335
_cell_length_c 27.698144
_cell_angle_alpha 90.000000
_cell_angle_beta 90.000000
_cell_angle_gamma 90.000000
_cell_volume 5058.530742
_symmetry_space_group_name_H-M "C M C A"
_symmetry_group_IT_number 64
_symmetry_cell_setting 'orthorhombic'
loop_
_space_group_symop_operation_xyz
x,y,z
-x,1/2-y,1/2+z
x,-y,-z
-x,1/2+y,1/2-z
-x,-y,-z
x,1/2+y,1/2-z
-x,y,z
x,1/2-y,1/2+z
1/2+x,1/2+y,z
1/2-x,-y,1/2+z
1/2+x,1/2-y,-z
1/2-x,y,1/2-z
1/2-x,1/2-y,-z
1/2+x,y,1/2-z
1/2-x,1/2+y,z
1/2+x,-y,1/2+z
loop_
_atom_site_type_symbol
_atom_site_label
_atom_site_fract_x
_atom_site_fract_y
_atom_site_fract_z
Si Si1 0.173281 0.322886 0.549713
Si Si2 0.173294 0.185600 0.940571
Si Si3 0.823008 0.141104 0.651515
Si Si4 0.826382 0.613451 0.132623
Si Si5 0.174324 0.235743 0.299523
Si Si6 0.323449 0.004863 0.801528
O O1 0.196909 0.343553 0.494046
O O2 0.269548 0.259435 0.562366
O O3 0.231726 0.382038 0.583038
O O4 0.000000 0.307315 0.560257
O O5 0.264205 0.140465 0.903477
O O6 0.000000 0.186509 0.925198
O O7 0.747931 0.198170 0.681888
O O8 0.774364 0.073683 0.676151
O O9 0.000000 0.150770 0.651522
O O10 0.796798 0.678924 0.162456
O O11 0.766238 0.551691 0.162578
O O12 0.000000 0.604508 0.119344
O O13 0.250000 0.213472 0.250000
O O14 0.000000 0.248490 0.290510
O O15 0.500000 0.999702 0.794441
O O16 0.250000 0.994160 0.750000
#
# Coordination Sequence:
#
# PCOD8262929 Si02
#       6
#    16  16  16  16  16  16
#     4  10  20  34  57  87 116 148 188 232 284 341
#     4  10  20  35  56  85 118 150 186 232 286 341
#     4  11  22  37  58  84 114 149 193 237 282 339
#     4  10  21  38  58  82 114 150 190 234 283 338
#     4  11  22  35  55  82 111 144 186 237 288 337
#     4  10  23  41  59  82 113 154 195 233 283 339
#
# _framework density 18.977841999999999
#
# number of rings (size 3 to 8) (size 9 to 14) (size 15 to 20)
#    0.000    1.667    1.667    3.000    0.000    6.000 
#    0.000    0.833    0.000    5.000    0.000    0.000 
#    0.000    0.000    0.000    0.000    0.000    0.000 
#
# Total GULP energy -595416.030409 kJ/mol
# GULP energy per Si atom -12404.500634 kJ/mol
# Density = 1.893465 g / cm^3
# Si number density = 18.977842 Si / 1000 Ang^3
#
#
#
# Elastic Constant Matrix: (Units=GPa)
#
#
# Indices 1 2 3 4 5 6 
#
# 1 69.9125 19.3877 27.3145 0.0000 0.0000 0.0000
# 2 19.3877 61.2860 1.1060 0.0000 0.0000 0.0000
# 3 27.3145 1.1060 78.4162 0.0000 0.0000 0.0000
# 4 0.0000 0.0000 0.0000 64.1974 0.0000 0.0000
# 5 0.0000 0.0000 0.0000 0.0000 38.8299 0.0000
# 6 0.0000 0.0000 0.0000 0.0000 0.0000 25.3862
#
#
#
# Elastic Compliance Matrix: (Units=1/GPa)
#
#
# Indices 1 2 3 4 5 6 
#
# 1 0.018347 -0.005690 -0.006311 0.000000 0.000000 0.000000
# 2 -0.005690 0.018086 0.001727 0.000000 0.000000 0.000000
# 3 -0.006311 0.001727 0.014926 0.000000 0.000000 0.000000
# 4 0.000000 0.000000 0.000000 0.015577 0.000000 0.000000
# 5 0.000000 0.000000 0.000000 0.000000 0.025753 0.000000
# 6 0.000000 0.000000 0.000000 0.000000 0.000000 0.039392
#
#
# Mechanical properties :
#
#
# Convention : Reuss Voigt Hill
#
# Bulk Modulus (GPa) = 32.45525 33.91457 33.18491
# Shear Modulus (GPa) = 30.69388 36.46980 33.58184
#
# Velocity S-wave (km/s) = 4.02600 4.38848 4.21114
# Velocity P-wave (km/s) = 6.22497 6.60210 6.41631
#
# Compressibility (1/GPa) = 0.03081165
#
# Stress axis : x y z
#
# Youngs Moduli (GPa) = 54.50470 55.29188 66.99617
#
# Poissons Ratio (x) = 0.31462 0.42278
# Poissons Ratio (y) = 0.31014 -0.11570
# Poissons Ratio (z) = 0.34395 -0.09549
#
# Static dielectric constant tensor:
#      x y z
#    x 3.536380 0.000000 0.000000 
#    y 0.000000 3.371000 0.000000 
#    z 0.000000 0.000000 1.531240 
# 
# 
# High freq. dielectric constant tensor:
#      x y z
#    x 1.745910 0.000000 0.000000 
#    y 0.000000 1.719130 0.000000 
#    z 0.000000 0.000000 1.754320 
# 
# From -- ./inp_files/48160.got.cif
#   From: 2010.03.12/outbox.cif.g09.slc.cpg/sg64_25_cif.got.tgz:48160.got - 2010.04.10 20:19:32.
