data_PCOD8262547
_publ_section_title
;
Structure prediction by ZEFSAII (Michael W. Deem and Ramdas Pophale) SiO2 
 PCOD8262547
Probable space group: C M C A
;
_chemical_formula_sum "Si O2"
_cell_formula_units_Z 88
_cell_length_a 14.280288
_cell_length_b 13.907837
_cell_length_c 23.166983
_cell_angle_alpha 90.000000
_cell_angle_beta 90.000000
_cell_angle_gamma 90.000000
_cell_volume 4601.146256
_symmetry_space_group_name_H-M "C M C A"
_symmetry_group_IT_number 64
_symmetry_cell_setting 'orthorhombic'
loop_
_space_group_symop_operation_xyz
x,y,z
-x,1/2-y,1/2+z
x,-y,-z
-x,1/2+y,1/2-z
-x,-y,-z
x,1/2+y,1/2-z
-x,y,z
x,1/2-y,1/2+z
1/2+x,1/2+y,z
1/2-x,-y,1/2+z
1/2+x,1/2-y,-z
1/2-x,y,1/2-z
1/2-x,1/2-y,-z
1/2+x,y,1/2-z
1/2-x,1/2+y,z
1/2+x,-y,1/2+z
loop_
_atom_site_type_symbol
_atom_site_label
_atom_site_fract_x
_atom_site_fract_y
_atom_site_fract_z
Si Si1 0.250000 0.864756 0.750000
Si Si2 0.253309 0.045364 0.371774
Si Si3 0.107133 0.117180 0.875969
Si Si4 0.388950 0.117196 0.868581
Si Si5 0.394612 0.201561 0.746700
Si Si6 0.751356 0.252623 0.568109
O O1 0.338374 0.798499 0.764065
O O2 0.269108 0.930214 0.694980
O O3 0.341016 0.981244 0.392484
O O4 0.156555 0.986705 0.381083
O O5 0.252741 0.137713 0.411971
O O6 0.115509 0.130697 0.807231
O O7 0.156465 0.205771 0.907882
O O8 0.000000 0.111913 0.896657
O O9 0.500000 0.111568 0.878920
O O10 0.360239 0.144802 0.803235
O O11 0.344311 0.198003 0.909800
O O12 0.500000 0.236449 0.755788
O O13 0.750000 0.250000 0.500000
#
# Coordination Sequence:
#
# PCOD8262547 Si02
#       6
#     8  16  16  16  16  16
#     4  12  18  34  62  90 118 158 186 232 296 358
#     4  11  22  36  62  89 114 154 197 234 293 358
#     4  10  22  40  60  88 122 152 191 246 298 353
#     4  10  22  40  60  88 122 152 191 246 298 353
#     4  10  19  35  59  88 120 150 185 235 297 360
#     4  11  24  42  61  84 116 159 207 249 289 343
#
# _framework density 19.125668999999998
#
# number of rings (size 3 to 8) (size 9 to 14) (size 15 to 20)
#    0.000    1.455    3.636    2.182    0.000    6.545 
#    0.000    1.818    0.000    0.000    0.000    0.000 
#    0.000    0.000    0.000    0.000    0.000    0.000 
#
# Total GULP energy -545749.613269 kJ/mol
# GULP energy per Si atom -12403.400302 kJ/mol
# Density = 1.908214 g / cm^3
# Si number density = 19.125669 Si / 1000 Ang^3
#
#
#
# Elastic Constant Matrix: (Units=GPa)
#
#
# Indices 1 2 3 4 5 6 
#
# 1 138.1382 59.0796 28.7098 0.0000 0.0000 0.0000
# 2 59.0796 133.1504 35.7641 0.0000 0.0000 0.0000
# 3 28.7098 35.7641 115.9237 0.0000 0.0000 0.0000
# 4 0.0000 0.0000 0.0000 6.9514 0.0000 0.0000
# 5 0.0000 0.0000 0.0000 0.0000 13.6887 0.0000
# 6 0.0000 0.0000 0.0000 0.0000 0.0000 12.4421
#
#
#
# Elastic Compliance Matrix: (Units=1/GPa)
#
#
# Indices 1 2 3 4 5 6 
#
# 1 0.009060 -0.003726 -0.001094 0.000000 0.000000 0.000000
# 2 -0.003726 0.009721 -0.002076 0.000000 0.000000 0.000000
# 3 -0.001094 -0.002076 0.009538 0.000000 0.000000 0.000000
# 4 0.000000 0.000000 0.000000 0.143856 0.000000 0.000000
# 5 0.000000 0.000000 0.000000 0.000000 0.073053 0.000000
# 6 0.000000 0.000000 0.000000 0.000000 0.000000 0.080372
#
#
# Mechanical properties :
#
#
# Convention : Reuss Voigt Hill
#
# Bulk Modulus (GPa) = 68.84245 70.47991 69.66118
# Shear Modulus (GPa) = 14.52491 24.19369 19.35930
#
# Velocity S-wave (km/s) = 2.75879 3.56052 3.18499
# Velocity P-wave (km/s) = 6.79859 7.33717 7.07301
#
# Compressibility (1/GPa) = 0.01452592
#
# Stress axis : x y z
#
# Youngs Moduli (GPa) = 110.37334 102.86679 104.84419
#
# Poissons Ratio (x) = 0.38329 0.11473
# Poissons Ratio (y) = 0.41126 0.21769
# Poissons Ratio (z) = 0.12078 0.21359
#
# Static dielectric constant tensor:
#      x y z
#    x 3.589260 0.000000 0.000000 
#    y 0.000000 3.490870 0.000000 
#    z 0.000000 0.000000 3.444190 
# 
# 
# High freq. dielectric constant tensor:
#      x y z
#    x 1.751990 0.000000 0.000000 
#    y 0.000000 1.749470 0.000000 
#    z 0.000000 0.000000 1.734240 
# 
# From -- ./inp_files/39088.got.cif
#   From: 2010.03.12/outbox.cif.g09.slc.cpg/sg64_20_cif.got.tgz:39088.got - 2010.04.10 20:19:32.
