data_PCOD8262304
_publ_section_title
;
Structure prediction by ZEFSAII (Michael W. Deem and Ramdas Pophale) SiO2 
 PCOD8262304
Probable space group: C M C A
;
_chemical_formula_sum "Si O2"
_cell_formula_units_Z 80
_cell_length_a 8.478043
_cell_length_b 19.223799
_cell_length_c 25.737445
_cell_angle_alpha 90.000000
_cell_angle_beta 90.000000
_cell_angle_gamma 90.000000
_cell_volume 4194.693793
_symmetry_space_group_name_H-M "C M C A"
_symmetry_group_IT_number 64
_symmetry_cell_setting 'orthorhombic'
loop_
_space_group_symop_operation_xyz
x,y,z
-x,1/2-y,1/2+z
x,-y,-z
-x,1/2+y,1/2-z
-x,-y,-z
x,1/2+y,1/2-z
-x,y,z
x,1/2-y,1/2+z
1/2+x,1/2+y,z
1/2-x,-y,1/2+z
1/2+x,1/2-y,-z
1/2-x,y,1/2-z
1/2-x,1/2-y,-z
1/2+x,y,1/2-z
1/2-x,1/2+y,z
1/2+x,-y,1/2+z
loop_
_atom_site_type_symbol
_atom_site_label
_atom_site_fract_x
_atom_site_fract_y
_atom_site_fract_z
Si Si1 0.816751 0.228245 0.615130
Si Si2 0.315424 0.371686 0.034335
Si Si3 0.315945 0.376846 0.193031
Si Si4 0.183247 0.522525 0.888088
Si Si5 0.315086 0.118816 0.416098
O O1 0.778870 0.192000 0.560150
O O2 0.714896 0.193539 0.660691
O O3 0.772298 0.309132 0.612029
O O4 0.000000 0.217467 0.627787
O O5 0.500000 0.354818 0.036937
O O6 0.280870 0.443194 0.064755
O O7 0.256361 0.379180 0.975516
O O8 0.500000 0.392548 0.194806
O O9 0.250000 0.365828 0.250000
O O10 0.229900 0.442277 0.166390
O O11 0.222947 0.441079 0.885273
O O12 0.000000 0.534685 0.898487
O O13 0.500000 0.103313 0.413846
#
# Coordination Sequence:
#
# PCOD8262304 Si02
#       5
#    16  16  16  16  16
#     4  10  20  35  55  81 111 142 181 223 265 316
#     4  10  19  33  53  77 110 151 188 220 262 314
#     4  11  22  40  63  82 104 135 175 221 270 324
#     4  11  22  35  54  81 110 142 183 225 266 317
#     4  10  21  35  52  78 114 150 181 221 268 314
#
# _framework density 19.071714
#
# number of rings (size 3 to 8) (size 9 to 14) (size 15 to 20)
#    0.000    1.600    0.000    8.400    0.000    5.600 
#    0.000    1.000    0.000    4.800    0.000    0.000 
#    0.000    0.000    0.000    0.000    0.000    0.000 
#
# Total GULP energy -496203.043012 kJ/mol
# GULP energy per Si atom -12405.076075 kJ/mol
# Density = 1.902831 g / cm^3
# Si number density = 19.071714 Si / 1000 Ang^3
#
#
#
# Elastic Constant Matrix: (Units=GPa)
#
#
# Indices 1 2 3 4 5 6 
#
# 1 58.3263 24.9165 15.4829 0.0000 0.0000 0.0000
# 2 24.9165 125.2213 37.6922 0.0000 0.0000 0.0000
# 3 15.4829 37.6922 105.7833 0.0000 0.0000 0.0000
# 4 0.0000 0.0000 0.0000 34.4105 0.0000 0.0000
# 5 0.0000 0.0000 0.0000 0.0000 28.2994 0.0000
# 6 0.0000 0.0000 0.0000 0.0000 0.0000 33.3799
#
#
#
# Elastic Compliance Matrix: (Units=1/GPa)
#
#
# Indices 1 2 3 4 5 6 
#
# 1 0.018978 -0.003293 -0.001604 0.000000 0.000000 0.000000
# 2 -0.003293 0.009517 -0.002909 0.000000 0.000000 0.000000
# 3 -0.001604 -0.002909 0.010725 0.000000 0.000000 0.000000
# 4 0.000000 0.000000 0.000000 0.029061 0.000000 0.000000
# 5 0.000000 0.000000 0.000000 0.000000 0.035336 0.000000
# 6 0.000000 0.000000 0.000000 0.000000 0.000000 0.029958
#
#
# Mechanical properties :
#
#
# Convention : Reuss Voigt Hill
#
# Bulk Modulus (GPa) = 42.36191 49.50156 45.93173
# Shear Modulus (GPa) = 31.83579 33.30060 32.56820
#
# Velocity S-wave (km/s) = 4.09010 4.18314 4.13688
# Velocity P-wave (km/s) = 6.67573 7.02448 6.85232
#
# Compressibility (1/GPa) = 0.02360611
#
# Stress axis : x y z
#
# Youngs Moduli (GPa) = 52.69363 105.07769 93.24371
#
# Poissons Ratio (x) = 0.34605 0.14958
# Poissons Ratio (y) = 0.17354 0.27124
# Poissons Ratio (z) = 0.08453 0.30567
#
# Static dielectric constant tensor:
#      x y z
#    x 3.515030 0.000000 0.000000 
#    y 0.000000 3.514570 0.000000 
#    z 0.000000 0.000000 3.305240 
# 
# 
# High freq. dielectric constant tensor:
#      x y z
#    x 1.751620 0.000000 0.000000 
#    y 0.000000 1.745240 0.000000 
#    z 0.000000 0.000000 1.724520 
# 
# From -- ./inp_files/47848.got.cif
#   From: 2010.03.12/outbox.cif.g09.slc.cpg/sg64_24_cif.got.tgz:47848.got - 2010.04.10 20:19:32.
