data_PCOD8262339
_publ_section_title
;
Structure prediction by ZEFSAII (Michael W. Deem and Ramdas Pophale) SiO2 
 PCOD8262339
Probable space group: C M C A
;
_chemical_formula_sum "Si O2"
_cell_formula_units_Z 80
_cell_length_a 12.383087
_cell_length_b 19.217341
_cell_length_c 18.991862
_cell_angle_alpha 90.000000
_cell_angle_beta 90.000000
_cell_angle_gamma 90.000000
_cell_volume 4519.493505
_symmetry_space_group_name_H-M "C M C A"
_symmetry_group_IT_number 64
_symmetry_cell_setting 'orthorhombic'
loop_
_space_group_symop_operation_xyz
x,y,z
-x,1/2-y,1/2+z
x,-y,-z
-x,1/2+y,1/2-z
-x,-y,-z
x,1/2+y,1/2-z
-x,y,z
x,1/2-y,1/2+z
1/2+x,1/2+y,z
1/2-x,-y,1/2+z
1/2+x,1/2-y,-z
1/2-x,y,1/2-z
1/2-x,1/2-y,-z
1/2+x,y,1/2-z
1/2-x,1/2+y,z
1/2+x,-y,1/2+z
loop_
_atom_site_type_symbol
_atom_site_label
_atom_site_fract_x
_atom_site_fract_y
_atom_site_fract_z
Si Si1 0.875553 0.024086 0.923681
Si Si2 0.500000 0.390622 0.495929
Si Si3 0.212819 0.056334 0.328520
Si Si4 0.375599 0.676962 0.958899
Si Si5 0.305959 0.822292 0.933520
Si Si6 0.500000 0.002360 0.881040
O O1 0.857850 0.106673 0.914143
O O2 0.000000 0.002564 0.915208
O O3 0.809295 0.984281 0.865237
O O4 0.831937 0.000000 0.000000
O O5 0.607697 0.345307 0.506889
O O6 0.500000 0.420755 0.416177
O O7 0.500000 0.450480 0.553833
O O8 0.250000 0.071350 0.250000
O O9 0.188829 0.130899 0.363969
O O10 0.105240 0.008960 0.332395
O O11 0.500000 0.685241 0.979660
O O12 0.333932 0.742489 0.912674
O O13 0.312499 0.672978 0.032876
#
# Coordination Sequence:
#
# PCOD8262339 Si02
#       6
#    16   8  16  16  16   8
#     4  10  20  36  59  84 112 145 188 238 280 332
#     4   9  16  32  56  80 111 136 186 236 286 326
#     4  11  23  37  56  83 117 153 192 230 288 349
#     4  10  19  33  56  86 111 140 183 237 283 326
#     4  10  19  33  55  85 114 141 185 235 286 335
#     4   9  20  32  54  80 107 150 184 240 279 333
#
# _framework density 17.701098000000002
#
# number of rings (size 3 to 8) (size 9 to 14) (size 15 to 20)
#    0.000    2.000    3.000    1.200    4.200    0.000 
#    0.000    1.000    0.000    0.000    0.000    0.000 
#    0.000    0.000    0.000    0.000    0.000    0.000 
#
# Total GULP energy -495998.111304 kJ/mol
# GULP energy per Si atom -12399.952783 kJ/mol
# Density = 1.766081 g / cm^3
# Si number density = 17.701098 Si / 1000 Ang^3
#
#
#
# Elastic Constant Matrix: (Units=GPa)
#
#
# Indices 1 2 3 4 5 6 
#
# 1 100.1603 38.1124 47.3109 0.0000 0.0000 0.0000
# 2 38.1124 105.1366 47.3977 0.0000 0.0000 0.0000
# 3 47.3109 47.3977 94.9717 0.0000 0.0000 0.0000
# 4 0.0000 0.0000 0.0000 18.1695 0.0000 0.0000
# 5 0.0000 0.0000 0.0000 0.0000 25.2736 0.0000
# 6 0.0000 0.0000 0.0000 0.0000 0.0000 26.2303
#
#
#
# Elastic Compliance Matrix: (Units=1/GPa)
#
#
# Indices 1 2 3 4 5 6 
#
# 1 0.013511 -0.002405 -0.005531 0.000000 0.000000 0.000000
# 2 -0.002405 0.012701 -0.005141 0.000000 0.000000 0.000000
# 3 -0.005531 -0.005141 0.015850 0.000000 0.000000 0.000000
# 4 0.000000 0.000000 0.000000 0.055037 0.000000 0.000000
# 5 0.000000 0.000000 0.000000 0.000000 0.039567 0.000000
# 6 0.000000 0.000000 0.000000 0.000000 0.000000 0.038124
#
#
# Mechanical properties :
#
#
# Convention : Reuss Voigt Hill
#
# Bulk Modulus (GPa) = 62.85254 62.87895 62.86575
# Shear Modulus (GPa) = 24.24292 25.09786 24.67039
#
# Velocity S-wave (km/s) = 3.70479 3.76955 3.73731
# Velocity P-wave (km/s) = 7.34067 7.38551 7.36312
#
# Compressibility (1/GPa) = 0.01591025
#
# Stress axis : x y z
#
# Youngs Moduli (GPa) = 74.01137 78.73642 63.09065
#
# Poissons Ratio (x) = 0.18933 0.34894
# Poissons Ratio (y) = 0.17796 0.32433
# Poissons Ratio (z) = 0.40934 0.40476
#
# Static dielectric constant tensor:
#      x y z
#    x 3.501120 0.000000 0.000000 
#    y 0.000000 3.588970 0.000000 
#    z 0.000000 0.000000 2.878910 
# 
# 
# High freq. dielectric constant tensor:
#      x y z
#    x 1.706780 0.000000 0.000000 
#    y 0.000000 1.695790 0.000000 
#    z 0.000000 0.000000 1.628120 
# 
# From -- ./inp_files/30852.got.cif
#   From: 2010.03.12/outbox.cif.g09.slc.cpg/sg64_16_cif.got.tgz:30852.got - 2010.04.10 20:19:32.
