data_PCOD8262643
_publ_section_title
;
Structure prediction by ZEFSAII (Michael W. Deem and Ramdas Pophale) SiO2 
 PCOD8262643
Probable space group: C M C A
;
_chemical_formula_sum "Si O2"
_cell_formula_units_Z 112
_cell_length_a 14.216402
_cell_length_b 14.441491
_cell_length_c 24.699845
_cell_angle_alpha 90.000000
_cell_angle_beta 90.000000
_cell_angle_gamma 90.000000
_cell_volume 5071.027403
_symmetry_space_group_name_H-M "C M C A"
_symmetry_group_IT_number 64
_symmetry_cell_setting 'orthorhombic'
loop_
_space_group_symop_operation_xyz
x,y,z
-x,1/2-y,1/2+z
x,-y,-z
-x,1/2+y,1/2-z
-x,-y,-z
x,1/2+y,1/2-z
-x,y,z
x,1/2-y,1/2+z
1/2+x,1/2+y,z
1/2-x,-y,1/2+z
1/2+x,1/2-y,-z
1/2-x,y,1/2-z
1/2-x,1/2-y,-z
1/2+x,y,1/2-z
1/2-x,1/2+y,z
1/2+x,-y,1/2+z
loop_
_atom_site_type_symbol
_atom_site_label
_atom_site_fract_x
_atom_site_fract_y
_atom_site_fract_z
Si Si1 0.099204 0.850686 0.669273
Si Si2 0.603453 0.099650 0.978133
Si Si3 0.389387 0.057868 0.392006
Si Si4 0.644323 0.969718 0.732760
Si Si5 0.274250 0.823737 0.926425
Si Si6 0.324703 0.166640 0.710109
Si Si7 0.762538 0.614256 0.599572
O O1 0.179239 0.875536 0.625780
O O2 0.105933 0.744376 0.689127
O O3 0.000000 0.856969 0.637700
O O4 0.087460 0.916483 0.721139
O O5 0.500000 0.148496 0.970912
O O6 0.658334 0.088171 0.921224
O O7 0.675074 0.151935 0.017808
O O8 0.581831 0.000000 0.000000
O O9 0.500000 0.059869 0.407863
O O10 0.334851 0.142824 0.422721
O O11 0.379750 0.069233 0.326987
O O12 0.341696 0.963114 0.415012
O O13 0.750000 0.949525 0.750000
O O14 0.619098 0.079570 0.735797
O O15 0.289530 0.714283 0.924128
O O16 0.250000 0.214788 0.750000
O O17 0.258741 0.120486 0.664061
#
# Coordination Sequence:
#
# PCOD8262643 Si02
#       7
#    16  16  16  16  16  16  16
#     4  11  22  36  60  92 127 168 216 258 310 387
#     4  11  23  42  68  94 127 168 212 265 329 395
#     4  11  23  41  66  95 128 170 219 268 321 382
#     4  10  19  37  60  84 126 171 204 256 322 372
#     4  11  23  42  66  93 132 170 214 270 328 382
#     4   9  21  37  61  87 125 168 206 260 317 374
#     4  10  23  43  66  91 129 172 212 269 326 385
#
# _framework density 22.086255999999999
#
# number of rings (size 3 to 8) (size 9 to 14) (size 15 to 20)
#    0.000    1.571    2.857    1.714    2.000    6.857 
#    0.000    2.143    0.000    0.000    0.000    0.000 
#    0.000    0.000    0.000    0.000    0.000    0.000 
#
# Total GULP energy -693848.581124 kJ/mol
# GULP energy per Si atom -12390.153234 kJ/mol
# Density = 2.203599 g / cm^3
# Si number density = 22.086256 Si / 1000 Ang^3
#
#
#
# Elastic Constant Matrix: (Units=GPa)
#
#
# Indices 1 2 3 4 5 6 
#
# 1 164.5493 23.0258 39.6012 0.0000 0.0000 0.0000
# 2 23.0258 73.7631 23.5587 0.0000 0.0000 0.0000
# 3 39.6012 23.5587 61.5105 0.0000 0.0000 0.0000
# 4 0.0000 0.0000 0.0000 26.1496 0.0000 0.0000
# 5 0.0000 0.0000 0.0000 0.0000 26.5595 0.0000
# 6 0.0000 0.0000 0.0000 0.0000 0.0000 70.4429
#
#
#
# Elastic Compliance Matrix: (Units=1/GPa)
#
#
# Indices 1 2 3 4 5 6 
#
# 1 0.007241 -0.000879 -0.004325 0.000000 0.000000 0.000000
# 2 -0.000879 0.015553 -0.005391 0.000000 0.000000 0.000000
# 3 -0.004325 -0.005391 0.021107 0.000000 0.000000 0.000000
# 4 0.000000 0.000000 0.000000 0.038241 0.000000 0.000000
# 5 0.000000 0.000000 0.000000 0.000000 0.037651 0.000000
# 6 0.000000 0.000000 0.000000 0.000000 0.000000 0.014196
#
#
# Mechanical properties :
#
#
# Convention : Reuss Voigt Hill
#
# Bulk Modulus (GPa) = 44.03238 52.46604 48.24921
# Shear Modulus (GPa) = 30.72189 38.87289 34.79739
#
# Velocity S-wave (km/s) = 3.73365 4.19985 3.97359
# Velocity P-wave (km/s) = 6.21021 6.87931 6.55330
#
# Compressibility (1/GPa) = 0.02271056
#
# Stress axis : x y z
#
# Youngs Moduli (GPa) = 138.09978 64.29593 47.37808
#
# Poissons Ratio (x) = 0.05651 0.20492
# Poissons Ratio (y) = 0.12139 0.25541
# Poissons Ratio (z) = 0.59732 0.34662
#
# Static dielectric constant tensor:
#      x y z
#    x 4.005920 0.000000 0.000000 
#    y 0.000000 4.052740 0.000000 
#    z 0.000000 0.000000 4.088830 
# 
# 
# High freq. dielectric constant tensor:
#      x y z
#    x 1.861590 0.000000 0.000000 
#    y 0.000000 1.871040 0.000000 
#    z 0.000000 0.000000 1.863140 
# 
# From -- ./inp_files/45225.got.cif
#   From: 2010.03.12/outbox.cif.g09.slc.cpg/sg64_23_cif.got.tgz:45225.got - 2010.04.10 20:19:32.
