data_PCOD8262184
_publ_section_title
;
Structure prediction by ZEFSAII (Michael W. Deem and Ramdas Pophale) SiO2 
 PCOD8262184
Probable space group: C M C A
;
_chemical_formula_sum "Si O2"
_cell_formula_units_Z 96
_cell_length_a 9.046558
_cell_length_b 31.123462
_cell_length_c 19.164827
_cell_angle_alpha 90.000000
_cell_angle_beta 90.000000
_cell_angle_gamma 90.000000
_cell_volume 5396.052603
_symmetry_space_group_name_H-M "C M C A"
_symmetry_group_IT_number 64
_symmetry_cell_setting 'orthorhombic'
loop_
_space_group_symop_operation_xyz
x,y,z
-x,1/2-y,1/2+z
x,-y,-z
-x,1/2+y,1/2-z
-x,-y,-z
x,1/2+y,1/2-z
-x,y,z
x,1/2-y,1/2+z
1/2+x,1/2+y,z
1/2-x,-y,1/2+z
1/2+x,1/2-y,-z
1/2-x,y,1/2-z
1/2-x,1/2-y,-z
1/2+x,y,1/2-z
1/2-x,1/2+y,z
1/2+x,-y,1/2+z
loop_
_atom_site_type_symbol
_atom_site_label
_atom_site_fract_x
_atom_site_fract_y
_atom_site_fract_z
Si Si1 0.668805 0.841255 0.921437
Si Si2 0.828827 0.906614 0.823733
Si Si3 0.829860 0.753601 0.072908
Si Si4 0.327283 0.998473 0.324116
Si Si5 0.824406 0.583559 0.825284
Si Si6 0.672123 0.664616 0.582957
O O1 0.500000 0.856703 0.913206
O O2 0.773757 0.872657 0.879551
O O3 0.687644 0.792903 0.889940
O O4 0.716026 0.843020 0.002477
O O5 0.750000 0.900389 0.750000
O O6 0.000000 0.898689 0.809148
O O7 0.803194 0.954273 0.857343
O O8 0.756055 0.793400 0.114467
O O9 0.000000 0.764427 0.060129
O O10 0.750000 0.750000 0.000000
O O11 0.500000 0.987411 0.316989
O O12 0.250000 0.000411 0.250000
O O13 0.243683 0.959200 0.363470
O O14 0.750000 0.590123 0.750000
O O15 0.778819 0.623553 0.872902
O O16 0.000000 0.578916 0.817830
O O17 0.500000 0.674168 0.590188
#
# Coordination Sequence:
#
# PCOD8262184 Si02
#       6
#    16  16  16  16  16  16
#     4   9  18  33  51  72  98 127 162 201 239 285
#     4  10  20  33  51  74  98 127 162 200 243 289
#     4   9  17  30  50  73  97 128 164 199 238 287
#     4   9  17  30  48  70  95 125 162 198 236 287
#     4  10  19  32  51  74  99 128 163 201 242 288
#     4   9  19  34  51  73 100 130 164 200 240 288
#
# _framework density 17.790782
#
# number of rings (size 3 to 8) (size 9 to 14) (size 15 to 20)
#    0.000    2.667    0.000    4.000    0.000    6.667 
#    0.000    1.667    0.000    7.000    0.000    0.000 
#    0.000    0.000    0.000    0.000    0.000    0.000 
#
# Total GULP energy -594775.182209 kJ/mol
# GULP energy per Si atom -12391.149629 kJ/mol
# Density = 1.775029 g / cm^3
# Si number density = 17.790782 Si / 1000 Ang^3
#
#
#
# Elastic Constant Matrix: (Units=GPa)
#
#
# Indices 1 2 3 4 5 6 
#
# 1 109.1027 83.0038 34.4624 0.0000 0.0000 0.0000
# 2 83.0038 172.4132 53.6992 0.0000 0.0000 0.0000
# 3 34.4624 53.6992 48.3774 0.0000 0.0000 0.0000
# 4 0.0000 0.0000 0.0000 29.1199 0.0000 0.0000
# 5 0.0000 0.0000 0.0000 0.0000 24.3847 0.0000
# 6 0.0000 0.0000 0.0000 0.0000 0.0000 38.1557
#
#
#
# Elastic Compliance Matrix: (Units=1/GPa)
#
#
# Indices 1 2 3 4 5 6 
#
# 1 0.014970 -0.005939 -0.004072 0.000000 0.000000 0.000000
# 2 -0.005939 0.011221 -0.008224 0.000000 0.000000 0.000000
# 3 -0.004072 -0.008224 0.032701 0.000000 0.000000 0.000000
# 4 0.000000 0.000000 0.000000 0.034341 0.000000 0.000000
# 5 0.000000 0.000000 0.000000 0.000000 0.041009 0.000000
# 6 0.000000 0.000000 0.000000 0.000000 0.000000 0.026208
#
#
# Mechanical properties :
#
#
# Convention : Reuss Voigt Hill
#
# Bulk Modulus (GPa) = 44.60119 74.69156 59.64638
# Shear Modulus (GPa) = 24.46254 28.91391 26.68822
#
# Velocity S-wave (km/s) = 3.71214 4.03577 3.87733
# Velocity P-wave (km/s) = 6.59527 7.98693 7.32423
#
# Compressibility (1/GPa) = 0.02242092
#
# Stress axis : x y z
#
# Youngs Moduli (GPa) = 66.80045 89.12236 30.58017
#
# Poissons Ratio (x) = 0.52926 0.12453
# Poissons Ratio (y) = 0.39670 0.25150
# Poissons Ratio (z) = 0.27203 0.73298
#
# Static dielectric constant tensor:
#      x y z
#    x 3.466770 0.000000 0.000000 
#    y 0.000000 4.127200 0.000000 
#    z 0.000000 0.000000 2.848510 
# 
# 
# High freq. dielectric constant tensor:
#      x y z
#    x 1.702300 0.000000 0.000000 
#    y 0.000000 1.713320 0.000000 
#    z 0.000000 0.000000 1.633910 
# 
# From -- ./inp_files/43186.got.cif
#   From: 2010.03.12/outbox.cif.g09.slc.cpg/sg64_22_cif.got.tgz:43186.got - 2010.04.10 20:19:32.
