data_PCOD8262897
_publ_section_title
;
Structure prediction by ZEFSAII (Michael W. Deem and Ramdas Pophale) SiO2 
 PCOD8262897
Probable space group: C M C A
;
_chemical_formula_sum "Si O2"
_cell_formula_units_Z 64
_cell_length_a 27.270593
_cell_length_b 8.532834
_cell_length_c 12.898470
_cell_angle_alpha 90.000000
_cell_angle_beta 90.000000
_cell_angle_gamma 90.000000
_cell_volume 3001.415193
_symmetry_space_group_name_H-M "C M C A"
_symmetry_group_IT_number 64
_symmetry_cell_setting 'orthorhombic'
loop_
_space_group_symop_operation_xyz
x,y,z
-x,1/2-y,1/2+z
x,-y,-z
-x,1/2+y,1/2-z
-x,-y,-z
x,1/2+y,1/2-z
-x,y,z
x,1/2-y,1/2+z
1/2+x,1/2+y,z
1/2-x,-y,1/2+z
1/2+x,1/2-y,-z
1/2-x,y,1/2-z
1/2-x,1/2-y,-z
1/2+x,y,1/2-z
1/2-x,1/2+y,z
1/2+x,-y,1/2+z
loop_
_atom_site_type_symbol
_atom_site_label
_atom_site_fract_x
_atom_site_fract_y
_atom_site_fract_z
Si Si1 0.812043 0.234140 0.459523
Si Si2 0.579240 0.668573 0.451303
Si Si3 0.763425 0.933771 0.368616
Si Si4 0.000000 0.729120 0.399212
Si Si5 0.000000 0.064734 0.300805
O O1 0.868932 0.250190 0.429176
O O2 0.804586 0.184756 0.580874
O O3 0.786519 0.400149 0.434182
O O4 0.783799 0.108034 0.385642
O O5 0.589496 0.500000 0.500000
O O6 0.548383 0.775898 0.530315
O O7 0.548631 0.648471 0.345767
O O8 0.750000 0.900172 0.250000
O O9 0.000000 0.579614 0.323576
O O10 0.000000 0.883377 0.328371
#
# Coordination Sequence:
#
# PCOD8262897 Si02
#       5
#    16  16  16   8   8
#     4  10  20  36  56  77 116 145 189 226 275 325
#     4   9  17  36  57  76 109 155 173 214 278 346
#     4  10  20  34  55  79 109 149 189 232 271 319
#     4   9  19  35  62  82 108 139 183 223 276 338
#     4   9  19  35  60  84 106 137 185 221 274 330
#
# _framework density 21.323274000000001
#
# number of rings (size 3 to 8) (size 9 to 14) (size 15 to 20)
#    0.000    2.500    2.500    2.250    0.000    2.000 
#    0.000    2.500    5.500    0.000    0.000    0.000 
#    0.000    0.000    0.000    0.000    0.000    0.000 
#
# Total GULP energy -396492.395536 kJ/mol
# GULP energy per Si atom -12390.387360 kJ/mol
# Density = 2.127474 g / cm^3
# Si number density = 21.323274 Si / 1000 Ang^3
#
#
#
# Elastic Constant Matrix: (Units=GPa)
#
#
# Indices 1 2 3 4 5 6 
#
# 1 172.6409 29.1706 8.2758 0.0000 0.0000 0.0000
# 2 29.1706 33.0405 18.7158 0.0000 0.0000 0.0000
# 3 8.2758 18.7158 98.0456 0.0000 0.0000 0.0000
# 4 0.0000 0.0000 0.0000 26.6620 0.0000 0.0000
# 5 0.0000 0.0000 0.0000 0.0000 12.2699 0.0000
# 6 0.0000 0.0000 0.0000 0.0000 0.0000 11.4235
#
#
#
# Elastic Compliance Matrix: (Units=1/GPa)
#
#
# Indices 1 2 3 4 5 6 
#
# 1 0.006844 -0.006408 0.000646 0.000000 0.000000 0.000000
# 2 -0.006408 0.039935 -0.007082 0.000000 0.000000 0.000000
# 3 0.000646 -0.007082 0.011497 0.000000 0.000000 0.000000
# 4 0.000000 0.000000 0.000000 0.037507 0.000000 0.000000
# 5 0.000000 0.000000 0.000000 0.000000 0.081500 0.000000
# 6 0.000000 0.000000 0.000000 0.000000 0.000000 0.087539
#
#
# Mechanical properties :
#
#
# Convention : Reuss Voigt Hill
#
# Bulk Modulus (GPa) = 30.68770 46.22793 38.45782
# Shear Modulus (GPa) = 16.59068 26.57540 21.58304
#
# Velocity S-wave (km/s) = 2.79239 3.53414 3.18493
# Velocity P-wave (km/s) = 4.98192 6.19517 5.62137
#
# Compressibility (1/GPa) = 0.03258634
#
# Stress axis : x y z
#
# Youngs Moduli (GPa) = 146.10894 25.04046 86.98083
#
# Poissons Ratio (x) = 0.16047 -0.05615
# Poissons Ratio (y) = 0.93630 0.61603
# Poissons Ratio (z) = -0.09432 0.17734
#
# Static dielectric constant tensor:
#      x y z
#    x 3.955680 0.000000 0.000000 
#    y 0.000000 3.556790 0.000000 
#    z 0.000000 0.000000 3.764250 
# 
# 
# High freq. dielectric constant tensor:
#      x y z
#    x 1.831290 0.000000 0.000000 
#    y 0.000000 1.817200 0.000000 
#    z 0.000000 0.000000 1.824610 
# 
# From -- ./inp_files/18905.got.cif
#   From: 2010.03.12/outbox.cif.g09.slc.cpg/sg64_10_cif.got.tgz:18905.got - 2010.04.10 20:19:32.
