data_PCOD8262687
_publ_section_title
;
Structure prediction by ZEFSAII (Michael W. Deem and Ramdas Pophale) SiO2 
 PCOD8262687
Probable space group: C M C A
;
_chemical_formula_sum "Si O2"
_cell_formula_units_Z 80
_cell_length_a 23.898541
_cell_length_b 13.745259
_cell_length_c 10.820016
_cell_angle_alpha 90.000000
_cell_angle_beta 90.000000
_cell_angle_gamma 90.000000
_cell_volume 3554.284755
_symmetry_space_group_name_H-M "C M C A"
_symmetry_group_IT_number 64
_symmetry_cell_setting 'orthorhombic'
loop_
_space_group_symop_operation_xyz
x,y,z
-x,1/2-y,1/2+z
x,-y,-z
-x,1/2+y,1/2-z
-x,-y,-z
x,1/2+y,1/2-z
-x,y,z
x,1/2-y,1/2+z
1/2+x,1/2+y,z
1/2-x,-y,1/2+z
1/2+x,1/2-y,-z
1/2-x,y,1/2-z
1/2-x,1/2-y,-z
1/2+x,y,1/2-z
1/2-x,1/2+y,z
1/2+x,-y,1/2+z
loop_
_atom_site_type_symbol
_atom_site_label
_atom_site_fract_x
_atom_site_fract_y
_atom_site_fract_z
Si Si1 0.381417 0.413922 0.092576
Si Si2 0.881590 0.577097 0.234824
Si Si3 0.185855 0.202084 0.080674
Si Si4 0.203214 0.393275 0.969441
Si Si5 0.500000 0.678256 0.954042
Si Si6 0.500000 0.160087 0.257442
O O1 0.369155 0.464827 0.225038
O O2 0.445474 0.383734 0.077211
O O3 0.367861 0.500000 0.000000
O O4 0.337708 0.327806 0.057568
O O5 0.857780 0.663923 0.320005
O O6 0.854880 0.591957 0.101821
O O7 0.947668 0.589971 0.236433
O O8 0.247108 0.157644 0.108508
O O9 0.189693 0.320162 0.083864
O O10 0.226679 0.500000 0.000000
O O11 0.500000 0.765607 0.856522
O O12 0.500000 0.706512 0.102057
#
# Coordination Sequence:
#
# PCOD8262687 Si02
#       6
#    16  16  16  16   8   8
#     4  10  19  39  68  89 122 176 236 265 324 411
#     4  11  23  41  65  95 127 175 227 277 326 411
#     4  10  22  41  66  90 129 177 218 268 337 410
#     4  11  24  41  62  98 134 164 217 284 341 388
#     4  12  22  41  66  99 135 181 224 282 330 405
#     4  12  25  40  68  99 135 179 232 270 342 401
#
# _framework density 22.508044999999999
#
# number of rings (size 3 to 8) (size 9 to 14) (size 15 to 20)
#    0.000    1.200    4.000    4.500    0.000    3.200 
#    0.000    4.500    0.000    0.000    0.000    0.000 
#    0.000    0.000    0.000    0.000    0.000    0.000 
#
# Total GULP energy -495568.327216 kJ/mol
# GULP energy per Si atom -12389.208180 kJ/mol
# Density = 2.245682 g / cm^3
# Si number density = 22.508045 Si / 1000 Ang^3
#
#
#
# Elastic Constant Matrix: (Units=GPa)
#
#
# Indices 1 2 3 4 5 6 
#
# 1 101.5370 10.0808 1.3721 0.0000 0.0000 0.0000
# 2 10.0808 110.1931 19.3337 0.0000 0.0000 0.0000
# 3 1.3721 19.3337 56.0175 0.0000 0.0000 0.0000
# 4 0.0000 0.0000 0.0000 16.0804 0.0000 0.0000
# 5 0.0000 0.0000 0.0000 0.0000 40.8369 0.0000
# 6 0.0000 0.0000 0.0000 0.0000 0.0000 27.6506
#
#
#
# Elastic Compliance Matrix: (Units=1/GPa)
#
#
# Indices 1 2 3 4 5 6 
#
# 1 0.009939 -0.000922 0.000075 0.000000 0.000000 0.000000
# 2 -0.000922 0.009746 -0.003341 0.000000 0.000000 0.000000
# 3 0.000075 -0.003341 0.019003 0.000000 0.000000 0.000000
# 4 0.000000 0.000000 0.000000 0.062187 0.000000 0.000000
# 5 0.000000 0.000000 0.000000 0.000000 0.024488 0.000000
# 6 0.000000 0.000000 0.000000 0.000000 0.000000 0.036166
#
#
# Mechanical properties :
#
#
# Convention : Reuss Voigt Hill
#
# Bulk Modulus (GPa) = 32.99173 36.59122 34.79147
# Shear Modulus (GPa) = 27.77644 32.71097 30.24370
#
# Velocity S-wave (km/s) = 3.51674 3.81635 3.66961
# Velocity P-wave (km/s) = 5.58386 5.97592 5.78322
#
# Compressibility (1/GPa) = 0.03031062
#
# Stress axis : x y z
#
# Youngs Moduli (GPa) = 100.61175 102.61095 52.62376
#
# Poissons Ratio (x) = 0.09465 -0.00394
# Poissons Ratio (y) = 0.09281 0.17581
# Poissons Ratio (z) = -0.00754 0.34282
#
# Static dielectric constant tensor:
#      x y z
#    x 4.426090 0.000000 0.000000 
#    y 0.000000 4.720410 0.000000 
#    z 0.000000 0.000000 4.100620 
# 
# 
# High freq. dielectric constant tensor:
#      x y z
#    x 1.905650 0.000000 0.000000 
#    y 0.000000 1.889330 0.000000 
#    z 0.000000 0.000000 1.856300 
# 
# From -- ./inp_files/18116.got.cif
#   From: 2010.03.12/outbox.cif.g09.slc.cpg/sg64_10_cif.got.tgz:18116.got - 2010.04.10 20:19:32.
