data_PCOD8262149
_publ_section_title
;
Structure prediction by ZEFSAII (Michael W. Deem and Ramdas Pophale) SiO2 
 PCOD8262149
Probable space group: C M C A
;
_chemical_formula_sum "Si O2"
_cell_formula_units_Z 112
_cell_length_a 22.767731
_cell_length_b 11.491413
_cell_length_c 22.076423
_cell_angle_alpha 90.000000
_cell_angle_beta 90.000000
_cell_angle_gamma 90.000000
_cell_volume 5775.929609
_symmetry_space_group_name_H-M "C M C A"
_symmetry_group_IT_number 64
_symmetry_cell_setting 'orthorhombic'
loop_
_space_group_symop_operation_xyz
x,y,z
-x,1/2-y,1/2+z
x,-y,-z
-x,1/2+y,1/2-z
-x,-y,-z
x,1/2+y,1/2-z
-x,y,z
x,1/2-y,1/2+z
1/2+x,1/2+y,z
1/2-x,-y,1/2+z
1/2+x,1/2-y,-z
1/2-x,y,1/2-z
1/2-x,1/2-y,-z
1/2+x,y,1/2-z
1/2-x,1/2+y,z
1/2+x,-y,1/2+z
loop_
_atom_site_type_symbol
_atom_site_label
_atom_site_fract_x
_atom_site_fract_y
_atom_site_fract_z
Si Si1 0.336601 0.377804 0.126371
Si Si2 0.565696 0.734646 0.945311
Si Si3 0.565690 0.450867 0.643823
Si Si4 0.102782 0.604214 0.956786
Si Si5 0.668707 0.657018 0.293350
Si Si6 0.276231 0.701836 0.561393
Si Si7 0.205018 0.619043 0.336773
O O1 0.388814 0.364567 0.076791
O O2 0.344423 0.283248 0.178925
O O3 0.274052 0.367593 0.094942
O O4 0.334900 0.504674 0.155665
O O5 0.500000 0.683528 0.940553
O O6 0.574621 0.847200 0.903765
O O7 0.578262 0.774655 0.014847
O O8 0.500000 0.450716 0.671677
O O9 0.576387 0.574505 0.609599
O O10 0.613589 0.430330 0.696555
O O11 0.173056 0.610050 0.953388
O O12 0.083089 0.500000 0.000000
O O13 0.725507 0.596597 0.324923
O O14 0.678441 0.681510 0.222473
O O15 0.250000 0.750000 0.500000
O O16 0.303045 0.803147 0.603591
#
# Coordination Sequence:
#
# PCOD8262149 Si02
#       7
#    16  16  16  16  16  16  16
#     4  10  20  35  56  78 108 148 182 226 287 339
#     4   9  17  32  51  77 109 145 188 226 274 342
#     4   9  17  31  56  83 107 142 187 239 289 328
#     4  10  19  31  53  82 115 144 181 237 289 338
#     4   9  20  37  54  81 109 138 190 234 278 343
#     4  11  22  34  53  84 114 143 185 235 279 347
#     4  10  22  36  56  81 111 149 181 229 287 342
#
# _framework density 19.390817999999999
#
# number of rings (size 3 to 8) (size 9 to 14) (size 15 to 20)
#    0.000    2.286    1.429    1.286    4.000    7.429 
#    0.000    0.714    0.000    7.714    0.000    0.000 
#    0.000    0.000    0.000    0.000    0.000    0.000 
#
# Total GULP energy -694209.264286 kJ/mol
# GULP energy per Si atom -12396.594005 kJ/mol
# Density = 1.934668 g / cm^3
# Si number density = 19.390818 Si / 1000 Ang^3
#
#
#
# Elastic Constant Matrix: (Units=GPa)
#
#
# Indices 1 2 3 4 5 6 
#
# 1 101.5555 10.5605 16.2913 0.0000 0.0000 0.0000
# 2 10.5605 38.7974 15.2477 0.0000 0.0000 0.0000
# 3 16.2913 15.2477 85.7823 0.0000 0.0000 0.0000
# 4 0.0000 0.0000 0.0000 22.7161 0.0000 0.0000
# 5 0.0000 0.0000 0.0000 0.0000 24.9310 0.0000
# 6 0.0000 0.0000 0.0000 0.0000 0.0000 25.0625
#
#
#
# Elastic Compliance Matrix: (Units=1/GPa)
#
#
# Indices 1 2 3 4 5 6 
#
# 1 0.010327 -0.002193 -0.001571 0.000000 0.000000 0.000000
# 2 -0.002193 0.028177 -0.004592 0.000000 0.000000 0.000000
# 3 -0.001571 -0.004592 0.012772 0.000000 0.000000 0.000000
# 4 0.000000 0.000000 0.000000 0.044022 0.000000 0.000000
# 5 0.000000 0.000000 0.000000 0.000000 0.040111 0.000000
# 6 0.000000 0.000000 0.000000 0.000000 0.000000 0.039900
#
#
# Mechanical properties :
#
#
# Convention : Reuss Voigt Hill
#
# Bulk Modulus (GPa) = 28.93312 34.48158 31.70735
# Shear Modulus (GPa) = 24.56494 26.81097 25.68795
#
# Velocity S-wave (km/s) = 3.56312 3.72245 3.64366
# Velocity P-wave (km/s) = 5.64635 6.02466 5.83857
#
# Compressibility (1/GPa) = 0.03456246
#
# Stress axis : x y z
#
# Youngs Moduli (GPa) = 96.83354 35.49044 78.29604
#
# Poissons Ratio (x) = 0.07785 0.12303
# Poissons Ratio (y) = 0.21240 0.35952
# Poissons Ratio (z) = 0.15216 0.16297
#
# Static dielectric constant tensor:
#      x y z
#    x 3.458100 0.000000 0.000000 
#    y 0.000000 3.231900 0.000000 
#    z 0.000000 0.000000 3.618440 
# 
# 
# High freq. dielectric constant tensor:
#      x y z
#    x 1.756000 0.000000 0.000000 
#    y 0.000000 1.720400 0.000000 
#    z 0.000000 0.000000 1.744720 
# 
# From -- ./inp_files/41528.got.cif
#   From: 2010.03.12/outbox.cif.g09.slc.cpg/sg64_21_cif.got.tgz:41528.got - 2010.04.10 20:19:32.
