data_PCOD8262579
_publ_section_title
;
Structure prediction by ZEFSAII (Michael W. Deem and Ramdas Pophale) SiO2 
 PCOD8262579
Probable space group: C M C A
;
_chemical_formula_sum "Si O2"
_cell_formula_units_Z 112
_cell_length_a 27.499487
_cell_length_b 20.589442
_cell_length_c 10.243146
_cell_angle_alpha 90.000000
_cell_angle_beta 90.000000
_cell_angle_gamma 90.000000
_cell_volume 5799.659971
_symmetry_space_group_name_H-M "C M C A"
_symmetry_group_IT_number 64
_symmetry_cell_setting 'orthorhombic'
loop_
_space_group_symop_operation_xyz
x,y,z
-x,1/2-y,1/2+z
x,-y,-z
-x,1/2+y,1/2-z
-x,-y,-z
x,1/2+y,1/2-z
-x,y,z
x,1/2-y,1/2+z
1/2+x,1/2+y,z
1/2-x,-y,1/2+z
1/2+x,1/2-y,-z
1/2-x,y,1/2-z
1/2-x,1/2-y,-z
1/2+x,y,1/2-z
1/2-x,1/2+y,z
1/2+x,-y,1/2+z
loop_
_atom_site_type_symbol
_atom_site_label
_atom_site_fract_x
_atom_site_fract_y
_atom_site_fract_z
Si Si1 0.374278 0.808938 0.944865
Si Si2 0.611045 0.059286 0.904091
Si Si3 0.376765 0.171917 0.461037
Si Si4 0.945654 0.279152 0.744724
Si Si5 0.304392 0.359591 0.758598
Si Si6 0.709709 0.998958 0.150971
Si Si7 0.556443 0.864799 0.299944
O O1 0.428331 0.793001 0.892299
O O2 0.337870 0.811014 0.822650
O O3 0.374965 0.876049 0.019614
O O4 0.357582 0.745893 0.024525
O O5 0.660751 0.041727 0.830686
O O6 0.569626 0.075208 0.796661
O O7 0.594388 0.000000 0.000000
O O8 0.418734 0.173333 0.353722
O O9 0.328840 0.134225 0.404432
O O10 0.402405 0.137574 0.585806
O O11 0.939434 0.201915 0.716420
O O12 0.000000 0.302373 0.734940
O O13 0.250000 0.330376 0.750000
O O14 0.303397 0.428931 0.691681
O O15 0.750000 0.969608 0.250000
O O16 0.727951 0.000000 0.000000
O O17 0.500000 0.873264 0.349333
#
# Coordination Sequence:
#
# PCOD8262579 Si02
#       7
#    16  16  16  16  16  16  16
#     4  10  19  36  57  86 118 148 192 239 294 350
#     4  11  21  38  58  82 117 155 195 246 288 349
#     4  10  20  36  61  87 119 150 187 249 301 354
#     4   9  18  33  59  86 112 149 187 236 295 351
#     4  10  21  38  61  85 119 155 195 243 301 360
#     4  10  21  39  63  86 114 157 208 254 293 361
#     4  10  21  36  57  88 119 151 197 243 293 359
#
# _framework density 19.311477
#
# number of rings (size 3 to 8) (size 9 to 14) (size 15 to 20)
#    0.000    2.000    4.286    0.429    0.000    4.286 
#    0.000    0.714    0.000    0.857    0.000    0.000 
#    0.000    0.000    0.000    0.000    0.000    0.000 
#
# Total GULP energy -693784.941565 kJ/mol
# GULP energy per Si atom -12389.016814 kJ/mol
# Density = 1.926752 g / cm^3
# Si number density = 19.311477 Si / 1000 Ang^3
#
#
#
# Elastic Constant Matrix: (Units=GPa)
#
#
# Indices 1 2 3 4 5 6 
#
# 1 124.4676 27.4613 46.7582 0.0000 0.0000 0.0000
# 2 27.4613 69.5921 31.6606 0.0000 0.0000 0.0000
# 3 46.7582 31.6606 87.6344 0.0000 0.0000 0.0000
# 4 0.0000 0.0000 0.0000 28.6142 0.0000 0.0000
# 5 0.0000 0.0000 0.0000 0.0000 30.6106 0.0000
# 6 0.0000 0.0000 0.0000 0.0000 0.0000 22.7166
#
#
#
# Elastic Compliance Matrix: (Units=1/GPa)
#
#
# Indices 1 2 3 4 5 6 
#
# 1 0.010246 -0.001862 -0.004794 0.000000 0.000000 0.000000
# 2 -0.001862 0.017534 -0.005341 0.000000 0.000000 0.000000
# 3 -0.004794 -0.005341 0.015899 0.000000 0.000000 0.000000
# 4 0.000000 0.000000 0.000000 0.034948 0.000000 0.000000
# 5 0.000000 0.000000 0.000000 0.000000 0.032668 0.000000
# 6 0.000000 0.000000 0.000000 0.000000 0.000000 0.044021
#
#
# Mechanical properties :
#
#
# Convention : Reuss Voigt Hill
#
# Bulk Modulus (GPa) = 50.80258 54.82825 52.81541
# Shear Modulus (GPa) = 26.90022 28.10919 27.50471
#
# Velocity S-wave (km/s) = 3.73629 3.81933 3.77804
# Velocity P-wave (km/s) = 6.70651 6.92119 6.81469
#
# Compressibility (1/GPa) = 0.01968404
#
# Stress axis : x y z
#
# Youngs Moduli (GPa) = 97.59858 57.03141 62.89820
#
# Poissons Ratio (x) = 0.10620 0.30154
# Poissons Ratio (y) = 0.18173 0.33595
# Poissons Ratio (z) = 0.46790 0.30462
#
# Static dielectric constant tensor:
#      x y z
#    x 3.807770 0.000000 0.000000 
#    y 0.000000 3.396850 0.000000 
#    z 0.000000 0.000000 3.773320 
# 
# 
# High freq. dielectric constant tensor:
#      x y z
#    x 1.752670 0.000000 0.000000 
#    y 0.000000 1.732090 0.000000 
#    z 0.000000 0.000000 1.753560 
# 
# From -- ./inp_files/19316.got.cif
#   From: 2010.03.12/outbox.cif.g09.slc.cpg/sg64_10_cif.got.tgz:19316.got - 2010.04.10 20:19:32.
