data_PCOD8262641
_publ_section_title
;
Structure prediction by ZEFSAII (Michael W. Deem and Ramdas Pophale) SiO2 
 PCOD8262641
Probable space group: C M C A
;
_chemical_formula_sum "Si O2"
_cell_formula_units_Z 96
_cell_length_a 14.462757
_cell_length_b 16.789695
_cell_length_c 19.071498
_cell_angle_alpha 90.000000
_cell_angle_beta 90.000000
_cell_angle_gamma 90.000000
_cell_volume 4631.041821
_symmetry_space_group_name_H-M "C M C A"
_symmetry_group_IT_number 64
_symmetry_cell_setting 'orthorhombic'
loop_
_space_group_symop_operation_xyz
x,y,z
-x,1/2-y,1/2+z
x,-y,-z
-x,1/2+y,1/2-z
-x,-y,-z
x,1/2+y,1/2-z
-x,y,z
x,1/2-y,1/2+z
1/2+x,1/2+y,z
1/2-x,-y,1/2+z
1/2+x,1/2-y,-z
1/2-x,y,1/2-z
1/2-x,1/2-y,-z
1/2+x,y,1/2-z
1/2-x,1/2+y,z
1/2+x,-y,1/2+z
loop_
_atom_site_type_symbol
_atom_site_label
_atom_site_fract_x
_atom_site_fract_y
_atom_site_fract_z
Si Si1 0.397205 0.190919 0.867349
Si Si2 0.142525 0.724385 0.237432
Si Si3 0.109334 0.724818 0.021127
Si Si4 0.394799 0.405509 0.629611
Si Si5 0.730346 0.548107 0.670661
Si Si6 0.893836 0.142849 0.876207
O O1 0.500000 0.155804 0.880152
O O2 0.403467 0.265667 0.814251
O O3 0.331691 0.127057 0.830413
O O4 0.353480 0.218742 0.941675
O O5 0.250000 0.717757 0.250000
O O6 0.105369 0.643820 0.202171
O O7 0.114518 0.800448 0.191212
O O8 0.143560 0.649484 0.066579
O O9 0.141992 0.807843 0.055796
O O10 0.000000 0.724820 0.024286
O O11 0.500000 0.435508 0.616325
O O12 0.324852 0.479153 0.630959
O O13 0.750000 0.522027 0.750000
O O14 0.828131 0.565694 0.632256
O O15 0.000000 0.113805 0.883837
#
# Coordination Sequence:
#
# PCOD8262641 Si02
#       6
#    16  16  16  16  16  16
#     4  11  20  35  62  93 122 152 194 252 302 349
#     4  11  19  37  60  89 120 149 200 245 290 356
#     4   8  19  37  61  91 117 150 199 247 299 361
#     4  10  22  40  60  86 125 162 191 243 308 358
#     4  12  23  36  55  90 120 155 203 243 289 365
#     4  10  19  37  60  84 117 157 199 246 296 344
#
# _framework density 20.729678
#
# number of rings (size 3 to 8) (size 9 to 14) (size 15 to 20)
#    0.000    1.667    3.333    3.500    0.000    2.000 
#    0.000    2.500    3.667    0.000    0.000    2.333 
#    0.000    0.000    0.000    0.000    0.000    0.000 
#
# Total GULP energy -595108.954083 kJ/mol
# GULP energy per Si atom -12398.103210 kJ/mol
# Density = 2.068250 g / cm^3
# Si number density = 20.729678 Si / 1000 Ang^3
#
#
#
# Elastic Constant Matrix: (Units=GPa)
#
#
# Indices 1 2 3 4 5 6 
#
# 1 110.2544 35.1312 13.7234 0.0000 0.0000 0.0000
# 2 35.1312 80.8309 30.0998 0.0000 0.0000 0.0000
# 3 13.7234 30.0998 123.1226 0.0000 0.0000 0.0000
# 4 0.0000 0.0000 0.0000 18.8351 0.0000 0.0000
# 5 0.0000 0.0000 0.0000 0.0000 20.5208 0.0000
# 6 0.0000 0.0000 0.0000 0.0000 0.0000 24.9837
#
#
#
# Elastic Compliance Matrix: (Units=1/GPa)
#
#
# Indices 1 2 3 4 5 6 
#
# 1 0.010528 -0.004553 -0.000060 0.000000 0.000000 0.000000
# 2 -0.004553 0.015580 -0.003301 0.000000 0.000000 0.000000
# 3 -0.000060 -0.003301 0.008936 0.000000 0.000000 0.000000
# 4 0.000000 0.000000 0.000000 0.053092 0.000000 0.000000
# 5 0.000000 0.000000 0.000000 0.000000 0.048731 0.000000
# 6 0.000000 0.000000 0.000000 0.000000 0.000000 0.040026
#
#
# Mechanical properties :
#
#
# Convention : Reuss Voigt Hill
#
# Bulk Modulus (GPa) = 52.04560 52.45741 52.25150
# Shear Modulus (GPa) = 25.10948 28.55150 26.83049
#
# Velocity S-wave (km/s) = 3.48412 3.71526 3.60155
# Velocity P-wave (km/s) = 6.43015 6.61548 6.52347
#
# Compressibility (1/GPa) = 0.01921392
#
# Stress axis : x y z
#
# Youngs Moduli (GPa) = 94.98177 64.18531 111.90972
#
# Poissons Ratio (x) = 0.29226 0.00675
# Poissons Ratio (y) = 0.43249 0.36945
# Poissons Ratio (z) = 0.00573 0.21189
#
# Static dielectric constant tensor:
#      x y z
#    x 3.862520 0.000000 0.000000 
#    y 0.000000 3.473780 0.000000 
#    z 0.000000 0.000000 4.131150 
# 
# 
# High freq. dielectric constant tensor:
#      x y z
#    x 1.822570 0.000000 0.000000 
#    y 0.000000 1.773690 0.000000 
#    z 0.000000 0.000000 1.812610 
# 
# From -- ./inp_files/39184.got.cif
#   From: 2010.03.12/outbox.cif.g09.slc.cpg/sg64_20_cif.got.tgz:39184.got - 2010.04.10 20:19:32.
