data_PCOD8262342
_publ_section_title
;
Structure prediction by ZEFSAII (Michael W. Deem and Ramdas Pophale) SiO2 
 PCOD8262342
Probable space group: C M C A
;
_chemical_formula_sum "Si O2"
_cell_formula_units_Z 96
_cell_length_a 27.476811
_cell_length_b 10.153252
_cell_length_c 12.768891
_cell_angle_alpha 90.000000
_cell_angle_beta 90.000000
_cell_angle_gamma 90.000000
_cell_volume 3562.252267
_symmetry_space_group_name_H-M "C M C A"
_symmetry_group_IT_number 64
_symmetry_cell_setting 'orthorhombic'
loop_
_space_group_symop_operation_xyz
x,y,z
-x,1/2-y,1/2+z
x,-y,-z
-x,1/2+y,1/2-z
-x,-y,-z
x,1/2+y,1/2-z
-x,y,z
x,1/2-y,1/2+z
1/2+x,1/2+y,z
1/2-x,-y,1/2+z
1/2+x,1/2-y,-z
1/2-x,y,1/2-z
1/2-x,1/2-y,-z
1/2+x,y,1/2-z
1/2-x,1/2+y,z
1/2+x,-y,1/2+z
loop_
_atom_site_type_symbol
_atom_site_label
_atom_site_fract_x
_atom_site_fract_y
_atom_site_fract_z
Si Si1 0.053577 0.579860 0.365621
Si Si2 0.213327 0.024886 0.884241
Si Si3 0.281987 0.233597 0.896902
Si Si4 0.111187 0.675540 0.882908
Si Si5 0.888819 0.163368 0.866128
Si Si6 0.055678 0.583226 0.115782
O O1 0.089365 0.684964 0.418644
O O2 0.069012 0.435645 0.403845
O O3 0.055593 0.586447 0.240416
O O4 0.000000 0.610292 0.406535
O O5 0.252925 0.122317 0.827900
O O6 0.163170 0.105251 0.898323
O O7 0.210285 0.875424 0.834621
O O8 0.233371 0.000000 0.000000
O O9 0.333999 0.169965 0.925922
O O10 0.250000 0.250000 0.000000
O O11 0.112404 0.670594 0.758270
O O12 0.076047 0.558398 0.926061
O O13 0.904533 0.303905 0.918674
O O14 0.000000 0.605184 0.075651
#
# Coordination Sequence:
#
# PCOD8262342 Si02
#       6
#    16  16  16  16  16  16
#     4   9  16  30  53  81 119 160 190 230 292 364
#     4  10  22  40  59  80 107 153 200 238 294 358
#     4  10  22  40  59  81 108 151 202 242 293 358
#     4  10  19  33  55  87 120 150 194 242 297 348
#     4  10  19  33  55  86 120 153 189 243 294 352
#     4   9  18  30  51  87 124 154 187 233 299 357
#
# _framework density 26.949242999999999
#
# number of rings (size 3 to 8) (size 9 to 14) (size 15 to 20)
#    0.000    2.333    1.667    1.000    2.333    4.667 
#    0.000    1.667    0.000    2.000    0.000    4.667 
#    0.000    0.000    0.000    0.000    0.000    0.000 
#
# Total GULP energy -594863.622533 kJ/mol
# GULP energy per Si atom -12392.992136 kJ/mol
# Density = 2.688791 g / cm^3
# Si number density = 26.949243 Si / 1000 Ang^3
#
#
#
# Elastic Constant Matrix: (Units=GPa)
#
#
# Indices 1 2 3 4 5 6 
#
# 1 242.6223 112.6344 0.9334 0.0000 0.0000 0.0000
# 2 112.6344 223.7771 22.3799 0.0000 0.0000 0.0000
# 3 0.9334 22.3799 33.8636 0.0000 0.0000 0.0000
# 4 0.0000 0.0000 0.0000 31.9464 0.0000 0.0000
# 5 0.0000 0.0000 0.0000 0.0000 -19.1758 0.0000
# 6 0.0000 0.0000 0.0000 0.0000 0.0000 61.1597
#
#
#
# Elastic Compliance Matrix: (Units=1/GPa)
#
#
# Indices 1 2 3 4 5 6 
#
# 1 0.005478 -0.002936 0.001789 0.000000 0.000000 0.000000
# 2 -0.002936 0.006359 -0.004121 0.000000 0.000000 0.000000
# 3 0.001789 -0.004121 0.032205 0.000000 0.000000 0.000000
# 4 0.000000 0.000000 0.000000 0.031302 0.000000 0.000000
# 5 0.000000 0.000000 0.000000 0.000000 -0.052149 0.000000
# 6 0.000000 0.000000 0.000000 0.000000 0.000000 0.016351
#
#
# Mechanical properties :
#
#
# Convention : Reuss Voigt Hill
#
# Bulk Modulus (GPa) = 29.84629 85.79538 57.82084
# Shear Modulus (GPa) = 81.63282 39.07376 60.35329
#
# Velocity S-wave (km/s) = 5.50973 3.81189 4.73749
# Velocity P-wave (km/s) = 7.18158 7.16094 7.17127
#
# Compressibility (1/GPa) = 0.03350500
#
# Stress axis : x y z
#
# Youngs Moduli (GPa) = 182.55473 157.26315 31.05135
#
# Poissons Ratio (x) = 0.46174 -0.05556
# Poissons Ratio (y) = 0.53600 0.12798
# Poissons Ratio (z) = -0.32667 0.64816
#
# Static dielectric constant tensor:
#      x y z
#    x 4.966650 0.000000 0.000000 
#    y 0.000000 7.055140 0.000000 
#    z 0.000000 0.000000 4.976420 
# 
# 
# High freq. dielectric constant tensor:
#      x y z
#    x 2.079980 0.000000 0.000000 
#    y 0.000000 2.103830 0.000000 
#    z 0.000000 0.000000 2.108830 
# 
# From -- ./inp_files/41794.got.cif
#   From: 2010.03.12/outbox.cif.g09.slc.cpg/sg64_21_cif.got.tgz:41794.got - 2010.04.10 20:19:32.
