data_PCOD8262872
_publ_section_title
;
Structure prediction by ZEFSAII (Michael W. Deem and Ramdas Pophale) SiO2 
 PCOD8262872
Probable space group: C M C A
;
_chemical_formula_sum "Si O2"
_cell_formula_units_Z 80
_cell_length_a 9.061739
_cell_length_b 18.241412
_cell_length_c 25.790817
_cell_angle_alpha 90.000000
_cell_angle_beta 90.000000
_cell_angle_gamma 90.000000
_cell_volume 4263.194055
_symmetry_space_group_name_H-M "C M C A"
_symmetry_group_IT_number 64
_symmetry_cell_setting 'orthorhombic'
loop_
_space_group_symop_operation_xyz
x,y,z
-x,1/2-y,1/2+z
x,-y,-z
-x,1/2+y,1/2-z
-x,-y,-z
x,1/2+y,1/2-z
-x,y,z
x,1/2-y,1/2+z
1/2+x,1/2+y,z
1/2-x,-y,1/2+z
1/2+x,1/2-y,-z
1/2-x,y,1/2-z
1/2-x,1/2-y,-z
1/2+x,y,1/2-z
1/2-x,1/2+y,z
1/2+x,-y,1/2+z
loop_
_atom_site_type_symbol
_atom_site_label
_atom_site_fract_x
_atom_site_fract_y
_atom_site_fract_z
Si Si1 0.173810 0.827888 0.000213
Si Si2 0.672884 0.666741 0.197750
Si Si3 0.326573 0.914911 0.396516
Si Si4 0.825080 0.918174 0.902340
Si Si5 0.326713 0.835795 0.197346
O O1 0.215477 0.869947 0.052505
O O2 0.000000 0.816213 0.995061
O O3 0.250000 0.750000 0.000000
O O4 0.237002 0.875112 0.952206
O O5 0.500000 0.655052 0.205088
O O6 0.750000 0.638581 0.250000
O O7 0.736120 0.619442 0.149988
O O8 0.712058 0.751151 0.186457
O O9 0.500000 0.910444 0.384129
O O10 0.235700 0.883384 0.349058
O O11 0.273414 0.998036 0.405197
O O12 0.000000 0.913291 0.903048
O O13 0.500000 0.848778 0.202533
O O14 0.250000 0.862743 0.250000
#
# Coordination Sequence:
#
# PCOD8262872 Si02
#       5
#    16  16  16  16  16
#     4  10  20  35  56  79 104 137 177 219 262 312
#     4   9  18  33  53  74  99 133 172 213 255 303
#     4  10  20  34  54  79 106 137 174 216 263 315
#     4   9  18  34  54  76 104 138 174 212 259 313
#     4  10  20  35  55  78 106 139 175 215 258 307
#
# _framework density 18.765273000000001
#
# number of rings (size 3 to 8) (size 9 to 14) (size 15 to 20)
#    0.000    2.400    0.000    2.400    0.000    6.400 
#    0.000    5.000    0.000    2.400    0.000    0.000 
#    0.000    0.000    0.000    0.000    0.000    0.000 
#
# Total GULP energy -496105.123121 kJ/mol
# GULP energy per Si atom -12402.628078 kJ/mol
# Density = 1.872256 g / cm^3
# Si number density = 18.765273 Si / 1000 Ang^3
#
#
#
# Elastic Constant Matrix: (Units=GPa)
#
#
# Indices 1 2 3 4 5 6 
#
# 1 43.9800 46.2230 55.5203 0.0000 0.0000 0.0000
# 2 46.2230 153.4396 106.3014 0.0000 0.0000 0.0000
# 3 55.5203 106.3014 188.0588 0.0000 0.0000 0.0000
# 4 0.0000 0.0000 0.0000 10.9257 0.0000 0.0000
# 5 0.0000 0.0000 0.0000 0.0000 31.7841 0.0000
# 6 0.0000 0.0000 0.0000 0.0000 0.0000 24.4621
#
#
#
# Elastic Compliance Matrix: (Units=1/GPa)
#
#
# Indices 1 2 3 4 5 6 
#
# 1 0.039636 -0.006301 -0.008140 0.000000 0.000000 0.000000
# 2 -0.006301 0.011714 -0.004761 0.000000 0.000000 0.000000
# 3 -0.008140 -0.004761 0.010412 0.000000 0.000000 0.000000
# 4 0.000000 0.000000 0.000000 0.091527 0.000000 0.000000
# 5 0.000000 0.000000 0.000000 0.000000 0.031462 0.000000
# 6 0.000000 0.000000 0.000000 0.000000 0.000000 0.040880
#
#
# Mechanical properties :
#
#
# Convention : Reuss Voigt Hill
#
# Bulk Modulus (GPa) = 42.81269 89.06307 65.93788
# Shear Modulus (GPa) = 18.39451 25.26329 21.82890
#
# Velocity S-wave (km/s) = 3.13428 3.67315 3.41436
# Velocity P-wave (km/s) = 5.99689 8.09654 7.12449
#
# Compressibility (1/GPa) = 0.02335756
#
# Stress axis : x y z
#
# Youngs Moduli (GPa) = 25.22978 85.36998 96.04380
#
# Poissons Ratio (x) = 0.53789 0.78180
# Poissons Ratio (y) = 0.15897 0.45727
# Poissons Ratio (z) = 0.20537 0.40646
#
# Static dielectric constant tensor:
#      x y z
#    x 3.209240 0.000000 0.000000 
#    y 0.000000 3.532500 0.000000 
#    z 0.000000 0.000000 -21.187690 
# 
# 
# High freq. dielectric constant tensor:
#      x y z
#    x 1.702040 0.000000 0.000000 
#    y 0.000000 1.734310 0.000000 
#    z 0.000000 0.000000 1.747240 
# 
# From -- ./inp_files/47786.got.cif
#   From: 2010.03.12/outbox.cif.g09.slc.cpg/sg64_24_cif.got.tgz:47786.got - 2010.04.10 20:19:32.
