data_PCOD8262597
_publ_section_title
;
Structure prediction by ZEFSAII (Michael W. Deem and Ramdas Pophale) SiO2 
 PCOD8262597
Probable space group: C M C A
;
_chemical_formula_sum "Si O2"
_cell_formula_units_Z 56
_cell_length_a 29.425592
_cell_length_b 16.048892
_cell_length_c 5.023311
_cell_angle_alpha 90.000000
_cell_angle_beta 90.000000
_cell_angle_gamma 90.000000
_cell_volume 2372.249317
_symmetry_space_group_name_H-M "C M C A"
_symmetry_group_IT_number 64
_symmetry_cell_setting 'orthorhombic'
loop_
_space_group_symop_operation_xyz
x,y,z
-x,1/2-y,1/2+z
x,-y,-z
-x,1/2+y,1/2-z
-x,-y,-z
x,1/2+y,1/2-z
-x,y,z
x,1/2-y,1/2+z
1/2+x,1/2+y,z
1/2-x,-y,1/2+z
1/2+x,1/2-y,-z
1/2-x,y,1/2-z
1/2-x,1/2-y,-z
1/2+x,y,1/2-z
1/2-x,1/2+y,z
1/2+x,-y,1/2+z
loop_
_atom_site_type_symbol
_atom_site_label
_atom_site_fract_x
_atom_site_fract_y
_atom_site_fract_z
Si Si1 0.222254 0.901282 0.997304
Si Si2 0.449425 0.593834 0.981644
Si Si3 0.134584 0.696602 0.372854
Si Si4 0.000000 0.691212 0.894724
O O1 0.250000 0.866539 0.250000
O O2 0.170953 0.870444 0.973337
O O3 0.250000 0.865717 0.750000
O O4 0.220202 0.000000 0.000000
O O5 0.500000 0.594723 0.122645
O O6 0.456138 0.631772 0.679129
O O7 0.430010 0.500000 0.000000
O O8 0.415098 0.655648 0.125544
O O9 0.140430 0.724734 0.069003
O O10 0.000000 0.729840 0.186088
#
# Coordination Sequence:
#
# PCOD8262597 Si02
#       4
#    16  16  16   8
#     4  10  22  42  66  91 124 164 205 253 307 369
#     4   9  21  42  64  90 124 167 209 254 305 369
#     4  12  25  40  64  94 126 164 204 257 311 365
#     4  10  19  36  59  84 116 150 192 244 297 348
#
# _framework density 23.606289
#
# number of rings (size 3 to 8) (size 9 to 14) (size 15 to 20)
#    0.857    0.857    0.000    4.286    0.000    3.429 
#    0.000   10.000    0.000    0.000    0.000    0.000 
#    0.000    0.000    0.000    0.000    0.000    0.000 
#
# Total GULP energy -346891.201967 kJ/mol
# GULP energy per Si atom -12388.971499 kJ/mol
# Density = 2.355256 g / cm^3
# Si number density = 23.606289 Si / 1000 Ang^3
#
#
#
# Elastic Constant Matrix: (Units=GPa)
#
#
# Indices 1 2 3 4 5 6 
#
# 1 111.7176 9.0026 20.0899 0.0000 0.0000 0.0000
# 2 9.0026 81.3392 20.0107 0.0000 0.0000 0.0000
# 3 20.0899 20.0107 86.4222 0.0000 0.0000 0.0000
# 4 0.0000 0.0000 0.0000 4.4933 0.0000 0.0000
# 5 0.0000 0.0000 0.0000 0.0000 25.0056 0.0000
# 6 0.0000 0.0000 0.0000 0.0000 0.0000 61.0357
#
#
#
# Elastic Compliance Matrix: (Units=1/GPa)
#
#
# Indices 1 2 3 4 5 6 
#
# 1 0.009363 -0.000531 -0.002054 0.000000 0.000000 0.000000
# 2 -0.000531 0.013067 -0.002902 0.000000 0.000000 0.000000
# 3 -0.002054 -0.002902 0.012720 0.000000 0.000000 0.000000
# 4 0.000000 0.000000 0.000000 0.222556 0.000000 0.000000
# 5 0.000000 0.000000 0.000000 0.000000 0.039991 0.000000
# 6 0.000000 0.000000 0.000000 0.000000 0.000000 0.016384
#
#
# Mechanical properties :
#
#
# Convention : Reuss Voigt Hill
#
# Bulk Modulus (GPa) = 41.36173 41.96504 41.66338
# Shear Modulus (GPa) = 15.00987 33.46530 24.23758
#
# Velocity S-wave (km/s) = 2.52433 3.76925 3.20776
# Velocity P-wave (km/s) = 5.10449 6.06289 5.60421
#
# Compressibility (1/GPa) = 0.02417694
#
# Stress axis : x y z
#
# Youngs Moduli (GPa) = 106.80069 76.52893 78.61341
#
# Poissons Ratio (x) = 0.04064 0.16144
# Poissons Ratio (y) = 0.05672 0.22815
# Poissons Ratio (z) = 0.21933 0.22210
#
# Static dielectric constant tensor:
#      x y z
#    x 4.294480 0.000000 0.000000 
#    y 0.000000 4.314010 0.000000 
#    z 0.000000 0.000000 3.985060 
# 
# 
# High freq. dielectric constant tensor:
#      x y z
#    x 1.932930 0.000000 0.000000 
#    y 0.000000 1.943820 0.000000 
#    z 0.000000 0.000000 1.923430 
# 
# From -- ./inp_files/3093.got.cif
#   From: 2010.03.12/outbox.cif.g09.slc.cpg/sg64_2_cif.got.tgz:3093.got - 2010.04.10 20:19:32.
