data_PCOD8262124
_publ_section_title
;
Structure prediction by ZEFSAII (Michael W. Deem and Ramdas Pophale) SiO2 
 PCOD8262124
Probable space group: C M C A
;
_chemical_formula_sum "Si O2"
_cell_formula_units_Z 96
_cell_length_a 17.602942
_cell_length_b 17.713497
_cell_length_c 17.195114
_cell_angle_alpha 90.000000
_cell_angle_beta 90.000000
_cell_angle_gamma 90.000000
_cell_volume 5361.602655
_symmetry_space_group_name_H-M "C M C A"
_symmetry_group_IT_number 64
_symmetry_cell_setting 'orthorhombic'
loop_
_space_group_symop_operation_xyz
x,y,z
-x,1/2-y,1/2+z
x,-y,-z
-x,1/2+y,1/2-z
-x,-y,-z
x,1/2+y,1/2-z
-x,y,z
x,1/2-y,1/2+z
1/2+x,1/2+y,z
1/2-x,-y,1/2+z
1/2+x,1/2-y,-z
1/2-x,y,1/2-z
1/2-x,1/2-y,-z
1/2+x,y,1/2-z
1/2-x,1/2+y,z
1/2+x,-y,1/2+z
loop_
_atom_site_type_symbol
_atom_site_label
_atom_site_fract_x
_atom_site_fract_y
_atom_site_fract_z
Si Si1 0.326177 0.692772 0.777803
Si Si2 0.159758 0.820016 0.848473
Si Si3 0.590459 0.082385 0.225392
Si Si4 0.912040 0.582595 0.811001
Si Si5 0.173493 0.687459 0.106122
Si Si6 0.410790 0.805710 0.054248
O O1 0.250000 0.648055 0.750000
O O2 0.325978 0.767117 0.724877
O O3 0.395521 0.635720 0.763787
O O4 0.328116 0.724208 0.865923
O O5 0.121152 0.894911 0.811581
O O6 0.239443 0.842033 0.889813
O O7 0.104160 0.776685 0.908288
O O8 0.500000 0.084296 0.228735
O O9 0.617461 0.138159 0.158226
O O10 0.623897 0.999966 0.202021
O O11 0.883749 0.626853 0.887999
O O12 0.000000 0.570583 0.818196
O O13 0.142878 0.683845 0.019324
O O14 0.500000 0.811806 0.033314
#
# Coordination Sequence:
#
# PCOD8262124 Si02
#       6
#    16  16  16  16  16  16
#     4   8  16  30  48  69  92 123 164 202 239 286
#     4   9  18  33  50  70  98 130 164 202 241 291
#     4  10  19  32  50  73  98 130 167 203 244 294
#     4   9  19  32  48  71 100 129 161 201 245 291
#     4  10  19  31  50  75  99 128 164 207 252 294
#     4  10  19  32  51  76 102 130 162 203 251 298
#
# _framework density 17.905093999999998
#
# number of rings (size 3 to 8) (size 9 to 14) (size 15 to 20)
#    0.000    2.667    0.000    3.000    0.000    6.667 
#    0.000    2.500    0.000    3.000    0.000    3.500 
#    0.000    0.000    0.000    0.000    0.000    0.000 
#
# Total GULP energy -594752.999202 kJ/mol
# GULP energy per Si atom -12390.687483 kJ/mol
# Density = 1.786434 g / cm^3
# Si number density = 17.905094 Si / 1000 Ang^3
#
#
#
# Elastic Constant Matrix: (Units=GPa)
#
#
# Indices 1 2 3 4 5 6 
#
# 1 76.2641 36.3605 47.8553 0.0000 0.0000 0.0000
# 2 36.3605 93.5516 64.3379 0.0000 0.0000 0.0000
# 3 47.8553 64.3379 89.6921 0.0000 0.0000 0.0000
# 4 0.0000 0.0000 0.0000 17.7168 0.0000 0.0000
# 5 0.0000 0.0000 0.0000 0.0000 32.1203 0.0000
# 6 0.0000 0.0000 0.0000 0.0000 0.0000 18.8857
#
#
#
# Elastic Compliance Matrix: (Units=1/GPa)
#
#
# Indices 1 2 3 4 5 6 
#
# 1 0.019746 -0.000847 -0.009928 0.000000 0.000000 0.000000
# 2 -0.000847 0.021133 -0.014707 0.000000 0.000000 0.000000
# 3 -0.009928 -0.014707 0.026996 0.000000 0.000000 0.000000
# 4 0.000000 0.000000 0.000000 0.056444 0.000000 0.000000
# 5 0.000000 0.000000 0.000000 0.000000 0.031133 0.000000
# 6 0.000000 0.000000 0.000000 0.000000 0.000000 0.052950
#
#
# Mechanical properties :
#
#
# Convention : Reuss Voigt Hill
#
# Bulk Modulus (GPa) = 59.13377 61.84614 60.48996
# Shear Modulus (GPa) = 18.86774 21.14150 20.00462
#
# Velocity S-wave (km/s) = 3.24969 3.43994 3.34617
# Velocity P-wave (km/s) = 6.86867 7.09885 6.98471
#
# Compressibility (1/GPa) = 0.01691081
#
# Stress axis : x y z
#
# Youngs Moduli (GPa) = 50.64365 47.31936 37.04239
#
# Poissons Ratio (x) = 0.04007 0.36775
# Poissons Ratio (y) = 0.04289 0.54479
# Poissons Ratio (z) = 0.50279 0.69594
#
# Static dielectric constant tensor:
#      x y z
#    x 3.465240 0.000000 0.000000 
#    y 0.000000 3.523080 0.000000 
#    z 0.000000 0.000000 3.279940 
# 
# 
# High freq. dielectric constant tensor:
#      x y z
#    x 1.700830 0.000000 0.000000 
#    y 0.000000 1.674550 0.000000 
#    z 0.000000 0.000000 1.676250 
# 
# From -- ./inp_files/33304.got.cif
#   From: 2010.03.12/outbox.cif.g09.slc.cpg/sg64_17_cif.got.tgz:33304.got - 2010.04.10 20:19:32.
