data_PCOD8262730
_publ_section_title
;
Structure prediction by ZEFSAII (Michael W. Deem and Ramdas Pophale) SiO2 
 PCOD8262730
Probable space group: C M C A
;
_chemical_formula_sum "Si O2"
_cell_formula_units_Z 80
_cell_length_a 7.763327
_cell_length_b 19.046969
_cell_length_c 29.382607
_cell_angle_alpha 90.000000
_cell_angle_beta 90.000000
_cell_angle_gamma 90.000000
_cell_volume 4344.742886
_symmetry_space_group_name_H-M "C M C A"
_symmetry_group_IT_number 64
_symmetry_cell_setting 'orthorhombic'
loop_
_space_group_symop_operation_xyz
x,y,z
-x,1/2-y,1/2+z
x,-y,-z
-x,1/2+y,1/2-z
-x,-y,-z
x,1/2+y,1/2-z
-x,y,z
x,1/2-y,1/2+z
1/2+x,1/2+y,z
1/2-x,-y,1/2+z
1/2+x,1/2-y,-z
1/2-x,y,1/2-z
1/2-x,1/2-y,-z
1/2+x,y,1/2-z
1/2-x,1/2+y,z
1/2+x,-y,1/2+z
loop_
_atom_site_type_symbol
_atom_site_label
_atom_site_fract_x
_atom_site_fract_y
_atom_site_fract_z
Si Si1 0.500000 0.419193 0.448079
Si Si2 0.799566 0.587757 0.384461
Si Si3 0.307708 0.827589 0.699763
Si Si4 0.500000 0.585317 0.450781
Si Si5 0.196494 0.076550 0.883200
Si Si6 0.698762 0.327778 0.200959
O O1 0.500000 0.502040 0.452901
O O2 0.500000 0.383632 0.497971
O O3 0.673430 0.395350 0.421805
O O4 0.718507 0.629012 0.340990
O O5 0.676202 0.610467 0.426257
O O6 0.780125 0.505574 0.374077
O O7 0.000000 0.606606 0.396064
O O8 0.500000 0.853620 0.695961
O O9 0.250000 0.849540 0.750000
O O10 0.297208 0.744551 0.691361
O O11 0.000000 0.094046 0.898070
O O12 0.247097 0.114890 0.836445
O O13 0.500000 0.307619 0.200543
O O14 0.750000 0.359335 0.250000
#
# Coordination Sequence:
#
# PCOD8262730 Si02
#       6
#     8  16  16   8  16  16
#     4   9  18  32  54  79 100 130 167 208 258 302
#     4   9  19  34  51  76 105 132 167 209 254 299
#     4  10  20  32  50  74 101 137 173 205 247 299
#     4   9  18  32  54  79 100 130 167 208 258 302
#     4   9  19  34  51  76 105 132 167 209 254 299
#     4  10  20  32  50  74 101 137 173 205 247 299
#
# _framework density 18.413056000000001
#
# number of rings (size 3 to 8) (size 9 to 14) (size 15 to 20)
#    0.000    2.600    0.000    2.400    5.600    1.600 
#    0.000    4.000    0.000    1.200    0.000    0.000 
#    0.000    0.000    0.000    0.000    0.000    0.000 
#
# Total GULP energy -495778.081089 kJ/mol
# GULP energy per Si atom -12394.452027 kJ/mol
# Density = 1.837115 g / cm^3
# Si number density = 18.413056 Si / 1000 Ang^3
#
#
#
# Elastic Constant Matrix: (Units=GPa)
#
#
# Indices 1 2 3 4 5 6 
#
# 1 100.7532 24.0294 77.0777 0.0000 0.0000 0.0000
# 2 24.0294 37.6794 52.7582 0.0000 0.0000 0.0000
# 3 77.0777 52.7582 181.2152 0.0000 0.0000 0.0000
# 4 0.0000 0.0000 0.0000 -5.1688 0.0000 0.0000
# 5 0.0000 0.0000 0.0000 0.0000 31.8161 0.0000
# 6 0.0000 0.0000 0.0000 0.0000 0.0000 15.1428
#
#
#
# Elastic Compliance Matrix: (Units=1/GPa)
#
#
# Indices 1 2 3 4 5 6 
#
# 1 0.014737 -0.001049 -0.005963 0.000000 0.000000 0.000000
# 2 -0.001049 0.044878 -0.012619 0.000000 0.000000 0.000000
# 3 -0.005963 -0.012619 0.011728 0.000000 0.000000 0.000000
# 4 0.000000 0.000000 0.000000 -0.193470 0.000000 0.000000
# 5 0.000000 0.000000 0.000000 0.000000 0.031431 0.000000
# 6 0.000000 0.000000 0.000000 0.000000 0.000000 0.066038
#
#
# Mechanical properties :
#
#
# Convention : Reuss Voigt Hill
#
# Bulk Modulus (GPa) = 31.17111 69.70870 50.43991
# Shear Modulus (GPa) = 197.63824 19.41020 108.52422
#
# Velocity S-wave (km/s) = 10.37154 3.25030 7.68549
# Velocity P-wave (km/s) = 12.66455 7.21293 10.30576
#
# Compressibility (1/GPa) = 0.03208098
#
# Stress axis : x y z
#
# Youngs Moduli (GPa) = 67.85596 22.28243 85.26286
#
# Poissons Ratio (x) = 0.02338 0.50840
# Poissons Ratio (y) = 0.07121 1.07596
# Poissons Ratio (z) = 0.40461 0.28119
#
# Static dielectric constant tensor:
#      x y z
#    x 3.588420 0.000000 0.000000 
#    y 0.000000 3.047360 0.000000 
#    z 0.000000 0.000000 4.055540 
# 
# 
# High freq. dielectric constant tensor:
#      x y z
#    x 1.728420 0.000000 0.000000 
#    y 0.000000 1.680570 0.000000 
#    z 0.000000 0.000000 1.713630 
# 
# From -- ./inp_files/42766.got.cif
#   From: 2010.03.12/outbox.cif.g09.slc.cpg/sg64_22_cif.got.tgz:42766.got - 2010.04.10 20:19:32.
