data_PCOD8262955
_publ_section_title
;
Structure prediction by ZEFSAII (Michael W. Deem and Ramdas Pophale) SiO2 
 PCOD8262955
Probable space group: C M C A
;
_chemical_formula_sum "Si O2"
_cell_formula_units_Z 112
_cell_length_a 23.829214
_cell_length_b 11.903190
_cell_length_c 18.946326
_cell_angle_alpha 90.000000
_cell_angle_beta 90.000000
_cell_angle_gamma 90.000000
_cell_volume 5374.005284
_symmetry_space_group_name_H-M "C M C A"
_symmetry_group_IT_number 64
_symmetry_cell_setting 'orthorhombic'
loop_
_space_group_symop_operation_xyz
x,y,z
-x,1/2-y,1/2+z
x,-y,-z
-x,1/2+y,1/2-z
-x,-y,-z
x,1/2+y,1/2-z
-x,y,z
x,1/2-y,1/2+z
1/2+x,1/2+y,z
1/2-x,-y,1/2+z
1/2+x,1/2-y,-z
1/2-x,y,1/2-z
1/2-x,1/2-y,-z
1/2+x,y,1/2-z
1/2-x,1/2+y,z
1/2+x,-y,1/2+z
loop_
_atom_site_type_symbol
_atom_site_label
_atom_site_fract_x
_atom_site_fract_y
_atom_site_fract_z
Si Si1 0.666607 0.287526 0.144326
Si Si2 0.333424 0.591877 0.260941
Si Si3 0.062740 0.515006 0.166648
Si Si4 0.937990 0.257681 0.922656
Si Si5 0.216104 0.644666 0.026642
Si Si6 0.605713 0.106492 0.958844
Si Si7 0.236195 0.007891 0.142851
O O1 0.666781 0.225425 0.220450
O O2 0.604588 0.328496 0.118373
O O3 0.677523 0.183702 0.091415
O O4 0.714813 0.379858 0.139690
O O5 0.395180 0.536265 0.267710
O O6 0.292255 0.517538 0.310650
O O7 0.312809 0.582024 0.180139
O O8 0.062835 0.625712 0.119329
O O9 0.085457 0.406957 0.121925
O O10 0.000000 0.488519 0.194841
O O11 0.000000 0.203595 0.922744
O O12 0.918991 0.280996 0.004181
O O13 0.255882 0.547622 0.061186
O O14 0.250000 0.750000 0.000000
O O15 0.174523 0.601750 0.964144
O O16 0.580212 0.000000 0.000000
#
# Coordination Sequence:
#
# PCOD8262955 Si02
#       7
#    16  16  16  16  16  16  16
#     4   9  19  34  50  75 105 140 184 230 282 346
#     4   9  20  35  51  78 106 141 191 228 277 349
#     4   9  16  29  52  79 109 141 178 236 297 342
#     4   8  14  27  47  73 103 137 179 225 280 342
#     4  10  22  32  49  79 109 143 183 228 283 344
#     4   9  16  27  46  76 110 135 172 231 288 342
#     4  10  20  35  53  73 109 150 183 226 279 341
#
# _framework density 20.841066000000001
#
# number of rings (size 3 to 8) (size 9 to 14) (size 15 to 20)
#    0.000    2.857    0.000    3.000    4.000    6.286 
#    0.000    0.714    0.000    0.000    0.000   10.000 
#    0.000    0.000    0.000    0.000    0.000    0.000 
#
# Total GULP energy -693760.535876 kJ/mol
# GULP energy per Si atom -12388.580998 kJ/mol
# Density = 2.079363 g / cm^3
# Si number density = 20.841066 Si / 1000 Ang^3
#
#
#
# Elastic Constant Matrix: (Units=GPa)
#
#
# Indices 1 2 3 4 5 6 
#
# 1 161.2154 34.7054 38.7156 0.0000 0.0000 0.0000
# 2 34.7054 60.3723 8.5329 0.0000 0.0000 0.0000
# 3 38.7156 8.5329 46.4385 0.0000 0.0000 0.0000
# 4 0.0000 0.0000 0.0000 20.1741 0.0000 0.0000
# 5 0.0000 0.0000 0.0000 0.0000 28.2765 0.0000
# 6 0.0000 0.0000 0.0000 0.0000 0.0000 15.7836
#
#
#
# Elastic Compliance Matrix: (Units=1/GPa)
#
#
# Indices 1 2 3 4 5 6 
#
# 1 0.008621 -0.004045 -0.006444 0.000000 0.000000 0.000000
# 2 -0.004045 0.018904 -0.000101 0.000000 0.000000 0.000000
# 3 -0.006444 -0.000101 0.026925 0.000000 0.000000 0.000000
# 4 0.000000 0.000000 0.000000 0.049569 0.000000 0.000000
# 5 0.000000 0.000000 0.000000 0.000000 0.035365 0.000000
# 6 0.000000 0.000000 0.000000 0.000000 0.000000 0.063357
#
#
# Mechanical properties :
#
#
# Convention : Reuss Voigt Hill
#
# Bulk Modulus (GPa) = 30.05809 47.99268 39.02539
# Shear Modulus (GPa) = 21.27563 25.25167 23.26365
#
# Velocity S-wave (km/s) = 3.19854 3.48462 3.34464
# Velocity P-wave (km/s) = 5.30045 6.26642 5.80357
#
# Compressibility (1/GPa) = 0.03326891
#
# Stress axis : x y z
#
# Youngs Moduli (GPa) = 115.99217 52.90014 37.14028
#
# Poissons Ratio (x) = 0.21399 0.23934
# Poissons Ratio (y) = 0.46921 0.00375
# Poissons Ratio (z) = 0.74748 0.00534
#
# Static dielectric constant tensor:
#      x y z
#    x 4.271590 0.000000 0.000000 
#    y 0.000000 3.282820 0.000000 
#    z 0.000000 0.000000 3.781480 
# 
# 
# High freq. dielectric constant tensor:
#      x y z
#    x 1.822180 0.000000 0.000000 
#    y 0.000000 1.766820 0.000000 
#    z 0.000000 0.000000 1.787990 
# 
# From -- ./inp_files/41527.got.cif
#   From: 2010.03.12/outbox.cif.g09.slc.cpg/sg64_21_cif.got.tgz:41527.got - 2010.04.10 20:19:32.
