data_PCOD8262647
_publ_section_title
;
Structure prediction by ZEFSAII (Michael W. Deem and Ramdas Pophale) SiO2 
 PCOD8262647
Probable space group: C M C A
;
_chemical_formula_sum "Si O2"
_cell_formula_units_Z 96
_cell_length_a 8.749850
_cell_length_b 28.941125
_cell_length_c 20.356425
_cell_angle_alpha 90.000000
_cell_angle_beta 90.000000
_cell_angle_gamma 90.000000
_cell_volume 5154.867734
_symmetry_space_group_name_H-M "C M C A"
_symmetry_group_IT_number 64
_symmetry_cell_setting 'orthorhombic'
loop_
_space_group_symop_operation_xyz
x,y,z
-x,1/2-y,1/2+z
x,-y,-z
-x,1/2+y,1/2-z
-x,-y,-z
x,1/2+y,1/2-z
-x,y,z
x,1/2-y,1/2+z
1/2+x,1/2+y,z
1/2-x,-y,1/2+z
1/2+x,1/2-y,-z
1/2-x,y,1/2-z
1/2-x,1/2-y,-z
1/2+x,y,1/2-z
1/2-x,1/2+y,z
1/2+x,-y,1/2+z
loop_
_atom_site_type_symbol
_atom_site_label
_atom_site_fract_x
_atom_site_fract_y
_atom_site_fract_z
Si Si1 0.177774 0.973961 0.432267
Si Si2 0.181358 0.723147 0.938783
Si Si3 0.319604 0.123454 0.981137
Si Si4 0.319599 0.222968 0.180161
Si Si5 0.680557 0.622572 0.371084
Si Si6 0.679564 0.531272 0.182445
O O1 0.234511 0.921087 0.439955
O O2 0.000000 0.977348 0.413104
O O3 0.209509 0.000000 0.500000
O O4 0.276412 0.996656 0.375491
O O5 0.232804 0.669658 0.943921
O O6 0.248071 0.741816 0.871422
O O7 0.000000 0.728587 0.940352
O O8 0.250000 0.750000 0.000000
O O9 0.500000 0.122271 0.988996
O O10 0.252497 0.122157 0.054952
O O11 0.500000 0.229754 0.180820
O O12 0.250000 0.235987 0.250000
O O13 0.273932 0.170949 0.161606
O O14 0.500000 0.614027 0.369957
O O15 0.759892 0.582702 0.329771
O O16 0.500000 0.533100 0.189560
O O17 0.750000 0.512108 0.250000
#
# Coordination Sequence:
#
# PCOD8262647 Si02
#       6
#    16  16  16  16  16  16
#     4  10  19  37  64  86 113 154 193 233 287 346
#     4  11  21  37  60  88 120 156 197 241 288 346
#     4   9  18  35  60  89 117 150 192 235 285 347
#     4  11  23  39  59  86 120 157 198 243 293 351
#     4  10  19  37  61  87 119 153 191 236 292 351
#     4  12  25  39  57  86 121 155 195 240 291 347
#
# _framework density 18.623173999999999
#
# number of rings (size 3 to 8) (size 9 to 14) (size 15 to 20)
#    0.000    1.500    3.333    3.000    0.000    3.000 
#    0.000    2.500    0.000    0.000    0.000    0.000 
#    0.000    0.000    0.000    0.000    0.000    0.000 
#
# Total GULP energy -595358.513481 kJ/mol
# GULP energy per Si atom -12403.302364 kJ/mol
# Density = 1.858079 g / cm^3
# Si number density = 18.623174 Si / 1000 Ang^3
#
#
#
# Elastic Constant Matrix: (Units=GPa)
#
#
# Indices 1 2 3 4 5 6 
#
# 1 70.4993 44.5591 43.9846 0.0000 0.0000 0.0000
# 2 44.5591 140.5332 58.7665 0.0000 0.0000 0.0000
# 3 43.9846 58.7665 131.1315 0.0000 0.0000 0.0000
# 4 0.0000 0.0000 0.0000 31.3940 0.0000 0.0000
# 5 0.0000 0.0000 0.0000 0.0000 30.8797 0.0000
# 6 0.0000 0.0000 0.0000 0.0000 0.0000 25.5873
#
#
#
# Elastic Compliance Matrix: (Units=1/GPa)
#
#
# Indices 1 2 3 4 5 6 
#
# 1 0.019865 -0.004322 -0.004726 0.000000 0.000000 0.000000
# 2 -0.004322 0.009697 -0.002896 0.000000 0.000000 0.000000
# 3 -0.004726 -0.002896 0.010509 0.000000 0.000000 0.000000
# 4 0.000000 0.000000 0.000000 0.031853 0.000000 0.000000
# 5 0.000000 0.000000 0.000000 0.000000 0.032384 0.000000
# 6 0.000000 0.000000 0.000000 0.000000 0.000000 0.039082
#
#
# Mechanical properties :
#
#
# Convention : Reuss Voigt Hill
#
# Bulk Modulus (GPa) = 61.79552 70.75382 66.27467
# Shear Modulus (GPa) = 28.95637 30.56245 29.75941
#
# Velocity S-wave (km/s) = 3.94745 4.05544 4.00181
# Velocity P-wave (km/s) = 7.35055 7.74620 7.55097
#
# Compressibility (1/GPa) = 0.01618240
#
# Stress axis : x y z
#
# Youngs Moduli (GPa) = 50.33937 103.12182 95.15607
#
# Poissons Ratio (x) = 0.44573 0.44973
# Poissons Ratio (y) = 0.21758 0.27557
# Poissons Ratio (z) = 0.23791 0.29864
#
# Static dielectric constant tensor:
#      x y z
#    x 3.300760 0.000000 0.000000 
#    y 0.000000 3.711020 0.000000 
#    z 0.000000 0.000000 3.471050 
# 
# 
# High freq. dielectric constant tensor:
#      x y z
#    x 1.710960 0.000000 0.000000 
#    y 0.000000 1.728550 0.000000 
#    z 0.000000 0.000000 1.727440 
# 
# From -- ./inp_files/37019.got.cif
#   From: 2010.03.12/outbox.cif.g09.slc.cpg/sg64_19_cif.got.tgz:37019.got - 2010.04.10 20:19:32.
