data_PCOD8262258
_publ_section_title
;
Structure prediction by ZEFSAII (Michael W. Deem and Ramdas Pophale) SiO2 
 PCOD8262258
Probable space group: C M C A
;
_chemical_formula_sum "Si O2"
_cell_formula_units_Z 104
_cell_length_a 25.986308
_cell_length_b 16.042556
_cell_length_c 12.374021
_cell_angle_alpha 90.000000
_cell_angle_beta 90.000000
_cell_angle_gamma 90.000000
_cell_volume 5158.566034
_symmetry_space_group_name_H-M "C M C A"
_symmetry_group_IT_number 64
_symmetry_cell_setting 'orthorhombic'
loop_
_space_group_symop_operation_xyz
x,y,z
-x,1/2-y,1/2+z
x,-y,-z
-x,1/2+y,1/2-z
-x,-y,-z
x,1/2+y,1/2-z
-x,y,z
x,1/2-y,1/2+z
1/2+x,1/2+y,z
1/2-x,-y,1/2+z
1/2+x,1/2-y,-z
1/2-x,y,1/2-z
1/2-x,1/2-y,-z
1/2+x,y,1/2-z
1/2-x,1/2+y,z
1/2+x,-y,1/2+z
loop_
_atom_site_type_symbol
_atom_site_label
_atom_site_fract_x
_atom_site_fract_y
_atom_site_fract_z
Si Si1 0.867312 0.337207 0.216111
Si Si2 0.942068 0.834892 0.095468
Si Si3 0.357931 0.989574 0.720434
Si Si4 0.122186 0.809477 0.526355
Si Si5 0.559117 0.547434 0.387579
Si Si6 0.807657 0.321427 0.786765
Si Si7 0.593115 0.000000 0.500000
O O1 0.921165 0.334156 0.281475
O O2 0.834214 0.416368 0.263671
O O3 0.875616 0.352691 0.089457
O O4 0.839972 0.247884 0.223133
O O5 0.000000 0.799411 0.095102
O O6 0.903092 0.781828 0.020248
O O7 0.942936 0.926397 0.043423
O O8 0.410420 0.997074 0.790764
O O9 0.319888 0.917310 0.758571
O O10 0.369823 0.969722 0.596314
O O11 0.083107 0.860777 0.602399
O O12 0.178657 0.808575 0.585335
O O13 0.565978 0.500000 0.500000
O O14 0.500000 0.553609 0.352306
O O15 0.750000 0.303980 0.750000
#
# Coordination Sequence:
#
# PCOD8262258 Si02
#       7
#    16  16  16  16  16  16   8
#     4  10  21  38  59  84 114 152 191 239 286 346
#     4  10  21  34  53  84 119 158 197 231 276 339
#     4  10  21  39  60  82 119 153 192 239 292 342
#     4  10  20  38  58  81 117 150 188 239 291 335
#     4  10  19  32  55  86 114 147 186 229 276 330
#     4  10  23  40  60  86 112 143 191 244 299 351
#     4  10  21  38  56  78 118 160 196 234 279 340
#
# _framework density 20.160640999999998
#
# number of rings (size 3 to 8) (size 9 to 14) (size 15 to 20)
#    0.000    2.000    1.538    1.615    0.000    5.538 
#    0.000    1.538    0.000    0.000    0.000    0.000 
#    0.000    0.000    0.000    0.000    0.000    0.000 
#
# Total GULP energy -644473.973369 kJ/mol
# GULP energy per Si atom -12393.730257 kJ/mol
# Density = 2.011475 g / cm^3
# Si number density = 20.160641 Si / 1000 Ang^3
#
#
#
# Elastic Constant Matrix: (Units=GPa)
#
#
# Indices 1 2 3 4 5 6 
#
# 1 94.9353 28.3272 42.3098 0.0000 0.0000 0.0000
# 2 28.3272 97.6225 14.6516 0.0000 0.0000 0.0000
# 3 42.3098 14.6516 123.0820 0.0000 0.0000 0.0000
# 4 0.0000 0.0000 0.0000 28.6158 0.0000 0.0000
# 5 0.0000 0.0000 0.0000 0.0000 17.6530 0.0000
# 6 0.0000 0.0000 0.0000 0.0000 0.0000 16.6823
#
#
#
# Elastic Compliance Matrix: (Units=1/GPa)
#
#
# Indices 1 2 3 4 5 6 
#
# 1 0.013381 -0.003250 -0.004213 0.000000 0.000000 0.000000
# 2 -0.003250 0.011219 -0.000218 0.000000 0.000000 0.000000
# 3 -0.004213 -0.000218 0.009599 0.000000 0.000000 0.000000
# 4 0.000000 0.000000 0.000000 0.034946 0.000000 0.000000
# 5 0.000000 0.000000 0.000000 0.000000 0.056648 0.000000
# 6 0.000000 0.000000 0.000000 0.000000 0.000000 0.059944
#
#
# Mechanical properties :
#
#
# Convention : Reuss Voigt Hill
#
# Bulk Modulus (GPa) = 53.08912 54.02411 53.55662
# Shear Modulus (GPa) = 24.11058 27.94696 26.02877
#
# Velocity S-wave (km/s) = 3.46196 3.72723 3.59704
# Velocity P-wave (km/s) = 6.50926 6.73632 6.62376
#
# Compressibility (1/GPa) = 0.01883625
#
# Stress axis : x y z
#
# Youngs Moduli (GPa) = 74.73341 89.13066 104.17975
#
# Poissons Ratio (x) = 0.28972 0.43889
# Poissons Ratio (y) = 0.24292 0.02273
# Poissons Ratio (z) = 0.31484 0.01945
#
# Static dielectric constant tensor:
#      x y z
#    x 3.291280 0.000000 0.000000 
#    y 0.000000 3.877710 0.000000 
#    z 0.000000 0.000000 3.647010 
# 
# 
# High freq. dielectric constant tensor:
#      x y z
#    x 1.746510 0.000000 0.000000 
#    y 0.000000 1.812820 0.000000 
#    z 0.000000 0.000000 1.788590 
# 
# From -- ./inp_files/19214.got.cif
#   From: 2010.03.12/outbox.cif.g09.slc.cpg/sg64_10_cif.got.tgz:19214.got - 2010.04.10 20:19:32.
