data_PCOD8262098
_publ_section_title
;
Structure prediction by ZEFSAII (Michael W. Deem and Ramdas Pophale) SiO2 
 PCOD8262098
Probable space group: C M C A
;
_chemical_formula_sum "Si O2"
_cell_formula_units_Z 96
_cell_length_a 8.815838
_cell_length_b 23.310564
_cell_length_c 25.917869
_cell_angle_alpha 90.000000
_cell_angle_beta 90.000000
_cell_angle_gamma 90.000000
_cell_volume 5326.177956
_symmetry_space_group_name_H-M "C M C A"
_symmetry_group_IT_number 64
_symmetry_cell_setting 'orthorhombic'
loop_
_space_group_symop_operation_xyz
x,y,z
-x,1/2-y,1/2+z
x,-y,-z
-x,1/2+y,1/2-z
-x,-y,-z
x,1/2+y,1/2-z
-x,y,z
x,1/2-y,1/2+z
1/2+x,1/2+y,z
1/2-x,-y,1/2+z
1/2+x,1/2-y,-z
1/2-x,y,1/2-z
1/2-x,1/2-y,-z
1/2+x,y,1/2-z
1/2-x,1/2+y,z
1/2+x,-y,1/2+z
loop_
_atom_site_type_symbol
_atom_site_label
_atom_site_fract_x
_atom_site_fract_y
_atom_site_fract_z
Si Si1 0.821361 0.096661 0.565933
Si Si2 0.177939 0.728236 0.947002
Si Si3 0.177553 0.826768 0.606042
Si Si4 0.174338 0.505637 0.627951
Si Si5 0.674482 0.083231 0.462444
Si Si6 0.820499 0.587523 0.195265
O O1 0.775840 0.163329 0.566457
O O2 0.737981 0.065483 0.518103
O O3 0.000000 0.086928 0.561902
O O4 0.758160 0.066313 0.617937
O O5 0.237265 0.765993 0.898566
O O6 0.000000 0.735020 0.952488
O O7 0.250000 0.750000 0.000000
O O8 0.223880 0.863636 0.556192
O O9 0.227635 0.860254 0.657689
O O10 0.000000 0.815611 0.604689
O O11 0.192826 0.469532 0.575885
O O12 0.253434 0.472589 0.675164
O O13 0.000000 0.516344 0.642664
O O14 0.500000 0.102777 0.466418
O O15 0.750000 0.602975 0.250000
O O16 0.000000 0.581449 0.199024
#
# Coordination Sequence:
#
# PCOD8262098 Si02
#       6
#    16  16  16  16  16  16
#     4  11  22  33  48  73 107 146 183 219 264 316
#     4  11  22  34  51  75 108 149 188 224 263 316
#     4  10  20  34  53  79 108 140 180 224 269 317
#     4  10  21  35  52  77 106 138 178 221 268 321
#     4  10  19  31  49  73 104 142 180 218 261 314
#     4  10  21  38  61  85 108 135 172 222 277 328
#
# _framework density 18.024180999999999
#
# number of rings (size 3 to 8) (size 9 to 14) (size 15 to 20)
#    0.000    1.667    1.667    3.500    0.000    8.000 
#    0.000    0.000    0.000    1.000    0.000    2.333 
#    0.000    0.000    0.000    0.000    0.000    0.000 
#
# Total GULP energy -595305.694072 kJ/mol
# GULP energy per Si atom -12402.201960 kJ/mol
# Density = 1.798316 g / cm^3
# Si number density = 18.024181 Si / 1000 Ang^3
#
#
#
# Elastic Constant Matrix: (Units=GPa)
#
#
# Indices 1 2 3 4 5 6 
#
# 1 86.7635 47.2634 33.8816 0.0000 0.0000 0.0000
# 2 47.2634 93.5330 37.4929 0.0000 0.0000 0.0000
# 3 33.8816 37.4929 82.3987 0.0000 0.0000 0.0000
# 4 0.0000 0.0000 0.0000 17.5936 0.0000 0.0000
# 5 0.0000 0.0000 0.0000 0.0000 30.2638 0.0000
# 6 0.0000 0.0000 0.0000 0.0000 0.0000 30.3658
#
#
#
# Elastic Compliance Matrix: (Units=1/GPa)
#
#
# Indices 1 2 3 4 5 6 
#
# 1 0.016787 -0.006991 -0.003722 0.000000 0.000000 0.000000
# 2 -0.006991 0.015988 -0.004400 0.000000 0.000000 0.000000
# 3 -0.003722 -0.004400 0.015669 0.000000 0.000000 0.000000
# 4 0.000000 0.000000 0.000000 0.056839 0.000000 0.000000
# 5 0.000000 0.000000 0.000000 0.000000 0.033043 0.000000
# 6 0.000000 0.000000 0.000000 0.000000 0.000000 0.032932
#
#
# Mechanical properties :
#
#
# Convention : Reuss Voigt Hill
#
# Bulk Modulus (GPa) = 54.89077 55.55233 55.22155
# Shear Modulus (GPa) = 24.08999 25.24847 24.66923
#
# Velocity S-wave (km/s) = 3.65983 3.74680 3.70357
# Velocity P-wave (km/s) = 6.95552 7.04315 6.99947
#
# Compressibility (1/GPa) = 0.01821800
#
# Stress axis : x y z
#
# Youngs Moduli (GPa) = 59.56939 62.54771 63.82186
#
# Poissons Ratio (x) = 0.43726 0.23753
# Poissons Ratio (y) = 0.41644 0.28083
# Poissons Ratio (z) = 0.22170 0.27522
#
# Static dielectric constant tensor:
#      x y z
#    x 3.430640 0.000000 0.000000 
#    y 0.000000 3.521970 0.000000 
#    z 0.000000 0.000000 3.141460 
# 
# 
# High freq. dielectric constant tensor:
#      x y z
#    x 1.715700 0.000000 0.000000 
#    y 0.000000 1.698090 0.000000 
#    z 0.000000 0.000000 1.665280 
# 
# From -- ./inp_files/42993.got.cif
#   From: 2010.03.12/outbox.cif.g09.slc.cpg/sg64_22_cif.got.tgz:42993.got - 2010.04.10 20:19:32.
