data_PCOD8262694
_publ_section_title
;
Structure prediction by ZEFSAII (Michael W. Deem and Ramdas Pophale) SiO2 
 PCOD8262694
Probable space group: C M C A
;
_chemical_formula_sum "Si O2"
_cell_formula_units_Z 88
_cell_length_a 13.738744
_cell_length_b 17.925716
_cell_length_c 17.488719
_cell_angle_alpha 90.000000
_cell_angle_beta 90.000000
_cell_angle_gamma 90.000000
_cell_volume 4307.066156
_symmetry_space_group_name_H-M "C M C A"
_symmetry_group_IT_number 64
_symmetry_cell_setting 'orthorhombic'
loop_
_space_group_symop_operation_xyz
x,y,z
-x,1/2-y,1/2+z
x,-y,-z
-x,1/2+y,1/2-z
-x,-y,-z
x,1/2+y,1/2-z
-x,y,z
x,1/2-y,1/2+z
1/2+x,1/2+y,z
1/2-x,-y,1/2+z
1/2+x,1/2-y,-z
1/2-x,y,1/2-z
1/2-x,1/2-y,-z
1/2+x,y,1/2-z
1/2-x,1/2+y,z
1/2+x,-y,1/2+z
loop_
_atom_site_type_symbol
_atom_site_label
_atom_site_fract_x
_atom_site_fract_y
_atom_site_fract_z
Si Si1 0.811975 0.563856 0.938258
Si Si2 0.000000 0.858372 0.397549
Si Si3 0.500000 0.643443 0.274191
Si Si4 0.332621 0.688897 0.982935
Si Si5 0.344879 0.528375 0.287994
Si Si6 0.000000 0.071647 0.768783
Si Si7 0.500000 0.815407 0.600839
Si Si8 0.500000 0.786809 0.369896
O O1 0.905675 0.617469 0.945920
O O2 0.715851 0.613513 0.950651
O O3 0.811481 0.524082 0.856818
O O4 0.819124 0.500000 0.000000
O O5 0.000000 0.894783 0.315271
O O6 0.000000 0.771553 0.383562
O O7 0.407843 0.600589 0.311093
O O8 0.500000 0.641004 0.181552
O O9 0.500000 0.728359 0.301090
O O10 0.403278 0.724872 0.919611
O O11 0.250000 0.750000 0.000000
O O12 0.400151 0.665081 0.055253
O O13 0.250000 0.562579 0.250000
O O14 0.404199 0.479755 0.225404
O O15 0.000000 0.130355 0.836290
#
# Coordination Sequence:
#
# PCOD8262694 Si02
#       8
#    16   8   8  16  16   8   8   8
#     4  11  24  40  68  98 130 174 220 265 331 391
#     4  10  19  40  64  97 130 169 208 279 311 387
#     4  11  26  41  68  97 131 179 216 281 327 389
#     4  11  25  42  65  98 135 170 217 271 330 400
#     4  10  23  42  65  94 130 167 221 270 317 390
#     4   9  19  41  63  90 126 167 219 259 323 379
#     4  11  23  43  64  95 145 166 219 276 339 386
#     4  11  24  43  68  92 129 174 219 267 331 388
#
# _framework density 20.431540999999999
#
# number of rings (size 3 to 8) (size 9 to 14) (size 15 to 20)
#    0.000    1.455    2.727    1.909    5.091    0.000 
#    0.000    3.636    0.000    0.000    0.000    0.000 
#    0.000    0.000    0.000    0.000    0.000    0.000 
#
# Total GULP energy -545528.385812 kJ/mol
# GULP energy per Si atom -12398.372405 kJ/mol
# Density = 2.038504 g / cm^3
# Si number density = 20.431541 Si / 1000 Ang^3
#
#
#
# Elastic Constant Matrix: (Units=GPa)
#
#
# Indices 1 2 3 4 5 6 
#
# 1 136.8168 30.5497 37.2807 0.0000 0.0000 0.0000
# 2 30.5497 82.4769 19.8259 0.0000 0.0000 0.0000
# 3 37.2807 19.8259 71.0933 0.0000 0.0000 0.0000
# 4 0.0000 0.0000 0.0000 39.2102 0.0000 0.0000
# 5 0.0000 0.0000 0.0000 0.0000 18.8171 0.0000
# 6 0.0000 0.0000 0.0000 0.0000 0.0000 -57.3911
#
#
#
# Elastic Compliance Matrix: (Units=1/GPa)
#
#
# Indices 1 2 3 4 5 6 
#
# 1 0.008929 -0.002339 -0.004030 0.000000 0.000000 0.000000
# 2 -0.002339 0.013608 -0.002569 0.000000 0.000000 0.000000
# 3 -0.004030 -0.002569 0.016896 0.000000 0.000000 0.000000
# 4 0.000000 0.000000 0.000000 0.025504 0.000000 0.000000
# 5 0.000000 0.000000 0.000000 0.000000 0.053143 0.000000
# 6 0.000000 0.000000 0.000000 0.000000 0.000000 -0.017424
#
#
# Mechanical properties :
#
#
# Convention : Reuss Voigt Hill
#
# Bulk Modulus (GPa) = 46.38576 51.74443 49.06509
# Shear Modulus (GPa) = 39.77178 13.64262 26.70720
#
# Velocity S-wave (km/s) = 4.41680 2.58684 3.61938
# Velocity P-wave (km/s) = 6.98306 5.85688 6.44462
#
# Compressibility (1/GPa) = 0.02155834
#
# Stress axis : x y z
#
# Youngs Moduli (GPa) = 111.98890 73.48456 59.18634
#
# Poissons Ratio (x) = 0.17186 0.23854
# Poissons Ratio (y) = 0.26191 0.15203
# Poissons Ratio (z) = 0.45135 0.18875
#
# Static dielectric constant tensor:
#      x y z
#    x 4.131010 0.000000 0.000000 
#    y 0.000000 3.735730 0.000000 
#    z 0.000000 0.000000 5.095020 
# 
# 
# High freq. dielectric constant tensor:
#      x y z
#    x 1.813420 0.000000 0.000000 
#    y 0.000000 1.803460 0.000000 
#    z 0.000000 0.000000 1.789810 
# 
# From -- ./inp_files/32235.got.cif
#   From: 2010.03.12/outbox.cif.g09.slc.cpg/sg64_17_cif.got.tgz:32235.got - 2010.04.10 20:19:32.
