data_PCOD8262942
_publ_section_title
;
Structure prediction by ZEFSAII (Michael W. Deem and Ramdas Pophale) SiO2 
 PCOD8262942
Probable space group: C M C A
;
_chemical_formula_sum "Si O2"
_cell_formula_units_Z 88
_cell_length_a 9.053122
_cell_length_b 22.917272
_cell_length_c 20.722312
_cell_angle_alpha 90.000000
_cell_angle_beta 90.000000
_cell_angle_gamma 90.000000
_cell_volume 4299.317322
_symmetry_space_group_name_H-M "C M C A"
_symmetry_group_IT_number 64
_symmetry_cell_setting 'orthorhombic'
loop_
_space_group_symop_operation_xyz
x,y,z
-x,1/2-y,1/2+z
x,-y,-z
-x,1/2+y,1/2-z
-x,-y,-z
x,1/2+y,1/2-z
-x,y,z
x,1/2-y,1/2+z
1/2+x,1/2+y,z
1/2-x,-y,1/2+z
1/2+x,1/2-y,-z
1/2-x,y,1/2-z
1/2-x,1/2-y,-z
1/2+x,y,1/2-z
1/2-x,1/2+y,z
1/2+x,-y,1/2+z
loop_
_atom_site_type_symbol
_atom_site_label
_atom_site_fract_x
_atom_site_fract_y
_atom_site_fract_z
Si Si1 0.834421 0.821790 0.346066
Si Si2 0.827191 0.389313 0.449545
Si Si3 0.824429 0.794073 0.686618
Si Si4 0.664191 0.992504 0.365356
Si Si5 0.672309 0.383818 0.899440
Si Si6 0.750000 0.417887 0.250000
O O1 0.765093 0.838229 0.415209
O O2 0.729801 0.772420 0.316823
O O3 0.845856 0.876717 0.296937
O O4 0.000000 0.797774 0.356686
O O5 0.765526 0.450056 0.419404
O O6 0.797978 0.388424 0.524804
O O7 0.000000 0.381069 0.432082
O O8 0.750000 0.822931 0.750000
O O9 0.769808 0.830053 0.624950
O O10 0.000000 0.795381 0.692246
O O11 0.500000 0.006019 0.389508
O O12 0.656888 0.961491 0.295459
O O13 0.737482 0.056932 0.365854
O O14 0.500000 0.372003 0.883972
#
# Coordination Sequence:
#
# PCOD8262942 Si02
#       6
#    16  16  16  16  16   8
#     4  11  22  38  63  90 120 156 201 254 305 356
#     4   9  19  37  62  91 123 162 204 246 296 351
#     4  12  26  43  63  87 120 159 200 249 303 360
#     4   9  18  34  59  89 122 161 203 245 295 354
#     4  10  21  39  62  89 124 164 203 245 295 356
#     4  10  20  34  58  90 122 156 198 254 306 354
#
# _framework density 20.468364999999999
#
# number of rings (size 3 to 8) (size 9 to 14) (size 15 to 20)
#    0.000    1.818    0.909    3.273    1.273    5.091 
#    0.000    3.636    0.000    5.455    0.000    0.000 
#    0.000    0.000    0.000    0.000    0.000    0.000 
#
# Total GULP energy -545386.851069 kJ/mol
# GULP energy per Si atom -12395.155706 kJ/mol
# Density = 2.042178 g / cm^3
# Si number density = 20.468365 Si / 1000 Ang^3
#
#
#
# Elastic Constant Matrix: (Units=GPa)
#
#
# Indices 1 2 3 4 5 6 
#
# 1 116.0205 39.1866 42.8442 0.0000 0.0000 0.0000
# 2 39.1866 93.1913 60.0045 0.0000 0.0000 0.0000
# 3 42.8442 60.0045 118.1167 0.0000 0.0000 0.0000
# 4 0.0000 0.0000 0.0000 27.5805 0.0000 0.0000
# 5 0.0000 0.0000 0.0000 0.0000 25.7760 0.0000
# 6 0.0000 0.0000 0.0000 0.0000 0.0000 23.0374
#
#
#
# Elastic Compliance Matrix: (Units=1/GPa)
#
#
# Indices 1 2 3 4 5 6 
#
# 1 0.010456 -0.002905 -0.002317 0.000000 0.000000 0.000000
# 2 -0.002905 0.016754 -0.007457 0.000000 0.000000 0.000000
# 3 -0.002317 -0.007457 0.013095 0.000000 0.000000 0.000000
# 4 0.000000 0.000000 0.000000 0.036258 0.000000 0.000000
# 5 0.000000 0.000000 0.000000 0.000000 0.038796 0.000000
# 6 0.000000 0.000000 0.000000 0.000000 0.000000 0.043408
#
#
# Mechanical properties :
#
#
# Convention : Reuss Voigt Hill
#
# Bulk Modulus (GPa) = 66.90601 67.93325 67.41963
# Shear Modulus (GPa) = 26.44014 27.63165 27.03589
#
# Velocity S-wave (km/s) = 3.59800 3.67818 3.63831
# Velocity P-wave (km/s) = 7.07243 7.16241 7.11756
#
# Compressibility (1/GPa) = 0.01494634
#
# Stress axis : x y z
#
# Youngs Moduli (GPa) = 95.63983 59.68790 76.36446
#
# Poissons Ratio (x) = 0.17338 0.17693
# Poissons Ratio (y) = 0.27781 0.56948
# Poissons Ratio (z) = 0.22160 0.44512
#
# Static dielectric constant tensor:
#      x y z
#    x 3.424680 0.000000 0.000000 
#    y 0.000000 3.809410 0.000000 
#    z 0.000000 0.000000 3.710060 
# 
# 
# High freq. dielectric constant tensor:
#      x y z
#    x 1.773610 0.000000 0.000000 
#    y 0.000000 1.805240 0.000000 
#    z 0.000000 0.000000 1.805600 
# 
# From -- ./inp_files/36755.got.cif
#   From: 2010.03.12/outbox.cif.g09.slc.cpg/sg64_19_cif.got.tgz:36755.got - 2010.04.10 20:19:32.
