data_PCOD8262240
_publ_section_title
;
Structure prediction by ZEFSAII (Michael W. Deem and Ramdas Pophale) SiO2 
 PCOD8262240
Probable space group: C M C A
;
_chemical_formula_sum "Si O2"
_cell_formula_units_Z 96
_cell_length_a 20.852488
_cell_length_b 27.340474
_cell_length_c 9.023135
_cell_angle_alpha 90.000000
_cell_angle_beta 90.000000
_cell_angle_gamma 90.000000
_cell_volume 5144.241809
_symmetry_space_group_name_H-M "C M C A"
_symmetry_group_IT_number 64
_symmetry_cell_setting 'orthorhombic'
loop_
_space_group_symop_operation_xyz
x,y,z
-x,1/2-y,1/2+z
x,-y,-z
-x,1/2+y,1/2-z
-x,-y,-z
x,1/2+y,1/2-z
-x,y,z
x,1/2-y,1/2+z
1/2+x,1/2+y,z
1/2-x,-y,1/2+z
1/2+x,1/2-y,-z
1/2-x,y,1/2-z
1/2-x,1/2-y,-z
1/2+x,y,1/2-z
1/2-x,1/2+y,z
1/2+x,-y,1/2+z
loop_
_atom_site_type_symbol
_atom_site_label
_atom_site_fract_x
_atom_site_fract_y
_atom_site_fract_z
Si Si1 0.924442 0.413981 0.345097
Si Si2 0.575699 0.995543 0.835945
Si Si3 0.573771 0.809025 0.266487
Si Si4 0.360930 0.746686 0.517099
Si Si5 0.180850 0.182737 0.260276
Si Si6 0.424089 0.395627 0.821973
O O1 0.893618 0.461919 0.267738
O O2 0.903859 0.365633 0.253658
O O3 0.900790 0.408719 0.513418
O O4 0.000000 0.421040 0.348244
O O5 0.500000 0.003423 0.841382
O O6 0.592746 0.942258 0.776704
O O7 0.605306 0.000000 0.000000
O O8 0.500000 0.806979 0.306850
O O9 0.585517 0.782079 0.111821
O O10 0.607749 0.785208 0.406883
O O11 0.316483 0.775166 0.634210
O O12 0.321853 0.706909 0.422990
O O13 0.250000 0.155073 0.250000
O O14 0.118618 0.148898 0.238574
O O15 0.500000 0.381566 0.813528
#
# Coordination Sequence:
#
# PCOD8262240 Si02
#       6
#    16  16  16  16  16  16
#     4   9  17  31  51  79 115 149 179 220 275 334
#     4   9  18  31  52  82 114 145 181 226 278 334
#     4  10  19  32  53  85 120 145 179 233 289 331
#     4  10  22  36  54  79 109 154 194 228 275 340
#     4  11  23  40  59  81 112 153 192 234 278 337
#     4  10  20  35  57  84 111 145 186 232 282 334
#
# _framework density 18.661642000000001
#
# number of rings (size 3 to 8) (size 9 to 14) (size 15 to 20)
#    0.000    2.167    1.667    1.500    2.333    5.333 
#    0.000    0.000    0.000    2.000    0.000    0.000 
#    0.000    0.000    0.000    0.000    0.000    0.000 
#
# Total GULP energy -594958.384050 kJ/mol
# GULP energy per Si atom -12394.966334 kJ/mol
# Density = 1.861917 g / cm^3
# Si number density = 18.661642 Si / 1000 Ang^3
#
#
#
# Elastic Constant Matrix: (Units=GPa)
#
#
# Indices 1 2 3 4 5 6 
#
# 1 58.4120 28.1820 17.3885 0.0000 0.0000 0.0000
# 2 28.1820 68.7848 23.6641 0.0000 0.0000 0.0000
# 3 17.3885 23.6641 87.3711 0.0000 0.0000 0.0000
# 4 0.0000 0.0000 0.0000 24.3852 0.0000 0.0000
# 5 0.0000 0.0000 0.0000 0.0000 7.1888 0.0000
# 6 0.0000 0.0000 0.0000 0.0000 0.0000 8.9486
#
#
#
# Elastic Compliance Matrix: (Units=1/GPa)
#
#
# Indices 1 2 3 4 5 6 
#
# 1 0.021683 -0.008160 -0.002105 0.000000 0.000000 0.000000
# 2 -0.008160 0.019102 -0.003550 0.000000 0.000000 0.000000
# 3 -0.002105 -0.003550 0.012826 0.000000 0.000000 0.000000
# 4 0.000000 0.000000 0.000000 0.041008 0.000000 0.000000
# 5 0.000000 0.000000 0.000000 0.000000 0.139105 0.000000
# 6 0.000000 0.000000 0.000000 0.000000 0.000000 0.111749
#
#
# Mechanical properties :
#
#
# Convention : Reuss Voigt Hill
#
# Bulk Modulus (GPa) = 38.48837 39.22634 38.85736
# Shear Modulus (GPa) = 13.09708 17.79342 15.44525
#
# Velocity S-wave (km/s) = 2.65206 3.09119 2.88001
# Velocity P-wave (km/s) = 5.48151 5.81429 5.65035
#
# Compressibility (1/GPa) = 0.02598187
#
# Stress axis : x y z
#
# Youngs Moduli (GPa) = 46.11855 52.34927 77.96711
#
# Poissons Ratio (x) = 0.42715 0.16415
# Poissons Ratio (y) = 0.37631 0.27678
# Poissons Ratio (z) = 0.09710 0.18584
#
# Static dielectric constant tensor:
#      x y z
#    x 2.946090 0.000000 0.000000 
#    y 0.000000 3.651560 0.000000 
#    z 0.000000 0.000000 3.719790 
# 
# 
# High freq. dielectric constant tensor:
#      x y z
#    x 1.670700 0.000000 0.000000 
#    y 0.000000 1.730820 0.000000 
#    z 0.000000 0.000000 1.741770 
# 
# From -- ./inp_files/8387.got.cif
#   From: 2010.03.12/outbox.cif.g09.slc.cpg/sg64_5_cif.got.tgz:8387.got - 2010.04.10 20:19:32.
