data_PCOD8262146
_publ_section_title
;
Structure prediction by ZEFSAII (Michael W. Deem and Ramdas Pophale) SiO2 
 PCOD8262146
Probable space group: C M C A
;
_chemical_formula_sum "Si O2"
_cell_formula_units_Z 112
_cell_length_a 14.987367
_cell_length_b 13.733583
_cell_length_c 29.538572
_cell_angle_alpha 90.000000
_cell_angle_beta 90.000000
_cell_angle_gamma 90.000000
_cell_volume 6079.931619
_symmetry_space_group_name_H-M "C M C A"
_symmetry_group_IT_number 64
_symmetry_cell_setting 'orthorhombic'
loop_
_space_group_symop_operation_xyz
x,y,z
-x,1/2-y,1/2+z
x,-y,-z
-x,1/2+y,1/2-z
-x,-y,-z
x,1/2+y,1/2-z
-x,y,z
x,1/2-y,1/2+z
1/2+x,1/2+y,z
1/2-x,-y,1/2+z
1/2+x,1/2-y,-z
1/2-x,y,1/2-z
1/2-x,1/2-y,-z
1/2+x,y,1/2-z
1/2-x,1/2+y,z
1/2+x,-y,1/2+z
loop_
_atom_site_type_symbol
_atom_site_label
_atom_site_fract_x
_atom_site_fract_y
_atom_site_fract_z
Si Si1 0.731746 0.779794 0.635224
Si Si2 0.397160 0.488526 0.326591
Si Si3 0.099157 0.783550 0.298377
Si Si4 0.108317 0.710621 0.019252
Si Si5 0.664552 0.826209 0.781124
Si Si6 0.756040 0.851412 0.445096
Si Si7 0.193735 0.444920 0.917587
O O1 0.646029 0.791148 0.667184
O O2 0.816300 0.780373 0.669409
O O3 0.732276 0.680234 0.606998
O O4 0.731110 0.870385 0.600432
O O5 0.500000 0.475171 0.336141
O O6 0.356313 0.390253 0.304297
O O7 0.383161 0.571422 0.289081
O O8 0.354956 0.508590 0.375057
O O9 0.102457 0.748839 0.246280
O O10 0.000000 0.787471 0.315645
O O11 0.161114 0.807745 0.036991
O O12 0.124384 0.618026 0.052210
O O13 0.000000 0.728239 0.014581
O O14 0.156017 0.686241 0.971725
O O15 0.750000 0.844379 0.750000
O O16 0.757472 0.969704 0.446413
#
# Coordination Sequence:
#
# PCOD8262146 Si02
#       7
#    16  16  16  16  16  16  16
#     4   9  19  35  52  78 104 145 183 226 279 335
#     4  10  19  31  52  78 102 136 180 229 276 324
#     4  10  19  33  51  75 109 140 179 229 279 334
#     4  10  22  37  59  89 118 151 193 241 290 346
#     4   9  19  33  49  71 100 139 179 222 270 333
#     4  10  20  37  58  83 119 150 187 239 291 346
#     4  10  19  35  58  82 112 146 188 234 282 338
#
# _framework density 18.42126
#
# number of rings (size 3 to 8) (size 9 to 14) (size 15 to 20)
#    0.000    2.286    1.429    1.286    0.000    4.000 
#    2.571    1.429    0.000   11.143    0.000    0.000 
#    0.000    0.000    0.000    0.000    0.000    0.000 
#
# Total GULP energy -693785.551884 kJ/mol
# GULP energy per Si atom -12389.027712 kJ/mol
# Density = 1.837933 g / cm^3
# Si number density = 18.421260 Si / 1000 Ang^3
#
#
#
# Elastic Constant Matrix: (Units=GPa)
#
#
# Indices 1 2 3 4 5 6 
#
# 1 89.7911 43.7894 27.8690 0.0000 0.0000 0.0000
# 2 43.7894 88.7789 35.6696 0.0000 0.0000 0.0000
# 3 27.8690 35.6696 87.7329 0.0000 0.0000 0.0000
# 4 0.0000 0.0000 0.0000 30.5848 0.0000 0.0000
# 5 0.0000 0.0000 0.0000 0.0000 9.4202 0.0000
# 6 0.0000 0.0000 0.0000 0.0000 0.0000 22.7709
#
#
#
# Elastic Compliance Matrix: (Units=1/GPa)
#
#
# Indices 1 2 3 4 5 6 
#
# 1 0.014980 -0.006546 -0.002097 0.000000 0.000000 0.000000
# 2 -0.006546 0.016324 -0.004557 0.000000 0.000000 0.000000
# 3 -0.002097 -0.004557 0.013917 0.000000 0.000000 0.000000
# 4 0.000000 0.000000 0.000000 0.032696 0.000000 0.000000
# 5 0.000000 0.000000 0.000000 0.000000 0.106155 0.000000
# 6 0.000000 0.000000 0.000000 0.000000 0.000000 0.043916
#
#
# Mechanical properties :
#
#
# Convention : Reuss Voigt Hill
#
# Bulk Modulus (GPa) = 53.13486 53.43986 53.28736
# Shear Modulus (GPa) = 19.18186 23.15351 21.16768
#
# Velocity S-wave (km/s) = 3.23040 3.54911 3.39350
# Velocity P-wave (km/s) = 6.54377 6.77258 6.65916
#
# Compressibility (1/GPa) = 0.01882004
#
# Stress axis : x y z
#
# Youngs Moduli (GPa) = 66.75400 61.25983 71.85331
#
# Poissons Ratio (x) = 0.40103 0.15068
# Poissons Ratio (y) = 0.43700 0.32746
# Poissons Ratio (z) = 0.13999 0.27918
#
# Static dielectric constant tensor:
#      x y z
#    x 3.232770 0.000000 0.000000 
#    y 0.000000 3.654520 0.000000 
#    z 0.000000 0.000000 3.547320 
# 
# 
# High freq. dielectric constant tensor:
#      x y z
#    x 1.690300 0.000000 0.000000 
#    y 0.000000 1.715740 0.000000 
#    z 0.000000 0.000000 1.728120 
# 
# From -- ./inp_files/53374.got.cif
#   From: 2010.03.12/outbox.cif.g09.slc.cpg/sg64_27_cif.got.tgz:53374.got - 2010.04.10 20:19:32.
