data_PCOD8262935
_publ_section_title
;
Structure prediction by ZEFSAII (Michael W. Deem and Ramdas Pophale) SiO2 
 PCOD8262935
Probable space group: C M C A
;
_chemical_formula_sum "Si O2"
_cell_formula_units_Z 128
_cell_length_a 19.356696
_cell_length_b 18.838475
_cell_length_c 17.805455
_cell_angle_alpha 90.000000
_cell_angle_beta 90.000000
_cell_angle_gamma 90.000000
_cell_volume 6492.770449
_symmetry_space_group_name_H-M "C M C A"
_symmetry_group_IT_number 64
_symmetry_cell_setting 'orthorhombic'
loop_
_space_group_symop_operation_xyz
x,y,z
-x,1/2-y,1/2+z
x,-y,-z
-x,1/2+y,1/2-z
-x,-y,-z
x,1/2+y,1/2-z
-x,y,z
x,1/2-y,1/2+z
1/2+x,1/2+y,z
1/2-x,-y,1/2+z
1/2+x,1/2-y,-z
1/2-x,y,1/2-z
1/2-x,1/2-y,-z
1/2+x,y,1/2-z
1/2-x,1/2+y,z
1/2+x,-y,1/2+z
loop_
_atom_site_type_symbol
_atom_site_label
_atom_site_fract_x
_atom_site_fract_y
_atom_site_fract_z
Si Si1 0.922618 0.624706 0.348718
Si Si2 0.271547 0.832934 0.057677
Si Si3 0.421749 0.164762 0.620758
Si Si4 0.699209 0.749678 0.320622
Si Si5 0.766610 0.535964 0.834026
Si Si6 0.129684 0.990747 0.086002
Si Si7 0.175480 0.597531 0.213167
Si Si8 0.144299 0.209201 0.024218
O O1 0.924702 0.552978 0.397256
O O2 0.886779 0.607154 0.270371
O O3 0.882678 0.686346 0.393919
O O4 0.000000 0.650838 0.332568
O O5 0.243277 0.768271 0.107557
O O6 0.288207 0.901888 0.107716
O O7 0.338839 0.794304 0.023589
O O8 0.209276 0.843783 0.997641
O O9 0.500000 0.174792 0.649977
O O10 0.368600 0.198766 0.682073
O O11 0.405294 0.082458 0.609466
O O12 0.414340 0.201644 0.539321
O O13 0.750000 0.758273 0.250000
O O14 0.675027 0.668980 0.335671
O O15 0.750000 0.566967 0.750000
O O16 0.698030 0.497588 0.864321
O O17 0.829175 0.477000 0.833684
O O18 0.150787 0.000000 0.000000
O O19 0.250000 0.587771 0.250000
#
# Coordination Sequence:
#
# PCOD8262935 Si02
#       8
#    16  16  16  16  16  16  16  16
#     4  12  23  36  56  86 122 159 195 239 302 365
#     4  10  20  34  58  86 114 151 197 249 297 347
#     4  11  23  37  57  84 115 157 194 235 301 363
#     4  10  20  36  57  82 114 152 193 248 287 342
#     4  11  20  37  61  88 118 152 199 253 297 352
#     4  12  22  37  58  90 121 156 195 244 298 367
#     4  10  21  37  60  82 113 154 201 241 292 349
#     4  10  20  36  55  83 120 153 192 242 297 351
#
# _framework density 19.714234999999999
#
# number of rings (size 3 to 8) (size 9 to 14) (size 15 to 20)
#    0.000    1.250    6.250    2.625    0.000    1.000 
#    2.250    0.000    0.000    1.500    0.000    0.875 
#    0.000    0.000    0.000    0.000    0.000    0.125 
#
# Total GULP energy -792964.820483 kJ/mol
# GULP energy per Si atom -12390.075320 kJ/mol
# Density = 1.966936 g / cm^3
# Si number density = 19.714235 Si / 1000 Ang^3
#
#
#
# Elastic Constant Matrix: (Units=GPa)
#
#
# Indices 1 2 3 4 5 6 
#
# 1 98.9450 37.1870 39.1225 0.0000 0.0000 0.0000
# 2 37.1870 109.0809 27.7259 0.0000 0.0000 0.0000
# 3 39.1225 27.7259 56.5107 0.0000 0.0000 0.0000
# 4 0.0000 0.0000 0.0000 31.3721 0.0000 0.0000
# 5 0.0000 0.0000 0.0000 0.0000 23.1858 0.0000
# 6 0.0000 0.0000 0.0000 0.0000 0.0000 12.5347
#
#
#
# Elastic Compliance Matrix: (Units=1/GPa)
#
#
# Indices 1 2 3 4 5 6 
#
# 1 0.014605 -0.002752 -0.008761 0.000000 0.000000 0.000000
# 2 -0.002752 0.010992 -0.003488 0.000000 0.000000 0.000000
# 3 -0.008761 -0.003488 0.025472 0.000000 0.000000 0.000000
# 4 0.000000 0.000000 0.000000 0.031875 0.000000 0.000000
# 5 0.000000 0.000000 0.000000 0.000000 0.043130 0.000000
# 6 0.000000 0.000000 0.000000 0.000000 0.000000 0.079778
#
#
# Mechanical properties :
#
#
# Convention : Reuss Voigt Hill
#
# Bulk Modulus (GPa) = 47.46574 52.51193 49.98883
# Shear Modulus (GPa) = 20.58653 24.11860 22.35257
#
# Velocity S-wave (km/s) = 3.23499 3.50152 3.37089
# Velocity P-wave (km/s) = 6.17112 6.56064 6.36885
#
# Compressibility (1/GPa) = 0.02106783
#
# Stress axis : x y z
#
# Youngs Moduli (GPa) = 68.46981 90.97280 39.25873
#
# Poissons Ratio (x) = 0.25038 0.34394
# Poissons Ratio (y) = 0.18845 0.13693
# Poissons Ratio (z) = 0.59985 0.31729
#
# Static dielectric constant tensor:
#      x y z
#    x 3.394840 0.000000 0.000000 
#    y 0.000000 3.913530 0.000000 
#    z 0.000000 0.000000 3.700100 
# 
# 
# High freq. dielectric constant tensor:
#      x y z
#    x 1.734550 0.000000 0.000000 
#    y 0.000000 1.777180 0.000000 
#    z 0.000000 0.000000 1.760790 
# 
# From -- ./inp_files/34684.got.cif
#   From: 2010.03.12/outbox.cif.g09.slc.cpg/sg64_18_cif.got.tgz:34684.got - 2010.04.10 20:19:32.
