data_PCOD8262340
_publ_section_title
;
Structure prediction by ZEFSAII (Michael W. Deem and Ramdas Pophale) SiO2 
 PCOD8262340
Probable space group: C M C A
;
_chemical_formula_sum "Si O2"
_cell_formula_units_Z 96
_cell_length_a 8.763840
_cell_length_b 22.058311
_cell_length_c 23.339810
_cell_angle_alpha 90.000000
_cell_angle_beta 90.000000
_cell_angle_gamma 90.000000
_cell_volume 4511.947233
_symmetry_space_group_name_H-M "C M C A"
_symmetry_group_IT_number 64
_symmetry_cell_setting 'orthorhombic'
loop_
_space_group_symop_operation_xyz
x,y,z
-x,1/2-y,1/2+z
x,-y,-z
-x,1/2+y,1/2-z
-x,-y,-z
x,1/2+y,1/2-z
-x,y,z
x,1/2-y,1/2+z
1/2+x,1/2+y,z
1/2-x,-y,1/2+z
1/2+x,1/2-y,-z
1/2-x,y,1/2-z
1/2-x,1/2-y,-z
1/2+x,y,1/2-z
1/2-x,1/2+y,z
1/2+x,-y,1/2+z
loop_
_atom_site_type_symbol
_atom_site_label
_atom_site_fract_x
_atom_site_fract_y
_atom_site_fract_z
Si Si1 0.179858 0.600700 0.912118
Si Si2 0.178622 0.975400 0.911067
Si Si3 0.675064 0.789152 0.879701
Si Si4 0.181144 0.329638 0.313110
Si Si5 0.678283 0.854629 0.520667
Si Si6 0.323897 0.088878 0.188801
O O1 0.233035 0.534460 0.933333
O O2 0.256999 0.614449 0.850738
O O3 0.000000 0.603836 0.905753
O O4 0.236080 0.649282 0.959689
O O5 0.222375 0.918778 0.950832
O O6 0.232854 0.961378 0.846886
O O7 0.000000 0.989200 0.912731
O O8 0.500000 0.780148 0.897403
O O9 0.737616 0.731163 0.845383
O O10 0.768473 0.799759 0.938335
O O11 0.698144 0.845177 0.837629
O O12 0.250000 0.332485 0.250000
O O13 0.000000 0.332525 0.308127
O O14 0.500000 0.848331 0.509445
O O15 0.500000 0.069765 0.191779
O O16 0.250000 0.090331 0.250000
#
# Coordination Sequence:
#
# PCOD8262340 Si02
#       6
#    16  16  16  16  16  16
#     4  12  25  40  60  86 118 157 197 238 288 346
#     4  10  21  38  59  85 117 153 194 240 292 347
#     4   9  20  38  61  88 118 152 191 239 292 346
#     4  11  24  43  64  87 118 156 198 241 288 343
#     4  10  21  38  63  92 120 151 190 239 292 345
#     4  10  19  33  55  85 117 150 192 240 292 346
#
# _framework density 21.276844000000001
#
# number of rings (size 3 to 8) (size 9 to 14) (size 15 to 20)
#    0.000    1.667    0.000    4.500    0.000    7.333 
#    0.000    3.333    0.000    0.000    0.000    0.000 
#    0.000    0.000    0.000    0.000    0.000    0.000 
#
# Total GULP energy -595428.038977 kJ/mol
# GULP energy per Si atom -12404.750812 kJ/mol
# Density = 2.122842 g / cm^3
# Si number density = 21.276844 Si / 1000 Ang^3
#
#
#
# Elastic Constant Matrix: (Units=GPa)
#
#
# Indices 1 2 3 4 5 6 
#
# 1 93.1153 18.1646 59.0771 0.0000 0.0000 0.0000
# 2 18.1646 41.7539 21.5789 0.0000 0.0000 0.0000
# 3 59.0771 21.5789 112.9013 0.0000 0.0000 0.0000
# 4 0.0000 0.0000 0.0000 28.9535 0.0000 0.0000
# 5 0.0000 0.0000 0.0000 0.0000 41.9097 0.0000
# 6 0.0000 0.0000 0.0000 0.0000 0.0000 29.9840
#
#
#
# Elastic Compliance Matrix: (Units=1/GPa)
#
#
# Indices 1 2 3 4 5 6 
#
# 1 0.016408 -0.002997 -0.008013 0.000000 0.000000 0.000000
# 2 -0.002997 0.027122 -0.003616 0.000000 0.000000 0.000000
# 3 -0.008013 -0.003616 0.013741 0.000000 0.000000 0.000000
# 4 0.000000 0.000000 0.000000 0.034538 0.000000 0.000000
# 5 0.000000 0.000000 0.000000 0.000000 0.023861 0.000000
# 6 0.000000 0.000000 0.000000 0.000000 0.000000 0.033351
#
#
# Mechanical properties :
#
#
# Convention : Reuss Voigt Hill
#
# Bulk Modulus (GPa) = 35.68831 49.49017 42.58924
# Shear Modulus (GPa) = 26.65073 30.09942 28.37507
#
# Velocity S-wave (km/s) = 3.54301 3.76527 3.65583
# Velocity P-wave (km/s) = 5.79197 6.49720 6.15470
#
# Compressibility (1/GPa) = 0.02802038
#
# Stress axis : x y z
#
# Youngs Moduli (GPa) = 60.94709 36.87002 72.77417
#
# Poissons Ratio (x) = 0.11050 0.58312
# Poissons Ratio (y) = 0.18265 0.26313
# Poissons Ratio (z) = 0.48835 0.13331
#
# Static dielectric constant tensor:
#      x y z
#    x 3.815590 0.000000 0.000000 
#    y 0.000000 3.985730 0.000000 
#    z 0.000000 0.000000 3.911420 
# 
# 
# High freq. dielectric constant tensor:
#      x y z
#    x 1.837740 0.000000 0.000000 
#    y 0.000000 1.831440 0.000000 
#    z 0.000000 0.000000 1.845880 
# 
# From -- ./inp_files/43063.got.cif
#   From: 2010.03.12/outbox.cif.g09.slc.cpg/sg64_22_cif.got.tgz:43063.got - 2010.04.10 20:19:32.
