data_PCOD8262655
_publ_section_title
;
Structure prediction by ZEFSAII (Michael W. Deem and Ramdas Pophale) SiO2 
 PCOD8262655
Probable space group: C M C A
;
_chemical_formula_sum "Si O2"
_cell_formula_units_Z 112
_cell_length_a 18.494321
_cell_length_b 13.479402
_cell_length_c 22.453473
_cell_angle_alpha 90.000000
_cell_angle_beta 90.000000
_cell_angle_gamma 90.000000
_cell_volume 5597.479891
_symmetry_space_group_name_H-M "C M C A"
_symmetry_group_IT_number 64
_symmetry_cell_setting 'orthorhombic'
loop_
_space_group_symop_operation_xyz
x,y,z
-x,1/2-y,1/2+z
x,-y,-z
-x,1/2+y,1/2-z
-x,-y,-z
x,1/2+y,1/2-z
-x,y,z
x,1/2-y,1/2+z
1/2+x,1/2+y,z
1/2-x,-y,1/2+z
1/2+x,1/2-y,-z
1/2-x,y,1/2-z
1/2-x,1/2-y,-z
1/2+x,y,1/2-z
1/2-x,1/2+y,z
1/2+x,-y,1/2+z
loop_
_atom_site_type_symbol
_atom_site_label
_atom_site_fract_x
_atom_site_fract_y
_atom_site_fract_z
Si Si1 0.302251 0.896290 0.471242
Si Si2 0.080869 0.558928 0.261464
Si Si3 0.818388 0.010993 0.141405
Si Si4 0.653344 0.682544 0.475437
Si Si5 0.918311 0.387742 0.082363
Si Si6 0.580753 0.822177 0.629375
Si Si7 0.159353 0.567445 0.139558
O O1 0.305006 0.914955 0.399727
O O2 0.353044 0.801499 0.484684
O O3 0.223475 0.866570 0.494276
O O4 0.328073 0.000000 0.500000
O O5 0.134745 0.484549 0.298780
O O6 0.078623 0.662103 0.298644
O O7 0.108837 0.583495 0.196100
O O8 0.000000 0.512170 0.257387
O O9 0.862416 0.096348 0.103417
O O10 0.741773 0.057419 0.160979
O O11 0.586998 0.632453 0.511241
O O12 0.650237 0.660017 0.405254
O O13 0.892652 0.288460 0.116529
O O14 0.863372 0.471057 0.102817
O O15 0.000000 0.417670 0.098606
O O16 0.500000 0.839412 0.602394
#
# Coordination Sequence:
#
# PCOD8262655 Si02
#       7
#    16  16  16  16  16  16  16
#     4  11  20  38  62  90 125 165 209 273 323 376
#     4   9  21  41  63  87 126 168 213 269 322 379
#     4  10  19  37  64  90 122 159 211 267 316 383
#     4  11  24  37  59  95 132 166 212 261 332 378
#     4  11  22  39  62  90 129 175 215 251 320 397
#     4   8  19  39  63  87 119 166 214 263 313 378
#     4  12  22  37  61  95 127 170 209 264 321 383
#
# _framework density 20.009004000000001
#
# number of rings (size 3 to 8) (size 9 to 14) (size 15 to 20)
#    0.857    0.857    2.857    2.143    2.000    1.714 
#    2.571    1.429    3.143    3.857    0.000    0.000 
#    0.000    0.000    0.000    0.000    0.000    0.000 
#
# Total GULP energy -693803.152025 kJ/mol
# GULP energy per Si atom -12389.342000 kJ/mol
# Density = 1.996346 g / cm^3
# Si number density = 20.009004 Si / 1000 Ang^3
#
#
#
# Elastic Constant Matrix: (Units=GPa)
#
#
# Indices 1 2 3 4 5 6 
#
# 1 93.1857 28.9413 33.2177 0.0000 0.0000 0.0000
# 2 28.9413 87.8867 26.0253 0.0000 0.0000 0.0000
# 3 33.2177 26.0253 118.6606 0.0000 0.0000 0.0000
# 4 0.0000 0.0000 0.0000 17.6271 0.0000 0.0000
# 5 0.0000 0.0000 0.0000 0.0000 27.4995 0.0000
# 6 0.0000 0.0000 0.0000 0.0000 0.0000 18.9322
#
#
#
# Elastic Compliance Matrix: (Units=1/GPa)
#
#
# Indices 1 2 3 4 5 6 
#
# 1 0.012791 -0.003371 -0.002841 0.000000 0.000000 0.000000
# 2 -0.003371 0.013057 -0.001920 0.000000 0.000000 0.000000
# 3 -0.002841 -0.001920 0.009644 0.000000 0.000000 0.000000
# 4 0.000000 0.000000 0.000000 0.056731 0.000000 0.000000
# 5 0.000000 0.000000 0.000000 0.000000 0.036364 0.000000
# 6 0.000000 0.000000 0.000000 0.000000 0.000000 0.052820
#
#
# Mechanical properties :
#
#
# Convention : Reuss Voigt Hill
#
# Bulk Modulus (GPa) = 52.00924 52.90018 52.45471
# Shear Modulus (GPa) = 24.50013 26.91500 25.70756
#
# Velocity S-wave (km/s) = 3.50302 3.67160 3.58830
# Velocity P-wave (km/s) = 6.51236 6.66857 6.59093
#
# Compressibility (1/GPa) = 0.01922735
#
# Stress axis : x y z
#
# Youngs Moduli (GPa) = 78.18003 76.58811 103.69195
#
# Poissons Ratio (x) = 0.25815 0.29463
# Poissons Ratio (y) = 0.26352 0.19910
# Poissons Ratio (z) = 0.22214 0.14706
#
# Static dielectric constant tensor:
#      x y z
#    x 3.633510 0.000000 0.000000 
#    y 0.000000 3.499130 0.000000 
#    z 0.000000 0.000000 3.568960 
# 
# 
# High freq. dielectric constant tensor:
#      x y z
#    x 1.781380 0.000000 0.000000 
#    y 0.000000 1.757300 0.000000 
#    z 0.000000 0.000000 1.776480 
# 
# From -- ./inp_files/46341.got.cif
#   From: 2010.03.12/outbox.cif.g09.slc.cpg/sg64_24_cif.got.tgz:46341.got - 2010.04.10 20:19:32.
