data_PCOD8262420
_publ_section_title
;
Structure prediction by ZEFSAII (Michael W. Deem and Ramdas Pophale) SiO2 
 PCOD8262420
Probable space group: C M C A
;
_chemical_formula_sum "Si O2"
_cell_formula_units_Z 96
_cell_length_a 8.905077
_cell_length_b 29.756988
_cell_length_c 19.043057
_cell_angle_alpha 90.000000
_cell_angle_beta 90.000000
_cell_angle_gamma 90.000000
_cell_volume 5046.186719
_symmetry_space_group_name_H-M "C M C A"
_symmetry_group_IT_number 64
_symmetry_cell_setting 'orthorhombic'
loop_
_space_group_symop_operation_xyz
x,y,z
-x,1/2-y,1/2+z
x,-y,-z
-x,1/2+y,1/2-z
-x,-y,-z
x,1/2+y,1/2-z
-x,y,z
x,1/2-y,1/2+z
1/2+x,1/2+y,z
1/2-x,-y,1/2+z
1/2+x,1/2-y,-z
1/2-x,y,1/2-z
1/2-x,1/2-y,-z
1/2+x,y,1/2-z
1/2-x,1/2+y,z
1/2+x,-y,1/2+z
loop_
_atom_site_type_symbol
_atom_site_label
_atom_site_fract_x
_atom_site_fract_y
_atom_site_fract_z
Si Si1 0.322909 0.089219 0.064527
Si Si2 0.822279 0.482634 0.826024
Si Si3 0.322799 0.352474 0.177863
Si Si4 0.174598 0.810165 0.553671
Si Si5 0.326598 0.275482 0.398124
Si Si6 0.676206 0.071777 0.908809
O O1 0.500000 0.091823 0.070995
O O2 0.258870 0.059210 0.128333
O O3 0.260315 0.140078 0.069055
O O4 0.282021 0.065481 0.990681
O O5 0.750000 0.481433 0.750000
O O6 0.774779 0.527763 0.866364
O O7 0.000000 0.480071 0.817879
O O8 0.500000 0.352790 0.185189
O O9 0.250000 0.369379 0.250000
O O10 0.266278 0.302403 0.160316
O O11 0.271055 0.386157 0.117456
O O12 0.267859 0.775571 0.601171
O O13 0.201093 0.799501 0.472268
O O14 0.000000 0.805678 0.573114
O O15 0.500000 0.275593 0.376622
O O16 0.500000 0.082529 0.899481
#
# Coordination Sequence:
#
# PCOD8262420 Si02
#       6
#    16  16  16  16  16  16
#     4   9  17  34  59  85 109 145 193 236 276 329
#     4  10  21  36  57  81 112 150 188 230 281 338
#     4  12  24  37  55  81 115 152 189 231 288 344
#     4   9  17  32  56  82 110 142 183 231 277 327
#     4  10  19  34  55  81 112 145 184 228 278 333
#     4  10  19  36  59  84 110 142 189 239 285 334
#
# _framework density 19.024266000000001
#
# number of rings (size 3 to 8) (size 9 to 14) (size 15 to 20)
#    0.000    2.000    1.667    3.000    0.000    4.667 
#    0.000    2.500    0.000    4.000    0.000    0.000 
#    0.000    0.000    0.000    0.000    0.000    0.000 
#
# Total GULP energy -595271.097977 kJ/mol
# GULP energy per Si atom -12401.481208 kJ/mol
# Density = 1.898097 g / cm^3
# Si number density = 19.024266 Si / 1000 Ang^3
#
#
#
# Elastic Constant Matrix: (Units=GPa)
#
#
# Indices 1 2 3 4 5 6 
#
# 1 70.3621 39.4399 33.5204 0.0000 0.0000 0.0000
# 2 39.4399 142.0501 71.3995 0.0000 0.0000 0.0000
# 3 33.5204 71.3995 103.7228 0.0000 0.0000 0.0000
# 4 0.0000 0.0000 0.0000 22.4937 0.0000 0.0000
# 5 0.0000 0.0000 0.0000 0.0000 27.4916 0.0000
# 6 0.0000 0.0000 0.0000 0.0000 0.0000 27.3641
#
#
#
# Elastic Compliance Matrix: (Units=1/GPa)
#
#
# Indices 1 2 3 4 5 6 
#
# 1 0.017653 -0.003110 -0.003564 0.000000 0.000000 0.000000
# 2 -0.003110 0.011312 -0.006782 0.000000 0.000000 0.000000
# 3 -0.003564 -0.006782 0.015461 0.000000 0.000000 0.000000
# 4 0.000000 0.000000 0.000000 0.044457 0.000000 0.000000
# 5 0.000000 0.000000 0.000000 0.000000 0.036375 0.000000
# 6 0.000000 0.000000 0.000000 0.000000 0.000000 0.036544
#
#
# Mechanical properties :
#
#
# Convention : Reuss Voigt Hill
#
# Bulk Modulus (GPa) = 57.09481 67.20605 62.15043
# Shear Modulus (GPa) = 25.69994 26.92156 26.31075
#
# Velocity S-wave (km/s) = 3.67945 3.76588 3.72292
# Velocity P-wave (km/s) = 6.93742 7.36969 7.15682
#
# Compressibility (1/GPa) = 0.01751473
#
# Stress axis : x y z
#
# Youngs Moduli (GPa) = 56.64624 88.40183 64.67735
#
# Poissons Ratio (x) = 0.27492 0.23053
# Poissons Ratio (y) = 0.17616 0.43863
# Poissons Ratio (z) = 0.20191 0.59952
#
# Static dielectric constant tensor:
#      x y z
#    x 3.250130 0.000000 0.000000 
#    y 0.000000 3.763340 0.000000 
#    z 0.000000 0.000000 3.468730 
# 
# 
# High freq. dielectric constant tensor:
#      x y z
#    x 1.717130 0.000000 0.000000 
#    y 0.000000 1.750930 0.000000 
#    z 0.000000 0.000000 1.729730 
# 
# From -- ./inp_files/37033.got.cif
#   From: 2010.03.12/outbox.cif.g09.slc.cpg/sg64_19_cif.got.tgz:37033.got - 2010.04.10 20:19:32.
