data_PCOD8262041
_publ_section_title
;
Structure prediction by ZEFSAII (Michael W. Deem and Ramdas Pophale) SiO2 
 PCOD8262041
Probable space group: C M C A
;
_chemical_formula_sum "Si O2"
_cell_formula_units_Z 80
_cell_length_a 8.892324
_cell_length_b 24.892181
_cell_length_c 20.739409
_cell_angle_alpha 90.000000
_cell_angle_beta 90.000000
_cell_angle_gamma 90.000000
_cell_volume 4590.654463
_symmetry_space_group_name_H-M "C M C A"
_symmetry_group_IT_number 64
_symmetry_cell_setting 'orthorhombic'
loop_
_space_group_symop_operation_xyz
x,y,z
-x,1/2-y,1/2+z
x,-y,-z
-x,1/2+y,1/2-z
-x,-y,-z
x,1/2+y,1/2-z
-x,y,z
x,1/2-y,1/2+z
1/2+x,1/2+y,z
1/2-x,-y,1/2+z
1/2+x,1/2-y,-z
1/2-x,y,1/2-z
1/2-x,1/2-y,-z
1/2+x,y,1/2-z
1/2-x,1/2+y,z
1/2+x,-y,1/2+z
loop_
_atom_site_type_symbol
_atom_site_label
_atom_site_fract_x
_atom_site_fract_y
_atom_site_fract_z
Si Si1 0.326496 0.707559 0.588922
Si Si2 0.677058 0.627067 0.819285
Si Si3 0.326963 0.822041 0.542259
Si Si4 0.827150 0.573816 0.054790
Si Si5 0.826321 0.542492 0.908353
O O1 0.500000 0.691758 0.597959
O O2 0.232744 0.681572 0.646593
O O3 0.301945 0.771852 0.590322
O O4 0.274860 0.683980 0.520754
O O5 0.500000 0.629772 0.811862
O O6 0.750000 0.622583 0.750000
O O7 0.720938 0.574425 0.859673
O O8 0.500000 0.825631 0.520691
O O9 0.275667 0.876453 0.578559
O O10 0.785712 0.520771 0.095838
O O11 0.000000 0.588962 0.066032
O O12 0.794583 0.563152 0.979952
O O13 0.000000 0.551978 0.889877
#
# Coordination Sequence:
#
# PCOD8262041 Si02
#       5
#    16  16  16  16  16
#     4  10  20  34  50  73 107 140 173 214 259 309
#     4  12  24  37  55  77 103 139 178 218 259 306
#     4  10  19  30  50  79 108 137 170 213 262 309
#     4   9  17  30  52  77 108 141 167 208 263 311
#     4   9  18  33  51  76 106 139 174 210 258 309
#
# _framework density 17.42671
#
# number of rings (size 3 to 8) (size 9 to 14) (size 15 to 20)
#    0.000    2.000    2.000    4.200    0.000    3.200 
#    0.000    2.000    0.000    1.200    0.000    8.400 
#    0.000    0.000    0.000    0.000    0.000    0.000 
#
# Total GULP energy -496009.552189 kJ/mol
# GULP energy per Si atom -12400.238805 kJ/mol
# Density = 1.738705 g / cm^3
# Si number density = 17.426710 Si / 1000 Ang^3
#
#
#
# Elastic Constant Matrix: (Units=GPa)
#
#
# Indices 1 2 3 4 5 6 
#
# 1 121.4147 62.6124 46.2814 0.0000 0.0000 0.0000
# 2 62.6124 141.5960 33.0894 0.0000 0.0000 0.0000
# 3 46.2814 33.0894 67.6753 0.0000 0.0000 0.0000
# 4 0.0000 0.0000 0.0000 15.8938 0.0000 0.0000
# 5 0.0000 0.0000 0.0000 0.0000 25.0268 0.0000
# 6 0.0000 0.0000 0.0000 0.0000 0.0000 34.1224
#
#
#
# Elastic Compliance Matrix: (Units=1/GPa)
#
#
# Indices 1 2 3 4 5 6 
#
# 1 0.012984 -0.004139 -0.006856 0.000000 0.000000 0.000000
# 2 -0.004139 0.009293 -0.001713 0.000000 0.000000 0.000000
# 3 -0.006856 -0.001713 0.020302 0.000000 0.000000 0.000000
# 4 0.000000 0.000000 0.000000 0.062918 0.000000 0.000000
# 5 0.000000 0.000000 0.000000 0.000000 0.039957 0.000000
# 6 0.000000 0.000000 0.000000 0.000000 0.000000 0.029306
#
#
# Mechanical properties :
#
#
# Convention : Reuss Voigt Hill
#
# Bulk Modulus (GPa) = 58.26262 68.29470 63.27866
# Shear Modulus (GPa) = 24.28392 27.58880 25.93636
#
# Velocity S-wave (km/s) = 3.73700 3.98318 3.86205
# Velocity P-wave (km/s) = 7.21981 7.77361 7.50182
#
# Compressibility (1/GPa) = 0.01716366
#
# Stress axis : x y z
#
# Youngs Moduli (GPa) = 77.01722 107.60742 49.25544
#
# Poissons Ratio (x) = 0.44543 0.33767
# Poissons Ratio (y) = 0.31880 0.08437
# Poissons Ratio (z) = 0.52800 0.18433
#
# Static dielectric constant tensor:
#      x y z
#    x 3.262160 0.000000 0.000000 
#    y 0.000000 3.701650 0.000000 
#    z 0.000000 0.000000 2.921040 
# 
# 
# High freq. dielectric constant tensor:
#      x y z
#    x 1.681290 0.000000 0.000000 
#    y 0.000000 1.692900 0.000000 
#    z 0.000000 0.000000 1.621850 
# 
# From -- ./inp_files/29806.got.cif
#   From: 2010.03.12/outbox.cif.g09.slc.cpg/sg64_15_cif.got.tgz:29806.got - 2010.04.10 20:19:32.
