data_PCOD8262809
_publ_section_title
;
Structure prediction by ZEFSAII (Michael W. Deem and Ramdas Pophale) SiO2 
 PCOD8262809
Probable space group: C M C A
;
_chemical_formula_sum "Si O2"
_cell_formula_units_Z 112
_cell_length_a 20.105531
_cell_length_b 17.714172
_cell_length_c 16.482843
_cell_angle_alpha 90.000000
_cell_angle_beta 90.000000
_cell_angle_gamma 90.000000
_cell_volume 5870.411252
_symmetry_space_group_name_H-M "C M C A"
_symmetry_group_IT_number 64
_symmetry_cell_setting 'orthorhombic'
loop_
_space_group_symop_operation_xyz
x,y,z
-x,1/2-y,1/2+z
x,-y,-z
-x,1/2+y,1/2-z
-x,-y,-z
x,1/2+y,1/2-z
-x,y,z
x,1/2-y,1/2+z
1/2+x,1/2+y,z
1/2-x,-y,1/2+z
1/2+x,1/2-y,-z
1/2-x,y,1/2-z
1/2-x,1/2-y,-z
1/2+x,y,1/2-z
1/2-x,1/2+y,z
1/2+x,-y,1/2+z
loop_
_atom_site_type_symbol
_atom_site_label
_atom_site_fract_x
_atom_site_fract_y
_atom_site_fract_z
Si Si1 0.703138 0.833953 0.568605
Si Si2 0.924032 0.673610 0.646452
Si Si3 0.924611 0.917952 0.463232
Si Si4 0.578413 0.057563 0.780931
Si Si5 0.847035 0.713589 0.045600
Si Si6 0.684665 0.457393 0.803590
Si Si7 0.158449 0.938731 0.058008
O O1 0.775797 0.801917 0.586365
O O2 0.655784 0.766329 0.535546
O O3 0.712309 0.890714 0.492342
O O4 0.672615 0.877910 0.647408
O O5 0.906588 0.636117 0.733409
O O6 0.883990 0.748925 0.622874
O O7 0.905625 0.609445 0.581940
O O8 0.000000 0.695980 0.639465
O O9 0.898141 0.923529 0.371457
O O10 0.881630 0.863216 0.519183
O O11 0.000000 0.887523 0.463709
O O12 0.919535 0.000000 0.500000
O O13 0.500000 0.036079 0.775175
O O14 0.619966 0.984479 0.747884
O O15 0.750000 0.447851 0.750000
O O16 0.698768 0.524343 0.867668
O O17 0.124913 0.000000 0.000000
#
# Coordination Sequence:
#
# PCOD8262809 Si02
#       7
#    16  16  16  16  16  16  16
#     4   9  20  36  52  79 113 147 187 232 282 338
#     4   9  17  33  56  79 107 144 185 227 280 338
#     4  10  22  38  59  84 109 148 198 234 280 349
#     4   9  20  39  58  84 119 148 185 242 292 335
#     4  10  20  36  58  76 113 152 185 232 283 333
#     4  10  20  33  56  86 114 144 189 234 281 343
#     4   8  16  31  51  77 108 139 178 226 282 333
#
# _framework density 19.078731999999999
#
# number of rings (size 3 to 8) (size 9 to 14) (size 15 to 20)
#    0.000    2.714    0.000    0.429    4.000    0.857 
#    2.571    7.857    0.000    0.000    0.000    0.000 
#    0.000    0.000    0.000    0.000    0.000    0.000 
#
# Total GULP energy -693789.450251 kJ/mol
# GULP energy per Si atom -12389.097326 kJ/mol
# Density = 1.903531 g / cm^3
# Si number density = 19.078732 Si / 1000 Ang^3
#
#
#
# Elastic Constant Matrix: (Units=GPa)
#
#
# Indices 1 2 3 4 5 6 
#
# 1 60.2249 17.7467 22.9900 0.0000 0.0000 0.0000
# 2 17.7467 63.0995 22.2448 0.0000 0.0000 0.0000
# 3 22.9900 22.2448 85.9643 0.0000 0.0000 0.0000
# 4 0.0000 0.0000 0.0000 27.5506 0.0000 0.0000
# 5 0.0000 0.0000 0.0000 0.0000 24.6819 0.0000
# 6 0.0000 0.0000 0.0000 0.0000 0.0000 25.5257
#
#
#
# Elastic Compliance Matrix: (Units=1/GPa)
#
#
# Indices 1 2 3 4 5 6 
#
# 1 0.019361 -0.003983 -0.004147 0.000000 0.000000 0.000000
# 2 -0.003983 0.018258 -0.003659 0.000000 0.000000 0.000000
# 3 -0.004147 -0.003659 0.013689 0.000000 0.000000 0.000000
# 4 0.000000 0.000000 0.000000 0.036297 0.000000 0.000000
# 5 0.000000 0.000000 0.000000 0.000000 0.040516 0.000000
# 6 0.000000 0.000000 0.000000 0.000000 0.000000 0.039176
#
#
# Mechanical properties :
#
#
# Convention : Reuss Voigt Hill
#
# Bulk Modulus (GPa) = 36.06376 37.25019 36.65697
# Shear Modulus (GPa) = 24.98502 25.30543 25.14523
#
# Velocity S-wave (km/s) = 3.62273 3.64589 3.63433
# Velocity P-wave (km/s) = 6.03677 6.10657 6.07177
#
# Compressibility (1/GPa) = 0.02772867
#
# Stress axis : x y z
#
# Youngs Moduli (GPa) = 51.64931 54.76941 73.05257
#
# Poissons Ratio (x) = 0.21817 0.30296
# Poissons Ratio (y) = 0.20574 0.26733
# Poissons Ratio (z) = 0.21420 0.20042
#
# Static dielectric constant tensor:
#      x y z
#    x 3.321220 0.000000 0.000000 
#    y 0.000000 3.608710 0.000000 
#    z 0.000000 0.000000 3.621940 
# 
# 
# High freq. dielectric constant tensor:
#      x y z
#    x 1.724780 0.000000 0.000000 
#    y 0.000000 1.742480 0.000000 
#    z 0.000000 0.000000 1.742120 
# 
# From -- ./inp_files/34464.got.cif
#   From: 2010.03.12/outbox.cif.g09.slc.cpg/sg64_18_cif.got.tgz:34464.got - 2010.04.10 20:19:32.
