data_PCOD8262174
_publ_section_title
;
Structure prediction by ZEFSAII (Michael W. Deem and Ramdas Pophale) SiO2 
 PCOD8262174
Probable space group: C M C A
;
_chemical_formula_sum "Si O2"
_cell_formula_units_Z 96
_cell_length_a 9.313202
_cell_length_b 23.685842
_cell_length_c 25.328727
_cell_angle_alpha 90.000000
_cell_angle_beta 90.000000
_cell_angle_gamma 90.000000
_cell_volume 5587.290005
_symmetry_space_group_name_H-M "C M C A"
_symmetry_group_IT_number 64
_symmetry_cell_setting 'orthorhombic'
loop_
_space_group_symop_operation_xyz
x,y,z
-x,1/2-y,1/2+z
x,-y,-z
-x,1/2+y,1/2-z
-x,-y,-z
x,1/2+y,1/2-z
-x,y,z
x,1/2-y,1/2+z
1/2+x,1/2+y,z
1/2-x,-y,1/2+z
1/2+x,1/2-y,-z
1/2-x,y,1/2-z
1/2-x,1/2-y,-z
1/2+x,y,1/2-z
1/2-x,1/2+y,z
1/2+x,-y,1/2+z
loop_
_atom_site_type_symbol
_atom_site_label
_atom_site_fract_x
_atom_site_fract_y
_atom_site_fract_z
Si Si1 0.664612 0.158783 0.392925
Si Si2 0.667208 0.967130 0.198146
Si Si3 0.839299 0.601179 0.901396
Si Si4 0.161624 0.278895 0.066709
Si Si5 0.336099 0.362499 0.009267
Si Si6 0.332177 0.597979 0.302348
O O1 0.500000 0.156021 0.372492
O O2 0.714354 0.223190 0.403108
O O3 0.679216 0.123414 0.447431
O O4 0.772811 0.133101 0.351167
O O5 0.500000 0.955249 0.207481
O O6 0.750000 0.946451 0.250000
O O7 0.698635 0.032454 0.186416
O O8 0.727361 0.931312 0.148650
O O9 0.840190 0.668963 0.890963
O O10 0.745666 0.590488 0.954870
O O11 0.000000 0.578208 0.911892
O O12 0.267524 0.299510 0.019138
O O13 0.000000 0.268256 0.044364
O O14 0.500000 0.361040 0.027427
O O15 0.500000 0.610358 0.295184
O O16 0.250000 0.618029 0.250000
#
# Coordination Sequence:
#
# PCOD8262174 Si02
#       6
#    16  16  16  16  16  16
#     4  10  19  32  50  74 103 134 165 198 241 290
#     4   9  18  34  54  73  92 122 165 206 246 293
#     4   8  16  31  49  70  99 129 157 198 245 288
#     4   8  16  30  49  71 100 133 158 192 239 285
#     4   9  17  28  47  76 104 129 164 202 238 286
#     4  10  21  36  54  73  94 125 165 206 246 290
#
# _framework density 17.181854000000001
#
# number of rings (size 3 to 8) (size 9 to 14) (size 15 to 20)
#    1.000    2.000    0.000    1.000    0.000    3.333 
#    0.000    1.667    0.000    7.000    0.000    0.000 
#    0.000    0.000    0.000    0.000    0.000    0.000 
#
# Total GULP energy -594783.969567 kJ/mol
# GULP energy per Si atom -12391.332699 kJ/mol
# Density = 1.714275 g / cm^3
# Si number density = 17.181854 Si / 1000 Ang^3
#
#
#
# Elastic Constant Matrix: (Units=GPa)
#
#
# Indices 1 2 3 4 5 6 
#
# 1 90.8925 27.1797 63.4747 0.0000 0.0000 0.0000
# 2 27.1797 34.7217 41.5630 0.0000 0.0000 0.0000
# 3 63.4747 41.5630 115.4389 0.0000 0.0000 0.0000
# 4 0.0000 0.0000 0.0000 28.0588 0.0000 0.0000
# 5 0.0000 0.0000 0.0000 0.0000 34.7236 0.0000
# 6 0.0000 0.0000 0.0000 0.0000 0.0000 20.2969
#
#
#
# Elastic Compliance Matrix: (Units=1/GPa)
#
#
# Indices 1 2 3 4 5 6 
#
# 1 0.018168 -0.003978 -0.008557 0.000000 0.000000 0.000000
# 2 -0.003978 0.051485 -0.016350 0.000000 0.000000 0.000000
# 3 -0.008557 -0.016350 0.019254 0.000000 0.000000 0.000000
# 4 0.000000 0.000000 0.000000 0.035639 0.000000 0.000000
# 5 0.000000 0.000000 0.000000 0.000000 0.028799 0.000000
# 6 0.000000 0.000000 0.000000 0.000000 0.000000 0.049269
#
#
# Mechanical properties :
#
#
# Convention : Reuss Voigt Hill
#
# Bulk Modulus (GPa) = 32.11558 56.16532 44.14045
# Shear Modulus (GPa) = 18.46632 23.87157 21.16895
#
# Velocity S-wave (km/s) = 3.28191 3.73144 3.51387
# Velocity P-wave (km/s) = 5.75268 7.16412 6.49684
#
# Compressibility (1/GPa) = 0.03113753
#
# Stress axis : x y z
#
# Youngs Moduli (GPa) = 55.04333 19.42301 51.93609
#
# Poissons Ratio (x) = 0.07726 0.44443
# Poissons Ratio (y) = 0.21896 0.84914
# Poissons Ratio (z) = 0.47102 0.31756
#
# Static dielectric constant tensor:
#      x y z
#    x 3.217980 0.000000 0.000000 
#    y 0.000000 3.028950 0.000000 
#    z 0.000000 0.000000 3.082350 
# 
# 
# High freq. dielectric constant tensor:
#      x y z
#    x 1.667790 0.000000 0.000000 
#    y 0.000000 1.642250 0.000000 
#    z 0.000000 0.000000 1.650440 
# 
# From -- ./inp_files/43231.got.cif
#   From: 2010.03.12/outbox.cif.g09.slc.cpg/sg64_22_cif.got.tgz:43231.got - 2010.04.10 20:19:32.
