data_PCOD8262574
_publ_section_title
;
Structure prediction by ZEFSAII (Michael W. Deem and Ramdas Pophale) SiO2 
 PCOD8262574
Probable space group: C M C A
;
_chemical_formula_sum "Si O2"
_cell_formula_units_Z 96
_cell_length_a 18.706334
_cell_length_b 25.602737
_cell_length_c 10.629837
_cell_angle_alpha 90.000000
_cell_angle_beta 90.000000
_cell_angle_gamma 90.000000
_cell_volume 5090.983440
_symmetry_space_group_name_H-M "C M C A"
_symmetry_group_IT_number 64
_symmetry_cell_setting 'orthorhombic'
loop_
_space_group_symop_operation_xyz
x,y,z
-x,1/2-y,1/2+z
x,-y,-z
-x,1/2+y,1/2-z
-x,-y,-z
x,1/2+y,1/2-z
-x,y,z
x,1/2-y,1/2+z
1/2+x,1/2+y,z
1/2-x,-y,1/2+z
1/2+x,1/2-y,-z
1/2-x,y,1/2-z
1/2-x,1/2-y,-z
1/2+x,y,1/2-z
1/2-x,1/2+y,z
1/2+x,-y,1/2+z
loop_
_atom_site_type_symbol
_atom_site_label
_atom_site_fract_x
_atom_site_fract_y
_atom_site_fract_z
Si Si1 0.915275 0.214943 0.752065
Si Si2 0.580988 0.093096 0.028060
Si Si3 0.783573 0.940860 0.128305
Si Si4 0.580818 0.095540 0.735835
Si Si5 0.583885 0.713900 0.474194
Si Si6 0.276252 0.557711 0.378187
O O1 0.896178 0.155429 0.784808
O O2 0.881524 0.251747 0.861236
O O3 0.884682 0.229369 0.612427
O O4 0.000000 0.221415 0.746260
O O5 0.500000 0.079444 0.071672
O O6 0.598795 0.153416 0.054074
O O7 0.637383 0.058970 0.108645
O O8 0.589912 0.079575 0.881285
O O9 0.750000 0.911140 0.250000
O O10 0.869206 0.940072 0.146340
O O11 0.752336 0.998949 0.124881
O O12 0.759596 0.912869 0.998435
O O13 0.500000 0.085914 0.691256
O O14 0.500000 0.724493 0.477250
O O15 0.250000 0.585998 0.250000
#
# Coordination Sequence:
#
# PCOD8262574 Si02
#       6
#    16  16  16  16  16  16
#     4   8  14  26  46  74 105 134 167 209 258 307
#     4   9  17  33  57  81 103 136 183 223 254 306
#     4  10  19  36  57  74 100 140 178 210 269 326
#     4   9  17  32  57  83 102 134 186 224 249 307
#     4   8  14  26  47  74 104 134 166 210 260 306
#     4  10  21  36  53  77 107 138 176 217 271 326
#
# _framework density 18.856867999999999
#
# number of rings (size 3 to 8) (size 9 to 14) (size 15 to 20)
#    0.000    3.000    1.667    2.000    0.000    0.000 
#    3.000    7.500    0.000    2.000    0.000    0.000 
#    0.000    0.000    0.000    0.000    0.000    0.000 
#
# Total GULP energy -594668.510158 kJ/mol
# GULP energy per Si atom -12388.927295 kJ/mol
# Density = 1.881395 g / cm^3
# Si number density = 18.856868 Si / 1000 Ang^3
#
#
#
# Elastic Constant Matrix: (Units=GPa)
#
#
# Indices 1 2 3 4 5 6 
#
# 1 118.8919 40.7315 63.4728 0.0000 0.0000 0.0000
# 2 40.7315 57.6187 37.4532 0.0000 0.0000 0.0000
# 3 63.4728 37.4532 147.8234 0.0000 0.0000 0.0000
# 4 0.0000 0.0000 0.0000 18.8080 0.0000 0.0000
# 5 0.0000 0.0000 0.0000 0.0000 31.3208 0.0000
# 6 0.0000 0.0000 0.0000 0.0000 0.0000 11.2625
#
#
#
# Elastic Compliance Matrix: (Units=1/GPa)
#
#
# Indices 1 2 3 4 5 6 
#
# 1 0.012656 -0.006482 -0.003792 0.000000 0.000000 0.000000
# 2 -0.006482 0.024097 -0.003322 0.000000 0.000000 0.000000
# 3 -0.003792 -0.003322 0.009235 0.000000 0.000000 0.000000
# 4 0.000000 0.000000 0.000000 0.053169 0.000000 0.000000
# 5 0.000000 0.000000 0.000000 0.000000 0.031928 0.000000
# 6 0.000000 0.000000 0.000000 0.000000 0.000000 0.088790
#
#
# Mechanical properties :
#
#
# Convention : Reuss Voigt Hill
#
# Bulk Modulus (GPa) = 53.20331 67.51657 60.35994
# Shear Modulus (GPa) = 19.73695 24.45669 22.09682
#
# Velocity S-wave (km/s) = 3.23874 3.60525 3.42690
# Velocity P-wave (km/s) = 6.50088 7.29472 6.90921
#
# Compressibility (1/GPa) = 0.01879582
#
# Stress axis : x y z
#
# Youngs Moduli (GPa) = 79.01326 41.49886 108.28634
#
# Poissons Ratio (x) = 0.26899 0.41063
# Poissons Ratio (y) = 0.51216 0.35974
# Poissons Ratio (z) = 0.29962 0.13786
#
# Static dielectric constant tensor:
#      x y z
#    x 3.272800 0.000000 0.000000 
#    y 0.000000 3.172060 0.000000 
#    z 0.000000 0.000000 5.526550 
# 
# 
# High freq. dielectric constant tensor:
#      x y z
#    x 1.706430 0.000000 0.000000 
#    y 0.000000 1.696680 0.000000 
#    z 0.000000 0.000000 1.738330 
# 
# From -- ./inp_files/16243.got.cif
#   From: 2010.03.12/outbox.cif.g09.slc.cpg/sg64_9_cif.got.tgz:16243.got - 2010.04.10 20:19:32.
