data_PCOD8262297
_publ_section_title
;
Structure prediction by ZEFSAII (Michael W. Deem and Ramdas Pophale) SiO2 
 PCOD8262297
Probable space group: C M C A
;
_chemical_formula_sum "Si O2"
_cell_formula_units_Z 96
_cell_length_a 9.585573
_cell_length_b 20.159449
_cell_length_c 27.986854
_cell_angle_alpha 90.000000
_cell_angle_beta 90.000000
_cell_angle_gamma 90.000000
_cell_volume 5408.176029
_symmetry_space_group_name_H-M "C M C A"
_symmetry_group_IT_number 64
_symmetry_cell_setting 'orthorhombic'
loop_
_space_group_symop_operation_xyz
x,y,z
-x,1/2-y,1/2+z
x,-y,-z
-x,1/2+y,1/2-z
-x,-y,-z
x,1/2+y,1/2-z
-x,y,z
x,1/2-y,1/2+z
1/2+x,1/2+y,z
1/2-x,-y,1/2+z
1/2+x,1/2-y,-z
1/2-x,y,1/2-z
1/2-x,1/2-y,-z
1/2+x,y,1/2-z
1/2-x,1/2+y,z
1/2+x,-y,1/2+z
loop_
_atom_site_type_symbol
_atom_site_label
_atom_site_fract_x
_atom_site_fract_y
_atom_site_fract_z
Si Si1 0.662685 0.327368 0.705080
Si Si2 0.158654 0.627684 0.602418
Si Si3 0.340196 0.738468 0.453915
Si Si4 0.335311 0.984884 0.054403
Si Si5 0.165224 0.883435 0.606298
Si Si6 0.338710 0.326530 0.205147
O O1 0.500000 0.338972 0.715406
O O2 0.750000 0.353407 0.750000
O O3 0.716708 0.370610 0.660203
O O4 0.694558 0.250375 0.694638
O O5 0.173202 0.701499 0.582737
O O6 0.260144 0.580699 0.572754
O O7 0.200892 0.630497 0.658366
O O8 0.000000 0.602163 0.596720
O O9 0.500000 0.727615 0.469680
O O10 0.250000 0.750000 0.500000
O O11 0.276605 0.673352 0.428652
O O12 0.500000 0.973117 0.058219
O O13 0.283956 0.045271 0.087779
O O14 0.291764 0.000000 0.000000
O O15 0.000000 0.877700 0.605247
O O16 0.500000 0.335752 0.218243
O O17 0.250000 0.353199 0.250000
#
# Coordination Sequence:
#
# PCOD8262297 Si02
#       6
#    16  16  16  16  16  16
#     4   9  16  30  52  76 101 131 166 208 258 307
#     4  10  20  35  54  77 106 138 171 212 266 315
#     4  10  19  33  53  76 101 131 170 215 258 303
#     4  10  21  36  54  76 103 140 182 217 253 307
#     4   9  17  33  54  73 100 137 171 206 256 308
#     4   9  17  31  52  78 104 133 168 209 259 311
#
# _framework density 17.750902
#
# number of rings (size 3 to 8) (size 9 to 14) (size 15 to 20)
#    0.000    2.500    1.667    1.000    0.000    3.000 
#    0.000    3.333    0.000    4.000    0.000    0.000 
#    0.000    0.000    0.000    0.000    0.000    0.000 
#
# Total GULP energy -595191.545419 kJ/mol
# GULP energy per Si atom -12399.823863 kJ/mol
# Density = 1.771050 g / cm^3
# Si number density = 17.750902 Si / 1000 Ang^3
#
#
#
# Elastic Constant Matrix: (Units=GPa)
#
#
# Indices 1 2 3 4 5 6 
#
# 1 47.4709 17.3707 42.9197 0.0000 0.0000 0.0000
# 2 17.3707 44.6033 14.7436 0.0000 0.0000 0.0000
# 3 42.9197 14.7436 120.9349 0.0000 0.0000 0.0000
# 4 0.0000 0.0000 0.0000 32.4204 0.0000 0.0000
# 5 0.0000 0.0000 0.0000 0.0000 33.8447 0.0000
# 6 0.0000 0.0000 0.0000 0.0000 0.0000 23.2286
#
#
#
# Elastic Compliance Matrix: (Units=1/GPa)
#
#
# Indices 1 2 3 4 5 6 
#
# 1 0.034726 -0.009847 -0.011124 0.000000 0.000000 0.000000
# 2 -0.009847 0.026154 0.000306 0.000000 0.000000 0.000000
# 3 -0.011124 0.000306 0.012179 0.000000 0.000000 0.000000
# 4 0.000000 0.000000 0.000000 0.030845 0.000000 0.000000
# 5 0.000000 0.000000 0.000000 0.000000 0.029547 0.000000
# 6 0.000000 0.000000 0.000000 0.000000 0.000000 0.043050
#
#
# Mechanical properties :
#
#
# Convention : Reuss Voigt Hill
#
# Bulk Modulus (GPa) = 31.51603 40.34189 35.92896
# Shear Modulus (GPa) = 21.89075 27.09706 24.49390
#
# Velocity S-wave (km/s) = 3.51553 3.91131 3.71869
# Velocity P-wave (km/s) = 5.85421 6.57067 6.22276
#
# Compressibility (1/GPa) = 0.03172989
#
# Stress axis : x y z
#
# Youngs Moduli (GPa) = 28.79675 38.23568 82.10581
#
# Poissons Ratio (x) = 0.37651 0.91333
# Poissons Ratio (y) = 0.28356 -0.02514
# Poissons Ratio (z) = 0.32033 -0.01171
#
# Static dielectric constant tensor:
#      x y z
#    x 3.147060 0.000000 0.000000 
#    y 0.000000 3.235640 0.000000 
#    z 0.000000 0.000000 3.183670 
# 
# 
# High freq. dielectric constant tensor:
#      x y z
#    x 1.664190 0.000000 0.000000 
#    y 0.000000 1.672830 0.000000 
#    z 0.000000 0.000000 1.701160 
# 
# From -- ./inp_files/44207.got.cif
#   From: 2010.03.12/outbox.cif.g09.slc.cpg/sg64_23_cif.got.tgz:44207.got - 2010.04.10 20:19:32.
