data_PCOD8262253
_publ_section_title
;
Structure prediction by ZEFSAII (Michael W. Deem and Ramdas Pophale) SiO2 
 PCOD8262253
Probable space group: C M C A
;
_chemical_formula_sum "Si O2"
_cell_formula_units_Z 96
_cell_length_a 17.405516
_cell_length_b 24.123038
_cell_length_c 10.673974
_cell_angle_alpha 90.000000
_cell_angle_beta 90.000000
_cell_angle_gamma 90.000000
_cell_volume 4481.723347
_symmetry_space_group_name_H-M "C M C A"
_symmetry_group_IT_number 64
_symmetry_cell_setting 'orthorhombic'
loop_
_space_group_symop_operation_xyz
x,y,z
-x,1/2-y,1/2+z
x,-y,-z
-x,1/2+y,1/2-z
-x,-y,-z
x,1/2+y,1/2-z
-x,y,z
x,1/2-y,1/2+z
1/2+x,1/2+y,z
1/2-x,-y,1/2+z
1/2+x,1/2-y,-z
1/2-x,y,1/2-z
1/2-x,1/2-y,-z
1/2+x,y,1/2-z
1/2-x,1/2+y,z
1/2+x,-y,1/2+z
loop_
_atom_site_type_symbol
_atom_site_label
_atom_site_fract_x
_atom_site_fract_y
_atom_site_fract_z
Si Si1 0.840795 0.202968 0.257657
Si Si2 0.913857 0.911116 0.771372
Si Si3 0.588431 0.965720 0.208316
Si Si4 0.646538 0.438628 0.026883
Si Si5 0.709086 0.614630 0.617428
Si Si6 0.664618 0.231039 0.976131
O O1 0.750000 0.212100 0.250000
O O2 0.857893 0.137849 0.271324
O O3 0.874790 0.232276 0.384859
O O4 0.876647 0.230032 0.129715
O O5 0.000000 0.895046 0.732680
O O6 0.889240 0.969149 0.707493
O O7 0.911578 0.917849 0.921135
O O8 0.500000 0.957701 0.166219
O O9 0.599521 0.937691 0.343985
O O10 0.646448 0.934872 0.114684
O O11 0.721771 0.399522 0.022740
O O12 0.677295 0.500000 0.000000
O O13 0.750000 0.623338 0.750000
O O14 0.663792 0.668919 0.576346
O O15 0.750000 0.250000 0.000000
#
# Coordination Sequence:
#
# PCOD8262253 Si02
#       6
#    16  16  16  16  16  16
#     4  10  21  37  59  83 112 151 197 247 298 354
#     4  10  20  36  57  82 115 153 194 242 299 357
#     4   9  19  34  52  81 120 156 188 234 300 363
#     4   9  17  30  53  82 111 147 197 245 287 347
#     4  10  19  32  55  84 114 150 196 246 293 348
#     4  10  20  36  58  83 113 149 194 246 297 345
#
# _framework density 21.420331999999998
#
# number of rings (size 3 to 8) (size 9 to 14) (size 15 to 20)
#    0.000    2.333    0.000    4.000    0.000    8.000 
#    0.000    2.500    0.000    2.500    0.000    0.000 
#    0.000    0.000    0.000    0.000    0.000    0.000 
#
# Total GULP energy -594865.630605 kJ/mol
# GULP energy per Si atom -12393.033971 kJ/mol
# Density = 2.137158 g / cm^3
# Si number density = 21.420332 Si / 1000 Ang^3
#
#
#
# Elastic Constant Matrix: (Units=GPa)
#
#
# Indices 1 2 3 4 5 6 
#
# 1 49.4294 24.0037 22.2469 0.0000 0.0000 0.0000
# 2 24.0037 111.5713 42.8500 0.0000 0.0000 0.0000
# 3 22.2469 42.8500 90.6871 0.0000 0.0000 0.0000
# 4 0.0000 0.0000 0.0000 31.5901 0.0000 0.0000
# 5 0.0000 0.0000 0.0000 0.0000 14.4110 0.0000
# 6 0.0000 0.0000 0.0000 0.0000 0.0000 19.7673
#
#
#
# Elastic Compliance Matrix: (Units=1/GPa)
#
#
# Indices 1 2 3 4 5 6 
#
# 1 0.023822 -0.003519 -0.004181 0.000000 0.000000 0.000000
# 2 -0.003519 0.011470 -0.004556 0.000000 0.000000 0.000000
# 3 -0.004181 -0.004556 0.014205 0.000000 0.000000 0.000000
# 4 0.000000 0.000000 0.000000 0.031656 0.000000 0.000000
# 5 0.000000 0.000000 0.000000 0.000000 0.069392 0.000000
# 6 0.000000 0.000000 0.000000 0.000000 0.000000 0.050589
#
#
# Mechanical properties :
#
#
# Convention : Reuss Voigt Hill
#
# Bulk Modulus (GPa) = 40.02560 47.76543 43.89551
# Shear Modulus (GPa) = 21.36994 23.99282 22.68138
#
# Velocity S-wave (km/s) = 3.16198 3.35041 3.25756
# Velocity P-wave (km/s) = 5.66191 6.10856 5.88947
#
# Compressibility (1/GPa) = 0.02498401
#
# Stress axis : x y z
#
# Youngs Moduli (GPa) = 41.97870 87.18477 70.39574
#
# Poissons Ratio (x) = 0.30683 0.29432
# Poissons Ratio (y) = 0.14774 0.32074
# Poissons Ratio (z) = 0.17551 0.39723
#
# Static dielectric constant tensor:
#      x y z
#    x 3.454090 0.000000 0.000000 
#    y 0.000000 3.972870 0.000000 
#    z 0.000000 0.000000 4.356500 
# 
# 
# High freq. dielectric constant tensor:
#      x y z
#    x 1.797720 0.000000 0.000000 
#    y 0.000000 1.842430 0.000000 
#    z 0.000000 0.000000 1.845000 
# 
# From -- ./inp_files/17476.got.cif
#   From: 2010.03.12/outbox.cif.g09.slc.cpg/sg64_9_cif.got.tgz:17476.got - 2010.04.10 20:19:32.
