data_PCOD8262569
_publ_section_title
;
Structure prediction by ZEFSAII (Michael W. Deem and Ramdas Pophale) SiO2 
 PCOD8262569
Probable space group: C M C A
;
_chemical_formula_sum "Si O2"
_cell_formula_units_Z 72
_cell_length_a 18.235409
_cell_length_b 15.159095
_cell_length_c 14.836369
_cell_angle_alpha 90.000000
_cell_angle_beta 90.000000
_cell_angle_gamma 90.000000
_cell_volume 4101.251568
_symmetry_space_group_name_H-M "C M C A"
_symmetry_group_IT_number 64
_symmetry_cell_setting 'orthorhombic'
loop_
_space_group_symop_operation_xyz
x,y,z
-x,1/2-y,1/2+z
x,-y,-z
-x,1/2+y,1/2-z
-x,-y,-z
x,1/2+y,1/2-z
-x,y,z
x,1/2-y,1/2+z
1/2+x,1/2+y,z
1/2-x,-y,1/2+z
1/2+x,1/2-y,-z
1/2-x,y,1/2-z
1/2-x,1/2-y,-z
1/2+x,y,1/2-z
1/2-x,1/2+y,z
1/2+x,-y,1/2+z
loop_
_atom_site_type_symbol
_atom_site_label
_atom_site_fract_x
_atom_site_fract_y
_atom_site_fract_z
Si Si1 0.165956 0.843244 0.777130
Si Si2 0.583560 0.011339 0.686168
Si Si3 0.850243 0.500000 0.500000
Si Si4 0.181519 0.811911 0.981819
Si Si5 0.913822 0.293288 0.348311
O O1 0.250000 0.841511 0.750000
O O2 0.136839 0.943346 0.761937
O O3 0.155405 0.805293 0.878193
O O4 0.120010 0.782806 0.711257
O O5 0.500000 0.993511 0.715695
O O6 0.592835 0.991708 0.581115
O O7 0.605740 0.113750 0.701052
O O8 0.797206 0.585740 0.502817
O O9 0.250000 0.750000 0.000000
O O10 0.116290 0.785834 0.049652
O O11 0.000000 0.280478 0.355466
#
# Coordination Sequence:
#
# PCOD8262569 Si02
#       5
#    16  16   8  16  16
#     4  11  21  34  55  82 110 143 179 223 273 326
#     4   9  18  33  53  77 105 136 178 223 266 312
#     4   8  17  30  54  78  99 132 178 224 263 302
#     4  10  19  36  54  79 109 141 182 219 272 318
#     4  10  21  37  57  82 110 142 183 228 270 321
#
# _framework density 17.555617999999999
#
# number of rings (size 3 to 8) (size 9 to 14) (size 15 to 20)
#    0.000    2.222    2.222    1.000    0.000    7.111 
#    4.000    0.000    0.000    0.000    0.000    5.444 
#    0.000    0.000    0.000    0.000    0.000    0.000 
#
# Total GULP energy -446140.786564 kJ/mol
# GULP energy per Si atom -12392.799627 kJ/mol
# Density = 1.751566 g / cm^3
# Si number density = 17.555618 Si / 1000 Ang^3
#
#
#
# Elastic Constant Matrix: (Units=GPa)
#
#
# Indices 1 2 3 4 5 6 
#
# 1 107.4233 64.1657 43.2023 0.0000 0.0000 0.0000
# 2 64.1657 99.5611 46.1796 0.0000 0.0000 0.0000
# 3 43.2023 46.1796 94.4753 0.0000 0.0000 0.0000
# 4 0.0000 0.0000 0.0000 25.5858 0.0000 0.0000
# 5 0.0000 0.0000 0.0000 0.0000 3.3708 0.0000
# 6 0.0000 0.0000 0.0000 0.0000 0.0000 30.9770
#
#
#
# Elastic Compliance Matrix: (Units=1/GPa)
#
#
# Indices 1 2 3 4 5 6 
#
# 1 0.015724 -0.008792 -0.002893 0.000000 0.000000 0.000000
# 2 -0.008792 0.017905 -0.004731 0.000000 0.000000 0.000000
# 3 -0.002893 -0.004731 0.014220 0.000000 0.000000 0.000000
# 4 0.000000 0.000000 0.000000 0.039084 0.000000 0.000000
# 5 0.000000 0.000000 0.000000 0.000000 0.296666 0.000000
# 6 0.000000 0.000000 0.000000 0.000000 0.000000 0.032282
#
#
# Mechanical properties :
#
#
# Convention : Reuss Voigt Hill
#
# Bulk Modulus (GPa) = 66.59273 67.61722 67.10497
# Shear Modulus (GPa) = 11.02002 21.84754 16.43378
#
# Velocity S-wave (km/s) = 2.50815 3.53154 3.06289
# Velocity P-wave (km/s) = 6.81194 7.43160 7.12851
#
# Compressibility (1/GPa) = 0.01501665
#
# Stress axis : x y z
#
# Youngs Moduli (GPa) = 63.59676 55.84993 70.32168
#
# Poissons Ratio (x) = 0.49104 0.20343
# Poissons Ratio (y) = 0.55915 0.33273
# Poissons Ratio (z) = 0.18397 0.26425
#
# Static dielectric constant tensor:
#      x y z
#    x 3.146750 0.000000 0.000000 
#    y 0.000000 3.645090 0.000000 
#    z 0.000000 0.000000 3.233040 
# 
# 
# High freq. dielectric constant tensor:
#      x y z
#    x 1.668670 0.000000 0.000000 
#    y 0.000000 1.691780 0.000000 
#    z 0.000000 0.000000 1.668190 
# 
# From -- ./inp_files/15769.got.cif
#   From: 2010.03.12/outbox.cif.g09.slc.cpg/sg64_8_cif.got.tgz:15769.got - 2010.04.10 20:19:32.
