data_PCOD8262855
_publ_section_title
;
Structure prediction by ZEFSAII (Michael W. Deem and Ramdas Pophale) SiO2 
 PCOD8262855
Probable space group: C M C A
;
_chemical_formula_sum "Si O2"
_cell_formula_units_Z 112
_cell_length_a 9.437230
_cell_length_b 17.998548
_cell_length_c 35.871201
_cell_angle_alpha 90.000000
_cell_angle_beta 90.000000
_cell_angle_gamma 90.000000
_cell_volume 6092.954398
_symmetry_space_group_name_H-M "C M C A"
_symmetry_group_IT_number 64
_symmetry_cell_setting 'orthorhombic'
loop_
_space_group_symop_operation_xyz
x,y,z
-x,1/2-y,1/2+z
x,-y,-z
-x,1/2+y,1/2-z
-x,-y,-z
x,1/2+y,1/2-z
-x,y,z
x,1/2-y,1/2+z
1/2+x,1/2+y,z
1/2-x,-y,1/2+z
1/2+x,1/2-y,-z
1/2-x,y,1/2-z
1/2-x,1/2-y,-z
1/2+x,y,1/2-z
1/2-x,1/2+y,z
1/2+x,-y,1/2+z
loop_
_atom_site_type_symbol
_atom_site_label
_atom_site_fract_x
_atom_site_fract_y
_atom_site_fract_z
Si Si1 0.334653 0.586334 0.996020
Si Si2 0.834865 0.663799 0.286062
Si Si3 0.336250 0.837020 0.068361
Si Si4 0.664639 0.834590 0.214250
Si Si5 0.837158 0.072753 0.642581
Si Si6 0.168064 0.669292 0.430250
Si Si7 0.331934 0.922833 0.640209
O O1 0.500000 0.601970 0.989817
O O2 0.251830 0.614978 0.960458
O O3 0.302272 0.500000 0.000000
O O4 0.277332 0.627447 0.032888
O O5 0.750000 0.635245 0.250000
O O6 0.797962 0.749253 0.295032
O O7 0.785837 0.615376 0.321234
O O8 0.000000 0.653208 0.277708
O O9 0.500000 0.838122 0.056080
O O10 0.315293 0.870072 0.109147
O O11 0.275180 0.753393 0.068958
O O12 0.500000 0.843547 0.223222
O O13 0.750000 0.863271 0.250000
O O14 0.711477 0.884734 0.179680
O O15 0.000000 0.046739 0.645269
O O16 0.738228 0.002628 0.636563
O O17 0.226372 0.627536 0.393677
O O18 0.000000 0.669085 0.428396
O O19 0.500000 0.932798 0.637785
#
# Coordination Sequence:
#
# PCOD8262855 Si02
#       7
#    16  16  16  16  16  16  16
#     4  10  20  34  53  78 107 135 164 205 255 300
#     4   9  18  33  54  77 100 131 170 209 250 298
#     4  10  20  35  55  76 100 134 173 209 248 297
#     4   9  18  34  54  75 101 133 170 210 251 298
#     4  10  21  35  51  74 104 134 166 209 256 297
#     4   9  18  34  55  76 100 133 172 210 248 295
#     4  10  20  35  55  76 100 134 173 208 249 305
#
# _framework density 18.381886999999999
#
# number of rings (size 3 to 8) (size 9 to 14) (size 15 to 20)
#    0.000    2.429    0.000    2.143    0.000    7.143 
#    0.000    4.286    0.000    3.429    0.000    0.000 
#    0.000    0.000    0.000    0.000    0.000    0.000 
#
# Total GULP energy -694569.539899 kJ/mol
# GULP energy per Si atom -12403.027498 kJ/mol
# Density = 1.834005 g / cm^3
# Si number density = 18.381887 Si / 1000 Ang^3
#
#
#
# Elastic Constant Matrix: (Units=GPa)
#
#
# Indices 1 2 3 4 5 6 
#
# 1 38.0452 42.7345 42.8533 0.0000 0.0000 0.0000
# 2 42.7345 116.5140 58.2872 0.0000 0.0000 0.0000
# 3 42.8533 58.2872 127.6511 0.0000 0.0000 0.0000
# 4 0.0000 0.0000 0.0000 28.7180 0.0000 0.0000
# 5 0.0000 0.0000 0.0000 0.0000 28.7922 0.0000
# 6 0.0000 0.0000 0.0000 0.0000 0.0000 26.1010
#
#
#
# Elastic Compliance Matrix: (Units=1/GPa)
#
#
# Indices 1 2 3 4 5 6 
#
# 1 0.056533 -0.014568 -0.012326 0.000000 0.000000 0.000000
# 2 -0.014568 0.014878 -0.001903 0.000000 0.000000 0.000000
# 3 -0.012326 -0.001903 0.012841 0.000000 0.000000 0.000000
# 4 0.000000 0.000000 0.000000 0.034821 0.000000 0.000000
# 5 0.000000 0.000000 0.000000 0.000000 0.034732 0.000000
# 6 0.000000 0.000000 0.000000 0.000000 0.000000 0.038313
#
#
# Mechanical properties :
#
#
# Convention : Reuss Voigt Hill
#
# Bulk Modulus (GPa) = 37.51453 63.32891 50.42172
# Shear Modulus (GPa) = 19.33511 25.94459 22.63985
#
# Velocity S-wave (km/s) = 3.24675 3.76097 3.51328
# Velocity P-wave (km/s) = 5.87435 7.30660 6.62927
#
# Compressibility (1/GPa) = 0.02665634
#
# Stress axis : x y z
#
# Youngs Moduli (GPa) = 17.68893 67.21398 77.87776
#
# Poissons Ratio (x) = 0.97920 0.95994
# Poissons Ratio (y) = 0.25770 0.14818
# Poissons Ratio (z) = 0.21804 0.12789
#
# Static dielectric constant tensor:
#      x y z
#    x 3.169090 0.000000 0.000000 
#    y 0.000000 3.472020 0.000000 
#    z 0.000000 0.000000 3.554620 
# 
# 
# High freq. dielectric constant tensor:
#      x y z
#    x 1.688850 0.000000 0.000000 
#    y 0.000000 1.721250 0.000000 
#    z 0.000000 0.000000 1.728380 
# 
# From -- ./inp_files/52857.got.cif
#   From: 2010.03.12/outbox.cif.g09.slc.cpg/sg64_27_cif.got.tgz:52857.got - 2010.04.10 20:19:32.
