data_PCOD8262610
_publ_section_title
;
Structure prediction by ZEFSAII (Michael W. Deem and Ramdas Pophale) SiO2 
 PCOD8262610
Probable space group: C M C A
;
_chemical_formula_sum "Si O2"
_cell_formula_units_Z 96
_cell_length_a 8.545474
_cell_length_b 20.027731
_cell_length_c 27.929689
_cell_angle_alpha 90.000000
_cell_angle_beta 90.000000
_cell_angle_gamma 90.000000
_cell_volume 4780.067249
_symmetry_space_group_name_H-M "C M C A"
_symmetry_group_IT_number 64
_symmetry_cell_setting 'orthorhombic'
loop_
_space_group_symop_operation_xyz
x,y,z
-x,1/2-y,1/2+z
x,-y,-z
-x,1/2+y,1/2-z
-x,-y,-z
x,1/2+y,1/2-z
-x,y,z
x,1/2-y,1/2+z
1/2+x,1/2+y,z
1/2-x,-y,1/2+z
1/2+x,1/2-y,-z
1/2-x,y,1/2-z
1/2-x,1/2-y,-z
1/2+x,y,1/2-z
1/2-x,1/2+y,z
1/2+x,-y,1/2+z
loop_
_atom_site_type_symbol
_atom_site_label
_atom_site_fract_x
_atom_site_fract_y
_atom_site_fract_z
Si Si1 0.319597 0.113581 0.043470
Si Si2 0.185331 0.294806 0.799851
Si Si3 0.317368 0.984629 0.104646
Si Si4 0.315407 0.947297 0.799218
Si Si5 0.682060 0.269067 0.897569
Si Si6 0.319806 0.858460 0.442890
O O1 0.500000 0.120601 0.028138
O O2 0.286797 0.040911 0.065006
O O3 0.281087 0.168526 0.083275
O O4 0.210959 0.122036 0.997580
O O5 0.250000 0.264816 0.750000
O O6 0.243224 0.371309 0.804813
O O7 0.262760 0.253866 0.843374
O O8 0.000000 0.287206 0.801864
O O9 0.500000 0.966178 0.106749
O O10 0.254415 0.009674 0.156053
O O11 0.219231 0.919648 0.091776
O O12 0.500000 0.948301 0.797805
O O13 0.250000 0.978714 0.750000
O O14 0.500000 0.286643 0.899577
O O15 0.713646 0.204653 0.929932
O O16 0.500000 0.838639 0.436657
#
# Coordination Sequence:
#
# PCOD8262610 Si02
#       6
#    16  16  16  16  16  16
#     4  11  22  41  65  88 118 157 200 247 298 356
#     4  10  19  36  60  91 122 155 195 244 297 350
#     4  10  21  40  62  87 120 159 197 240 297 357
#     4   9  18  34  58  88 119 152 191 237 289 346
#     4  12  24  40  62  89 120 159 202 248 298 353
#     4  12  26  41  58  86 122 158 200 250 300 357
#
# _framework density 20.083400000000001
#
# number of rings (size 3 to 8) (size 9 to 14) (size 15 to 20)
#    0.000    1.333    1.667    5.000    0.000    4.667 
#    0.000    0.833    0.000    2.000    0.000    0.000 
#    0.000    0.000    0.000    0.000    0.000    0.000 
#
# Total GULP energy -595494.015542 kJ/mol
# GULP energy per Si atom -12406.125324 kJ/mol
# Density = 2.003769 g / cm^3
# Si number density = 20.083400 Si / 1000 Ang^3
#
#
#
# Elastic Constant Matrix: (Units=GPa)
#
#
# Indices 1 2 3 4 5 6 
#
# 1 61.1619 20.8798 19.4435 0.0000 0.0000 0.0000
# 2 20.8798 43.3849 -4.8500 0.0000 0.0000 0.0000
# 3 19.4435 -4.8500 104.9108 0.0000 0.0000 0.0000
# 4 0.0000 0.0000 0.0000 9.5958 0.0000 0.0000
# 5 0.0000 0.0000 0.0000 0.0000 39.0059 0.0000
# 6 0.0000 0.0000 0.0000 0.0000 0.0000 25.6396
#
#
#
# Elastic Compliance Matrix: (Units=1/GPa)
#
#
# Indices 1 2 3 4 5 6 
#
# 1 0.021474 -0.010835 -0.004481 0.000000 0.000000 0.000000
# 2 -0.010835 0.028637 0.003332 0.000000 0.000000 0.000000
# 3 -0.004481 0.003332 0.010516 0.000000 0.000000 0.000000
# 4 0.000000 0.000000 0.000000 0.104212 0.000000 0.000000
# 5 0.000000 0.000000 0.000000 0.000000 0.025637 0.000000
# 6 0.000000 0.000000 0.000000 0.000000 0.000000 0.039002
#
#
# Mechanical properties :
#
#
# Convention : Reuss Voigt Hill
#
# Bulk Modulus (GPa) = 27.27881 31.15600 29.21741
# Shear Modulus (GPa) = 18.82065 26.44721 22.63393
#
# Velocity S-wave (km/s) = 3.06457 3.63281 3.36072
# Velocity P-wave (km/s) = 5.11218 5.75703 5.44416
#
# Compressibility (1/GPa) = 0.03665849
#
# Stress axis : x y z
#
# Youngs Moduli (GPa) = 46.56894 34.92019 95.08981
#
# Poissons Ratio (x) = 0.37838 0.42607
# Poissons Ratio (y) = 0.50459 -0.31684
# Poissons Ratio (z) = 0.20866 -0.11636
#
# Static dielectric constant tensor:
#      x y z
#    x 3.519500 0.000000 0.000000 
#    y 0.000000 3.479340 0.000000 
#    z 0.000000 0.000000 3.988460 
# 
# 
# High freq. dielectric constant tensor:
#      x y z
#    x 1.784950 0.000000 0.000000 
#    y 0.000000 1.762610 0.000000 
#    z 0.000000 0.000000 1.801210 
# 
# From -- ./inp_files/48078.got.cif
#   From: 2010.03.12/outbox.cif.g09.slc.cpg/sg64_25_cif.got.tgz:48078.got - 2010.04.10 20:19:32.
