data_PCOD8262123
_publ_section_title
;
Structure prediction by ZEFSAII (Michael W. Deem and Ramdas Pophale) SiO2 
 PCOD8262123
Probable space group: C M C A
;
_chemical_formula_sum "Si O2"
_cell_formula_units_Z 96
_cell_length_a 8.836186
_cell_length_b 27.557100
_cell_length_c 20.794913
_cell_angle_alpha 90.000000
_cell_angle_beta 90.000000
_cell_angle_gamma 90.000000
_cell_volume 5063.554271
_symmetry_space_group_name_H-M "C M C A"
_symmetry_group_IT_number 64
_symmetry_cell_setting 'orthorhombic'
loop_
_space_group_symop_operation_xyz
x,y,z
-x,1/2-y,1/2+z
x,-y,-z
-x,1/2+y,1/2-z
-x,-y,-z
x,1/2+y,1/2-z
-x,y,z
x,1/2-y,1/2+z
1/2+x,1/2+y,z
1/2-x,-y,1/2+z
1/2+x,1/2-y,-z
1/2-x,y,1/2-z
1/2-x,1/2-y,-z
1/2+x,y,1/2-z
1/2-x,1/2+y,z
1/2+x,-y,1/2+z
loop_
_atom_site_type_symbol
_atom_site_label
_atom_site_fract_x
_atom_site_fract_y
_atom_site_fract_z
Si Si1 0.324163 0.147228 0.813923
Si Si2 0.679921 0.758485 0.682753
Si Si3 0.819078 0.289004 0.950335
Si Si4 0.831972 0.889899 0.961908
Si Si5 0.834316 0.572744 0.602424
Si Si6 0.170043 0.018707 0.427076
O O1 0.500000 0.142725 0.805880
O O2 0.250000 0.125644 0.750000
O O3 0.274621 0.202453 0.825232
O O4 0.270261 0.116064 0.873519
O O5 0.500000 0.767085 0.682584
O O6 0.750000 0.778432 0.750000
O O7 0.756373 0.784389 0.622059
O O8 0.769854 0.342361 0.972916
O O9 0.000000 0.283817 0.951486
O O10 0.750000 0.250000 0.000000
O O11 0.748092 0.928749 0.916060
O O12 0.000000 0.876285 0.935030
O O13 0.852393 0.918714 0.027454
O O14 0.758682 0.520633 0.616224
O O15 0.000000 0.573743 0.635464
O O16 0.000000 0.023181 0.400843
O O17 0.168802 0.000000 0.500000
#
# Coordination Sequence:
#
# PCOD8262123 Si02
#       6
#    16  16  16  16  16  16
#     4  10  20  33  51  74 101 133 170 212 258 310
#     4  10  21  38  58  80 108 144 184 224 270 326
#     4  12  24  37  55  81 112 145 183 229 278 323
#     4  10  20  34  52  76 106 138 173 215 263 313
#     4  10  19  31  50  75 104 136 170 210 258 310
#     4   9  17  30  49  73 101 133 168 205 250 307
#
# _framework density 18.959015000000001
#
# number of rings (size 3 to 8) (size 9 to 14) (size 15 to 20)
#    0.000    1.833    0.000    5.000    0.000    8.667 
#    0.000    0.000    0.000    1.000    0.000    7.000 
#    0.000    0.000    0.000    0.000    0.000    0.000 
#
# Total GULP energy -595098.986260 kJ/mol
# GULP energy per Si atom -12397.895547 kJ/mol
# Density = 1.891586 g / cm^3
# Si number density = 18.959015 Si / 1000 Ang^3
#
#
#
# Elastic Constant Matrix: (Units=GPa)
#
#
# Indices 1 2 3 4 5 6 
#
# 1 95.0235 53.8749 24.3670 0.0000 0.0000 0.0000
# 2 53.8749 96.9168 15.1118 0.0000 0.0000 0.0000
# 3 24.3670 15.1118 52.1046 0.0000 0.0000 0.0000
# 4 0.0000 0.0000 0.0000 -3.6444 0.0000 0.0000
# 5 0.0000 0.0000 0.0000 0.0000 29.8607 0.0000
# 6 0.0000 0.0000 0.0000 0.0000 0.0000 29.0623
#
#
#
# Elastic Compliance Matrix: (Units=1/GPa)
#
#
# Indices 1 2 3 4 5 6 
#
# 1 0.016680 -0.008438 -0.005354 0.000000 0.000000 0.000000
# 2 -0.008438 0.015075 -0.000426 0.000000 0.000000 0.000000
# 3 -0.005354 -0.000426 0.021819 0.000000 0.000000 0.000000
# 4 0.000000 0.000000 0.000000 -0.274394 0.000000 0.000000
# 5 0.000000 0.000000 0.000000 0.000000 0.033489 0.000000
# 6 0.000000 0.000000 0.000000 0.000000 0.000000 0.034409
#
#
# Mechanical properties :
#
#
# Convention : Reuss Voigt Hill
#
# Bulk Modulus (GPa) = 39.77743 47.86137 43.81940
# Shear Modulus (GPa) = -43.06372 21.10180 -10.98096
#
# Velocity S-wave (km/s) = -4.77110 3.33982 -2.40926
# Velocity P-wave (km/s) = 3.05368 6.33814 3.92728
#
# Compressibility (1/GPa) = 0.02513989
#
# Stress axis : x y z
#
# Youngs Moduli (GPa) = 59.95066 66.33497 45.83081
#
# Poissons Ratio (x) = 0.55971 0.24536
# Poissons Ratio (y) = 0.50584 0.01954
# Poissons Ratio (z) = 0.32095 0.02828
#
# Static dielectric constant tensor:
#      x y z
#    x 3.809340 0.000000 0.000000 
#    y 0.000000 3.490880 0.000000 
#    z 0.000000 0.000000 3.209000 
# 
# 
# High freq. dielectric constant tensor:
#      x y z
#    x 1.760780 0.000000 0.000000 
#    y 0.000000 1.734130 0.000000 
#    z 0.000000 0.000000 1.697880 
# 
# From -- ./inp_files/36983.got.cif
#   From: 2010.03.12/outbox.cif.g09.slc.cpg/sg64_19_cif.got.tgz:36983.got - 2010.04.10 20:19:32.
