data_PCOD8262086
_publ_section_title
;
Structure prediction by ZEFSAII (Michael W. Deem and Ramdas Pophale) SiO2 
 PCOD8262086
Probable space group: C M C A
;
_chemical_formula_sum "Si O2"
_cell_formula_units_Z 96
_cell_length_a 9.013702
_cell_length_b 20.317479
_cell_length_c 28.301841
_cell_angle_alpha 90.000000
_cell_angle_beta 90.000000
_cell_angle_gamma 90.000000
_cell_volume 5183.077494
_symmetry_space_group_name_H-M "C M C A"
_symmetry_group_IT_number 64
_symmetry_cell_setting 'orthorhombic'
loop_
_space_group_symop_operation_xyz
x,y,z
-x,1/2-y,1/2+z
x,-y,-z
-x,1/2+y,1/2-z
-x,-y,-z
x,1/2+y,1/2-z
-x,y,z
x,1/2-y,1/2+z
1/2+x,1/2+y,z
1/2-x,-y,1/2+z
1/2+x,1/2-y,-z
1/2-x,y,1/2-z
1/2-x,1/2-y,-z
1/2+x,y,1/2-z
1/2-x,1/2+y,z
1/2+x,-y,1/2+z
loop_
_atom_site_type_symbol
_atom_site_label
_atom_site_fract_x
_atom_site_fract_y
_atom_site_fract_z
Si Si1 0.824039 0.753253 0.200106
Si Si2 0.829914 0.978582 0.797091
Si Si3 0.176488 0.433473 0.443194
Si Si4 0.328786 0.353929 0.861459
Si Si5 0.323382 0.110826 0.656031
Si Si6 0.824155 0.419518 0.546058
O O1 0.750000 0.736396 0.250000
O O2 0.777023 0.699683 0.161706
O O3 0.764899 0.823655 0.181622
O O4 0.000000 0.751758 0.206308
O O5 0.750000 0.954527 0.750000
O O6 0.762214 0.047582 0.815614
O O7 0.000000 0.988606 0.784083
O O8 0.808012 0.923987 0.836711
O O9 0.237085 0.392470 0.398123
O O10 0.239212 0.508067 0.441271
O O11 0.227382 0.399591 0.492810
O O12 0.000000 0.436029 0.441066
O O13 0.500000 0.330525 0.858415
O O14 0.273421 0.364932 0.915618
O O15 0.500000 0.109979 0.655358
O O16 0.000000 0.424447 0.548676
#
# Coordination Sequence:
#
# PCOD8262086 Si02
#       6
#    16  16  16  16  16  16
#     4  11  23  37  52  70  98 138 173 205 250 302
#     4  10  19  31  49  72  96 123 161 210 255 291
#     4   8  12  23  46  76 104 127 159 203 251 294
#     4  10  19  33  52  76 104 131 164 207 251 295
#     4   9  17  31  49  71  99 129 164 207 252 295
#     4   8  13  23  46  78 105 128 158 203 250 292
#
# _framework density 18.521813999999999
#
# number of rings (size 3 to 8) (size 9 to 14) (size 15 to 20)
#    0.000    2.667    1.667    2.500    0.000    2.000 
#    0.000    1.667    0.000    0.000    0.000    4.667 
#    0.000    0.000    0.000    0.000    0.000    0.000 
#
# Total GULP energy -594906.907001 kJ/mol
# GULP energy per Si atom -12393.893896 kJ/mol
# Density = 1.847966 g / cm^3
# Si number density = 18.521814 Si / 1000 Ang^3
#
#
#
# Elastic Constant Matrix: (Units=GPa)
#
#
# Indices 1 2 3 4 5 6 
#
# 1 29.6584 17.4232 16.6455 0.0000 0.0000 0.0000
# 2 17.4232 60.8346 4.8083 0.0000 0.0000 0.0000
# 3 16.6455 4.8083 96.6138 0.0000 0.0000 0.0000
# 4 0.0000 0.0000 0.0000 30.9897 0.0000 0.0000
# 5 0.0000 0.0000 0.0000 0.0000 12.5995 0.0000
# 6 0.0000 0.0000 0.0000 0.0000 0.0000 16.1045
#
#
#
# Elastic Compliance Matrix: (Units=1/GPa)
#
#
# Indices 1 2 3 4 5 6 
#
# 1 0.044952 -0.012311 -0.007132 0.000000 0.000000 0.000000
# 2 -0.012311 0.019874 0.001132 0.000000 0.000000 0.000000
# 3 -0.007132 0.001132 0.011523 0.000000 0.000000 0.000000
# 4 0.000000 0.000000 0.000000 0.032269 0.000000 0.000000
# 5 0.000000 0.000000 0.000000 0.000000 0.079368 0.000000
# 6 0.000000 0.000000 0.000000 0.000000 0.000000 0.062095
#
#
# Mechanical properties :
#
#
# Convention : Reuss Voigt Hill
#
# Bulk Modulus (GPa) = 25.17140 29.42901 27.30021
# Shear Modulus (GPa) = 16.66968 21.82071 19.24519
#
# Velocity S-wave (km/s) = 3.00326 3.43608 3.22694
# Velocity P-wave (km/s) = 5.06416 5.62721 5.35310
#
# Compressibility (1/GPa) = 0.03972762
#
# Stress axis : x y z
#
# Youngs Moduli (GPa) = 22.24585 50.31601 86.78342
#
# Poissons Ratio (x) = 0.61943 0.61895
# Poissons Ratio (y) = 0.27386 -0.09823
# Poissons Ratio (z) = 0.15866 -0.05695
#
# Static dielectric constant tensor:
#      x y z
#    x 2.859480 0.000000 0.000000 
#    y 0.000000 3.388190 0.000000 
#    z 0.000000 0.000000 3.907260 
# 
# 
# High freq. dielectric constant tensor:
#      x y z
#    x 1.660220 0.000000 0.000000 
#    y 0.000000 1.702830 0.000000 
#    z 0.000000 0.000000 1.741160 
# 
# From -- ./inp_files/48084.got.cif
#   From: 2010.03.12/outbox.cif.g09.slc.cpg/sg64_25_cif.got.tgz:48084.got - 2010.04.10 20:19:32.
