data_PCOD8262602
_publ_section_title
;
Structure prediction by ZEFSAII (Michael W. Deem and Ramdas Pophale) SiO2 
 PCOD8262602
Probable space group: C M C A
;
_chemical_formula_sum "Si O2"
_cell_formula_units_Z 88
_cell_length_a 10.412471
_cell_length_b 13.877486
_cell_length_c 33.053476
_cell_angle_alpha 90.000000
_cell_angle_beta 90.000000
_cell_angle_gamma 90.000000
_cell_volume 4776.191602
_symmetry_space_group_name_H-M "C M C A"
_symmetry_group_IT_number 64
_symmetry_cell_setting 'orthorhombic'
loop_
_space_group_symop_operation_xyz
x,y,z
-x,1/2-y,1/2+z
x,-y,-z
-x,1/2+y,1/2-z
-x,-y,-z
x,1/2+y,1/2-z
-x,y,z
x,1/2-y,1/2+z
1/2+x,1/2+y,z
1/2-x,-y,1/2+z
1/2+x,1/2-y,-z
1/2-x,y,1/2-z
1/2-x,1/2-y,-z
1/2+x,y,1/2-z
1/2-x,1/2+y,z
1/2+x,-y,1/2+z
loop_
_atom_site_type_symbol
_atom_site_label
_atom_site_fract_x
_atom_site_fract_y
_atom_site_fract_z
Si Si1 0.771106 0.057940 0.647176
Si Si2 0.646473 0.862647 0.649976
Si Si3 0.000000 0.017818 0.403682
Si Si4 0.500000 0.292508 0.548257
Si Si5 0.254646 0.725498 0.912482
Si Si6 0.147693 0.797398 0.285641
Si Si7 0.500000 0.339110 0.455516
O O1 0.711023 0.137213 0.617269
O O2 0.829197 0.109596 0.686364
O O3 0.668226 0.975883 0.659292
O O4 0.879332 0.999890 0.624209
O O5 0.500000 0.846296 0.636492
O O6 0.736297 0.822759 0.613806
O O7 0.673390 0.801634 0.690473
O O8 0.000000 0.126002 0.418115
O O9 0.000000 0.950706 0.443338
O O10 0.628543 0.230944 0.555832
O O11 0.500000 0.333521 0.503498
O O12 0.125357 0.711370 0.937677
O O13 0.250000 0.801599 0.250000
O O14 0.000000 0.800916 0.269625
#
# Coordination Sequence:
#
# PCOD8262602 Si02
#       7
#    16  16   8   8  16  16   8
#     4  10  20  38  61  83 112 152 190 231 282 338
#     4  10  20  38  61  80 112 155 191 227 283 342
#     4  10  19  36  60  81 108 155 199 228 275 348
#     4  12  21  34  57  91 113 142 200 254 277 324
#     4  10  21  36  58  82 115 152 192 235 285 345
#     4  10  22  41  60  86 117 150 185 230 285 341
#     4  10  21  38  55  78 119 163 183 232 302 344
#
# _framework density 18.424721000000002
#
# number of rings (size 3 to 8) (size 9 to 14) (size 15 to 20)
#    0.000    1.818    3.636    0.818    1.273    1.455 
#    6.545    1.818    0.000    1.091    0.000    0.000 
#    0.000    0.000    0.000    0.000    0.000    0.000 
#
# Total GULP energy -545519.169252 kJ/mol
# GULP energy per Si atom -12398.162938 kJ/mol
# Density = 1.838279 g / cm^3
# Si number density = 18.424721 Si / 1000 Ang^3
#
#
#
# Elastic Constant Matrix: (Units=GPa)
#
#
# Indices 1 2 3 4 5 6 
#
# 1 101.3585 29.0178 42.9943 0.0000 0.0000 0.0000
# 2 29.0178 95.4585 26.7567 0.0000 0.0000 0.0000
# 3 42.9943 26.7567 88.2202 0.0000 0.0000 0.0000
# 4 0.0000 0.0000 0.0000 15.9830 0.0000 0.0000
# 5 0.0000 0.0000 0.0000 0.0000 38.6856 0.0000
# 6 0.0000 0.0000 0.0000 0.0000 0.0000 29.2627
#
#
#
# Elastic Compliance Matrix: (Units=1/GPa)
#
#
# Indices 1 2 3 4 5 6 
#
# 1 0.012906 -0.002361 -0.005574 0.000000 0.000000 0.000000
# 2 -0.002361 0.011881 -0.002453 0.000000 0.000000 0.000000
# 3 -0.005574 -0.002453 0.014796 0.000000 0.000000 0.000000
# 4 0.000000 0.000000 0.000000 0.062567 0.000000 0.000000
# 5 0.000000 0.000000 0.000000 0.000000 0.025849 0.000000
# 6 0.000000 0.000000 0.000000 0.000000 0.000000 0.034173
#
#
# Mechanical properties :
#
#
# Convention : Reuss Voigt Hill
#
# Bulk Modulus (GPa) = 53.16992 53.61941 53.39466
# Shear Modulus (GPa) = 26.42480 29.20415 27.81447
#
# Velocity S-wave (km/s) = 3.79120 3.98559 3.88961
# Velocity P-wave (km/s) = 6.93432 7.09542 7.01533
#
# Compressibility (1/GPa) = 0.01880763
#
# Stress axis : x y z
#
# Youngs Moduli (GPa) = 77.48232 84.16823 67.58775
#
# Poissons Ratio (x) = 0.19872 0.37672
# Poissons Ratio (y) = 0.18293 0.16578
# Poissons Ratio (z) = 0.43187 0.20645
#
# Static dielectric constant tensor:
#      x y z
#    x 3.388600 0.000000 0.000000 
#    y 0.000000 3.427870 0.000000 
#    z 0.000000 0.000000 3.233560 
# 
# 
# High freq. dielectric constant tensor:
#      x y z
#    x 1.720480 0.000000 0.000000 
#    y 0.000000 1.718350 0.000000 
#    z 0.000000 0.000000 1.704100 
# 
# From -- ./inp_files/52679.got.cif
#   From: 2010.03.12/outbox.cif.g09.slc.cpg/sg64_27_cif.got.tgz:52679.got - 2010.04.10 20:19:32.
