data_PCOD8262357
_publ_section_title
;
Structure prediction by ZEFSAII (Michael W. Deem and Ramdas Pophale) SiO2 
 PCOD8262357
Probable space group: C M C A
;
_chemical_formula_sum "Si O2"
_cell_formula_units_Z 64
_cell_length_a 16.218907
_cell_length_b 21.350595
_cell_length_c 8.592599
_cell_angle_alpha 90.000000
_cell_angle_beta 90.000000
_cell_angle_gamma 90.000000
_cell_volume 2975.473664
_symmetry_space_group_name_H-M "C M C A"
_symmetry_group_IT_number 64
_symmetry_cell_setting 'orthorhombic'
loop_
_space_group_symop_operation_xyz
x,y,z
-x,1/2-y,1/2+z
x,-y,-z
-x,1/2+y,1/2-z
-x,-y,-z
x,1/2+y,1/2-z
-x,y,z
x,1/2-y,1/2+z
1/2+x,1/2+y,z
1/2-x,-y,1/2+z
1/2+x,1/2-y,-z
1/2-x,y,1/2-z
1/2-x,1/2-y,-z
1/2+x,y,1/2-z
1/2-x,1/2+y,z
1/2+x,-y,1/2+z
loop_
_atom_site_type_symbol
_atom_site_label
_atom_site_fract_x
_atom_site_fract_y
_atom_site_fract_z
Si Si1 0.095823 0.562525 0.655953
Si Si2 0.906827 0.308097 0.641951
Si Si3 0.158149 0.691282 0.691013
Si Si4 0.341752 0.434951 0.812937
O O1 0.122095 0.624512 0.752583
O O2 0.151442 0.562883 0.500337
O O3 0.114940 0.498729 0.752317
O O4 0.000000 0.565142 0.610065
O O5 0.898361 0.247125 0.746847
O O6 0.844810 0.305138 0.495918
O O7 0.886046 0.370700 0.743332
O O8 0.000000 0.312907 0.579488
O O9 0.250000 0.700978 0.750000
O O10 0.250000 0.433804 0.750000
#
# Coordination Sequence:
#
# PCOD8262357 Si02
#       4
#    16  16  16  16
#     4  10  20  38  59  83 112 150 191 234 284 343
#     4  11  22  39  59  84 115 154 192 233 285 345
#     4  11  22  37  59  87 116 149 191 239 287 337
#     4  10  19  33  56  84 110 142 187 236 280 331
#
# _framework density 21.509180000000001
#
# number of rings (size 3 to 8) (size 9 to 14) (size 15 to 20)
#    0.000    1.500    0.000    9.000    0.000    2.000 
#    0.000    0.000    0.000    0.000    0.000   36.750 
#    0.000    0.000    0.000    0.000    0.000    0.000 
#
# Total GULP energy -396613.757879 kJ/mol
# GULP energy per Si atom -12394.179934 kJ/mol
# Density = 2.146022 g / cm^3
# Si number density = 21.509180 Si / 1000 Ang^3
#
#
#
# Elastic Constant Matrix: (Units=GPa)
#
#
# Indices 1 2 3 4 5 6 
#
# 1 147.3445 46.3397 33.3512 0.0000 0.0000 0.0000
# 2 46.3397 241.2980 31.8004 0.0000 0.0000 0.0000
# 3 33.3512 31.8004 31.4917 0.0000 0.0000 0.0000
# 4 0.0000 0.0000 0.0000 29.5748 0.0000 0.0000
# 5 0.0000 0.0000 0.0000 0.0000 29.0169 0.0000
# 6 0.0000 0.0000 0.0000 0.0000 0.0000 35.1999
#
#
#
# Elastic Compliance Matrix: (Units=1/GPa)
#
#
# Indices 1 2 3 4 5 6 
#
# 1 0.008988 -0.000544 -0.008969 0.000000 0.000000 0.000000
# 2 -0.000544 0.004813 -0.004284 0.000000 0.000000 0.000000
# 3 -0.008969 -0.004284 0.045580 0.000000 0.000000 0.000000
# 4 0.000000 0.000000 0.000000 0.033813 0.000000 0.000000
# 5 0.000000 0.000000 0.000000 0.000000 0.034463 0.000000
# 6 0.000000 0.000000 0.000000 0.000000 0.000000 0.028409
#
#
# Mechanical properties :
#
#
# Convention : Reuss Voigt Hill
#
# Bulk Modulus (GPa) = 31.46082 71.45740 51.45911
# Shear Modulus (GPa) = 25.73912 39.33452 32.53682
#
# Velocity S-wave (km/s) = 3.46303 4.28101 3.89356
# Velocity P-wave (km/s) = 5.53611 7.59802 6.64750
#
# Compressibility (1/GPa) = 0.03178556
#
# Stress axis : x y z
#
# Youngs Moduli (GPa) = 111.25774 207.75476 21.93951
#
# Poissons Ratio (x) = 0.11303 0.19679
# Poissons Ratio (y) = 0.06053 0.09400
# Poissons Ratio (z) = 0.99792 0.89010
#
# Static dielectric constant tensor:
#      x y z
#    x 3.723420 0.000000 0.000000 
#    y 0.000000 5.135590 0.000000 
#    z 0.000000 0.000000 3.259990 
# 
# 
# High freq. dielectric constant tensor:
#      x y z
#    x 1.845330 0.000000 0.000000 
#    y 0.000000 1.893410 0.000000 
#    z 0.000000 0.000000 1.780950 
# 
# From -- ./inp_files/5559.got.cif
#   From: 2010.03.12/outbox.cif.g09.slc.cpg/sg64_3_cif.got.tgz:5559.got - 2010.04.10 20:19:32.
