data_PCOD8262881
_publ_section_title
;
Structure prediction by ZEFSAII (Michael W. Deem and Ramdas Pophale) SiO2 
 PCOD8262881
Probable space group: C M C A
;
_chemical_formula_sum "Si O2"
_cell_formula_units_Z 96
_cell_length_a 9.133578
_cell_length_b 22.020951
_cell_length_c 23.090109
_cell_angle_alpha 90.000000
_cell_angle_beta 90.000000
_cell_angle_gamma 90.000000
_cell_volume 4644.115322
_symmetry_space_group_name_H-M "C M C A"
_symmetry_group_IT_number 64
_symmetry_cell_setting 'orthorhombic'
loop_
_space_group_symop_operation_xyz
x,y,z
-x,1/2-y,1/2+z
x,-y,-z
-x,1/2+y,1/2-z
-x,-y,-z
x,1/2+y,1/2-z
-x,y,z
x,1/2-y,1/2+z
1/2+x,1/2+y,z
1/2-x,-y,1/2+z
1/2+x,1/2-y,-z
1/2-x,y,1/2-z
1/2-x,1/2-y,-z
1/2+x,y,1/2-z
1/2-x,1/2+y,z
1/2+x,-y,1/2+z
loop_
_atom_site_type_symbol
_atom_site_label
_atom_site_fract_x
_atom_site_fract_y
_atom_site_fract_z
Si Si1 0.667583 0.102526 0.972224
Si Si2 0.663385 0.348529 0.193308
Si Si3 0.164145 0.967829 0.117163
Si Si4 0.667343 0.659397 0.410828
Si Si5 0.170577 0.568986 0.188902
Si Si6 0.169842 0.779703 0.397776
O O1 0.500000 0.084092 0.960733
O O2 0.765170 0.048636 0.945102
O O3 0.701559 0.168314 0.944677
O O4 0.702681 0.108125 0.040585
O O5 0.500000 0.327040 0.209397
O O6 0.750000 0.367767 0.250000
O O7 0.659303 0.406353 0.152768
O O8 0.745016 0.293235 0.161750
O O9 0.000000 0.993754 0.108119
O O10 0.262355 0.014393 0.152387
O O11 0.500000 0.681431 0.418630
O O12 0.692426 0.630623 0.347597
O O13 0.772881 0.715940 0.422015
O O14 0.250000 0.577028 0.250000
O O15 0.000000 0.554896 0.199866
O O16 0.000000 0.774030 0.383134
#
# Coordination Sequence:
#
# PCOD8262881 Si02
#       6
#    16  16  16  16  16  16
#     4   9  19  37  60  86 115 147 185 230 283 338
#     4  10  20  34  54  80 110 144 184 231 282 334
#     4  10  21  37  59  86 114 145 183 232 285 335
#     4  10  22  39  58  81 113 153 191 230 279 335
#     4  11  24  41  60  81 110 150 191 231 277 331
#     4  10  20  34  56  84 113 147 186 231 281 334
#
# _framework density 20.671322
#
# number of rings (size 3 to 8) (size 9 to 14) (size 15 to 20)
#    0.000    2.000    0.000    3.000    0.000    7.333 
#    0.000    5.000    0.000    0.000    0.000    0.000 
#    0.000    0.000    0.000    0.000    0.000    0.000 
#
# Total GULP energy -595322.776573 kJ/mol
# GULP energy per Si atom -12402.557845 kJ/mol
# Density = 2.062427 g / cm^3
# Si number density = 20.671322 Si / 1000 Ang^3
#
#
#
# Elastic Constant Matrix: (Units=GPa)
#
#
# Indices 1 2 3 4 5 6 
#
# 1 138.6437 31.2816 45.5627 0.0000 0.0000 0.0000
# 2 31.2816 37.7548 17.8732 0.0000 0.0000 0.0000
# 3 45.5627 17.8732 77.5067 0.0000 0.0000 0.0000
# 4 0.0000 0.0000 0.0000 20.2270 0.0000 0.0000
# 5 0.0000 0.0000 0.0000 0.0000 34.5484 0.0000
# 6 0.0000 0.0000 0.0000 0.0000 0.0000 19.3062
#
#
#
# Elastic Compliance Matrix: (Units=1/GPa)
#
#
# Indices 1 2 3 4 5 6 
#
# 1 0.010098 -0.006238 -0.004498 0.000000 0.000000 0.000000
# 2 -0.006238 0.033585 -0.004078 0.000000 0.000000 0.000000
# 3 -0.004498 -0.004078 0.016487 0.000000 0.000000 0.000000
# 4 0.000000 0.000000 0.000000 0.049439 0.000000 0.000000
# 5 0.000000 0.000000 0.000000 0.000000 0.028945 0.000000
# 6 0.000000 0.000000 0.000000 0.000000 0.000000 0.051797
#
#
# Mechanical properties :
#
#
# Convention : Reuss Voigt Hill
#
# Bulk Modulus (GPa) = 32.74053 49.26001 41.00027
# Shear Modulus (GPa) = 21.72412 25.42884 23.57648
#
# Velocity S-wave (km/s) = 3.24532 3.51116 3.38085
# Velocity P-wave (km/s) = 5.46954 6.34976 5.92601
#
# Compressibility (1/GPa) = 0.03054318
#
# Stress axis : x y z
#
# Youngs Moduli (GPa) = 99.02716 29.77493 60.65517
#
# Poissons Ratio (x) = 0.18572 0.27282
# Poissons Ratio (y) = 0.61768 0.24736
# Poissons Ratio (z) = 0.44542 0.12142
#
# Static dielectric constant tensor:
#      x y z
#    x 4.006310 0.000000 0.000000 
#    y 0.000000 3.489620 0.000000 
#    z 0.000000 0.000000 3.832650 
# 
# 
# High freq. dielectric constant tensor:
#      x y z
#    x 1.817570 0.000000 0.000000 
#    y 0.000000 1.795940 0.000000 
#    z 0.000000 0.000000 1.814110 
# 
# From -- ./inp_files/43060.got.cif
#   From: 2010.03.12/outbox.cif.g09.slc.cpg/sg64_22_cif.got.tgz:43060.got - 2010.04.10 20:19:32.
