data_PCOD8262844
_publ_section_title
;
Structure prediction by ZEFSAII (Michael W. Deem and Ramdas Pophale) SiO2 
 PCOD8262844
Probable space group: C M C A
;
_chemical_formula_sum "Si O2"
_cell_formula_units_Z 88
_cell_length_a 14.801725
_cell_length_b 23.676863
_cell_length_c 12.469896
_cell_angle_alpha 90.000000
_cell_angle_beta 90.000000
_cell_angle_gamma 90.000000
_cell_volume 4370.179987
_symmetry_space_group_name_H-M "C M C A"
_symmetry_group_IT_number 64
_symmetry_cell_setting 'orthorhombic'
loop_
_space_group_symop_operation_xyz
x,y,z
-x,1/2-y,1/2+z
x,-y,-z
-x,1/2+y,1/2-z
-x,-y,-z
x,1/2+y,1/2-z
-x,y,z
x,1/2-y,1/2+z
1/2+x,1/2+y,z
1/2-x,-y,1/2+z
1/2+x,1/2-y,-z
1/2-x,y,1/2-z
1/2-x,1/2-y,-z
1/2+x,y,1/2-z
1/2-x,1/2+y,z
1/2+x,-y,1/2+z
loop_
_atom_site_type_symbol
_atom_site_label
_atom_site_fract_x
_atom_site_fract_y
_atom_site_fract_z
Si Si1 0.394681 0.308871 0.031999
Si Si2 0.652265 0.963065 0.594073
Si Si3 0.105123 0.819191 0.583606
Si Si4 0.250000 0.042174 0.750000
Si Si5 0.737612 0.388036 0.446277
Si Si6 0.400363 0.650524 0.188865
O O1 0.500000 0.328085 0.041073
O O2 0.380056 0.247764 0.081608
O O3 0.328838 0.353907 0.089297
O O4 0.361715 0.309830 0.906414
O O5 0.740246 0.934170 0.538649
O O6 0.592606 0.913715 0.646040
O O7 0.602536 0.000000 0.500000
O O8 0.675815 0.003606 0.692518
O O9 0.158950 0.846927 0.486076
O O10 0.149283 0.841888 0.696274
O O11 0.000000 0.835213 0.568490
O O12 0.298544 0.080691 0.840062
O O13 0.500000 0.672877 0.214849
#
# Coordination Sequence:
#
# PCOD8262844 Si02
#       6
#    16  16  16   8  16  16
#     4   9  19  35  54  78 105 134 173 215 253 303
#     4   9  18  33  53  73  99 138 180 221 259 297
#     4  10  20  34  53  79 110 139 168 207 258 316
#     4  10  20  34  52  78 104 134 174 216 264 308
#     4  10  20  35  55  77 105 137 173 213 258 311
#     4   9  18  33  53  77 104 137 176 213 256 311
#
# _framework density 20.136471
#
# number of rings (size 3 to 8) (size 9 to 14) (size 15 to 20)
#    0.000    2.545    0.000    1.636    0.000    4.000 
#    0.000    6.364    0.000    8.182    0.000    0.000 
#    0.000    0.000    0.000    0.000    0.000    0.000 
#
# Total GULP energy -545177.459411 kJ/mol
# GULP energy per Si atom -12390.396805 kJ/mol
# Density = 2.009064 g / cm^3
# Si number density = 20.136471 Si / 1000 Ang^3
#
#
#
# Elastic Constant Matrix: (Units=GPa)
#
#
# Indices 1 2 3 4 5 6 
#
# 1 50.5031 30.8455 28.6325 0.0000 0.0000 0.0000
# 2 30.8455 112.2685 58.3700 0.0000 0.0000 0.0000
# 3 28.6325 58.3700 111.8592 0.0000 0.0000 0.0000
# 4 0.0000 0.0000 0.0000 44.7386 0.0000 0.0000
# 5 0.0000 0.0000 0.0000 0.0000 16.6692 0.0000
# 6 0.0000 0.0000 0.0000 0.0000 0.0000 23.0620
#
#
#
# Elastic Compliance Matrix: (Units=1/GPa)
#
#
# Indices 1 2 3 4 5 6 
#
# 1 0.024949 -0.004850 -0.003855 0.000000 0.000000 0.000000
# 2 -0.004850 0.013166 -0.005629 0.000000 0.000000 0.000000
# 3 -0.003855 -0.005629 0.012864 0.000000 0.000000 0.000000
# 4 0.000000 0.000000 0.000000 0.022352 0.000000 0.000000
# 5 0.000000 0.000000 0.000000 0.000000 0.059991 0.000000
# 6 0.000000 0.000000 0.000000 0.000000 0.000000 0.043361
#
#
# Mechanical properties :
#
#
# Convention : Reuss Voigt Hill
#
# Bulk Modulus (GPa) = 44.82224 56.70296 50.76260
# Shear Modulus (GPa) = 23.49748 27.34615 25.42181
#
# Velocity S-wave (km/s) = 3.41971 3.68916 3.55699
# Velocity P-wave (km/s) = 6.15631 6.80933 6.49104
#
# Compressibility (1/GPa) = 0.02231035
#
# Stress axis : x y z
#
# Youngs Moduli (GPa) = 40.08211 75.95119 77.73713
#
# Poissons Ratio (x) = 0.36838 0.29969
# Poissons Ratio (y) = 0.19441 0.43757
# Poissons Ratio (z) = 0.15452 0.42752
#
# Static dielectric constant tensor:
#      x y z
#    x 3.340640 0.000000 0.000000 
#    y 0.000000 3.751260 0.000000 
#    z 0.000000 0.000000 3.829890 
# 
# 
# High freq. dielectric constant tensor:
#      x y z
#    x 1.753520 0.000000 0.000000 
#    y 0.000000 1.792080 0.000000 
#    z 0.000000 0.000000 1.790070 
# 
# From -- ./inp_files/14576.got.cif
#   From: 2010.03.12/outbox.cif.g09.slc.cpg/sg64_8_cif.got.tgz:14576.got - 2010.04.10 20:19:32.
