data_PCOD8262828
_publ_section_title
;
Structure prediction by ZEFSAII (Michael W. Deem and Ramdas Pophale) SiO2 
 PCOD8262828
Probable space group: C M C A
;
_chemical_formula_sum "Si O2"
_cell_formula_units_Z 80
_cell_length_a 8.894747
_cell_length_b 27.344888
_cell_length_c 18.780882
_cell_angle_alpha 90.000000
_cell_angle_beta 90.000000
_cell_angle_gamma 90.000000
_cell_volume 4567.996185
_symmetry_space_group_name_H-M "C M C A"
_symmetry_group_IT_number 64
_symmetry_cell_setting 'orthorhombic'
loop_
_space_group_symop_operation_xyz
x,y,z
-x,1/2-y,1/2+z
x,-y,-z
-x,1/2+y,1/2-z
-x,-y,-z
x,1/2+y,1/2-z
-x,y,z
x,1/2-y,1/2+z
1/2+x,1/2+y,z
1/2-x,-y,1/2+z
1/2+x,1/2-y,-z
1/2-x,y,1/2-z
1/2-x,1/2-y,-z
1/2+x,y,1/2-z
1/2-x,1/2+y,z
1/2+x,-y,1/2+z
loop_
_atom_site_type_symbol
_atom_site_label
_atom_site_fract_x
_atom_site_fract_y
_atom_site_fract_z
Si Si1 0.320228 0.831764 0.677472
Si Si2 0.179265 0.702034 0.033102
Si Si3 0.664986 0.565006 0.128815
Si Si4 0.666935 0.610152 0.974194
Si Si5 0.832379 0.022418 0.578610
O O1 0.500000 0.825132 0.674465
O O2 0.250000 0.810056 0.750000
O O3 0.246496 0.803144 0.612067
O O4 0.273741 0.889154 0.674236
O O5 0.000000 0.705400 0.036828
O O6 0.250000 0.750000 0.000000
O O7 0.225898 0.656999 0.982377
O O8 0.500000 0.549501 0.155857
O O9 0.771330 0.517692 0.134935
O O10 0.654251 0.582104 0.047940
O O11 0.500000 0.626511 0.949138
O O12 0.735786 0.572245 0.916982
O O13 0.000000 0.035871 0.601940
O O14 0.829281 0.000000 0.500000
#
# Coordination Sequence:
#
# PCOD8262828 Si02
#       5
#    16  16  16  16  16
#     4  10  20  34  51  73 100 131 166 204 251 305
#     4  11  21  34  51  72  99 130 167 213 262 308
#     4   8  15  26  40  60  89 122 153 187 229 279
#     4   9  16  27  42  62  90 122 155 193 239 287
#     4   9  15  22  36  60  88 118 151 184 221 268
#
# _framework density 17.513148000000001
#
# number of rings (size 3 to 8) (size 9 to 14) (size 15 to 20)
#    0.000    2.600    0.000    4.800    0.000    8.000 
#    0.000    0.000    0.000    0.000    0.000    1.400 
#    0.000    3.200    0.000    0.000    0.000    0.000 
#
# Total GULP energy -495779.991216 kJ/mol
# GULP energy per Si atom -12394.499780 kJ/mol
# Density = 1.747329 g / cm^3
# Si number density = 17.513148 Si / 1000 Ang^3
#
#
#
# Elastic Constant Matrix: (Units=GPa)
#
#
# Indices 1 2 3 4 5 6 
#
# 1 148.6235 62.0512 43.1133 0.0000 0.0000 0.0000
# 2 62.0512 103.0939 44.0577 0.0000 0.0000 0.0000
# 3 43.1133 44.0577 53.4452 0.0000 0.0000 0.0000
# 4 0.0000 0.0000 0.0000 14.5899 0.0000 0.0000
# 5 0.0000 0.0000 0.0000 0.0000 18.6227 0.0000
# 6 0.0000 0.0000 0.0000 0.0000 0.0000 31.9748
#
#
#
# Elastic Compliance Matrix: (Units=1/GPa)
#
#
# Indices 1 2 3 4 5 6 
#
# 1 0.009679 -0.003843 -0.004640 0.000000 0.000000 0.000000
# 2 -0.003843 0.016501 -0.010503 0.000000 0.000000 0.000000
# 3 -0.004640 -0.010503 0.031112 0.000000 0.000000 0.000000
# 4 0.000000 0.000000 0.000000 0.068540 0.000000 0.000000
# 5 0.000000 0.000000 0.000000 0.000000 0.053698 0.000000
# 6 0.000000 0.000000 0.000000 0.000000 0.000000 0.031275
#
#
# Mechanical properties :
#
#
# Convention : Reuss Voigt Hill
#
# Bulk Modulus (GPa) = 51.75823 67.06743 59.41283
# Shear Modulus (GPa) = 19.59121 23.43351 21.51236
#
# Velocity S-wave (km/s) = 3.34826 3.66191 3.50859
# Velocity P-wave (km/s) = 6.67577 7.50054 7.10014
#
# Compressibility (1/GPa) = 0.01932060
#
# Stress axis : x y z
#
# Youngs Moduli (GPa) = 103.31961 60.60142 32.14195
#
# Poissons Ratio (x) = 0.23287 0.14914
# Poissons Ratio (y) = 0.39702 0.33759
# Poissons Ratio (z) = 0.47940 0.63650
#
# Static dielectric constant tensor:
#      x y z
#    x 3.521590 0.000000 0.000000 
#    y 0.000000 3.279380 0.000000 
#    z 0.000000 0.000000 2.925600 
# 
# 
# High freq. dielectric constant tensor:
#      x y z
#    x 1.695310 0.000000 0.000000 
#    y 0.000000 1.665090 0.000000 
#    z 0.000000 0.000000 1.620350 
# 
# From -- ./inp_files/29986.got.cif
#   From: 2010.03.12/outbox.cif.g09.slc.cpg/sg64_15_cif.got.tgz:29986.got - 2010.04.10 20:19:32.
