data_PCOD8262927
_publ_section_title
;
Structure prediction by ZEFSAII (Michael W. Deem and Ramdas Pophale) SiO2 
 PCOD8262927
Probable space group: C M C A
;
_chemical_formula_sum "Si O2"
_cell_formula_units_Z 104
_cell_length_a 17.584630
_cell_length_b 14.250039
_cell_length_c 22.140077
_cell_angle_alpha 90.000000
_cell_angle_beta 90.000000
_cell_angle_gamma 90.000000
_cell_volume 5547.897320
_symmetry_space_group_name_H-M "C M C A"
_symmetry_group_IT_number 64
_symmetry_cell_setting 'orthorhombic'
loop_
_space_group_symop_operation_xyz
x,y,z
-x,1/2-y,1/2+z
x,-y,-z
-x,1/2+y,1/2-z
-x,-y,-z
x,1/2+y,1/2-z
-x,y,z
x,1/2-y,1/2+z
1/2+x,1/2+y,z
1/2-x,-y,1/2+z
1/2+x,1/2-y,-z
1/2-x,y,1/2-z
1/2-x,1/2-y,-z
1/2+x,y,1/2-z
1/2-x,1/2+y,z
1/2+x,-y,1/2+z
loop_
_atom_site_type_symbol
_atom_site_label
_atom_site_fract_x
_atom_site_fract_y
_atom_site_fract_z
Si Si1 0.912099 0.213998 0.137249
Si Si2 0.913965 0.413120 0.078504
Si Si3 0.830049 0.564854 0.718761
Si Si4 0.210289 0.565197 0.383090
Si Si5 0.703780 0.500000 0.500000
Si Si6 0.366887 0.563293 0.325137
Si Si7 0.584820 0.747500 0.272283
O O1 0.897219 0.319544 0.115677
O O2 0.852523 0.145313 0.104586
O O3 0.889793 0.209063 0.207237
O O4 0.000000 0.183782 0.125049
O O5 0.852667 0.417984 0.024340
O O6 0.902742 0.503850 0.120681
O O7 0.000000 0.413191 0.052816
O O8 0.750000 0.582303 0.750000
O O9 0.828313 0.522105 0.651385
O O10 0.877020 0.496833 0.763609
O O11 0.865106 0.666012 0.706974
O O12 0.241294 0.538123 0.448433
O O13 0.279938 0.593922 0.339106
O O14 0.411016 0.661272 0.318994
O O15 0.500000 0.786804 0.268487
#
# Coordination Sequence:
#
# PCOD8262927 Si02
#       7
#    16  16  16  16   8  16  16
#     4  10  21  35  58  87 115 149 187 230 289 349
#     4  10  20  38  60  86 116 148 190 241 287 336
#     4  10  21  34  55  82 116 150 184 229 285 340
#     4  10  22  39  58  83 114 151 198 239 279 334
#     4  10  23  40  59  80 108 156 204 240 283 324
#     4  10  20  34  57  86 117 151 183 232 287 344
#     4  11  22  33  54  89 122 151 180 221 288 358
#
# _framework density 18.745840999999999
#
# number of rings (size 3 to 8) (size 9 to 14) (size 15 to 20)
#    0.000    1.846    3.077    0.692    2.154    1.846 
#    0.000    1.923    0.000    3.692    0.000    0.000 
#    0.000    0.000    0.000    0.000    0.000    0.000 
#
# Total GULP energy -644705.306943 kJ/mol
# GULP energy per Si atom -12398.178980 kJ/mol
# Density = 1.870317 g / cm^3
# Si number density = 18.745841 Si / 1000 Ang^3
#
#
#
# Elastic Constant Matrix: (Units=GPa)
#
#
# Indices 1 2 3 4 5 6 
#
# 1 69.6557 39.5352 25.0675 0.0000 0.0000 0.0000
# 2 39.5352 108.5629 31.6341 0.0000 0.0000 0.0000
# 3 25.0675 31.6341 91.6722 0.0000 0.0000 0.0000
# 4 0.0000 0.0000 0.0000 17.1289 0.0000 0.0000
# 5 0.0000 0.0000 0.0000 0.0000 25.5569 0.0000
# 6 0.0000 0.0000 0.0000 0.0000 0.0000 20.5767
#
#
#
# Elastic Compliance Matrix: (Units=1/GPa)
#
#
# Indices 1 2 3 4 5 6 
#
# 1 0.018856 -0.005964 -0.003098 0.000000 0.000000 0.000000
# 2 -0.005964 0.012127 -0.002554 0.000000 0.000000 0.000000
# 3 -0.003098 -0.002554 0.012637 0.000000 0.000000 0.000000
# 4 0.000000 0.000000 0.000000 0.058381 0.000000 0.000000
# 5 0.000000 0.000000 0.000000 0.000000 0.039128 0.000000
# 6 0.000000 0.000000 0.000000 0.000000 0.000000 0.048599
#
#
# Mechanical properties :
#
#
# Convention : Reuss Voigt Hill
#
# Bulk Modulus (GPa) = 49.04808 51.37382 50.21095
# Shear Modulus (GPa) = 22.75239 24.22945 23.49092
#
# Velocity S-wave (km/s) = 3.48764 3.59907 3.54379
# Velocity P-wave (km/s) = 6.51458 6.68850 6.60211
#
# Compressibility (1/GPa) = 0.02038816
#
# Stress axis : x y z
#
# Youngs Moduli (GPa) = 53.03241 82.45769 79.13305
#
# Poissons Ratio (x) = 0.49179 0.24516
# Poissons Ratio (y) = 0.31629 0.20211
# Poissons Ratio (z) = 0.16430 0.21060
#
# Static dielectric constant tensor:
#      x y z
#    x 3.554960 0.000000 0.000000 
#    y 0.000000 3.283720 0.000000 
#    z 0.000000 0.000000 3.323280 
# 
# 
# High freq. dielectric constant tensor:
#      x y z
#    x 1.735140 0.000000 0.000000 
#    y 0.000000 1.723580 0.000000 
#    z 0.000000 0.000000 1.709590 
# 
# From -- ./inp_files/40262.got.cif
#   From: 2010.03.12/outbox.cif.g09.slc.cpg/sg64_21_cif.got.tgz:40262.got - 2010.04.10 20:19:32.
