data_PCOD8262215
_publ_section_title
;
Structure prediction by ZEFSAII (Michael W. Deem and Ramdas Pophale) SiO2 
 PCOD8262215
Probable space group: C M C A
;
_chemical_formula_sum "Si O2"
_cell_formula_units_Z 96
_cell_length_a 19.369112
_cell_length_b 22.235130
_cell_length_c 12.484172
_cell_angle_alpha 90.000000
_cell_angle_beta 90.000000
_cell_angle_gamma 90.000000
_cell_volume 5376.617322
_symmetry_space_group_name_H-M "C M C A"
_symmetry_group_IT_number 64
_symmetry_cell_setting 'orthorhombic'
loop_
_space_group_symop_operation_xyz
x,y,z
-x,1/2-y,1/2+z
x,-y,-z
-x,1/2+y,1/2-z
-x,-y,-z
x,1/2+y,1/2-z
-x,y,z
x,1/2-y,1/2+z
1/2+x,1/2+y,z
1/2-x,-y,1/2+z
1/2+x,1/2-y,-z
1/2-x,y,1/2-z
1/2-x,1/2-y,-z
1/2+x,y,1/2-z
1/2-x,1/2+y,z
1/2+x,-y,1/2+z
loop_
_atom_site_type_symbol
_atom_site_label
_atom_site_fract_x
_atom_site_fract_y
_atom_site_fract_z
Si Si1 0.647631 0.145632 0.953211
Si Si2 0.077107 0.678416 0.172372
Si Si3 0.684023 0.755326 0.690538
Si Si4 0.260063 0.378683 0.895220
Si Si5 0.859097 0.572188 0.255312
Si Si6 0.080858 0.528598 0.883956
O O1 0.652675 0.206321 0.887576
O O2 0.610313 0.095615 0.880514
O O3 0.599099 0.160101 0.053203
O O4 0.724233 0.120578 0.987627
O O5 0.126036 0.729300 0.221648
O O6 0.075933 0.617436 0.246529
O O7 0.000000 0.704502 0.169184
O O8 0.750000 0.726942 0.750000
O O9 0.707958 0.812853 0.622297
O O10 0.197586 0.391178 0.813908
O O11 0.322218 0.428290 0.874145
O O12 0.878160 0.507076 0.209601
O O13 0.000000 0.527896 0.857461
O O14 0.096311 0.500000 0.000000
#
# Coordination Sequence:
#
# PCOD8262215 Si02
#       6
#    16  16  16  16  16  16
#     4  11  21  33  55  79 112 149 189 231 284 345
#     4  10  19  32  52  77 108 145 182 229 280 337
#     4  11  20  36  53  80 107 148 188 232 281 330
#     4   9  16  32  54  73 102 139 182 224 270 328
#     4   9  16  31  52  75 103 138 179 226 272 333
#     4  11  20  32  51  79 109 140 177 228 283 333
#
# _framework density 17.855091999999999
#
# number of rings (size 3 to 8) (size 9 to 14) (size 15 to 20)
#    0.000    1.833    8.333    1.500    0.000    1.333 
#    3.000    0.000    0.000    0.000    0.000    0.000 
#    0.000    1.333    0.000    0.500    0.000    0.000 
#
# Total GULP energy -594635.249644 kJ/mol
# GULP energy per Si atom -12388.234368 kJ/mol
# Density = 1.781445 g / cm^3
# Si number density = 17.855092 Si / 1000 Ang^3
#
#
#
# Elastic Constant Matrix: (Units=GPa)
#
#
# Indices 1 2 3 4 5 6 
#
# 1 110.0312 55.2443 35.0806 0.0000 0.0000 0.0000
# 2 55.2443 96.6808 33.6910 0.0000 0.0000 0.0000
# 3 35.0806 33.6910 38.0223 0.0000 0.0000 0.0000
# 4 0.0000 0.0000 0.0000 32.0157 0.0000 0.0000
# 5 0.0000 0.0000 0.0000 0.0000 14.2724 0.0000
# 6 0.0000 0.0000 0.0000 0.0000 0.0000 17.8935
#
#
#
# Elastic Compliance Matrix: (Units=1/GPa)
#
#
# Indices 1 2 3 4 5 6 
#
# 1 0.014507 -0.005245 -0.008738 0.000000 0.000000 0.000000
# 2 -0.005245 0.016860 -0.010100 0.000000 0.000000 0.000000
# 3 -0.008738 -0.010100 0.043312 0.000000 0.000000 0.000000
# 4 0.000000 0.000000 0.000000 0.031235 0.000000 0.000000
# 5 0.000000 0.000000 0.000000 0.000000 0.070065 0.000000
# 6 0.000000 0.000000 0.000000 0.000000 0.000000 0.055886
#
#
# Mechanical properties :
#
#
# Convention : Reuss Voigt Hill
#
# Bulk Modulus (GPa) = 37.71660 54.75177 46.23419
# Shear Modulus (GPa) = 17.30890 20.88421 19.09655
#
# Velocity S-wave (km/s) = 3.11691 3.42373 3.27391
# Velocity P-wave (km/s) = 5.84150 6.80884 6.34363
#
# Compressibility (1/GPa) = 0.02651352
#
# Stress axis : x y z
#
# Youngs Moduli (GPa) = 68.93025 59.31208 23.08843
#
# Poissons Ratio (x) = 0.31108 0.20174
# Poissons Ratio (y) = 0.36153 0.23320
# Poissons Ratio (z) = 0.60229 0.59907
#
# Static dielectric constant tensor:
#      x y z
#    x 3.648470 0.000000 0.000000 
#    y 0.000000 3.130750 0.000000 
#    z 0.000000 0.000000 3.226500 
# 
# 
# High freq. dielectric constant tensor:
#      x y z
#    x 1.697370 0.000000 0.000000 
#    y 0.000000 1.675160 0.000000 
#    z 0.000000 0.000000 1.648980 
# 
# From -- ./inp_files/17358.got.cif
#   From: 2010.03.12/outbox.cif.g09.slc.cpg/sg64_9_cif.got.tgz:17358.got - 2010.04.10 20:19:32.
