data_PCOD8262226
_publ_section_title
;
Structure prediction by ZEFSAII (Michael W. Deem and Ramdas Pophale) SiO2 
 PCOD8262226
Probable space group: C M C A
;
_chemical_formula_sum "Si O2"
_cell_formula_units_Z 72
_cell_length_a 16.508848
_cell_length_b 14.147106
_cell_length_c 17.967809
_cell_angle_alpha 90.000000
_cell_angle_beta 90.000000
_cell_angle_gamma 90.000000
_cell_volume 4196.425321
_symmetry_space_group_name_H-M "C M C A"
_symmetry_group_IT_number 64
_symmetry_cell_setting 'orthorhombic'
loop_
_space_group_symop_operation_xyz
x,y,z
-x,1/2-y,1/2+z
x,-y,-z
-x,1/2+y,1/2-z
-x,-y,-z
x,1/2+y,1/2-z
-x,y,z
x,1/2-y,1/2+z
1/2+x,1/2+y,z
1/2-x,-y,1/2+z
1/2+x,1/2-y,-z
1/2-x,y,1/2-z
1/2-x,1/2-y,-z
1/2+x,y,1/2-z
1/2-x,1/2+y,z
1/2+x,-y,1/2+z
loop_
_atom_site_type_symbol
_atom_site_label
_atom_site_fract_x
_atom_site_fract_y
_atom_site_fract_z
Si Si1 0.758696 0.183132 0.569829
Si Si2 0.669562 0.764780 0.795100
Si Si3 0.198513 0.500000 0.000000
Si Si4 0.408397 0.654765 0.667033
Si Si5 0.092773 0.442043 0.867589
O O1 0.750000 0.250000 0.500000
O O2 0.690316 0.207324 0.630076
O O3 0.745544 0.074333 0.544423
O O4 0.848619 0.196436 0.604256
O O5 0.750000 0.790602 0.750000
O O6 0.610536 0.698563 0.747348
O O7 0.625033 0.862471 0.812089
O O8 0.142313 0.439619 0.944426
O O9 0.500000 0.680305 0.643363
O O10 0.396596 0.542119 0.673837
O O11 0.000000 0.421362 0.887889
#
# Coordination Sequence:
#
# PCOD8262226 Si02
#       5
#    16  16   8  16  16
#     4  10  19  35  52  81 105 136 172 215 259 309
#     4  10  20  34  54  77 105 137 175 211 261 313
#     4  10  19  32  54  74 109 132 172 216 263 302
#     4   9  20  36  52  76 107 135 172 216 259 307
#     4  10  19  32  53  77 102 135 174 216 260 303
#
# _framework density 17.157458999999999
#
# number of rings (size 3 to 8) (size 9 to 14) (size 15 to 20)
#    0.000    2.222    2.222    1.000    0.000    5.333 
#    0.000    0.000    0.000    0.000    0.000    3.889 
#    0.000    0.000    0.000    0.000    0.000    0.000 
#
# Total GULP energy -446447.469945 kJ/mol
# GULP energy per Si atom -12401.318610 kJ/mol
# Density = 1.711841 g / cm^3
# Si number density = 17.157459 Si / 1000 Ang^3
#
#
#
# Elastic Constant Matrix: (Units=GPa)
#
#
# Indices 1 2 3 4 5 6 
#
# 1 72.3800 47.9610 32.7899 0.0000 0.0000 0.0000
# 2 47.9610 96.7219 57.7497 0.0000 0.0000 0.0000
# 3 32.7899 57.7497 107.6881 0.0000 0.0000 0.0000
# 4 0.0000 0.0000 0.0000 40.6688 0.0000 0.0000
# 5 0.0000 0.0000 0.0000 0.0000 18.3149 0.0000
# 6 0.0000 0.0000 0.0000 0.0000 0.0000 25.7077
#
#
#
# Elastic Compliance Matrix: (Units=1/GPa)
#
#
# Indices 1 2 3 4 5 6 
#
# 1 0.020677 -0.009553 -0.001173 0.000000 0.000000 0.000000
# 2 -0.009553 0.019622 -0.007614 0.000000 0.000000 0.000000
# 3 -0.001173 -0.007614 0.013726 0.000000 0.000000 0.000000
# 4 0.000000 0.000000 0.000000 0.024589 0.000000 0.000000
# 5 0.000000 0.000000 0.000000 0.000000 0.054600 0.000000
# 6 0.000000 0.000000 0.000000 0.000000 0.000000 0.038899
#
#
# Mechanical properties :
#
#
# Convention : Reuss Voigt Hill
#
# Bulk Modulus (GPa) = 57.65023 61.53234 59.59129
# Shear Modulus (GPa) = 23.30188 26.15759 24.72973
#
# Velocity S-wave (km/s) = 3.68927 3.90880 3.80062
# Velocity P-wave (km/s) = 7.19869 7.50418 7.35303
#
# Compressibility (1/GPa) = 0.01734598
#
# Stress axis : x y z
#
# Youngs Moduli (GPa) = 48.36212 50.96390 72.85257
#
# Poissons Ratio (x) = 0.48684 0.08547
# Poissons Ratio (y) = 0.46199 0.55469
# Poissons Ratio (z) = 0.05674 0.38803
#
# Static dielectric constant tensor:
#      x y z
#    x 3.227620 0.000000 0.000000 
#    y 0.000000 3.231430 0.000000 
#    z 0.000000 0.000000 3.299130 
# 
# 
# High freq. dielectric constant tensor:
#      x y z
#    x 1.652360 0.000000 0.000000 
#    y 0.000000 1.663470 0.000000 
#    z 0.000000 0.000000 1.668230 
# 
# From -- ./inp_files/31873.got.cif
#   From: 2010.03.12/outbox.cif.g09.slc.cpg/sg64_16_cif.got.tgz:31873.got - 2010.04.10 20:19:32.
