data_PCOD8262714
_publ_section_title
;
Structure prediction by ZEFSAII (Michael W. Deem and Ramdas Pophale) SiO2 
 PCOD8262714
Probable space group: C M C A
;
_chemical_formula_sum "Si O2"
_cell_formula_units_Z 80
_cell_length_a 20.558692
_cell_length_b 8.671958
_cell_length_c 25.026957
_cell_angle_alpha 90.000000
_cell_angle_beta 90.000000
_cell_angle_gamma 90.000000
_cell_volume 4461.908844
_symmetry_space_group_name_H-M "C M C A"
_symmetry_group_IT_number 64
_symmetry_cell_setting 'orthorhombic'
loop_
_space_group_symop_operation_xyz
x,y,z
-x,1/2-y,1/2+z
x,-y,-z
-x,1/2+y,1/2-z
-x,-y,-z
x,1/2+y,1/2-z
-x,y,z
x,1/2-y,1/2+z
1/2+x,1/2+y,z
1/2-x,-y,1/2+z
1/2+x,1/2-y,-z
1/2-x,y,1/2-z
1/2-x,1/2-y,-z
1/2+x,y,1/2-z
1/2-x,1/2+y,z
1/2+x,-y,1/2+z
loop_
_atom_site_type_symbol
_atom_site_label
_atom_site_fract_x
_atom_site_fract_y
_atom_site_fract_z
Si Si1 0.703843 0.611796 0.702374
Si Si2 0.928594 0.095684 0.824551
Si Si3 0.379980 0.853052 0.752491
Si Si4 0.696451 0.890447 0.393216
Si Si5 0.724717 0.380032 0.538502
O O1 0.750000 0.661471 0.750000
O O2 0.675858 0.442131 0.714119
O O3 0.648256 0.742727 0.705415
O O4 0.742520 0.615702 0.647103
O O5 0.919776 0.261323 0.797190
O O6 0.871354 0.060529 0.866577
O O7 0.000000 0.089805 0.852142
O O8 0.927268 0.970425 0.777417
O O9 0.684983 0.716564 0.416924
O O10 0.715464 0.021131 0.436337
O O11 0.683869 0.500000 0.500000
O O12 0.750000 0.250000 0.500000
#
# Coordination Sequence:
#
# PCOD8262714 Si02
#       5
#    16  16  16  16  16
#     4  11  19  29  52  81 111 129 172 214 263 309
#     4  11  22  33  47  71 109 152 187 201 234 303
#     4  10  20  32  46  72 113 149 173 214 245 290
#     4  11  19  31  56  77 102 135 167 211 268 311
#     4   9  20  36  54  79 100 119 160 226 287 317
#
# _framework density 17.929546999999999
#
# number of rings (size 3 to 8) (size 9 to 14) (size 15 to 20)
#    0.000    1.600    4.000    3.600    0.000    0.000 
#    0.000    0.000    0.000    6.000    0.000    0.000 
#    0.000    0.000    0.000    0.000    0.000    0.000 
#
# Total GULP energy -495524.402303 kJ/mol
# GULP energy per Si atom -12388.110058 kJ/mol
# Density = 1.788874 g / cm^3
# Si number density = 17.929547 Si / 1000 Ang^3
#
#
#
# Elastic Constant Matrix: (Units=GPa)
#
#
# Indices 1 2 3 4 5 6 
#
# 1 85.6263 23.7645 27.0832 0.0000 0.0000 0.0000
# 2 23.7645 105.5133 36.9983 0.0000 0.0000 0.0000
# 3 27.0832 36.9983 80.4622 0.0000 0.0000 0.0000
# 4 0.0000 0.0000 0.0000 28.5707 0.0000 0.0000
# 5 0.0000 0.0000 0.0000 0.0000 8.8334 0.0000
# 6 0.0000 0.0000 0.0000 0.0000 0.0000 7.2144
#
#
#
# Elastic Compliance Matrix: (Units=1/GPa)
#
#
# Indices 1 2 3 4 5 6 
#
# 1 0.013322 -0.001703 -0.003701 0.000000 0.000000 0.000000
# 2 -0.001703 0.011517 -0.004723 0.000000 0.000000 0.000000
# 3 -0.003701 -0.004723 0.015846 0.000000 0.000000 0.000000
# 4 0.000000 0.000000 0.000000 0.035001 0.000000 0.000000
# 5 0.000000 0.000000 0.000000 0.000000 0.113206 0.000000
# 6 0.000000 0.000000 0.000000 0.000000 0.000000 0.138611
#
#
# Mechanical properties :
#
#
# Convention : Reuss Voigt Hill
#
# Bulk Modulus (GPa) = 48.94408 49.69932 49.32170
# Shear Modulus (GPa) = 14.10174 21.17410 17.63792
#
# Velocity S-wave (km/s) = 2.80752 3.44024 3.13986
# Velocity P-wave (km/s) = 6.15360 6.59998 6.38070
#
# Compressibility (1/GPa) = 0.02043148
#
# Stress axis : x y z
#
# Youngs Moduli (GPa) = 75.06462 86.82846 63.10908
#
# Poissons Ratio (x) = 0.14784 0.23358
# Poissons Ratio (y) = 0.12781 0.29804
# Poissons Ratio (z) = 0.27783 0.41006
#
# Static dielectric constant tensor:
#      x y z
#    x 1.952830 0.000000 0.000000 
#    y 0.000000 3.996530 0.000000 
#    z 0.000000 0.000000 6.371270 
# 
# 
# High freq. dielectric constant tensor:
#      x y z
#    x 1.646970 0.000000 0.000000 
#    y 0.000000 1.725610 0.000000 
#    z 0.000000 0.000000 1.684720 
# 
# From -- ./inp_files/50295.got.cif
#   From: 2010.03.12/outbox.cif.g09.slc.cpg/sg64_26_cif.got.tgz:50295.got - 2010.04.10 20:19:32.
