data_PCOD8262801
_publ_section_title
;
Structure prediction by ZEFSAII (Michael W. Deem and Ramdas Pophale) SiO2 
 PCOD8262801
Probable space group: C M C A
;
_chemical_formula_sum "Si O2"
_cell_formula_units_Z 96
_cell_length_a 18.197326
_cell_length_b 9.464745
_cell_length_c 29.353314
_cell_angle_alpha 90.000000
_cell_angle_beta 90.000000
_cell_angle_gamma 90.000000
_cell_volume 5055.610806
_symmetry_space_group_name_H-M "C M C A"
_symmetry_group_IT_number 64
_symmetry_cell_setting 'orthorhombic'
loop_
_space_group_symop_operation_xyz
x,y,z
-x,1/2-y,1/2+z
x,-y,-z
-x,1/2+y,1/2-z
-x,-y,-z
x,1/2+y,1/2-z
-x,y,z
x,1/2-y,1/2+z
1/2+x,1/2+y,z
1/2-x,-y,1/2+z
1/2+x,1/2-y,-z
1/2-x,y,1/2-z
1/2-x,1/2-y,-z
1/2+x,y,1/2-z
1/2-x,1/2+y,z
1/2+x,-y,1/2+z
loop_
_atom_site_type_symbol
_atom_site_label
_atom_site_fract_x
_atom_site_fract_y
_atom_site_fract_z
Si Si1 0.587182 0.018280 0.379331
Si Si2 0.586559 0.196219 0.121305
Si Si3 0.661141 0.361870 0.529534
Si Si4 0.587171 0.304893 0.791767
Si Si5 0.674593 0.624516 0.034463
Si Si6 0.587749 0.983240 0.794002
O O1 0.500000 0.024173 0.386742
O O2 0.612757 0.111964 0.336682
O O3 0.625723 0.084981 0.422836
O O4 0.614832 0.857285 0.372443
O O5 0.500000 0.196714 0.125258
O O6 0.608466 0.131123 0.072945
O O7 0.618517 0.094909 0.160890
O O8 0.655200 0.500000 0.500000
O O9 0.632870 0.243881 0.494299
O O10 0.743096 0.326930 0.548750
O O11 0.500000 0.299222 0.789234
O O12 0.617734 0.392817 0.748736
O O13 0.618353 0.144274 0.791939
O O14 0.686691 0.500000 0.000000
O O15 0.500000 0.986975 0.793680
#
# Coordination Sequence:
#
# PCOD8262801 Si02
#       6
#    16  16  16  16  16  16
#     4  10  20  33  54  80 106 136 174 217 261 305
#     4  10  20  34  52  79 109 137 171 216 263 306
#     4  10  22  36  54  75 103 141 178 216 258 310
#     4   9  17  30  49  75 105 139 172 208 255 310
#     4  10  20  38  55  74 102 140 182 213 254 311
#     4   9  17  30  49  74 107 139 171 208 255 311
#
# _framework density 18.988803999999998
#
# number of rings (size 3 to 8) (size 9 to 14) (size 15 to 20)
#    0.000    2.333    1.667    1.000    2.333    5.333 
#    0.000    0.000    0.000    1.000    0.000    4.667 
#    0.000    0.000    0.000    0.000    0.000    0.000 
#
# Total GULP energy -595035.547859 kJ/mol
# GULP energy per Si atom -12396.573914 kJ/mol
# Density = 1.894558 g / cm^3
# Si number density = 18.988804 Si / 1000 Ang^3
#
#
#
# Elastic Constant Matrix: (Units=GPa)
#
#
# Indices 1 2 3 4 5 6 
#
# 1 7.7206 21.0400 16.9276 0.0000 0.0000 0.0000
# 2 21.0400 149.5068 87.8966 0.0000 0.0000 0.0000
# 3 16.9276 87.8966 149.4915 0.0000 0.0000 0.0000
# 4 0.0000 0.0000 0.0000 42.7858 0.0000 0.0000
# 5 0.0000 0.0000 0.0000 0.0000 -5.3831 0.0000
# 6 0.0000 0.0000 0.0000 0.0000 0.0000 16.3930
#
#
#
# Elastic Compliance Matrix: (Units=1/GPa)
#
#
# Indices 1 2 3 4 5 6 
#
# 1 0.219913 -0.024924 -0.010247 0.000000 0.000000 0.000000
# 2 -0.024924 0.013047 -0.004849 0.000000 0.000000 0.000000
# 3 -0.010247 -0.004849 0.010701 0.000000 0.000000 0.000000
# 4 0.000000 0.000000 0.000000 0.023372 0.000000 0.000000
# 5 0.000000 0.000000 0.000000 0.000000 -0.185767 0.000000
# 6 0.000000 0.000000 0.000000 0.000000 0.000000 0.061002
#
#
# Mechanical properties :
#
#
# Convention : Reuss Voigt Hill
#
# Bulk Modulus (GPa) = 6.11169 62.04968 34.08069
# Shear Modulus (GPa) = 18.06042 22.81613 20.43827
#
# Velocity S-wave (km/s) = 3.08735 3.47011 3.28431
# Velocity P-wave (km/s) = 3.99181 6.98595 5.68938
#
# Compressibility (1/GPa) = 0.16362078
#
# Stress axis : x y z
#
# Youngs Moduli (GPa) = 4.54725 76.64640 93.45141
#
# Poissons Ratio (x) = 1.91032 0.95762
# Poissons Ratio (y) = 0.11333 0.45314
# Poissons Ratio (z) = 0.04660 0.37166
#
# Static dielectric constant tensor:
#      x y z
#    x 3.038300 0.000000 0.000000 
#    y 0.000000 3.874520 0.000000 
#    z 0.000000 0.000000 3.564750 
# 
# 
# High freq. dielectric constant tensor:
#      x y z
#    x 1.683720 0.000000 0.000000 
#    y 0.000000 1.759280 0.000000 
#    z 0.000000 0.000000 1.748490 
# 
# From -- ./inp_files/46604.got.cif
#   From: 2010.03.12/outbox.cif.g09.slc.cpg/sg64_24_cif.got.tgz:46604.got - 2010.04.10 20:19:32.
