data_PCOD8262237
_publ_section_title
;
Structure prediction by ZEFSAII (Michael W. Deem and Ramdas Pophale) SiO2 
 PCOD8262237
Probable space group: C M C A
;
_chemical_formula_sum "Si O2"
_cell_formula_units_Z 112
_cell_length_a 18.627146
_cell_length_b 13.065508
_cell_length_c 23.573963
_cell_angle_alpha 90.000000
_cell_angle_beta 90.000000
_cell_angle_gamma 90.000000
_cell_volume 5737.269046
_symmetry_space_group_name_H-M "C M C A"
_symmetry_group_IT_number 64
_symmetry_cell_setting 'orthorhombic'
loop_
_space_group_symop_operation_xyz
x,y,z
-x,1/2-y,1/2+z
x,-y,-z
-x,1/2+y,1/2-z
-x,-y,-z
x,1/2+y,1/2-z
-x,y,z
x,1/2-y,1/2+z
1/2+x,1/2+y,z
1/2-x,-y,1/2+z
1/2+x,1/2-y,-z
1/2-x,y,1/2-z
1/2-x,1/2-y,-z
1/2+x,y,1/2-z
1/2-x,1/2+y,z
1/2+x,-y,1/2+z
loop_
_atom_site_type_symbol
_atom_site_label
_atom_site_fract_x
_atom_site_fract_y
_atom_site_fract_z
Si Si1 0.200237 0.854349 0.104277
Si Si2 0.308679 0.439050 0.948612
Si Si3 0.663477 0.173015 0.031578
Si Si4 0.582807 0.086499 0.137963
Si Si5 0.918230 0.121552 0.687000
Si Si6 0.084005 0.798671 0.192774
Si Si7 0.648384 0.766871 0.091334
O O1 0.169201 0.792190 0.049900
O O2 0.138453 0.855904 0.151442
O O3 0.274678 0.797001 0.120050
O O4 0.216730 0.973699 0.094881
O O5 0.241059 0.378215 0.973935
O O6 0.358678 0.355574 0.917791
O O7 0.348451 0.500000 0.000000
O O8 0.617110 0.109683 0.076643
O O9 0.632341 0.172859 0.967682
O O10 0.500000 0.066846 0.124519
O O11 0.594148 0.177429 0.183023
O O12 0.618455 0.985566 0.166881
O O13 0.887582 0.169925 0.744887
O O14 0.911807 0.203795 0.636573
O O15 0.000000 0.097043 0.699493
O O16 0.000000 0.828548 0.181617
#
# Coordination Sequence:
#
# PCOD8262237 Si02
#       7
#    16  16  16  16  16  16  16
#     4  10  19  34  56  81 106 143 182 220 264 321
#     4  11  18  32  54  81 108 143 176 214 265 326
#     4  10  19  32  53  81 111 144 175 216 273 325
#     4   9  19  35  57  79 103 140 184 224 268 325
#     4  10  22  38  55  79 110 142 180 228 273 313
#     4   9  20  39  58  76 105 144 184 223 269 324
#     4  11  21  33  54  84 113 142 179 225 267 319
#
# _framework density 19.521481999999999
#
# number of rings (size 3 to 8) (size 9 to 14) (size 15 to 20)
#    0.000    2.000    2.857    1.714    0.000    2.286 
#    0.000    3.571    0.000    6.000    0.000    0.000 
#    0.000    0.000    0.000    0.000    0.000    0.000 
#
# Total GULP energy -693951.707700 kJ/mol
# GULP energy per Si atom -12391.994780 kJ/mol
# Density = 1.947705 g / cm^3
# Si number density = 19.521482 Si / 1000 Ang^3
#
#
#
# Elastic Constant Matrix: (Units=GPa)
#
#
# Indices 1 2 3 4 5 6 
#
# 1 25.0685 13.5034 33.5793 0.0000 0.0000 0.0000
# 2 13.5034 126.9475 52.1417 0.0000 0.0000 0.0000
# 3 33.5793 52.1417 130.7003 0.0000 0.0000 0.0000
# 4 0.0000 0.0000 0.0000 28.3444 0.0000 0.0000
# 5 0.0000 0.0000 0.0000 0.0000 29.5783 0.0000
# 6 0.0000 0.0000 0.0000 0.0000 0.0000 20.3997
#
#
#
# Elastic Compliance Matrix: (Units=1/GPa)
#
#
# Indices 1 2 3 4 5 6 
#
# 1 0.060823 -0.000061 -0.015602 0.000000 0.000000 0.000000
# 2 -0.000061 0.009421 -0.003743 0.000000 0.000000 0.000000
# 3 -0.015602 -0.003743 0.013153 0.000000 0.000000 0.000000
# 4 0.000000 0.000000 0.000000 0.035280 0.000000 0.000000
# 5 0.000000 0.000000 0.000000 0.000000 0.033809 0.000000
# 6 0.000000 0.000000 0.000000 0.000000 0.000000 0.049020
#
#
# Mechanical properties :
#
#
# Convention : Reuss Voigt Hill
#
# Bulk Modulus (GPa) = 22.42946 53.46279 37.94613
# Shear Modulus (GPa) = 19.59408 27.89727 23.74567
#
# Velocity S-wave (km/s) = 3.17159 3.78439 3.49146
# Velocity P-wave (km/s) = 4.99265 6.82214 5.97780
#
# Compressibility (1/GPa) = 0.04458422
#
# Stress axis : x y z
#
# Youngs Moduli (GPa) = 16.44122 106.14537 76.03043
#
# Poissons Ratio (x) = 0.00652 1.18623
# Poissons Ratio (y) = 0.00101 0.28455
# Poissons Ratio (z) = 0.25652 0.39726
#
# Static dielectric constant tensor:
#      x y z
#    x 3.280250 0.000000 0.000000 
#    y 0.000000 3.864430 0.000000 
#    z 0.000000 0.000000 3.586240 
# 
# 
# High freq. dielectric constant tensor:
#      x y z
#    x 1.724520 0.000000 0.000000 
#    y 0.000000 1.773730 0.000000 
#    z 0.000000 0.000000 1.755410 
# 
# From -- ./inp_files/46329.got.cif
#   From: 2010.03.12/outbox.cif.g09.slc.cpg/sg64_24_cif.got.tgz:46329.got - 2010.04.10 20:19:32.
