data_PCOD8262399
_publ_section_title
;
Structure prediction by ZEFSAII (Michael W. Deem and Ramdas Pophale) SiO2 
 PCOD8262399
Probable space group: C M C A
;
_chemical_formula_sum "Si O2"
_cell_formula_units_Z 64
_cell_length_a 18.405691
_cell_length_b 9.281857
_cell_length_c 14.005717
_cell_angle_alpha 90.000000
_cell_angle_beta 90.000000
_cell_angle_gamma 90.000000
_cell_volume 2392.722572
_symmetry_space_group_name_H-M "C M C A"
_symmetry_group_IT_number 64
_symmetry_cell_setting 'orthorhombic'
loop_
_space_group_symop_operation_xyz
x,y,z
-x,1/2-y,1/2+z
x,-y,-z
-x,1/2+y,1/2-z
-x,-y,-z
x,1/2+y,1/2-z
-x,y,z
x,1/2-y,1/2+z
1/2+x,1/2+y,z
1/2-x,-y,1/2+z
1/2+x,1/2-y,-z
1/2-x,y,1/2-z
1/2-x,1/2-y,-z
1/2+x,y,1/2-z
1/2-x,1/2+y,z
1/2+x,-y,1/2+z
loop_
_atom_site_type_symbol
_atom_site_label
_atom_site_fract_x
_atom_site_fract_y
_atom_site_fract_z
Si Si1 0.707095 0.569827 0.848249
Si Si2 0.419354 0.632015 0.426295
Si Si3 0.673174 0.230718 0.429348
Si Si4 0.583999 0.104470 0.783205
O O1 0.750000 0.533883 0.750000
O O2 0.694884 0.432399 0.913499
O O3 0.753863 0.675711 0.915095
O O4 0.628288 0.632063 0.815071
O O5 0.418329 0.500000 0.500000
O O6 0.500000 0.701162 0.422950
O O7 0.359238 0.748334 0.462592
O O8 0.400163 0.558004 0.323827
O O9 0.608831 0.274750 0.358085
O O10 0.500000 0.128940 0.760652
#
# Coordination Sequence:
#
# PCOD8262399 Si02
#       4
#    16  16  16  16
#     4  10  20  34  51  77 112 144 179 223 274 330
#     4   8  15  31  54  79 105 138 184 231 273 324
#     4  10  19  34  53  78 112 145 181 224 273 330
#     4   9  18  33  54  81 109 139 182 233 280 326
#
# _framework density 26.747772000000001
#
# number of rings (size 3 to 8) (size 9 to 14) (size 15 to 20)
#    0.000    2.750    0.000    4.500    0.000    2.000 
#    0.000   22.500    0.000    1.500    0.000    0.000 
#    0.000  141.000    0.000    0.000    0.000    0.000 
#
# Total GULP energy -396808.065258 kJ/mol
# GULP energy per Si atom -12400.252039 kJ/mol
# Density = 2.668689 g / cm^3
# Si number density = 26.747772 Si / 1000 Ang^3
#
#
#
# Elastic Constant Matrix: (Units=GPa)
#
#
# Indices 1 2 3 4 5 6 
#
# 1 212.6567 36.5107 74.8564 0.0000 0.0000 0.0000
# 2 36.5107 50.9587 33.5496 0.0000 0.0000 0.0000
# 3 74.8564 33.5496 133.7980 0.0000 0.0000 0.0000
# 4 0.0000 0.0000 0.0000 30.8037 0.0000 0.0000
# 5 0.0000 0.0000 0.0000 0.0000 38.7734 0.0000
# 6 0.0000 0.0000 0.0000 0.0000 0.0000 20.4425
#
#
#
# Elastic Compliance Matrix: (Units=1/GPa)
#
#
# Indices 1 2 3 4 5 6 
#
# 1 0.006121 -0.002552 -0.002784 0.000000 0.000000 0.000000
# 2 -0.002552 0.024568 -0.004733 0.000000 0.000000 0.000000
# 3 -0.002784 -0.004733 0.010218 0.000000 0.000000 0.000000
# 4 0.000000 0.000000 0.000000 0.032464 0.000000 0.000000
# 5 0.000000 0.000000 0.000000 0.000000 0.025791 0.000000
# 6 0.000000 0.000000 0.000000 0.000000 0.000000 0.048918
#
#
# Mechanical properties :
#
#
# Convention : Reuss Voigt Hill
#
# Bulk Modulus (GPa) = 48.14875 76.36074 62.25475
# Shear Modulus (GPa) = 28.54849 34.83705 31.69277
#
# Velocity S-wave (km/s) = 3.27053 3.61283 3.44594
# Velocity P-wave (km/s) = 5.68348 6.78335 6.25763
#
# Compressibility (1/GPa) = 0.02076897
#
# Stress axis : x y z
#
# Youngs Moduli (GPa) = 163.37928 40.70326 97.86236
#
# Poissons Ratio (x) = 0.10388 0.27249
# Poissons Ratio (y) = 0.41697 0.46314
# Poissons Ratio (z) = 0.45492 0.19263
#
# Static dielectric constant tensor:
#      x y z
#    x 5.220130 0.000000 0.000000 
#    y 0.000000 4.516220 0.000000 
#    z 0.000000 0.000000 5.136330 
# 
# 
# High freq. dielectric constant tensor:
#      x y z
#    x 2.100200 0.000000 0.000000 
#    y 0.000000 2.052650 0.000000 
#    z 0.000000 0.000000 2.099940 
# 
# From -- ./inp_files/33981.got.cif
#   From: 2010.03.12/outbox.cif.g09.slc.cpg/sg64_17_cif.got.tgz:33981.got - 2010.04.10 20:19:32.
