data_PCOD8262806
_publ_section_title
;
Structure prediction by ZEFSAII (Michael W. Deem and Ramdas Pophale) SiO2 
 PCOD8262806
Probable space group: C M C A
;
_chemical_formula_sum "Si O2"
_cell_formula_units_Z 64
_cell_length_a 13.717406
_cell_length_b 13.782484
_cell_length_c 13.222398
_cell_angle_alpha 90.000000
_cell_angle_beta 90.000000
_cell_angle_gamma 90.000000
_cell_volume 2499.825623
_symmetry_space_group_name_H-M "C M C A"
_symmetry_group_IT_number 64
_symmetry_cell_setting 'orthorhombic'
loop_
_space_group_symop_operation_xyz
x,y,z
-x,1/2-y,1/2+z
x,-y,-z
-x,1/2+y,1/2-z
-x,-y,-z
x,1/2+y,1/2-z
-x,y,z
x,1/2-y,1/2+z
1/2+x,1/2+y,z
1/2-x,-y,1/2+z
1/2+x,1/2-y,-z
1/2-x,y,1/2-z
1/2-x,1/2-y,-z
1/2+x,y,1/2-z
1/2-x,1/2+y,z
1/2+x,-y,1/2+z
loop_
_atom_site_type_symbol
_atom_site_label
_atom_site_fract_x
_atom_site_fract_y
_atom_site_fract_z
Si Si1 0.235478 0.073651 0.633404
Si Si2 0.613555 0.923104 0.598536
Si Si3 0.112759 0.724683 0.990740
Si Si4 0.388724 0.895494 0.822348
O O1 0.250000 0.104263 0.750000
O O2 0.188711 0.163242 0.574972
O O3 0.335127 0.028944 0.582532
O O4 0.163276 0.983189 0.621296
O O5 0.500000 0.946944 0.593574
O O6 0.642327 0.837330 0.520718
O O7 0.649086 0.880740 0.707788
O O8 0.000000 0.707224 0.955157
O O9 0.125527 0.701162 0.109925
O O10 0.500000 0.926421 0.816789
#
# Coordination Sequence:
#
# PCOD8262806 Si02
#       4
#    16  16  16  16
#     4  10  20  33  55  84 118 151 190 238 288 341
#     4   9  20  38  57  83 121 156 189 238 296 349
#     4  10  20  37  63  88 111 150 202 245 286 345
#     4   9  18  35  59  86 116 151 194 245 293 340
#
# _framework density 25.601785
#
# number of rings (size 3 to 8) (size 9 to 14) (size 15 to 20)
#    0.000    2.500    0.000    1.500    0.000    7.000 
#    0.000    5.000    0.000    6.000    0.000    0.000 
#    0.000    0.000    0.000    0.000    0.000    0.000 
#
# Total GULP energy -396689.169887 kJ/mol
# GULP energy per Si atom -12396.536559 kJ/mol
# Density = 2.554351 g / cm^3
# Si number density = 25.601785 Si / 1000 Ang^3
#
#
#
# Elastic Constant Matrix: (Units=GPa)
#
#
# Indices 1 2 3 4 5 6 
#
# 1 83.2959 62.7592 24.5975 0.0000 0.0000 0.0000
# 2 62.7592 167.3499 89.9295 0.0000 0.0000 0.0000
# 3 24.5975 89.9295 113.3707 0.0000 0.0000 0.0000
# 4 0.0000 0.0000 0.0000 41.2901 0.0000 0.0000
# 5 0.0000 0.0000 0.0000 0.0000 21.3002 0.0000
# 6 0.0000 0.0000 0.0000 0.0000 0.0000 32.9547
#
#
#
# Elastic Compliance Matrix: (Units=1/GPa)
#
#
# Indices 1 2 3 4 5 6 
#
# 1 0.017100 -0.007702 0.002400 0.000000 0.000000 0.000000
# 2 -0.007702 0.013884 -0.009342 0.000000 0.000000 0.000000
# 3 0.002400 -0.009342 0.015711 0.000000 0.000000 0.000000
# 4 0.000000 0.000000 0.000000 0.024219 0.000000 0.000000
# 5 0.000000 0.000000 0.000000 0.000000 0.046948 0.000000
# 6 0.000000 0.000000 0.000000 0.000000 0.000000 0.030345
#
#
# Mechanical properties :
#
#
# Convention : Reuss Voigt Hill
#
# Bulk Modulus (GPa) = 57.45500 79.84323 68.64912
# Shear Modulus (GPa) = 27.27786 31.55766 29.41776
#
# Velocity S-wave (km/s) = 3.26769 3.51470 3.39344
# Velocity P-wave (km/s) = 6.06033 6.90834 6.49818
#
# Compressibility (1/GPa) = 0.01740493
#
# Stress axis : x y z
#
# Youngs Moduli (GPa) = 58.47916 72.02316 63.65073
#
# Poissons Ratio (x) = 0.55475 -0.15274
# Poissons Ratio (y) = 0.45043 0.59465
# Poissons Ratio (z) = -0.14033 0.67287
#
# Static dielectric constant tensor:
#      x y z
#    x 5.010920 0.000000 0.000000 
#    y 0.000000 4.424130 0.000000 
#    z 0.000000 0.000000 5.149630 
# 
# 
# High freq. dielectric constant tensor:
#      x y z
#    x 2.046610 0.000000 0.000000 
#    y 0.000000 2.011440 0.000000 
#    z 0.000000 0.000000 2.042780 
# 
# From -- ./inp_files/23228.got.cif
#   From: 2010.03.12/outbox.cif.g09.slc.cpg/sg64_12_cif.got.tgz:23228.got - 2010.04.10 20:19:32.
