data_PCOD8262545
_publ_section_title
;
Structure prediction by ZEFSAII (Michael W. Deem and Ramdas Pophale) SiO2 
 PCOD8262545
Probable space group: C M C A
;
_chemical_formula_sum "Si O2"
_cell_formula_units_Z 80
_cell_length_a 19.150258
_cell_length_b 22.437900
_cell_length_c 8.495106
_cell_angle_alpha 90.000000
_cell_angle_beta 90.000000
_cell_angle_gamma 90.000000
_cell_volume 3650.275468
_symmetry_space_group_name_H-M "C M C A"
_symmetry_group_IT_number 64
_symmetry_cell_setting 'orthorhombic'
loop_
_space_group_symop_operation_xyz
x,y,z
-x,1/2-y,1/2+z
x,-y,-z
-x,1/2+y,1/2-z
-x,-y,-z
x,1/2+y,1/2-z
-x,y,z
x,1/2-y,1/2+z
1/2+x,1/2+y,z
1/2-x,-y,1/2+z
1/2+x,1/2-y,-z
1/2-x,y,1/2-z
1/2-x,1/2-y,-z
1/2+x,y,1/2-z
1/2-x,1/2+y,z
1/2+x,-y,1/2+z
loop_
_atom_site_type_symbol
_atom_site_label
_atom_site_fract_x
_atom_site_fract_y
_atom_site_fract_z
Si Si1 0.421593 0.388514 0.758448
Si Si2 0.814554 0.343465 0.150261
Si Si3 0.579574 0.139250 0.607674
Si Si4 0.921630 0.223443 0.451772
Si Si5 0.702744 0.940368 0.903244
O O1 0.500000 0.411674 0.741224
O O2 0.414011 0.320837 0.696625
O O3 0.376677 0.434854 0.657174
O O4 0.398832 0.388900 0.940800
O O5 0.750000 0.315984 0.250000
O O6 0.866265 0.384123 0.260075
O O7 0.861565 0.290692 0.078636
O O8 0.780393 0.384960 0.016980
O O9 0.500000 0.121701 0.650643
O O10 0.589427 0.210281 0.608086
O O11 0.000000 0.216575 0.526580
O O12 0.750000 0.937267 0.750000
O O13 0.714920 0.000000 0.000000
#
# Coordination Sequence:
#
# PCOD8262545 Si02
#       5
#    16  16  16  16  16
#     4   9  19  35  57  87 119 149 189 240 281 324
#     4  11  22  35  56  86 118 150 193 243 283 325
#     4  10  19  35  59  86 120 159 192 223 272 337
#     4   9  18  34  56  83 119 163 199 225 267 332
#     4  11  24  43  64  81 107 147 192 238 292 353
#
# _framework density 21.916153999999999
#
# number of rings (size 3 to 8) (size 9 to 14) (size 15 to 20)
#    0.000    2.000    0.000    3.600    0.000    5.200 
#    0.000    5.000    0.000    3.000    0.000    0.000 
#    0.000    0.000    0.000    0.000    0.000    0.000 
#
# Total GULP energy -495923.794208 kJ/mol
# GULP energy per Si atom -12398.094855 kJ/mol
# Density = 2.186627 g / cm^3
# Si number density = 21.916154 Si / 1000 Ang^3
#
#
#
# Elastic Constant Matrix: (Units=GPa)
#
#
# Indices 1 2 3 4 5 6 
#
# 1 103.2018 20.2544 56.6785 0.0000 0.0000 0.0000
# 2 20.2544 48.8948 17.5175 0.0000 0.0000 0.0000
# 3 56.6785 17.5175 120.8215 0.0000 0.0000 0.0000
# 4 0.0000 0.0000 0.0000 25.0536 0.0000 0.0000
# 5 0.0000 0.0000 0.0000 0.0000 45.8373 0.0000
# 6 0.0000 0.0000 0.0000 0.0000 0.0000 18.6611
#
#
#
# Elastic Compliance Matrix: (Units=1/GPa)
#
#
# Indices 1 2 3 4 5 6 
#
# 1 0.013608 -0.003533 -0.005871 0.000000 0.000000 0.000000
# 2 -0.003533 0.022490 -0.001603 0.000000 0.000000 0.000000
# 3 -0.005871 -0.001603 0.011263 0.000000 0.000000 0.000000
# 4 0.000000 0.000000 0.000000 0.039914 0.000000 0.000000
# 5 0.000000 0.000000 0.000000 0.000000 0.021816 0.000000
# 6 0.000000 0.000000 0.000000 0.000000 0.000000 0.053588
#
#
# Mechanical properties :
#
#
# Convention : Reuss Voigt Hill
#
# Bulk Modulus (GPa) = 39.45471 51.31322 45.38396
# Shear Modulus (GPa) = 25.88747 29.80824 27.84785
#
# Velocity S-wave (km/s) = 3.44059 3.69196 3.56849
# Velocity P-wave (km/s) = 5.81595 6.45278 6.14262
#
# Compressibility (1/GPa) = 0.02534552
#
# Stress axis : x y z
#
# Youngs Moduli (GPa) = 73.48786 44.46392 88.78350
#
# Poissons Ratio (x) = 0.15711 0.52127
# Poissons Ratio (y) = 0.25966 0.14234
# Poissons Ratio (z) = 0.43146 0.07129
#
# Static dielectric constant tensor:
#      x y z
#    x 4.134090 0.000000 0.000000 
#    y 0.000000 3.377660 0.000000 
#    z 0.000000 0.000000 4.241740 
# 
# 
# High freq. dielectric constant tensor:
#      x y z
#    x 1.872250 0.000000 0.000000 
#    y 0.000000 1.809390 0.000000 
#    z 0.000000 0.000000 1.882240 
# 
# From -- ./inp_files/7040.got.cif
#   From: 2010.03.12/outbox.cif.g09.slc.cpg/sg64_4_cif.got.tgz:7040.got - 2010.04.10 20:19:32.
