data_PCOD8262638
_publ_section_title
;
Structure prediction by ZEFSAII (Michael W. Deem and Ramdas Pophale) SiO2 
 PCOD8262638
Probable space group: C M C A
;
_chemical_formula_sum "Si O2"
_cell_formula_units_Z 96
_cell_length_a 28.671249
_cell_length_b 14.165099
_cell_length_c 11.763479
_cell_angle_alpha 90.000000
_cell_angle_beta 90.000000
_cell_angle_gamma 90.000000
_cell_volume 4777.514437
_symmetry_space_group_name_H-M "C M C A"
_symmetry_group_IT_number 64
_symmetry_cell_setting 'orthorhombic'
loop_
_space_group_symop_operation_xyz
x,y,z
-x,1/2-y,1/2+z
x,-y,-z
-x,1/2+y,1/2-z
-x,-y,-z
x,1/2+y,1/2-z
-x,y,z
x,1/2-y,1/2+z
1/2+x,1/2+y,z
1/2-x,-y,1/2+z
1/2+x,1/2-y,-z
1/2-x,y,1/2-z
1/2-x,1/2-y,-z
1/2+x,y,1/2-z
1/2-x,1/2+y,z
1/2+x,-y,1/2+z
loop_
_atom_site_type_symbol
_atom_site_label
_atom_site_fract_x
_atom_site_fract_y
_atom_site_fract_z
Si Si1 0.808473 0.500000 0.500000
Si Si2 0.196701 0.315061 0.401306
Si Si3 0.655151 0.417760 0.785276
Si Si4 0.617405 0.766514 0.575120
Si Si5 0.750000 0.682431 0.250000
Si Si6 0.121846 0.104174 0.733038
Si Si7 0.054110 0.900542 0.061715
O O1 0.778975 0.591318 0.541675
O O2 0.846009 0.526724 0.404617
O O3 0.163675 0.266524 0.495781
O O4 0.238846 0.247285 0.360816
O O5 0.166320 0.344212 0.291446
O O6 0.624440 0.324256 0.805116
O O7 0.707854 0.389027 0.762444
O O8 0.635216 0.495306 0.696540
O O9 0.608285 0.659533 0.616975
O O10 0.573931 0.812010 0.510350
O O11 0.077334 0.099751 0.814633
O O12 0.000000 0.880524 0.079423
O O13 0.062756 0.000000 0.000000
#
# Coordination Sequence:
#
# PCOD8262638 Si02
#       7
#     8  16  16  16   8  16  16
#     4   8  18  34  52  70 107 142 200 248 311 338
#     4   9  20  35  56  82 112 159 201 259 301 362
#     4  10  20  36  52  81 110 160 200 251 299 352
#     4  10  19  37  61  84 121 159 196 254 322 372
#     4  12  22  36  54  86 122 156 230 254 298 364
#     4  10  19  37  60  81 122 161 195 247 325 372
#     4  10  20  36  65  95 116 151 207 263 317 391
#
# _framework density 20.094131999999998
#
# number of rings (size 3 to 8) (size 9 to 14) (size 15 to 20)
#    0.000    2.167    3.333    1.000    2.333    6.000 
#    3.000    0.000    0.000    0.000    0.000    1.167 
#    0.000    0.000    0.000    0.000    0.000    0.000 
#
# Total GULP energy -594646.042113 kJ/mol
# GULP energy per Si atom -12388.459211 kJ/mol
# Density = 2.004840 g / cm^3
# Si number density = 20.094132 Si / 1000 Ang^3
#
#
#
# Elastic Constant Matrix: (Units=GPa)
#
#
# Indices 1 2 3 4 5 6 
#
# 1 110.1901 61.4843 31.3278 0.0000 0.0000 0.0000
# 2 61.4843 121.3513 52.1054 0.0000 0.0000 0.0000
# 3 31.3278 52.1054 58.2167 0.0000 0.0000 0.0000
# 4 0.0000 0.0000 0.0000 40.9212 0.0000 0.0000
# 5 0.0000 0.0000 0.0000 0.0000 19.6288 0.0000
# 6 0.0000 0.0000 0.0000 0.0000 0.0000 29.3615
#
#
#
# Elastic Compliance Matrix: (Units=1/GPa)
#
#
# Indices 1 2 3 4 5 6 
#
# 1 0.012761 -0.005712 -0.001754 0.000000 0.000000 0.000000
# 2 -0.005712 0.015941 -0.011194 0.000000 0.000000 0.000000
# 3 -0.001754 -0.011194 0.028140 0.000000 0.000000 0.000000
# 4 0.000000 0.000000 0.000000 0.024437 0.000000 0.000000
# 5 0.000000 0.000000 0.000000 0.000000 0.050945 0.000000
# 6 0.000000 0.000000 0.000000 0.000000 0.000000 0.034058
#
#
# Mechanical properties :
#
#
# Convention : Reuss Voigt Hill
#
# Bulk Modulus (GPa) = 51.22606 64.39923 57.81265
# Shear Modulus (GPa) = 23.79686 27.63835 25.71760
#
# Velocity S-wave (km/s) = 3.44505 3.71272 3.58139
# Velocity P-wave (km/s) = 6.43218 7.10615 6.77755
#
# Compressibility (1/GPa) = 0.01952131
#
# Stress axis : x y z
#
# Youngs Moduli (GPa) = 78.36078 62.73086 35.53669
#
# Poissons Ratio (x) = 0.35835 0.06235
# Poissons Ratio (y) = 0.44763 0.39779
# Poissons Ratio (z) = 0.13748 0.70219
#
# Static dielectric constant tensor:
#      x y z
#    x 3.302230 0.000000 0.000000 
#    y 0.000000 4.170070 0.000000 
#    z 0.000000 0.000000 3.562970 
# 
# 
# High freq. dielectric constant tensor:
#      x y z
#    x 1.748730 0.000000 0.000000 
#    y 0.000000 1.798510 0.000000 
#    z 0.000000 0.000000 1.762080 
# 
# From -- ./inp_files/19794.got.cif
#   From: 2010.03.12/outbox.cif.g09.slc.cpg/sg64_10_cif.got.tgz:19794.got - 2010.04.10 20:19:32.
