data_PCOD8262068
_publ_section_title
;
Structure prediction by ZEFSAII (Michael W. Deem and Ramdas Pophale) SiO2 
 PCOD8262068
Probable space group: C M C A
;
_chemical_formula_sum "Si O2"
_cell_formula_units_Z 96
_cell_length_a 9.136259
_cell_length_b 23.456913
_cell_length_c 25.534651
_cell_angle_alpha 90.000000
_cell_angle_beta 90.000000
_cell_angle_gamma 90.000000
_cell_volume 5472.291030
_symmetry_space_group_name_H-M "C M C A"
_symmetry_group_IT_number 64
_symmetry_cell_setting 'orthorhombic'
loop_
_space_group_symop_operation_xyz
x,y,z
-x,1/2-y,1/2+z
x,-y,-z
-x,1/2+y,1/2-z
-x,-y,-z
x,1/2+y,1/2-z
-x,y,z
x,1/2-y,1/2+z
1/2+x,1/2+y,z
1/2-x,-y,1/2+z
1/2+x,1/2-y,-z
1/2-x,y,1/2-z
1/2-x,1/2-y,-z
1/2+x,y,1/2-z
1/2-x,1/2+y,z
1/2+x,-y,1/2+z
loop_
_atom_site_type_symbol
_atom_site_label
_atom_site_fract_x
_atom_site_fract_y
_atom_site_fract_z
Si Si1 0.336187 0.667789 0.539591
Si Si2 0.332276 0.852094 0.923439
Si Si3 0.172386 0.833398 0.195900
Si Si4 0.830267 0.919165 0.104600
Si Si5 0.168106 0.243085 0.127793
Si Si6 0.172640 0.518850 0.057750
O O1 0.500000 0.642537 0.548526
O O2 0.313215 0.680933 0.478561
O O3 0.220875 0.620280 0.556735
O O4 0.315260 0.725234 0.572307
O O5 0.500000 0.850100 0.904598
O O6 0.234584 0.820039 0.879969
O O7 0.277492 0.916807 0.930135
O O8 0.250000 0.848060 0.250000
O O9 0.205575 0.887429 0.158925
O O10 0.241446 0.775915 0.172261
O O11 0.000000 0.823617 0.203487
O O12 0.000000 0.931411 0.098038
O O13 0.746004 0.979149 0.101989
O O14 0.000000 0.238420 0.145858
O O15 0.000000 0.512376 0.061970
O O16 0.226854 0.500000 0.000000
#
# Coordination Sequence:
#
# PCOD8262068 Si02
#       6
#    16  16  16  16  16  16
#     4   9  17  31  48  68 101 142 177 208 250 306
#     4  10  19  31  48  70 103 144 180 213 250 302
#     4  10  21  38  59  81 103 130 167 215 270 319
#     4  10  20  32  50  78 107 133 170 221 265 304
#     4  10  20  32  50  76 104 135 171 214 262 311
#     4  10  19  33  51  71 103 148 186 213 251 306
#
# _framework density 17.542926000000001
#
# number of rings (size 3 to 8) (size 9 to 14) (size 15 to 20)
#    0.000    2.167    1.667    2.000    0.000    4.333 
#    0.000    0.000    0.000    1.000    0.000    2.333 
#    0.000    0.000    0.000    0.000    0.000    0.000 
#
# Total GULP energy -595221.613323 kJ/mol
# GULP energy per Si atom -12400.450278 kJ/mol
# Density = 1.750300 g / cm^3
# Si number density = 17.542926 Si / 1000 Ang^3
#
#
#
# Elastic Constant Matrix: (Units=GPa)
#
#
# Indices 1 2 3 4 5 6 
#
# 1 82.6735 52.5922 45.2848 0.0000 0.0000 0.0000
# 2 52.5922 103.6736 39.1791 0.0000 0.0000 0.0000
# 3 45.2848 39.1791 70.6232 0.0000 0.0000 0.0000
# 4 0.0000 0.0000 0.0000 16.5384 0.0000 0.0000
# 5 0.0000 0.0000 0.0000 0.0000 27.3385 0.0000
# 6 0.0000 0.0000 0.0000 0.0000 0.0000 33.0384
#
#
#
# Elastic Compliance Matrix: (Units=1/GPa)
#
#
# Indices 1 2 3 4 5 6 
#
# 1 0.022509 -0.007546 -0.010247 0.000000 0.000000 0.000000
# 2 -0.007546 0.014734 -0.003335 0.000000 0.000000 0.000000
# 3 -0.010247 -0.003335 0.022580 0.000000 0.000000 0.000000
# 4 0.000000 0.000000 0.000000 0.060465 0.000000 0.000000
# 5 0.000000 0.000000 0.000000 0.000000 0.036579 0.000000
# 6 0.000000 0.000000 0.000000 0.000000 0.000000 0.030268
#
#
# Mechanical properties :
#
#
# Convention : Reuss Voigt Hill
#
# Bulk Modulus (GPa) = 56.92469 59.00917 57.96693
# Shear Modulus (GPa) = 21.25426 23.37733 22.31580
#
# Velocity S-wave (km/s) = 3.48452 3.65441 3.57048
# Velocity P-wave (km/s) = 6.97914 7.17749 7.07901
#
# Compressibility (1/GPa) = 0.01756707
#
# Stress axis : x y z
#
# Youngs Moduli (GPa) = 44.42679 67.86970 44.28630
#
# Poissons Ratio (x) = 0.51215 0.45379
# Poissons Ratio (y) = 0.33525 0.14770
# Poissons Ratio (z) = 0.45523 0.22636
#
# Static dielectric constant tensor:
#      x y z
#    x 3.313990 0.000000 0.000000 
#    y 0.000000 3.217430 0.000000 
#    z 0.000000 0.000000 3.014700 
# 
# 
# High freq. dielectric constant tensor:
#      x y z
#    x 1.684940 0.000000 0.000000 
#    y 0.000000 1.674440 0.000000 
#    z 0.000000 0.000000 1.644880 
# 
# From -- ./inp_files/43010.got.cif
#   From: 2010.03.12/outbox.cif.g09.slc.cpg/sg64_22_cif.got.tgz:43010.got - 2010.04.10 20:19:32.
