data_PCOD8262312
_publ_section_title
;
Structure prediction by ZEFSAII (Michael W. Deem and Ramdas Pophale) SiO2 
 PCOD8262312
Probable space group: C M C A
;
_chemical_formula_sum "Si O2"
_cell_formula_units_Z 96
_cell_length_a 7.690633
_cell_length_b 26.833126
_cell_length_c 26.538009
_cell_angle_alpha 90.000000
_cell_angle_beta 90.000000
_cell_angle_gamma 90.000000
_cell_volume 5476.482373
_symmetry_space_group_name_H-M "C M C A"
_symmetry_group_IT_number 64
_symmetry_cell_setting 'orthorhombic'
loop_
_space_group_symop_operation_xyz
x,y,z
-x,1/2-y,1/2+z
x,-y,-z
-x,1/2+y,1/2-z
-x,-y,-z
x,1/2+y,1/2-z
-x,y,z
x,1/2-y,1/2+z
1/2+x,1/2+y,z
1/2-x,-y,1/2+z
1/2+x,1/2-y,-z
1/2-x,y,1/2-z
1/2-x,1/2-y,-z
1/2+x,y,1/2-z
1/2-x,1/2+y,z
1/2+x,-y,1/2+z
loop_
_atom_site_type_symbol
_atom_site_label
_atom_site_fract_x
_atom_site_fract_y
_atom_site_fract_z
Si Si1 0.795511 0.822614 0.692027
Si Si2 0.293201 0.352150 0.063158
Si Si3 0.194216 0.597941 0.384418
Si Si4 0.303168 0.811786 0.543442
Si Si5 0.000000 0.959566 0.573111
Si Si6 0.692637 0.760848 0.378592
Si Si7 0.500000 0.927980 0.041186
O O1 0.750000 0.819581 0.750000
O O2 0.718299 0.873242 0.668685
O O3 0.711969 0.773542 0.663834
O O4 0.000000 0.823411 0.682493
O O5 0.500000 0.366192 0.065185
O O6 0.232224 0.316361 0.109939
O O7 0.174650 0.401157 0.061651
O O8 0.251625 0.318736 0.014295
O O9 0.226139 0.635378 0.430105
O O10 0.331425 0.553798 0.393183
O O11 0.000000 0.575110 0.385580
O O12 0.500000 0.793632 0.550538
O O13 0.183312 0.770123 0.569089
O O14 0.000000 0.931270 0.519362
O O15 0.000000 0.018230 0.565948
O O16 0.500000 0.770562 0.358873
#
# Coordination Sequence:
#
# PCOD8262312 Si02
#       7
#    16  16  16  16   8  16   8
#     4  10  19  33  53  82 116 140 171 212 262 327
#     4  10  20  34  47  72 105 139 182 220 250 304
#     4  10  19  34  54  75 108 141 173 220 269 313
#     4   9  17  27  45  72 100 139 174 206 248 304
#     4  11  22  38  52  79 100 142 186 221 275 324
#     4   9  19  30  47  70 104 144 174 209 256 306
#     4  11  24  34  56  73 104 144 182 225 270 310
#
# _framework density 17.529501
#
# number of rings (size 3 to 8) (size 9 to 14) (size 15 to 20)
#    0.000    2.167    2.500    1.000    3.500    1.333 
#    0.000    1.667    0.000    0.000    0.000    1.167 
#    0.000    0.000    0.000    0.000    0.000    0.000 
#
# Total GULP energy -594737.035508 kJ/mol
# GULP energy per Si atom -12390.354906 kJ/mol
# Density = 1.748960 g / cm^3
# Si number density = 17.529501 Si / 1000 Ang^3
#
#
#
# Elastic Constant Matrix: (Units=GPa)
#
#
# Indices 1 2 3 4 5 6 
#
# 1 85.9967 47.8139 28.0783 0.0000 0.0000 0.0000
# 2 47.8139 94.3220 55.0843 0.0000 0.0000 0.0000
# 3 28.0783 55.0843 82.4388 0.0000 0.0000 0.0000
# 4 0.0000 0.0000 0.0000 15.4077 0.0000 0.0000
# 5 0.0000 0.0000 0.0000 0.0000 19.4315 0.0000
# 6 0.0000 0.0000 0.0000 0.0000 0.0000 19.9529
#
#
#
# Elastic Compliance Matrix: (Units=1/GPa)
#
#
# Indices 1 2 3 4 5 6 
#
# 1 0.016192 -0.008179 -0.000050 0.000000 0.000000 0.000000
# 2 -0.008179 0.021518 -0.011592 0.000000 0.000000 0.000000
# 3 -0.000050 -0.011592 0.019893 0.000000 0.000000 0.000000
# 4 0.000000 0.000000 0.000000 0.064903 0.000000 0.000000
# 5 0.000000 0.000000 0.000000 0.000000 0.051463 0.000000
# 6 0.000000 0.000000 0.000000 0.000000 0.000000 0.050118
#
#
# Mechanical properties :
#
#
# Convention : Reuss Voigt Hill
#
# Bulk Modulus (GPa) = 55.67680 58.30116 56.98898
# Shear Modulus (GPa) = 18.53802 19.74381 19.14091
#
# Velocity S-wave (km/s) = 3.25550 3.35971 3.30801
# Velocity P-wave (km/s) = 6.77951 6.95566 6.86815
#
# Compressibility (1/GPa) = 0.01796080
#
# Stress axis : x y z
#
# Youngs Moduli (GPa) = 61.75837 46.47271 50.26904
#
# Poissons Ratio (x) = 0.38010 0.00251
# Poissons Ratio (y) = 0.50512 0.58273
# Poissons Ratio (z) = 0.00308 0.53872
#
# Static dielectric constant tensor:
#      x y z
#    x 3.391450 0.000000 0.000000 
#    y 0.000000 3.039270 0.000000 
#    z 0.000000 0.000000 3.210500 
# 
# 
# High freq. dielectric constant tensor:
#      x y z
#    x 1.685450 0.000000 0.000000 
#    y 0.000000 1.650180 0.000000 
#    z 0.000000 0.000000 1.647540 
# 
# From -- ./inp_files/48418.got.cif
#   From: 2010.03.12/outbox.cif.g09.slc.cpg/sg64_25_cif.got.tgz:48418.got - 2010.04.10 20:19:32.
