data_PCOD8262771
_publ_section_title
;
Structure prediction by ZEFSAII (Michael W. Deem and Ramdas Pophale) SiO2 
 PCOD8262771
Probable space group: C M C A
;
_chemical_formula_sum "Si O2"
_cell_formula_units_Z 72
_cell_length_a 18.010077
_cell_length_b 14.767604
_cell_length_c 14.712146
_cell_angle_alpha 90.000000
_cell_angle_beta 90.000000
_cell_angle_gamma 90.000000
_cell_volume 3912.925991
_symmetry_space_group_name_H-M "C M C A"
_symmetry_group_IT_number 64
_symmetry_cell_setting 'orthorhombic'
loop_
_space_group_symop_operation_xyz
x,y,z
-x,1/2-y,1/2+z
x,-y,-z
-x,1/2+y,1/2-z
-x,-y,-z
x,1/2+y,1/2-z
-x,y,z
x,1/2-y,1/2+z
1/2+x,1/2+y,z
1/2-x,-y,1/2+z
1/2+x,1/2-y,-z
1/2-x,y,1/2-z
1/2-x,1/2-y,-z
1/2+x,y,1/2-z
1/2-x,1/2+y,z
1/2+x,-y,1/2+z
loop_
_atom_site_type_symbol
_atom_site_label
_atom_site_fract_x
_atom_site_fract_y
_atom_site_fract_z
Si Si1 0.181047 0.055548 0.311190
Si Si2 0.652921 0.500000 0.500000
Si Si3 0.415429 0.177969 0.940231
Si Si4 0.663737 0.144495 0.764814
Si Si5 0.087022 0.724952 0.137799
O O1 0.250000 0.087641 0.250000
O O2 0.205087 0.033233 0.416149
O O3 0.122359 0.136985 0.313177
O O4 0.146533 0.963051 0.269426
O O5 0.594916 0.426086 0.465942
O O6 0.500000 0.196082 0.910077
O O7 0.361460 0.199451 0.855476
O O8 0.394047 0.234606 0.030455
O O9 0.750000 0.163273 0.750000
O O10 0.617882 0.182845 0.680274
O O11 0.000000 0.715936 0.153576
#
# Coordination Sequence:
#
# PCOD8262771 Si02
#       5
#    16   8  16  16  16
#     4   9  18  33  51  74 100 127 162 203 248 292
#     4   8  15  28  50  74  95 124 166 208 245 280
#     4   9  17  30  49  72  98 127 164 207 244 282
#     4  10  20  33  51  74 101 132 162 200 248 296
#     4  10  20  33  52  76  99 129 167 205 246 289
#
# _framework density 18.400552999999999
#
# number of rings (size 3 to 8) (size 9 to 14) (size 15 to 20)
#    0.000    2.667    0.000    1.667    0.000    7.111 
#    0.000    4.444    0.000    0.000    0.000    5.444 
#    0.000    0.000    0.000    0.000    0.000    0.000 
#
# Total GULP energy -446113.893299 kJ/mol
# GULP energy per Si atom -12392.052592 kJ/mol
# Density = 1.835867 g / cm^3
# Si number density = 18.400553 Si / 1000 Ang^3
#
#
#
# Elastic Constant Matrix: (Units=GPa)
#
#
# Indices 1 2 3 4 5 6 
#
# 1 83.2438 20.5339 44.0955 0.0000 0.0000 0.0000
# 2 20.5339 43.2758 19.5818 0.0000 0.0000 0.0000
# 3 44.0955 19.5818 80.7223 0.0000 0.0000 0.0000
# 4 0.0000 0.0000 0.0000 29.1993 0.0000 0.0000
# 5 0.0000 0.0000 0.0000 0.0000 36.9359 0.0000
# 6 0.0000 0.0000 0.0000 0.0000 0.0000 -0.6189
#
#
#
# Elastic Compliance Matrix: (Units=1/GPa)
#
#
# Indices 1 2 3 4 5 6 
#
# 1 0.017654 -0.004508 -0.008550 0.000000 0.000000 0.000000
# 2 -0.004508 0.027108 -0.004113 0.000000 0.000000 0.000000
# 3 -0.008550 -0.004113 0.018057 0.000000 0.000000 0.000000
# 4 0.000000 0.000000 0.000000 0.034247 0.000000 0.000000
# 5 0.000000 0.000000 0.000000 0.000000 0.027074 0.000000
# 6 0.000000 0.000000 0.000000 0.000000 0.000000 -1.615892
#
#
# Mechanical properties :
#
#
# Convention : Reuss Voigt Hill
#
# Bulk Modulus (GPa) = 35.11779 41.74049 38.42914
# Shear Modulus (GPa) = -3.45323 21.30532 8.92604
#
# Velocity S-wave (km/s) = -1.37141 3.40643 2.20488
# Velocity P-wave (km/s) = 4.07663 6.18104 5.23566
#
# Compressibility (1/GPa) = 0.02847559
#
# Stress axis : x y z
#
# Youngs Moduli (GPa) = 56.64432 36.88979 55.38122
#
# Poissons Ratio (x) = 0.16629 0.47352
# Poissons Ratio (y) = 0.25534 0.22781
# Poissons Ratio (z) = 0.48432 0.15174
#
# Static dielectric constant tensor:
#      x y z
#    x 3.205990 0.000000 0.000000 
#    y 0.000000 3.281900 0.000000 
#    z 0.000000 0.000000 3.839280 
# 
# 
# High freq. dielectric constant tensor:
#      x y z
#    x 1.695060 0.000000 0.000000 
#    y 0.000000 1.697730 0.000000 
#    z 0.000000 0.000000 1.726300 
# 
# From -- ./inp_files/15780.got.cif
#   From: 2010.03.12/outbox.cif.g09.slc.cpg/sg64_8_cif.got.tgz:15780.got - 2010.04.10 20:19:32.
