data_PCOD8262010
_publ_section_title
;
Structure prediction by ZEFSAII (Michael W. Deem and Ramdas Pophale) SiO2 
 PCOD8262010
Probable space group: C M C A
;
_chemical_formula_sum "Si O2"
_cell_formula_units_Z 96
_cell_length_a 8.811443
_cell_length_b 29.591207
_cell_length_c 20.771284
_cell_angle_alpha 90.000000
_cell_angle_beta 90.000000
_cell_angle_gamma 90.000000
_cell_volume 5415.930217
_symmetry_space_group_name_H-M "C M C A"
_symmetry_group_IT_number 64
_symmetry_cell_setting 'orthorhombic'
loop_
_space_group_symop_operation_xyz
x,y,z
-x,1/2-y,1/2+z
x,-y,-z
-x,1/2+y,1/2-z
-x,-y,-z
x,1/2+y,1/2-z
-x,y,z
x,1/2-y,1/2+z
1/2+x,1/2+y,z
1/2-x,-y,1/2+z
1/2+x,1/2-y,-z
1/2-x,y,1/2-z
1/2-x,1/2-y,-z
1/2+x,y,1/2-z
1/2-x,1/2+y,z
1/2+x,-y,1/2+z
loop_
_atom_site_type_symbol
_atom_site_label
_atom_site_fract_x
_atom_site_fract_y
_atom_site_fract_z
Si Si1 0.821673 0.195504 0.683824
Si Si2 0.176726 0.784464 0.049531
Si Si3 0.325018 0.093348 0.845527
Si Si4 0.326513 0.886126 0.472662
Si Si5 0.823504 0.967521 0.945192
Si Si6 0.322151 0.496554 0.187210
O O1 0.750000 0.215406 0.750000
O O2 0.750239 0.219148 0.620636
O O3 0.784067 0.142329 0.682789
O O4 0.000000 0.205272 0.683073
O O5 0.205789 0.833331 0.017051
O O6 0.000000 0.773720 0.057104
O O7 0.250000 0.750000 0.000000
O O8 0.500000 0.080780 0.834959
O O9 0.287938 0.093222 0.921027
O O10 0.220288 0.056465 0.811273
O O11 0.500000 0.893508 0.448729
O O12 0.297556 0.914550 0.538123
O O13 0.750883 0.979015 0.875827
O O14 0.000000 0.979620 0.939959
O O15 0.751308 0.000000 0.000000
O O16 0.500000 0.502509 0.191274
O O17 0.250000 0.520160 0.250000
#
# Coordination Sequence:
#
# PCOD8262010 Si02
#       6
#    16  16  16  16  16  16
#     4  10  20  33  50  74 105 137 169 206 254 310
#     4  10  20  34  55  79 105 134 170 215 261 311
#     4  10  19  30  46  72 104 135 166 203 249 301
#     4   9  17  32  53  75  97 131 173 209 252 300
#     4   9  16  30  52  73  94 128 172 210 244 293
#     4  11  21  32  47  67  98 134 170 211 251 298
#
# _framework density 17.725487000000001
#
# number of rings (size 3 to 8) (size 9 to 14) (size 15 to 20)
#    0.000    2.167    1.667    2.500    0.000    4.000 
#    0.000    2.500    0.000    1.000    0.000    2.333 
#    0.000    0.000    0.000    0.000    0.000    0.000 
#
# Total GULP energy -595037.799938 kJ/mol
# GULP energy per Si atom -12396.620832 kJ/mol
# Density = 1.768514 g / cm^3
# Si number density = 17.725487 Si / 1000 Ang^3
#
#
#
# Elastic Constant Matrix: (Units=GPa)
#
#
# Indices 1 2 3 4 5 6 
#
# 1 68.7863 26.0408 52.6672 0.0000 0.0000 0.0000
# 2 26.0408 67.6989 60.0020 0.0000 0.0000 0.0000
# 3 52.6672 60.0020 168.6359 0.0000 0.0000 0.0000
# 4 0.0000 0.0000 0.0000 21.1831 0.0000 0.0000
# 5 0.0000 0.0000 0.0000 0.0000 31.2239 0.0000
# 6 0.0000 0.0000 0.0000 0.0000 0.0000 14.8435
#
#
#
# Elastic Compliance Matrix: (Units=1/GPa)
#
#
# Indices 1 2 3 4 5 6 
#
# 1 0.019536 -0.003077 -0.005006 0.000000 0.000000 0.000000
# 2 -0.003077 0.022060 -0.006888 0.000000 0.000000 0.000000
# 3 -0.005006 -0.006888 0.009944 0.000000 0.000000 0.000000
# 4 0.000000 0.000000 0.000000 0.047208 0.000000 0.000000
# 5 0.000000 0.000000 0.000000 0.000000 0.032027 0.000000
# 6 0.000000 0.000000 0.000000 0.000000 0.000000 0.067369
#
#
# Mechanical properties :
#
#
# Convention : Reuss Voigt Hill
#
# Bulk Modulus (GPa) = 46.30353 64.72678 55.51515
# Shear Modulus (GPa) = 21.25070 24.54417 22.89744
#
# Velocity S-wave (km/s) = 3.46624 3.72517 3.59803
# Velocity P-wave (km/s) = 6.49608 7.42280 6.97485
#
# Compressibility (1/GPa) = 0.02159663
#
# Stress axis : x y z
#
# Youngs Moduli (GPa) = 51.18746 45.33116 100.56037
#
# Poissons Ratio (x) = 0.13950 0.50344
# Poissons Ratio (y) = 0.15753 0.69265
# Poissons Ratio (z) = 0.25626 0.31224
#
# Static dielectric constant tensor:
#      x y z
#    x 3.208600 0.000000 0.000000 
#    y 0.000000 3.081870 0.000000 
#    z 0.000000 0.000000 3.513680 
# 
# 
# High freq. dielectric constant tensor:
#      x y z
#    x 1.679200 0.000000 0.000000 
#    y 0.000000 1.650460 0.000000 
#    z 0.000000 0.000000 1.690070 
# 
# From -- ./inp_files/37070.got.cif
#   From: 2010.03.12/outbox.cif.g09.slc.cpg/sg64_19_cif.got.tgz:37070.got - 2010.04.10 20:19:32.
