data_PCOD8262251
_publ_section_title
;
Structure prediction by ZEFSAII (Michael W. Deem and Ramdas Pophale) SiO2 
 PCOD8262251
Probable space group: C M C A
;
_chemical_formula_sum "Si O2"
_cell_formula_units_Z 96
_cell_length_a 8.726260
_cell_length_b 19.326775
_cell_length_c 30.817790
_cell_angle_alpha 90.000000
_cell_angle_beta 90.000000
_cell_angle_gamma 90.000000
_cell_volume 5197.434571
_symmetry_space_group_name_H-M "C M C A"
_symmetry_group_IT_number 64
_symmetry_cell_setting 'orthorhombic'
loop_
_space_group_symop_operation_xyz
x,y,z
-x,1/2-y,1/2+z
x,-y,-z
-x,1/2+y,1/2-z
-x,-y,-z
x,1/2+y,1/2-z
-x,y,z
x,1/2-y,1/2+z
1/2+x,1/2+y,z
1/2-x,-y,1/2+z
1/2+x,1/2-y,-z
1/2-x,y,1/2-z
1/2-x,1/2-y,-z
1/2+x,y,1/2-z
1/2-x,1/2+y,z
1/2+x,-y,1/2+z
loop_
_atom_site_type_symbol
_atom_site_label
_atom_site_fract_x
_atom_site_fract_y
_atom_site_fract_z
Si Si1 0.319951 0.999516 0.368428
Si Si2 0.817842 0.605287 0.702845
Si Si3 0.680877 0.385071 0.066072
Si Si4 0.322218 0.293711 0.361305
Si Si5 0.319791 0.822718 0.986411
Si Si6 0.822016 0.647230 0.395077
O O1 0.500000 0.999881 0.363060
O O2 0.258943 0.078032 0.371192
O O3 0.255032 0.958597 0.326525
O O4 0.274350 0.958333 0.412232
O O5 0.750000 0.595156 0.750000
O O6 0.758694 0.676853 0.681763
O O7 0.000000 0.608169 0.705002
O O8 0.500000 0.375408 0.062108
O O9 0.744601 0.322736 0.095309
O O10 0.756255 0.381955 0.018663
O O11 0.500000 0.314471 0.360972
O O12 0.300084 0.210801 0.361902
O O13 0.500000 0.817700 0.991066
O O14 0.276165 0.842490 0.937965
O O15 0.250000 0.750000 0.000000
O O16 0.000000 0.639056 0.408413
#
# Coordination Sequence:
#
# PCOD8262251 Si02
#       6
#    16  16  16  16  16  16
#     4   8  18  36  57  80 108 146 181 218 272 330
#     4  10  20  37  61  84 108 139 179 222 269 329
#     4  10  19  34  55  77 107 146 189 228 265 317
#     4  10  19  32  55  82 109 140 178 223 269 320
#     4  12  23  34  51  77 109 146 191 235 277 319
#     4  10  20  36  56  79 110 146 184 223 273 327
#
# _framework density 18.470652000000001
#
# number of rings (size 3 to 8) (size 9 to 14) (size 15 to 20)
#    0.000    2.000    1.667    4.000    0.000    1.333 
#    0.000    9.167    0.000    2.000    0.000    0.000 
#    0.000    0.000    0.000    0.000    0.000    0.000 
#
# Total GULP energy -595177.658232 kJ/mol
# GULP energy per Si atom -12399.534546 kJ/mol
# Density = 1.842861 g / cm^3
# Si number density = 18.470652 Si / 1000 Ang^3
#
#
#
# Elastic Constant Matrix: (Units=GPa)
#
#
# Indices 1 2 3 4 5 6 
#
# 1 103.5755 43.8117 45.2554 0.0000 0.0000 0.0000
# 2 43.8117 142.3124 59.9038 0.0000 0.0000 0.0000
# 3 45.2554 59.9038 122.1930 0.0000 0.0000 0.0000
# 4 0.0000 0.0000 0.0000 21.6702 0.0000 0.0000
# 5 0.0000 0.0000 0.0000 0.0000 32.8787 0.0000
# 6 0.0000 0.0000 0.0000 0.0000 0.0000 21.2085
#
#
#
# Elastic Compliance Matrix: (Units=1/GPa)
#
#
# Indices 1 2 3 4 5 6 
#
# 1 0.012096 -0.002316 -0.003344 0.000000 0.000000 0.000000
# 2 -0.002316 0.009297 -0.003700 0.000000 0.000000 0.000000
# 3 -0.003344 -0.003700 0.011236 0.000000 0.000000 0.000000
# 4 0.000000 0.000000 0.000000 0.046146 0.000000 0.000000
# 5 0.000000 0.000000 0.000000 0.000000 0.030415 0.000000
# 6 0.000000 0.000000 0.000000 0.000000 0.000000 0.047151
#
#
# Mechanical properties :
#
#
# Convention : Reuss Voigt Hill
#
# Bulk Modulus (GPa) = 71.89934 74.00252 72.95093
# Shear Modulus (GPa) = 27.82437 29.75880 28.79158
#
# Velocity S-wave (km/s) = 3.88546 4.01825 3.95242
# Velocity P-wave (km/s) = 7.69024 7.85369 7.77239
#
# Compressibility (1/GPa) = 0.01390833
#
# Stress axis : x y z
#
# Youngs Moduli (GPa) = 82.67399 107.55812 88.99676
#
# Poissons Ratio (x) = 0.24910 0.29764
# Poissons Ratio (y) = 0.19147 0.32930
# Poissons Ratio (z) = 0.27649 0.39798
#
# Static dielectric constant tensor:
#      x y z
#    x 3.379810 0.000000 0.000000 
#    y 0.000000 3.795660 0.000000 
#    z 0.000000 0.000000 3.456490 
# 
# 
# High freq. dielectric constant tensor:
#      x y z
#    x 1.714480 0.000000 0.000000 
#    y 0.000000 1.715770 0.000000 
#    z 0.000000 0.000000 1.703970 
# 
# From -- ./inp_files/48104.got.cif
#   From: 2010.03.12/outbox.cif.g09.slc.cpg/sg64_25_cif.got.tgz:48104.got - 2010.04.10 20:19:32.
