data_PCOD8262503
_publ_section_title
;
Structure prediction by ZEFSAII (Michael W. Deem and Ramdas Pophale) SiO2 
 PCOD8262503
Probable space group: C M C A
;
_chemical_formula_sum "Si O2"
_cell_formula_units_Z 96
_cell_length_a 8.688114
_cell_length_b 19.952623
_cell_length_c 29.204926
_cell_angle_alpha 90.000000
_cell_angle_beta 90.000000
_cell_angle_gamma 90.000000
_cell_volume 5062.693291
_symmetry_space_group_name_H-M "C M C A"
_symmetry_group_IT_number 64
_symmetry_cell_setting 'orthorhombic'
loop_
_space_group_symop_operation_xyz
x,y,z
-x,1/2-y,1/2+z
x,-y,-z
-x,1/2+y,1/2-z
-x,-y,-z
x,1/2+y,1/2-z
-x,y,z
x,1/2-y,1/2+z
1/2+x,1/2+y,z
1/2-x,-y,1/2+z
1/2+x,1/2-y,-z
1/2-x,y,1/2-z
1/2-x,1/2-y,-z
1/2+x,y,1/2-z
1/2-x,1/2+y,z
1/2+x,-y,1/2+z
loop_
_atom_site_type_symbol
_atom_site_label
_atom_site_fract_x
_atom_site_fract_y
_atom_site_fract_z
Si Si1 0.316697 0.363448 0.299131
Si Si2 0.182722 0.005226 0.200468
Si Si3 0.317856 0.566439 0.475129
Si Si4 0.318264 0.693173 0.530536
Si Si5 0.182127 0.106570 0.121141
Si Si6 0.817350 0.758025 0.373050
O O1 0.500000 0.369086 0.297764
O O2 0.250000 0.345761 0.250000
O O3 0.249882 0.434222 0.316737
O O4 0.258344 0.302581 0.330855
O O5 0.250000 0.024944 0.250000
O O6 0.234458 0.061644 0.164218
O O7 0.000000 0.999552 0.204484
O O8 0.258026 0.500000 0.500000
O O9 0.500000 0.566308 0.468747
O O10 0.260217 0.623633 0.509730
O O11 0.245918 0.574314 0.425153
O O12 0.500000 0.698028 0.529501
O O13 0.250000 0.750000 0.500000
O O14 0.256484 0.703651 0.581889
O O15 0.248137 0.181989 0.128698
O O16 0.000000 0.108362 0.116971
O O17 0.000000 0.754651 0.372699
#
# Coordination Sequence:
#
# PCOD8262503 Si02
#       6
#    16  16  16  16  16  16
#     4  10  20  36  59  82 108 142 177 220 270 319
#     4  10  21  37  57  81 108 141 178 220 270 322
#     4  10  22  36  54  82 112 142 183 226 266 319
#     4  10  19  35  56  78 107 144 180 217 264 317
#     4  10  21  38  57  79 109 143 182 223 268 322
#     4   9  19  35  56  79 106 143 179 215 267 320
#
# _framework density 18.962237999999999
#
# number of rings (size 3 to 8) (size 9 to 14) (size 15 to 20)
#    0.000    2.167    1.667    2.000    2.333    2.333 
#    0.000    3.333    0.000    0.000    0.000    0.000 
#    0.000    0.000    0.000    0.000    0.000    0.000 
#
# Total GULP energy -595125.758255 kJ/mol
# GULP energy per Si atom -12398.453297 kJ/mol
# Density = 1.891908 g / cm^3
# Si number density = 18.962238 Si / 1000 Ang^3
#
#
#
# Elastic Constant Matrix: (Units=GPa)
#
#
# Indices 1 2 3 4 5 6 
#
# 1 37.9399 33.1207 34.5989 0.0000 0.0000 0.0000
# 2 33.1207 185.4575 115.8459 0.0000 0.0000 0.0000
# 3 34.5989 115.8459 161.2443 0.0000 0.0000 0.0000
# 4 0.0000 0.0000 0.0000 46.3154 0.0000 0.0000
# 5 0.0000 0.0000 0.0000 0.0000 26.5743 0.0000
# 6 0.0000 0.0000 0.0000 0.0000 0.0000 24.7456
#
#
#
# Elastic Compliance Matrix: (Units=1/GPa)
#
#
# Indices 1 2 3 4 5 6 
#
# 1 0.033503 -0.002708 -0.005243 0.000000 0.000000 0.000000
# 2 -0.002708 0.010001 -0.006604 0.000000 0.000000 0.000000
# 3 -0.005243 -0.006604 0.012072 0.000000 0.000000 0.000000
# 4 0.000000 0.000000 0.000000 0.021591 0.000000 0.000000
# 5 0.000000 0.000000 0.000000 0.000000 0.037630 0.000000
# 6 0.000000 0.000000 0.000000 0.000000 0.000000 0.040411
#
#
# Mechanical properties :
#
#
# Convention : Reuss Voigt Hill
#
# Bulk Modulus (GPa) = 37.78614 83.53029 60.65822
# Shear Modulus (GPa) = 25.88784 32.93214 29.40999
#
# Velocity S-wave (km/s) = 3.69891 4.17192 3.94252
# Velocity P-wave (km/s) = 6.18166 8.20689 7.26519
#
# Compressibility (1/GPa) = 0.02646473
#
# Stress axis : x y z
#
# Youngs Moduli (GPa) = 29.84791 99.99053 82.83927
#
# Poissons Ratio (x) = 0.27078 0.43435
# Poissons Ratio (y) = 0.08083 0.54708
# Poissons Ratio (z) = 0.15650 0.66035
#
# Static dielectric constant tensor:
#      x y z
#    x 3.284790 0.000000 0.000000 
#    y 0.000000 3.809730 0.000000 
#    z 0.000000 0.000000 3.641360 
# 
# 
# High freq. dielectric constant tensor:
#      x y z
#    x 1.718350 0.000000 0.000000 
#    y 0.000000 1.749900 0.000000 
#    z 0.000000 0.000000 1.747370 
# 
# From -- ./inp_files/48116.got.cif
#   From: 2010.03.12/outbox.cif.g09.slc.cpg/sg64_25_cif.got.tgz:48116.got - 2010.04.10 20:19:32.
