data_PCOD8262446
_publ_section_title
;
Structure prediction by ZEFSAII (Michael W. Deem and Ramdas Pophale) SiO2 
 PCOD8262446
Probable space group: C M C A
;
_chemical_formula_sum "Si O2"
_cell_formula_units_Z 96
_cell_length_a 18.006249
_cell_length_b 17.842318
_cell_length_c 15.091242
_cell_angle_alpha 90.000000
_cell_angle_beta 90.000000
_cell_angle_gamma 90.000000
_cell_volume 4848.411921
_symmetry_space_group_name_H-M "C M C A"
_symmetry_group_IT_number 64
_symmetry_cell_setting 'orthorhombic'
loop_
_space_group_symop_operation_xyz
x,y,z
-x,1/2-y,1/2+z
x,-y,-z
-x,1/2+y,1/2-z
-x,-y,-z
x,1/2+y,1/2-z
-x,y,z
x,1/2-y,1/2+z
1/2+x,1/2+y,z
1/2-x,-y,1/2+z
1/2+x,1/2-y,-z
1/2-x,y,1/2-z
1/2-x,1/2-y,-z
1/2+x,y,1/2-z
1/2-x,1/2+y,z
1/2+x,-y,1/2+z
loop_
_atom_site_type_symbol
_atom_site_label
_atom_site_fract_x
_atom_site_fract_y
_atom_site_fract_z
Si Si1 0.303969 0.957439 0.084478
Si Si2 0.413018 0.212726 0.598182
Si Si3 0.634529 0.546384 0.915058
Si Si4 0.083383 0.221586 0.706005
Si Si5 0.919638 0.044122 0.724817
Si Si6 0.176090 0.214642 0.542464
O O1 0.219032 0.977891 0.103374
O O2 0.352590 0.988324 0.166469
O O3 0.309569 0.870238 0.065366
O O4 0.335717 0.000000 0.000000
O O5 0.500000 0.196239 0.594559
O O6 0.371209 0.135878 0.570613
O O7 0.390466 0.244786 0.695121
O O8 0.389333 0.276936 0.529491
O O9 0.589187 0.523014 0.827916
O O10 0.603839 0.500000 0.000000
O O11 0.080871 0.132313 0.708806
O O12 0.143715 0.251937 0.633971
O O13 0.000000 0.252345 0.684255
O O14 0.000000 0.011730 0.694842
O O15 0.250000 0.250000 0.500000
#
# Coordination Sequence:
#
# PCOD8262446 Si02
#       6
#    16  16  16  16  16  16
#     4  10  21  37  57  80 112 145 184 226 272 328
#     4  10  20  35  56  82 110 145 186 230 275 325
#     4  10  19  34  57  83 113 145 184 230 277 324
#     4   8  17  33  53  77 107 142 181 222 268 325
#     4   9  18  33  55  81 107 146 189 222 267 331
#     4  11  20  34  56  82 107 142 184 225 271 324
#
# _framework density 19.800298000000002
#
# number of rings (size 3 to 8) (size 9 to 14) (size 15 to 20)
#    0.000    2.333    1.667    2.500    0.000    3.000 
#    0.000    1.667    7.333    2.000    0.000    0.000 
#    0.000    0.000    0.000    0.000    0.000    0.000 
#
# Total GULP energy -594797.238800 kJ/mol
# GULP energy per Si atom -12391.609142 kJ/mol
# Density = 1.975523 g / cm^3
# Si number density = 19.800298 Si / 1000 Ang^3
#
#
#
# Elastic Constant Matrix: (Units=GPa)
#
#
# Indices 1 2 3 4 5 6 
#
# 1 99.1701 12.4508 64.3118 0.0000 0.0000 0.0000
# 2 12.4508 16.5647 20.9233 0.0000 0.0000 0.0000
# 3 64.3118 20.9233 140.7810 0.0000 0.0000 0.0000
# 4 0.0000 0.0000 0.0000 31.4686 0.0000 0.0000
# 5 0.0000 0.0000 0.0000 0.0000 29.5853 0.0000
# 6 0.0000 0.0000 0.0000 0.0000 0.0000 17.0960
#
#
#
# Elastic Compliance Matrix: (Units=1/GPa)
#
#
# Indices 1 2 3 4 5 6 
#
# 1 0.014457 -0.003108 -0.006142 0.000000 0.000000 0.000000
# 2 -0.003108 0.074990 -0.009725 0.000000 0.000000 0.000000
# 3 -0.006142 -0.009725 0.011355 0.000000 0.000000 0.000000
# 4 0.000000 0.000000 0.000000 0.031778 0.000000 0.000000
# 5 0.000000 0.000000 0.000000 0.000000 0.033801 0.000000
# 6 0.000000 0.000000 0.000000 0.000000 0.000000 0.058493
#
#
# Mechanical properties :
#
#
# Convention : Reuss Voigt Hill
#
# Bulk Modulus (GPa) = 15.91086 50.20973 33.06029
# Shear Modulus (GPa) = 17.61955 26.21863 21.91909
#
# Velocity S-wave (km/s) = 2.98629 3.64284 3.33078
# Velocity P-wave (km/s) = 4.46584 6.56558 5.61474
#
# Compressibility (1/GPa) = 0.06285017
#
# Stress axis : x y z
#
# Youngs Moduli (GPa) = 69.16926 13.33508 88.06950
#
# Poissons Ratio (x) = 0.04145 0.54096
# Poissons Ratio (y) = 0.21498 0.85651
# Poissons Ratio (z) = 0.42487 0.12969
#
# Static dielectric constant tensor:
#      x y z
#    x 3.913870 0.000000 0.000000 
#    y 0.000000 3.169350 0.000000 
#    z 0.000000 0.000000 4.149640 
# 
# 
# High freq. dielectric constant tensor:
#      x y z
#    x 1.784520 0.000000 0.000000 
#    y 0.000000 1.717550 0.000000 
#    z 0.000000 0.000000 1.786030 
# 
# From -- ./inp_files/16179.got.cif
#   From: 2010.03.12/outbox.cif.g09.slc.cpg/sg64_9_cif.got.tgz:16179.got - 2010.04.10 20:19:32.
