data_PCOD8262054
_publ_section_title
;
Structure prediction by ZEFSAII (Michael W. Deem and Ramdas Pophale) SiO2 
 PCOD8262054
Probable space group: C M C A
;
_chemical_formula_sum "Si O2"
_cell_formula_units_Z 96
_cell_length_a 9.080593
_cell_length_b 18.442952
_cell_length_c 31.274372
_cell_angle_alpha 90.000000
_cell_angle_beta 90.000000
_cell_angle_gamma 90.000000
_cell_volume 5237.611051
_symmetry_space_group_name_H-M "C M C A"
_symmetry_group_IT_number 64
_symmetry_cell_setting 'orthorhombic'
loop_
_space_group_symop_operation_xyz
x,y,z
-x,1/2-y,1/2+z
x,-y,-z
-x,1/2+y,1/2-z
-x,-y,-z
x,1/2+y,1/2-z
-x,y,z
x,1/2-y,1/2+z
1/2+x,1/2+y,z
1/2-x,-y,1/2+z
1/2+x,1/2-y,-z
1/2-x,y,1/2-z
1/2-x,1/2-y,-z
1/2+x,y,1/2-z
1/2-x,1/2+y,z
1/2+x,-y,1/2+z
loop_
_atom_site_type_symbol
_atom_site_label
_atom_site_fract_x
_atom_site_fract_y
_atom_site_fract_z
Si Si1 0.328562 0.287849 0.960799
Si Si2 0.666900 0.786132 0.875601
Si Si3 0.170042 0.042215 0.041450
Si Si4 0.333092 0.285195 0.791978
Si Si5 0.834458 0.458782 0.874594
Si Si6 0.333980 0.958169 0.708311
O O1 0.500000 0.267324 0.959978
O O2 0.254591 0.258898 0.917233
O O3 0.303843 0.373167 0.965954
O O4 0.250000 0.250000 0.000000
O O5 0.500000 0.756324 0.877025
O O6 0.748400 0.755152 0.833653
O O7 0.667209 0.872423 0.873948
O O8 0.259354 0.012631 0.082136
O O9 0.000000 0.024674 0.050148
O O10 0.229005 0.000000 0.000000
O O11 0.500000 0.255698 0.792167
O O12 0.250000 0.255634 0.750000
O O13 0.333032 0.371686 0.792081
O O14 0.746032 0.489083 0.833806
O O15 0.000000 0.488934 0.872480
O O16 0.500000 0.987945 0.709095
O O17 0.250000 0.987819 0.750000
#
# Coordination Sequence:
#
# PCOD8262054 Si02
#       6
#    16  16  16  16  16  16
#     4  10  19  31  47  66  89 117 149 185 224 266
#     4   9  16  26  39  56  80 110 143 178 217 261
#     4   9  18  32  48  65  87 117 151 185 222 264
#     4   9  15  22  33  51  76 107 141 175 213 258
#     4   9  16  25  38  57  81 109 141 177 218 262
#     4   9  15  22  33  50  75 107 141 175 212 257
#
# _framework density 18.328966999999999
#
# number of rings (size 3 to 8) (size 9 to 14) (size 15 to 20)
#    0.000    2.833    0.000    2.500    0.000    9.000 
#    0.000    0.000    0.000    0.000    0.000    0.000 
#    0.000    1.333    0.000   10.667    0.000   18.000 
#
# Total GULP energy -595174.356852 kJ/mol
# GULP energy per Si atom -12399.465768 kJ/mol
# Density = 1.828725 g / cm^3
# Si number density = 18.328967 Si / 1000 Ang^3
#
#
#
# Elastic Constant Matrix: (Units=GPa)
#
#
# Indices 1 2 3 4 5 6 
#
# 1 183.4603 17.8916 118.9420 0.0000 0.0000 0.0000
# 2 17.8916 7.2031 21.3111 0.0000 0.0000 0.0000
# 3 118.9420 21.3111 216.9672 0.0000 0.0000 0.0000
# 4 0.0000 0.0000 0.0000 18.3897 0.0000 0.0000
# 5 0.0000 0.0000 0.0000 0.0000 46.3599 0.0000
# 6 0.0000 0.0000 0.0000 0.0000 0.0000 9.1402
#
#
#
# Elastic Compliance Matrix: (Units=1/GPa)
#
#
# Indices 1 2 3 4 5 6 
#
# 1 0.009032 -0.010975 -0.003874 0.000000 0.000000 0.000000
# 2 -0.010975 0.209035 -0.014516 0.000000 0.000000 0.000000
# 3 -0.003874 -0.014516 0.008158 0.000000 0.000000 0.000000
# 4 0.000000 0.000000 0.000000 0.054378 0.000000 0.000000
# 5 0.000000 0.000000 0.000000 0.000000 0.021570 0.000000
# 6 0.000000 0.000000 0.000000 0.000000 0.000000 0.109407
#
#
# Mechanical properties :
#
#
# Convention : Reuss Voigt Hill
#
# Bulk Modulus (GPa) = 5.97024 80.43557 43.20291
# Shear Modulus (GPa) = 9.50314 31.41034 20.45674
#
# Velocity S-wave (km/s) = 2.27948 4.14418 3.34441
# Velocity P-wave (km/s) = 3.19255 8.17793 6.20770
#
# Compressibility (1/GPa) = 0.16749747
#
# Stress axis : x y z
#
# Youngs Moduli (GPa) = 110.71198 4.78389 122.57488
#
# Poissons Ratio (x) = 0.05250 0.47481
# Poissons Ratio (y) = 1.21506 1.77924
# Poissons Ratio (z) = 0.42886 0.06944
#
# Static dielectric constant tensor:
#      x y z
#    x 3.615390 0.000000 0.000000 
#    y 0.000000 2.637160 0.000000 
#    z 0.000000 0.000000 3.643330 
# 
# 
# High freq. dielectric constant tensor:
#      x y z
#    x 1.728690 0.000000 0.000000 
#    y 0.000000 1.620250 0.000000 
#    z 0.000000 0.000000 1.732290 
# 
# From -- ./inp_files/48338.got.cif
#   From: 2010.03.12/outbox.cif.g09.slc.cpg/sg64_25_cif.got.tgz:48338.got - 2010.04.10 20:19:32.
