data_PCOD8262356
_publ_section_title
;
Structure prediction by ZEFSAII (Michael W. Deem and Ramdas Pophale) SiO2 
 PCOD8262356
Probable space group: C M C A
;
_chemical_formula_sum "Si O2"
_cell_formula_units_Z 96
_cell_length_a 9.298653
_cell_length_b 29.313329
_cell_length_c 18.595409
_cell_angle_alpha 90.000000
_cell_angle_beta 90.000000
_cell_angle_gamma 90.000000
_cell_volume 5068.633839
_symmetry_space_group_name_H-M "C M C A"
_symmetry_group_IT_number 64
_symmetry_cell_setting 'orthorhombic'
loop_
_space_group_symop_operation_xyz
x,y,z
-x,1/2-y,1/2+z
x,-y,-z
-x,1/2+y,1/2-z
-x,-y,-z
x,1/2+y,1/2-z
-x,y,z
x,1/2-y,1/2+z
1/2+x,1/2+y,z
1/2-x,-y,1/2+z
1/2+x,1/2-y,-z
1/2-x,y,1/2-z
1/2-x,1/2-y,-z
1/2+x,y,1/2-z
1/2-x,1/2+y,z
1/2+x,-y,1/2+z
loop_
_atom_site_type_symbol
_atom_site_label
_atom_site_fract_x
_atom_site_fract_y
_atom_site_fract_z
Si Si1 0.665434 0.596543 0.424872
Si Si2 0.832272 0.484869 0.824058
Si Si3 0.165791 0.860232 0.178543
Si Si4 0.334921 0.072353 0.915281
Si Si5 0.163437 0.727448 0.595105
Si Si6 0.331753 0.188542 0.441067
O O1 0.500000 0.611810 0.417630
O O2 0.711027 0.562956 0.360454
O O3 0.688693 0.569255 0.499263
O O4 0.763434 0.640898 0.418306
O O5 0.750000 0.491907 0.750000
O O6 0.789715 0.524747 0.879449
O O7 0.000000 0.486298 0.806649
O O8 0.250000 0.873592 0.250000
O O9 0.231636 0.888018 0.112726
O O10 0.182133 0.806460 0.162338
O O11 0.000000 0.874007 0.187998
O O12 0.500000 0.084751 0.896945
O O13 0.265870 0.770797 0.607499
O O14 0.206427 0.699371 0.523633
O O15 0.000000 0.744969 0.588172
O O16 0.500000 0.185857 0.426059
#
# Coordination Sequence:
#
# PCOD8262356 Si02
#       6
#    16  16  16  16  16  16
#     4  10  20  36  59  84 112 146 187 233 280 333
#     4  10  22  39  57  81 112 149 189 230 279 335
#     4  11  22  36  54  81 117 151 187 230 280 337
#     4  10  20  36  59  84 110 145 188 233 281 333
#     4   9  19  35  53  77 111 146 180 223 273 329
#     4  10  19  33  56  84 110 138 181 230 276 326
#
# _framework density 18.940014999999999
#
# number of rings (size 3 to 8) (size 9 to 14) (size 15 to 20)
#    0.000    2.000    1.667    2.000    0.000    6.667 
#    0.000    0.833    0.000    3.000    0.000    0.000 
#    0.000    0.000    0.000    0.000    0.000    0.000 
#
# Total GULP energy -595343.072432 kJ/mol
# GULP energy per Si atom -12402.980676 kJ/mol
# Density = 1.889691 g / cm^3
# Si number density = 18.940015 Si / 1000 Ang^3
#
#
#
# Elastic Constant Matrix: (Units=GPa)
#
#
# Indices 1 2 3 4 5 6 
#
# 1 92.9231 58.5182 27.7382 0.0000 0.0000 0.0000
# 2 58.5182 116.3746 18.7153 0.0000 0.0000 0.0000
# 3 27.7382 18.7153 46.5008 0.0000 0.0000 0.0000
# 4 0.0000 0.0000 0.0000 20.4117 0.0000 0.0000
# 5 0.0000 0.0000 0.0000 0.0000 25.3294 0.0000
# 6 0.0000 0.0000 0.0000 0.0000 0.0000 33.3709
#
#
#
# Elastic Compliance Matrix: (Units=1/GPa)
#
#
# Indices 1 2 3 4 5 6 
#
# 1 0.017929 -0.007801 -0.007556 0.000000 0.000000 0.000000
# 2 -0.007801 0.012581 -0.000411 0.000000 0.000000 0.000000
# 3 -0.007556 -0.000411 0.026177 0.000000 0.000000 0.000000
# 4 0.000000 0.000000 0.000000 0.048992 0.000000 0.000000
# 5 0.000000 0.000000 0.000000 0.000000 0.039480 0.000000
# 6 0.000000 0.000000 0.000000 0.000000 0.000000 0.029966
#
#
# Mechanical properties :
#
#
# Convention : Reuss Voigt Hill
#
# Bulk Modulus (GPa) = 39.75407 51.74909 45.75158
# Shear Modulus (GPa) = 23.25106 25.87751 24.56428
#
# Velocity S-wave (km/s) = 3.50754 3.70034 3.60523
# Velocity P-wave (km/s) = 6.11872 6.75564 6.44505
#
# Compressibility (1/GPa) = 0.02515466
#
# Stress axis : x y z
#
# Youngs Moduli (GPa) = 55.77437 79.48216 38.20119
#
# Poissons Ratio (x) = 0.62001 0.28863
# Poissons Ratio (y) = 0.43507 0.01568
# Poissons Ratio (z) = 0.42141 0.03263
#
# Static dielectric constant tensor:
#      x y z
#    x 3.450850 0.000000 0.000000 
#    y 0.000000 3.470040 0.000000 
#    z 0.000000 0.000000 3.285510 
# 
# 
# High freq. dielectric constant tensor:
#      x y z
#    x 1.736390 0.000000 0.000000 
#    y 0.000000 1.741290 0.000000 
#    z 0.000000 0.000000 1.719230 
# 
# From -- ./inp_files/37032.got.cif
#   From: 2010.03.12/outbox.cif.g09.slc.cpg/sg64_19_cif.got.tgz:37032.got - 2010.04.10 20:19:32.
