data_PCOD8262033
_publ_section_title
;
Structure prediction by ZEFSAII (Michael W. Deem and Ramdas Pophale) SiO2 
 PCOD8262033
Probable space group: C M C A
;
_chemical_formula_sum "Si O2"
_cell_formula_units_Z 80
_cell_length_a 26.170252
_cell_length_b 32.045010
_cell_length_c 4.871401
_cell_angle_alpha 90.000000
_cell_angle_beta 90.000000
_cell_angle_gamma 90.000000
_cell_volume 4085.283472
_symmetry_space_group_name_H-M "C M C A"
_symmetry_group_IT_number 64
_symmetry_cell_setting 'orthorhombic'
loop_
_space_group_symop_operation_xyz
x,y,z
-x,1/2-y,1/2+z
x,-y,-z
-x,1/2+y,1/2-z
-x,-y,-z
x,1/2+y,1/2-z
-x,y,z
x,1/2-y,1/2+z
1/2+x,1/2+y,z
1/2-x,-y,1/2+z
1/2+x,1/2-y,-z
1/2-x,y,1/2-z
1/2-x,1/2-y,-z
1/2+x,y,1/2-z
1/2-x,1/2+y,z
1/2+x,-y,1/2+z
loop_
_atom_site_type_symbol
_atom_site_label
_atom_site_fract_x
_atom_site_fract_y
_atom_site_fract_z
Si Si1 0.308004 0.085679 0.316542
Si Si2 0.058483 0.222251 0.264317
Si Si3 0.941649 0.089541 0.622986
Si Si4 0.098362 0.864150 0.891622
Si Si5 0.653109 0.541132 0.677565
O O1 0.250000 0.097362 0.250000
O O2 0.341336 0.124462 0.430637
O O3 0.316600 0.045894 0.528971
O O4 0.328826 0.078466 0.013068
O O5 0.069922 0.238477 0.568393
O O6 0.095194 0.183613 0.200708
O O7 0.000000 0.206991 0.230466
O O8 0.929178 0.103898 0.315572
O O9 0.907585 0.049318 0.721161
O O10 0.000000 0.075104 0.642201
O O11 0.930288 0.129195 0.819182
O O12 0.665468 0.500000 0.500000
#
# Coordination Sequence:
#
# PCOD8262033 Si02
#       5
#    16  16  16  16  16
#     4  10  21  37  56  75  98 135 177 217 263 306
#     4  10  19  30  48  75 105 135 165 204 257 308
#     4  10  19  32  52  75 103 141 174 205 252 309
#     4  10  20  34  52  75 104 136 176 216 250 307
#     4  10  21  35  52  78 106 131 169 217 262 311
#
# _framework density 19.582481999999999
#
# number of rings (size 3 to 8) (size 9 to 14) (size 15 to 20)
#    0.000    2.000    0.000    4.200    0.000    3.600 
#    0.000    0.000    0.000    8.400    0.000    0.000 
#    0.000    0.000    0.000    0.000    0.000    0.000 
#
# Total GULP energy -495687.393620 kJ/mol
# GULP energy per Si atom -12392.184840 kJ/mol
# Density = 1.953791 g / cm^3
# Si number density = 19.582482 Si / 1000 Ang^3
#
#
#
# Elastic Constant Matrix: (Units=GPa)
#
#
# Indices 1 2 3 4 5 6 
#
# 1 140.0811 32.6473 26.1551 0.0000 0.0000 0.0000
# 2 32.6473 52.9679 -2.3393 0.0000 0.0000 0.0000
# 3 26.1551 -2.3393 81.8297 0.0000 0.0000 0.0000
# 4 0.0000 0.0000 0.0000 18.2611 0.0000 0.0000
# 5 0.0000 0.0000 0.0000 0.0000 21.8724 0.0000
# 6 0.0000 0.0000 0.0000 0.0000 0.0000 14.0884
#
#
#
# Elastic Compliance Matrix: (Units=1/GPa)
#
#
# Indices 1 2 3 4 5 6 
#
# 1 0.009038 -0.005706 -0.003052 0.000000 0.000000 0.000000
# 2 -0.005706 0.022505 0.002467 0.000000 0.000000 0.000000
# 3 -0.003052 0.002467 0.013267 0.000000 0.000000 0.000000
# 4 0.000000 0.000000 0.000000 0.054761 0.000000 0.000000
# 5 0.000000 0.000000 0.000000 0.000000 0.045720 0.000000
# 6 0.000000 0.000000 0.000000 0.000000 0.000000 0.070981
#
#
# Mechanical properties :
#
#
# Convention : Reuss Voigt Hill
#
# Bulk Modulus (GPa) = 31.02824 43.08943 37.05883
# Shear Modulus (GPa) = 20.86850 25.40541 23.13696
#
# Velocity S-wave (km/s) = 3.26800 3.60579 3.44104
# Velocity P-wave (km/s) = 5.48809 6.27594 5.89519
#
# Compressibility (1/GPa) = 0.03222871
#
# Stress axis : x y z
#
# Youngs Moduli (GPa) = 110.63980 44.43441 75.37758
#
# Poissons Ratio (x) = 0.25353 0.23005
# Poissons Ratio (y) = 0.63127 -0.18596
# Poissons Ratio (z) = 0.33768 -0.10962
#
# Static dielectric constant tensor:
#      x y z
#    x 3.692090 0.000000 0.000000 
#    y 0.000000 3.191350 0.000000 
#    z 0.000000 0.000000 3.855030 
# 
# 
# High freq. dielectric constant tensor:
#      x y z
#    x 1.744480 0.000000 0.000000 
#    y 0.000000 1.726010 0.000000 
#    z 0.000000 0.000000 1.790660 
# 
# From -- ./inp_files/2357.got.cif
#   From: 2010.03.12/outbox.cif.g09.slc.cpg/sg64_2_cif.got.tgz:2357.got - 2010.04.10 20:19:32.
