data_PCOD8262160
_publ_section_title
;
Structure prediction by ZEFSAII (Michael W. Deem and Ramdas Pophale) SiO2 
 PCOD8262160
Probable space group: C M C A
;
_chemical_formula_sum "Si O2"
_cell_formula_units_Z 96
_cell_length_a 8.990694
_cell_length_b 23.523980
_cell_length_c 25.705647
_cell_angle_alpha 90.000000
_cell_angle_beta 90.000000
_cell_angle_gamma 90.000000
_cell_volume 5436.664803
_symmetry_space_group_name_H-M "C M C A"
_symmetry_group_IT_number 64
_symmetry_cell_setting 'orthorhombic'
loop_
_space_group_symop_operation_xyz
x,y,z
-x,1/2-y,1/2+z
x,-y,-z
-x,1/2+y,1/2-z
-x,-y,-z
x,1/2+y,1/2-z
-x,y,z
x,1/2-y,1/2+z
1/2+x,1/2+y,z
1/2-x,-y,1/2+z
1/2+x,1/2-y,-z
1/2-x,y,1/2-z
1/2-x,1/2-y,-z
1/2+x,y,1/2-z
1/2-x,1/2+y,z
1/2+x,-y,1/2+z
loop_
_atom_site_type_symbol
_atom_site_label
_atom_site_fract_x
_atom_site_fract_y
_atom_site_fract_z
Si Si1 0.332080 0.911038 0.622141
Si Si2 0.322883 0.828799 0.805120
Si Si3 0.329420 0.258045 0.108672
Si Si4 0.173169 0.874767 0.068938
Si Si5 0.334630 0.816892 0.534508
Si Si6 0.324123 0.990494 0.059730
O O1 0.500000 0.927754 0.639043
O O2 0.240319 0.887965 0.671822
O O3 0.335721 0.861861 0.580389
O O4 0.250479 0.965069 0.598255
O O5 0.500000 0.833080 0.800078
O O6 0.250000 0.816867 0.750000
O O7 0.269682 0.775256 0.840774
O O8 0.500000 0.242438 0.102252
O O9 0.304778 0.326287 0.113615
O O10 0.257113 0.237596 0.054119
O O11 0.272725 0.929272 0.081054
O O12 0.000000 0.892785 0.064051
O O13 0.234829 0.847732 0.015448
O O14 0.500000 0.795905 0.520559
O O15 0.500000 0.996306 0.064071
O O16 0.270985 0.000000 0.000000
#
# Coordination Sequence:
#
# PCOD8262160 Si02
#       6
#    16  16  16  16  16  16
#     4  10  19  33  53  77 104 137 175 217 262 308
#     4  10  20  36  57  81 105 131 168 216 267 315
#     4   9  19  32  49  73 102 132 168 213 259 307
#     4  10  19  32  48  70 102 141 177 210 252 307
#     4   9  17  28  46  71 101 135 171 206 249 306
#     4  11  22  33  48  73 106 144 182 219 257 305
#
# _framework density 17.657883999999999
#
# number of rings (size 3 to 8) (size 9 to 14) (size 15 to 20)
#    0.000    2.167    1.667    2.000    0.000    3.333 
#    0.000    0.000    0.000    1.000    0.000    4.667 
#    0.000    0.000    0.000    0.000    0.000    0.000 
#
# Total GULP energy -595065.540114 kJ/mol
# GULP energy per Si atom -12397.198752 kJ/mol
# Density = 1.761769 g / cm^3
# Si number density = 17.657884 Si / 1000 Ang^3
#
#
#
# Elastic Constant Matrix: (Units=GPa)
#
#
# Indices 1 2 3 4 5 6 
#
# 1 75.4482 39.2668 28.9055 0.0000 0.0000 0.0000
# 2 39.2668 91.8383 24.7568 0.0000 0.0000 0.0000
# 3 28.9055 24.7568 75.2304 0.0000 0.0000 0.0000
# 4 0.0000 0.0000 0.0000 16.3089 0.0000 0.0000
# 5 0.0000 0.0000 0.0000 0.0000 24.5850 0.0000
# 6 0.0000 0.0000 0.0000 0.0000 0.0000 30.4851
#
#
#
# Elastic Compliance Matrix: (Units=1/GPa)
#
#
# Indices 1 2 3 4 5 6 
#
# 1 0.018600 -0.006613 -0.004970 0.000000 0.000000 0.000000
# 2 -0.006613 0.014300 -0.002165 0.000000 0.000000 0.000000
# 3 -0.004970 -0.002165 0.015915 0.000000 0.000000 0.000000
# 4 0.000000 0.000000 0.000000 0.061316 0.000000 0.000000
# 5 0.000000 0.000000 0.000000 0.000000 0.040675 0.000000
# 6 0.000000 0.000000 0.000000 0.000000 0.000000 0.032803
#
#
# Mechanical properties :
#
#
# Convention : Reuss Voigt Hill
#
# Bulk Modulus (GPa) = 46.90869 47.59723 47.25296
# Shear Modulus (GPa) = 22.91358 24.24831 23.58095
#
# Velocity S-wave (km/s) = 3.60619 3.70973 3.65832
# Velocity P-wave (km/s) = 6.63041 6.73522 6.68302
#
# Compressibility (1/GPa) = 0.02131801
#
# Stress axis : x y z
#
# Youngs Moduli (GPa) = 53.76334 69.93148 62.83486
#
# Poissons Ratio (x) = 0.46244 0.31232
# Poissons Ratio (y) = 0.35553 0.13603
# Poissons Ratio (z) = 0.26723 0.15140
#
# Static dielectric constant tensor:
#      x y z
#    x 3.408810 0.000000 0.000000 
#    y 0.000000 3.372030 0.000000 
#    z 0.000000 0.000000 3.137880 
# 
# 
# High freq. dielectric constant tensor:
#      x y z
#    x 1.687210 0.000000 0.000000 
#    y 0.000000 1.683250 0.000000 
#    z 0.000000 0.000000 1.653110 
# 
# From -- ./inp_files/43017.got.cif
#   From: 2010.03.12/outbox.cif.g09.slc.cpg/sg64_22_cif.got.tgz:43017.got - 2010.04.10 20:19:32.
