data_PCOD8262425
_publ_section_title
;
Structure prediction by ZEFSAII (Michael W. Deem and Ramdas Pophale) SiO2 
 PCOD8262425
Probable space group: C M C A
;
_chemical_formula_sum "Si O2"
_cell_formula_units_Z 96
_cell_length_a 23.191158
_cell_length_b 22.573413
_cell_length_c 9.461294
_cell_angle_alpha 90.000000
_cell_angle_beta 90.000000
_cell_angle_gamma 90.000000
_cell_volume 4953.021351
_symmetry_space_group_name_H-M "C M C A"
_symmetry_group_IT_number 64
_symmetry_cell_setting 'orthorhombic'
loop_
_space_group_symop_operation_xyz
x,y,z
-x,1/2-y,1/2+z
x,-y,-z
-x,1/2+y,1/2-z
-x,-y,-z
x,1/2+y,1/2-z
-x,y,z
x,1/2-y,1/2+z
1/2+x,1/2+y,z
1/2-x,-y,1/2+z
1/2+x,1/2-y,-z
1/2-x,y,1/2-z
1/2-x,1/2-y,-z
1/2+x,y,1/2-z
1/2-x,1/2+y,z
1/2+x,-y,1/2+z
loop_
_atom_site_type_symbol
_atom_site_label
_atom_site_fract_x
_atom_site_fract_y
_atom_site_fract_z
Si Si1 0.065980 0.349569 0.482931
Si Si2 0.566027 0.086008 0.242741
Si Si3 0.706739 0.181242 0.942700
Si Si4 0.564682 0.954368 0.280574
Si Si5 0.327671 0.719485 0.863875
Si Si6 0.642958 0.566972 0.521292
O O1 0.078739 0.360127 0.648969
O O2 0.074665 0.414511 0.417321
O O3 0.109887 0.302790 0.415570
O O4 0.000000 0.326852 0.459538
O O5 0.500000 0.089374 0.191085
O O6 0.578212 0.022622 0.317768
O O7 0.607079 0.092366 0.109347
O O8 0.677955 0.213164 0.805430
O O9 0.775987 0.183315 0.938676
O O10 0.695612 0.111192 0.951401
O O11 0.680791 0.212874 0.082790
O O12 0.500000 0.948501 0.223251
O O13 0.603681 0.929083 0.157435
O O14 0.666123 0.500000 0.500000
#
# Coordination Sequence:
#
# PCOD8262425 Si02
#       6
#    16  16  16  16  16  16
#     4  10  19  34  55  83 115 146 185 236 286 330
#     4   9  18  30  50  82 118 154 189 227 275 344
#     4  10  22  41  64  82 109 152 194 234 278 340
#     4   9  16  30  52  78 113 156 191 224 281 343
#     4  10  22  41  63  82 109 149 195 231 281 342
#     4  10  19  34  57  85 116 145 189 240 286 329
#
# _framework density 19.382110000000001
#
# number of rings (size 3 to 8) (size 9 to 14) (size 15 to 20)
#    0.000    2.333    1.667    1.000    2.333    4.000 
#    0.000    4.167    0.000    0.000    0.000    0.000 
#    0.000    0.000    0.000    0.000    0.000    0.000 
#
# Total GULP energy -594957.142616 kJ/mol
# GULP energy per Si atom -12394.940471 kJ/mol
# Density = 1.933800 g / cm^3
# Si number density = 19.382110 Si / 1000 Ang^3
#
#
#
# Elastic Constant Matrix: (Units=GPa)
#
#
# Indices 1 2 3 4 5 6 
#
# 1 86.4810 39.2110 24.4325 0.0000 0.0000 0.0000
# 2 39.2110 67.5035 23.4272 0.0000 0.0000 0.0000
# 3 24.4325 23.4272 73.1183 0.0000 0.0000 0.0000
# 4 0.0000 0.0000 0.0000 19.2817 0.0000 0.0000
# 5 0.0000 0.0000 0.0000 0.0000 20.5115 0.0000
# 6 0.0000 0.0000 0.0000 0.0000 0.0000 32.3762
#
#
#
# Elastic Compliance Matrix: (Units=1/GPa)
#
#
# Indices 1 2 3 4 5 6 
#
# 1 0.016155 -0.008450 -0.002691 0.000000 0.000000 0.000000
# 2 -0.008450 0.021087 -0.003933 0.000000 0.000000 0.000000
# 3 -0.002691 -0.003933 0.015836 0.000000 0.000000 0.000000
# 4 0.000000 0.000000 0.000000 0.051863 0.000000 0.000000
# 5 0.000000 0.000000 0.000000 0.000000 0.048753 0.000000
# 6 0.000000 0.000000 0.000000 0.000000 0.000000 0.030887
#
#
# Mechanical properties :
#
#
# Convention : Reuss Voigt Hill
#
# Bulk Modulus (GPa) = 43.60990 44.58269 44.09630
# Shear Modulus (GPa) = 22.48497 23.76937 23.12717
#
# Velocity S-wave (km/s) = 3.40970 3.50574 3.45805
# Velocity P-wave (km/s) = 6.16850 6.28003 6.22452
#
# Compressibility (1/GPa) = 0.02293057
#
# Stress axis : x y z
#
# Youngs Moduli (GPa) = 61.90156 47.42184 63.14859
#
# Poissons Ratio (x) = 0.40071 0.16991
# Poissons Ratio (y) = 0.52307 0.24835
# Poissons Ratio (z) = 0.16656 0.18650
#
# Static dielectric constant tensor:
#      x y z
#    x 3.575820 0.000000 0.000000 
#    y 0.000000 3.363450 0.000000 
#    z 0.000000 0.000000 3.811860 
# 
# 
# High freq. dielectric constant tensor:
#      x y z
#    x 1.740740 0.000000 0.000000 
#    y 0.000000 1.739390 0.000000 
#    z 0.000000 0.000000 1.759730 
# 
# From -- ./inp_files/9474.got.cif
#   From: 2010.03.12/outbox.cif.g09.slc.cpg/sg64_5_cif.got.tgz:9474.got - 2010.04.10 20:19:32.
