data_PCOD8262845
_publ_section_title
;
Structure prediction by ZEFSAII (Michael W. Deem and Ramdas Pophale) SiO2 
 PCOD8262845
Probable space group: C M C A
;
_chemical_formula_sum "Si O2"
_cell_formula_units_Z 112
_cell_length_a 13.530944
_cell_length_b 25.828677
_cell_length_c 14.922921
_cell_angle_alpha 90.000000
_cell_angle_beta 90.000000
_cell_angle_gamma 90.000000
_cell_volume 5215.357670
_symmetry_space_group_name_H-M "C M C A"
_symmetry_group_IT_number 64
_symmetry_cell_setting 'orthorhombic'
loop_
_space_group_symop_operation_xyz
x,y,z
-x,1/2-y,1/2+z
x,-y,-z
-x,1/2+y,1/2-z
-x,-y,-z
x,1/2+y,1/2-z
-x,y,z
x,1/2-y,1/2+z
1/2+x,1/2+y,z
1/2-x,-y,1/2+z
1/2+x,1/2-y,-z
1/2-x,y,1/2-z
1/2-x,1/2-y,-z
1/2+x,y,1/2-z
1/2-x,1/2+y,z
1/2+x,-y,1/2+z
loop_
_atom_site_type_symbol
_atom_site_label
_atom_site_fract_x
_atom_site_fract_y
_atom_site_fract_z
Si Si1 0.114072 0.645583 0.489984
Si Si2 0.617046 0.163718 0.682002
Si Si3 0.882871 0.641175 0.876758
Si Si4 0.116959 0.057333 0.484483
Si Si5 0.112934 0.254345 0.605637
Si Si6 0.883508 0.280171 0.798045
Si Si7 0.274637 0.878651 0.851239
O O1 0.152207 0.633615 0.591792
O O2 0.122712 0.708313 0.479405
O O3 0.178349 0.617116 0.415053
O O4 0.000000 0.628279 0.476825
O O5 0.500000 0.163221 0.685690
O O6 0.657018 0.137036 0.773714
O O7 0.651063 0.223209 0.672596
O O8 0.842151 0.697119 0.912943
O O9 0.000000 0.637132 0.880446
O O10 0.839044 0.595772 0.938720
O O11 0.149738 0.078118 0.387498
O O12 0.000000 0.055701 0.487794
O O13 0.160790 0.000000 0.500000
O O14 0.153199 0.285343 0.693839
O O15 0.000000 0.242282 0.632136
O O16 0.827015 0.322520 0.857939
O O17 0.000000 0.290045 0.810745
O O18 0.250000 0.894402 0.750000
#
# Coordination Sequence:
#
# PCOD8262845 Si02
#       7
#    16  16  16  16  16  16  16
#     4  10  20  34  52  81 123 164 197 232 283 354
#     4   8  16  31  53  81 119 162 194 230 286 354
#     4   8  15  32  58  84 112 150 192 237 291 343
#     4  10  23  44  68  91 113 144 198 258 306 348
#     4   8  14  27  49  78 116 156 187 222 274 343
#     4   9  17  32  52  79 118 157 195 234 283 350
#     4  12  24  37  57  87 117 156 195 244 295 349
#
# _framework density 21.475037
#
# number of rings (size 3 to 8) (size 9 to 14) (size 15 to 20)
#    0.000    2.714    1.429    2.143    2.000    1.143 
#    0.000    2.143    0.000    0.429    0.000    0.000 
#    0.000    0.000    0.000    0.000    0.000    0.000 
#
# Total GULP energy -693947.245756 kJ/mol
# GULP energy per Si atom -12391.915103 kJ/mol
# Density = 2.142616 g / cm^3
# Si number density = 21.475037 Si / 1000 Ang^3
#
#
#
# Elastic Constant Matrix: (Units=GPa)
#
#
# Indices 1 2 3 4 5 6 
#
# 1 29.2966 16.7156 17.0784 0.0000 0.0000 0.0000
# 2 16.7156 86.6097 37.8361 0.0000 0.0000 0.0000
# 3 17.0784 37.8361 142.8779 0.0000 0.0000 0.0000
# 4 0.0000 0.0000 0.0000 26.4676 0.0000 0.0000
# 5 0.0000 0.0000 0.0000 0.0000 21.6294 0.0000
# 6 0.0000 0.0000 0.0000 0.0000 0.0000 9.9807
#
#
#
# Elastic Compliance Matrix: (Units=1/GPa)
#
#
# Indices 1 2 3 4 5 6 
#
# 1 0.039504 -0.006289 -0.003057 0.000000 0.000000 0.000000
# 2 -0.006289 0.014058 -0.002971 0.000000 0.000000 0.000000
# 3 -0.003057 -0.002971 0.008151 0.000000 0.000000 0.000000
# 4 0.000000 0.000000 0.000000 0.037782 0.000000 0.000000
# 5 0.000000 0.000000 0.000000 0.000000 0.046233 0.000000
# 6 0.000000 0.000000 0.000000 0.000000 0.000000 0.100193
#
#
# Mechanical properties :
#
#
# Convention : Reuss Voigt Hill
#
# Bulk Modulus (GPa) = 26.96893 44.67160 35.82026
# Shear Modulus (GPa) = 17.67325 24.09250 20.88288
#
# Velocity S-wave (km/s) = 2.87185 3.35309 3.12176
# Velocity P-wave (km/s) = 4.85616 5.98646 5.45069
#
# Compressibility (1/GPa) = 0.03707970
#
# Stress axis : x y z
#
# Youngs Moduli (GPa) = 25.31407 71.13552 122.68302
#
# Poissons Ratio (x) = 0.44736 0.37499
# Poissons Ratio (y) = 0.15920 0.36449
# Poissons Ratio (z) = 0.07737 0.21134
#
# Static dielectric constant tensor:
#      x y z
#    x 3.838330 0.000000 0.000000 
#    y 0.000000 3.576520 0.000000 
#    z 0.000000 0.000000 4.150750 
# 
# 
# High freq. dielectric constant tensor:
#      x y z
#    x 1.853930 0.000000 0.000000 
#    y 0.000000 1.774930 0.000000 
#    z 0.000000 0.000000 1.851280 
# 
# From -- ./inp_files/24368.got.cif
#   From: 2010.03.12/outbox.cif.g09.slc.cpg/sg64_13_cif.got.tgz:24368.got - 2010.04.10 20:19:32.
