data_PCOD8262142
_publ_section_title
;
Structure prediction by ZEFSAII (Michael W. Deem and Ramdas Pophale) SiO2 
 PCOD8262142
Probable space group: C M C A
;
_chemical_formula_sum "Si O2"
_cell_formula_units_Z 80
_cell_length_a 9.028501
_cell_length_b 27.594447
_cell_length_c 17.609105
_cell_angle_alpha 90.000000
_cell_angle_beta 90.000000
_cell_angle_gamma 90.000000
_cell_volume 4387.070653
_symmetry_space_group_name_H-M "C M C A"
_symmetry_group_IT_number 64
_symmetry_cell_setting 'orthorhombic'
loop_
_space_group_symop_operation_xyz
x,y,z
-x,1/2-y,1/2+z
x,-y,-z
-x,1/2+y,1/2-z
-x,-y,-z
x,1/2+y,1/2-z
-x,y,z
x,1/2-y,1/2+z
1/2+x,1/2+y,z
1/2-x,-y,1/2+z
1/2+x,1/2-y,-z
1/2-x,y,1/2-z
1/2-x,1/2-y,-z
1/2+x,y,1/2-z
1/2-x,1/2+y,z
1/2+x,-y,1/2+z
loop_
_atom_site_type_symbol
_atom_site_label
_atom_site_fract_x
_atom_site_fract_y
_atom_site_fract_z
Si Si1 0.670279 0.687952 0.395449
Si Si2 0.672508 0.445273 0.982805
Si Si3 0.672510 0.100866 0.324910
Si Si4 0.326582 0.791279 0.330324
Si Si5 0.326993 0.142430 0.945784
O O1 0.500000 0.675439 0.377581
O O2 0.769856 0.655044 0.340806
O O3 0.707090 0.743718 0.380104
O O4 0.708470 0.677110 0.482921
O O5 0.500000 0.435625 0.999289
O O6 0.710984 0.434233 0.895132
O O7 0.718736 0.500000 0.000000
O O8 0.767987 0.411428 0.037969
O O9 0.500000 0.103956 0.309106
O O10 0.750000 0.079205 0.250000
O O11 0.500000 0.799893 0.318690
O O12 0.250000 0.784792 0.250000
O O13 0.257930 0.837286 0.372860
O O14 0.500000 0.139952 0.927435
#
# Coordination Sequence:
#
# PCOD8262142 Si02
#       5
#    16  16  16  16  16
#     4   9  19  34  53  77 105 137 173 212 253 303
#     4   9  19  37  58  77 100 135 176 216 261 312
#     4  10  19  31  51  78 106 134 166 210 261 309
#     4  11  22  35  51  74 106 143 179 213 252 301
#     4  10  20  35  55  79 105 134 171 215 262 311
#
# _framework density 18.235402000000001
#
# number of rings (size 3 to 8) (size 9 to 14) (size 15 to 20)
#    0.000    2.200    0.000    3.000    0.000    5.200 
#    0.000    1.000    0.000    2.400    0.000    0.000 
#    0.000    0.000    0.000    0.000    0.000    0.000 
#
# Total GULP energy -496182.964556 kJ/mol
# GULP energy per Si atom -12404.574114 kJ/mol
# Density = 1.819390 g / cm^3
# Si number density = 18.235402 Si / 1000 Ang^3
#
#
#
# Elastic Constant Matrix: (Units=GPa)
#
#
# Indices 1 2 3 4 5 6 
#
# 1 91.2625 52.6405 40.2603 0.0000 0.0000 0.0000
# 2 52.6405 107.3758 37.3656 0.0000 0.0000 0.0000
# 3 40.2603 37.3656 52.2237 0.0000 0.0000 0.0000
# 4 0.0000 0.0000 0.0000 17.3434 0.0000 0.0000
# 5 0.0000 0.0000 0.0000 0.0000 35.1376 0.0000
# 6 0.0000 0.0000 0.0000 0.0000 0.0000 28.7025
#
#
#
# Elastic Compliance Matrix: (Units=1/GPa)
#
#
# Indices 1 2 3 4 5 6 
#
# 1 0.018804 -0.005558 -0.010520 0.000000 0.000000 0.000000
# 2 -0.005558 0.014043 -0.005763 0.000000 0.000000 0.000000
# 3 -0.010520 -0.005763 0.031382 0.000000 0.000000 0.000000
# 4 0.000000 0.000000 0.000000 0.057659 0.000000 0.000000
# 5 0.000000 0.000000 0.000000 0.000000 0.028460 0.000000
# 6 0.000000 0.000000 0.000000 0.000000 0.000000 0.034840
#
#
# Mechanical properties :
#
#
# Convention : Reuss Voigt Hill
#
# Bulk Modulus (GPa) = 48.66781 56.82166 52.74473
# Shear Modulus (GPa) = 21.21173 24.27640 22.74407
#
# Velocity S-wave (km/s) = 3.41430 3.65263 3.53547
# Velocity P-wave (km/s) = 6.50306 7.00119 6.75672
#
# Compressibility (1/GPa) = 0.02054746
#
# Stress axis : x y z
#
# Youngs Moduli (GPa) = 53.18039 71.20825 31.86547
#
# Poissons Ratio (x) = 0.39576 0.33522
# Poissons Ratio (y) = 0.29556 0.18365
# Poissons Ratio (z) = 0.55945 0.41039
#
# Static dielectric constant tensor:
#      x y z
#    x 3.416420 0.000000 0.000000 
#    y 0.000000 3.203470 0.000000 
#    z 0.000000 0.000000 3.389680 
# 
# 
# High freq. dielectric constant tensor:
#      x y z
#    x 1.716780 0.000000 0.000000 
#    y 0.000000 1.691020 0.000000 
#    z 0.000000 0.000000 1.707070 
# 
# From -- ./inp_files/29708.got.cif
#   From: 2010.03.12/outbox.cif.g09.slc.cpg/sg64_15_cif.got.tgz:29708.got - 2010.04.10 20:19:32.
