data_PCOD8262217
_publ_section_title
;
Structure prediction by ZEFSAII (Michael W. Deem and Ramdas Pophale) SiO2 
 PCOD8262217
Probable space group: C M C A
;
_chemical_formula_sum "Si O2"
_cell_formula_units_Z 80
_cell_length_a 9.185459
_cell_length_b 25.768067
_cell_length_c 17.913378
_cell_angle_alpha 90.000000
_cell_angle_beta 90.000000
_cell_angle_gamma 90.000000
_cell_volume 4239.944720
_symmetry_space_group_name_H-M "C M C A"
_symmetry_group_IT_number 64
_symmetry_cell_setting 'orthorhombic'
loop_
_space_group_symop_operation_xyz
x,y,z
-x,1/2-y,1/2+z
x,-y,-z
-x,1/2+y,1/2-z
-x,-y,-z
x,1/2+y,1/2-z
-x,y,z
x,1/2-y,1/2+z
1/2+x,1/2+y,z
1/2-x,-y,1/2+z
1/2+x,1/2-y,-z
1/2-x,y,1/2-z
1/2-x,1/2-y,-z
1/2+x,y,1/2-z
1/2-x,1/2+y,z
1/2+x,-y,1/2+z
loop_
_atom_site_type_symbol
_atom_site_label
_atom_site_fract_x
_atom_site_fract_y
_atom_site_fract_z
Si Si1 0.331372 0.341506 0.930957
Si Si2 0.837077 0.439696 0.916784
Si Si3 0.664840 0.446848 0.406148
Si Si4 0.327052 0.751872 0.174944
Si Si5 0.328237 0.846754 0.397260
O O1 0.500000 0.352654 0.924922
O O2 0.258610 0.391022 0.890304
O O3 0.285997 0.289089 0.889269
O O4 0.284299 0.335515 0.017038
O O5 0.783067 0.494988 0.882551
O O6 0.000000 0.429065 0.888903
O O7 0.831563 0.443378 0.005300
O O8 0.500000 0.436407 0.377780
O O9 0.775266 0.404239 0.372672
O O10 0.500000 0.757147 0.186031
O O11 0.250000 0.732018 0.250000
O O12 0.259004 0.806943 0.153783
O O13 0.500000 0.841512 0.383215
#
# Coordination Sequence:
#
# PCOD8262217 Si02
#       5
#    16  16  16  16  16
#     4   9  19  33  51  76 104 131 164 206 252 298
#     4   8  14  25  45  72 102 133 164 198 242 292
#     4   8  14  26  44  71 104 134 162 198 244 293
#     4  11  23  38  53  71  98 133 169 209 253 299
#     4  10  19  32  52  78 103 131 166 205 249 298
#
# _framework density 18.868171
#
# number of rings (size 3 to 8) (size 9 to 14) (size 15 to 20)
#    0.000    2.800    0.000    3.000    0.000    3.200 
#    0.000    4.000    0.000    1.200    0.000    2.800 
#    0.000    0.000    0.000    0.000    0.000    0.000 
#
# Total GULP energy -495813.030623 kJ/mol
# GULP energy per Si atom -12395.325766 kJ/mol
# Density = 1.882523 g / cm^3
# Si number density = 18.868171 Si / 1000 Ang^3
#
#
#
# Elastic Constant Matrix: (Units=GPa)
#
#
# Indices 1 2 3 4 5 6 
#
# 1 72.3053 43.5869 20.0354 0.0000 0.0000 0.0000
# 2 43.5869 106.1858 10.9636 0.0000 0.0000 0.0000
# 3 20.0354 10.9636 30.3246 0.0000 0.0000 0.0000
# 4 0.0000 0.0000 0.0000 5.6506 0.0000 0.0000
# 5 0.0000 0.0000 0.0000 0.0000 21.2020 0.0000
# 6 0.0000 0.0000 0.0000 0.0000 0.0000 40.7012
#
#
#
# Elastic Compliance Matrix: (Units=1/GPa)
#
#
# Indices 1 2 3 4 5 6 
#
# 1 0.021670 -0.007704 -0.011532 0.000000 0.000000 0.000000
# 2 -0.007704 0.012522 0.000563 0.000000 0.000000 0.000000
# 3 -0.011532 0.000563 0.040392 0.000000 0.000000 0.000000
# 4 0.000000 0.000000 0.000000 0.176973 0.000000 0.000000
# 5 0.000000 0.000000 0.000000 0.000000 0.047165 0.000000
# 6 0.000000 0.000000 0.000000 0.000000 0.000000 0.024569
#
#
# Mechanical properties :
#
#
# Convention : Reuss Voigt Hill
#
# Bulk Modulus (GPa) = 26.85461 39.77639 33.31550
# Shear Modulus (GPa) = 13.40301 22.45939 17.93120
#
# Velocity S-wave (km/s) = 2.66813 3.45386 3.08610
# Velocity P-wave (km/s) = 4.87397 6.08544 5.51308
#
# Compressibility (1/GPa) = 0.03723755
#
# Stress axis : x y z
#
# Youngs Moduli (GPa) = 46.14665 79.86070 24.75733
#
# Poissons Ratio (x) = 0.61528 0.28550
# Poissons Ratio (y) = 0.35553 -0.01394
# Poissons Ratio (z) = 0.53216 -0.04497
#
# Static dielectric constant tensor:
#      x y z
#    x 3.487020 0.000000 0.000000 
#    y 0.000000 3.920300 0.000000 
#    z 0.000000 0.000000 3.166300 
# 
# 
# High freq. dielectric constant tensor:
#      x y z
#    x 1.732170 0.000000 0.000000 
#    y 0.000000 1.750490 0.000000 
#    z 0.000000 0.000000 1.681680 
# 
# From -- ./inp_files/29820.got.cif
#   From: 2010.03.12/outbox.cif.g09.slc.cpg/sg64_15_cif.got.tgz:29820.got - 2010.04.10 20:19:32.
