data_PCOD8262166
_publ_section_title
;
Structure prediction by ZEFSAII (Michael W. Deem and Ramdas Pophale) SiO2 
 PCOD8262166
Probable space group: C M C A
;
_chemical_formula_sum "Si O2"
_cell_formula_units_Z 112
_cell_length_a 16.290462
_cell_length_b 14.140135
_cell_length_c 27.342558
_cell_angle_alpha 90.000000
_cell_angle_beta 90.000000
_cell_angle_gamma 90.000000
_cell_volume 6298.339968
_symmetry_space_group_name_H-M "C M C A"
_symmetry_group_IT_number 64
_symmetry_cell_setting 'orthorhombic'
loop_
_space_group_symop_operation_xyz
x,y,z
-x,1/2-y,1/2+z
x,-y,-z
-x,1/2+y,1/2-z
-x,-y,-z
x,1/2+y,1/2-z
-x,y,z
x,1/2-y,1/2+z
1/2+x,1/2+y,z
1/2-x,-y,1/2+z
1/2+x,1/2-y,-z
1/2-x,y,1/2-z
1/2-x,1/2-y,-z
1/2+x,y,1/2-z
1/2-x,1/2+y,z
1/2+x,-y,1/2+z
loop_
_atom_site_type_symbol
_atom_site_label
_atom_site_fract_x
_atom_site_fract_y
_atom_site_fract_z
Si Si1 0.907476 0.966957 0.725725
Si Si2 0.800899 0.108530 0.005437
Si Si3 0.874706 0.161659 0.186299
Si Si4 0.592157 0.307069 0.919797
Si Si5 0.735209 0.747122 0.926761
Si Si6 0.092017 0.828198 0.250890
Si Si7 0.187001 0.804328 0.677998
O O1 0.906341 0.921593 0.779428
O O2 0.861059 0.902800 0.685809
O O3 0.000000 0.975347 0.706417
O O4 0.869083 0.072061 0.731314
O O5 0.887108 0.121615 0.035065
O O6 0.729133 0.162788 0.036109
O O7 0.805785 0.155195 0.951444
O O8 0.777451 0.000000 0.000000
O O9 0.902071 0.135693 0.131336
O O10 0.915423 0.260762 0.201930
O O11 0.778295 0.173655 0.194913
O O12 0.500000 0.265137 0.927098
O O13 0.666043 0.228521 0.916890
O O14 0.684509 0.771926 0.878329
O O15 0.148680 0.780531 0.209603
O O16 0.000000 0.844296 0.229570
#
# Coordination Sequence:
#
# PCOD8262166 Si02
#       7
#    16  16  16  16  16  16  16
#     4  10  20  33  49  73 107 138 169 209 253 301
#     4   9  18  36  57  76 103 133 166 219 275 312
#     4  10  19  32  50  71 102 136 170 211 250 300
#     4   9  17  32  53  75 101 132 168 213 266 316
#     4   8  19  36  51  79 103 132 174 214 265 312
#     4  10  20  33  50  73 104 140 172 209 251 294
#     4  10  19  34  52  74 101 137 176 211 249 304
#
# _framework density 17.782464000000001
#
# number of rings (size 3 to 8) (size 9 to 14) (size 15 to 20)
#    0.857    1.714    0.000    4.286    0.000    3.714 
#    5.143    1.429    0.000    0.429    0.000    0.000 
#    0.000    0.000    0.000    0.000    0.000    0.000 
#
# Total GULP energy -693762.272794 kJ/mol
# GULP energy per Si atom -12388.612014 kJ/mol
# Density = 1.774199 g / cm^3
# Si number density = 17.782464 Si / 1000 Ang^3
#
#
#
# Elastic Constant Matrix: (Units=GPa)
#
#
# Indices 1 2 3 4 5 6 
#
# 1 84.6331 30.6187 28.1332 0.0000 0.0000 0.0000
# 2 30.6187 127.1580 32.3526 0.0000 0.0000 0.0000
# 3 28.1332 32.3526 80.0230 0.0000 0.0000 0.0000
# 4 0.0000 0.0000 0.0000 12.4278 0.0000 0.0000
# 5 0.0000 0.0000 0.0000 0.0000 16.0370 0.0000
# 6 0.0000 0.0000 0.0000 0.0000 0.0000 15.6297
#
#
#
# Elastic Compliance Matrix: (Units=1/GPa)
#
#
# Indices 1 2 3 4 5 6 
#
# 1 0.013987 -0.002360 -0.003963 0.000000 0.000000 0.000000
# 2 -0.002360 0.009164 -0.002875 0.000000 0.000000 0.000000
# 3 -0.003963 -0.002875 0.015052 0.000000 0.000000 0.000000
# 4 0.000000 0.000000 0.000000 0.080465 0.000000 0.000000
# 5 0.000000 0.000000 0.000000 0.000000 0.062356 0.000000
# 6 0.000000 0.000000 0.000000 0.000000 0.000000 0.063981
#
#
# Mechanical properties :
#
#
# Convention : Reuss Voigt Hill
#
# Bulk Modulus (GPa) = 50.48831 52.66922 51.57877
# Shear Modulus (GPa) = 18.51833 22.19955 20.35894
#
# Velocity S-wave (km/s) = 3.23054 3.53710 3.38729
# Velocity P-wave (km/s) = 6.50915 6.80914 6.66083
#
# Compressibility (1/GPa) = 0.01980656
#
# Stress axis : x y z
#
# Youngs Moduli (GPa) = 71.49597 109.12304 66.43527
#
# Poissons Ratio (x) = 0.25748 0.26330
# Poissons Ratio (y) = 0.16870 0.19103
# Poissons Ratio (z) = 0.28336 0.31377
#
# Static dielectric constant tensor:
#      x y z
#    x 3.254280 0.000000 0.000000 
#    y 0.000000 3.107970 0.000000 
#    z 0.000000 0.000000 3.313030 
# 
# 
# High freq. dielectric constant tensor:
#      x y z
#    x 1.681400 0.000000 0.000000 
#    y 0.000000 1.665320 0.000000 
#    z 0.000000 0.000000 1.685530 
# 
# From -- ./inp_files/50080.got.cif
#   From: 2010.03.12/outbox.cif.g09.slc.cpg/sg64_26_cif.got.tgz:50080.got - 2010.04.10 20:19:32.
