data_PCOD8262410
_publ_section_title
;
Structure prediction by ZEFSAII (Michael W. Deem and Ramdas Pophale) SiO2 
 PCOD8262410
Probable space group: C M C A
;
_chemical_formula_sum "Si O2"
_cell_formula_units_Z 96
_cell_length_a 8.926111
_cell_length_b 23.639694
_cell_length_c 25.855494
_cell_angle_alpha 90.000000
_cell_angle_beta 90.000000
_cell_angle_gamma 90.000000
_cell_volume 5455.781561
_symmetry_space_group_name_H-M "C M C A"
_symmetry_group_IT_number 64
_symmetry_cell_setting 'orthorhombic'
loop_
_space_group_symop_operation_xyz
x,y,z
-x,1/2-y,1/2+z
x,-y,-z
-x,1/2+y,1/2-z
-x,-y,-z
x,1/2+y,1/2-z
-x,y,z
x,1/2-y,1/2+z
1/2+x,1/2+y,z
1/2-x,-y,1/2+z
1/2+x,1/2-y,-z
1/2-x,y,1/2-z
1/2-x,1/2-y,-z
1/2+x,y,1/2-z
1/2-x,1/2+y,z
1/2+x,-y,1/2+z
loop_
_atom_site_type_symbol
_atom_site_label
_atom_site_fract_x
_atom_site_fract_y
_atom_site_fract_z
Si Si1 0.173576 0.506788 0.882645
Si Si2 0.667894 0.070056 0.459238
Si Si3 0.679065 0.232438 0.554334
Si Si4 0.327392 0.328258 0.885183
Si Si5 0.827859 0.606287 0.573349
Si Si6 0.321868 0.590087 0.305826
O O1 0.215069 0.472844 0.934504
O O2 0.249914 0.568735 0.881922
O O3 0.223279 0.468863 0.833663
O O4 0.000000 0.518123 0.882080
O O5 0.500000 0.046650 0.448923
O O6 0.683629 0.132343 0.435507
O O7 0.701143 0.073940 0.519636
O O8 0.500000 0.235704 0.549248
O O9 0.750000 0.250000 0.500000
O O10 0.737886 0.271564 0.600837
O O11 0.735825 0.169706 0.569608
O O12 0.500000 0.314657 0.871393
O O13 0.248343 0.357079 0.836192
O O14 0.000000 0.609742 0.587987
O O15 0.500000 0.597793 0.303117
O O16 0.250000 0.588105 0.250000
#
# Coordination Sequence:
#
# PCOD8262410 Si02
#       6
#    16  16  16  16  16  16
#     4  10  21  33  48  76 105 131 171 220 266 312
#     4   9  17  31  48  69 102 142 177 209 252 310
#     4  11  21  34  51  75 108 147 187 223 260 314
#     4  10  19  34  54  79 108 141 179 221 267 313
#     4  10  20  33  48  70 104 146 182 210 252 311
#     4  10  21  38  59  83 106 133 171 221 275 324
#
# _framework density 17.596012000000002
#
# number of rings (size 3 to 8) (size 9 to 14) (size 15 to 20)
#    0.000    2.000    1.667    2.500    0.000    6.667 
#    0.000    0.000    0.000    1.000    0.000    2.333 
#    0.000    0.000    0.000    0.000    0.000    0.000 
#
# Total GULP energy -595176.293032 kJ/mol
# GULP energy per Si atom -12399.506105 kJ/mol
# Density = 1.755596 g / cm^3
# Si number density = 17.596012 Si / 1000 Ang^3
#
#
#
# Elastic Constant Matrix: (Units=GPa)
#
#
# Indices 1 2 3 4 5 6 
#
# 1 76.4487 51.3638 45.7635 0.0000 0.0000 0.0000
# 2 51.3638 113.6116 50.4466 0.0000 0.0000 0.0000
# 3 45.7635 50.4466 86.9300 0.0000 0.0000 0.0000
# 4 0.0000 0.0000 0.0000 15.2380 0.0000 0.0000
# 5 0.0000 0.0000 0.0000 0.0000 27.5539 0.0000
# 6 0.0000 0.0000 0.0000 0.0000 0.0000 31.9851
#
#
#
# Elastic Compliance Matrix: (Units=1/GPa)
#
#
# Indices 1 2 3 4 5 6 
#
# 1 0.022192 -0.006528 -0.007895 0.000000 0.000000 0.000000
# 2 -0.006528 0.013777 -0.004559 0.000000 0.000000 0.000000
# 3 -0.007895 -0.004559 0.018305 0.000000 0.000000 0.000000
# 4 0.000000 0.000000 0.000000 0.065626 0.000000 0.000000
# 5 0.000000 0.000000 0.000000 0.000000 0.036293 0.000000
# 6 0.000000 0.000000 0.000000 0.000000 0.000000 0.031265
#
#
# Mechanical properties :
#
#
# Convention : Reuss Voigt Hill
#
# Bulk Modulus (GPa) = 61.30327 63.57090 62.43708
# Shear Modulus (GPa) = 21.65838 23.58314 22.62076
#
# Velocity S-wave (km/s) = 3.51218 3.66492 3.58936
# Velocity P-wave (km/s) = 7.16674 7.35631 7.26214
#
# Compressibility (1/GPa) = 0.01631234
#
# Stress axis : x y z
#
# Youngs Moduli (GPa) = 45.06040 72.58343 54.62932
#
# Poissons Ratio (x) = 0.47380 0.43129
# Poissons Ratio (y) = 0.29414 0.24904
# Poissons Ratio (z) = 0.35575 0.33089
#
# Static dielectric constant tensor:
#      x y z
#    x 3.320870 0.000000 0.000000 
#    y 0.000000 3.460580 0.000000 
#    z 0.000000 0.000000 3.029010 
# 
# 
# High freq. dielectric constant tensor:
#      x y z
#    x 1.688000 0.000000 0.000000 
#    y 0.000000 1.686650 0.000000 
#    z 0.000000 0.000000 1.647520 
# 
# From -- ./inp_files/43024.got.cif
#   From: 2010.03.12/outbox.cif.g09.slc.cpg/sg64_22_cif.got.tgz:43024.got - 2010.04.10 20:19:32.
