data_PCOD8262229
_publ_section_title
;
Structure prediction by ZEFSAII (Michael W. Deem and Ramdas Pophale) SiO2 
 PCOD8262229
Probable space group: C M C A
;
_chemical_formula_sum "Si O2"
_cell_formula_units_Z 96
_cell_length_a 9.199618
_cell_length_b 23.306481
_cell_length_c 25.637480
_cell_angle_alpha 90.000000
_cell_angle_beta 90.000000
_cell_angle_gamma 90.000000
_cell_volume 5496.950600
_symmetry_space_group_name_H-M "C M C A"
_symmetry_group_IT_number 64
_symmetry_cell_setting 'orthorhombic'
loop_
_space_group_symop_operation_xyz
x,y,z
-x,1/2-y,1/2+z
x,-y,-z
-x,1/2+y,1/2-z
-x,-y,-z
x,1/2+y,1/2-z
-x,y,z
x,1/2-y,1/2+z
1/2+x,1/2+y,z
1/2-x,-y,1/2+z
1/2+x,1/2-y,-z
1/2-x,y,1/2-z
1/2-x,1/2-y,-z
1/2+x,y,1/2-z
1/2-x,1/2+y,z
1/2+x,-y,1/2+z
loop_
_atom_site_type_symbol
_atom_site_label
_atom_site_fract_x
_atom_site_fract_y
_atom_site_fract_z
Si Si1 0.837014 0.832245 0.460772
Si Si2 0.166688 0.523902 0.444757
Si Si3 0.833408 0.909525 0.112698
Si Si4 0.834543 0.638518 0.077174
Si Si5 0.328284 0.839392 0.195159
Si Si6 0.835106 0.262684 0.618973
O O1 0.719338 0.876653 0.439002
O O2 0.819598 0.828546 0.522452
O O3 0.811768 0.769715 0.436064
O O4 0.000000 0.853503 0.445252
O O5 0.228031 0.500000 0.500000
O O6 0.181230 0.476848 0.399138
O O7 0.257686 0.577485 0.424873
O O8 0.000000 0.542919 0.452853
O O9 0.734867 0.892783 0.162185
O O10 0.000000 0.892469 0.124036
O O11 0.763176 0.680253 0.120377
O O12 0.000000 0.627879 0.093367
O O13 0.500000 0.848163 0.202027
O O14 0.250000 0.837399 0.250000
O O15 0.290882 0.780168 0.165603
O O16 0.000000 0.283214 0.625665
#
# Coordination Sequence:
#
# PCOD8262229 Si02
#       6
#    16  16  16  16  16  16
#     4   9  18  31  46  70 104 140 175 214 257 302
#     4  10  20  34  50  72 105 147 186 215 253 308
#     4  10  19  32  53  78 104 138 179 220 260 305
#     4  11  21  30  47  74 105 142 180 216 256 302
#     4  10  21  38  60  83 105 131 167 216 272 320
#     4   9  19  34  50  71 103 137 170 211 259 313
#
# _framework density 17.464227999999999
#
# number of rings (size 3 to 8) (size 9 to 14) (size 15 to 20)
#    0.000    2.167    1.667    3.000    0.000    5.667 
#    0.000    0.000    0.000    1.000    0.000    4.667 
#    0.000    0.000    0.000    0.000    0.000    0.000 
#
# Total GULP energy -595196.928769 kJ/mol
# GULP energy per Si atom -12399.936016 kJ/mol
# Density = 1.742448 g / cm^3
# Si number density = 17.464228 Si / 1000 Ang^3
#
#
#
# Elastic Constant Matrix: (Units=GPa)
#
#
# Indices 1 2 3 4 5 6 
#
# 1 114.6470 65.5360 46.0131 0.0000 0.0000 0.0000
# 2 65.5360 99.9609 38.6907 0.0000 0.0000 0.0000
# 3 46.0131 38.6907 73.3664 0.0000 0.0000 0.0000
# 4 0.0000 0.0000 0.0000 14.2999 0.0000 0.0000
# 5 0.0000 0.0000 0.0000 0.0000 26.8803 0.0000
# 6 0.0000 0.0000 0.0000 0.0000 0.0000 32.1596
#
#
#
# Elastic Compliance Matrix: (Units=1/GPa)
#
#
# Indices 1 2 3 4 5 6 
#
# 1 0.015533 -0.008058 -0.005492 0.000000 0.000000 0.000000
# 2 -0.008058 0.016750 -0.003780 0.000000 0.000000 0.000000
# 3 -0.005492 -0.003780 0.019068 0.000000 0.000000 0.000000
# 4 0.000000 0.000000 0.000000 0.069931 0.000000 0.000000
# 5 0.000000 0.000000 0.000000 0.000000 0.037202 0.000000
# 6 0.000000 0.000000 0.000000 0.000000 0.000000 0.031095
#
#
# Mechanical properties :
#
#
# Convention : Reuss Voigt Hill
#
# Bulk Modulus (GPa) = 59.91184 65.38377 62.64781
# Shear Modulus (GPa) = 21.75796 23.85026 22.80411
#
# Velocity S-wave (km/s) = 3.53350 3.69950 3.61745
# Velocity P-wave (km/s) = 7.14335 7.46782 7.30739
#
# Compressibility (1/GPa) = 0.01669119
#
# Stress axis : x y z
#
# Youngs Moduli (GPa) = 64.37986 59.70292 52.44380
#
# Poissons Ratio (x) = 0.48107 0.28804
# Poissons Ratio (y) = 0.51875 0.19821
# Poissons Ratio (z) = 0.35360 0.22565
#
# Static dielectric constant tensor:
#      x y z
#    x 3.367640 0.000000 0.000000 
#    y 0.000000 3.078550 0.000000 
#    z 0.000000 0.000000 3.007610 
# 
# 
# High freq. dielectric constant tensor:
#      x y z
#    x 1.687310 0.000000 0.000000 
#    y 0.000000 1.666880 0.000000 
#    z 0.000000 0.000000 1.642810 
# 
# From -- ./inp_files/43049.got.cif
#   From: 2010.03.12/outbox.cif.g09.slc.cpg/sg64_22_cif.got.tgz:43049.got - 2010.04.10 20:19:32.
