data_PCOD8262538
_publ_section_title
;
Structure prediction by ZEFSAII (Michael W. Deem and Ramdas Pophale) SiO2 
 PCOD8262538
Probable space group: C M C A
;
_chemical_formula_sum "Si O2"
_cell_formula_units_Z 64
_cell_length_a 14.907462
_cell_length_b 13.375217
_cell_length_c 18.175071
_cell_angle_alpha 90.000000
_cell_angle_beta 90.000000
_cell_angle_gamma 90.000000
_cell_volume 3623.937206
_symmetry_space_group_name_H-M "C M C A"
_symmetry_group_IT_number 64
_symmetry_cell_setting 'orthorhombic'
loop_
_space_group_symop_operation_xyz
x,y,z
-x,1/2-y,1/2+z
x,-y,-z
-x,1/2+y,1/2-z
-x,-y,-z
x,1/2+y,1/2-z
-x,y,z
x,1/2-y,1/2+z
1/2+x,1/2+y,z
1/2-x,-y,1/2+z
1/2+x,1/2-y,-z
1/2-x,y,1/2-z
1/2-x,1/2-y,-z
1/2+x,y,1/2-z
1/2-x,1/2+y,z
1/2+x,-y,1/2+z
loop_
_atom_site_type_symbol
_atom_site_label
_atom_site_fract_x
_atom_site_fract_y
_atom_site_fract_z
Si Si1 0.190783 0.162084 0.681740
Si Si2 0.395988 0.866022 0.655398
Si Si3 0.101319 0.964250 0.689948
Si Si4 0.248845 0.495186 0.585605
O O1 0.250000 0.199714 0.750000
O O2 0.139724 0.253999 0.644313
O O3 0.117903 0.080843 0.711033
O O4 0.252724 0.107528 0.619765
O O5 0.500000 0.871629 0.634322
O O6 0.378182 0.897225 0.739327
O O7 0.345073 0.940314 0.600097
O O8 0.170338 0.932309 0.625107
O O9 0.000000 0.948590 0.662074
O O10 0.269262 0.500000 0.500000
#
# Coordination Sequence:
#
# PCOD8262538 Si02
#       4
#    16  16  16  16
#     4  10  19  35  59  83 110 144 186 235 279 331
#     4  11  21  37  60  83 113 149 190 237 282 330
#     4   9  18  35  56  84 109 142 187 236 280 325
#     4  10  21  37  56  84 118 152 183 231 282 340
#
# _framework density 17.660350000000001
#
# number of rings (size 3 to 8) (size 9 to 14) (size 15 to 20)
#    1.500    0.500    2.500    3.000    0.000    2.000 
#    0.000    0.000    0.000    3.000    0.000    0.000 
#    0.000    0.000    0.000    0.000    0.000    0.000 
#
# Total GULP energy -396621.631975 kJ/mol
# GULP energy per Si atom -12394.425999 kJ/mol
# Density = 1.762015 g / cm^3
# Si number density = 17.660350 Si / 1000 Ang^3
#
#
#
# Elastic Constant Matrix: (Units=GPa)
#
#
# Indices 1 2 3 4 5 6 
#
# 1 93.7489 36.0460 34.4984 0.0000 0.0000 0.0000
# 2 36.0460 99.3677 16.1279 0.0000 0.0000 0.0000
# 3 34.4984 16.1279 81.5754 0.0000 0.0000 0.0000
# 4 0.0000 0.0000 0.0000 7.3343 0.0000 0.0000
# 5 0.0000 0.0000 0.0000 0.0000 18.3547 0.0000
# 6 0.0000 0.0000 0.0000 0.0000 0.0000 27.9036
#
#
#
# Elastic Compliance Matrix: (Units=1/GPa)
#
#
# Indices 1 2 3 4 5 6 
#
# 1 0.014229 -0.004324 -0.005163 0.000000 0.000000 0.000000
# 2 -0.004324 0.011711 -0.000487 0.000000 0.000000 0.000000
# 3 -0.005163 -0.000487 0.014538 0.000000 0.000000 0.000000
# 4 0.000000 0.000000 0.000000 0.136345 0.000000 0.000000
# 5 0.000000 0.000000 0.000000 0.000000 0.054482 0.000000
# 6 0.000000 0.000000 0.000000 0.000000 0.000000 0.035838
#
#
# Mechanical properties :
#
#
# Convention : Reuss Voigt Hill
#
# Bulk Modulus (GPa) = 48.70485 49.78187 49.24336
# Shear Modulus (GPa) = 17.01065 23.25317 20.13191
#
# Velocity S-wave (km/s) = 3.10693 3.63256 3.37998
# Velocity P-wave (km/s) = 6.36468 6.77079 6.57088
#
# Compressibility (1/GPa) = 0.02053184
#
# Stress axis : x y z
#
# Youngs Moduli (GPa) = 70.27886 85.38919 68.78450
#
# Poissons Ratio (x) = 0.36920 0.35511
# Poissons Ratio (y) = 0.30386 0.03349
# Poissons Ratio (z) = 0.36283 0.04157
#
# Static dielectric constant tensor:
#      x y z
#    x 3.258860 0.000000 0.000000 
#    y 0.000000 3.120690 0.000000 
#    z 0.000000 0.000000 2.894590 
# 
# 
# High freq. dielectric constant tensor:
#      x y z
#    x 1.685060 0.000000 0.000000 
#    y 0.000000 1.676330 0.000000 
#    z 0.000000 0.000000 1.655150 
# 
# From -- ./inp_files/31635.got.cif
#   From: 2010.03.12/outbox.cif.g09.slc.cpg/sg64_16_cif.got.tgz:31635.got - 2010.04.10 20:19:32.
