data_PCOD8262298
_publ_section_title
;
Structure prediction by ZEFSAII (Michael W. Deem and Ramdas Pophale) SiO2 
 PCOD8262298
Probable space group: C M C A
;
_chemical_formula_sum "Si O2"
_cell_formula_units_Z 96
_cell_length_a 9.258200
_cell_length_b 20.061051
_cell_length_c 27.864853
_cell_angle_alpha 90.000000
_cell_angle_beta 90.000000
_cell_angle_gamma 90.000000
_cell_volume 5175.317479
_symmetry_space_group_name_H-M "C M C A"
_symmetry_group_IT_number 64
_symmetry_cell_setting 'orthorhombic'
loop_
_space_group_symop_operation_xyz
x,y,z
-x,1/2-y,1/2+z
x,-y,-z
-x,1/2+y,1/2-z
-x,-y,-z
x,1/2+y,1/2-z
-x,y,z
x,1/2-y,1/2+z
1/2+x,1/2+y,z
1/2-x,-y,1/2+z
1/2+x,1/2-y,-z
1/2-x,y,1/2-z
1/2-x,1/2-y,-z
1/2+x,y,1/2-z
1/2-x,1/2+y,z
1/2+x,-y,1/2+z
loop_
_atom_site_type_symbol
_atom_site_label
_atom_site_fract_x
_atom_site_fract_y
_atom_site_fract_z
Si Si1 0.164700 0.729534 0.704207
Si Si2 0.667394 0.832018 0.460137
Si Si3 0.671914 0.498905 0.300072
Si Si4 0.828737 0.861485 0.655610
Si Si5 0.830295 0.320097 0.947169
Si Si6 0.164190 0.605076 0.638053
O O1 0.250000 0.702445 0.750000
O O2 0.232351 0.799655 0.686488
O O3 0.179897 0.677143 0.661745
O O4 0.000000 0.738860 0.719990
O O5 0.500000 0.833299 0.473473
O O6 0.755168 0.854519 0.507117
O O7 0.712788 0.757694 0.443853
O O8 0.702105 0.884567 0.417896
O O9 0.500000 0.494092 0.293143
O O10 0.750000 0.483487 0.250000
O O11 0.722555 0.570781 0.319283
O O12 0.722040 0.445724 0.339424
O O13 0.771989 0.856719 0.600861
O O14 0.000000 0.855577 0.654017
O O15 0.000000 0.329657 0.953141
O O16 0.000000 0.578449 0.644676
#
# Coordination Sequence:
#
# PCOD8262298 Si02
#       6
#    16  16  16  16  16  16
#     4  10  19  33  53  76 101 132 173 220 265 311
#     4   9  17  31  53  81 109 138 171 215 269 315
#     4  11  23  38  56  77 106 143 181 219 264 319
#     4   9  18  35  56  77 103 139 178 215 263 317
#     4   9  16  31  55  80 106 137 173 216 264 315
#     4  10  20  36  56  77 107 143 177 216 266 318
#
# _framework density 18.549586999999999
#
# number of rings (size 3 to 8) (size 9 to 14) (size 15 to 20)
#    0.000    2.333    1.667    1.500    0.000    2.667 
#    0.000    4.167    0.000    5.000    0.000    0.000 
#    0.000    0.000    0.000    0.000    0.000    0.000 
#
# Total GULP energy -595220.806586 kJ/mol
# GULP energy per Si atom -12400.433471 kJ/mol
# Density = 1.850737 g / cm^3
# Si number density = 18.549587 Si / 1000 Ang^3
#
#
#
# Elastic Constant Matrix: (Units=GPa)
#
#
# Indices 1 2 3 4 5 6 
#
# 1 48.1748 18.6761 28.9028 0.0000 0.0000 0.0000
# 2 18.6761 55.2039 2.1444 0.0000 0.0000 0.0000
# 3 28.9028 2.1444 89.8151 0.0000 0.0000 0.0000
# 4 0.0000 0.0000 0.0000 28.9729 0.0000 0.0000
# 5 0.0000 0.0000 0.0000 0.0000 30.9126 0.0000
# 6 0.0000 0.0000 0.0000 0.0000 0.0000 22.6107
#
#
#
# Elastic Compliance Matrix: (Units=1/GPa)
#
#
# Indices 1 2 3 4 5 6 
#
# 1 0.030295 -0.009880 -0.009513 0.000000 0.000000 0.000000
# 2 -0.009880 0.021353 0.002670 0.000000 0.000000 0.000000
# 3 -0.009513 0.002670 0.014132 0.000000 0.000000 0.000000
# 4 0.000000 0.000000 0.000000 0.034515 0.000000 0.000000
# 5 0.000000 0.000000 0.000000 0.000000 0.032349 0.000000
# 6 0.000000 0.000000 0.000000 0.000000 0.000000 0.044227
#
#
# Mechanical properties :
#
#
# Convention : Reuss Voigt Hill
#
# Bulk Modulus (GPa) = 30.92773 32.51560 31.72166
# Shear Modulus (GPa) = 22.61458 26.06395 24.33926
#
# Velocity S-wave (km/s) = 3.49541 3.75253 3.62625
# Velocity P-wave (km/s) = 5.74454 6.02846 5.88821
#
# Compressibility (1/GPa) = 0.03233344
#
# Stress axis : x y z
#
# Youngs Moduli (GPa) = 33.00828 46.83099 70.76312
#
# Poissons Ratio (x) = 0.46268 0.67319
# Poissons Ratio (y) = 0.32611 -0.18890
# Poissons Ratio (z) = 0.31402 -0.12502
#
# Static dielectric constant tensor:
#      x y z
#    x 3.197190 0.000000 0.000000 
#    y 0.000000 3.333880 0.000000 
#    z 0.000000 0.000000 3.575240 
# 
# 
# High freq. dielectric constant tensor:
#      x y z
#    x 1.698520 0.000000 0.000000 
#    y 0.000000 1.703240 0.000000 
#    z 0.000000 0.000000 1.733420 
# 
# From -- ./inp_files/48043.got.cif
#   From: 2010.03.12/outbox.cif.g09.slc.cpg/sg64_25_cif.got.tgz:48043.got - 2010.04.10 20:19:32.
