data_PCOD8262645
_publ_section_title
;
Structure prediction by ZEFSAII (Michael W. Deem and Ramdas Pophale) SiO2 
 PCOD8262645
Probable space group: C M C A
;
_chemical_formula_sum "Si O2"
_cell_formula_units_Z 96
_cell_length_a 22.338640
_cell_length_b 11.290060
_cell_length_c 19.735454
_cell_angle_alpha 90.000000
_cell_angle_beta 90.000000
_cell_angle_gamma 90.000000
_cell_volume 4977.372004
_symmetry_space_group_name_H-M "C M C A"
_symmetry_group_IT_number 64
_symmetry_cell_setting 'orthorhombic'
loop_
_space_group_symop_operation_xyz
x,y,z
-x,1/2-y,1/2+z
x,-y,-z
-x,1/2+y,1/2-z
-x,-y,-z
x,1/2+y,1/2-z
-x,y,z
x,1/2-y,1/2+z
1/2+x,1/2+y,z
1/2-x,-y,1/2+z
1/2+x,1/2-y,-z
1/2-x,y,1/2-z
1/2-x,1/2-y,-z
1/2+x,y,1/2-z
1/2-x,1/2+y,z
1/2+x,-y,1/2+z
loop_
_atom_site_type_symbol
_atom_site_label
_atom_site_fract_x
_atom_site_fract_y
_atom_site_fract_z
Si Si1 0.621243 0.794065 0.845616
Si Si2 0.566559 0.663908 0.962519
Si Si3 0.431216 0.744752 0.702729
Si Si4 0.665457 0.045710 0.812129
Si Si5 0.702575 0.926027 0.337541
Si Si6 0.108839 0.570744 0.405035
O O1 0.585383 0.773076 0.915191
O O2 0.578093 0.773390 0.781606
O O3 0.644421 0.926775 0.847894
O O4 0.677770 0.706534 0.843973
O O5 0.500000 0.687202 0.989939
O O6 0.566726 0.542962 0.918652
O O7 0.609895 0.654127 0.028255
O O8 0.500000 0.704708 0.691922
O O9 0.386576 0.641964 0.678039
O O10 0.417551 0.862217 0.659782
O O11 0.682022 0.020789 0.734435
O O12 0.726559 0.087215 0.848643
O O13 0.675446 0.018782 0.391840
#
# Coordination Sequence:
#
# PCOD8262645 Si02
#       6
#    16  16  16  16  16  16
#     4  10  21  37  55  86 115 152 191 244 292 344
#     4  10  20  36  60  85 117 157 194 238 294 343
#     4  11  22  35  57  90 120 151 195 238 291 353
#     4  10  21  36  57  86 117 154 184 245 300 346
#     4   9  20  35  60  82 111 150 201 239 289 345
#     4  10  19  37  60  87 110 153 199 244 277 337
#
# _framework density 19.287286999999999
#
# number of rings (size 3 to 8) (size 9 to 14) (size 15 to 20)
#    0.000    2.000    1.667    2.500    2.333    2.667 
#    0.000    1.667    7.333    2.000    0.000    0.000 
#    0.000    0.000    0.000    0.000    0.000    0.000 
#
# Total GULP energy -595143.792652 kJ/mol
# GULP energy per Si atom -12398.829014 kJ/mol
# Density = 1.924339 g / cm^3
# Si number density = 19.287287 Si / 1000 Ang^3
#
#
#
# Elastic Constant Matrix: (Units=GPa)
#
#
# Indices 1 2 3 4 5 6 
#
# 1 152.1620 38.7033 25.5187 0.0000 0.0000 0.0000
# 2 38.7033 63.2709 9.5576 0.0000 0.0000 0.0000
# 3 25.5187 9.5576 53.3890 0.0000 0.0000 0.0000
# 4 0.0000 0.0000 0.0000 31.8826 0.0000 0.0000
# 5 0.0000 0.0000 0.0000 0.0000 22.7487 0.0000
# 6 0.0000 0.0000 0.0000 0.0000 0.0000 21.8054
#
#
#
# Elastic Compliance Matrix: (Units=1/GPa)
#
#
# Indices 1 2 3 4 5 6 
#
# 1 0.008262 -0.004581 -0.003129 0.000000 0.000000 0.000000
# 2 -0.004581 0.018785 -0.001173 0.000000 0.000000 0.000000
# 3 -0.003129 -0.001173 0.020436 0.000000 0.000000 0.000000
# 4 0.000000 0.000000 0.000000 0.031365 0.000000 0.000000
# 5 0.000000 0.000000 0.000000 0.000000 0.043959 0.000000
# 6 0.000000 0.000000 0.000000 0.000000 0.000000 0.045860
#
#
# Mechanical properties :
#
#
# Convention : Reuss Voigt Hill
#
# Bulk Modulus (GPa) = 33.65173 46.26457 39.95815
# Shear Modulus (GPa) = 25.46627 28.29016 26.87821
#
# Velocity S-wave (km/s) = 3.63763 3.83401 3.73711
# Velocity P-wave (km/s) = 5.92694 6.60596 6.27564
#
# Compressibility (1/GPa) = 0.02971615
#
# Stress axis : x y z
#
# Youngs Moduli (GPa) = 121.03681 53.23503 48.93328
#
# Poissons Ratio (x) = 0.24388 0.15311
# Poissons Ratio (y) = 0.55450 0.05740
# Poissons Ratio (z) = 0.37871 0.06245
#
# Static dielectric constant tensor:
#      x y z
#    x 3.564760 0.000000 0.000000 
#    y 0.000000 3.353660 0.000000 
#    z 0.000000 0.000000 3.543860 
# 
# 
# High freq. dielectric constant tensor:
#      x y z
#    x 1.749330 0.000000 0.000000 
#    y 0.000000 1.738200 0.000000 
#    z 0.000000 0.000000 1.738990 
# 
# From -- ./inp_files/34924.got.cif
#   From: 2010.03.12/outbox.cif.g09.slc.cpg/sg64_18_cif.got.tgz:34924.got - 2010.04.10 20:19:32.
