data_PCOD8262779
_publ_section_title
;
Structure prediction by ZEFSAII (Michael W. Deem and Ramdas Pophale) SiO2 
 PCOD8262779
Probable space group: C M C A
;
_chemical_formula_sum "Si O2"
_cell_formula_units_Z 96
_cell_length_a 26.960696
_cell_length_b 20.465350
_cell_length_c 9.792232
_cell_angle_alpha 90.000000
_cell_angle_beta 90.000000
_cell_angle_gamma 90.000000
_cell_volume 5402.962711
_symmetry_space_group_name_H-M "C M C A"
_symmetry_group_IT_number 64
_symmetry_cell_setting 'orthorhombic'
loop_
_space_group_symop_operation_xyz
x,y,z
-x,1/2-y,1/2+z
x,-y,-z
-x,1/2+y,1/2-z
-x,-y,-z
x,1/2+y,1/2-z
-x,y,z
x,1/2-y,1/2+z
1/2+x,1/2+y,z
1/2-x,-y,1/2+z
1/2+x,1/2-y,-z
1/2-x,y,1/2-z
1/2-x,1/2-y,-z
1/2+x,y,1/2-z
1/2-x,1/2+y,z
1/2+x,-y,1/2+z
loop_
_atom_site_type_symbol
_atom_site_label
_atom_site_fract_x
_atom_site_fract_y
_atom_site_fract_z
Si Si1 0.389786 0.942472 0.646266
Si Si2 0.442708 0.705826 0.856095
Si Si3 0.556804 0.938789 0.357805
Si Si4 0.109513 0.798205 0.854193
Si Si5 0.223685 0.947988 0.891609
Si Si6 0.224474 0.798540 0.894842
O O1 0.414346 0.936040 0.499105
O O2 0.394548 0.870807 0.713288
O O3 0.333451 0.963619 0.632491
O O4 0.418331 0.001105 0.728955
O O5 0.500000 0.728320 0.855370
O O6 0.437627 0.632828 0.791428
O O7 0.409526 0.750921 0.762386
O O8 0.423619 0.709566 0.011029
O O9 0.500000 0.956208 0.383460
O O10 0.166352 0.781583 0.888227
O O11 0.250000 0.961040 0.750000
O O12 0.232073 0.873622 0.943526
O O13 0.245472 0.000000 0.000000
O O14 0.250000 0.787152 0.750000
O O15 0.250000 0.750000 0.000000
#
# Coordination Sequence:
#
# PCOD8262779 Si02
#       6
#    16  16  16  16  16  16
#     4   9  16  31  53  72 102 129 175 214 258 300
#     4  10  20  33  51  79 108 136 172 216 265 317
#     4   9  16  28  51  78 101 127 172 221 256 297
#     4  10  20  34  55  76 105 140 173 218 266 310
#     4  10  20  35  53  77 108 140 175 225 270 316
#     4  10  21  37  55  79 110 142 184 224 266 327
#
# _framework density 17.76803
#
# number of rings (size 3 to 8) (size 9 to 14) (size 15 to 20)
#    0.000    2.333    1.667    2.500    0.000    2.667 
#    3.000    0.000    0.000    0.000    0.000    3.500 
#    0.000    0.000    0.000    0.000    0.000    0.000 
#
# Total GULP energy -594779.770975 kJ/mol
# GULP energy per Si atom -12391.245229 kJ/mol
# Density = 1.772759 g / cm^3
# Si number density = 17.768030 Si / 1000 Ang^3
#
#
#
# Elastic Constant Matrix: (Units=GPa)
#
#
# Indices 1 2 3 4 5 6 
#
# 1 97.8056 42.2824 21.6103 0.0000 0.0000 0.0000
# 2 42.2824 109.2355 39.5496 0.0000 0.0000 0.0000
# 3 21.6103 39.5496 50.2569 0.0000 0.0000 0.0000
# 4 0.0000 0.0000 0.0000 29.4020 0.0000 0.0000
# 5 0.0000 0.0000 0.0000 0.0000 22.8430 0.0000
# 6 0.0000 0.0000 0.0000 0.0000 0.0000 28.9509
#
#
#
# Elastic Compliance Matrix: (Units=1/GPa)
#
#
# Indices 1 2 3 4 5 6 
#
# 1 0.012448 -0.004028 -0.002183 0.000000 0.000000 0.000000
# 2 -0.004028 0.014106 -0.009368 0.000000 0.000000 0.000000
# 3 -0.002183 -0.009368 0.028209 0.000000 0.000000 0.000000
# 4 0.000000 0.000000 0.000000 0.034011 0.000000 0.000000
# 5 0.000000 0.000000 0.000000 0.000000 0.043777 0.000000
# 6 0.000000 0.000000 0.000000 0.000000 0.000000 0.034541
#
#
# Mechanical properties :
#
#
# Convention : Reuss Voigt Hill
#
# Bulk Modulus (GPa) = 42.36551 51.57584 46.97067
# Shear Modulus (GPa) = 24.25793 26.49623 25.37708
#
# Velocity S-wave (km/s) = 3.69895 3.86583 3.78331
# Velocity P-wave (km/s) = 6.49141 7.00118 6.75111
#
# Compressibility (1/GPa) = 0.02360411
#
# Stress axis : x y z
#
# Youngs Moduli (GPa) = 80.33416 70.89394 35.45004
#
# Poissons Ratio (x) = 0.28556 0.07738
# Poissons Ratio (y) = 0.32359 0.33211
# Poissons Ratio (z) = 0.17535 0.66416
#
# Static dielectric constant tensor:
#      x y z
#    x 3.511580 0.000000 0.000000 
#    y 0.000000 4.481500 0.000000 
#    z 0.000000 0.000000 2.753340 
# 
# 
# High freq. dielectric constant tensor:
#      x y z
#    x 1.705770 0.000000 0.000000 
#    y 0.000000 1.711360 0.000000 
#    z 0.000000 0.000000 1.634830 
# 
# From -- ./inp_files/10375.got.cif
#   From: 2010.03.12/outbox.cif.g09.slc.cpg/sg64_6_cif.got.tgz:10375.got - 2010.04.10 20:19:32.
