data_PCOD8262879
_publ_section_title
;
Structure prediction by ZEFSAII (Michael W. Deem and Ramdas Pophale) SiO2 
 PCOD8262879
Probable space group: C M C A
;
_chemical_formula_sum "Si O2"
_cell_formula_units_Z 80
_cell_length_a 18.153790
_cell_length_b 14.431917
_cell_length_c 17.428176
_cell_angle_alpha 90.000000
_cell_angle_beta 90.000000
_cell_angle_gamma 90.000000
_cell_volume 4566.077378
_symmetry_space_group_name_H-M "C M C A"
_symmetry_group_IT_number 64
_symmetry_cell_setting 'orthorhombic'
loop_
_space_group_symop_operation_xyz
x,y,z
-x,1/2-y,1/2+z
x,-y,-z
-x,1/2+y,1/2-z
-x,-y,-z
x,1/2+y,1/2-z
-x,y,z
x,1/2-y,1/2+z
1/2+x,1/2+y,z
1/2-x,-y,1/2+z
1/2+x,1/2-y,-z
1/2-x,y,1/2-z
1/2-x,1/2-y,-z
1/2+x,y,1/2-z
1/2-x,1/2+y,z
1/2+x,-y,1/2+z
loop_
_atom_site_type_symbol
_atom_site_label
_atom_site_fract_x
_atom_site_fract_y
_atom_site_fract_z
Si Si1 0.276469 0.053592 0.330047
Si Si2 0.304212 0.714326 0.063361
Si Si3 0.084533 0.556123 0.693010
Si Si4 0.416623 0.900272 0.476305
Si Si5 0.192166 0.867069 0.311012
O O1 0.250000 0.097540 0.250000
O O2 0.263435 0.128459 0.395763
O O3 0.364137 0.033449 0.321982
O O4 0.229715 0.959804 0.346950
O O5 0.325715 0.794780 0.122614
O O6 0.250000 0.750000 0.000000
O O7 0.377696 0.682772 0.020596
O O8 0.088936 0.617486 0.615216
O O9 0.115787 0.611811 0.766466
O O10 0.000000 0.525874 0.709153
O O11 0.500000 0.899436 0.505581
O O12 0.381165 0.000000 0.500000
O O13 0.250000 0.824388 0.250000
#
# Coordination Sequence:
#
# PCOD8262879 Si02
#       5
#    16  16  16  16  16
#     4   9  19  35  52  75 108 139 178 221 274 328
#     4  12  22  31  56  82 109 144 184 228 278 326
#     4   9  17  34  56  74 102 141 177 222 271 326
#     4  10  20  34  54  80 109 139 179 227 275 328
#     4   9  20  35  51  77 109 140 178 226 274 326
#
# _framework density 17.520509000000001
#
# number of rings (size 3 to 8) (size 9 to 14) (size 15 to 20)
#    0.000    2.600    2.000    3.000    0.000    0.800 
#    0.000    0.000    0.000    7.200    0.000    7.000 
#    0.000    0.000    0.000    0.000    0.000    0.000 
#
# Total GULP energy -495780.351549 kJ/mol
# GULP energy per Si atom -12394.508789 kJ/mol
# Density = 1.748063 g / cm^3
# Si number density = 17.520509 Si / 1000 Ang^3
#
#
#
# Elastic Constant Matrix: (Units=GPa)
#
#
# Indices 1 2 3 4 5 6 
#
# 1 114.9421 50.7292 57.2945 0.0000 0.0000 0.0000
# 2 50.7292 97.4400 68.4427 0.0000 0.0000 0.0000
# 3 57.2945 68.4427 111.2781 0.0000 0.0000 0.0000
# 4 0.0000 0.0000 0.0000 40.5504 0.0000 0.0000
# 5 0.0000 0.0000 0.0000 0.0000 28.8158 0.0000
# 6 0.0000 0.0000 0.0000 0.0000 0.0000 17.6165
#
#
#
# Elastic Compliance Matrix: (Units=1/GPa)
#
#
# Indices 1 2 3 4 5 6 
#
# 1 0.012329 -0.003451 -0.004226 0.000000 0.000000 0.000000
# 2 -0.003451 0.019035 -0.009931 0.000000 0.000000 0.000000
# 3 -0.004226 -0.009931 0.017270 0.000000 0.000000 0.000000
# 4 0.000000 0.000000 0.000000 0.024661 0.000000 0.000000
# 5 0.000000 0.000000 0.000000 0.000000 0.034703 0.000000
# 6 0.000000 0.000000 0.000000 0.000000 0.000000 0.056765
#
#
# Mechanical properties :
#
#
# Convention : Reuss Voigt Hill
#
# Bulk Modulus (GPa) = 74.51635 75.17700 74.84667
# Shear Modulus (GPa) = 24.45575 27.20946 25.83260
#
# Velocity S-wave (km/s) = 3.74014 3.94510 3.84398
# Velocity P-wave (km/s) = 7.82782 7.98454 7.90657
#
# Compressibility (1/GPa) = 0.01341987
#
# Stress axis : x y z
#
# Youngs Moduli (GPa) = 81.10721 52.53557 57.90313
#
# Poissons Ratio (x) = 0.18129 0.24468
# Poissons Ratio (y) = 0.27988 0.57502
# Poissons Ratio (z) = 0.34273 0.52172
#
# Static dielectric constant tensor:
#      x y z
#    x 2.952260 0.000000 0.000000 
#    y 0.000000 3.495680 0.000000 
#    z 0.000000 0.000000 3.242570 
# 
# 
# High freq. dielectric constant tensor:
#      x y z
#    x 1.668920 0.000000 0.000000 
#    y 0.000000 1.653690 0.000000 
#    z 0.000000 0.000000 1.687870 
# 
# From -- ./inp_files/33007.got.cif
#   From: 2010.03.12/outbox.cif.g09.slc.cpg/sg64_17_cif.got.tgz:33007.got - 2010.04.10 20:19:32.
