data_PCOD8262233
_publ_section_title
;
Structure prediction by ZEFSAII (Michael W. Deem and Ramdas Pophale) SiO2 
 PCOD8262233
Probable space group: C M C A
;
_chemical_formula_sum "Si O2"
_cell_formula_units_Z 112
_cell_length_a 14.232775
_cell_length_b 15.010522
_cell_length_c 26.043768
_cell_angle_alpha 90.000000
_cell_angle_beta 90.000000
_cell_angle_gamma 90.000000
_cell_volume 5564.026595
_symmetry_space_group_name_H-M "C M C A"
_symmetry_group_IT_number 64
_symmetry_cell_setting 'orthorhombic'
loop_
_space_group_symop_operation_xyz
x,y,z
-x,1/2-y,1/2+z
x,-y,-z
-x,1/2+y,1/2-z
-x,-y,-z
x,1/2+y,1/2-z
-x,y,z
x,1/2-y,1/2+z
1/2+x,1/2+y,z
1/2-x,-y,1/2+z
1/2+x,1/2-y,-z
1/2-x,y,1/2-z
1/2-x,1/2-y,-z
1/2+x,y,1/2-z
1/2-x,1/2+y,z
1/2+x,-y,1/2+z
loop_
_atom_site_type_symbol
_atom_site_label
_atom_site_fract_x
_atom_site_fract_y
_atom_site_fract_z
Si Si1 0.395625 0.794919 0.672682
Si Si2 0.850498 0.622268 0.770157
Si Si3 0.289389 0.222323 0.921219
Si Si4 0.289714 0.459598 0.371908
Si Si5 0.895354 0.249182 0.976827
Si Si6 0.396881 0.049223 0.048131
Si Si7 0.602719 0.003918 0.320500
O O1 0.500000 0.794309 0.647496
O O2 0.397710 0.717243 0.716184
O O3 0.315087 0.777283 0.630225
O O4 0.375444 0.893351 0.696855
O O5 0.750000 0.650941 0.750000
O O6 0.843724 0.556886 0.818894
O O7 0.902901 0.563255 0.727716
O O8 0.315002 0.120145 0.910865
O O9 0.177424 0.218660 0.932704
O O10 0.348435 0.266809 0.967360
O O11 0.331785 0.545342 0.401019
O O12 0.178894 0.471988 0.362090
O O13 0.910909 0.351574 0.968767
O O14 0.000000 0.202980 0.973370
O O15 0.500000 0.006955 0.059771
O O16 0.347879 0.000000 0.000000
O O17 0.500000 0.999909 0.346909
#
# Coordination Sequence:
#
# PCOD8262233 Si02
#       7
#    16  16  16  16  16  16  16
#     4  10  20  35  58  82 108 146 187 225 276 335
#     4   9  20  36  56  82 109 144 186 231 280 331
#     4  10  20  34  54  78 107 146 185 228 274 331
#     4  10  20  35  55  79 109 145 182 226 281 333
#     4  10  20  34  52  77 110 143 184 231 278 324
#     4  10  19  32  53  80 106 137 178 231 281 320
#     4  10  21  37  56  81 114 147 185 230 277 335
#
# _framework density 20.129307000000001
#
# number of rings (size 3 to 8) (size 9 to 14) (size 15 to 20)
#    0.000    2.143    1.429    1.714    0.000    5.143 
#    0.000    1.429    0.000    5.571    0.000    0.000 
#    0.000    0.000    0.000    0.000    0.000    0.000 
#
# Total GULP energy -693801.830567 kJ/mol
# GULP energy per Si atom -12389.318403 kJ/mol
# Density = 2.008349 g / cm^3
# Si number density = 20.129307 Si / 1000 Ang^3
#
#
#
# Elastic Constant Matrix: (Units=GPa)
#
#
# Indices 1 2 3 4 5 6 
#
# 1 105.1788 7.5693 35.2403 0.0000 0.0000 0.0000
# 2 7.5693 66.5976 22.1976 0.0000 0.0000 0.0000
# 3 35.2403 22.1976 82.6748 0.0000 0.0000 0.0000
# 4 0.0000 0.0000 0.0000 23.9532 0.0000 0.0000
# 5 0.0000 0.0000 0.0000 0.0000 26.2801 0.0000
# 6 0.0000 0.0000 0.0000 0.0000 0.0000 25.8905
#
#
#
# Elastic Compliance Matrix: (Units=1/GPa)
#
#
# Indices 1 2 3 4 5 6 
#
# 1 0.011099 0.000346 -0.004824 0.000000 0.000000 0.000000
# 2 0.000346 0.016502 -0.004578 0.000000 0.000000 0.000000
# 3 -0.004824 -0.004578 0.015381 0.000000 0.000000 0.000000
# 4 0.000000 0.000000 0.000000 0.041748 0.000000 0.000000
# 5 0.000000 0.000000 0.000000 0.000000 0.038052 0.000000
# 6 0.000000 0.000000 0.000000 0.000000 0.000000 0.038624
#
#
# Mechanical properties :
#
#
# Convention : Reuss Voigt Hill
#
# Bulk Modulus (GPa) = 40.20852 42.71840 41.46346
# Shear Modulus (GPa) = 26.62291 27.85436 27.23864
#
# Velocity S-wave (km/s) = 3.64069 3.72394 3.68255
# Velocity P-wave (km/s) = 6.13933 6.30543 6.22293
#
# Compressibility (1/GPa) = 0.02487035
#
# Stress axis : x y z
#
# Youngs Moduli (GPa) = 90.09849 60.59791 65.01493
#
# Poissons Ratio (x) = -0.02099 0.31363
# Poissons Ratio (y) = -0.03121 0.29766
# Poissons Ratio (z) = 0.43463 0.27744
#
# Static dielectric constant tensor:
#      x y z
#    x 4.110550 0.000000 0.000000 
#    y 0.000000 3.603540 0.000000 
#    z 0.000000 0.000000 3.679520 
# 
# 
# High freq. dielectric constant tensor:
#      x y z
#    x 1.792680 0.000000 0.000000 
#    y 0.000000 1.776050 0.000000 
#    z 0.000000 0.000000 1.768110 
# 
# From -- ./inp_files/45300.got.cif
#   From: 2010.03.12/outbox.cif.g09.slc.cpg/sg64_23_cif.got.tgz:45300.got - 2010.04.10 20:19:32.
