data_PCOD8262842
_publ_section_title
;
Structure prediction by ZEFSAII (Michael W. Deem and Ramdas Pophale) SiO2 
 PCOD8262842
Probable space group: C M C A
;
_chemical_formula_sum "Si O2"
_cell_formula_units_Z 80
_cell_length_a 33.488764
_cell_length_b 9.456558
_cell_length_c 12.450105
_cell_angle_alpha 90.000000
_cell_angle_beta 90.000000
_cell_angle_gamma 90.000000
_cell_volume 3942.804319
_symmetry_space_group_name_H-M "C M C A"
_symmetry_group_IT_number 64
_symmetry_cell_setting 'orthorhombic'
loop_
_space_group_symop_operation_xyz
x,y,z
-x,1/2-y,1/2+z
x,-y,-z
-x,1/2+y,1/2-z
-x,-y,-z
x,1/2+y,1/2-z
-x,y,z
x,1/2-y,1/2+z
1/2+x,1/2+y,z
1/2-x,-y,1/2+z
1/2+x,1/2-y,-z
1/2-x,y,1/2-z
1/2-x,1/2-y,-z
1/2+x,y,1/2-z
1/2-x,1/2+y,z
1/2+x,-y,1/2+z
loop_
_atom_site_type_symbol
_atom_site_label
_atom_site_fract_x
_atom_site_fract_y
_atom_site_fract_z
Si Si1 0.334138 0.267417 0.643808
Si Si2 0.588291 0.765163 0.736437
Si Si3 0.296129 0.495019 0.770938
Si Si4 0.149308 0.634155 0.435497
Si Si5 0.952781 0.496536 0.124469
O O1 0.377474 0.213896 0.682673
O O2 0.322021 0.429625 0.671213
O O3 0.335917 0.258651 0.514929
O O4 0.303791 0.160089 0.704770
O O5 0.611115 0.833626 0.636273
O O6 0.562070 0.639955 0.688708
O O7 0.560614 0.869562 0.805335
O O8 0.250000 0.469841 0.750000
O O9 0.310302 0.401314 0.871337
O O10 0.134210 0.500000 0.500000
O O11 0.000000 0.492973 0.121667
O O12 0.936725 0.500000 0.000000
#
# Coordination Sequence:
#
# PCOD8262842 Si02
#       5
#    16  16  16  16  16
#     4  10  20  36  56  80 107 145 191 230 279 337
#     4  11  21  39  63  84 117 154 192 241 286 345
#     4  10  20  34  52  77 111 145 182 233 285 335
#     4   9  19  35  57  82 109 147 192 234 282 340
#     4  11  24  40  61  91 122 153 191 238 294 351
#
# _framework density 20.290127999999999
#
# number of rings (size 3 to 8) (size 9 to 14) (size 15 to 20)
#    0.000    1.800    0.000    6.000    0.000    0.800 
#    0.000    9.000    0.000    9.600    0.000    0.000 
#    0.000    0.000    0.000    0.000    0.000    0.000 
#
# Total GULP energy -495612.223448 kJ/mol
# GULP energy per Si atom -12390.305586 kJ/mol
# Density = 2.024395 g / cm^3
# Si number density = 20.290128 Si / 1000 Ang^3
#
#
#
# Elastic Constant Matrix: (Units=GPa)
#
#
# Indices 1 2 3 4 5 6 
#
# 1 103.6256 29.5909 34.9850 0.0000 0.0000 0.0000
# 2 29.5909 62.4296 36.2584 0.0000 0.0000 0.0000
# 3 34.9850 36.2584 54.5187 0.0000 0.0000 0.0000
# 4 0.0000 0.0000 0.0000 30.5587 0.0000 0.0000
# 5 0.0000 0.0000 0.0000 0.0000 19.4202 0.0000
# 6 0.0000 0.0000 0.0000 0.0000 0.0000 -7.5726
#
#
#
# Elastic Compliance Matrix: (Units=1/GPa)
#
#
# Indices 1 2 3 4 5 6 
#
# 1 0.012479 -0.002060 -0.006638 0.000000 0.000000 0.000000
# 2 -0.002060 0.026439 -0.016262 0.000000 0.000000 0.000000
# 3 -0.006638 -0.016262 0.033417 0.000000 0.000000 0.000000
# 4 0.000000 0.000000 0.000000 0.032724 0.000000 0.000000
# 5 0.000000 0.000000 0.000000 0.000000 0.051493 0.000000
# 6 0.000000 0.000000 0.000000 0.000000 0.000000 -0.132056
#
#
# Mechanical properties :
#
#
# Convention : Reuss Voigt Hill
#
# Bulk Modulus (GPa) = 44.61092 46.91582 45.76337
# Shear Modulus (GPa) = 61.05828 16.46391 38.76109
#
# Velocity S-wave (km/s) = 5.49162 2.85164 4.37549
# Velocity P-wave (km/s) = 7.88954 5.83225 6.93758
#
# Compressibility (1/GPa) = 0.02241604
#
# Stress axis : x y z
#
# Youngs Moduli (GPa) = 80.13178 37.82279 29.92446
#
# Poissons Ratio (x) = 0.07790 0.19865
# Poissons Ratio (y) = 0.16504 0.48663
# Poissons Ratio (z) = 0.53194 0.61507
#
# Static dielectric constant tensor:
#      x y z
#    x 3.525630 0.000000 0.000000 
#    y 0.000000 4.049430 0.000000 
#    z 0.000000 0.000000 4.415350 
# 
# 
# High freq. dielectric constant tensor:
#      x y z
#    x 1.786170 0.000000 0.000000 
#    y 0.000000 1.792210 0.000000 
#    z 0.000000 0.000000 1.809850 
# 
# From -- ./inp_files/19603.got.cif
#   From: 2010.03.12/outbox.cif.g09.slc.cpg/sg64_10_cif.got.tgz:19603.got - 2010.04.10 20:19:32.
