data_PCOD8262818
_publ_section_title
;
Structure prediction by ZEFSAII (Michael W. Deem and Ramdas Pophale) SiO2 
 PCOD8262818
Probable space group: C M C A
;
_chemical_formula_sum "Si O2"
_cell_formula_units_Z 88
_cell_length_a 13.102743
_cell_length_b 12.167753
_cell_length_c 30.486671
_cell_angle_alpha 90.000000
_cell_angle_beta 90.000000
_cell_angle_gamma 90.000000
_cell_volume 4860.518629
_symmetry_space_group_name_H-M "C M C A"
_symmetry_group_IT_number 64
_symmetry_cell_setting 'orthorhombic'
loop_
_space_group_symop_operation_xyz
x,y,z
-x,1/2-y,1/2+z
x,-y,-z
-x,1/2+y,1/2-z
-x,-y,-z
x,1/2+y,1/2-z
-x,y,z
x,1/2-y,1/2+z
1/2+x,1/2+y,z
1/2-x,-y,1/2+z
1/2+x,1/2-y,-z
1/2-x,y,1/2-z
1/2-x,1/2-y,-z
1/2+x,y,1/2-z
1/2-x,1/2+y,z
1/2+x,-y,1/2+z
loop_
_atom_site_type_symbol
_atom_site_label
_atom_site_fract_x
_atom_site_fract_y
_atom_site_fract_z
Si Si1 0.383156 0.766093 0.315510
Si Si2 0.791169 0.460041 0.829490
Si Si3 0.258866 0.856309 0.110245
Si Si4 0.250000 0.614625 0.750000
Si Si5 0.384998 0.644888 0.121811
Si Si6 0.884956 0.963166 0.048123
O O1 0.500000 0.801048 0.316826
O O2 0.374002 0.635272 0.322650
O O3 0.327571 0.831938 0.353829
O O4 0.337142 0.804756 0.268924
O O5 0.816908 0.533195 0.872772
O O6 0.796202 0.536908 0.787196
O O7 0.680312 0.402536 0.837346
O O8 0.340250 0.760293 0.104914
O O9 0.198430 0.874375 0.064577
O O10 0.500000 0.662013 0.139019
O O11 0.381705 0.566871 0.080062
O O12 0.000000 0.913042 0.047170
O O13 0.850908 0.000000 0.000000
#
# Coordination Sequence:
#
# PCOD8262818 Si02
#       6
#    16  16  16   8  16  16
#     4  10  20  34  51  70  95 127 161 198 243 292
#     4   9  19  34  49  69  96 123 160 201 239 287
#     4   9  18  33  52  73  99 129 165 206 245 289
#     4  10  20  34  48  70  96 122 158 200 242 288
#     4   9  18  33  53  74  98 132 167 201 246 296
#     4   9  17  30  50  76 103 132 167 204 245 295
#
# _framework density 18.105063999999999
#
# number of rings (size 3 to 8) (size 9 to 14) (size 15 to 20)
#    0.000    2.727    0.000    1.091    0.000    6.545 
#    0.000   12.727    0.000    0.545    0.000    0.000 
#    0.000    0.000    0.000    0.000    0.000    0.000 
#
# Total GULP energy -545476.054201 kJ/mol
# GULP energy per Si atom -12397.183050 kJ/mol
# Density = 1.806386 g / cm^3
# Si number density = 18.105064 Si / 1000 Ang^3
#
#
#
# Elastic Constant Matrix: (Units=GPa)
#
#
# Indices 1 2 3 4 5 6 
#
# 1 81.1487 22.0454 18.0897 0.0000 0.0000 0.0000
# 2 22.0454 78.1855 3.3970 0.0000 0.0000 0.0000
# 3 18.0897 3.3970 64.5168 0.0000 0.0000 0.0000
# 4 0.0000 0.0000 0.0000 14.7892 0.0000 0.0000
# 5 0.0000 0.0000 0.0000 0.0000 25.3828 0.0000
# 6 0.0000 0.0000 0.0000 0.0000 0.0000 24.0491
#
#
#
# Elastic Compliance Matrix: (Units=1/GPa)
#
#
# Indices 1 2 3 4 5 6 
#
# 1 0.014210 -0.003842 -0.003782 0.000000 0.000000 0.000000
# 2 -0.003842 0.013858 0.000348 0.000000 0.000000 0.000000
# 3 -0.003782 0.000348 0.016542 0.000000 0.000000 0.000000
# 4 0.000000 0.000000 0.000000 0.067617 0.000000 0.000000
# 5 0.000000 0.000000 0.000000 0.000000 0.039397 0.000000
# 6 0.000000 0.000000 0.000000 0.000000 0.000000 0.041582
#
#
# Mechanical properties :
#
#
# Convention : Reuss Voigt Hill
#
# Bulk Modulus (GPa) = 33.27017 34.54614 33.90815
# Shear Modulus (GPa) = 22.95916 24.86546 23.91231
#
# Velocity S-wave (km/s) = 3.56491 3.70996 3.63816
# Velocity P-wave (km/s) = 5.94650 6.12161 6.03469
#
# Compressibility (1/GPa) = 0.03005695
#
# Stress axis : x y z
#
# Youngs Moduli (GPa) = 70.37307 72.15836 60.45236
#
# Poissons Ratio (x) = 0.27726 0.22863
# Poissons Ratio (y) = 0.27040 -0.02102
# Poissons Ratio (z) = 0.26615 -0.02509
#
# Static dielectric constant tensor:
#      x y z
#    x 3.260130 0.000000 0.000000 
#    y 0.000000 3.501570 0.000000 
#    z 0.000000 0.000000 3.275660 
# 
# 
# High freq. dielectric constant tensor:
#      x y z
#    x 1.684480 0.000000 0.000000 
#    y 0.000000 1.710130 0.000000 
#    z 0.000000 0.000000 1.689660 
# 
# From -- ./inp_files/52645.got.cif
#   From: 2010.03.12/outbox.cif.g09.slc.cpg/sg64_27_cif.got.tgz:52645.got - 2010.04.10 20:19:32.
