data_PCOD8262507
_publ_section_title
;
Structure prediction by ZEFSAII (Michael W. Deem and Ramdas Pophale) SiO2 
 PCOD8262507
Probable space group: C M C A
;
_chemical_formula_sum "Si O2"
_cell_formula_units_Z 112
_cell_length_a 13.805227
_cell_length_b 13.337772
_cell_length_c 32.145521
_cell_angle_alpha 90.000000
_cell_angle_beta 90.000000
_cell_angle_gamma 90.000000
_cell_volume 5918.985967
_symmetry_space_group_name_H-M "C M C A"
_symmetry_group_IT_number 64
_symmetry_cell_setting 'orthorhombic'
loop_
_space_group_symop_operation_xyz
x,y,z
-x,1/2-y,1/2+z
x,-y,-z
-x,1/2+y,1/2-z
-x,-y,-z
x,1/2+y,1/2-z
-x,y,z
x,1/2-y,1/2+z
1/2+x,1/2+y,z
1/2-x,-y,1/2+z
1/2+x,1/2-y,-z
1/2-x,y,1/2-z
1/2-x,1/2-y,-z
1/2+x,y,1/2-z
1/2-x,1/2+y,z
1/2+x,-y,1/2+z
loop_
_atom_site_type_symbol
_atom_site_label
_atom_site_fract_x
_atom_site_fract_y
_atom_site_fract_z
Si Si1 0.887365 0.112674 0.001985
Si Si2 0.392280 0.374630 0.172319
Si Si3 0.756779 0.018275 0.350005
Si Si4 0.891975 0.719226 0.583548
Si Si5 0.236008 0.709100 0.202731
Si Si6 0.204109 0.667912 0.414274
Si Si7 0.115836 0.177429 0.647158
O O1 0.828903 0.167132 0.038285
O O2 0.000000 0.118632 0.013404
O O3 0.863088 0.159826 0.957747
O O4 0.850314 0.000000 0.000000
O O5 0.500000 0.400953 0.186555
O O6 0.325101 0.470616 0.179942
O O7 0.383714 0.353351 0.123041
O O8 0.355937 0.282275 0.199842
O O9 0.795975 0.113164 0.324349
O O10 0.700777 0.059565 0.391435
O O11 0.840372 0.935185 0.359201
O O12 0.818236 0.809573 0.588686
O O13 0.000000 0.764373 0.580147
O O14 0.250000 0.676017 0.250000
O O15 0.332229 0.766195 0.185825
O O16 0.139431 0.754846 0.393059
O O17 0.000000 0.170407 0.654233
#
# Coordination Sequence:
#
# PCOD8262507 Si02
#       7
#    16  16  16  16  16  16  16
#     4  10  21  33  54  85 116 151 197 245 288 335
#     4  10  20  38  61  83 112 151 194 235 280 340
#     4  10  20  36  58  87 113 148 191 231 285 340
#     4  10  19  35  56  82 112 150 195 235 280 338
#     4  10  22  40  59  83 117 149 185 232 290 349
#     4  11  20  37  59  83 118 156 192 238 294 339
#     4  10  22  39  60  86 117 150 191 237 287 344
#
# _framework density 18.922160999999999
#
# number of rings (size 3 to 8) (size 9 to 14) (size 15 to 20)
#    0.000    1.857    4.286    1.714    0.000    8.000 
#    0.000    0.000    0.000    0.429    0.000    0.000 
#    0.000    0.000    0.000    0.000    0.000    0.000 
#
# Total GULP energy -694129.302980 kJ/mol
# GULP energy per Si atom -12395.166125 kJ/mol
# Density = 1.887909 g / cm^3
# Si number density = 18.922161 Si / 1000 Ang^3
#
#
#
# Elastic Constant Matrix: (Units=GPa)
#
#
# Indices 1 2 3 4 5 6 
#
# 1 99.5015 28.4002 -5.2965 0.0000 0.0000 0.0000
# 2 28.4002 91.1290 4.3712 0.0000 0.0000 0.0000
# 3 -5.2965 4.3712 79.3131 0.0000 0.0000 0.0000
# 4 0.0000 0.0000 0.0000 16.2782 0.0000 0.0000
# 5 0.0000 0.0000 0.0000 0.0000 22.1982 0.0000
# 6 0.0000 0.0000 0.0000 0.0000 0.0000 12.9922
#
#
#
# Elastic Compliance Matrix: (Units=1/GPa)
#
#
# Indices 1 2 3 4 5 6 
#
# 1 0.011100 -0.003504 0.000934 0.000000 0.000000 0.000000
# 2 -0.003504 0.012109 -0.000901 0.000000 0.000000 0.000000
# 3 0.000934 -0.000901 0.012720 0.000000 0.000000 0.000000
# 4 0.000000 0.000000 0.000000 0.061432 0.000000 0.000000
# 5 0.000000 0.000000 0.000000 0.000000 0.045049 0.000000
# 6 0.000000 0.000000 0.000000 0.000000 0.000000 0.076969
#
#
# Mechanical properties :
#
#
# Convention : Reuss Voigt Hill
#
# Bulk Modulus (GPa) = 34.49836 36.09926 35.29881
# Shear Modulus (GPa) = 21.18793 26.45830 23.82311
#
# Velocity S-wave (km/s) = 3.34988 3.74340 3.55210
# Velocity P-wave (km/s) = 5.76486 6.14844 5.95973
#
# Compressibility (1/GPa) = 0.02898689
#
# Stress axis : x y z
#
# Youngs Moduli (GPa) = 90.09011 82.58503 78.61428
#
# Poissons Ratio (x) = 0.28939 -0.07346
# Poissons Ratio (y) = 0.31569 0.07086
# Poissons Ratio (z) = -0.08418 0.07444
#
# Static dielectric constant tensor:
#      x y z
#    x 3.530540 0.000000 0.000000 
#    y 0.000000 3.497870 0.000000 
#    z 0.000000 0.000000 3.459360 
# 
# 
# High freq. dielectric constant tensor:
#      x y z
#    x 1.731190 0.000000 0.000000 
#    y 0.000000 1.734890 0.000000 
#    z 0.000000 0.000000 1.729950 
# 
# From -- ./inp_files/53288.got.cif
#   From: 2010.03.12/outbox.cif.g09.slc.cpg/sg64_27_cif.got.tgz:53288.got - 2010.04.10 20:19:32.
