data_PCOD8262313
_publ_section_title
;
Structure prediction by ZEFSAII (Michael W. Deem and Ramdas Pophale) SiO2 
 PCOD8262313
Probable space group: C M C A
;
_chemical_formula_sum "Si O2"
_cell_formula_units_Z 96
_cell_length_a 26.396445
_cell_length_b 11.419797
_cell_length_c 16.338651
_cell_angle_alpha 90.000000
_cell_angle_beta 90.000000
_cell_angle_gamma 90.000000
_cell_volume 4925.156344
_symmetry_space_group_name_H-M "C M C A"
_symmetry_group_IT_number 64
_symmetry_cell_setting 'orthorhombic'
loop_
_space_group_symop_operation_xyz
x,y,z
-x,1/2-y,1/2+z
x,-y,-z
-x,1/2+y,1/2-z
-x,-y,-z
x,1/2+y,1/2-z
-x,y,z
x,1/2-y,1/2+z
1/2+x,1/2+y,z
1/2-x,-y,1/2+z
1/2+x,1/2-y,-z
1/2-x,y,1/2-z
1/2-x,1/2-y,-z
1/2+x,y,1/2-z
1/2-x,1/2+y,z
1/2+x,-y,1/2+z
loop_
_atom_site_type_symbol
_atom_site_label
_atom_site_fract_x
_atom_site_fract_y
_atom_site_fract_z
Si Si1 0.059148 0.943182 0.586496
Si Si2 0.372237 0.254078 0.152420
Si Si3 0.879411 0.411423 0.204612
Si Si4 0.802059 0.123850 0.955202
Si Si5 0.694409 0.401168 0.754544
Si Si6 0.201028 0.786835 0.395500
O O1 0.087324 0.819833 0.600573
O O2 0.000000 0.916787 0.587181
O O3 0.075633 0.000000 0.500000
O O4 0.072034 0.028526 0.662890
O O5 0.396966 0.303820 0.237216
O O6 0.352515 0.364274 0.099715
O O7 0.322939 0.174753 0.175366
O O8 0.847714 0.498259 0.264341
O O9 0.843930 0.374558 0.128629
O O10 0.752655 0.136981 0.897292
O O11 0.806855 0.234297 0.015183
O O12 0.801142 0.000000 0.000000
O O13 0.750000 0.459819 0.750000
O O14 0.699967 0.319391 0.832749
#
# Coordination Sequence:
#
# PCOD8262313 Si02
#       6
#    16  16  16  16  16  16
#     4  10  22  42  66  86 110 151 200 252 309 360
#     4  10  21  37  55  87 115 150 189 246 288 350
#     4  10  22  34  60  83 114 149 191 245 288 342
#     4  11  22  33  51  77 116 156 193 227 280 343
#     4  10  19  33  54  76 113 154 195 227 276 345
#     4  10  22  34  48  78 112 155 192 228 274 333
#
# _framework density 19.491768
#
# number of rings (size 3 to 8) (size 9 to 14) (size 15 to 20)
#    0.000    1.833    1.667    2.000    4.667    2.667 
#    0.000    0.000    0.000    0.500    0.000    0.000 
#    0.000    0.000    0.000    0.000    0.000    0.000 
#
# Total GULP energy -594913.487894 kJ/mol
# GULP energy per Si atom -12394.030998 kJ/mol
# Density = 1.944740 g / cm^3
# Si number density = 19.491768 Si / 1000 Ang^3
#
#
#
# Elastic Constant Matrix: (Units=GPa)
#
#
# Indices 1 2 3 4 5 6 
#
# 1 74.2585 26.7111 43.8995 0.0000 0.0000 0.0000
# 2 26.7111 81.5165 37.8040 0.0000 0.0000 0.0000
# 3 43.8995 37.8040 85.8710 0.0000 0.0000 0.0000
# 4 0.0000 0.0000 0.0000 47.3031 0.0000 0.0000
# 5 0.0000 0.0000 0.0000 0.0000 21.0137 0.0000
# 6 0.0000 0.0000 0.0000 0.0000 0.0000 16.1116
#
#
#
# Elastic Compliance Matrix: (Units=1/GPa)
#
#
# Indices 1 2 3 4 5 6 
#
# 1 0.019617 -0.002233 -0.009046 0.000000 0.000000 0.000000
# 2 -0.002233 0.015669 -0.005756 0.000000 0.000000 0.000000
# 3 -0.009046 -0.005756 0.018804 0.000000 0.000000 0.000000
# 4 0.000000 0.000000 0.000000 0.021140 0.000000 0.000000
# 5 0.000000 0.000000 0.000000 0.000000 0.047588 0.000000
# 6 0.000000 0.000000 0.000000 0.000000 0.000000 0.062067
#
#
# Mechanical properties :
#
#
# Convention : Reuss Voigt Hill
#
# Bulk Modulus (GPa) = 49.95124 50.94169 50.44647
# Shear Modulus (GPa) = 22.16025 25.76778 23.96401
#
# Velocity S-wave (km/s) = 3.37546 3.63985 3.51015
# Velocity P-wave (km/s) = 6.39328 6.62242 6.50886
#
# Compressibility (1/GPa) = 0.02001952
#
# Stress axis : x y z
#
# Youngs Moduli (GPa) = 50.97528 63.82114 53.18001
#
# Poissons Ratio (x) = 0.14252 0.48106
# Poissons Ratio (y) = 0.11383 0.30613
# Poissons Ratio (z) = 0.46111 0.36738
#
# Static dielectric constant tensor:
#      x y z
#    x 3.259900 0.000000 0.000000 
#    y 0.000000 3.569760 0.000000 
#    z 0.000000 0.000000 3.669380 
# 
# 
# High freq. dielectric constant tensor:
#      x y z
#    x 1.720780 0.000000 0.000000 
#    y 0.000000 1.765200 0.000000 
#    z 0.000000 0.000000 1.770860 
# 
# From -- ./inp_files/34916.got.cif
#   From: 2010.03.12/outbox.cif.g09.slc.cpg/sg64_18_cif.got.tgz:34916.got - 2010.04.10 20:19:32.
