data_PCOD8262355
_publ_section_title
;
Structure prediction by ZEFSAII (Michael W. Deem and Ramdas Pophale) SiO2 
 PCOD8262355
Probable space group: C M C A
;
_chemical_formula_sum "Si O2"
_cell_formula_units_Z 128
_cell_length_a 17.983172
_cell_length_b 16.909743
_cell_length_c 23.868898
_cell_angle_alpha 90.000000
_cell_angle_beta 90.000000
_cell_angle_gamma 90.000000
_cell_volume 7258.312690
_symmetry_space_group_name_H-M "C M C A"
_symmetry_group_IT_number 64
_symmetry_cell_setting 'orthorhombic'
loop_
_space_group_symop_operation_xyz
x,y,z
-x,1/2-y,1/2+z
x,-y,-z
-x,1/2+y,1/2-z
-x,-y,-z
x,1/2+y,1/2-z
-x,y,z
x,1/2-y,1/2+z
1/2+x,1/2+y,z
1/2-x,-y,1/2+z
1/2+x,1/2-y,-z
1/2-x,y,1/2-z
1/2-x,1/2-y,-z
1/2+x,y,1/2-z
1/2-x,1/2+y,z
1/2+x,-y,1/2+z
loop_
_atom_site_type_symbol
_atom_site_label
_atom_site_fract_x
_atom_site_fract_y
_atom_site_fract_z
Si Si1 0.283615 0.596218 0.188785
Si Si2 0.914489 0.512014 0.814497
Si Si3 0.681395 0.931399 0.284321
Si Si4 0.912346 0.148264 0.607163
Si Si5 0.585980 0.713105 0.187589
Si Si6 0.587315 0.591470 0.489210
Si Si7 0.358111 0.139848 0.128294
Si Si8 0.414185 0.787856 0.308813
O O1 0.250000 0.612333 0.250000
O O2 0.288301 0.501918 0.175575
O O3 0.364638 0.635066 0.183617
O O4 0.228937 0.634593 0.143043
O O5 0.872929 0.520117 0.756312
O O6 0.879106 0.574111 0.858508
O O7 0.905876 0.423725 0.837149
O O8 0.000000 0.531004 0.802912
O O9 0.750000 0.892227 0.250000
O O10 0.637230 0.864910 0.318564
O O11 0.888710 0.229720 0.636736
O O12 0.886053 0.143114 0.542796
O O13 0.000000 0.138059 0.608466
O O14 0.500000 0.687695 0.182005
O O15 0.599876 0.758032 0.245843
O O16 0.606600 0.500000 0.500000
O O17 0.500000 0.600942 0.476428
O O18 0.633400 0.626131 0.437646
O O19 0.390348 0.225010 0.144670
O O20 0.500000 0.811068 0.317560
#
# Coordination Sequence:
#
# PCOD8262355 Si02
#       8
#    16  16  16  16  16  16  16  16
#     4  11  22  38  52  80 112 152 192 231 291 344
#     4  11  18  31  54  77 109 145 186 230 273 343
#     4  11  22  35  50  76 111 152 190 224 280 340
#     4   9  18  32  54  83 107 140 187 229 282 340
#     4  10  20  36  57  79 108 148 194 238 280 342
#     4  10  19  33  56  83 114 152 189 237 294 341
#     4  12  22  35  53  84 119 147 186 233 293 347
#     4  11  22  33  53  82 113 150 188 233 283 338
#
# _framework density 17.634951999999998
#
# number of rings (size 3 to 8) (size 9 to 14) (size 15 to 20)
#    0.000    1.375    6.250    1.500    1.750    2.000 
#    0.000    0.625    0.000    0.000    0.000    0.000 
#    0.000    4.500    0.000    0.000    0.000    0.000 
#
# Total GULP energy -793630.515440 kJ/mol
# GULP energy per Si atom -12400.476804 kJ/mol
# Density = 1.759481 g / cm^3
# Si number density = 17.634952 Si / 1000 Ang^3
#
#
#
# Elastic Constant Matrix: (Units=GPa)
#
#
# Indices 1 2 3 4 5 6 
#
# 1 82.0255 38.0803 15.8045 0.0000 0.0000 0.0000
# 2 38.0803 98.4784 30.0642 0.0000 0.0000 0.0000
# 3 15.8045 30.0642 80.8392 0.0000 0.0000 0.0000
# 4 0.0000 0.0000 0.0000 28.3408 0.0000 0.0000
# 5 0.0000 0.0000 0.0000 0.0000 17.6871 0.0000
# 6 0.0000 0.0000 0.0000 0.0000 0.0000 34.8046
#
#
#
# Elastic Compliance Matrix: (Units=1/GPa)
#
#
# Indices 1 2 3 4 5 6 
#
# 1 0.014913 -0.005501 -0.000870 0.000000 0.000000 0.000000
# 2 -0.005501 0.013484 -0.003939 0.000000 0.000000 0.000000
# 3 -0.000870 -0.003939 0.014005 0.000000 0.000000 0.000000
# 4 0.000000 0.000000 0.000000 0.035285 0.000000 0.000000
# 5 0.000000 0.000000 0.000000 0.000000 0.056538 0.000000
# 6 0.000000 0.000000 0.000000 0.000000 0.000000 0.028732
#
#
# Mechanical properties :
#
#
# Convention : Reuss Voigt Hill
#
# Bulk Modulus (GPa) = 45.90901 47.69347 46.80124
# Shear Modulus (GPa) = 26.20017 27.99276 27.09646
#
# Velocity S-wave (km/s) = 3.85865 3.98847 3.92410
# Velocity P-wave (km/s) = 6.77803 6.95084 6.86498
#
# Compressibility (1/GPa) = 0.02178222
#
# Stress axis : x y z
#
# Youngs Moduli (GPa) = 67.05665 74.16008 71.40143
#
# Poissons Ratio (x) = 0.40796 0.06210
# Poissons Ratio (y) = 0.36888 0.28128
# Poissons Ratio (z) = 0.05832 0.29214
#
# Static dielectric constant tensor:
#      x y z
#    x 3.330570 0.000000 0.000000 
#    y 0.000000 3.344550 0.000000 
#    z 0.000000 0.000000 3.269160 
# 
# 
# High freq. dielectric constant tensor:
#      x y z
#    x 1.678630 0.000000 0.000000 
#    y 0.000000 1.680180 0.000000 
#    z 0.000000 0.000000 1.649660 
# 
# From -- ./inp_files/46003.got.cif
#   From: 2010.03.12/outbox.cif.g09.slc.cpg/sg64_24_cif.got.tgz:46003.got - 2010.04.10 20:19:32.
