data_PCOD8262471
_publ_section_title
;
Structure prediction by ZEFSAII (Michael W. Deem and Ramdas Pophale) SiO2 
 PCOD8262471
Probable space group: C M C A
;
_chemical_formula_sum "Si O2"
_cell_formula_units_Z 72
_cell_length_a 16.188917
_cell_length_b 19.069123
_cell_length_c 10.562380
_cell_angle_alpha 90.000000
_cell_angle_beta 90.000000
_cell_angle_gamma 90.000000
_cell_volume 3260.695953
_symmetry_space_group_name_H-M "C M C A"
_symmetry_group_IT_number 64
_symmetry_cell_setting 'orthorhombic'
loop_
_space_group_symop_operation_xyz
x,y,z
-x,1/2-y,1/2+z
x,-y,-z
-x,1/2+y,1/2-z
-x,-y,-z
x,1/2+y,1/2-z
-x,y,z
x,1/2-y,1/2+z
1/2+x,1/2+y,z
1/2-x,-y,1/2+z
1/2+x,1/2-y,-z
1/2-x,y,1/2-z
1/2-x,1/2-y,-z
1/2+x,y,1/2-z
1/2-x,1/2+y,z
1/2+x,-y,1/2+z
loop_
_atom_site_type_symbol
_atom_site_label
_atom_site_fract_x
_atom_site_fract_y
_atom_site_fract_z
Si Si1 0.705890 0.586837 0.877774
Si Si2 0.651040 0.312487 0.755022
Si Si3 0.094128 0.969809 0.764042
Si Si4 0.335768 0.000000 0.000000
Si Si5 0.843377 0.771184 0.018801
O O1 0.750000 0.613275 0.750000
O O2 0.651220 0.517511 0.853404
O O3 0.649730 0.649030 0.930822
O O4 0.777128 0.567952 0.979572
O O5 0.750000 0.311242 0.750000
O O6 0.619370 0.389894 0.779591
O O7 0.614248 0.279579 0.624119
O O8 0.617227 0.267800 0.877357
O O9 0.000000 0.981548 0.804852
O O10 0.105129 0.990176 0.618516
O O11 0.750000 0.750000 0.000000
#
# Coordination Sequence:
#
# PCOD8262471 Si02
#       5
#    16  16  16   8  16
#     4  10  19  34  59  87 116 156 207 254 303 368
#     4  10  20  37  60  86 118 159 209 261 314 373
#     4  11  23  38  57  89 128 164 202 256 316 376
#     4  10  19  36  61  86 116 162 212 254 303 372
#     4  10  19  34  60  90 115 151 205 264 308 361
#
# _framework density 22.081175999999999
#
# number of rings (size 3 to 8) (size 9 to 14) (size 15 to 20)
#    0.000    1.778    0.000    8.333    0.000    1.778 
#    0.000    7.222    0.000    0.000    0.000    0.000 
#    0.000    0.000    0.000    0.000    0.000    0.000 
#
# Total GULP energy -446207.688714 kJ/mol
# GULP energy per Si atom -12394.658020 kJ/mol
# Density = 2.203092 g / cm^3
# Si number density = 22.081176 Si / 1000 Ang^3
#
#
#
# Elastic Constant Matrix: (Units=GPa)
#
#
# Indices 1 2 3 4 5 6 
#
# 1 49.7323 14.5479 24.4508 0.0000 0.0000 0.0000
# 2 14.5479 106.0616 37.3438 0.0000 0.0000 0.0000
# 3 24.4508 37.3438 124.0097 0.0000 0.0000 0.0000
# 4 0.0000 0.0000 0.0000 28.2815 0.0000 0.0000
# 5 0.0000 0.0000 0.0000 0.0000 12.7467 0.0000
# 6 0.0000 0.0000 0.0000 0.0000 0.0000 9.2070
#
#
#
# Elastic Compliance Matrix: (Units=1/GPa)
#
#
# Indices 1 2 3 4 5 6 
#
# 1 0.022539 -0.001708 -0.003930 0.000000 0.000000 0.000000
# 2 -0.001708 0.010676 -0.002878 0.000000 0.000000 0.000000
# 3 -0.003930 -0.002878 0.009705 0.000000 0.000000 0.000000
# 4 0.000000 0.000000 0.000000 0.035359 0.000000 0.000000
# 5 0.000000 0.000000 0.000000 0.000000 0.078452 0.000000
# 6 0.000000 0.000000 0.000000 0.000000 0.000000 0.108614
#
#
# Mechanical properties :
#
#
# Convention : Reuss Voigt Hill
#
# Bulk Modulus (GPa) = 38.62626 48.05427 43.34027
# Shear Modulus (GPa) = 17.18175 23.61111 20.39643
#
# Velocity S-wave (km/s) = 2.79250 3.27354 3.04254
# Velocity P-wave (km/s) = 5.28472 6.00815 5.65801
#
# Compressibility (1/GPa) = 0.02588912
#
# Stress axis : x y z
#
# Youngs Moduli (GPa) = 44.36694 93.66662 103.03499
#
# Poissons Ratio (x) = 0.15998 0.40490
# Poissons Ratio (y) = 0.07578 0.29656
# Poissons Ratio (z) = 0.17435 0.26959
#
# Static dielectric constant tensor:
#      x y z
#    x 3.407220 0.000000 0.000000 
#    y 0.000000 4.026950 0.000000 
#    z 0.000000 0.000000 4.190020 
# 
# 
# High freq. dielectric constant tensor:
#      x y z
#    x 1.808620 0.000000 0.000000 
#    y 0.000000 1.871410 0.000000 
#    z 0.000000 0.000000 1.898290 
# 
# From -- ./inp_files/15905.got.cif
#   From: 2010.03.12/outbox.cif.g09.slc.cpg/sg64_8_cif.got.tgz:15905.got - 2010.04.10 20:19:32.
