data_PCOD8262880
_publ_section_title
;
Structure prediction by ZEFSAII (Michael W. Deem and Ramdas Pophale) SiO2 
 PCOD8262880
Probable space group: C M C A
;
_chemical_formula_sum "Si O2"
_cell_formula_units_Z 80
_cell_length_a 8.908030
_cell_length_b 27.301289
_cell_length_c 17.944930
_cell_angle_alpha 90.000000
_cell_angle_beta 90.000000
_cell_angle_gamma 90.000000
_cell_volume 4364.219563
_symmetry_space_group_name_H-M "C M C A"
_symmetry_group_IT_number 64
_symmetry_cell_setting 'orthorhombic'
loop_
_space_group_symop_operation_xyz
x,y,z
-x,1/2-y,1/2+z
x,-y,-z
-x,1/2+y,1/2-z
-x,-y,-z
x,1/2+y,1/2-z
-x,y,z
x,1/2-y,1/2+z
1/2+x,1/2+y,z
1/2-x,-y,1/2+z
1/2+x,1/2-y,-z
1/2-x,y,1/2-z
1/2-x,1/2-y,-z
1/2+x,y,1/2-z
1/2-x,1/2+y,z
1/2+x,-y,1/2+z
loop_
_atom_site_type_symbol
_atom_site_label
_atom_site_fract_x
_atom_site_fract_y
_atom_site_fract_z
Si Si1 0.823455 0.699284 0.978790
Si Si2 0.178254 0.554311 0.898440
Si Si3 0.326861 0.539878 0.173014
Si Si4 0.673121 0.345891 0.324588
Si Si5 0.672959 0.103480 0.467398
O O1 0.787733 0.690627 0.891890
O O2 0.000000 0.700238 0.994488
O O3 0.750000 0.750000 0.000000
O O4 0.753421 0.655878 0.027943
O O5 0.242276 0.506161 0.861423
O O6 0.226443 0.599553 0.845988
O O7 0.000000 0.550677 0.907949
O O8 0.248786 0.562989 0.979952
O O9 0.500000 0.525752 0.186749
O O10 0.250000 0.555606 0.250000
O O11 0.312374 0.585673 0.117498
O O12 0.500000 0.346275 0.307021
O O13 0.750000 0.326568 0.250000
O O14 0.500000 0.108762 0.491530
#
# Coordination Sequence:
#
# PCOD8262880 Si02
#       5
#    16  16  16  16  16
#     4  10  21  38  59  82 106 136 177 222 270 324
#     4  10  20  34  54  80 110 144 181 221 265 318
#     4  11  23  36  52  77 110 147 185 224 266 315
#     4   9  19  33  51  79 109 135 169 213 261 313
#     4  10  21  37  56  79 107 140 180 224 269 320
#
# _framework density 18.330883
#
# number of rings (size 3 to 8) (size 9 to 14) (size 15 to 20)
#    0.000    2.000    0.000    4.800    0.000   12.000 
#    0.000    1.000    0.000    0.000    0.000    0.000 
#    0.000    0.000    0.000    0.000    0.000    0.000 
#
# Total GULP energy -496107.326588 kJ/mol
# GULP energy per Si atom -12402.683165 kJ/mol
# Density = 1.828916 g / cm^3
# Si number density = 18.330883 Si / 1000 Ang^3
#
#
#
# Elastic Constant Matrix: (Units=GPa)
#
#
# Indices 1 2 3 4 5 6 
#
# 1 123.5303 53.8182 64.3965 0.0000 0.0000 0.0000
# 2 53.8182 76.6268 49.4957 0.0000 0.0000 0.0000
# 3 64.3965 49.4957 117.2373 0.0000 0.0000 0.0000
# 4 0.0000 0.0000 0.0000 6.9764 0.0000 0.0000
# 5 0.0000 0.0000 0.0000 0.0000 36.4194 0.0000
# 6 0.0000 0.0000 0.0000 0.0000 0.0000 28.9398
#
#
#
# Elastic Compliance Matrix: (Units=1/GPa)
#
#
# Indices 1 2 3 4 5 6 
#
# 1 0.013257 -0.006335 -0.004607 0.000000 0.000000 0.000000
# 2 -0.006335 0.020971 -0.005374 0.000000 0.000000 0.000000
# 3 -0.004607 -0.005374 0.013329 0.000000 0.000000 0.000000
# 4 0.000000 0.000000 0.000000 0.143341 0.000000 0.000000
# 5 0.000000 0.000000 0.000000 0.000000 0.027458 0.000000
# 6 0.000000 0.000000 0.000000 0.000000 0.000000 0.034554
#
#
# Mechanical properties :
#
#
# Convention : Reuss Voigt Hill
#
# Bulk Modulus (GPa) = 67.00310 72.53504 69.76907
# Shear Modulus (GPa) = 17.21070 24.44604 20.82837
#
# Velocity S-wave (km/s) = 3.06746 3.65581 3.37448
# Velocity P-wave (km/s) = 7.01264 7.58127 7.30249
#
# Compressibility (1/GPa) = 0.01492468
#
# Stress axis : x y z
#
# Youngs Moduli (GPa) = 75.43267 47.68579 75.02341
#
# Poissons Ratio (x) = 0.30208 0.34566
# Poissons Ratio (y) = 0.47785 0.40316
# Poissons Ratio (z) = 0.34754 0.25626
#
# Static dielectric constant tensor:
#      x y z
#    x 3.544600 0.000000 0.000000 
#    y 0.000000 3.216410 0.000000 
#    z 0.000000 0.000000 3.538860 
# 
# 
# High freq. dielectric constant tensor:
#      x y z
#    x 1.728210 0.000000 0.000000 
#    y 0.000000 1.696860 0.000000 
#    z 0.000000 0.000000 1.712750 
# 
# From -- ./inp_files/29695.got.cif
#   From: 2010.03.12/outbox.cif.g09.slc.cpg/sg64_15_cif.got.tgz:29695.got - 2010.04.10 20:19:32.
