data_PCOD8262007
_publ_section_title
;
Structure prediction by ZEFSAII (Michael W. Deem and Ramdas Pophale) SiO2 
 PCOD8262007
Probable space group: C M C A
;
_chemical_formula_sum "Si O2"
_cell_formula_units_Z 96
_cell_length_a 8.656310
_cell_length_b 27.650496
_cell_length_c 23.635631
_cell_angle_alpha 90.000000
_cell_angle_beta 90.000000
_cell_angle_gamma 90.000000
_cell_volume 5657.218180
_symmetry_space_group_name_H-M "C M C A"
_symmetry_group_IT_number 64
_symmetry_cell_setting 'orthorhombic'
loop_
_space_group_symop_operation_xyz
x,y,z
-x,1/2-y,1/2+z
x,-y,-z
-x,1/2+y,1/2-z
-x,-y,-z
x,1/2+y,1/2-z
-x,y,z
x,1/2-y,1/2+z
1/2+x,1/2+y,z
1/2-x,-y,1/2+z
1/2+x,1/2-y,-z
1/2-x,y,1/2-z
1/2-x,1/2-y,-z
1/2+x,y,1/2-z
1/2-x,1/2+y,z
1/2+x,-y,1/2+z
loop_
_atom_site_type_symbol
_atom_site_label
_atom_site_fract_x
_atom_site_fract_y
_atom_site_fract_z
Si Si1 0.316797 0.479771 0.588775
Si Si2 0.317969 0.075588 0.310229
Si Si3 0.819218 0.179043 0.517714
Si Si4 0.682047 0.571408 0.523687
Si Si5 0.820972 0.270911 0.587614
Si Si6 0.818365 0.678427 0.189950
O O1 0.500000 0.476059 0.599006
O O2 0.227737 0.465526 0.645364
O O3 0.259391 0.444523 0.538332
O O4 0.262626 0.534332 0.572434
O O5 0.500000 0.080410 0.305163
O O6 0.250000 0.059953 0.250000
O O7 0.250009 0.127092 0.329869
O O8 0.764065 0.125905 0.537750
O O9 0.782793 0.216149 0.568379
O O10 0.724180 0.192344 0.462019
O O11 0.000000 0.180117 0.501776
O O12 0.500000 0.567448 0.521476
O O13 0.723128 0.281161 0.643750
O O14 0.000000 0.277775 0.601770
O O15 0.750000 0.694860 0.250000
O O16 0.000000 0.673180 0.195903
#
# Coordination Sequence:
#
# PCOD8262007 Si02
#       6
#    16  16  16  16  16  16
#     4   9  16  29  49  72  97 125 158 193 231 276
#     4  11  21  33  49  71  97 124 155 191 234 281
#     4   9  17  30  48  70  98 132 165 194 230 278
#     4   8  15  28  48  71  95 127 161 191 228 276
#     4  10  19  30  46  71 100 128 160 197 236 279
#     4  11  21  34  51  70  94 123 156 194 238 286
#
# _framework density 16.969470999999999
#
# number of rings (size 3 to 8) (size 9 to 14) (size 15 to 20)
#    0.000    2.333    0.000    6.500    0.000    2.000 
#    0.000    2.500    0.000    1.000    0.000    0.000 
#    0.000    0.000    0.000    0.000    0.000    0.000 
#
# Total GULP energy -595169.222552 kJ/mol
# GULP energy per Si atom -12399.358803 kJ/mol
# Density = 1.693085 g / cm^3
# Si number density = 16.969471 Si / 1000 Ang^3
#
#
#
# Elastic Constant Matrix: (Units=GPa)
#
#
# Indices 1 2 3 4 5 6 
#
# 1 93.6182 36.1803 44.0988 0.0000 0.0000 0.0000
# 2 36.1803 131.5474 66.9582 0.0000 0.0000 0.0000
# 3 44.0988 66.9582 111.1375 0.0000 0.0000 0.0000
# 4 0.0000 0.0000 0.0000 27.8446 0.0000 0.0000
# 5 0.0000 0.0000 0.0000 0.0000 26.7549 0.0000
# 6 0.0000 0.0000 0.0000 0.0000 0.0000 18.5199
#
#
#
# Elastic Compliance Matrix: (Units=1/GPa)
#
#
# Indices 1 2 3 4 5 6 
#
# 1 0.013314 -0.001403 -0.004438 0.000000 0.000000 0.000000
# 2 -0.001403 0.011112 -0.006138 0.000000 0.000000 0.000000
# 3 -0.004438 -0.006138 0.014457 0.000000 0.000000 0.000000
# 4 0.000000 0.000000 0.000000 0.035914 0.000000 0.000000
# 5 0.000000 0.000000 0.000000 0.000000 0.037376 0.000000
# 6 0.000000 0.000000 0.000000 0.000000 0.000000 0.053996
#
#
# Mechanical properties :
#
#
# Convention : Reuss Voigt Hill
#
# Bulk Modulus (GPa) = 66.99984 70.08642 68.54313
# Shear Modulus (GPa) = 25.62761 27.22824 26.42793
#
# Velocity S-wave (km/s) = 3.89037 4.01002 3.95065
# Velocity P-wave (km/s) = 7.72970 7.92663 7.82878
#
# Compressibility (1/GPa) = 0.01492541
#
# Stress axis : x y z
#
# Youngs Moduli (GPa) = 75.10709 89.99266 69.17170
#
# Poissons Ratio (x) = 0.12627 0.30696
# Poissons Ratio (y) = 0.10538 0.42458
# Poissons Ratio (z) = 0.33330 0.55238
#
# Static dielectric constant tensor:
#      x y z
#    x 3.075790 0.000000 0.000000 
#    y 0.000000 3.388370 0.000000 
#    z 0.000000 0.000000 3.105630 
# 
# 
# High freq. dielectric constant tensor:
#      x y z
#    x 1.649400 0.000000 0.000000 
#    y 0.000000 1.646740 0.000000 
#    z 0.000000 0.000000 1.644580 
# 
# From -- ./inp_files/43178.got.cif
#   From: 2010.03.12/outbox.cif.g09.slc.cpg/sg64_22_cif.got.tgz:43178.got - 2010.04.10 20:19:32.
