data_PCOD8262583
_publ_section_title
;
Structure prediction by ZEFSAII (Michael W. Deem and Ramdas Pophale) SiO2 
 PCOD8262583
Probable space group: C M C A
;
_chemical_formula_sum "Si O2"
_cell_formula_units_Z 96
_cell_length_a 8.672646
_cell_length_b 25.240391
_cell_length_c 23.546646
_cell_angle_alpha 90.000000
_cell_angle_beta 90.000000
_cell_angle_gamma 90.000000
_cell_volume 5154.383792
_symmetry_space_group_name_H-M "C M C A"
_symmetry_group_IT_number 64
_symmetry_cell_setting 'orthorhombic'
loop_
_space_group_symop_operation_xyz
x,y,z
-x,1/2-y,1/2+z
x,-y,-z
-x,1/2+y,1/2-z
-x,-y,-z
x,1/2+y,1/2-z
-x,y,z
x,1/2-y,1/2+z
1/2+x,1/2+y,z
1/2-x,-y,1/2+z
1/2+x,1/2-y,-z
1/2-x,y,1/2-z
1/2-x,1/2-y,-z
1/2+x,y,1/2-z
1/2-x,1/2+y,z
1/2+x,-y,1/2+z
loop_
_atom_site_type_symbol
_atom_site_label
_atom_site_fract_x
_atom_site_fract_y
_atom_site_fract_z
Si Si1 0.680989 0.409459 0.615546
Si Si2 0.682766 0.693816 0.810324
Si Si3 0.683310 0.099315 0.873614
Si Si4 0.819156 0.313238 0.809071
Si Si5 0.681292 0.441435 0.493108
Si Si6 0.817936 0.998745 0.189422
O O1 0.500000 0.420581 0.625220
O O2 0.733543 0.353259 0.641481
O O3 0.721592 0.406894 0.548727
O O4 0.774378 0.457012 0.643644
O O5 0.500000 0.688067 0.809180
O O6 0.750000 0.675463 0.750000
O O7 0.753929 0.657411 0.859160
O O8 0.737004 0.753929 0.823934
O O9 0.500000 0.098789 0.870650
O O10 0.747763 0.086228 0.936654
O O11 0.748067 0.057464 0.828579
O O12 0.750000 0.333634 0.750000
O O13 0.000000 0.313812 0.801407
O O14 0.754167 0.500000 0.500000
O O15 0.500000 0.447284 0.484893
O O16 0.750000 0.015847 0.250000
O O17 0.000000 0.993538 0.194020
#
# Coordination Sequence:
#
# PCOD8262583 Si02
#       6
#    16  16  16  16  16  16
#     4  10  19  36  58  81 108 142 184 223 264 320
#     4  10  20  36  55  80 110 142 179 222 274 323
#     4  11  21  36  57  80 106 142 184 223 265 319
#     4   9  19  34  56  80 108 143 178 221 270 322
#     4   9  17  33  57  80 105 143 184 220 262 320
#     4  12  24  36  52  79 111 142 174 221 276 326
#
# _framework density 18.624922000000002
#
# number of rings (size 3 to 8) (size 9 to 14) (size 15 to 20)
#    0.000    1.833    1.667    3.500    0.000    2.667 
#    0.000    3.333    0.000    0.000    0.000    0.000 
#    0.000    0.000    0.000    0.000    0.000    0.000 
#
# Total GULP energy -595300.197858 kJ/mol
# GULP energy per Si atom -12402.087455 kJ/mol
# Density = 1.858253 g / cm^3
# Si number density = 18.624922 Si / 1000 Ang^3
#
#
#
# Elastic Constant Matrix: (Units=GPa)
#
#
# Indices 1 2 3 4 5 6 
#
# 1 65.0324 27.8848 27.0855 0.0000 0.0000 0.0000
# 2 27.8848 114.3046 60.4970 0.0000 0.0000 0.0000
# 3 27.0855 60.4970 121.6194 0.0000 0.0000 0.0000
# 4 0.0000 0.0000 0.0000 36.3498 0.0000 0.0000
# 5 0.0000 0.0000 0.0000 0.0000 22.0219 0.0000
# 6 0.0000 0.0000 0.0000 0.0000 0.0000 20.6413
#
#
#
# Elastic Compliance Matrix: (Units=1/GPa)
#
#
# Indices 1 2 3 4 5 6 
#
# 1 0.017689 -0.003027 -0.002434 0.000000 0.000000 0.000000
# 2 -0.003027 0.012393 -0.005490 0.000000 0.000000 0.000000
# 3 -0.002434 -0.005490 0.011495 0.000000 0.000000 0.000000
# 4 0.000000 0.000000 0.000000 0.027510 0.000000 0.000000
# 5 0.000000 0.000000 0.000000 0.000000 0.045409 0.000000
# 6 0.000000 0.000000 0.000000 0.000000 0.000000 0.048447
#
#
# Mechanical properties :
#
#
# Convention : Reuss Voigt Hill
#
# Bulk Modulus (GPa) = 50.82700 59.09899 54.96300
# Shear Modulus (GPa) = 26.12279 28.16853 27.14566
#
# Velocity S-wave (km/s) = 3.74916 3.89319 3.82185
# Velocity P-wave (km/s) = 6.78900 7.21175 7.00357
#
# Compressibility (1/GPa) = 0.01967458
#
# Stress axis : x y z
#
# Youngs Moduli (GPa) = 56.53388 80.69137 86.99104
#
# Poissons Ratio (x) = 0.24426 0.21170
# Poissons Ratio (y) = 0.17114 0.47762
# Poissons Ratio (z) = 0.13758 0.44303
#
# Static dielectric constant tensor:
#      x y z
#    x 3.273580 0.000000 0.000000 
#    y 0.000000 3.636340 0.000000 
#    z 0.000000 0.000000 3.579200 
# 
# 
# High freq. dielectric constant tensor:
#      x y z
#    x 1.710310 0.000000 0.000000 
#    y 0.000000 1.724360 0.000000 
#    z 0.000000 0.000000 1.724390 
# 
# From -- ./inp_files/43042.got.cif
#   From: 2010.03.12/outbox.cif.g09.slc.cpg/sg64_22_cif.got.tgz:43042.got - 2010.04.10 20:19:32.
