data_PCOD8262805
_publ_section_title
;
Structure prediction by ZEFSAII (Michael W. Deem and Ramdas Pophale) SiO2 
 PCOD8262805
Probable space group: C M C A
;
_chemical_formula_sum "Si O2"
_cell_formula_units_Z 96
_cell_length_a 8.813282
_cell_length_b 22.375886
_cell_length_c 23.085200
_cell_angle_alpha 90.000000
_cell_angle_beta 90.000000
_cell_angle_gamma 90.000000
_cell_volume 4552.516712
_symmetry_space_group_name_H-M "C M C A"
_symmetry_group_IT_number 64
_symmetry_cell_setting 'orthorhombic'
loop_
_space_group_symop_operation_xyz
x,y,z
-x,1/2-y,1/2+z
x,-y,-z
-x,1/2+y,1/2-z
-x,-y,-z
x,1/2+y,1/2-z
-x,y,z
x,1/2-y,1/2+z
1/2+x,1/2+y,z
1/2-x,-y,1/2+z
1/2+x,1/2-y,-z
1/2-x,y,1/2-z
1/2-x,1/2-y,-z
1/2+x,y,1/2-z
1/2-x,1/2+y,z
1/2+x,-y,1/2+z
loop_
_atom_site_type_symbol
_atom_site_label
_atom_site_fract_x
_atom_site_fract_y
_atom_site_fract_z
Si Si1 0.320980 0.648611 0.905214
Si Si2 0.680437 0.071822 0.813599
Si Si3 0.668470 0.851133 0.691226
Si Si4 0.176652 0.216299 0.403678
Si Si5 0.680214 0.606442 0.481817
Si Si6 0.172460 0.032494 0.113441
O O1 0.500000 0.639119 0.899821
O O2 0.242715 0.632101 0.844002
O O3 0.278985 0.716674 0.922082
O O4 0.254171 0.605220 0.954652
O O5 0.500000 0.073230 0.808398
O O6 0.750000 0.065033 0.750000
O O7 0.731549 0.017575 0.854263
O O8 0.500000 0.830288 0.705894
O O9 0.750000 0.867236 0.750000
O O10 0.746644 0.796633 0.657877
O O11 0.672292 0.909785 0.653035
O O12 0.231145 0.169089 0.452096
O O13 0.000000 0.209128 0.393414
O O14 0.500000 0.600521 0.486604
O O15 0.745882 0.549796 0.446854
O O16 0.000000 0.010381 0.101968
#
# Coordination Sequence:
#
# PCOD8262805 Si02
#       6
#    16  16  16  16  16  16
#     4  11  23  40  61  87 119 158 198 239 287 345
#     4  12  26  44  64  87 116 155 198 242 291 347
#     4  10  20  33  55  84 115 150 192 241 294 347
#     4   9  20  37  58  84 118 156 195 239 291 346
#     4  10  20  37  62  93 123 153 191 240 293 347
#     4  10  21  39  62  89 118 152 193 242 295 349
#
# _framework density 21.087236999999998
#
# number of rings (size 3 to 8) (size 9 to 14) (size 15 to 20)
#    0.000    1.667    0.000    4.500    0.000    6.667 
#    0.000    3.333    0.000    0.000    0.000    0.000 
#    0.000    0.000    0.000    0.000    0.000    0.000 
#
# Total GULP energy -595334.602880 kJ/mol
# GULP energy per Si atom -12402.804227 kJ/mol
# Density = 2.103924 g / cm^3
# Si number density = 21.087237 Si / 1000 Ang^3
#
#
#
# Elastic Constant Matrix: (Units=GPa)
#
#
# Indices 1 2 3 4 5 6 
#
# 1 110.6486 32.4703 35.8154 0.0000 0.0000 0.0000
# 2 32.4703 60.1056 22.5046 0.0000 0.0000 0.0000
# 3 35.8154 22.5046 80.0049 0.0000 0.0000 0.0000
# 4 0.0000 0.0000 0.0000 20.4495 0.0000 0.0000
# 5 0.0000 0.0000 0.0000 0.0000 42.3723 0.0000
# 6 0.0000 0.0000 0.0000 0.0000 0.0000 29.3680
#
#
#
# Elastic Compliance Matrix: (Units=1/GPa)
#
#
# Indices 1 2 3 4 5 6 
#
# 1 0.011725 -0.004883 -0.003875 0.000000 0.000000 0.000000
# 2 -0.004883 0.020630 -0.003617 0.000000 0.000000 0.000000
# 3 -0.003875 -0.003617 0.015251 0.000000 0.000000 0.000000
# 4 0.000000 0.000000 0.000000 0.048901 0.000000 0.000000
# 5 0.000000 0.000000 0.000000 0.000000 0.023600 0.000000
# 6 0.000000 0.000000 0.000000 0.000000 0.000000 0.034051
#
#
# Mechanical properties :
#
#
# Convention : Reuss Voigt Hill
#
# Bulk Modulus (GPa) = 43.75330 48.03775 45.89552
# Shear Modulus (GPa) = 26.80578 29.10255 27.95416
#
# Velocity S-wave (km/s) = 3.56924 3.71900 3.64489
# Velocity P-wave (km/s) = 6.14652 6.42427 6.28693
#
# Compressibility (1/GPa) = 0.02285542
#
# Stress axis : x y z
#
# Youngs Moduli (GPa) = 85.28805 48.47405 65.56741
#
# Poissons Ratio (x) = 0.23670 0.25409
# Poissons Ratio (y) = 0.41647 0.23715
# Poissons Ratio (z) = 0.33052 0.17533
#
# Static dielectric constant tensor:
#      x y z
#    x 3.965170 0.000000 0.000000 
#    y 0.000000 3.915200 0.000000 
#    z 0.000000 0.000000 3.772810 
# 
# 
# High freq. dielectric constant tensor:
#      x y z
#    x 1.836180 0.000000 0.000000 
#    y 0.000000 1.826160 0.000000 
#    z 0.000000 0.000000 1.832160 
# 
# From -- ./inp_files/42964.got.cif
#   From: 2010.03.12/outbox.cif.g09.slc.cpg/sg64_22_cif.got.tgz:42964.got - 2010.04.10 20:19:32.
