data_PCOD8262856
_publ_section_title
;
Structure prediction by ZEFSAII (Michael W. Deem and Ramdas Pophale) SiO2 
 PCOD8262856
Probable space group: C M C A
;
_chemical_formula_sum "Si O2"
_cell_formula_units_Z 80
_cell_length_a 9.041453
_cell_length_b 25.432839
_cell_length_c 18.035504
_cell_angle_alpha 90.000000
_cell_angle_beta 90.000000
_cell_angle_gamma 90.000000
_cell_volume 4147.260871
_symmetry_space_group_name_H-M "C M C A"
_symmetry_group_IT_number 64
_symmetry_cell_setting 'orthorhombic'
loop_
_space_group_symop_operation_xyz
x,y,z
-x,1/2-y,1/2+z
x,-y,-z
-x,1/2+y,1/2-z
-x,-y,-z
x,1/2+y,1/2-z
-x,y,z
x,1/2-y,1/2+z
1/2+x,1/2+y,z
1/2-x,-y,1/2+z
1/2+x,1/2-y,-z
1/2-x,y,1/2-z
1/2-x,1/2-y,-z
1/2+x,y,1/2-z
1/2-x,1/2+y,z
1/2+x,-y,1/2+z
loop_
_atom_site_type_symbol
_atom_site_label
_atom_site_fract_x
_atom_site_fract_y
_atom_site_fract_z
Si Si1 0.664750 0.202902 0.092636
Si Si2 0.163855 0.197805 0.583880
Si Si3 0.830266 0.399623 0.588857
Si Si4 0.670009 0.496224 0.173345
Si Si5 0.175676 0.082405 0.564008
O O1 0.500000 0.196546 0.125077
O O2 0.729050 0.258897 0.120664
O O3 0.765038 0.154782 0.121389
O O4 0.662996 0.202692 0.004387
O O5 0.215159 0.138420 0.602878
O O6 0.000000 0.208334 0.615145
O O7 0.817661 0.442336 0.653866
O O8 0.737649 0.419952 0.518977
O O9 0.000000 0.390733 0.564530
O O10 0.500000 0.478433 0.179472
O O11 0.750000 0.484539 0.250000
O O12 0.748943 0.463537 0.109435
O O13 0.000000 0.074223 0.559994
#
# Coordination Sequence:
#
# PCOD8262856 Si02
#       5
#    16  16  16  16  16
#     4   9  16  26  45  74 104 135 169 207 253 302
#     4   8  15  27  44  71 105 136 165 202 251 303
#     4  10  20  34  53  78 107 138 173 214 259 308
#     4  11  24  39  55  75 102 138 176 216 263 311
#     4  10  20  34  55  81 107 137 173 214 258 306
#
# _framework density 19.289840999999999
#
# number of rings (size 3 to 8) (size 9 to 14) (size 15 to 20)
#    0.000    2.400    0.000    4.200    0.000   11.200 
#    0.000    0.000    0.000    1.200    0.000    5.600 
#    0.000    0.000    0.000    0.000    0.000    0.000 
#
# Total GULP energy -495948.265100 kJ/mol
# GULP energy per Si atom -12398.706628 kJ/mol
# Density = 1.924594 g / cm^3
# Si number density = 19.289841 Si / 1000 Ang^3
#
#
#
# Elastic Constant Matrix: (Units=GPa)
#
#
# Indices 1 2 3 4 5 6 
#
# 1 134.0167 48.1615 14.9801 0.0000 0.0000 0.0000
# 2 48.1615 94.6805 0.1282 0.0000 0.0000 0.0000
# 3 14.9801 0.1282 22.2282 0.0000 0.0000 0.0000
# 4 0.0000 0.0000 0.0000 4.3125 0.0000 0.0000
# 5 0.0000 0.0000 0.0000 0.0000 20.4821 0.0000
# 6 0.0000 0.0000 0.0000 0.0000 0.0000 39.0175
#
#
#
# Elastic Compliance Matrix: (Units=1/GPa)
#
#
# Indices 1 2 3 4 5 6 
#
# 1 0.010049 -0.005103 -0.006743 0.000000 0.000000 0.000000
# 2 -0.005103 0.013153 0.003363 0.000000 0.000000 0.000000
# 3 -0.006743 0.003363 0.049513 0.000000 0.000000 0.000000
# 4 0.000000 0.000000 0.000000 0.231884 0.000000 0.000000
# 5 0.000000 0.000000 0.000000 0.000000 0.048823 0.000000
# 6 0.000000 0.000000 0.000000 0.000000 0.000000 0.025629
#
#
# Mechanical properties :
#
#
# Convention : Reuss Voigt Hill
#
# Bulk Modulus (GPa) = 17.93737 41.94055 29.93896
# Shear Modulus (GPa) = 12.05982 25.27280 18.66631
#
# Velocity S-wave (km/s) = 2.50309 3.62354 3.11412
# Velocity P-wave (km/s) = 4.20393 6.26867 5.33710
#
# Compressibility (1/GPa) = 0.05574952
#
# Stress axis : x y z
#
# Youngs Moduli (GPa) = 99.51043 76.02911 20.19679
#
# Poissons Ratio (x) = 0.38795 0.13619
# Poissons Ratio (y) = 0.50776 -0.06792
# Poissons Ratio (z) = 0.67100 -0.25568
#
# Static dielectric constant tensor:
#      x y z
#    x 3.780230 0.000000 0.000000 
#    y 0.000000 3.880040 0.000000 
#    z 0.000000 0.000000 2.955850 
# 
# 
# High freq. dielectric constant tensor:
#      x y z
#    x 1.767030 0.000000 0.000000 
#    y 0.000000 1.768720 0.000000 
#    z 0.000000 0.000000 1.686840 
# 
# From -- ./inp_files/29716.got.cif
#   From: 2010.03.12/outbox.cif.g09.slc.cpg/sg64_15_cif.got.tgz:29716.got - 2010.04.10 20:19:32.
