data_PCOD8262232
_publ_section_title
;
Structure prediction by ZEFSAII (Michael W. Deem and Ramdas Pophale) SiO2 
 PCOD8262232
Probable space group: C M C A
;
_chemical_formula_sum "Si O2"
_cell_formula_units_Z 112
_cell_length_a 13.837864
_cell_length_b 14.724289
_cell_length_c 26.940165
_cell_angle_alpha 90.000000
_cell_angle_beta 90.000000
_cell_angle_gamma 90.000000
_cell_volume 5489.131591
_symmetry_space_group_name_H-M "C M C A"
_symmetry_group_IT_number 64
_symmetry_cell_setting 'orthorhombic'
loop_
_space_group_symop_operation_xyz
x,y,z
-x,1/2-y,1/2+z
x,-y,-z
-x,1/2+y,1/2-z
-x,-y,-z
x,1/2+y,1/2-z
-x,y,z
x,1/2-y,1/2+z
1/2+x,1/2+y,z
1/2-x,-y,1/2+z
1/2+x,1/2-y,-z
1/2-x,y,1/2-z
1/2-x,1/2-y,-z
1/2+x,y,1/2-z
1/2-x,1/2+y,z
1/2+x,-y,1/2+z
loop_
_atom_site_type_symbol
_atom_site_label
_atom_site_fract_x
_atom_site_fract_y
_atom_site_fract_z
Si Si1 0.388311 0.797283 0.673292
Si Si2 0.887707 0.608668 0.780227
Si Si3 0.293451 0.226669 0.921386
Si Si4 0.289015 0.459889 0.374126
Si Si5 0.893667 0.244427 0.977611
Si Si6 0.394142 0.050114 0.046262
Si Si7 0.611239 0.996482 0.317076
O O1 0.500000 0.786267 0.655869
O O2 0.363176 0.716370 0.712672
O O3 0.316630 0.789904 0.626050
O O4 0.372429 0.896933 0.697668
O O5 0.836917 0.544614 0.820301
O O6 0.853955 0.571703 0.726629
O O7 0.000000 0.590311 0.786116
O O8 0.325485 0.125346 0.906819
O O9 0.179932 0.213606 0.934471
O O10 0.349801 0.271626 0.967541
O O11 0.327345 0.546474 0.404784
O O12 0.173980 0.470230 0.365621
O O13 0.908877 0.349161 0.970563
O O14 0.000000 0.196465 0.973154
O O15 0.500000 0.006469 0.057237
O O16 0.342526 0.000000 0.000000
O O17 0.500000 0.979039 0.330959
#
# Coordination Sequence:
#
# PCOD8262232 Si02
#       7
#    16  16  16  16  16  16  16
#     4   9  18  35  59  81 106 143 185 225 273 330
#     4   9  19  36  58  83 107 139 185 232 276 328
#     4  10  20  33  53  78 105 144 185 225 271 331
#     4  11  20  34  55  79 110 144 181 225 279 334
#     4  10  20  34  51  75 109 142 182 230 276 320
#     4  10  19  32  53  80 106 137 177 230 281 319
#     4  10  21  37  56  81 114 147 184 229 277 333
#
# _framework density 20.403956999999998
#
# number of rings (size 3 to 8) (size 9 to 14) (size 15 to 20)
#    0.000    2.143    1.429    2.143    0.000    1.714 
#    0.000    7.143    0.000    3.857    0.000    0.000 
#    0.000    0.000    0.000    0.000    0.000    0.000 
#
# Total GULP energy -693970.359049 kJ/mol
# GULP energy per Si atom -12392.327840 kJ/mol
# Density = 2.035752 g / cm^3
# Si number density = 20.403957 Si / 1000 Ang^3
#
#
#
# Elastic Constant Matrix: (Units=GPa)
#
#
# Indices 1 2 3 4 5 6 
#
# 1 86.1490 5.9332 52.7868 0.0000 0.0000 0.0000
# 2 5.9332 58.9791 29.2687 0.0000 0.0000 0.0000
# 3 52.7868 29.2687 89.2702 0.0000 0.0000 0.0000
# 4 0.0000 0.0000 0.0000 24.9466 0.0000 0.0000
# 5 0.0000 0.0000 0.0000 0.0000 35.7176 0.0000
# 6 0.0000 0.0000 0.0000 0.0000 0.0000 22.0741
#
#
#
# Elastic Compliance Matrix: (Units=1/GPa)
#
#
# Indices 1 2 3 4 5 6 
#
# 1 0.019115 0.004402 -0.012746 0.000000 0.000000 0.000000
# 2 0.004402 0.021264 -0.009575 0.000000 0.000000 0.000000
# 3 -0.012746 -0.009575 0.021878 0.000000 0.000000 0.000000
# 4 0.000000 0.000000 0.000000 0.040086 0.000000 0.000000
# 5 0.000000 0.000000 0.000000 0.000000 0.027997 0.000000
# 6 0.000000 0.000000 0.000000 0.000000 0.000000 0.045302
#
#
# Mechanical properties :
#
#
# Convention : Reuss Voigt Hill
#
# Bulk Modulus (GPa) = 37.85091 45.59730 41.72410
# Shear Modulus (GPa) = 22.69780 26.30830 24.50305
#
# Velocity S-wave (km/s) = 3.33892 3.59468 3.46916
# Velocity P-wave (km/s) = 5.78408 6.29482 6.04484
#
# Compressibility (1/GPa) = 0.02641944
#
# Stress axis : x y z
#
# Youngs Moduli (GPa) = 52.31582 47.02807 45.70747
#
# Poissons Ratio (x) = -0.20704 0.58260
# Poissons Ratio (y) = -0.23032 0.43765
# Poissons Ratio (z) = 0.66683 0.45029
#
# Static dielectric constant tensor:
#      x y z
#    x 4.151580 0.000000 0.000000 
#    y 0.000000 3.602530 0.000000 
#    z 0.000000 0.000000 3.794700 
# 
# 
# High freq. dielectric constant tensor:
#      x y z
#    x 1.804290 0.000000 0.000000 
#    y 0.000000 1.781400 0.000000 
#    z 0.000000 0.000000 1.783540 
# 
# From -- ./inp_files/45240.got.cif
#   From: 2010.03.12/outbox.cif.g09.slc.cpg/sg64_23_cif.got.tgz:45240.got - 2010.04.10 20:19:32.
