data_PCOD8262140
_publ_section_title
;
Structure prediction by ZEFSAII (Michael W. Deem and Ramdas Pophale) SiO2 
 PCOD8262140
Probable space group: C M C A
;
_chemical_formula_sum "Si O2"
_cell_formula_units_Z 96
_cell_length_a 8.759358
_cell_length_b 29.943778
_cell_length_c 20.543433
_cell_angle_alpha 90.000000
_cell_angle_beta 90.000000
_cell_angle_gamma 90.000000
_cell_volume 5388.301530
_symmetry_space_group_name_H-M "C M C A"
_symmetry_group_IT_number 64
_symmetry_cell_setting 'orthorhombic'
loop_
_space_group_symop_operation_xyz
x,y,z
-x,1/2-y,1/2+z
x,-y,-z
-x,1/2+y,1/2-z
-x,-y,-z
x,1/2+y,1/2-z
-x,y,z
x,1/2-y,1/2+z
1/2+x,1/2+y,z
1/2-x,-y,1/2+z
1/2+x,1/2-y,-z
1/2-x,y,1/2-z
1/2-x,1/2-y,-z
1/2+x,y,1/2-z
1/2-x,1/2+y,z
1/2+x,-y,1/2+z
loop_
_atom_site_type_symbol
_atom_site_label
_atom_site_fract_x
_atom_site_fract_y
_atom_site_fract_z
Si Si1 0.682616 0.554633 0.683411
Si Si2 0.818836 0.752866 0.314530
Si Si3 0.828683 0.848335 0.343796
Si Si4 0.172968 0.368827 0.009743
Si Si5 0.179000 0.039906 0.951363
Si Si6 0.819461 0.214276 0.049257
O O1 0.500000 0.552320 0.683054
O O2 0.750000 0.532993 0.750000
O O3 0.749290 0.605549 0.679658
O O4 0.742519 0.529678 0.618668
O O5 0.750000 0.729592 0.250000
O O6 0.748669 0.803460 0.317387
O O7 0.766109 0.725900 0.377739
O O8 0.000000 0.754262 0.311095
O O9 0.826761 0.844246 0.421305
O O10 0.000000 0.849947 0.317339
O O11 0.260034 0.335946 0.960926
O O12 0.000000 0.377026 0.985655
O O13 0.258039 0.415884 0.014124
O O14 0.000000 0.045031 0.939513
O O15 0.219013 0.000000 0.000000
O O16 0.000000 0.215801 0.040920
O O17 0.750000 0.250000 0.000000
#
# Coordination Sequence:
#
# PCOD8262140 Si02
#       6
#    16  16  16  16  16  16
#     4  10  19  31  51  77 110 145 178 217 265 325
#     4  10  20  33  47  69 103 140 180 221 263 310
#     4   8  15  29  46  70 103 136 169 209 254 308
#     4  10  19  34  55  79 107 137 177 223 267 320
#     4  10  21  37  57  82 111 141 178 223 274 329
#     4  11  21  34  53  76 106 142 182 224 265 315
#
# _framework density 17.816374
#
# number of rings (size 3 to 8) (size 9 to 14) (size 15 to 20)
#    0.000    2.167    1.667    3.500    0.000    2.667 
#    0.000    0.833    0.000    1.000    0.000    4.667 
#    0.000    0.000    0.000    0.000    0.000    0.000 
#
# Total GULP energy -594978.881470 kJ/mol
# GULP energy per Si atom -12395.393364 kJ/mol
# Density = 1.777582 g / cm^3
# Si number density = 17.816374 Si / 1000 Ang^3
#
#
#
# Elastic Constant Matrix: (Units=GPa)
#
#
# Indices 1 2 3 4 5 6 
#
# 1 81.3005 39.6536 58.3471 0.0000 0.0000 0.0000
# 2 39.6536 80.2093 61.2737 0.0000 0.0000 0.0000
# 3 58.3471 61.2737 145.0099 0.0000 0.0000 0.0000
# 4 0.0000 0.0000 0.0000 19.8470 0.0000 0.0000
# 5 0.0000 0.0000 0.0000 0.0000 30.9370 0.0000
# 6 0.0000 0.0000 0.0000 0.0000 0.0000 23.8200
#
#
#
# Elastic Compliance Matrix: (Units=1/GPa)
#
#
# Indices 1 2 3 4 5 6 
#
# 1 0.018628 -0.005144 -0.005322 0.000000 0.000000 0.000000
# 2 -0.005144 0.019830 -0.006310 0.000000 0.000000 0.000000
# 3 -0.005322 -0.006310 0.011704 0.000000 0.000000 0.000000
# 4 0.000000 0.000000 0.000000 0.050385 0.000000 0.000000
# 5 0.000000 0.000000 0.000000 0.000000 0.032324 0.000000
# 6 0.000000 0.000000 0.000000 0.000000 0.000000 0.041982
#
#
# Mechanical properties :
#
#
# Convention : Reuss Voigt Hill
#
# Bulk Modulus (GPa) = 60.19902 69.45206 64.82554
# Shear Modulus (GPa) = 23.37094 24.73715 24.05404
#
# Velocity S-wave (km/s) = 3.62576 3.73023 3.67837
# Velocity P-wave (km/s) = 7.16869 7.59076 7.38274
#
# Compressibility (1/GPa) = 0.01661157
#
# Stress axis : x y z
#
# Youngs Moduli (GPa) = 53.68178 50.42756 85.44434
#
# Poissons Ratio (x) = 0.25939 0.45472
# Poissons Ratio (y) = 0.27613 0.53912
# Poissons Ratio (z) = 0.28569 0.31818
#
# Static dielectric constant tensor:
#      x y z
#    x 3.222980 0.000000 0.000000 
#    y 0.000000 3.156450 0.000000 
#    z 0.000000 0.000000 3.414890 
# 
# 
# High freq. dielectric constant tensor:
#      x y z
#    x 1.687880 0.000000 0.000000 
#    y 0.000000 1.660420 0.000000 
#    z 0.000000 0.000000 1.690270 
# 
# From -- ./inp_files/37117.got.cif
#   From: 2010.03.12/outbox.cif.g09.slc.cpg/sg64_19_cif.got.tgz:37117.got - 2010.04.10 20:19:32.
