data_PCOD8262761
_publ_section_title
;
Structure prediction by ZEFSAII (Michael W. Deem and Ramdas Pophale) SiO2 
 PCOD8262761
Probable space group: C M C A
;
_chemical_formula_sum "Si O2"
_cell_formula_units_Z 96
_cell_length_a 9.140281
_cell_length_b 19.913066
_cell_length_c 30.317294
_cell_angle_alpha 90.000000
_cell_angle_beta 90.000000
_cell_angle_gamma 90.000000
_cell_volume 5518.081569
_symmetry_space_group_name_H-M "C M C A"
_symmetry_group_IT_number 64
_symmetry_cell_setting 'orthorhombic'
loop_
_space_group_symop_operation_xyz
x,y,z
-x,1/2-y,1/2+z
x,-y,-z
-x,1/2+y,1/2-z
-x,-y,-z
x,1/2+y,1/2-z
-x,y,z
x,1/2-y,1/2+z
1/2+x,1/2+y,z
1/2-x,-y,1/2+z
1/2+x,1/2-y,-z
1/2-x,y,1/2-z
1/2-x,1/2-y,-z
1/2+x,y,1/2-z
1/2-x,1/2+y,z
1/2+x,-y,1/2+z
loop_
_atom_site_type_symbol
_atom_site_label
_atom_site_fract_x
_atom_site_fract_y
_atom_site_fract_z
Si Si1 0.671393 0.550478 0.794461
Si Si2 0.670849 0.796446 0.635083
Si Si3 0.670374 0.798129 0.533493
Si Si4 0.326681 0.948787 0.632721
Si Si5 0.171753 0.204900 0.795162
Si Si6 0.325570 0.551488 0.035458
O O1 0.500000 0.539062 0.787887
O O2 0.750000 0.527965 0.750000
O O3 0.736341 0.502819 0.832804
O O4 0.707063 0.627439 0.806268
O O5 0.500000 0.785164 0.645517
O O6 0.705265 0.779416 0.584140
O O7 0.717960 0.873017 0.645864
O O8 0.768272 0.748070 0.664608
O O9 0.500000 0.791783 0.524304
O O10 0.750000 0.750000 0.500000
O O11 0.724959 0.873510 0.523261
O O12 0.500000 0.953325 0.631187
O O13 0.265449 0.967144 0.584138
O O14 0.250000 0.227047 0.750000
O O15 0.000000 0.217501 0.789559
O O16 0.500000 0.547897 0.035562
O O17 0.257746 0.500000 0.000000
#
# Coordination Sequence:
#
# PCOD8262761 Si02
#       6
#    16  16  16  16  16  16
#     4   9  18  32  49  69  93 120 152 191 232 275
#     4   9  18  33  50  69  97 129 159 194 236 280
#     4   9  18  31  48  71  98 128 159 194 237 280
#     4   8  15  29  47  67  92 121 153 191 233 274
#     4  10  20  33  50  72  97 125 157 194 236 282
#     4   8  14  26  46  70  93 119 154 193 230 272
#
# _framework density 17.397349999999999
#
# number of rings (size 3 to 8) (size 9 to 14) (size 15 to 20)
#    0.000    3.167    0.000    2.500    0.000    3.333 
#    0.000    5.833    0.000    1.500    0.000    0.000 
#    0.000    0.000    0.000    0.000    0.000    0.000 
#
# Total GULP energy -595032.964975 kJ/mol
# GULP energy per Si atom -12396.520104 kJ/mol
# Density = 1.735775 g / cm^3
# Si number density = 17.397350 Si / 1000 Ang^3
#
#
#
# Elastic Constant Matrix: (Units=GPa)
#
#
# Indices 1 2 3 4 5 6 
#
# 1 42.6104 38.8746 49.0354 0.0000 0.0000 0.0000
# 2 38.8746 120.7669 107.3263 0.0000 0.0000 0.0000
# 3 49.0354 107.3263 152.7651 0.0000 0.0000 0.0000
# 4 0.0000 0.0000 0.0000 41.2627 0.0000 0.0000
# 5 0.0000 0.0000 0.0000 0.0000 28.8265 0.0000
# 6 0.0000 0.0000 0.0000 0.0000 0.0000 21.4521
#
#
#
# Elastic Compliance Matrix: (Units=1/GPa)
#
#
# Indices 1 2 3 4 5 6 
#
# 1 0.037823 -0.003689 -0.009549 0.000000 0.000000 0.000000
# 2 -0.003689 0.022404 -0.014556 0.000000 0.000000 0.000000
# 3 -0.009549 -0.014556 0.019837 0.000000 0.000000 0.000000
# 4 0.000000 0.000000 0.000000 0.024235 0.000000 0.000000
# 5 0.000000 0.000000 0.000000 0.000000 0.034690 0.000000
# 6 0.000000 0.000000 0.000000 0.000000 0.000000 0.046616
#
#
# Mechanical properties :
#
#
# Convention : Reuss Voigt Hill
#
# Bulk Modulus (GPa) = 40.85547 78.51277 59.68412
# Shear Modulus (GPa) = 20.05211 26.36867 23.21039
#
# Velocity S-wave (km/s) = 3.39867 3.89739 3.65654
# Velocity P-wave (km/s) = 6.23987 8.09197 7.22551
#
# Compressibility (1/GPa) = 0.02447653
#
# Stress axis : x y z
#
# Youngs Moduli (GPa) = 26.43924 44.63549 50.41005
#
# Poissons Ratio (x) = 0.16466 0.48136
# Poissons Ratio (y) = 0.09753 0.73376
# Poissons Ratio (z) = 0.25246 0.64971
#
# Static dielectric constant tensor:
#      x y z
#    x 2.883090 0.000000 0.000000 
#    y 0.000000 3.408310 0.000000 
#    z 0.000000 0.000000 3.601770 
# 
# 
# High freq. dielectric constant tensor:
#      x y z
#    x 1.636840 0.000000 0.000000 
#    y 0.000000 1.675730 0.000000 
#    z 0.000000 0.000000 1.679990 
# 
# From -- ./inp_files/48140.got.cif
#   From: 2010.03.12/outbox.cif.g09.slc.cpg/sg64_25_cif.got.tgz:48140.got - 2010.04.10 20:19:32.
