data_PCOD8262260
_publ_section_title
;
Structure prediction by ZEFSAII (Michael W. Deem and Ramdas Pophale) SiO2 
 PCOD8262260
Probable space group: C M C A
;
_chemical_formula_sum "Si O2"
_cell_formula_units_Z 64
_cell_length_a 15.307572
_cell_length_b 23.962731
_cell_length_c 9.102539
_cell_angle_alpha 90.000000
_cell_angle_beta 90.000000
_cell_angle_gamma 90.000000
_cell_volume 3338.913528
_symmetry_space_group_name_H-M "C M C A"
_symmetry_group_IT_number 64
_symmetry_cell_setting 'orthorhombic'
loop_
_space_group_symop_operation_xyz
x,y,z
-x,1/2-y,1/2+z
x,-y,-z
-x,1/2+y,1/2-z
-x,-y,-z
x,1/2+y,1/2-z
-x,y,z
x,1/2-y,1/2+z
1/2+x,1/2+y,z
1/2-x,-y,1/2+z
1/2+x,1/2-y,-z
1/2-x,y,1/2-z
1/2-x,1/2-y,-z
1/2+x,y,1/2-z
1/2-x,1/2+y,z
1/2+x,-y,1/2+z
loop_
_atom_site_type_symbol
_atom_site_label
_atom_site_fract_x
_atom_site_fract_y
_atom_site_fract_z
Si Si1 0.896920 0.505736 0.164941
Si Si2 0.660537 0.396723 0.181740
Si Si3 0.598061 0.395472 0.867663
Si Si4 0.500000 0.294472 0.871242
Si Si5 0.500000 0.319054 0.207686
O O1 0.852516 0.459551 0.264743
O O2 0.870315 0.566190 0.232358
O O3 0.000000 0.497143 0.164809
O O4 0.859767 0.500000 0.000000
O O5 0.750000 0.372890 0.250000
O O6 0.584620 0.356326 0.239428
O O7 0.664425 0.399306 0.004244
O O8 0.500000 0.415163 0.922322
O O9 0.586157 0.330196 0.817703
O O10 0.500000 0.231701 0.820519
O O11 0.500000 0.292853 0.047230
#
# Coordination Sequence:
#
# PCOD8262260 Si02
#       5
#    16  16  16   8   8
#     4  10  19  32  55  87 115 142 185 234 278 337
#     4  11  21  35  57  82 112 154 186 224 284 344
#     4   8  17  36  57  79 110 146 189 224 285 343
#     4   8  18  33  60  79 101 148 184 232 295 324
#     4  10  20  39  56  81 109 142 194 240 277 342
#
# _framework density 19.167912000000001
#
# number of rings (size 3 to 8) (size 9 to 14) (size 15 to 20)
#    0.750    1.750    2.500    0.750    0.000    6.000 
#    0.000    5.000    0.000    1.500    0.000    0.000 
#    0.000    0.000    0.000    0.000    0.000    0.000 
#
# Total GULP energy -396522.701712 kJ/mol
# GULP energy per Si atom -12391.334429 kJ/mol
# Density = 1.912428 g / cm^3
# Si number density = 19.167912 Si / 1000 Ang^3
#
#
#
# Elastic Constant Matrix: (Units=GPa)
#
#
# Indices 1 2 3 4 5 6 
#
# 1 75.5737 26.5244 31.1822 0.0000 0.0000 0.0000
# 2 26.5244 69.0484 19.6642 0.0000 0.0000 0.0000
# 3 31.1822 19.6642 77.9428 0.0000 0.0000 0.0000
# 4 0.0000 0.0000 0.0000 40.3704 0.0000 0.0000
# 5 0.0000 0.0000 0.0000 0.0000 11.3342 0.0000
# 6 0.0000 0.0000 0.0000 0.0000 0.0000 1.5421
#
#
#
# Elastic Compliance Matrix: (Units=1/GPa)
#
#
# Indices 1 2 3 4 5 6 
#
# 1 0.017341 -0.005048 -0.005664 0.000000 0.000000 0.000000
# 2 -0.005048 0.017073 -0.002288 0.000000 0.000000 0.000000
# 3 -0.005664 -0.002288 0.015673 0.000000 0.000000 0.000000
# 4 0.000000 0.000000 0.000000 0.024771 0.000000 0.000000
# 5 0.000000 0.000000 0.000000 0.000000 0.088229 0.000000
# 6 0.000000 0.000000 0.000000 0.000000 0.000000 0.648456
#
#
# Mechanical properties :
#
#
# Convention : Reuss Voigt Hill
#
# Bulk Modulus (GPa) = 41.51555 41.92294 41.71925
# Shear Modulus (GPa) = 5.91316 20.32895 13.12105
#
# Velocity S-wave (km/s) = 1.75830 3.26018 2.61920
# Velocity P-wave (km/s) = 5.08213 6.00754 5.56411
#
# Compressibility (1/GPa) = 0.02408736
#
# Stress axis : x y z
#
# Youngs Moduli (GPa) = 57.66719 58.57059 63.80398
#
# Poissons Ratio (x) = 0.29569 0.36137
# Poissons Ratio (y) = 0.29113 0.14597
# Poissons Ratio (z) = 0.32662 0.13400
#
# Static dielectric constant tensor:
#      x y z
#    x 3.281640 0.000000 0.000000 
#    y 0.000000 3.480630 0.000000 
#    z 0.000000 0.000000 3.447780 
# 
# 
# High freq. dielectric constant tensor:
#      x y z
#    x 1.716820 0.000000 0.000000 
#    y 0.000000 1.737930 0.000000 
#    z 0.000000 0.000000 1.741330 
# 
# From -- ./inp_files/5756.got.cif
#   From: 2010.03.12/outbox.cif.g09.slc.cpg/sg64_3_cif.got.tgz:5756.got - 2010.04.10 20:19:32.
