data_PCOD8262953
_publ_section_title
;
Structure prediction by ZEFSAII (Michael W. Deem and Ramdas Pophale) SiO2 
 PCOD8262953
Probable space group: C M C A
;
_chemical_formula_sum "Si O2"
_cell_formula_units_Z 48
_cell_length_a 18.876274
_cell_length_b 25.059559
_cell_length_c 5.121284
_cell_angle_alpha 90.000000
_cell_angle_beta 90.000000
_cell_angle_gamma 90.000000
_cell_volume 2422.526614
_symmetry_space_group_name_H-M "C M C A"
_symmetry_group_IT_number 64
_symmetry_cell_setting 'orthorhombic'
loop_
_space_group_symop_operation_xyz
x,y,z
-x,1/2-y,1/2+z
x,-y,-z
-x,1/2+y,1/2-z
-x,-y,-z
x,1/2+y,1/2-z
-x,y,z
x,1/2-y,1/2+z
1/2+x,1/2+y,z
1/2-x,-y,1/2+z
1/2+x,1/2-y,-z
1/2-x,y,1/2-z
1/2-x,1/2-y,-z
1/2+x,y,1/2-z
1/2-x,1/2+y,z
1/2+x,-y,1/2+z
loop_
_atom_site_type_symbol
_atom_site_label
_atom_site_fract_x
_atom_site_fract_y
_atom_site_fract_z
Si Si1 0.000000 0.714889 0.550128
Si Si2 0.750000 0.898596 0.750000
Si Si3 0.380552 0.060886 0.997268
Si Si4 0.389290 0.625109 0.023438
O O1 0.929080 0.680521 0.514809
O O2 0.000000 0.762200 0.341392
O O3 0.704271 0.935896 0.946159
O O4 0.694641 0.862815 0.579170
O O5 0.421243 0.093209 0.227357
O O6 0.400430 0.087394 0.724429
O O7 0.406065 0.000000 0.000000
#
# Coordination Sequence:
#
# PCOD8262953 Si02
#       4
#     8   8  16  16
#     4  12  26  48  67  78 111 164 210 258 318 348
#     4   8  22  32  66  86 136 150 196 236 284 354
#     4  10  20  34  62  94 129 162 186 227 296 362
#     4  10  22  38  60  92 119 158 203 247 285 357
#
# _framework density 19.814025999999998
#
# number of rings (size 3 to 8) (size 9 to 14) (size 15 to 20)
#    2.000    0.000    0.000    4.000    4.667    0.000 
#    0.000    6.667    0.000    0.000    0.000    0.000 
#    0.000    0.000    0.000    0.000    0.000    0.000 
#
# Total GULP energy -297319.212566 kJ/mol
# GULP energy per Si atom -12388.300524 kJ/mol
# Density = 1.976893 g / cm^3
# Si number density = 19.814026 Si / 1000 Ang^3
#
#
#
# Elastic Constant Matrix: (Units=GPa)
#
#
# Indices 1 2 3 4 5 6 
#
# 1 55.9336 35.4222 15.7693 0.0000 0.0000 0.0000
# 2 35.4222 100.4525 32.2355 0.0000 0.0000 0.0000
# 3 15.7693 32.2355 131.4695 0.0000 0.0000 0.0000
# 4 0.0000 0.0000 0.0000 43.5192 0.0000 0.0000
# 5 0.0000 0.0000 0.0000 0.0000 -6.4938 0.0000
# 6 0.0000 0.0000 0.0000 0.0000 0.0000 33.4414
#
#
#
# Elastic Compliance Matrix: (Units=1/GPa)
#
#
# Indices 1 2 3 4 5 6 
#
# 1 0.023104 -0.007878 -0.000840 0.000000 0.000000 0.000000
# 2 -0.007878 0.013491 -0.002363 0.000000 0.000000 0.000000
# 3 -0.000840 -0.002363 0.008286 0.000000 0.000000 0.000000
# 4 0.000000 0.000000 0.000000 0.022978 0.000000 0.000000
# 5 0.000000 0.000000 0.000000 0.000000 -0.153994 0.000000
# 6 0.000000 0.000000 0.000000 0.000000 0.000000 0.029903
#
#
# Mechanical properties :
#
#
# Convention : Reuss Voigt Hill
#
# Bulk Modulus (GPa) = 44.01257 50.52330 47.26794
# Shear Modulus (GPa) = -188.70469 27.72194 -80.49137
#
# Velocity S-wave (km/s) = -9.76958 3.74452 -6.38057
# Velocity P-wave (km/s) = 10.24688 6.65202 5.51131
#
# Compressibility (1/GPa) = 0.02272078
#
# Stress axis : x y z
#
# Youngs Moduli (GPa) = 43.28280 74.12284 120.67898
#
# Poissons Ratio (x) = 0.58391 0.10133
# Poissons Ratio (y) = 0.34096 0.28517
# Poissons Ratio (z) = 0.03634 0.17516
#
# Static dielectric constant tensor:
#      x y z
#    x 3.598410 0.000000 0.000000 
#    y 0.000000 3.222400 0.000000 
#    z 0.000000 0.000000 3.687820 
# 
# 
# High freq. dielectric constant tensor:
#      x y z
#    x 1.764960 0.000000 0.000000 
#    y 0.000000 1.740700 0.000000 
#    z 0.000000 0.000000 1.791180 
# 
# From -- ./inp_files/1160.got.cif
#   From: 2010.03.12/outbox.cif.g09.slc.cpg/sg64_1_cif.got.tgz:1160.got - 2010.04.10 20:19:32.
