data_PCOD8262078
_publ_section_title
;
Structure prediction by ZEFSAII (Michael W. Deem and Ramdas Pophale) SiO2 
 PCOD8262078
Probable space group: C M C A
;
_chemical_formula_sum "Si O2"
_cell_formula_units_Z 96
_cell_length_a 9.174134
_cell_length_b 27.216441
_cell_length_c 21.481403
_cell_angle_alpha 90.000000
_cell_angle_beta 90.000000
_cell_angle_gamma 90.000000
_cell_volume 5363.633016
_symmetry_space_group_name_H-M "C M C A"
_symmetry_group_IT_number 64
_symmetry_cell_setting 'orthorhombic'
loop_
_space_group_symop_operation_xyz
x,y,z
-x,1/2-y,1/2+z
x,-y,-z
-x,1/2+y,1/2-z
-x,-y,-z
x,1/2+y,1/2-z
-x,y,z
x,1/2-y,1/2+z
1/2+x,1/2+y,z
1/2-x,-y,1/2+z
1/2+x,1/2-y,-z
1/2-x,y,1/2-z
1/2-x,1/2-y,-z
1/2+x,y,1/2-z
1/2-x,1/2+y,z
1/2+x,-y,1/2+z
loop_
_atom_site_type_symbol
_atom_site_label
_atom_site_fract_x
_atom_site_fract_y
_atom_site_fract_z
Si Si1 0.163456 0.326711 0.900181
Si Si2 0.171656 0.738635 0.935767
Si Si3 0.339495 0.865704 0.038772
Si Si4 0.173140 0.535957 0.554955
Si Si5 0.663600 0.995351 0.310059
Si Si6 0.664248 0.111740 0.308981
O O1 0.250750 0.275678 0.886914
O O2 0.250165 0.371321 0.869508
O O3 0.000000 0.321751 0.873022
O O4 0.157672 0.340718 0.971844
O O5 0.196424 0.681138 0.916152
O O6 0.000000 0.750519 0.940862
O O7 0.250000 0.750000 0.000000
O O8 0.500000 0.887534 0.054384
O O9 0.220983 0.908294 0.042821
O O10 0.234028 0.500000 0.500000
O O11 0.233104 0.520662 0.623390
O O12 0.000000 0.533296 0.554392
O O13 0.500000 0.974593 0.304721
O O14 0.750000 0.974115 0.250000
O O15 0.664261 0.053511 0.308306
O O16 0.500000 0.132265 0.308923
O O17 0.750000 0.133385 0.250000
#
# Coordination Sequence:
#
# PCOD8262078 Si02
#       6
#    16  16  16  16  16  16
#     4  10  19  31  48  72 100 128 161 198 242 296
#     4   9  17  30  47  69  96 125 158 194 238 293
#     4   9  19  32  47  71 100 128 160 200 244 291
#     4  10  20  33  50  74 102 130 165 209 253 297
#     4   9  19  34  51  72  98 132 170 204 244 297
#     4  10  19  32  50  71  97 128 162 201 245 292
#
# _framework density 17.898316999999999
#
# number of rings (size 3 to 8) (size 9 to 14) (size 15 to 20)
#    0.000    2.500    0.000    3.500    0.000    7.000 
#    0.000    0.000    0.000    1.000    0.000    2.333 
#    0.000    0.000    0.000    0.000    0.000    0.000 
#
# Total GULP energy -594805.574879 kJ/mol
# GULP energy per Si atom -12391.782810 kJ/mol
# Density = 1.785758 g / cm^3
# Si number density = 17.898317 Si / 1000 Ang^3
#
#
#
# Elastic Constant Matrix: (Units=GPa)
#
#
# Indices 1 2 3 4 5 6 
#
# 1 96.9818 33.6982 30.1861 0.0000 0.0000 0.0000
# 2 33.6982 57.7882 27.5092 0.0000 0.0000 0.0000
# 3 30.1861 27.5092 74.5642 0.0000 0.0000 0.0000
# 4 0.0000 0.0000 0.0000 15.9693 0.0000 0.0000
# 5 0.0000 0.0000 0.0000 0.0000 26.7265 0.0000
# 6 0.0000 0.0000 0.0000 0.0000 0.0000 27.1270
#
#
#
# Elastic Compliance Matrix: (Units=1/GPa)
#
#
# Indices 1 2 3 4 5 6 
#
# 1 0.013500 -0.006393 -0.003106 0.000000 0.000000 0.000000
# 2 -0.006393 0.024019 -0.006273 0.000000 0.000000 0.000000
# 3 -0.003106 -0.006273 0.016983 0.000000 0.000000 0.000000
# 4 0.000000 0.000000 0.000000 0.062620 0.000000 0.000000
# 5 0.000000 0.000000 0.000000 0.000000 0.037416 0.000000
# 6 0.000000 0.000000 0.000000 0.000000 0.000000 0.036864
#
#
# Mechanical properties :
#
#
# Convention : Reuss Voigt Hill
#
# Bulk Modulus (GPa) = 43.56149 45.79122 44.67635
# Shear Modulus (GPa) = 21.68265 23.16061 22.42163
#
# Velocity S-wave (km/s) = 3.48434 3.60114 3.54322
# Velocity P-wave (km/s) = 6.37014 6.55214 6.46178
#
# Compressibility (1/GPa) = 0.02295606
#
# Stress axis : x y z
#
# Youngs Moduli (GPa) = 74.07648 41.63380 58.88166
#
# Poissons Ratio (x) = 0.26618 0.18291
# Poissons Ratio (y) = 0.47359 0.36937
# Poissons Ratio (z) = 0.23011 0.26118
#
# Static dielectric constant tensor:
#      x y z
#    x 3.752590 0.000000 0.000000 
#    y 0.000000 3.510340 0.000000 
#    z 0.000000 0.000000 3.717160 
# 
# 
# High freq. dielectric constant tensor:
#      x y z
#    x 1.700460 0.000000 0.000000 
#    y 0.000000 1.684560 0.000000 
#    z 0.000000 0.000000 1.663680 
# 
# From -- ./inp_files/36991.got.cif
#   From: 2010.03.12/outbox.cif.g09.slc.cpg/sg64_19_cif.got.tgz:36991.got - 2010.04.10 20:19:32.
