data_PCOD8262202
_publ_section_title
;
Structure prediction by ZEFSAII (Michael W. Deem and Ramdas Pophale) SiO2 
 PCOD8262202
Probable space group: C M C A
;
_chemical_formula_sum "Si O2"
_cell_formula_units_Z 64
_cell_length_a 5.261884
_cell_length_b 34.459814
_cell_length_c 19.943993
_cell_angle_alpha 90.000000
_cell_angle_beta 90.000000
_cell_angle_gamma 90.000000
_cell_volume 3616.315491
_symmetry_space_group_name_H-M "C M C A"
_symmetry_group_IT_number 64
_symmetry_cell_setting 'orthorhombic'
loop_
_space_group_symop_operation_xyz
x,y,z
-x,1/2-y,1/2+z
x,-y,-z
-x,1/2+y,1/2-z
-x,-y,-z
x,1/2+y,1/2-z
-x,y,z
x,1/2-y,1/2+z
1/2+x,1/2+y,z
1/2-x,-y,1/2+z
1/2+x,1/2-y,-z
1/2-x,y,1/2-z
1/2-x,1/2-y,-z
1/2+x,y,1/2-z
1/2-x,1/2+y,z
1/2+x,-y,1/2+z
loop_
_atom_site_type_symbol
_atom_site_label
_atom_site_fract_x
_atom_site_fract_y
_atom_site_fract_z
Si Si1 0.500000 0.199311 0.015901
Si Si2 0.500000 0.040888 0.291378
Si Si3 0.000000 0.112328 0.453695
Si Si4 0.000000 0.195361 0.206685
Si Si5 0.500000 0.734371 0.079598
Si Si6 0.500000 0.884648 0.633328
Si Si7 0.500000 0.038410 0.953958
Si Si8 0.500000 0.011091 0.579442
O O1 0.500000 0.153086 0.006362
O O2 0.750196 0.211912 0.055393
O O3 0.500000 0.220832 0.943800
O O4 0.250000 0.027928 0.250000
O O5 0.500000 0.087313 0.301805
O O6 0.500000 0.024076 0.367415
O O7 0.751504 0.107352 0.409034
O O8 0.000000 0.078075 0.506352
O O9 0.750000 0.194701 0.250000
O O10 0.000000 0.233874 0.160428
O O11 0.000000 0.159221 0.157069
O O12 0.749735 0.036970 0.907041
O O13 0.500000 0.000000 0.000000
O O14 0.500000 0.000000 0.500000
#
# Coordination Sequence:
#
# PCOD8262202 Si02
#       8
#     8   8   8   8   8   8   8   8
#     4  10  19  35  56  80 105 139 179 235 284 324
#     4  12  24  39  56  81 115 157 193 229 282 348
#     4  12  20  34  58  83 112 148 188 231 291 331
#     4  12  22  34  50  74 109 152 189 215 258 332
#     4  10  20  36  53  76 109 139 185 231 275 318
#     4  12  22  35  50  79 117 153 187 221 258 342
#     4  10  19  32  51  80 107 141 180 235 283 325
#     4  10  20  37  55  77 105 145 189 237 279 320
#
# _framework density 17.697571
#
# number of rings (size 3 to 8) (size 9 to 14) (size 15 to 20)
#    0.000    1.000    2.500    7.500    0.000    0.000 
#    0.000    0.000    0.000    0.000    0.000    5.250 
#    0.000    0.000    0.000    0.000    0.000    0.000 
#
# Total GULP energy -396660.865318 kJ/mol
# GULP energy per Si atom -12395.652041 kJ/mol
# Density = 1.765729 g / cm^3
# Si number density = 17.697571 Si / 1000 Ang^3
#
#
#
# Elastic Constant Matrix: (Units=GPa)
#
#
# Indices 1 2 3 4 5 6 
#
# 1 181.8360 34.3294 34.6811 0.0000 0.0000 0.0000
# 2 34.3294 94.6983 37.4691 0.0000 0.0000 0.0000
# 3 34.6811 37.4691 66.7687 0.0000 0.0000 0.0000
# 4 0.0000 0.0000 0.0000 34.7718 0.0000 0.0000
# 5 0.0000 0.0000 0.0000 0.0000 16.3837 0.0000
# 6 0.0000 0.0000 0.0000 0.0000 0.0000 23.6509
#
#
#
# Elastic Compliance Matrix: (Units=1/GPa)
#
#
# Indices 1 2 3 4 5 6 
#
# 1 0.006218 -0.001255 -0.002526 0.000000 0.000000 0.000000
# 2 -0.001255 0.013827 -0.007108 0.000000 0.000000 0.000000
# 3 -0.002526 -0.007108 0.020278 0.000000 0.000000 0.000000
# 4 0.000000 0.000000 0.000000 0.028759 0.000000 0.000000
# 5 0.000000 0.000000 0.000000 0.000000 0.061036 0.000000
# 6 0.000000 0.000000 0.000000 0.000000 0.000000 0.042282
#
#
# Mechanical properties :
#
#
# Convention : Reuss Voigt Hill
#
# Bulk Modulus (GPa) = 53.91849 61.80691 57.86270
# Shear Modulus (GPa) = 24.95534 30.74950 27.85242
#
# Velocity S-wave (km/s) = 3.75920 4.17285 3.97142
# Velocity P-wave (km/s) = 7.02673 7.62999 7.33456
#
# Compressibility (1/GPa) = 0.01854651
#
# Stress axis : x y z
#
# Youngs Moduli (GPa) = 160.82165 72.32219 49.31554
#
# Poissons Ratio (x) = 0.09075 0.12455
# Poissons Ratio (y) = 0.20180 0.35052
# Poissons Ratio (z) = 0.40617 0.51404
#
# Static dielectric constant tensor:
#      x y z
#    x 4.385930 0.000000 0.000000 
#    y 0.000000 3.274660 0.000000 
#    z 0.000000 0.000000 3.177190 
# 
# 
# High freq. dielectric constant tensor:
#      x y z
#    x 1.726600 0.000000 0.000000 
#    y 0.000000 1.663510 0.000000 
#    z 0.000000 0.000000 1.656690 
# 
# From -- ./inp_files/28732.got.cif
#   From: 2010.03.12/outbox.cif.g09.slc.cpg/sg64_15_cif.got.tgz:28732.got - 2010.04.10 20:19:32.
