data_PCOD8262985
_publ_section_title
;
Structure prediction by ZEFSAII (Michael W. Deem and Ramdas Pophale) SiO2 
 PCOD8262985
Probable space group: C M C A
;
_chemical_formula_sum "Si O2"
_cell_formula_units_Z 96
_cell_length_a 17.004293
_cell_length_b 17.169822
_cell_length_c 18.411912
_cell_angle_alpha 90.000000
_cell_angle_beta 90.000000
_cell_angle_gamma 90.000000
_cell_volume 5375.554422
_symmetry_space_group_name_H-M "C M C A"
_symmetry_group_IT_number 64
_symmetry_cell_setting 'orthorhombic'
loop_
_space_group_symop_operation_xyz
x,y,z
-x,1/2-y,1/2+z
x,-y,-z
-x,1/2+y,1/2-z
-x,-y,-z
x,1/2+y,1/2-z
-x,y,z
x,1/2-y,1/2+z
1/2+x,1/2+y,z
1/2-x,-y,1/2+z
1/2+x,1/2-y,-z
1/2-x,y,1/2-z
1/2-x,1/2-y,-z
1/2+x,y,1/2-z
1/2-x,1/2+y,z
1/2+x,-y,1/2+z
loop_
_atom_site_type_symbol
_atom_site_label
_atom_site_fract_x
_atom_site_fract_y
_atom_site_fract_z
Si Si1 0.173730 0.501098 0.920698
Si Si2 0.286236 0.222477 0.171256
Si Si3 0.591607 0.475657 0.849005
Si Si4 0.697953 0.882763 0.397851
Si Si5 0.591365 0.590546 0.305322
Si Si6 0.692226 0.873397 0.563326
O O1 0.212633 0.583710 0.897942
O O2 0.107435 0.477836 0.863306
O O3 0.246027 0.441978 0.924317
O O4 0.132979 0.500000 0.000000
O O5 0.250000 0.214109 0.250000
O O6 0.310723 0.311006 0.156899
O O7 0.362747 0.167615 0.169464
O O8 0.222390 0.200652 0.109112
O O9 0.500000 0.494406 0.848496
O O10 0.635493 0.554715 0.869759
O O11 0.621157 0.443493 0.771203
O O12 0.609749 0.406475 0.906048
O O13 0.678528 0.852914 0.479309
O O14 0.500000 0.612018 0.303007
#
# Coordination Sequence:
#
# PCOD8262985 Si02
#       6
#    16  16  16  16  16  16
#     4   8  17  33  55  80 106 135 173 219 261 306
#     4  11  21  35  56  78 105 143 173 214 265 318
#     4  10  20  35  55  80 108 140 178 223 266 309
#     4  10  21  32  57  85 106 131 176 227 263 309
#     4  10  21  36  54  75 107 145 178 212 256 318
#     4   9  18  36  54  80 108 137 174 217 263 319
#
# _framework density 17.858623000000001
#
# number of rings (size 3 to 8) (size 9 to 14) (size 15 to 20)
#    0.000    2.333    1.667    2.000    2.333    2.333 
#    0.000    0.000    0.000    1.000    0.000    0.000 
#    0.000    0.000    0.000    0.000    0.000    0.000 
#
# Total GULP energy -595108.123011 kJ/mol
# GULP energy per Si atom -12398.085896 kJ/mol
# Density = 1.781798 g / cm^3
# Si number density = 17.858623 Si / 1000 Ang^3
#
#
#
# Elastic Constant Matrix: (Units=GPa)
#
#
# Indices 1 2 3 4 5 6 
#
# 1 55.5614 36.7948 29.2208 0.0000 0.0000 0.0000
# 2 36.7948 82.1070 29.2783 0.0000 0.0000 0.0000
# 3 29.2208 29.2783 76.6724 0.0000 0.0000 0.0000
# 4 0.0000 0.0000 0.0000 32.6907 0.0000 0.0000
# 5 0.0000 0.0000 0.0000 0.0000 23.0122 0.0000
# 6 0.0000 0.0000 0.0000 0.0000 0.0000 18.0806
#
#
#
# Elastic Compliance Matrix: (Units=1/GPa)
#
#
# Indices 1 2 3 4 5 6 
#
# 1 0.028443 -0.010281 -0.006914 0.000000 0.000000 0.000000
# 2 -0.010281 0.017815 -0.002885 0.000000 0.000000 0.000000
# 3 -0.006914 -0.002885 0.016779 0.000000 0.000000 0.000000
# 4 0.000000 0.000000 0.000000 0.030590 0.000000 0.000000
# 5 0.000000 0.000000 0.000000 0.000000 0.043455 0.000000
# 6 0.000000 0.000000 0.000000 0.000000 0.000000 0.055308
#
#
# Mechanical properties :
#
#
# Convention : Reuss Voigt Hill
#
# Bulk Modulus (GPa) = 43.71051 44.99206 44.35128
# Shear Modulus (GPa) = 20.81823 22.69318 21.75571
#
# Velocity S-wave (km/s) = 3.41797 3.56857 3.49409
# Velocity P-wave (km/s) = 6.33291 6.49829 6.41613
#
# Compressibility (1/GPa) = 0.02287780
#
# Stress axis : x y z
#
# Youngs Moduli (GPa) = 35.15864 56.13259 59.59786
#
# Poissons Ratio (x) = 0.57707 0.41206
# Poissons Ratio (y) = 0.36145 0.17193
# Poissons Ratio (z) = 0.24309 0.16193
#
# Static dielectric constant tensor:
#      x y z
#    x 3.040370 0.000000 0.000000 
#    y 0.000000 3.234510 0.000000 
#    z 0.000000 0.000000 3.634480 
# 
# 
# High freq. dielectric constant tensor:
#      x y z
#    x 1.665950 0.000000 0.000000 
#    y 0.000000 1.680680 0.000000 
#    z 0.000000 0.000000 1.709740 
# 
# From -- ./inp_files/33253.got.cif
#   From: 2010.03.12/outbox.cif.g09.slc.cpg/sg64_17_cif.got.tgz:33253.got - 2010.04.10 20:19:32.
