data_PCOD8262104
_publ_section_title
;
Structure prediction by ZEFSAII (Michael W. Deem and Ramdas Pophale) SiO2 
 PCOD8262104
Probable space group: C M C A
;
_chemical_formula_sum "Si O2"
_cell_formula_units_Z 96
_cell_length_a 24.790522
_cell_length_b 21.410647
_cell_length_c 10.027855
_cell_angle_alpha 90.000000
_cell_angle_beta 90.000000
_cell_angle_gamma 90.000000
_cell_volume 5322.596063
_symmetry_space_group_name_H-M "C M C A"
_symmetry_group_IT_number 64
_symmetry_cell_setting 'orthorhombic'
loop_
_space_group_symop_operation_xyz
x,y,z
-x,1/2-y,1/2+z
x,-y,-z
-x,1/2+y,1/2-z
-x,-y,-z
x,1/2+y,1/2-z
-x,y,z
x,1/2-y,1/2+z
1/2+x,1/2+y,z
1/2-x,-y,1/2+z
1/2+x,1/2-y,-z
1/2-x,y,1/2-z
1/2-x,1/2-y,-z
1/2+x,y,1/2-z
1/2-x,1/2+y,z
1/2+x,-y,1/2+z
loop_
_atom_site_type_symbol
_atom_site_label
_atom_site_fract_x
_atom_site_fract_y
_atom_site_fract_z
Si Si1 0.154731 0.406646 0.243689
Si Si2 0.812681 0.542664 0.238132
Si Si3 0.937705 0.686794 0.766527
Si Si4 0.304849 0.143869 0.024381
Si Si5 0.612665 0.750137 0.483213
Si Si6 0.183481 0.134368 0.029392
O O1 0.151446 0.480733 0.221139
O O2 0.094529 0.378367 0.244096
O O3 0.184448 0.393821 0.382143
O O4 0.189585 0.371962 0.131095
O O5 0.750000 0.523421 0.250000
O O6 0.824050 0.584074 0.108251
O O7 0.832246 0.579532 0.368877
O O8 0.922133 0.732760 0.646035
O O9 0.000000 0.669335 0.757389
O O10 0.926192 0.720335 0.906764
O O11 0.340868 0.202891 0.064958
O O12 0.243237 0.160419 0.061610
O O13 0.640636 0.810651 0.547440
#
# Coordination Sequence:
#
# PCOD8262104 Si02
#       6
#    16  16  16  16  16  16
#     4  10  20  32  50  72  98 136 174 206 244 292
#     4  10  19  31  49  74 105 138 166 194 237 298
#     4  10  21  37  55  72  95 130 172 218 257 290
#     4  10  19  31  50  77 108 136 161 196 244 302
#     4  10  20  34  54  78 102 130 166 206 252 300
#     4  10  19  31  50  77 108 136 161 196 244 302
#
# _framework density 18.03631
#
# number of rings (size 3 to 8) (size 9 to 14) (size 15 to 20)
#    0.000    2.000    0.000    4.500    0.000    2.667 
#    0.000    5.000    0.000   20.000    0.000    0.000 
#    0.000    0.000    0.000    0.000    0.000    0.000 
#
# Total GULP energy -595394.628381 kJ/mol
# GULP energy per Si atom -12404.054758 kJ/mol
# Density = 1.799526 g / cm^3
# Si number density = 18.036310 Si / 1000 Ang^3
#
#
#
# Elastic Constant Matrix: (Units=GPa)
#
#
# Indices 1 2 3 4 5 6 
#
# 1 63.3823 16.0965 6.8054 0.0000 0.0000 0.0000
# 2 16.0965 74.4579 2.9267 0.0000 0.0000 0.0000
# 3 6.8054 2.9267 72.8906 0.0000 0.0000 0.0000
# 4 0.0000 0.0000 0.0000 28.4728 0.0000 0.0000
# 5 0.0000 0.0000 0.0000 0.0000 19.7624 0.0000
# 6 0.0000 0.0000 0.0000 0.0000 0.0000 20.2864
#
#
#
# Elastic Compliance Matrix: (Units=1/GPa)
#
#
# Indices 1 2 3 4 5 6 
#
# 1 0.016841 -0.003585 -0.001428 0.000000 0.000000 0.000000
# 2 -0.003585 0.014215 -0.000236 0.000000 0.000000 0.000000
# 3 -0.001428 -0.000236 0.013862 0.000000 0.000000 0.000000
# 4 0.000000 0.000000 0.000000 0.035121 0.000000 0.000000
# 5 0.000000 0.000000 0.000000 0.000000 0.050601 0.000000
# 6 0.000000 0.000000 0.000000 0.000000 0.000000 0.049294
#
#
# Mechanical properties :
#
#
# Convention : Reuss Voigt Hill
#
# Bulk Modulus (GPa) = 29.05333 29.15423 29.10378
# Shear Modulus (GPa) = 24.76407 26.03113 25.39760
#
# Velocity S-wave (km/s) = 3.70944 3.80315 3.75659
# Velocity P-wave (km/s) = 5.87280 5.95689 5.91499
#
# Compressibility (1/GPa) = 0.03441947
#
# Stress axis : x y z
#
# Youngs Moduli (GPa) = 59.37893 70.35016 72.13949
#
# Poissons Ratio (x) = 0.25218 0.10305
# Poissons Ratio (y) = 0.21285 0.01703
# Poissons Ratio (z) = 0.08482 0.01661
#
# Static dielectric constant tensor:
#      x y z
#    x 3.067860 0.000000 0.000000 
#    y 0.000000 3.341320 0.000000 
#    z 0.000000 0.000000 3.487500 
# 
# 
# High freq. dielectric constant tensor:
#      x y z
#    x 1.668840 0.000000 0.000000 
#    y 0.000000 1.700730 0.000000 
#    z 0.000000 0.000000 1.717550 
# 
# From -- ./inp_files/9476.got.cif
#   From: 2010.03.12/outbox.cif.g09.slc.cpg/sg64_5_cif.got.tgz:9476.got - 2010.04.10 20:19:32.
