data_PCOD8262482
_publ_section_title
;
Structure prediction by ZEFSAII (Michael W. Deem and Ramdas Pophale) SiO2 
 PCOD8262482
Probable space group: C M C A
;
_chemical_formula_sum "Si O2"
_cell_formula_units_Z 96
_cell_length_a 18.442552
_cell_length_b 16.292223
_cell_length_c 14.141283
_cell_angle_alpha 90.000000
_cell_angle_beta 90.000000
_cell_angle_gamma 90.000000
_cell_volume 4249.033705
_symmetry_space_group_name_H-M "C M C A"
_symmetry_group_IT_number 64
_symmetry_cell_setting 'orthorhombic'
loop_
_space_group_symop_operation_xyz
x,y,z
-x,1/2-y,1/2+z
x,-y,-z
-x,1/2+y,1/2-z
-x,-y,-z
x,1/2+y,1/2-z
-x,y,z
x,1/2-y,1/2+z
1/2+x,1/2+y,z
1/2-x,-y,1/2+z
1/2+x,1/2-y,-z
1/2-x,y,1/2-z
1/2-x,1/2-y,-z
1/2+x,y,1/2-z
1/2-x,1/2+y,z
1/2+x,-y,1/2+z
loop_
_atom_site_type_symbol
_atom_site_label
_atom_site_fract_x
_atom_site_fract_y
_atom_site_fract_z
Si Si1 0.284317 0.474524 0.107184
Si Si2 0.415770 0.754019 0.589994
Si Si3 0.584466 0.703022 0.302493
Si Si4 0.139385 0.978669 0.714523
Si Si5 0.418522 0.927095 0.061709
Si Si6 0.813414 0.797306 0.053372
O O1 0.212985 0.513821 0.152990
O O2 0.350197 0.504579 0.174132
O O3 0.280793 0.375672 0.107532
O O4 0.298229 0.500000 0.000000
O O5 0.500000 0.767830 0.570333
O O6 0.398803 0.759947 0.700091
O O7 0.387084 0.664809 0.550884
O O8 0.370533 0.821341 0.530319
O O9 0.500000 0.717876 0.331819
O O10 0.600327 0.606961 0.302108
O O11 0.641887 0.743558 0.372058
O O12 0.085836 0.047974 0.672163
O O13 0.500000 0.921492 0.025361
O O14 0.378475 0.000000 0.000000
O O15 0.750000 0.750000 0.000000
#
# Coordination Sequence:
#
# PCOD8262482 Si02
#       6
#    16  16  16  16  16  16
#     4  11  24  41  61  92 131 170 213 265 328 399
#     4  10  22  40  61  92 132 173 221 275 331 392
#     4  11  24  43  68  96 130 175 225 277 332 395
#     4  11  22  40  63  90 127 167 216 269 325 391
#     4  10  19  34  60  91 124 164 213 267 319 375
#     4  12  24  40  67  98 134 176 222 275 334 402
#
# _framework density 22.593371999999999
#
# number of rings (size 3 to 8) (size 9 to 14) (size 15 to 20)
#    0.000    1.167    0.000    6.500    0.000    4.667 
#    0.000    2.500    0.000    6.000    0.000    0.000 
#    0.000    0.000    0.000    0.000    0.000    0.000 
#
# Total GULP energy -594786.407433 kJ/mol
# GULP energy per Si atom -12391.383488 kJ/mol
# Density = 2.254195 g / cm^3
# Si number density = 22.593372 Si / 1000 Ang^3
#
#
#
# Elastic Constant Matrix: (Units=GPa)
#
#
# Indices 1 2 3 4 5 6 
#
# 1 71.4434 10.5879 40.2940 0.0000 0.0000 0.0000
# 2 10.5879 53.4198 -0.2775 0.0000 0.0000 0.0000
# 3 40.2940 -0.2775 125.8784 0.0000 0.0000 0.0000
# 4 0.0000 0.0000 0.0000 44.0727 0.0000 0.0000
# 5 0.0000 0.0000 0.0000 0.0000 41.1891 0.0000
# 6 0.0000 0.0000 0.0000 0.0000 0.0000 25.6375
#
#
#
# Elastic Compliance Matrix: (Units=1/GPa)
#
#
# Indices 1 2 3 4 5 6 
#
# 1 0.017727 -0.003543 -0.005682 0.000000 0.000000 0.000000
# 2 -0.003543 0.019428 0.001177 0.000000 0.000000 0.000000
# 3 -0.005682 0.001177 0.009766 0.000000 0.000000 0.000000
# 4 0.000000 0.000000 0.000000 0.022690 0.000000 0.000000
# 5 0.000000 0.000000 0.000000 0.000000 0.024278 0.000000
# 6 0.000000 0.000000 0.000000 0.000000 0.000000 0.039005
#
#
# Mechanical properties :
#
#
# Convention : Reuss Voigt Hill
#
# Bulk Modulus (GPa) = 32.44229 39.10561 35.77395
# Shear Modulus (GPa) = 31.39416 35.52236 33.45826
#
# Velocity S-wave (km/s) = 3.73168 3.96946 3.85241
# Velocity P-wave (km/s) = 5.74088 6.19313 5.97128
#
# Compressibility (1/GPa) = 0.03082396
#
# Stress axis : x y z
#
# Youngs Moduli (GPa) = 56.41121 51.47212 102.39950
#
# Poissons Ratio (x) = 0.18237 0.58186
# Poissons Ratio (y) = 0.19987 -0.12052
# Poissons Ratio (z) = 0.32054 -0.06058
#
# Static dielectric constant tensor:
#      x y z
#    x 4.199240 0.000000 0.000000 
#    y 0.000000 4.272870 0.000000 
#    z 0.000000 0.000000 4.639350 
# 
# 
# High freq. dielectric constant tensor:
#      x y z
#    x 1.888940 0.000000 0.000000 
#    y 0.000000 1.887850 0.000000 
#    z 0.000000 0.000000 1.909360 
# 
# From -- ./inp_files/26340.got.cif
#   From: 2010.03.12/outbox.cif.g09.slc.cpg/sg64_14_cif.got.tgz:26340.got - 2010.04.10 20:19:32.
