data_PCOD8262315
_publ_section_title
;
Structure prediction by ZEFSAII (Michael W. Deem and Ramdas Pophale) SiO2 
 PCOD8262315
Probable space group: C M C A
;
_chemical_formula_sum "Si O2"
_cell_formula_units_Z 96
_cell_length_a 9.097543
_cell_length_b 19.166015
_cell_length_c 30.186223
_cell_angle_alpha 90.000000
_cell_angle_beta 90.000000
_cell_angle_gamma 90.000000
_cell_volume 5263.379889
_symmetry_space_group_name_H-M "C M C A"
_symmetry_group_IT_number 64
_symmetry_cell_setting 'orthorhombic'
loop_
_space_group_symop_operation_xyz
x,y,z
-x,1/2-y,1/2+z
x,-y,-z
-x,1/2+y,1/2-z
-x,-y,-z
x,1/2+y,1/2-z
-x,y,z
x,1/2-y,1/2+z
1/2+x,1/2+y,z
1/2-x,-y,1/2+z
1/2+x,1/2-y,-z
1/2-x,y,1/2-z
1/2-x,1/2-y,-z
1/2+x,y,1/2-z
1/2-x,1/2+y,z
1/2+x,-y,1/2+z
loop_
_atom_site_type_symbol
_atom_site_label
_atom_site_fract_x
_atom_site_fract_y
_atom_site_fract_z
Si Si1 0.168447 0.403163 0.104080
Si Si2 0.673372 0.922637 0.486632
Si Si3 0.171976 0.850950 0.795737
Si Si4 0.668292 0.748323 0.125177
Si Si5 0.168701 0.453619 0.855230
Si Si6 0.170977 0.352431 0.935042
O O1 0.276584 0.406500 0.062817
O O2 0.193677 0.330875 0.129978
O O3 0.205396 0.464803 0.138670
O O4 0.000000 0.410735 0.087395
O O5 0.500000 0.913964 0.490227
O O6 0.748210 0.866877 0.518955
O O7 0.724809 0.000000 0.500000
O O8 0.250000 0.833627 0.750000
O O9 0.212670 0.787443 0.828533
O O10 0.230195 0.923650 0.816153
O O11 0.000000 0.858380 0.787473
O O12 0.500000 0.730227 0.113574
O O13 0.768107 0.719343 0.085412
O O14 0.204573 0.415731 0.901553
O O15 0.000000 0.440994 0.841648
O O16 0.000000 0.343196 0.944818
#
# Coordination Sequence:
#
# PCOD8262315 Si02
#       6
#    16  16  16  16  16  16
#     4  10  20  36  56  78 108 144 180 221 269 320
#     4  11  22  33  50  77 109 144 185 231 271 312
#     4  10  20  36  59  83 106 135 172 213 261 320
#     4   9  20  37  56  79 109 143 176 218 270 319
#     4   9  18  33  55  80 105 135 174 218 263 313
#     4  10  19  33  54  77 104 143 186 225 263 311
#
# _framework density 18.239231
#
# number of rings (size 3 to 8) (size 9 to 14) (size 15 to 20)
#    0.000    2.167    1.667    1.500    0.000    4.000 
#    0.000    0.833    0.000    2.000    0.000    0.000 
#    0.000    0.000    0.000    0.000    0.000    0.000 
#
# Total GULP energy -595401.317050 kJ/mol
# GULP energy per Si atom -12404.194105 kJ/mol
# Density = 1.819772 g / cm^3
# Si number density = 18.239231 Si / 1000 Ang^3
#
#
#
# Elastic Constant Matrix: (Units=GPa)
#
#
# Indices 1 2 3 4 5 6 
#
# 1 79.6219 38.4066 47.0185 0.0000 0.0000 0.0000
# 2 38.4066 121.9683 41.5339 0.0000 0.0000 0.0000
# 3 47.0185 41.5339 94.6825 0.0000 0.0000 0.0000
# 4 0.0000 0.0000 0.0000 18.9809 0.0000 0.0000
# 5 0.0000 0.0000 0.0000 0.0000 33.1847 0.0000
# 6 0.0000 0.0000 0.0000 0.0000 0.0000 23.4484
#
#
#
# Elastic Compliance Matrix: (Units=1/GPa)
#
#
# Indices 1 2 3 4 5 6 
#
# 1 0.018788 -0.003220 -0.007917 0.000000 0.000000 0.000000
# 2 -0.003220 0.010191 -0.002871 0.000000 0.000000 0.000000
# 3 -0.007917 -0.002871 0.015753 0.000000 0.000000 0.000000
# 4 0.000000 0.000000 0.000000 0.052685 0.000000 0.000000
# 5 0.000000 0.000000 0.000000 0.000000 0.030134 0.000000
# 6 0.000000 0.000000 0.000000 0.000000 0.000000 0.042647
#
#
# Mechanical properties :
#
#
# Convention : Reuss Voigt Hill
#
# Bulk Modulus (GPa) = 59.82992 61.13231 60.48112
# Shear Modulus (GPa) = 24.53557 26.41039 25.47298
#
# Velocity S-wave (km/s) = 3.67169 3.80939 3.74117
# Velocity P-wave (km/s) = 7.13086 7.27587 7.20373
#
# Compressibility (1/GPa) = 0.01671404
#
# Stress axis : x y z
#
# Youngs Moduli (GPa) = 53.22542 98.13031 63.48055
#
# Poissons Ratio (x) = 0.31598 0.50260
# Poissons Ratio (y) = 0.17139 0.18226
# Poissons Ratio (z) = 0.42141 0.28175
#
# Static dielectric constant tensor:
#      x y z
#    x 3.398640 0.000000 0.000000 
#    y 0.000000 3.435500 0.000000 
#    z 0.000000 0.000000 3.149550 
# 
# 
# High freq. dielectric constant tensor:
#      x y z
#    x 1.713140 0.000000 0.000000 
#    y 0.000000 1.706100 0.000000 
#    z 0.000000 0.000000 1.688820 
# 
# From -- ./inp_files/48086.got.cif
#   From: 2010.03.12/outbox.cif.g09.slc.cpg/sg64_25_cif.got.tgz:48086.got - 2010.04.10 20:19:32.
