data_PCOD8262885
_publ_section_title
;
Structure prediction by ZEFSAII (Michael W. Deem and Ramdas Pophale) SiO2 
 PCOD8262885
Probable space group: C M C A
;
_chemical_formula_sum "Si O2"
_cell_formula_units_Z 112
_cell_length_a 16.713534
_cell_length_b 15.211396
_cell_length_c 21.461892
_cell_angle_alpha 90.000000
_cell_angle_beta 90.000000
_cell_angle_gamma 90.000000
_cell_volume 5456.389529
_symmetry_space_group_name_H-M "C M C A"
_symmetry_group_IT_number 64
_symmetry_cell_setting 'orthorhombic'
loop_
_space_group_symop_operation_xyz
x,y,z
-x,1/2-y,1/2+z
x,-y,-z
-x,1/2+y,1/2-z
-x,-y,-z
x,1/2+y,1/2-z
-x,y,z
x,1/2-y,1/2+z
1/2+x,1/2+y,z
1/2-x,-y,1/2+z
1/2+x,1/2-y,-z
1/2-x,y,1/2-z
1/2-x,1/2-y,-z
1/2+x,y,1/2-z
1/2-x,1/2+y,z
1/2+x,-y,1/2+z
loop_
_atom_site_type_symbol
_atom_site_label
_atom_site_fract_x
_atom_site_fract_y
_atom_site_fract_z
Si Si1 0.311865 0.274519 0.803410
Si Si2 0.308785 0.807578 0.393789
Si Si3 0.410135 0.690718 0.474704
Si Si4 0.405068 0.138115 0.723615
Si Si5 0.907838 0.064696 0.227527
Si Si6 0.412553 0.052942 0.134675
Si Si7 0.811090 0.066312 0.555983
O O1 0.250000 0.297655 0.750000
O O2 0.264956 0.251020 0.867097
O O3 0.366192 0.191293 0.781568
O O4 0.361682 0.364685 0.815818
O O5 0.350962 0.768397 0.455024
O O6 0.375382 0.822093 0.341353
O O7 0.273123 0.898047 0.419816
O O8 0.500000 0.723072 0.492015
O O9 0.414298 0.628925 0.415191
O O10 0.372630 0.641721 0.533958
O O11 0.500000 0.148471 0.728325
O O12 0.377442 0.036083 0.723838
O O13 0.892429 0.096032 0.298676
O O14 0.000000 0.069439 0.207517
O O15 0.500000 0.007165 0.139117
O O16 0.349343 0.979479 0.116091
O O17 0.793840 0.000000 0.500000
#
# Coordination Sequence:
#
# PCOD8262885 Si02
#       7
#    16  16  16  16  16  16  16
#     4  10  21  34  54  84 115 146 184 230 275 331
#     4  11  22  36  55  80 112 146 181 228 284 336
#     4  10  20  36  57  77 102 139 183 229 278 335
#     4  10  21  37  56  79 111 152 191 222 266 339
#     4  10  20  34  54  80 114 151 182 220 272 337
#     4   9  17  32  55  80 105 138 181 227 275 323
#     4  10  21  36  56  81 106 137 184 243 289 324
#
# _framework density 20.526392999999999
#
# number of rings (size 3 to 8) (size 9 to 14) (size 15 to 20)
#    0.000    2.000    0.000    4.286    0.000    8.000 
#    0.000    2.143    0.000    3.429    0.000    0.000 
#    0.000    0.000    0.000    0.000    0.000    0.000 
#
# Total GULP energy -694264.243989 kJ/mol
# GULP energy per Si atom -12397.575786 kJ/mol
# Density = 2.047967 g / cm^3
# Si number density = 20.526393 Si / 1000 Ang^3
#
#
#
# Elastic Constant Matrix: (Units=GPa)
#
#
# Indices 1 2 3 4 5 6 
#
# 1 96.7497 42.5116 6.3148 0.0000 0.0000 0.0000
# 2 42.5116 97.0162 -7.1840 0.0000 0.0000 0.0000
# 3 6.3148 -7.1840 19.2430 0.0000 0.0000 0.0000
# 4 0.0000 0.0000 0.0000 16.1004 0.0000 0.0000
# 5 0.0000 0.0000 0.0000 0.0000 23.2515 0.0000
# 6 0.0000 0.0000 0.0000 0.0000 0.0000 41.4275
#
#
#
# Elastic Compliance Matrix: (Units=1/GPa)
#
#
# Indices 1 2 3 4 5 6 
#
# 1 0.013636 -0.006486 -0.006896 0.000000 0.000000 0.000000
# 2 -0.006486 0.013686 0.007238 0.000000 0.000000 0.000000
# 3 -0.006896 0.007238 0.056932 0.000000 0.000000 0.000000
# 4 0.000000 0.000000 0.000000 0.062110 0.000000 0.000000
# 5 0.000000 0.000000 0.000000 0.000000 0.043008 0.000000
# 6 0.000000 0.000000 0.000000 0.000000 0.000000 0.024139
#
#
# Mechanical properties :
#
#
# Convention : Reuss Voigt Hill
#
# Bulk Modulus (GPa) = 13.89570 32.92153 23.40861
# Shear Modulus (GPa) = 20.01704 27.58030 23.79867
#
# Velocity S-wave (km/s) = 3.12618 3.66956 3.40872
# Velocity P-wave (km/s) = 4.45141 5.83333 5.18858
#
# Compressibility (1/GPa) = 0.07196473
#
# Stress axis : x y z
#
# Youngs Moduli (GPa) = 73.33588 73.07002 17.56484
#
# Poissons Ratio (x) = 0.47392 0.12113
# Poissons Ratio (y) = 0.47564 -0.12713
# Poissons Ratio (z) = 0.50573 -0.52885
#
# Static dielectric constant tensor:
#      x y z
#    x 3.933560 0.000000 0.000000 
#    y 0.000000 3.789460 0.000000 
#    z 0.000000 0.000000 3.641430 
# 
# 
# High freq. dielectric constant tensor:
#      x y z
#    x 1.808800 0.000000 0.000000 
#    y 0.000000 1.797750 0.000000 
#    z 0.000000 0.000000 1.783330 
# 
# From -- ./inp_files/45237.got.cif
#   From: 2010.03.12/outbox.cif.g09.slc.cpg/sg64_23_cif.got.tgz:45237.got - 2010.04.10 20:19:32.
