data_PCOD8262743
_publ_section_title
;
Structure prediction by ZEFSAII (Michael W. Deem and Ramdas Pophale) SiO2 
 PCOD8262743
Probable space group: C M C A
;
_chemical_formula_sum "Si O2"
_cell_formula_units_Z 80
_cell_length_a 18.324070
_cell_length_b 25.233755
_cell_length_c 9.975169
_cell_angle_alpha 90.000000
_cell_angle_beta 90.000000
_cell_angle_gamma 90.000000
_cell_volume 4612.369446
_symmetry_space_group_name_H-M "C M C A"
_symmetry_group_IT_number 64
_symmetry_cell_setting 'orthorhombic'
loop_
_space_group_symop_operation_xyz
x,y,z
-x,1/2-y,1/2+z
x,-y,-z
-x,1/2+y,1/2-z
-x,-y,-z
x,1/2+y,1/2-z
-x,y,z
x,1/2-y,1/2+z
1/2+x,1/2+y,z
1/2-x,-y,1/2+z
1/2+x,1/2-y,-z
1/2-x,y,1/2-z
1/2-x,1/2-y,-z
1/2+x,y,1/2-z
1/2-x,1/2+y,z
1/2+x,-y,1/2+z
loop_
_atom_site_type_symbol
_atom_site_label
_atom_site_fract_x
_atom_site_fract_y
_atom_site_fract_z
Si Si1 0.419702 0.407469 0.015838
Si Si2 0.000000 0.211653 0.616708
Si Si3 0.000000 0.308359 0.421160
Si Si4 0.164055 0.045419 0.746888
Si Si5 0.584770 0.562176 0.275910
Si Si6 0.419529 0.385190 0.453293
O O1 0.500000 0.434800 0.027572
O O2 0.363444 0.440343 0.104780
O O3 0.427998 0.345931 0.062871
O O4 0.391626 0.410137 0.863019
O O5 0.000000 0.267423 0.543140
O O6 0.927704 0.178162 0.572259
O O7 0.000000 0.220660 0.777479
O O8 0.250000 0.040692 0.750000
O O9 0.140751 0.091468 0.645200
O O10 0.130986 0.990385 0.696530
O O11 0.500000 0.546881 0.275738
O O12 0.603197 0.603918 0.393422
O O13 0.500000 0.411080 0.422191
#
# Coordination Sequence:
#
# PCOD8262743 Si02
#       6
#    16   8   8  16  16  16
#     4   9  19  37  53  82 111 141 180 229 278 323
#     4  10  20  34  61  87 108 130 177 233 287 326
#     4  10  20  34  61  87 108 130 177 233 287 326
#     4  12  22  34  52  78 116 158 188 216 260 324
#     4  10  20  32  56  78 112 146 184 222 272 322
#     4   9  19  37  53  82 111 141 180 229 278 323
#
# _framework density 17.344664000000002
#
# number of rings (size 3 to 8) (size 9 to 14) (size 15 to 20)
#    1.200    0.800    2.000    3.000    2.800    6.400 
#    0.000    0.000    0.000    1.200    0.000    0.000 
#    0.000    0.000    0.000    0.000    0.000    0.000 
#
# Total GULP energy -495738.709618 kJ/mol
# GULP energy per Si atom -12393.467740 kJ/mol
# Density = 1.730519 g / cm^3
# Si number density = 17.344664 Si / 1000 Ang^3
#
#
#
# Elastic Constant Matrix: (Units=GPa)
#
#
# Indices 1 2 3 4 5 6 
#
# 1 59.6114 7.5638 18.1938 0.0000 0.0000 0.0000
# 2 7.5638 55.5964 2.8309 0.0000 0.0000 0.0000
# 3 18.1938 2.8309 85.0066 0.0000 0.0000 0.0000
# 4 0.0000 0.0000 0.0000 35.6502 0.0000 0.0000
# 5 0.0000 0.0000 0.0000 0.0000 137.5550 0.0000
# 6 0.0000 0.0000 0.0000 0.0000 0.0000 0.3745
#
#
#
# Elastic Compliance Matrix: (Units=1/GPa)
#
#
# Indices 1 2 3 4 5 6 
#
# 1 0.018233 -0.002286 -0.003826 0.000000 0.000000 0.000000
# 2 -0.002286 0.018304 -0.000120 0.000000 0.000000 0.000000
# 3 -0.003826 -0.000120 0.012587 0.000000 0.000000 0.000000
# 4 0.000000 0.000000 0.000000 0.028050 0.000000 0.000000
# 5 0.000000 0.000000 0.000000 0.000000 0.007270 0.000000
# 6 0.000000 0.000000 0.000000 0.000000 0.000000 2.670345
#
#
# Mechanical properties :
#
#
# Convention : Reuss Voigt Hill
#
# Bulk Modulus (GPa) = 27.27844 28.59904 27.93874
# Shear Modulus (GPa) = 1.79890 46.15768 23.97829
#
# Velocity S-wave (km/s) = 1.01951 5.16428 3.72218
# Velocity P-wave (km/s) = 4.14093 7.21694 5.88352
#
# Compressibility (1/GPa) = 0.03665899
#
# Stress axis : x y z
#
# Youngs Moduli (GPa) = 54.84518 54.63327 79.44877
#
# Poissons Ratio (x) = 0.12488 0.30399
# Poissons Ratio (y) = 0.12536 0.00956
# Poissons Ratio (z) = 0.20985 0.00657
#
# Static dielectric constant tensor:
#      x y z
#    x 2.846940 0.000000 0.000000 
#    y 0.000000 2.984260 0.000000 
#    z 0.000000 0.000000 3.384360 
# 
# 
# High freq. dielectric constant tensor:
#      x y z
#    x 1.623660 0.000000 0.000000 
#    y 0.000000 1.648570 0.000000 
#    z 0.000000 0.000000 1.693390 
# 
# From -- ./inp_files/7290.got.cif
#   From: 2010.03.12/outbox.cif.g09.slc.cpg/sg64_4_cif.got.tgz:7290.got - 2010.04.10 20:19:32.
