data_PCOD8262504
_publ_section_title
;
Structure prediction by ZEFSAII (Michael W. Deem and Ramdas Pophale) SiO2 
 PCOD8262504
Probable space group: C M C A
;
_chemical_formula_sum "Si O2"
_cell_formula_units_Z 64
_cell_length_a 18.220554
_cell_length_b 13.292675
_cell_length_c 14.855063
_cell_angle_alpha 90.000000
_cell_angle_beta 90.000000
_cell_angle_gamma 90.000000
_cell_volume 3597.894812
_symmetry_space_group_name_H-M "C M C A"
_symmetry_group_IT_number 64
_symmetry_cell_setting 'orthorhombic'
loop_
_space_group_symop_operation_xyz
x,y,z
-x,1/2-y,1/2+z
x,-y,-z
-x,1/2+y,1/2-z
-x,-y,-z
x,1/2+y,1/2-z
-x,y,z
x,1/2-y,1/2+z
1/2+x,1/2+y,z
1/2-x,-y,1/2+z
1/2+x,1/2-y,-z
1/2-x,y,1/2-z
1/2-x,1/2-y,-z
1/2+x,y,1/2-z
1/2-x,1/2+y,z
1/2+x,-y,1/2+z
loop_
_atom_site_type_symbol
_atom_site_label
_atom_site_fract_x
_atom_site_fract_y
_atom_site_fract_z
Si Si1 0.913572 0.658759 0.761960
Si Si2 0.163263 0.209346 0.099860
Si Si3 0.181673 0.694957 0.603693
Si Si4 0.680698 0.005635 0.308305
O O1 0.890102 0.708490 0.856022
O O2 0.878648 0.724492 0.679572
O O3 0.881733 0.544792 0.755779
O O4 0.000000 0.656298 0.752704
O O5 0.248338 0.234085 0.117605
O O6 0.145829 0.100250 0.140839
O O7 0.145841 0.209472 0.993959
O O8 0.206158 0.578399 0.618248
O O9 0.750000 0.040332 0.250000
#
# Coordination Sequence:
#
# PCOD8262504 Si02
#       4
#    16  16  16  16
#     4  10  21  36  50  79 115 143 181 225 274 337
#     4  11  19  36  61  82 106 146 185 235 283 315
#     4   9  20  36  56  87 105 138 192 232 276 326
#     4  10  19  35  56  79 112 140 183 228 277 330
#
# _framework density 17.788180000000001
#
# number of rings (size 3 to 8) (size 9 to 14) (size 15 to 20)
#    1.500    0.500    2.500    3.000    0.000    2.000 
#    0.000    1.250    0.000    0.000    0.000    7.000 
#    0.000    0.000    0.000    0.000    0.000    0.000 
#
# Total GULP energy -396624.239525 kJ/mol
# GULP energy per Si atom -12394.507485 kJ/mol
# Density = 1.774769 g / cm^3
# Si number density = 17.788180 Si / 1000 Ang^3
#
#
#
# Elastic Constant Matrix: (Units=GPa)
#
#
# Indices 1 2 3 4 5 6 
#
# 1 83.7994 -0.1368 28.9580 0.0000 0.0000 0.0000
# 2 -0.1368 70.9822 16.1462 0.0000 0.0000 0.0000
# 3 28.9580 16.1462 74.5980 0.0000 0.0000 0.0000
# 4 0.0000 0.0000 0.0000 20.5034 0.0000 0.0000
# 5 0.0000 0.0000 0.0000 0.0000 15.9740 0.0000
# 6 0.0000 0.0000 0.0000 0.0000 0.0000 6.2282
#
#
#
# Elastic Compliance Matrix: (Units=1/GPa)
#
#
# Indices 1 2 3 4 5 6 
#
# 1 0.013898 0.001319 -0.005681 0.000000 0.000000 0.000000
# 2 0.001319 0.014943 -0.003746 0.000000 0.000000 0.000000
# 3 -0.005681 -0.003746 0.016421 0.000000 0.000000 0.000000
# 4 0.000000 0.000000 0.000000 0.048772 0.000000 0.000000
# 5 0.000000 0.000000 0.000000 0.000000 0.062602 0.000000
# 6 0.000000 0.000000 0.000000 0.000000 0.000000 0.160559
#
#
# Mechanical properties :
#
#
# Convention : Reuss Voigt Hill
#
# Bulk Modulus (GPa) = 34.42763 35.47938 34.95351
# Shear Modulus (GPa) = 14.57328 20.83528 17.70428
#
# Velocity S-wave (km/s) = 2.86539 3.42614 3.15823
# Velocity P-wave (km/s) = 5.50850 5.96993 5.74385
#
# Compressibility (1/GPa) = 0.02904643
#
# Stress axis : x y z
#
# Youngs Moduli (GPa) = 71.95055 66.92221 60.89696
#
# Poissons Ratio (x) = -0.08827 0.34594
# Poissons Ratio (y) = -0.09490 0.22813
# Poissons Ratio (z) = 0.40873 0.25071
#
# Static dielectric constant tensor:
#      x y z
#    x 2.914560 0.000000 0.000000 
#    y 0.000000 3.137300 0.000000 
#    z 0.000000 0.000000 3.358040 
# 
# 
# High freq. dielectric constant tensor:
#      x y z
#    x 1.660460 0.000000 0.000000 
#    y 0.000000 1.681090 0.000000 
#    z 0.000000 0.000000 1.689640 
# 
# From -- ./inp_files/24887.got.cif
#   From: 2010.03.12/outbox.cif.g09.slc.cpg/sg64_13_cif.got.tgz:24887.got - 2010.04.10 20:19:32.
