data_PCOD8262824
_publ_section_title
;
Structure prediction by ZEFSAII (Michael W. Deem and Ramdas Pophale) SiO2 
 PCOD8262824
Probable space group: C M C A
;
_chemical_formula_sum "Si O2"
_cell_formula_units_Z 96
_cell_length_a 9.281482
_cell_length_b 18.926262
_cell_length_c 31.177377
_cell_angle_alpha 90.000000
_cell_angle_beta 90.000000
_cell_angle_gamma 90.000000
_cell_volume 5476.735273
_symmetry_space_group_name_H-M "C M C A"
_symmetry_group_IT_number 64
_symmetry_cell_setting 'orthorhombic'
loop_
_space_group_symop_operation_xyz
x,y,z
-x,1/2-y,1/2+z
x,-y,-z
-x,1/2+y,1/2-z
-x,-y,-z
x,1/2+y,1/2-z
-x,y,z
x,1/2-y,1/2+z
1/2+x,1/2+y,z
1/2-x,-y,1/2+z
1/2+x,1/2-y,-z
1/2-x,y,1/2-z
1/2-x,1/2-y,-z
1/2+x,y,1/2-z
1/2-x,1/2+y,z
1/2+x,-y,1/2+z
loop_
_atom_site_type_symbol
_atom_site_label
_atom_site_fract_x
_atom_site_fract_y
_atom_site_fract_z
Si Si1 0.163618 0.811617 0.543977
Si Si2 0.837781 0.677384 0.137169
Si Si3 0.167938 0.067303 0.792226
Si Si4 0.335256 0.329082 0.452357
Si Si5 0.168023 0.596184 0.292453
Si Si6 0.333807 0.843411 0.372212
O O1 0.180558 0.854308 0.588782
O O2 0.283849 0.751457 0.543994
O O3 0.183966 0.860471 0.501131
O O4 0.000000 0.778900 0.543241
O O5 0.722689 0.640441 0.167279
O O6 0.805888 0.760960 0.136190
O O7 0.000000 0.663200 0.154141
O O8 0.250000 0.093741 0.750000
O O9 0.227685 0.112342 0.832181
O O10 0.000000 0.081217 0.784552
O O11 0.201302 0.985583 0.801571
O O12 0.500000 0.331263 0.437548
O O13 0.244861 0.369624 0.415823
O O14 0.250000 0.622310 0.250000
O O15 0.000000 0.610706 0.285903
O O16 0.500000 0.861154 0.378715
#
# Coordination Sequence:
#
# PCOD8262824 Si02
#       6
#    16  16  16  16  16  16
#     4   8  15  27  42  63  94 127 154 184 225 269
#     4   9  17  30  48  70  96 123 150 186 231 271
#     4   9  19  35  52  68  89 120 156 191 229 275
#     4   9  15  24  42  68  94 121 155 189 222 267
#     4  10  20  34  51  69  90 119 155 191 228 275
#     4   9  18  32  48  69  97 124 150 187 234 273
#
# _framework density 17.528690999999998
#
# number of rings (size 3 to 8) (size 9 to 14) (size 15 to 20)
#    0.000    3.000    0.000    2.000    0.000    5.333 
#    0.000    1.667    0.000    1.000    0.000    7.000 
#    0.000    0.000    0.000    0.000    0.000    0.000 
#
# Total GULP energy -594815.230611 kJ/mol
# GULP energy per Si atom -12391.983971 kJ/mol
# Density = 1.748880 g / cm^3
# Si number density = 17.528691 Si / 1000 Ang^3
#
#
#
# Elastic Constant Matrix: (Units=GPa)
#
#
# Indices 1 2 3 4 5 6 
#
# 1 77.4978 25.0013 67.9579 0.0000 0.0000 0.0000
# 2 25.0013 30.2766 44.1432 0.0000 0.0000 0.0000
# 3 67.9579 44.1432 172.7517 0.0000 0.0000 0.0000
# 4 0.0000 0.0000 0.0000 1.6967 0.0000 0.0000
# 5 0.0000 0.0000 0.0000 0.0000 36.6183 0.0000
# 6 0.0000 0.0000 0.0000 0.0000 0.0000 16.5757
#
#
#
# Elastic Compliance Matrix: (Units=1/GPa)
#
#
# Indices 1 2 3 4 5 6 
#
# 1 0.020967 -0.008428 -0.006094 0.000000 0.000000 0.000000
# 2 -0.008428 0.056028 -0.011002 0.000000 0.000000 0.000000
# 3 -0.006094 -0.011002 0.010997 0.000000 0.000000 0.000000
# 4 0.000000 0.000000 0.000000 0.589393 0.000000 0.000000
# 5 0.000000 0.000000 0.000000 0.000000 0.027309 0.000000
# 6 0.000000 0.000000 0.000000 0.000000 0.000000 0.060329
#
#
# Mechanical properties :
#
#
# Convention : Reuss Voigt Hill
#
# Bulk Modulus (GPa) = 27.06743 61.63678 44.35210
# Shear Modulus (GPa) = 6.03583 20.53972 13.28777
#
# Velocity S-wave (km/s) = 1.85765 3.42684 2.75627
# Velocity P-wave (km/s) = 4.48068 7.13424 5.95709
#
# Compressibility (1/GPa) = 0.03694477
#
# Stress axis : x y z
#
# Youngs Moduli (GPa) = 47.69470 17.84807 90.93127
#
# Poissons Ratio (x) = 0.15042 0.55417
# Poissons Ratio (y) = 0.40197 1.00038
# Poissons Ratio (z) = 0.29067 0.19636
#
# Static dielectric constant tensor:
#      x y z
#    x 3.281790 0.000000 0.000000 
#    y 0.000000 2.799000 0.000000 
#    z 0.000000 0.000000 3.757680 
# 
# 
# High freq. dielectric constant tensor:
#      x y z
#    x 1.682610 0.000000 0.000000 
#    y 0.000000 1.615860 0.000000 
#    z 0.000000 0.000000 1.702290 
# 
# From -- ./inp_files/48386.got.cif
#   From: 2010.03.12/outbox.cif.g09.slc.cpg/sg64_25_cif.got.tgz:48386.got - 2010.04.10 20:19:32.
