data_PCOD8262447
_publ_section_title
;
Structure prediction by ZEFSAII (Michael W. Deem and Ramdas Pophale) SiO2 
 PCOD8262447
Probable space group: C M C A
;
_chemical_formula_sum "Si O2"
_cell_formula_units_Z 112
_cell_length_a 21.485345
_cell_length_b 17.278493
_cell_length_c 16.307813
_cell_angle_alpha 90.000000
_cell_angle_beta 90.000000
_cell_angle_gamma 90.000000
_cell_volume 6054.020900
_symmetry_space_group_name_H-M "C M C A"
_symmetry_group_IT_number 64
_symmetry_cell_setting 'orthorhombic'
loop_
_space_group_symop_operation_xyz
x,y,z
-x,1/2-y,1/2+z
x,-y,-z
-x,1/2+y,1/2-z
-x,-y,-z
x,1/2+y,1/2-z
-x,y,z
x,1/2-y,1/2+z
1/2+x,1/2+y,z
1/2-x,-y,1/2+z
1/2+x,1/2-y,-z
1/2-x,y,1/2-z
1/2-x,1/2-y,-z
1/2+x,y,1/2-z
1/2-x,1/2+y,z
1/2+x,-y,1/2+z
loop_
_atom_site_type_symbol
_atom_site_label
_atom_site_fract_x
_atom_site_fract_y
_atom_site_fract_z
Si Si1 0.140028 0.081332 0.045359
Si Si2 0.740828 0.300563 0.919778
Si Si3 0.636008 0.195360 0.164127
Si Si4 0.068969 0.323457 0.413884
Si Si5 0.429301 0.423956 0.783572
Si Si6 0.069470 0.597105 0.758820
Si Si7 0.812439 0.815238 0.286941
O O1 0.205637 0.118457 0.068872
O O2 0.098381 0.069501 0.125685
O O3 0.111549 0.144916 0.985587
O O4 0.149742 0.000000 0.000000
O O5 0.806104 0.335738 0.888113
O O6 0.703699 0.243568 0.859252
O O7 0.750000 0.250000 0.000000
O O8 0.583869 0.233021 0.104998
O O9 0.609257 0.133301 0.226402
O O10 0.662861 0.268088 0.211038
O O11 0.076038 0.377793 0.334988
O O12 0.000000 0.326907 0.448980
O O13 0.500000 0.393863 0.791397
O O14 0.426685 0.505114 0.737161
O O15 0.129004 0.628880 0.811681
O O16 0.000000 0.623754 0.791759
O O17 0.750000 0.858469 0.250000
#
# Coordination Sequence:
#
# PCOD8262447 Si02
#       7
#    16  16  16  16  16  16  16
#     4  12  23  37  58  90 123 154 192 241 306 355
#     4  11  22  41  61  80 117 155 196 245 293 352
#     4  10  20  38  58  82 114 154 196 242 287 353
#     4  10  19  34  57  83 116 155 191 236 296 353
#     4  11  22  37  60  88 120 155 195 245 302 361
#     4   9  19  36  57  85 119 154 192 246 299 350
#     4   9  19  36  59  84 112 150 198 242 291 348
#
# _framework density 18.500101000000001
#
# number of rings (size 3 to 8) (size 9 to 14) (size 15 to 20)
#    0.000    1.714    4.286    0.857    0.000    1.143 
#    5.143    0.000    0.000    0.000    0.000    2.000 
#    0.000    0.000    0.000    0.000    0.000    0.000 
#
# Total GULP energy -693855.602077 kJ/mol
# GULP energy per Si atom -12390.278609 kJ/mol
# Density = 1.845799 g / cm^3
# Si number density = 18.500101 Si / 1000 Ang^3
#
#
#
# Elastic Constant Matrix: (Units=GPa)
#
#
# Indices 1 2 3 4 5 6 
#
# 1 113.5178 40.4510 24.7266 0.0000 0.0000 0.0000
# 2 40.4510 61.1336 24.0847 0.0000 0.0000 0.0000
# 3 24.7266 24.0847 51.5386 0.0000 0.0000 0.0000
# 4 0.0000 0.0000 0.0000 31.2841 0.0000 0.0000
# 5 0.0000 0.0000 0.0000 0.0000 24.7664 0.0000
# 6 0.0000 0.0000 0.0000 0.0000 0.0000 26.6169
#
#
#
# Elastic Compliance Matrix: (Units=1/GPa)
#
#
# Indices 1 2 3 4 5 6 
#
# 1 0.011777 -0.006822 -0.002462 0.000000 0.000000 0.000000
# 2 -0.006822 0.024001 -0.007943 0.000000 0.000000 0.000000
# 3 -0.002462 -0.007943 0.024296 0.000000 0.000000 0.000000
# 4 0.000000 0.000000 0.000000 0.031965 0.000000 0.000000
# 5 0.000000 0.000000 0.000000 0.000000 0.040377 0.000000
# 6 0.000000 0.000000 0.000000 0.000000 0.000000 0.037570
#
#
# Mechanical properties :
#
#
# Convention : Reuss Voigt Hill
#
# Bulk Modulus (GPa) = 39.03307 44.96829 42.00068
# Shear Modulus (GPa) = 23.47641 25.66202 24.56921
#
# Velocity S-wave (km/s) = 3.56615 3.72846 3.64821
# Velocity P-wave (km/s) = 6.17262 6.54943 6.36381
#
# Compressibility (1/GPa) = 0.02561930
#
# Stress axis : x y z
#
# Youngs Moduli (GPa) = 84.91462 41.66470 41.15937
#
# Poissons Ratio (x) = 0.28426 0.10133
# Poissons Ratio (y) = 0.57933 0.32692
# Poissons Ratio (z) = 0.20904 0.33094
#
# Static dielectric constant tensor:
#      x y z
#    x 4.360620 0.000000 0.000000 
#    y 0.000000 3.141020 0.000000 
#    z 0.000000 0.000000 3.963760 
# 
# 
# High freq. dielectric constant tensor:
#      x y z
#    x 1.740220 0.000000 0.000000 
#    y 0.000000 1.702880 0.000000 
#    z 0.000000 0.000000 1.700350 
# 
# From -- ./inp_files/27415.got.cif
#   From: 2010.03.12/outbox.cif.g09.slc.cpg/sg64_14_cif.got.tgz:27415.got - 2010.04.10 20:19:32.
