data_PCOD8262352
_publ_section_title
;
Structure prediction by ZEFSAII (Michael W. Deem and Ramdas Pophale) SiO2 
 PCOD8262352
Probable space group: C M C A
;
_chemical_formula_sum "Si O2"
_cell_formula_units_Z 120
_cell_length_a 18.367712
_cell_length_b 21.417174
_cell_length_c 16.185082
_cell_angle_alpha 90.000000
_cell_angle_beta 90.000000
_cell_angle_gamma 90.000000
_cell_volume 6366.960129
_symmetry_space_group_name_H-M "C M C A"
_symmetry_group_IT_number 64
_symmetry_cell_setting 'orthorhombic'
loop_
_space_group_symop_operation_xyz
x,y,z
-x,1/2-y,1/2+z
x,-y,-z
-x,1/2+y,1/2-z
-x,-y,-z
x,1/2+y,1/2-z
-x,y,z
x,1/2-y,1/2+z
1/2+x,1/2+y,z
1/2-x,-y,1/2+z
1/2+x,1/2-y,-z
1/2-x,y,1/2-z
1/2-x,1/2-y,-z
1/2+x,y,1/2-z
1/2-x,1/2+y,z
1/2+x,-y,1/2+z
loop_
_atom_site_type_symbol
_atom_site_label
_atom_site_fract_x
_atom_site_fract_y
_atom_site_fract_z
Si Si1 0.670627 0.793005 0.129713
Si Si2 0.580277 0.851425 0.400085
Si Si3 0.250000 0.794995 0.750000
Si Si4 0.583411 0.220786 0.024975
Si Si5 0.230168 0.108139 0.943468
Si Si6 0.317390 0.377101 0.606073
Si Si7 0.081497 0.106545 0.715420
Si Si8 0.302162 0.008424 0.826130
O O1 0.688870 0.746618 0.204347
O O2 0.635645 0.757979 0.051017
O O3 0.744342 0.830329 0.106931
O O4 0.608122 0.842316 0.150924
O O5 0.500000 0.872530 0.432672
O O6 0.589906 0.777316 0.410938
O O7 0.642225 0.891749 0.446176
O O8 0.587729 0.862596 0.303916
O O9 0.288541 0.836609 0.818309
O O10 0.500000 0.209810 0.997259
O O11 0.612645 0.156768 0.066211
O O12 0.259879 0.046047 0.898225
O O13 0.255338 0.113142 0.037556
O O14 0.337886 0.445713 0.637649
O O15 0.000000 0.086557 0.692483
O O16 0.130812 0.045791 0.711394
O O17 0.250000 0.991740 0.750000
#
# Coordination Sequence:
#
# PCOD8262352 Si02
#       8
#    16  16   8  16  16  16  16  16
#     4  10  20  33  56  84 113 149 187 236 292 345
#     4  10  19  33  56  83 111 147 187 229 281 340
#     4  12  22  34  56  88 124 150 192 248 290 354
#     4  10  21  37  56  83 121 156 188 232 293 364
#     4  10  20  37  59  81 110 150 197 243 283 342
#     4  11  23  37  57  86 116 154 196 239 299 348
#     4  10  20  34  57  84 109 142 189 239 285 337
#     4  11  21  38  59  83 112 151 196 248 290 344
#
# _framework density 18.847299
#
# number of rings (size 3 to 8) (size 9 to 14) (size 15 to 20)
#    0.000    1.600    2.000    4.000    1.867    2.667 
#    0.000    0.667    0.000    8.000    0.000    0.000 
#    0.000    0.000    0.000    0.000    0.000    0.000 
#
# Total GULP energy -743967.367657 kJ/mol
# GULP energy per Si atom -12399.456128 kJ/mol
# Density = 1.880440 g / cm^3
# Si number density = 18.847299 Si / 1000 Ang^3
#
#
#
# Elastic Constant Matrix: (Units=GPa)
#
#
# Indices 1 2 3 4 5 6 
#
# 1 123.7143 45.7756 38.5720 0.0000 0.0000 0.0000
# 2 45.7756 96.2384 43.5954 0.0000 0.0000 0.0000
# 3 38.5720 43.5954 101.7919 0.0000 0.0000 0.0000
# 4 0.0000 0.0000 0.0000 24.3810 0.0000 0.0000
# 5 0.0000 0.0000 0.0000 0.0000 23.2731 0.0000
# 6 0.0000 0.0000 0.0000 0.0000 0.0000 20.4875
#
#
#
# Elastic Compliance Matrix: (Units=1/GPa)
#
#
# Indices 1 2 3 4 5 6 
#
# 1 0.010197 -0.003846 -0.002217 0.000000 0.000000 0.000000
# 2 -0.003846 0.014343 -0.004685 0.000000 0.000000 0.000000
# 3 -0.002217 -0.004685 0.012671 0.000000 0.000000 0.000000
# 4 0.000000 0.000000 0.000000 0.041016 0.000000 0.000000
# 5 0.000000 0.000000 0.000000 0.000000 0.042968 0.000000
# 6 0.000000 0.000000 0.000000 0.000000 0.000000 0.048810
#
#
# Mechanical properties :
#
#
# Convention : Reuss Voigt Hill
#
# Bulk Modulus (GPa) = 63.63697 64.18117 63.90907
# Shear Modulus (GPa) = 25.41434 26.54842 25.98138
#
# Velocity S-wave (km/s) = 3.67609 3.75721 3.71687
# Velocity P-wave (km/s) = 7.20111 7.27663 7.23897
#
# Compressibility (1/GPa) = 0.01571414
#
# Stress axis : x y z
#
# Youngs Moduli (GPa) = 98.06380 69.72203 78.92277
#
# Poissons Ratio (x) = 0.26816 0.17496
# Poissons Ratio (y) = 0.37717 0.36977
# Poissons Ratio (z) = 0.21740 0.32667
#
# Static dielectric constant tensor:
#      x y z
#    x 3.560000 0.000000 0.000000 
#    y 0.000000 3.408990 0.000000 
#    z 0.000000 0.000000 3.545060 
# 
# 
# High freq. dielectric constant tensor:
#      x y z
#    x 1.731650 0.000000 0.000000 
#    y 0.000000 1.723800 0.000000 
#    z 0.000000 0.000000 1.740300 
# 
# From -- ./inp_files/33672.got.cif
#   From: 2010.03.12/outbox.cif.g09.slc.cpg/sg64_17_cif.got.tgz:33672.got - 2010.04.10 20:19:32.
