data_PCOD8262995
_publ_section_title
;
Structure prediction by ZEFSAII (Michael W. Deem and Ramdas Pophale) SiO2 
 PCOD8262995
Probable space group: C M C A
;
_chemical_formula_sum "Si O2"
_cell_formula_units_Z 72
_cell_length_a 27.858293
_cell_length_b 16.133156
_cell_length_c 6.352432
_cell_angle_alpha 90.000000
_cell_angle_beta 90.000000
_cell_angle_gamma 90.000000
_cell_volume 2855.050930
_symmetry_space_group_name_H-M "C M C A"
_symmetry_group_IT_number 64
_symmetry_cell_setting 'orthorhombic'
loop_
_space_group_symop_operation_xyz
x,y,z
-x,1/2-y,1/2+z
x,-y,-z
-x,1/2+y,1/2-z
-x,-y,-z
x,1/2+y,1/2-z
-x,y,z
x,1/2-y,1/2+z
1/2+x,1/2+y,z
1/2-x,-y,1/2+z
1/2+x,1/2-y,-z
1/2-x,y,1/2-z
1/2-x,1/2-y,-z
1/2+x,y,1/2-z
1/2-x,1/2+y,z
1/2+x,-y,1/2+z
loop_
_atom_site_type_symbol
_atom_site_label
_atom_site_fract_x
_atom_site_fract_y
_atom_site_fract_z
Si Si1 0.765354 0.904389 0.485083
Si Si2 0.836869 0.865873 0.909324
Si Si3 0.855766 0.179892 0.626275
Si Si4 0.946572 0.915996 0.374131
Si Si5 0.596768 0.500000 0.000000
O O1 0.750000 0.877775 0.250000
O O2 0.719878 0.883705 0.639838
O O3 0.814097 0.850060 0.542868
O O4 0.779071 0.000000 0.500000
O O5 0.843092 0.868554 0.162271
O O6 0.869998 0.943796 0.840751
O O7 0.855093 0.777461 0.822132
O O8 0.908324 0.152735 0.544227
O O9 0.000000 0.878214 0.399422
O O10 0.940928 0.000000 0.500000
O O11 0.937202 0.938330 0.130781
#
# Coordination Sequence:
#
# PCOD8262995 Si02
#       5
#    16  16  16  16   8
#     4  10  20  35  55  86 119 158 201 243 303 376
#     4  10  21  37  58  87 121 155 200 246 307 371
#     4  10  22  36  57  87 119 154 200 253 304 363
#     4  10  22  41  64  90 119 158 207 253 309 368
#     4  10  21  40  66  88 122 162 203 252 308 372
#
# _framework density 25.218464999999998
#
# number of rings (size 3 to 8) (size 9 to 14) (size 15 to 20)
#    0.000    2.000    1.111    1.667    3.111    1.778 
#    0.000    5.556    0.000    0.000    0.000    0.000 
#    0.000    0.000    0.000    0.000    0.000    0.000 
#
# Total GULP energy -446529.375323 kJ/mol
# GULP energy per Si atom -12403.593759 kJ/mol
# Density = 2.516107 g / cm^3
# Si number density = 25.218465 Si / 1000 Ang^3
#
#
#
# Elastic Constant Matrix: (Units=GPa)
#
#
# Indices 1 2 3 4 5 6 
#
# 1 216.1981 86.4050 30.6907 0.0000 0.0000 0.0000
# 2 86.4050 153.9872 1.4285 0.0000 0.0000 0.0000
# 3 30.6907 1.4285 31.1114 0.0000 0.0000 0.0000
# 4 0.0000 0.0000 0.0000 36.0574 0.0000 0.0000
# 5 0.0000 0.0000 0.0000 0.0000 30.5924 0.0000
# 6 0.0000 0.0000 0.0000 0.0000 0.0000 43.3115
#
#
#
# Elastic Compliance Matrix: (Units=1/GPa)
#
#
# Indices 1 2 3 4 5 6 
#
# 1 0.007195 -0.003973 -0.006915 0.000000 0.000000 0.000000
# 2 -0.003973 0.008691 0.003520 0.000000 0.000000 0.000000
# 3 -0.006915 0.003520 0.038803 0.000000 0.000000 0.000000
# 4 0.000000 0.000000 0.000000 0.027734 0.000000 0.000000
# 5 0.000000 0.000000 0.000000 0.000000 0.032688 0.000000
# 6 0.000000 0.000000 0.000000 0.000000 0.000000 0.023089
#
#
# Mechanical properties :
#
#
# Convention : Reuss Voigt Hill
#
# Bulk Modulus (GPa) = 25.02979 70.92722 47.97850
# Shear Modulus (GPa) = 30.07490 40.84376 35.45933
#
# Velocity S-wave (km/s) = 3.45711 4.02879 3.75385
# Velocity P-wave (km/s) = 5.08746 7.05887 6.15264
#
# Compressibility (1/GPa) = 0.03995239
#
# Stress axis : x y z
#
# Youngs Moduli (GPa) = 138.98748 115.06508 25.77143
#
# Poissons Ratio (x) = 0.45716 0.17821
# Poissons Ratio (y) = 0.55220 -0.09072
# Poissons Ratio (z) = 0.96112 -0.40506
#
# Static dielectric constant tensor:
#      x y z
#    x 4.860030 0.000000 0.000000 
#    y 0.000000 4.133060 0.000000 
#    z 0.000000 0.000000 4.833590 
# 
# 
# High freq. dielectric constant tensor:
#      x y z
#    x 2.006090 0.000000 0.000000 
#    y 0.000000 1.989550 0.000000 
#    z 0.000000 0.000000 2.040310 
# 
# From -- ./inp_files/9121.got.cif
#   From: 2010.03.12/outbox.cif.g09.slc.cpg/sg64_5_cif.got.tgz:9121.got - 2010.04.10 20:19:32.
