data_PCOD8262065
_publ_section_title
;
Structure prediction by ZEFSAII (Michael W. Deem and Ramdas Pophale) SiO2 
 PCOD8262065
Probable space group: C M C A
;
_chemical_formula_sum "Si O2"
_cell_formula_units_Z 112
_cell_length_a 9.495401
_cell_length_b 28.199447
_cell_length_c 24.224562
_cell_angle_alpha 90.000000
_cell_angle_beta 90.000000
_cell_angle_gamma 90.000000
_cell_volume 6486.491231
_symmetry_space_group_name_H-M "C M C A"
_symmetry_group_IT_number 64
_symmetry_cell_setting 'orthorhombic'
loop_
_space_group_symop_operation_xyz
x,y,z
-x,1/2-y,1/2+z
x,-y,-z
-x,1/2+y,1/2-z
-x,-y,-z
x,1/2+y,1/2-z
-x,y,z
x,1/2-y,1/2+z
1/2+x,1/2+y,z
1/2-x,-y,1/2+z
1/2+x,1/2-y,-z
1/2-x,y,1/2-z
1/2-x,1/2-y,-z
1/2+x,y,1/2-z
1/2-x,1/2+y,z
1/2+x,-y,1/2+z
loop_
_atom_site_type_symbol
_atom_site_label
_atom_site_fract_x
_atom_site_fract_y
_atom_site_fract_z
Si Si1 0.666915 0.587511 0.626569
Si Si2 0.339940 0.263510 0.406836
Si Si3 0.333641 0.331531 0.591740
Si Si4 0.659087 0.825984 0.198109
Si Si5 0.333568 0.853921 0.027751
Si Si6 0.835472 0.107218 0.304190
Si Si7 0.164393 0.498824 0.196112
O O1 0.500000 0.590601 0.624218
O O2 0.720686 0.625686 0.671453
O O3 0.726579 0.602623 0.565754
O O4 0.714118 0.534770 0.645175
O O5 0.500000 0.248758 0.421797
O O6 0.239744 0.218749 0.410030
O O7 0.333400 0.283347 0.345117
O O8 0.280229 0.303080 0.449322
O O9 0.500000 0.323168 0.593621
O O10 0.290319 0.360463 0.536153
O O11 0.282809 0.361469 0.644485
O O12 0.500000 0.834140 0.218216
O O13 0.750000 0.810451 0.250000
O O14 0.500000 0.853302 0.035002
O O15 0.750000 0.122898 0.250000
O O16 0.000000 0.114721 0.291882
O O17 0.802453 0.052859 0.320209
O O18 0.250000 0.483482 0.250000
O O19 0.000000 0.491511 0.209164
#
# Coordination Sequence:
#
# PCOD8262065 Si02
#       7
#    16  16  16  16  16  16  16
#     4   8  14  26  45  67  90 116 142 172 218 268
#     4   9  18  31  46  64  87 117 150 180 217 265
#     4  10  19  31  48  67  87 114 149 186 219 252
#     4   9  17  28  42  63  90 116 143 177 217 262
#     4   8  15  29  47  67  91 115 141 179 223 263
#     4   9  19  33  47  67  92 116 147 185 219 254
#     4   9  16  28  47  68  90 117 148 179 213 258
#
# _framework density 17.266653999999999
#
# number of rings (size 3 to 8) (size 9 to 14) (size 15 to 20)
#    0.000    3.143    0.000    2.571    0.000    1.714 
#    0.000    3.571    0.000    6.857    0.000    0.000 
#    0.000    5.714    0.000    0.000    0.000    0.000 
#
# Total GULP energy -694044.492432 kJ/mol
# GULP energy per Si atom -12393.651651 kJ/mol
# Density = 1.722735 g / cm^3
# Si number density = 17.266654 Si / 1000 Ang^3
#
#
#
# Elastic Constant Matrix: (Units=GPa)
#
#
# Indices 1 2 3 4 5 6 
#
# 1 29.8339 19.6590 35.9908 0.0000 0.0000 0.0000
# 2 19.6590 80.6264 63.8098 0.0000 0.0000 0.0000
# 3 35.9908 63.8098 140.9660 0.0000 0.0000 0.0000
# 4 0.0000 0.0000 0.0000 21.2054 0.0000 0.0000
# 5 0.0000 0.0000 0.0000 0.0000 20.7712 0.0000
# 6 0.0000 0.0000 0.0000 0.0000 0.0000 21.4246
#
#
#
# Elastic Compliance Matrix: (Units=1/GPa)
#
#
# Indices 1 2 3 4 5 6 
#
# 1 0.048958 -0.003186 -0.011057 0.000000 0.000000 0.000000
# 2 -0.003186 0.019534 -0.008029 0.000000 0.000000 0.000000
# 3 -0.011057 -0.008029 0.013551 0.000000 0.000000 0.000000
# 4 0.000000 0.000000 0.000000 0.047158 0.000000 0.000000
# 5 0.000000 0.000000 0.000000 0.000000 0.048144 0.000000
# 6 0.000000 0.000000 0.000000 0.000000 0.000000 0.046675
#
#
# Mechanical properties :
#
#
# Convention : Reuss Voigt Hill
#
# Bulk Modulus (GPa) = 26.66779 54.48282 40.57530
# Shear Modulus (GPa) = 17.78954 21.47803 19.63378
#
# Velocity S-wave (km/s) = 3.21328 3.53073 3.37574
# Velocity P-wave (km/s) = 5.40788 6.94576 6.22450
#
# Compressibility (1/GPa) = 0.03749842
#
# Stress axis : x y z
#
# Youngs Moduli (GPa) = 20.42572 51.19300 73.79339
#
# Poissons Ratio (x) = 0.16311 0.81597
# Poissons Ratio (y) = 0.06508 0.59247
# Poissons Ratio (z) = 0.22586 0.41102
#
# Static dielectric constant tensor:
#      x y z
#    x 2.925960 0.000000 0.000000 
#    y 0.000000 3.243440 0.000000 
#    z 0.000000 0.000000 3.473640 
# 
# 
# High freq. dielectric constant tensor:
#      x y z
#    x 1.632790 0.000000 0.000000 
#    y 0.000000 1.659590 0.000000 
#    z 0.000000 0.000000 1.669870 
# 
# From -- ./inp_files/44530.got.cif
#   From: 2010.03.12/outbox.cif.g09.slc.cpg/sg64_23_cif.got.tgz:44530.got - 2010.04.10 20:19:32.
