data_PCOD8262702
_publ_section_title
;
Structure prediction by ZEFSAII (Michael W. Deem and Ramdas Pophale) SiO2 
 PCOD8262702
Probable space group: C M C A
;
_chemical_formula_sum "Si O2"
_cell_formula_units_Z 80
_cell_length_a 10.297024
_cell_length_b 22.733493
_cell_length_c 18.288519
_cell_angle_alpha 90.000000
_cell_angle_beta 90.000000
_cell_angle_gamma 90.000000
_cell_volume 4281.110455
_symmetry_space_group_name_H-M "C M C A"
_symmetry_group_IT_number 64
_symmetry_cell_setting 'orthorhombic'
loop_
_space_group_symop_operation_xyz
x,y,z
-x,1/2-y,1/2+z
x,-y,-z
-x,1/2+y,1/2-z
-x,-y,-z
x,1/2+y,1/2-z
-x,y,z
x,1/2-y,1/2+z
1/2+x,1/2+y,z
1/2-x,-y,1/2+z
1/2+x,1/2-y,-z
1/2-x,y,1/2-z
1/2-x,1/2-y,-z
1/2+x,y,1/2-z
1/2-x,1/2+y,z
1/2+x,-y,1/2+z
loop_
_atom_site_type_symbol
_atom_site_label
_atom_site_fract_x
_atom_site_fract_y
_atom_site_fract_z
Si Si1 0.647708 0.026111 0.889061
Si Si2 0.000000 0.402853 0.748804
Si Si3 0.750000 0.484194 0.750000
Si Si4 0.500000 0.290497 0.833720
Si Si5 0.352486 0.095069 0.027781
Si Si6 0.752909 0.285228 0.924793
Si Si7 0.000000 0.211556 0.330140
O O1 0.500000 0.039425 0.865562
O O2 0.742356 0.027895 0.819294
O O3 0.655266 0.960386 0.919807
O O4 0.694673 0.074514 0.947257
O O5 0.125329 0.443041 0.748152
O O6 0.000000 0.361438 0.676807
O O7 0.000000 0.360452 0.821331
O O8 0.625186 0.270156 0.878707
O O9 0.500000 0.260869 0.752244
O O10 0.500000 0.119461 0.023084
O O11 0.257483 0.145666 0.056166
O O12 0.874505 0.266815 0.874535
O O13 0.750000 0.250000 0.000000
#
# Coordination Sequence:
#
# PCOD8262702 Si02
#       7
#    16   8   8   8  16  16   8
#     4   9  18  32  55  82 112 147 186 234 277 355
#     4  10  20  30  56  80 118 144 184 248 300 332
#     4  12  18  30  52  88 112 148 188 232 296 352
#     4  10  23  35  55  89 116 139 190 252 305 334
#     4   9  18  35  56  80 112 149 191 229 286 342
#     4  12  22  37  61  86 116 156 200 243 289 352
#     4  10  21  39  57  83 116 149 194 248 293 346
#
# _framework density 18.686741000000001
#
# number of rings (size 3 to 8) (size 9 to 14) (size 15 to 20)
#    0.600    1.200    2.000    6.000    0.000    0.000 
#    0.000    1.000    4.400    3.600    0.000    0.000 
#    0.000    0.000    0.000    0.000    0.000    0.000 
#
# Total GULP energy -495849.576625 kJ/mol
# GULP energy per Si atom -12396.239416 kJ/mol
# Density = 1.864421 g / cm^3
# Si number density = 18.686741 Si / 1000 Ang^3
#
#
#
# Elastic Constant Matrix: (Units=GPa)
#
#
# Indices 1 2 3 4 5 6 
#
# 1 126.9803 16.4858 68.0280 0.0000 0.0000 0.0000
# 2 16.4858 25.9056 20.9980 0.0000 0.0000 0.0000
# 3 68.0280 20.9980 156.2471 0.0000 0.0000 0.0000
# 4 0.0000 0.0000 0.0000 34.1994 0.0000 0.0000
# 5 0.0000 0.0000 0.0000 0.0000 42.7174 0.0000
# 6 0.0000 0.0000 0.0000 0.0000 0.0000 9.9770
#
#
#
# Elastic Compliance Matrix: (Units=1/GPa)
#
#
# Indices 1 2 3 4 5 6 
#
# 1 0.010523 -0.003348 -0.004132 0.000000 0.000000 0.000000
# 2 -0.003348 0.044386 -0.004507 0.000000 0.000000 0.000000
# 3 -0.004132 -0.004507 0.008805 0.000000 0.000000 0.000000
# 4 0.000000 0.000000 0.000000 0.029240 0.000000 0.000000
# 5 0.000000 0.000000 0.000000 0.000000 0.023410 0.000000
# 6 0.000000 0.000000 0.000000 0.000000 0.000000 0.100231
#
#
# Mechanical properties :
#
#
# Convention : Reuss Voigt Hill
#
# Bulk Modulus (GPa) = 25.16369 57.79519 41.47944
# Shear Modulus (GPa) = 19.69936 30.95348 25.32642
#
# Velocity S-wave (km/s) = 3.25035 4.07435 3.68545
# Velocity P-wave (km/s) = 5.25183 7.28899 6.35260
#
# Compressibility (1/GPa) = 0.03973980
#
# Stress axis : x y z
#
# Youngs Moduli (GPa) = 95.02552 22.52982 113.57386
#
# Poissons Ratio (x) = 0.07543 0.46927
# Poissons Ratio (y) = 0.31813 0.51192
# Poissons Ratio (z) = 0.39263 0.10155
#
# Static dielectric constant tensor:
#      x y z
#    x 3.172610 0.000000 0.000000 
#    y 0.000000 3.105890 0.000000 
#    z 0.000000 0.000000 3.803850 
# 
# 
# High freq. dielectric constant tensor:
#      x y z
#    x 1.713510 0.000000 0.000000 
#    y 0.000000 1.684170 0.000000 
#    z 0.000000 0.000000 1.744610 
# 
# From -- ./inp_files/29889.got.cif
#   From: 2010.03.12/outbox.cif.g09.slc.cpg/sg64_15_cif.got.tgz:29889.got - 2010.04.10 20:19:32.
