data_PCOD8262079
_publ_section_title
;
Structure prediction by ZEFSAII (Michael W. Deem and Ramdas Pophale) SiO2 
 PCOD8262079
Probable space group: C M C A
;
_chemical_formula_sum "Si O2"
_cell_formula_units_Z 80
_cell_length_a 8.679423
_cell_length_b 27.576158
_cell_length_c 18.221760
_cell_angle_alpha 90.000000
_cell_angle_beta 90.000000
_cell_angle_gamma 90.000000
_cell_volume 4361.289698
_symmetry_space_group_name_H-M "C M C A"
_symmetry_group_IT_number 64
_symmetry_cell_setting 'orthorhombic'
loop_
_space_group_symop_operation_xyz
x,y,z
-x,1/2-y,1/2+z
x,-y,-z
-x,1/2+y,1/2-z
-x,-y,-z
x,1/2+y,1/2-z
-x,y,z
x,1/2-y,1/2+z
1/2+x,1/2+y,z
1/2-x,-y,1/2+z
1/2+x,1/2-y,-z
1/2-x,y,1/2-z
1/2-x,1/2-y,-z
1/2+x,y,1/2-z
1/2-x,1/2+y,z
1/2+x,-y,1/2+z
loop_
_atom_site_type_symbol
_atom_site_label
_atom_site_fract_x
_atom_site_fract_y
_atom_site_fract_z
Si Si1 0.817139 0.700715 0.469969
Si Si2 0.181255 0.601307 0.535390
Si Si3 0.181727 0.840285 0.674037
Si Si4 0.317249 0.457654 0.171805
Si Si5 0.681496 0.436690 0.880105
O O1 0.750000 0.750000 0.500000
O O2 0.759041 0.656088 0.521292
O O3 0.755963 0.692949 0.388354
O O4 0.000000 0.702871 0.468088
O O5 0.251592 0.578990 0.610183
O O6 0.224829 0.567251 0.466223
O O7 0.000000 0.601985 0.544606
O O8 0.250000 0.820531 0.750000
O O9 0.226163 0.896553 0.665143
O O10 0.000000 0.834073 0.672709
O O11 0.500000 0.454870 0.175116
O O12 0.250000 0.442199 0.250000
O O13 0.263982 0.511603 0.150071
O O14 0.500000 0.427548 0.868652
#
# Coordination Sequence:
#
# PCOD8262079 Si02
#       5
#    16  16  16  16  16
#     4  10  20  37  59  80 102 132 173 218 266 316
#     4   8  16  32  53  73  96 132 174 211 249 303
#     4  11  21  34  53  79 109 137 169 212 262 311
#     4  10  19  31  48  72 103 138 173 207 247 298
#     4   9  17  31  52  75 100 133 173 213 253 300
#
# _framework density 18.343198000000001
#
# number of rings (size 3 to 8) (size 9 to 14) (size 15 to 20)
#    0.000    2.400    0.000    4.800    0.000    4.800 
#    0.000    6.000    0.000    8.400    0.000    0.000 
#    0.000    0.000    0.000    0.000    0.000    0.000 
#
# Total GULP energy -495956.092305 kJ/mol
# GULP energy per Si atom -12398.902308 kJ/mol
# Density = 1.830145 g / cm^3
# Si number density = 18.343198 Si / 1000 Ang^3
#
#
#
# Elastic Constant Matrix: (Units=GPa)
#
#
# Indices 1 2 3 4 5 6 
#
# 1 61.0323 34.1875 32.1689 0.0000 0.0000 0.0000
# 2 34.1875 108.5699 74.9277 0.0000 0.0000 0.0000
# 3 32.1689 74.9277 153.9607 0.0000 0.0000 0.0000
# 4 0.0000 0.0000 0.0000 15.8959 0.0000 0.0000
# 5 0.0000 0.0000 0.0000 0.0000 30.9390 0.0000
# 6 0.0000 0.0000 0.0000 0.0000 0.0000 20.7337
#
#
#
# Elastic Compliance Matrix: (Units=1/GPa)
#
#
# Indices 1 2 3 4 5 6 
#
# 1 0.020182 -0.005187 -0.001693 0.000000 0.000000 0.000000
# 2 -0.005187 0.015202 -0.006314 0.000000 0.000000 0.000000
# 3 -0.001693 -0.006314 0.009922 0.000000 0.000000 0.000000
# 4 0.000000 0.000000 0.000000 0.062909 0.000000 0.000000
# 5 0.000000 0.000000 0.000000 0.000000 0.032322 0.000000
# 6 0.000000 0.000000 0.000000 0.000000 0.000000 0.048231
#
#
# Mechanical properties :
#
#
# Convention : Reuss Voigt Hill
#
# Bulk Modulus (GPa) = 52.86009 67.34794 60.10401
# Shear Modulus (GPa) = 22.57726 25.66566 24.12146
#
# Velocity S-wave (km/s) = 3.51212 3.74464 3.63024
# Velocity P-wave (km/s) = 6.73249 7.44927 7.09993
#
# Compressibility (1/GPa) = 0.01891787
#
# Stress axis : x y z
#
# Youngs Moduli (GPa) = 49.54793 65.78151 100.78780
#
# Poissons Ratio (x) = 0.34122 0.17059
# Poissons Ratio (y) = 0.25701 0.63642
# Poissons Ratio (z) = 0.08386 0.41537
#
# Static dielectric constant tensor:
#      x y z
#    x 3.156760 0.000000 0.000000 
#    y 0.000000 3.390380 0.000000 
#    z 0.000000 0.000000 3.666020 
# 
# 
# High freq. dielectric constant tensor:
#      x y z
#    x 1.693050 0.000000 0.000000 
#    y 0.000000 1.698580 0.000000 
#    z 0.000000 0.000000 1.720990 
# 
# From -- ./inp_files/29698.got.cif
#   From: 2010.03.12/outbox.cif.g09.slc.cpg/sg64_15_cif.got.tgz:29698.got - 2010.04.10 20:19:32.
