data_PCOD8262490
_publ_section_title
;
Structure prediction by ZEFSAII (Michael W. Deem and Ramdas Pophale) SiO2 
 PCOD8262490
Probable space group: C M C A
;
_chemical_formula_sum "Si O2"
_cell_formula_units_Z 88
_cell_length_a 21.836974
_cell_length_b 12.460577
_cell_length_c 14.792620
_cell_angle_alpha 90.000000
_cell_angle_beta 90.000000
_cell_angle_gamma 90.000000
_cell_volume 4025.091073
_symmetry_space_group_name_H-M "C M C A"
_symmetry_group_IT_number 64
_symmetry_cell_setting 'orthorhombic'
loop_
_space_group_symop_operation_xyz
x,y,z
-x,1/2-y,1/2+z
x,-y,-z
-x,1/2+y,1/2-z
-x,-y,-z
x,1/2+y,1/2-z
-x,y,z
x,1/2-y,1/2+z
1/2+x,1/2+y,z
1/2-x,-y,1/2+z
1/2+x,1/2-y,-z
1/2-x,y,1/2-z
1/2-x,1/2-y,-z
1/2+x,y,1/2-z
1/2-x,1/2+y,z
1/2+x,-y,1/2+z
loop_
_atom_site_type_symbol
_atom_site_label
_atom_site_fract_x
_atom_site_fract_y
_atom_site_fract_z
Si Si1 0.144933 0.716327 0.337291
Si Si2 0.360504 0.980190 0.396702
Si Si3 0.067563 0.190010 0.817262
Si Si4 0.154841 0.500000 0.000000
Si Si5 0.755881 0.163611 0.581499
Si Si6 0.430831 0.815080 0.997258
O O1 0.159382 0.591347 0.352002
O O2 0.112861 0.737565 0.241934
O O3 0.211866 0.772387 0.336638
O O4 0.101776 0.764703 0.415440
O O5 0.412769 0.934410 0.329609
O O6 0.308882 0.887065 0.393732
O O7 0.381738 0.000000 0.500000
O O8 0.067140 0.227640 0.920093
O O9 0.000000 0.194962 0.773612
O O10 0.199655 0.438039 0.067082
O O11 0.108705 0.586633 0.044343
O O12 0.750000 0.250000 0.500000
O O13 0.500000 0.851441 0.023238
#
# Coordination Sequence:
#
# PCOD8262490 Si02
#       6
#    16  16  16   8  16  16
#     4  11  24  42  68  98 141 176 225 291 346 413
#     4  12  22  44  74 102 131 185 236 284 352 420
#     4  11  26  44  65 100 137 176 233 290 342 406
#     4  10  19  34  62  90 125 174 212 266 344 414
#     4  11  20  39  68 102 134 173 225 285 345 408
#     4  10  21  39  63  92 130 179 230 280 340 407
#
# _framework density 21.862859
#
# number of rings (size 3 to 8) (size 9 to 14) (size 15 to 20)
#    0.000    1.091    4.545    1.909    0.000    5.455 
#    0.000    5.455    0.000    0.000    0.000    0.000 
#    0.000    0.000    0.000    0.000    0.000    0.000 
#
# Total GULP energy -545183.652502 kJ/mol
# GULP energy per Si atom -12390.537557 kJ/mol
# Density = 2.181310 g / cm^3
# Si number density = 21.862859 Si / 1000 Ang^3
#
#
#
# Elastic Constant Matrix: (Units=GPa)
#
#
# Indices 1 2 3 4 5 6 
#
# 1 96.2236 31.6516 21.4448 0.0000 0.0000 0.0000
# 2 31.6516 127.5702 16.3663 0.0000 0.0000 0.0000
# 3 21.4448 16.3663 65.9365 0.0000 0.0000 0.0000
# 4 0.0000 0.0000 0.0000 30.6754 0.0000 0.0000
# 5 0.0000 0.0000 0.0000 0.0000 31.8628 0.0000
# 6 0.0000 0.0000 0.0000 0.0000 0.0000 30.6972
#
#
#
# Elastic Compliance Matrix: (Units=1/GPa)
#
#
# Indices 1 2 3 4 5 6 
#
# 1 0.011957 -0.002549 -0.003256 0.000000 0.000000 0.000000
# 2 -0.002549 0.008640 -0.001316 0.000000 0.000000 0.000000
# 3 -0.003256 -0.001316 0.016552 0.000000 0.000000 0.000000
# 4 0.000000 0.000000 0.000000 0.032599 0.000000 0.000000
# 5 0.000000 0.000000 0.000000 0.000000 0.031385 0.000000
# 6 0.000000 0.000000 0.000000 0.000000 0.000000 0.032576
#
#
# Mechanical properties :
#
#
# Convention : Reuss Voigt Hill
#
# Bulk Modulus (GPa) = 43.65428 47.62841 45.64135
# Shear Modulus (GPa) = 32.13677 33.33159 32.73418
#
# Velocity S-wave (km/s) = 3.83812 3.90882 3.87363
# Velocity P-wave (km/s) = 6.29700 6.49647 6.39752
#
# Compressibility (1/GPa) = 0.02290726
#
# Stress axis : x y z
#
# Youngs Moduli (GPa) = 83.63640 115.74087 60.41705
#
# Poissons Ratio (x) = 0.29500 0.19672
# Poissons Ratio (y) = 0.21317 0.07948
# Poissons Ratio (z) = 0.27232 0.15227
#
# Static dielectric constant tensor:
#      x y z
#    x 4.477180 0.000000 0.000000 
#    y 0.000000 4.189060 0.000000 
#    z 0.000000 0.000000 3.623080 
# 
# 
# High freq. dielectric constant tensor:
#      x y z
#    x 1.875210 0.000000 0.000000 
#    y 0.000000 1.874430 0.000000 
#    z 0.000000 0.000000 1.827340 
# 
# From -- ./inp_files/27167.got.cif
#   From: 2010.03.12/outbox.cif.g09.slc.cpg/sg64_14_cif.got.tgz:27167.got - 2010.04.10 20:19:32.
