data_PCOD8262758
_publ_section_title
;
Structure prediction by ZEFSAII (Michael W. Deem and Ramdas Pophale) SiO2 
 PCOD8262758
Probable space group: C M C A
;
_chemical_formula_sum "Si O2"
_cell_formula_units_Z 96
_cell_length_a 9.147249
_cell_length_b 18.887014
_cell_length_c 30.485018
_cell_angle_alpha 90.000000
_cell_angle_beta 90.000000
_cell_angle_gamma 90.000000
_cell_volume 5266.720354
_symmetry_space_group_name_H-M "C M C A"
_symmetry_group_IT_number 64
_symmetry_cell_setting 'orthorhombic'
loop_
_space_group_symop_operation_xyz
x,y,z
-x,1/2-y,1/2+z
x,-y,-z
-x,1/2+y,1/2-z
-x,-y,-z
x,1/2+y,1/2-z
-x,y,z
x,1/2-y,1/2+z
1/2+x,1/2+y,z
1/2-x,-y,1/2+z
1/2+x,1/2-y,-z
1/2-x,y,1/2-z
1/2-x,1/2-y,-z
1/2+x,y,1/2-z
1/2-x,1/2+y,z
1/2+x,-y,1/2+z
loop_
_atom_site_type_symbol
_atom_site_label
_atom_site_fract_x
_atom_site_fract_y
_atom_site_fract_z
Si Si1 0.168856 0.817684 0.049871
Si Si2 0.829101 0.332245 0.706072
Si Si3 0.328152 0.331096 0.294585
Si Si4 0.828794 0.083877 0.870193
Si Si5 0.826503 0.423703 0.624799
Si Si6 0.328096 0.324215 0.950956
O O1 0.201957 0.881961 0.082466
O O2 0.258703 0.749337 0.064934
O O3 0.000000 0.795869 0.050513
O O4 0.215992 0.842205 0.001002
O O5 0.750000 0.358061 0.750000
O O6 0.792615 0.250758 0.695482
O O7 0.767455 0.379608 0.666375
O O8 0.000000 0.343787 0.713175
O O9 0.500000 0.344917 0.289947
O O10 0.250000 0.355660 0.250000
O O11 0.264557 0.376519 0.333935
O O12 0.000000 0.087828 0.857900
O O13 0.769515 0.003810 0.872799
O O14 0.768632 0.387074 0.580120
O O15 0.000000 0.423255 0.624744
O O16 0.500000 0.315284 0.945166
#
# Coordination Sequence:
#
# PCOD8262758 Si02
#       6
#    16  16  16  16  16  16
#     4   9  18  31  50  76 101 128 165 209 253 293
#     4   9  18  33  52  72  93 122 161 202 242 286
#     4  10  20  35  55  76  98 128 166 205 245 290
#     4  10  20  33  49  73 105 134 162 201 247 297
#     4   9  18  32  50  72  99 131 165 201 243 293
#     4   9  17  32  53  73  96 130 170 209 249 295
#
# _framework density 18.227661999999999
#
# number of rings (size 3 to 8) (size 9 to 14) (size 15 to 20)
#    0.000    2.667    0.000    1.500    0.000    4.000 
#    0.000    7.500    0.000    0.000    0.000    5.833 
#    0.000    0.000    0.000    0.000    0.000    0.000 
#
# Total GULP energy -595244.732533 kJ/mol
# GULP energy per Si atom -12400.931928 kJ/mol
# Density = 1.818617 g / cm^3
# Si number density = 18.227662 Si / 1000 Ang^3
#
#
#
# Elastic Constant Matrix: (Units=GPa)
#
#
# Indices 1 2 3 4 5 6 
#
# 1 42.8020 38.8903 41.8058 0.0000 0.0000 0.0000
# 2 38.8903 129.4518 87.7548 0.0000 0.0000 0.0000
# 3 41.8058 87.7548 139.3974 0.0000 0.0000 0.0000
# 4 0.0000 0.0000 0.0000 15.5687 0.0000 0.0000
# 5 0.0000 0.0000 0.0000 0.0000 28.0364 0.0000
# 6 0.0000 0.0000 0.0000 0.0000 0.0000 20.9867
#
#
#
# Elastic Compliance Matrix: (Units=1/GPa)
#
#
# Indices 1 2 3 4 5 6 
#
# 1 0.035544 -0.006022 -0.006869 0.000000 0.000000 0.000000
# 2 -0.006022 0.014496 -0.007320 0.000000 0.000000 0.000000
# 3 -0.006869 -0.007320 0.013842 0.000000 0.000000 0.000000
# 4 0.000000 0.000000 0.000000 0.064232 0.000000 0.000000
# 5 0.000000 0.000000 0.000000 0.000000 0.035668 0.000000
# 6 0.000000 0.000000 0.000000 0.000000 0.000000 0.047649
#
#
# Mechanical properties :
#
#
# Convention : Reuss Voigt Hill
#
# Bulk Modulus (GPa) = 42.62426 72.06143 57.34285
# Shear Modulus (GPa) = 19.25513 22.46504 20.86009
#
# Velocity S-wave (km/s) = 3.25371 3.51446 3.38660
# Velocity P-wave (km/s) = 6.12786 7.48923 6.84248
#
# Compressibility (1/GPa) = 0.02346082
#
# Stress axis : x y z
#
# Youngs Moduli (GPa) = 28.13430 68.98483 72.24583
#
# Poissons Ratio (x) = 0.41542 0.49624
# Poissons Ratio (y) = 0.16942 0.52881
# Poissons Ratio (z) = 0.19325 0.50494
#
# Static dielectric constant tensor:
#      x y z
#    x 3.169230 0.000000 0.000000 
#    y 0.000000 3.476990 0.000000 
#    z 0.000000 0.000000 3.608080 
# 
# 
# High freq. dielectric constant tensor:
#      x y z
#    x 1.684610 0.000000 0.000000 
#    y 0.000000 1.701630 0.000000 
#    z 0.000000 0.000000 1.720220 
# 
# From -- ./inp_files/44235.got.cif
#   From: 2010.03.12/outbox.cif.g09.slc.cpg/sg64_23_cif.got.tgz:44235.got - 2010.04.10 20:19:32.
