data_PCOD8262245
_publ_section_title
;
Structure prediction by ZEFSAII (Michael W. Deem and Ramdas Pophale) SiO2 
 PCOD8262245
Probable space group: C M C A
;
_chemical_formula_sum "Si O2"
_cell_formula_units_Z 80
_cell_length_a 7.610531
_cell_length_b 25.399964
_cell_length_c 22.966828
_cell_angle_alpha 90.000000
_cell_angle_beta 90.000000
_cell_angle_gamma 90.000000
_cell_volume 4439.653522
_symmetry_space_group_name_H-M "C M C A"
_symmetry_group_IT_number 64
_symmetry_cell_setting 'orthorhombic'
loop_
_space_group_symop_operation_xyz
x,y,z
-x,1/2-y,1/2+z
x,-y,-z
-x,1/2+y,1/2-z
-x,-y,-z
x,1/2+y,1/2-z
-x,y,z
x,1/2-y,1/2+z
1/2+x,1/2+y,z
1/2-x,-y,1/2+z
1/2+x,1/2-y,-z
1/2-x,y,1/2-z
1/2-x,1/2-y,-z
1/2+x,y,1/2-z
1/2-x,1/2+y,z
1/2+x,-y,1/2+z
loop_
_atom_site_type_symbol
_atom_site_label
_atom_site_fract_x
_atom_site_fract_y
_atom_site_fract_z
Si Si1 0.702981 0.672875 0.313382
Si Si2 0.196193 0.835709 0.473232
Si Si3 0.500000 0.082594 0.518626
Si Si4 0.000000 0.019574 0.097419
Si Si5 0.793373 0.448171 0.815246
Si Si6 0.696623 0.771556 0.576416
O O1 0.500000 0.678002 0.326930
O O2 0.750000 0.694341 0.250000
O O3 0.765031 0.612670 0.319700
O O4 0.804771 0.710956 0.356941
O O5 0.325222 0.884670 0.468089
O O6 0.188928 0.812135 0.538653
O O7 0.261705 0.788867 0.430011
O O8 0.000000 0.855501 0.457263
O O9 0.500000 0.065850 0.450754
O O10 0.500000 0.034891 0.563343
O O11 0.824953 0.021554 0.137388
O O12 0.750000 0.468703 0.750000
O O13 0.000000 0.456602 0.829006
O O14 0.500000 0.774169 0.550847
#
# Coordination Sequence:
#
# PCOD8262245 Si02
#       6
#    16  16   8   8  16  16
#     4  10  20  30  49  82 116 146 175 223 286 337
#     4  10  21  36  56  81 110 149 191 228 267 328
#     4  11  24  40  56  83 122 152 188 234 286 342
#     4  11  24  38  60  87 112 155 186 233 302 331
#     4  10  20  36  59  88 116 144 189 238 287 346
#     4  10  19  32  54  82 111 148 187 221 273 333
#
# _framework density 18.019423
#
# number of rings (size 3 to 8) (size 9 to 14) (size 15 to 20)
#    0.000    1.800    2.000    2.400    5.600    3.200 
#    0.000    2.000    0.000    1.200    0.000    0.000 
#    0.000    0.000    0.000    0.000    0.000    0.000 
#
# Total GULP energy -495974.071081 kJ/mol
# GULP energy per Si atom -12399.351777 kJ/mol
# Density = 1.797841 g / cm^3
# Si number density = 18.019423 Si / 1000 Ang^3
#
#
#
# Elastic Constant Matrix: (Units=GPa)
#
#
# Indices 1 2 3 4 5 6 
#
# 1 99.9041 41.8490 36.4202 0.0000 0.0000 0.0000
# 2 41.8490 78.8917 46.1444 0.0000 0.0000 0.0000
# 3 36.4202 46.1444 120.6704 0.0000 0.0000 0.0000
# 4 0.0000 0.0000 0.0000 25.4610 0.0000 0.0000
# 5 0.0000 0.0000 0.0000 0.0000 26.5503 0.0000
# 6 0.0000 0.0000 0.0000 0.0000 0.0000 23.7011
#
#
#
# Elastic Compliance Matrix: (Units=1/GPa)
#
#
# Indices 1 2 3 4 5 6 
#
# 1 0.013126 -0.005984 -0.001673 0.000000 0.000000 0.000000
# 2 -0.005984 0.019056 -0.005481 0.000000 0.000000 0.000000
# 3 -0.001673 -0.005481 0.010888 0.000000 0.000000 0.000000
# 4 0.000000 0.000000 0.000000 0.039276 0.000000 0.000000
# 5 0.000000 0.000000 0.000000 0.000000 0.037664 0.000000
# 6 0.000000 0.000000 0.000000 0.000000 0.000000 0.042192
#
#
# Mechanical properties :
#
#
# Convention : Reuss Voigt Hill
#
# Bulk Modulus (GPa) = 59.54771 60.92149 60.23460
# Shear Modulus (GPa) = 25.76298 26.81266 26.28782
#
# Velocity S-wave (km/s) = 3.78528 3.86163 3.82365
# Velocity P-wave (km/s) = 7.22652 7.33247 7.27969
#
# Compressibility (1/GPa) = 0.01679326
#
# Stress axis : x y z
#
# Youngs Moduli (GPa) = 76.18242 52.47744 91.84474
#
# Poissons Ratio (x) = 0.31404 0.15369
# Poissons Ratio (y) = 0.45590 0.50338
# Poissons Ratio (z) = 0.12748 0.28762
#
# Static dielectric constant tensor:
#      x y z
#    x 3.434930 0.000000 0.000000 
#    y 0.000000 3.094920 0.000000 
#    z 0.000000 0.000000 3.285270 
# 
# 
# High freq. dielectric constant tensor:
#      x y z
#    x 1.715950 0.000000 0.000000 
#    y 0.000000 1.665740 0.000000 
#    z 0.000000 0.000000 1.692780 
# 
# From -- ./inp_files/42932.got.cif
#   From: 2010.03.12/outbox.cif.g09.slc.cpg/sg64_22_cif.got.tgz:42932.got - 2010.04.10 20:19:32.
