data_PCOD8262177
_publ_section_title
;
Structure prediction by ZEFSAII (Michael W. Deem and Ramdas Pophale) SiO2 
 PCOD8262177
Probable space group: C M C A
;
_chemical_formula_sum "Si O2"
_cell_formula_units_Z 80
_cell_length_a 8.849553
_cell_length_b 25.287692
_cell_length_c 20.419782
_cell_angle_alpha 90.000000
_cell_angle_beta 90.000000
_cell_angle_gamma 90.000000
_cell_volume 4569.636231
_symmetry_space_group_name_H-M "C M C A"
_symmetry_group_IT_number 64
_symmetry_cell_setting 'orthorhombic'
loop_
_space_group_symop_operation_xyz
x,y,z
-x,1/2-y,1/2+z
x,-y,-z
-x,1/2+y,1/2-z
-x,-y,-z
x,1/2+y,1/2-z
-x,y,z
x,1/2-y,1/2+z
1/2+x,1/2+y,z
1/2-x,-y,1/2+z
1/2+x,1/2-y,-z
1/2-x,y,1/2-z
1/2-x,1/2-y,-z
1/2+x,y,1/2-z
1/2-x,1/2+y,z
1/2+x,-y,1/2+z
loop_
_atom_site_type_symbol
_atom_site_label
_atom_site_fract_x
_atom_site_fract_y
_atom_site_fract_z
Si Si1 0.172742 0.813217 0.061320
Si Si2 0.678374 0.928249 0.451666
Si Si3 0.671796 0.289688 0.908967
Si Si4 0.821144 0.039481 0.093936
Si Si5 0.678100 0.624574 0.319809
O O1 0.235265 0.872292 0.077891
O O2 0.273831 0.770859 0.099982
O O3 0.000000 0.805822 0.084009
O O4 0.187164 0.806267 0.983846
O O5 0.500000 0.925683 0.459864
O O6 0.740698 0.937345 0.525119
O O7 0.721886 0.976949 0.404038
O O8 0.500000 0.294562 0.884231
O O9 0.777205 0.327730 0.867272
O O10 0.737099 0.068536 0.152913
O O11 0.000000 0.048258 0.101765
O O12 0.500000 0.622042 0.312841
O O13 0.750000 0.635851 0.250000
#
# Coordination Sequence:
#
# PCOD8262177 Si02
#       5
#    16  16  16  16  16
#     4   9  16  29  50  77 107 137 167 205 253 305
#     4   8  14  27  52  78 105 137 166 203 252 304
#     4  10  19  32  50  74 104 136 172 211 254 304
#     4   9  16  31  52  76 103 135 172 207 250 302
#     4  12  24  37  53  73 101 137 175 216 257 303
#
# _framework density 17.506862999999999
#
# number of rings (size 3 to 8) (size 9 to 14) (size 15 to 20)
#    0.000    2.400    2.000    3.600    0.000    0.800 
#    0.000    3.000    0.000    1.200    0.000    5.600 
#    0.000    0.000    0.000    0.000    0.000    0.000 
#
# Total GULP energy -495846.818969 kJ/mol
# GULP energy per Si atom -12396.170474 kJ/mol
# Density = 1.746702 g / cm^3
# Si number density = 17.506863 Si / 1000 Ang^3
#
#
#
# Elastic Constant Matrix: (Units=GPa)
#
#
# Indices 1 2 3 4 5 6 
#
# 1 85.1217 38.2189 23.8978 0.0000 0.0000 0.0000
# 2 38.2189 148.0375 18.4885 0.0000 0.0000 0.0000
# 3 23.8978 18.4885 29.5861 0.0000 0.0000 0.0000
# 4 0.0000 0.0000 0.0000 11.9555 0.0000 0.0000
# 5 0.0000 0.0000 0.0000 0.0000 21.5068 0.0000
# 6 0.0000 0.0000 0.0000 0.0000 0.0000 27.0251
#
#
#
# Elastic Compliance Matrix: (Units=1/GPa)
#
#
# Indices 1 2 3 4 5 6 
#
# 1 0.016169 -0.002759 -0.011337 0.000000 0.000000 0.000000
# 2 -0.002759 0.007797 -0.002645 0.000000 0.000000 0.000000
# 3 -0.011337 -0.002645 0.044609 0.000000 0.000000 0.000000
# 4 0.000000 0.000000 0.000000 0.083644 0.000000 0.000000
# 5 0.000000 0.000000 0.000000 0.000000 0.046497 0.000000
# 6 0.000000 0.000000 0.000000 0.000000 0.000000 0.037003
#
#
# Mechanical properties :
#
#
# Convention : Reuss Voigt Hill
#
# Bulk Modulus (GPa) = 28.49286 47.10620 37.79953
# Shear Modulus (GPa) = 17.80010 24.24014 21.02012
#
# Velocity S-wave (km/s) = 3.19211 3.72507 3.46884
# Velocity P-wave (km/s) = 5.46779 6.74294 6.13856
#
# Compressibility (1/GPa) = 0.03509651
#
# Stress axis : x y z
#
# Youngs Moduli (GPa) = 61.84600 128.24624 22.41693
#
# Poissons Ratio (x) = 0.35378 0.25413
# Poissons Ratio (y) = 0.17061 0.05928
# Poissons Ratio (z) = 0.70112 0.33915
#
# Static dielectric constant tensor:
#      x y z
#    x 3.108580 0.000000 0.000000 
#    y 0.000000 3.857730 0.000000 
#    z 0.000000 0.000000 2.898630 
# 
# 
# High freq. dielectric constant tensor:
#      x y z
#    x 1.659490 0.000000 0.000000 
#    y 0.000000 1.697720 0.000000 
#    z 0.000000 0.000000 1.628340 
# 
# From -- ./inp_files/29724.got.cif
#   From: 2010.03.12/outbox.cif.g09.slc.cpg/sg64_15_cif.got.tgz:29724.got - 2010.04.10 20:19:32.
