data_PCOD8262268
_publ_section_title
;
Structure prediction by ZEFSAII (Michael W. Deem and Ramdas Pophale) SiO2 
 PCOD8262268
Probable space group: C M C A
;
_chemical_formula_sum "Si O2"
_cell_formula_units_Z 88
_cell_length_a 10.602574
_cell_length_b 14.541739
_cell_length_c 29.226046
_cell_angle_alpha 90.000000
_cell_angle_beta 90.000000
_cell_angle_gamma 90.000000
_cell_volume 4506.067793
_symmetry_space_group_name_H-M "C M C A"
_symmetry_group_IT_number 64
_symmetry_cell_setting 'orthorhombic'
loop_
_space_group_symop_operation_xyz
x,y,z
-x,1/2-y,1/2+z
x,-y,-z
-x,1/2+y,1/2-z
-x,-y,-z
x,1/2+y,1/2-z
-x,y,z
x,1/2-y,1/2+z
1/2+x,1/2+y,z
1/2-x,-y,1/2+z
1/2+x,1/2-y,-z
1/2-x,y,1/2-z
1/2-x,1/2-y,-z
1/2+x,y,1/2-z
1/2-x,1/2+y,z
1/2+x,-y,1/2+z
loop_
_atom_site_type_symbol
_atom_site_label
_atom_site_fract_x
_atom_site_fract_y
_atom_site_fract_z
Si Si1 0.000000 0.899593 0.201762
Si Si2 0.145325 0.599567 0.014294
Si Si3 0.358289 0.658572 0.582977
Si Si4 0.000000 0.198903 0.329314
Si Si5 0.258676 0.972235 0.350668
Si Si6 0.500000 0.003311 0.798988
Si Si7 0.739466 0.163714 0.110442
O O1 0.000000 0.788076 0.203935
O O2 0.873527 0.930103 0.176762
O O3 0.000000 0.948348 0.250313
O O4 0.215137 0.637970 0.058152
O O5 0.000000 0.589622 0.028185
O O6 0.199305 0.500000 0.000000
O O7 0.166378 0.668303 0.971405
O O8 0.500000 0.622720 0.591467
O O9 0.260727 0.583526 0.602424
O O10 0.341988 0.755383 0.608921
O O11 0.118061 0.201468 0.363247
O O12 0.000000 0.108415 0.296841
O O13 0.294850 0.077053 0.362203
O O14 0.127014 0.963425 0.323644
#
# Coordination Sequence:
#
# PCOD8262268 Si02
#       7
#     8  16  16   8  16   8  16
#     4  12  24  46  64  95 126 154 203 264 324 362
#     4  10  19  32  60  90 120 169 215 255 292 359
#     4  11  22  37  60  93 124 166 211 249 307 363
#     4  10  22  40  68  91 113 166 203 244 313 378
#     4  11  23  41  67  90 124 164 201 255 311 371
#     4  10  24  46  65  90 121 160 204 253 304 388
#     4  11  21  39  61  89 129 159 210 252 305 365
#
# _framework density 19.529222000000001
#
# number of rings (size 3 to 8) (size 9 to 14) (size 15 to 20)
#    0.000    1.273    5.455    1.091    1.273    0.000 
#    3.273    1.818    0.000    1.636    0.000    0.000 
#    0.000    0.000    0.000    0.000    0.000    0.000 
#
# Total GULP energy -545510.374354 kJ/mol
# GULP energy per Si atom -12397.963053 kJ/mol
# Density = 1.948477 g / cm^3
# Si number density = 19.529222 Si / 1000 Ang^3
#
#
#
# Elastic Constant Matrix: (Units=GPa)
#
#
# Indices 1 2 3 4 5 6 
#
# 1 74.9705 24.7248 28.9377 0.0000 0.0000 0.0000
# 2 24.7248 103.4081 31.9898 0.0000 0.0000 0.0000
# 3 28.9377 31.9898 94.1924 0.0000 0.0000 0.0000
# 4 0.0000 0.0000 0.0000 38.3098 0.0000 0.0000
# 5 0.0000 0.0000 0.0000 0.0000 25.0986 0.0000
# 6 0.0000 0.0000 0.0000 0.0000 0.0000 36.4567
#
#
#
# Elastic Compliance Matrix: (Units=1/GPa)
#
#
# Indices 1 2 3 4 5 6 
#
# 1 0.015703 -0.002528 -0.003966 0.000000 0.000000 0.000000
# 2 -0.002528 0.011213 -0.003031 0.000000 0.000000 0.000000
# 3 -0.003966 -0.003031 0.012864 0.000000 0.000000 0.000000
# 4 0.000000 0.000000 0.000000 0.026103 0.000000 0.000000
# 5 0.000000 0.000000 0.000000 0.000000 0.039843 0.000000
# 6 0.000000 0.000000 0.000000 0.000000 0.000000 0.027430
#
#
# Mechanical properties :
#
#
# Convention : Reuss Voigt Hill
#
# Bulk Modulus (GPa) = 48.23910 49.31952 48.77931
# Shear Modulus (GPa) = 31.42368 32.43427 31.92898
#
# Velocity S-wave (km/s) = 4.01566 4.07972 4.04782
# Velocity P-wave (km/s) = 6.80113 6.89211 6.84677
#
# Compressibility (1/GPa) = 0.02073007
#
# Stress axis : x y z
#
# Youngs Moduli (GPa) = 63.68233 89.18541 77.73347
#
# Poissons Ratio (x) = 0.22544 0.30827
# Poissons Ratio (y) = 0.16097 0.23565
# Poissons Ratio (z) = 0.25255 0.27036
#
# Static dielectric constant tensor:
#      x y z
#    x 3.388830 0.000000 0.000000 
#    y 0.000000 3.782030 0.000000 
#    z 0.000000 0.000000 3.529660 
# 
# 
# High freq. dielectric constant tensor:
#      x y z
#    x 1.746300 0.000000 0.000000 
#    y 0.000000 1.771870 0.000000 
#    z 0.000000 0.000000 1.759660 
# 
# From -- ./inp_files/44103.got.cif
#   From: 2010.03.12/outbox.cif.g09.slc.cpg/sg64_23_cif.got.tgz:44103.got - 2010.04.10 20:19:32.
