data_PCOD8262950
_publ_section_title
;
Structure prediction by ZEFSAII (Michael W. Deem and Ramdas Pophale) SiO2 
 PCOD8262950
Probable space group: C M C A
;
_chemical_formula_sum "Si O2"
_cell_formula_units_Z 72
_cell_length_a 14.747362
_cell_length_b 8.874592
_cell_length_c 24.691706
_cell_angle_alpha 90.000000
_cell_angle_beta 90.000000
_cell_angle_gamma 90.000000
_cell_volume 3231.571982
_symmetry_space_group_name_H-M "C M C A"
_symmetry_group_IT_number 64
_symmetry_cell_setting 'orthorhombic'
loop_
_space_group_symop_operation_xyz
x,y,z
-x,1/2-y,1/2+z
x,-y,-z
-x,1/2+y,1/2-z
-x,-y,-z
x,1/2+y,1/2-z
-x,y,z
x,1/2-y,1/2+z
1/2+x,1/2+y,z
1/2-x,-y,1/2+z
1/2+x,1/2-y,-z
1/2-x,y,1/2-z
1/2-x,1/2-y,-z
1/2+x,y,1/2-z
1/2-x,1/2+y,z
1/2+x,-y,1/2+z
loop_
_atom_site_type_symbol
_atom_site_label
_atom_site_fract_x
_atom_site_fract_y
_atom_site_fract_z
Si Si1 0.500000 0.254248 0.506438
Si Si2 0.500000 0.000571 0.581967
Si Si3 0.500000 0.732878 0.229809
Si Si4 0.349061 0.369573 0.847346
Si Si5 0.183018 0.964658 0.381452
Si Si6 0.000000 0.454682 0.828470
Si Si7 0.149268 0.500000 0.000000
O O1 0.500000 0.176712 0.565532
O O2 0.410778 0.350858 0.496857
O O3 0.500000 0.116631 0.466148
O O4 0.590631 0.973911 0.615046
O O5 0.406556 0.659786 0.207135
O O6 0.500000 0.701492 0.294272
O O7 0.500000 0.909777 0.215848
O O8 0.256449 0.464688 0.839723
O O9 0.321836 0.213485 0.875075
O O10 0.085616 0.037101 0.368050
O O11 0.208375 0.002825 0.444460
#
# Coordination Sequence:
#
# PCOD8262950 Si02
#       7
#     8   8   8  16  16   8   8
#     4  10  20  34  62  84 118 171 215 253 297 367
#     4  10  20  40  58  83 123 165 212 253 307 355
#     4   9  22  44  69  88 125 160 207 264 328 370
#     4  10  23  42  61  93 127 165 207 265 311 374
#     4  11  24  41  64  92 134 166 212 255 314 373
#     4  10  22  45  67  92 121 166 205 268 319 377
#     4  11  22  38  60  95 130 174 210 253 312 371
#
# _framework density 22.280177999999999
#
# number of rings (size 3 to 8) (size 9 to 14) (size 15 to 20)
#    0.000    1.778    2.222    2.000    3.111    5.333 
#    4.000    4.444    0.000    0.000    0.000    0.000 
#    0.000    0.000    0.000    0.000    0.000    0.000 
#
# Total GULP energy -446302.222960 kJ/mol
# GULP energy per Si atom -12397.283971 kJ/mol
# Density = 2.222947 g / cm^3
# Si number density = 22.280178 Si / 1000 Ang^3
#
#
#
# Elastic Constant Matrix: (Units=GPa)
#
#
# Indices 1 2 3 4 5 6 
#
# 1 118.0246 16.1680 4.6478 0.0000 0.0000 0.0000
# 2 16.1680 53.2353 8.5170 0.0000 0.0000 0.0000
# 3 4.6478 8.5170 70.4046 0.0000 0.0000 0.0000
# 4 0.0000 0.0000 0.0000 36.6918 0.0000 0.0000
# 5 0.0000 0.0000 0.0000 0.0000 17.7388 0.0000
# 6 0.0000 0.0000 0.0000 0.0000 0.0000 19.4367
#
#
#
# Elastic Compliance Matrix: (Units=1/GPa)
#
#
# Indices 1 2 3 4 5 6 
#
# 1 0.008845 -0.002644 -0.000264 0.000000 0.000000 0.000000
# 2 -0.002644 0.019946 -0.002238 0.000000 0.000000 0.000000
# 3 -0.000264 -0.002238 0.014492 0.000000 0.000000 0.000000
# 4 0.000000 0.000000 0.000000 0.027254 0.000000 0.000000
# 5 0.000000 0.000000 0.000000 0.000000 0.056374 0.000000
# 6 0.000000 0.000000 0.000000 0.000000 0.000000 0.051449
#
#
# Mechanical properties :
#
#
# Convention : Reuss Voigt Hill
#
# Bulk Modulus (GPa) = 30.31236 33.36999 31.84118
# Shear Modulus (GPa) = 25.04391 28.92892 26.98641
#
# Velocity S-wave (km/s) = 3.35631 3.60726 3.48405
# Velocity P-wave (km/s) = 5.35298 5.68856 5.52332
#
# Compressibility (1/GPa) = 0.03298984
#
# Stress axis : x y z
#
# Youngs Moduli (GPa) = 113.05273 50.13613 69.00446
#
# Poissons Ratio (x) = 0.13257 0.01822
# Poissons Ratio (y) = 0.29893 0.15445
# Poissons Ratio (z) = 0.02985 0.11222
#
# Static dielectric constant tensor:
#      x y z
#    x 4.090390 0.000000 0.000000 
#    y 0.000000 4.097370 0.000000 
#    z 0.000000 0.000000 3.896910 
# 
# 
# High freq. dielectric constant tensor:
#      x y z
#    x 1.870240 0.000000 0.000000 
#    y 0.000000 1.886730 0.000000 
#    z 0.000000 0.000000 1.864510 
# 
# From -- ./inp_files/45671.got.cif
#   From: 2010.03.12/outbox.cif.g09.slc.cpg/sg64_23_cif.got.tgz:45671.got - 2010.04.10 20:19:32.
