data_PCOD8262081
_publ_section_title
;
Structure prediction by ZEFSAII (Michael W. Deem and Ramdas Pophale) SiO2 
 PCOD8262081
Probable space group: C M C A
;
_chemical_formula_sum "Si O2"
_cell_formula_units_Z 80
_cell_length_a 8.891403
_cell_length_b 27.405613
_cell_length_c 20.851868
_cell_angle_alpha 90.000000
_cell_angle_beta 90.000000
_cell_angle_gamma 90.000000
_cell_volume 5081.065374
_symmetry_space_group_name_H-M "C M C A"
_symmetry_group_IT_number 64
_symmetry_cell_setting 'orthorhombic'
loop_
_space_group_symop_operation_xyz
x,y,z
-x,1/2-y,1/2+z
x,-y,-z
-x,1/2+y,1/2-z
-x,-y,-z
x,1/2+y,1/2-z
-x,y,z
x,1/2-y,1/2+z
1/2+x,1/2+y,z
1/2-x,-y,1/2+z
1/2+x,1/2-y,-z
1/2-x,y,1/2-z
1/2-x,1/2-y,-z
1/2+x,y,1/2-z
1/2-x,1/2+y,z
1/2+x,-y,1/2+z
loop_
_atom_site_type_symbol
_atom_site_label
_atom_site_fract_x
_atom_site_fract_y
_atom_site_fract_z
Si Si1 0.177130 0.555006 0.316067
Si Si2 0.677873 0.112794 0.068390
Si Si3 0.829299 0.893296 0.057196
Si Si4 0.175669 0.942330 0.184933
Si Si5 0.670502 0.199404 0.487347
O O1 0.250000 0.573371 0.250000
O O2 0.250010 0.585413 0.372461
O O3 0.217427 0.498485 0.327389
O O4 0.000000 0.564140 0.314028
O O5 0.500000 0.112615 0.074442
O O6 0.730190 0.085785 0.002257
O O7 0.740374 0.168730 0.067518
O O8 0.761288 0.911019 0.124868
O O9 0.827549 0.833878 0.052394
O O10 0.000000 0.913193 0.049596
O O11 0.250000 0.922574 0.250000
O O12 0.000000 0.934326 0.192918
O O13 0.500000 0.208880 0.464339
O O14 0.750000 0.250000 0.500000
#
# Coordination Sequence:
#
# PCOD8262081 Si02
#       5
#    16  16  16  16  16
#     4  10  19  32  49  69  97 131 164 196 235 284
#     4  10  19  31  48  72  97 125 162 200 239 281
#     4   8  17  32  48  69  96 127 158 196 241 286
#     4   9  18  32  49  69  96 131 164 194 236 284
#     4   9  17  31  51  72  96 122 157 197 244 292
#
# _framework density 15.744729
#
# number of rings (size 3 to 8) (size 9 to 14) (size 15 to 20)
#    1.200    1.600    0.000    2.400    0.000    2.400 
#    0.000    4.000    0.000    1.200    0.000    5.600 
#    0.000    0.000    0.000    0.000    0.000    0.000 
#
# Total GULP energy -495616.190986 kJ/mol
# GULP energy per Si atom -12390.404775 kJ/mol
# Density = 1.570889 g / cm^3
# Si number density = 15.744729 Si / 1000 Ang^3
#
#
#
# Elastic Constant Matrix: (Units=GPa)
#
#
# Indices 1 2 3 4 5 6 
#
# 1 98.7041 41.3924 56.6208 0.0000 0.0000 0.0000
# 2 41.3924 70.4392 62.7238 0.0000 0.0000 0.0000
# 3 56.6208 62.7238 138.4335 0.0000 0.0000 0.0000
# 4 0.0000 0.0000 0.0000 -4.4732 0.0000 0.0000
# 5 0.0000 0.0000 0.0000 0.0000 29.8972 0.0000
# 6 0.0000 0.0000 0.0000 0.0000 0.0000 21.0727
#
#
#
# Elastic Compliance Matrix: (Units=1/GPa)
#
#
# Indices 1 2 3 4 5 6 
#
# 1 0.014357 -0.005377 -0.003436 0.000000 0.000000 0.000000
# 2 -0.005377 0.025813 -0.009496 0.000000 0.000000 0.000000
# 3 -0.003436 -0.009496 0.012932 0.000000 0.000000 0.000000
# 4 0.000000 0.000000 0.000000 -0.223551 0.000000 0.000000
# 5 0.000000 0.000000 0.000000 0.000000 0.033448 0.000000
# 6 0.000000 0.000000 0.000000 0.000000 0.000000 0.047455
#
#
# Mechanical properties :
#
#
# Convention : Reuss Voigt Hill
#
# Bulk Modulus (GPa) = 60.66931 69.89455 65.28193
# Shear Modulus (GPa) = -105.40926 19.08866 -43.16030
#
# Velocity S-wave (km/s) = -8.19111 3.48571 -5.24138
# Velocity P-wave (km/s) = 7.13038 7.79031 2.21886
#
# Compressibility (1/GPa) = 0.01648280
#
# Stress axis : x y z
#
# Youngs Moduli (GPa) = 69.65124 38.74080 77.32948
#
# Poissons Ratio (x) = 0.20832 0.26569
# Poissons Ratio (y) = 0.37454 0.73434
# Poissons Ratio (z) = 0.23931 0.36789
#
# Static dielectric constant tensor:
#      x y z
#    x 3.228630 0.000000 0.000000 
#    y 0.000000 2.816050 0.000000 
#    z 0.000000 0.000000 3.004280 
# 
# 
# High freq. dielectric constant tensor:
#      x y z
#    x 1.615300 0.000000 0.000000 
#    y 0.000000 1.581230 0.000000 
#    z 0.000000 0.000000 1.593390 
# 
# From -- ./inp_files/29975.got.cif
#   From: 2010.03.12/outbox.cif.g09.slc.cpg/sg64_15_cif.got.tgz:29975.got - 2010.04.10 20:19:32.
