data_PCOD8262769
_publ_section_title
;
Structure prediction by ZEFSAII (Michael W. Deem and Ramdas Pophale) SiO2 
 PCOD8262769
Probable space group: C M C A
;
_chemical_formula_sum "Si O2"
_cell_formula_units_Z 96
_cell_length_a 17.658059
_cell_length_b 13.365025
_cell_length_c 23.317867
_cell_angle_alpha 90.000000
_cell_angle_beta 90.000000
_cell_angle_gamma 90.000000
_cell_volume 5503.025939
_symmetry_space_group_name_H-M "C M C A"
_symmetry_group_IT_number 64
_symmetry_cell_setting 'orthorhombic'
loop_
_space_group_symop_operation_xyz
x,y,z
-x,1/2-y,1/2+z
x,-y,-z
-x,1/2+y,1/2-z
-x,-y,-z
x,1/2+y,1/2-z
-x,y,z
x,1/2-y,1/2+z
1/2+x,1/2+y,z
1/2-x,-y,1/2+z
1/2+x,1/2-y,-z
1/2-x,y,1/2-z
1/2-x,1/2-y,-z
1/2+x,y,1/2-z
1/2-x,1/2+y,z
1/2+x,-y,1/2+z
loop_
_atom_site_type_symbol
_atom_site_label
_atom_site_fract_x
_atom_site_fract_y
_atom_site_fract_z
Si Si1 0.834636 0.401149 0.238728
Si Si2 0.412033 0.382731 0.064229
Si Si3 0.825322 0.716058 0.334813
Si Si4 0.653016 0.747720 0.840264
Si Si5 0.088070 0.609777 0.431562
Si Si6 0.086199 0.896846 0.737518
O O1 0.750000 0.442468 0.250000
O O2 0.839868 0.331229 0.182275
O O3 0.859175 0.339974 0.294500
O O4 0.894133 0.488047 0.227065
O O5 0.500000 0.368154 0.077947
O O6 0.365086 0.298426 0.097794
O O7 0.387626 0.495321 0.082435
O O8 0.395170 0.365930 0.997528
O O9 0.735537 0.701906 0.340107
O O10 0.864102 0.688564 0.394764
O O11 0.856968 0.644061 0.285569
O O12 0.596178 0.837005 0.822291
O O13 0.000000 0.624271 0.417421
O O14 0.000000 0.887711 0.759049
#
# Coordination Sequence:
#
# PCOD8262769 Si02
#       6
#    16  16  16  16  16  16
#     4   9  19  34  49  70 100 130 162 199 243 292
#     4   9  18  33  53  77 101 127 163 205 247 288
#     4  10  20  33  51  73  99 131 164 201 246 293
#     4  10  20  33  51  73 100 132 163 202 245 291
#     4   9  18  33  54  77 100 127 162 206 248 287
#     4  11  21  32  50  74 100 131 164 201 245 292
#
# _framework density 17.444948
#
# number of rings (size 3 to 8) (size 9 to 14) (size 15 to 20)
#    0.000    2.333    0.000    5.500    0.000    7.333 
#    0.000    0.000    0.000    1.000    0.000    3.500 
#    0.000    0.000    0.000    0.000    0.000    0.000 
#
# Total GULP energy -595161.871853 kJ/mol
# GULP energy per Si atom -12399.205664 kJ/mol
# Density = 1.740524 g / cm^3
# Si number density = 17.444948 Si / 1000 Ang^3
#
#
#
# Elastic Constant Matrix: (Units=GPa)
#
#
# Indices 1 2 3 4 5 6 
#
# 1 94.9327 57.1784 46.7070 0.0000 0.0000 0.0000
# 2 57.1784 89.0276 47.7840 0.0000 0.0000 0.0000
# 3 46.7070 47.7840 90.7380 0.0000 0.0000 0.0000
# 4 0.0000 0.0000 0.0000 31.3549 0.0000 0.0000
# 5 0.0000 0.0000 0.0000 0.0000 28.0072 0.0000
# 6 0.0000 0.0000 0.0000 0.0000 0.0000 23.4609
#
#
#
# Elastic Compliance Matrix: (Units=1/GPa)
#
#
# Indices 1 2 3 4 5 6 
#
# 1 0.018427 -0.009401 -0.004535 0.000000 0.000000 0.000000
# 2 -0.009401 0.020454 -0.005932 0.000000 0.000000 0.000000
# 3 -0.004535 -0.005932 0.016479 0.000000 0.000000 0.000000
# 4 0.000000 0.000000 0.000000 0.031893 0.000000 0.000000
# 5 0.000000 0.000000 0.000000 0.000000 0.035705 0.000000
# 6 0.000000 0.000000 0.000000 0.000000 0.000000 0.042624
#
#
# Mechanical properties :
#
#
# Convention : Reuss Voigt Hill
#
# Bulk Modulus (GPa) = 64.00229 64.22636 64.11433
# Shear Modulus (GPa) = 23.74991 24.76651 24.25821
#
# Velocity S-wave (km/s) = 3.69375 3.77197 3.73306
# Velocity P-wave (km/s) = 7.41347 7.47442 7.44400
#
# Compressibility (1/GPa) = 0.01562444
#
# Stress axis : x y z
#
# Youngs Moduli (GPa) = 54.26797 48.88901 60.68319
#
# Poissons Ratio (x) = 0.45961 0.27517
# Poissons Ratio (y) = 0.51018 0.36000
# Poissons Ratio (z) = 0.24608 0.29003
#
# Static dielectric constant tensor:
#      x y z
#    x 3.168180 0.000000 0.000000 
#    y 0.000000 3.212620 0.000000 
#    z 0.000000 0.000000 3.156100 
# 
# 
# High freq. dielectric constant tensor:
#      x y z
#    x 1.671540 0.000000 0.000000 
#    y 0.000000 1.669890 0.000000 
#    z 0.000000 0.000000 1.661690 
# 
# From -- ./inp_files/45729.got.cif
#   From: 2010.03.12/outbox.cif.g09.slc.cpg/sg64_23_cif.got.tgz:45729.got - 2010.04.10 20:19:32.
