data_PCOD8262976
_publ_section_title
;
Structure prediction by ZEFSAII (Michael W. Deem and Ramdas Pophale) SiO2 
 PCOD8262976
Probable space group: C M C A
;
_chemical_formula_sum "Si O2"
_cell_formula_units_Z 96
_cell_length_a 13.779866
_cell_length_b 10.530931
_cell_length_c 34.692576
_cell_angle_alpha 90.000000
_cell_angle_beta 90.000000
_cell_angle_gamma 90.000000
_cell_volume 5034.406853
_symmetry_space_group_name_H-M "C M C A"
_symmetry_group_IT_number 64
_symmetry_cell_setting 'orthorhombic'
loop_
_space_group_symop_operation_xyz
x,y,z
-x,1/2-y,1/2+z
x,-y,-z
-x,1/2+y,1/2-z
-x,-y,-z
x,1/2+y,1/2-z
-x,y,z
x,1/2-y,1/2+z
1/2+x,1/2+y,z
1/2-x,-y,1/2+z
1/2+x,1/2-y,-z
1/2-x,y,1/2-z
1/2-x,1/2-y,-z
1/2+x,y,1/2-z
1/2-x,1/2+y,z
1/2+x,-y,1/2+z
loop_
_atom_site_type_symbol
_atom_site_label
_atom_site_fract_x
_atom_site_fract_y
_atom_site_fract_z
Si Si1 0.302719 0.903689 0.829589
Si Si2 0.000000 0.826910 0.232219
Si Si3 0.790907 0.356845 0.293276
Si Si4 0.194349 0.398902 0.031835
Si Si5 0.109926 0.784077 0.024931
Si Si6 0.110122 0.572714 0.090330
Si Si7 0.500000 0.557141 0.286481
O O1 0.254155 0.775293 0.812302
O O2 0.316933 0.889308 0.875310
O O3 0.406760 0.931478 0.812325
O O4 0.235939 0.023298 0.819345
O O5 0.907046 0.856900 0.206277
O O6 0.000000 0.676165 0.244061
O O7 0.000000 0.916799 0.269083
O O8 0.750000 0.370069 0.250000
O O9 0.311629 0.391422 0.036320
O O10 0.147461 0.439527 0.072453
O O11 0.164754 0.500000 0.000000
O O12 0.144612 0.268460 0.016990
O O13 0.115734 0.679844 0.058138
O O14 0.000000 0.838650 0.021747
O O15 0.000000 0.555426 0.105226
#
# Coordination Sequence:
#
# PCOD8262976 Si02
#       7
#    16   8  16  16  16  16   8
#     4  11  23  37  58  86 113 149 186 234 284 335
#     4  10  22  36  60  80 114 140 188 238 279 340
#     4  11  23  39  59  84 111 149 190 235 283 336
#     4   9  18  33  55  81 107 142 186 225 270 328
#     4   9  18  33  55  82 109 144 181 226 274 328
#     4  10  20  35  55  78 110 146 184 227 275 333
#     4  10  20  38  58  86 109 146 186 233 283 331
#
# _framework density 19.068781000000001
#
# number of rings (size 3 to 8) (size 9 to 14) (size 15 to 20)
#    0.000    2.000    2.500    1.000    4.667    2.333 
#    0.000    0.000    0.000    0.000    0.000    0.000 
#    0.000    0.000    0.000    0.000    0.000    0.000 
#
# Total GULP energy -594935.284959 kJ/mol
# GULP energy per Si atom -12394.485103 kJ/mol
# Density = 1.902538 g / cm^3
# Si number density = 19.068781 Si / 1000 Ang^3
#
#
#
# Elastic Constant Matrix: (Units=GPa)
#
#
# Indices 1 2 3 4 5 6 
#
# 1 83.5934 11.3947 15.9066 0.0000 0.0000 0.0000
# 2 11.3947 64.6590 16.8999 0.0000 0.0000 0.0000
# 3 15.9066 16.8999 71.3263 0.0000 0.0000 0.0000
# 4 0.0000 0.0000 0.0000 15.6459 0.0000 0.0000
# 5 0.0000 0.0000 0.0000 0.0000 22.8578 0.0000
# 6 0.0000 0.0000 0.0000 0.0000 0.0000 37.8123
#
#
#
# Elastic Compliance Matrix: (Units=1/GPa)
#
#
# Indices 1 2 3 4 5 6 
#
# 1 0.012644 -0.001590 -0.002443 0.000000 0.000000 0.000000
# 2 -0.001590 0.016687 -0.003599 0.000000 0.000000 0.000000
# 3 -0.002443 -0.003599 0.015418 0.000000 0.000000 0.000000
# 4 0.000000 0.000000 0.000000 0.063915 0.000000 0.000000
# 5 0.000000 0.000000 0.000000 0.000000 0.043749 0.000000
# 6 0.000000 0.000000 0.000000 0.000000 0.000000 0.026446
#
#
# Mechanical properties :
#
#
# Convention : Reuss Voigt Hill
#
# Bulk Modulus (GPa) = 33.91609 34.22012 34.06811
# Shear Modulus (GPa) = 24.51575 26.95503 25.73539
#
# Velocity S-wave (km/s) = 3.58948 3.76382 3.67769
# Velocity P-wave (km/s) = 5.91642 6.07232 5.99488
#
# Compressibility (1/GPa) = 0.02948453
#
# Stress axis : x y z
#
# Youngs Moduli (GPa) = 79.08723 59.92828 64.86047
#
# Poissons Ratio (x) = 0.09527 0.15846
# Poissons Ratio (y) = 0.12572 0.23344
# Poissons Ratio (z) = 0.19322 0.21569
#
# Static dielectric constant tensor:
#      x y z
#    x 3.653860 0.000000 0.000000 
#    y 0.000000 3.642860 0.000000 
#    z 0.000000 0.000000 3.385020 
# 
# 
# High freq. dielectric constant tensor:
#      x y z
#    x 1.748220 0.000000 0.000000 
#    y 0.000000 1.734260 0.000000 
#    z 0.000000 0.000000 1.722670 
# 
# From -- ./inp_files/53210.got.cif
#   From: 2010.03.12/outbox.cif.g09.slc.cpg/sg64_27_cif.got.tgz:53210.got - 2010.04.10 20:19:32.
