data_PCOD8262757
_publ_section_title
;
Structure prediction by ZEFSAII (Michael W. Deem and Ramdas Pophale) SiO2 
 PCOD8262757
Probable space group: C M C A
;
_chemical_formula_sum "Si O2"
_cell_formula_units_Z 80
_cell_length_a 8.976069
_cell_length_b 27.696617
_cell_length_c 18.368333
_cell_angle_alpha 90.000000
_cell_angle_beta 90.000000
_cell_angle_gamma 90.000000
_cell_volume 4566.491483
_symmetry_space_group_name_H-M "C M C A"
_symmetry_group_IT_number 64
_symmetry_cell_setting 'orthorhombic'
loop_
_space_group_symop_operation_xyz
x,y,z
-x,1/2-y,1/2+z
x,-y,-z
-x,1/2+y,1/2-z
-x,-y,-z
x,1/2+y,1/2-z
-x,y,z
x,1/2-y,1/2+z
1/2+x,1/2+y,z
1/2-x,-y,1/2+z
1/2+x,1/2-y,-z
1/2-x,y,1/2-z
1/2-x,1/2-y,-z
1/2+x,y,1/2-z
1/2-x,1/2+y,z
1/2+x,-y,1/2+z
loop_
_atom_site_type_symbol
_atom_site_label
_atom_site_fract_x
_atom_site_fract_y
_atom_site_fract_z
Si Si1 0.666943 0.931517 0.870563
Si Si2 0.325171 0.339282 0.820701
Si Si3 0.675804 0.799442 0.522981
Si Si4 0.832874 0.609174 0.968332
Si Si5 0.331654 0.979550 0.418662
O O1 0.500000 0.934965 0.838380
O O2 0.762506 0.893529 0.824859
O O3 0.745756 0.983606 0.865392
O O4 0.660230 0.915104 0.953455
O O5 0.500000 0.341880 0.809270
O O6 0.250000 0.314007 0.750000
O O7 0.283303 0.309144 0.892671
O O8 0.500000 0.797243 0.511011
O O9 0.750000 0.750000 0.500000
O O10 0.741133 0.841164 0.471428
O O11 0.750024 0.572239 0.914132
O O12 0.000000 0.619569 0.939595
O O13 0.500000 0.973222 0.390544
O O14 0.331553 0.000000 0.500000
#
# Coordination Sequence:
#
# PCOD8262757 Si02
#       5
#    16  16  16  16  16
#     4   9  16  26  41  62  89 120 152 186 226 274
#     4  10  20  33  49  70  96 126 160 198 243 296
#     4  10  20  33  49  70  96 126 162 206 254 299
#     4   9  16  26  41  62  89 120 153 190 233 279
#     4   9  15  23  37  59  88 119 149 181 218 263
#
# _framework density 17.518920999999999
#
# number of rings (size 3 to 8) (size 9 to 14) (size 15 to 20)
#    0.000    2.600    0.000    3.000    0.000    9.600 
#    0.000    0.000    0.000    0.000    0.000    1.400 
#    0.000    3.200    0.000    0.000    0.000    0.000 
#
# Total GULP energy -495937.719147 kJ/mol
# GULP energy per Si atom -12398.442979 kJ/mol
# Density = 1.747905 g / cm^3
# Si number density = 17.518921 Si / 1000 Ang^3
#
#
#
# Elastic Constant Matrix: (Units=GPa)
#
#
# Indices 1 2 3 4 5 6 
#
# 1 142.4206 73.9877 36.4136 0.0000 0.0000 0.0000
# 2 73.9877 140.6427 37.3582 0.0000 0.0000 0.0000
# 3 36.4136 37.3582 44.2548 0.0000 0.0000 0.0000
# 4 0.0000 0.0000 0.0000 12.1152 0.0000 0.0000
# 5 0.0000 0.0000 0.0000 0.0000 20.7839 0.0000
# 6 0.0000 0.0000 0.0000 0.0000 0.0000 36.0237
#
#
#
# Elastic Compliance Matrix: (Units=1/GPa)
#
#
# Indices 1 2 3 4 5 6 
#
# 1 0.010491 -0.004159 -0.005122 0.000000 0.000000 0.000000
# 2 -0.004159 0.010814 -0.005707 0.000000 0.000000 0.000000
# 3 -0.005122 -0.005707 0.031628 0.000000 0.000000 0.000000
# 4 0.000000 0.000000 0.000000 0.082541 0.000000 0.000000
# 5 0.000000 0.000000 0.000000 0.000000 0.048114 0.000000
# 6 0.000000 0.000000 0.000000 0.000000 0.000000 0.027759
#
#
# Mechanical properties :
#
#
# Convention : Reuss Voigt Hill
#
# Bulk Modulus (GPa) = 43.55636 69.20411 56.38024
# Shear Modulus (GPa) = 20.08227 25.75515 22.91871
#
# Velocity S-wave (km/s) = 3.38941 3.83839 3.62086
# Velocity P-wave (km/s) = 6.34302 7.69627 7.05218
#
# Compressibility (1/GPa) = 0.02295876
#
# Stress axis : x y z
#
# Youngs Moduli (GPa) = 95.31554 92.47394 31.61726
#
# Poissons Ratio (x) = 0.38457 0.16194
# Poissons Ratio (y) = 0.39639 0.18043
# Poissons Ratio (z) = 0.48820 0.52773
#
# Static dielectric constant tensor:
#      x y z
#    x 3.516190 0.000000 0.000000 
#    y 0.000000 3.208650 0.000000 
#    z 0.000000 0.000000 2.931520 
# 
# 
# High freq. dielectric constant tensor:
#      x y z
#    x 1.700910 0.000000 0.000000 
#    y 0.000000 1.664460 0.000000 
#    z 0.000000 0.000000 1.623750 
# 
# From -- ./inp_files/29743.got.cif
#   From: 2010.03.12/outbox.cif.g09.slc.cpg/sg64_15_cif.got.tgz:29743.got - 2010.04.10 20:19:32.
