data_PCOD8262959
_publ_section_title
;
Structure prediction by ZEFSAII (Michael W. Deem and Ramdas Pophale) SiO2 
 PCOD8262959
Probable space group: C M C A
;
_chemical_formula_sum "Si O2"
_cell_formula_units_Z 96
_cell_length_a 17.787158
_cell_length_b 28.705009
_cell_length_c 10.358791
_cell_angle_alpha 90.000000
_cell_angle_beta 90.000000
_cell_angle_gamma 90.000000
_cell_volume 5288.997004
_symmetry_space_group_name_H-M "C M C A"
_symmetry_group_IT_number 64
_symmetry_cell_setting 'orthorhombic'
loop_
_space_group_symop_operation_xyz
x,y,z
-x,1/2-y,1/2+z
x,-y,-z
-x,1/2+y,1/2-z
-x,-y,-z
x,1/2+y,1/2-z
-x,y,z
x,1/2-y,1/2+z
1/2+x,1/2+y,z
1/2-x,-y,1/2+z
1/2+x,1/2-y,-z
1/2-x,y,1/2-z
1/2-x,1/2-y,-z
1/2+x,y,1/2-z
1/2-x,1/2+y,z
1/2+x,-y,1/2+z
loop_
_atom_site_type_symbol
_atom_site_label
_atom_site_fract_x
_atom_site_fract_y
_atom_site_fract_z
Si Si1 0.911785 0.025515 0.375117
Si Si2 0.662359 0.218792 0.734369
Si Si3 0.663382 0.611032 0.759829
Si Si4 0.410643 0.026668 0.626278
Si Si5 0.589014 0.222785 0.007697
Si Si6 0.086966 0.117870 0.495605
O O1 0.894958 0.081183 0.381151
O O2 0.000000 0.015970 0.372976
O O3 0.876382 0.000000 0.500000
O O4 0.878048 0.003918 0.244962
O O5 0.750000 0.230656 0.750000
O O6 0.649400 0.164614 0.702702
O O7 0.629542 0.245464 0.612015
O O8 0.619053 0.234210 0.864270
O O9 0.750000 0.598771 0.750000
O O10 0.624745 0.578391 0.867741
O O11 0.628547 0.599563 0.621692
O O12 0.500000 0.031783 0.626083
O O13 0.381973 0.000000 0.500000
O O14 0.500000 0.231591 0.011126
O O15 0.611186 0.169743 0.045347
O O16 0.000000 0.117457 0.532938
#
# Coordination Sequence:
#
# PCOD8262959 Si02
#       6
#    16  16  16  16  16  16
#     4   9  15  28  54  77  95 131 177 213 258 318
#     4  10  21  38  59  79 112 154 184 224 286 350
#     4  10  20  35  54  78 108 144 185 218 266 330
#     4  10  20  35  53  77 109 140 175 223 276 323
#     4  10  20  35  57  86 113 138 185 242 279 321
#     4   9  17  32  56  79 102 137 183 224 261 317
#
# _framework density 18.15089
#
# number of rings (size 3 to 8) (size 9 to 14) (size 15 to 20)
#    0.000    2.333    1.667    1.500    0.000    2.000 
#    6.000    0.000    0.000    0.000    0.000    0.000 
#    0.000    0.000    0.000    0.000    0.000    0.000 
#
# Total GULP energy -595104.032092 kJ/mol
# GULP energy per Si atom -12398.000669 kJ/mol
# Density = 1.810958 g / cm^3
# Si number density = 18.150890 Si / 1000 Ang^3
#
#
#
# Elastic Constant Matrix: (Units=GPa)
#
#
# Indices 1 2 3 4 5 6 
#
# 1 61.0638 43.4837 44.6408 0.0000 0.0000 0.0000
# 2 43.4837 112.0834 77.3794 0.0000 0.0000 0.0000
# 3 44.6408 77.3794 132.1783 0.0000 0.0000 0.0000
# 4 0.0000 0.0000 0.0000 35.0340 0.0000 0.0000
# 5 0.0000 0.0000 0.0000 0.0000 21.4480 0.0000
# 6 0.0000 0.0000 0.0000 0.0000 0.0000 47.0052
#
#
#
# Elastic Compliance Matrix: (Units=1/GPa)
#
#
# Indices 1 2 3 4 5 6 
#
# 1 0.024108 -0.006263 -0.004476 0.000000 0.000000 0.000000
# 2 -0.006263 0.016601 -0.007603 0.000000 0.000000 0.000000
# 3 -0.004476 -0.007603 0.013528 0.000000 0.000000 0.000000
# 4 0.000000 0.000000 0.000000 0.028544 0.000000 0.000000
# 5 0.000000 0.000000 0.000000 0.000000 0.046624 0.000000
# 6 0.000000 0.000000 0.000000 0.000000 0.000000 0.021274
#
#
# Mechanical properties :
#
#
# Convention : Reuss Voigt Hill
#
# Bulk Modulus (GPa) = 56.96907 70.70369 63.83638
# Shear Modulus (GPa) = 25.87805 30.01889 27.94847
#
# Velocity S-wave (km/s) = 3.77996 4.07117 3.92827
# Velocity P-wave (km/s) = 7.10671 7.81902 7.47136
#
# Compressibility (1/GPa) = 0.01755338
#
# Stress axis : x y z
#
# Youngs Moduli (GPa) = 41.47974 60.23834 73.92066
#
# Poissons Ratio (x) = 0.37728 0.33083
# Poissons Ratio (y) = 0.25979 0.56202
# Poissons Ratio (z) = 0.18564 0.45800
#
# Static dielectric constant tensor:
#      x y z
#    x 3.224670 0.000000 0.000000 
#    y 0.000000 3.535590 0.000000 
#    z 0.000000 0.000000 3.353040 
# 
# 
# High freq. dielectric constant tensor:
#      x y z
#    x 1.689160 0.000000 0.000000 
#    y 0.000000 1.713740 0.000000 
#    z 0.000000 0.000000 1.690770 
# 
# From -- ./inp_files/8376.got.cif
#   From: 2010.03.12/outbox.cif.g09.slc.cpg/sg64_5_cif.got.tgz:8376.got - 2010.04.10 20:19:32.
