data_PCOD8262900
_publ_section_title
;
Structure prediction by ZEFSAII (Michael W. Deem and Ramdas Pophale) SiO2 
 PCOD8262900
Probable space group: C M C A
;
_chemical_formula_sum "Si O2"
_cell_formula_units_Z 112
_cell_length_a 8.898338
_cell_length_b 18.147895
_cell_length_c 36.214292
_cell_angle_alpha 90.000000
_cell_angle_beta 90.000000
_cell_angle_gamma 90.000000
_cell_volume 5848.104913
_symmetry_space_group_name_H-M "C M C A"
_symmetry_group_IT_number 64
_symmetry_cell_setting 'orthorhombic'
loop_
_space_group_symop_operation_xyz
x,y,z
-x,1/2-y,1/2+z
x,-y,-z
-x,1/2+y,1/2-z
-x,-y,-z
x,1/2+y,1/2-z
-x,y,z
x,1/2-y,1/2+z
1/2+x,1/2+y,z
1/2-x,-y,1/2+z
1/2+x,1/2-y,-z
1/2-x,y,1/2-z
1/2-x,1/2-y,-z
1/2+x,y,1/2-z
1/2-x,1/2+y,z
1/2+x,-y,1/2+z
loop_
_atom_site_type_symbol
_atom_site_label
_atom_site_fract_x
_atom_site_fract_y
_atom_site_fract_z
Si Si1 0.322933 0.670712 0.999078
Si Si2 0.177090 0.585347 0.574821
Si Si3 0.678278 0.167382 0.359248
Si Si4 0.178523 0.917535 0.930433
Si Si5 0.823603 0.083231 0.212184
Si Si6 0.176924 0.913634 0.211925
Si Si7 0.177793 0.664380 0.856698
O O1 0.500000 0.680162 0.002544
O O2 0.258895 0.622770 0.033097
O O3 0.250000 0.750000 0.000000
O O4 0.278032 0.630200 0.961491
O O5 0.231823 0.501804 0.569212
O O6 0.268318 0.617706 0.608713
O O7 0.000000 0.589595 0.583336
O O8 0.500000 0.160282 0.359218
O O9 0.744561 0.123321 0.394326
O O10 0.741738 0.131310 0.321616
O O11 0.730039 0.251574 0.362318
O O12 0.000000 0.914103 0.930496
O O13 0.750000 0.111695 0.250000
O O14 0.000000 0.093763 0.216459
O O15 0.781297 0.998552 0.204231
O O16 0.250000 0.886653 0.250000
O O17 0.244681 0.864405 0.179953
O O18 0.000000 0.901485 0.213963
O O19 0.000000 0.657681 0.852504
#
# Coordination Sequence:
#
# PCOD8262900 Si02
#       7
#    16  16  16  16  16  16  16
#     4  10  20  34  55  82 110 140 175 218 270 323
#     4  10  20  35  56  80 105 137 181 225 262 311
#     4   9  18  32  51  75 103 136 174 216 264 316
#     4   9  17  33  56  78 102 137 181 224 265 314
#     4   9  18  34  55  77 101 133 173 215 258 306
#     4  10  20  36  58  81 107 140 179 222 265 313
#     4  11  22  35  53  79 111 143 175 215 267 322
#
# _framework density 19.151503999999999
#
# number of rings (size 3 to 8) (size 9 to 14) (size 15 to 20)
#    0.000    2.286    0.000    3.000    0.000    6.857 
#    0.000    3.571    0.000    6.000    0.000    0.000 
#    0.000    0.000    0.000    0.000    0.000    0.000 
#
# Total GULP energy -694537.295156 kJ/mol
# GULP energy per Si atom -12402.451699 kJ/mol
# Density = 1.910791 g / cm^3
# Si number density = 19.151504 Si / 1000 Ang^3
#
#
#
# Elastic Constant Matrix: (Units=GPa)
#
#
# Indices 1 2 3 4 5 6 
#
# 1 37.6381 36.8422 40.6412 0.0000 0.0000 0.0000
# 2 36.8422 158.3415 92.8124 0.0000 0.0000 0.0000
# 3 40.6412 92.8124 173.9971 0.0000 0.0000 0.0000
# 4 0.0000 0.0000 0.0000 41.8819 0.0000 0.0000
# 5 0.0000 0.0000 0.0000 0.0000 29.3926 0.0000
# 6 0.0000 0.0000 0.0000 0.0000 0.0000 21.3563
#
#
#
# Elastic Compliance Matrix: (Units=1/GPa)
#
#
# Indices 1 2 3 4 5 6 
#
# 1 0.038413 -0.005352 -0.006117 0.000000 0.000000 0.000000
# 2 -0.005352 0.009934 -0.004049 0.000000 0.000000 0.000000
# 3 -0.006117 -0.004049 0.009336 0.000000 0.000000 0.000000
# 4 0.000000 0.000000 0.000000 0.023877 0.000000 0.000000
# 5 0.000000 0.000000 0.000000 0.000000 0.034022 0.000000
# 6 0.000000 0.000000 0.000000 0.000000 0.000000 0.046825
#
#
# Mechanical properties :
#
#
# Convention : Reuss Voigt Hill
#
# Bulk Modulus (GPa) = 37.52856 78.95204 58.24030
# Shear Modulus (GPa) = 24.71266 31.83820 28.27543
#
# Velocity S-wave (km/s) = 3.59608 4.08172 3.84657
# Velocity P-wave (km/s) = 6.07293 7.97047 7.08551
#
# Compressibility (1/GPa) = 0.02664637
#
# Stress axis : x y z
#
# Youngs Moduli (GPa) = 26.03265 100.66449 107.11445
#
# Poissons Ratio (x) = 0.53876 0.65527
# Poissons Ratio (y) = 0.13933 0.43369
# Poissons Ratio (z) = 0.15925 0.40757
#
# Static dielectric constant tensor:
#      x y z
#    x 3.194940 0.000000 0.000000 
#    y 0.000000 3.636370 0.000000 
#    z 0.000000 0.000000 3.748090 
# 
# 
# High freq. dielectric constant tensor:
#      x y z
#    x 1.711870 0.000000 0.000000 
#    y 0.000000 1.754500 0.000000 
#    z 0.000000 0.000000 1.765460 
# 
# From -- ./inp_files/52828.got.cif
#   From: 2010.03.12/outbox.cif.g09.slc.cpg/sg64_27_cif.got.tgz:52828.got - 2010.04.10 20:19:32.
