data_PCOD8262860
_publ_section_title
;
Structure prediction by ZEFSAII (Michael W. Deem and Ramdas Pophale) SiO2 
 PCOD8262860
Probable space group: C M C A
;
_chemical_formula_sum "Si O2"
_cell_formula_units_Z 96
_cell_length_a 9.035658
_cell_length_b 23.309287
_cell_length_c 22.959183
_cell_angle_alpha 90.000000
_cell_angle_beta 90.000000
_cell_angle_gamma 90.000000
_cell_volume 4835.542486
_symmetry_space_group_name_H-M "C M C A"
_symmetry_group_IT_number 64
_symmetry_cell_setting 'orthorhombic'
loop_
_space_group_symop_operation_xyz
x,y,z
-x,1/2-y,1/2+z
x,-y,-z
-x,1/2+y,1/2-z
-x,-y,-z
x,1/2+y,1/2-z
-x,y,z
x,1/2-y,1/2+z
1/2+x,1/2+y,z
1/2-x,-y,1/2+z
1/2+x,1/2-y,-z
1/2-x,y,1/2-z
1/2-x,1/2-y,-z
1/2+x,y,1/2-z
1/2-x,1/2+y,z
1/2+x,-y,1/2+z
loop_
_atom_site_type_symbol
_atom_site_label
_atom_site_fract_x
_atom_site_fract_y
_atom_site_fract_z
Si Si1 0.832347 0.403428 0.695928
Si Si2 0.334379 0.517596 0.085402
Si Si3 0.824313 0.694390 0.132568
Si Si4 0.175285 0.698879 0.813338
Si Si5 0.668721 0.599540 0.600219
Si Si6 0.330643 0.883610 0.972203
O O1 0.750000 0.433532 0.750000
O O2 0.829314 0.448705 0.645167
O O3 0.733786 0.347669 0.682548
O O4 0.000000 0.384731 0.710635
O O5 0.500000 0.508810 0.062617
O O6 0.267257 0.456365 0.099109
O O7 0.251363 0.555378 0.036733
O O8 0.743516 0.754442 0.142872
O O9 0.774010 0.667802 0.069801
O O10 0.000000 0.702782 0.137035
O O11 0.250000 0.700231 0.750000
O O12 0.211453 0.638563 0.844614
O O13 0.000000 0.708910 0.806780
O O14 0.500000 0.579279 0.605283
O O15 0.691488 0.634690 0.539468
O O16 0.500000 0.895732 0.956100
#
# Coordination Sequence:
#
# PCOD8262860 Si02
#       6
#    16  16  16  16  16  16
#     4  10  20  34  53  79 110 143 183 230 278 326
#     4  10  21  35  54  83 115 146 182 227 276 324
#     4  10  20  36  59  84 110 141 179 225 277 329
#     4  11  24  41  59  80 110 148 188 227 271 323
#     4  10  22  39  58  80 110 149 186 222 268 325
#     4   9  19  37  60  85 112 143 180 222 273 330
#
# _framework density 19.852995
#
# number of rings (size 3 to 8) (size 9 to 14) (size 15 to 20)
#    0.000    2.000    0.000    3.000    0.000    8.000 
#    0.000    3.333    0.000    0.000    0.000    0.000 
#    0.000    0.000    0.000    0.000    0.000    0.000 
#
# Total GULP energy -595137.954998 kJ/mol
# GULP energy per Si atom -12398.707396 kJ/mol
# Density = 1.980781 g / cm^3
# Si number density = 19.852995 Si / 1000 Ang^3
#
#
#
# Elastic Constant Matrix: (Units=GPa)
#
#
# Indices 1 2 3 4 5 6 
#
# 1 105.8398 50.4398 42.6692 0.0000 0.0000 0.0000
# 2 50.4398 95.0932 35.0221 0.0000 0.0000 0.0000
# 3 42.6692 35.0221 65.1609 0.0000 0.0000 0.0000
# 4 0.0000 0.0000 0.0000 -3.8128 0.0000 0.0000
# 5 0.0000 0.0000 0.0000 0.0000 21.4329 0.0000
# 6 0.0000 0.0000 0.0000 0.0000 0.0000 31.3403
#
#
#
# Elastic Compliance Matrix: (Units=1/GPa)
#
#
# Indices 1 2 3 4 5 6 
#
# 1 0.014710 -0.005305 -0.006781 0.000000 0.000000 0.000000
# 2 -0.005305 0.015025 -0.004601 0.000000 0.000000 0.000000
# 3 -0.006781 -0.004601 0.022260 0.000000 0.000000 0.000000
# 4 0.000000 0.000000 0.000000 -0.262276 0.000000 0.000000
# 5 0.000000 0.000000 0.000000 0.000000 0.046657 0.000000
# 6 0.000000 0.000000 0.000000 0.000000 0.000000 0.031908
#
#
# Mechanical properties :
#
#
# Convention : Reuss Voigt Hill
#
# Bulk Modulus (GPa) = 53.70693 58.03956 55.87324
# Shear Modulus (GPa) = -54.26927 18.98960 -17.63983
#
# Velocity S-wave (km/s) = -5.23401 3.09611 -2.98404
# Velocity P-wave (km/s) = 3.06847 6.48686 4.04127
#
# Compressibility (1/GPa) = 0.01861957
#
# Stress axis : x y z
#
# Youngs Moduli (GPa) = 67.97869 66.55725 44.92290
#
# Poissons Ratio (x) = 0.35310 0.30464
# Poissons Ratio (y) = 0.36065 0.20670
# Poissons Ratio (z) = 0.46099 0.30625
#
# Static dielectric constant tensor:
#      x y z
#    x 3.810840 0.000000 0.000000 
#    y 0.000000 3.483570 0.000000 
#    z 0.000000 0.000000 3.785580 
# 
# 
# High freq. dielectric constant tensor:
#      x y z
#    x 1.783310 0.000000 0.000000 
#    y 0.000000 1.760990 0.000000 
#    z 0.000000 0.000000 1.785940 
# 
# From -- ./inp_files/42984.got.cif
#   From: 2010.03.12/outbox.cif.g09.slc.cpg/sg64_22_cif.got.tgz:42984.got - 2010.04.10 20:19:32.
