data_PCOD8262721
_publ_section_title
;
Structure prediction by ZEFSAII (Michael W. Deem and Ramdas Pophale) SiO2 
 PCOD8262721
Probable space group: C M C A
;
_chemical_formula_sum "Si O2"
_cell_formula_units_Z 80
_cell_length_a 9.146761
_cell_length_b 27.465471
_cell_length_c 17.833322
_cell_angle_alpha 90.000000
_cell_angle_beta 90.000000
_cell_angle_gamma 90.000000
_cell_volume 4480.088918
_symmetry_space_group_name_H-M "C M C A"
_symmetry_group_IT_number 64
_symmetry_cell_setting 'orthorhombic'
loop_
_space_group_symop_operation_xyz
x,y,z
-x,1/2-y,1/2+z
x,-y,-z
-x,1/2+y,1/2-z
-x,-y,-z
x,1/2+y,1/2-z
-x,y,z
x,1/2-y,1/2+z
1/2+x,1/2+y,z
1/2-x,-y,1/2+z
1/2+x,1/2-y,-z
1/2-x,y,1/2-z
1/2-x,1/2-y,-z
1/2+x,y,1/2-z
1/2-x,1/2+y,z
1/2+x,-y,1/2+z
loop_
_atom_site_type_symbol
_atom_site_label
_atom_site_fract_x
_atom_site_fract_y
_atom_site_fract_z
Si Si1 0.171911 0.459444 0.672649
Si Si2 0.668920 0.934704 0.380691
Si Si3 0.670783 0.700549 0.519691
Si Si4 0.829795 0.156142 0.678275
Si Si5 0.331297 0.890486 0.538666
O O1 0.250000 0.447042 0.750000
O O2 0.222415 0.511479 0.640483
O O3 0.218442 0.418326 0.613318
O O4 0.000000 0.459059 0.685984
O O5 0.500000 0.926141 0.359356
O O6 0.766645 0.897760 0.333333
O O7 0.694051 0.926948 0.469158
O O8 0.500000 0.705456 0.503093
O O9 0.750000 0.750000 0.500000
O O10 0.702924 0.689651 0.606718
O O11 0.733400 0.657551 0.468135
O O12 0.750000 0.180284 0.750000
O O13 0.000000 0.151734 0.694973
O O14 0.500000 0.874224 0.542655
#
# Coordination Sequence:
#
# PCOD8262721 Si02
#       5
#    16  16  16  16  16
#     4  10  20  32  48  73 105 140 175 208 245 293
#     4   9  17  31  52  75 101 135 172 209 249 294
#     4  10  21  37  57  79 101 128 166 210 256 305
#     4  10  20  33  51  78 107 132 163 205 252 301
#     4   9  18  34  54  74  99 133 172 211 251 298
#
# _framework density 17.856788999999999
#
# number of rings (size 3 to 8) (size 9 to 14) (size 15 to 20)
#    0.000    2.400    0.000    2.400    0.000    8.000 
#    0.000    1.000    0.000    6.000    0.000    0.000 
#    0.000    0.000    0.000    0.000    0.000    0.000 
#
# Total GULP energy -496116.265749 kJ/mol
# GULP energy per Si atom -12402.906644 kJ/mol
# Density = 1.781615 g / cm^3
# Si number density = 17.856789 Si / 1000 Ang^3
#
#
#
# Elastic Constant Matrix: (Units=GPa)
#
#
# Indices 1 2 3 4 5 6 
#
# 1 92.4515 69.5888 65.4759 0.0000 0.0000 0.0000
# 2 69.5888 125.4822 74.3053 0.0000 0.0000 0.0000
# 3 65.4759 74.3053 129.7931 0.0000 0.0000 0.0000
# 4 0.0000 0.0000 0.0000 17.4447 0.0000 0.0000
# 5 0.0000 0.0000 0.0000 0.0000 34.2221 0.0000
# 6 0.0000 0.0000 0.0000 0.0000 0.0000 28.3384
#
#
#
# Elastic Compliance Matrix: (Units=1/GPa)
#
#
# Indices 1 2 3 4 5 6 
#
# 1 0.021279 -0.008236 -0.006019 0.000000 0.000000 0.000000
# 2 -0.008236 0.015244 -0.004572 0.000000 0.000000 0.000000
# 3 -0.006019 -0.004572 0.013359 0.000000 0.000000 0.000000
# 4 0.000000 0.000000 0.000000 0.057324 0.000000 0.000000
# 5 0.000000 0.000000 0.000000 0.000000 0.029221 0.000000
# 6 0.000000 0.000000 0.000000 0.000000 0.000000 0.035288
#
#
# Mechanical properties :
#
#
# Convention : Reuss Voigt Hill
#
# Bulk Modulus (GPa) = 81.79149 85.16297 83.47723
# Shear Modulus (GPa) = 23.42514 25.22485 24.32499
#
# Velocity S-wave (km/s) = 3.62585 3.76256 3.69484
# Velocity P-wave (km/s) = 7.96446 8.16527 8.06549
#
# Compressibility (1/GPa) = 0.01222621
#
# Stress axis : x y z
#
# Youngs Moduli (GPa) = 46.99477 65.59753 74.85773
#
# Poissons Ratio (x) = 0.54029 0.45058
# Poissons Ratio (y) = 0.38707 0.34228
# Poissons Ratio (z) = 0.28287 0.29994
#
# Static dielectric constant tensor:
#      x y z
#    x 3.305190 0.000000 0.000000 
#    y 0.000000 3.179710 0.000000 
#    z 0.000000 0.000000 3.446450 
# 
# 
# High freq. dielectric constant tensor:
#      x y z
#    x 1.692750 0.000000 0.000000 
#    y 0.000000 1.677640 0.000000 
#    z 0.000000 0.000000 1.696540 
# 
# From -- ./inp_files/29691.got.cif
#   From: 2010.03.12/outbox.cif.g09.slc.cpg/sg64_15_cif.got.tgz:29691.got - 2010.04.10 20:19:32.
