data_PCOD8262476
_publ_section_title
;
Structure prediction by ZEFSAII (Michael W. Deem and Ramdas Pophale) SiO2 
 PCOD8262476
Probable space group: C M C A
;
_chemical_formula_sum "Si O2"
_cell_formula_units_Z 80
_cell_length_a 9.687084
_cell_length_b 23.518903
_cell_length_c 17.710488
_cell_angle_alpha 90.000000
_cell_angle_beta 90.000000
_cell_angle_gamma 90.000000
_cell_volume 4034.973201
_symmetry_space_group_name_H-M "C M C A"
_symmetry_group_IT_number 64
_symmetry_cell_setting 'orthorhombic'
loop_
_space_group_symop_operation_xyz
x,y,z
-x,1/2-y,1/2+z
x,-y,-z
-x,1/2+y,1/2-z
-x,-y,-z
x,1/2+y,1/2-z
-x,y,z
x,1/2-y,1/2+z
1/2+x,1/2+y,z
1/2-x,-y,1/2+z
1/2+x,1/2-y,-z
1/2-x,y,1/2-z
1/2-x,1/2-y,-z
1/2+x,y,1/2-z
1/2-x,1/2+y,z
1/2+x,-y,1/2+z
loop_
_atom_site_type_symbol
_atom_site_label
_atom_site_fract_x
_atom_site_fract_y
_atom_site_fract_z
Si Si1 0.500000 0.950521 0.163695
Si Si2 0.282329 0.971321 0.418500
Si Si3 0.000000 0.025513 0.186894
Si Si4 0.500000 0.180806 0.795677
Si Si5 0.000000 0.858847 0.873404
Si Si6 0.000000 0.884494 0.039801
Si Si7 0.280398 0.769377 0.665759
Si Si8 0.000000 0.724619 0.627354
O O1 0.369735 0.959947 0.110829
O O2 0.500000 0.886423 0.194267
O O3 0.500000 0.995377 0.231987
O O4 0.363361 0.911984 0.424337
O O5 0.276943 0.000000 0.500000
O O6 0.361336 0.010272 0.358327
O O7 0.000000 0.094594 0.194462
O O8 0.635380 0.209699 0.832797
O O9 0.500000 0.191127 0.706243
O O10 0.134834 0.819569 0.872697
O O11 0.000000 0.894526 0.950451
O O12 0.000000 0.817927 0.057315
O O13 0.250000 0.789918 0.750000
O O14 0.137352 0.762861 0.620246
#
# Coordination Sequence:
#
# PCOD8262476 Si02
#       8
#     8  16   8   8   8   8  16   8
#     4  12  24  36  66 100 119 147 219 280 290 352
#     4  11  22  42  60  87 126 168 197 249 328 373
#     4  11  23  42  63  89 120 167 214 242 302 397
#     4   9  18  37  56  86 120 146 188 256 324 353
#     4  11  22  41  59  82 122 173 201 237 313 390
#     4  11  21  39  67  79 122 174 200 240 317 405
#     4   9  20  37  60  84 120 154 196 258 311 363
#     4  10  19  34  59  91 111 149 203 256 307 355
#
# _framework density 19.826649
#
# number of rings (size 3 to 8) (size 9 to 14) (size 15 to 20)
#    0.000    1.600    2.000    4.500    0.000    5.600 
#    0.000    2.000    0.000    0.000    0.000    0.000 
#    0.000    0.000    0.000    0.000    0.000    0.000 
#
# Total GULP energy -496045.141494 kJ/mol
# GULP energy per Si atom -12401.128537 kJ/mol
# Density = 1.978152 g / cm^3
# Si number density = 19.826649 Si / 1000 Ang^3
#
#
#
# Elastic Constant Matrix: (Units=GPa)
#
#
# Indices 1 2 3 4 5 6 
#
# 1 175.6601 53.8952 41.7911 0.0000 0.0000 0.0000
# 2 53.8952 111.0052 26.1568 0.0000 0.0000 0.0000
# 3 41.7911 26.1568 71.5411 0.0000 0.0000 0.0000
# 4 0.0000 0.0000 0.0000 27.1562 0.0000 0.0000
# 5 0.0000 0.0000 0.0000 0.0000 31.6060 0.0000
# 6 0.0000 0.0000 0.0000 0.0000 0.0000 8.7850
#
#
#
# Elastic Compliance Matrix: (Units=1/GPa)
#
#
# Indices 1 2 3 4 5 6 
#
# 1 0.007323 -0.002788 -0.003259 0.000000 0.000000 0.000000
# 2 -0.002788 0.010919 -0.002364 0.000000 0.000000 0.000000
# 3 -0.003259 -0.002364 0.016746 0.000000 0.000000 0.000000
# 4 0.000000 0.000000 0.000000 0.036824 0.000000 0.000000
# 5 0.000000 0.000000 0.000000 0.000000 0.031640 0.000000
# 6 0.000000 0.000000 0.000000 0.000000 0.000000 0.113830
#
#
# Mechanical properties :
#
#
# Convention : Reuss Voigt Hill
#
# Bulk Modulus (GPa) = 55.04245 66.87696 60.95971
# Shear Modulus (GPa) = 20.81957 29.26701 25.04329
#
# Velocity S-wave (km/s) = 3.24401 3.84623 3.55788
# Velocity P-wave (km/s) = 6.46943 7.31633 6.90588
#
# Compressibility (1/GPa) = 0.01816780
#
# Stress axis : x y z
#
# Youngs Moduli (GPa) = 136.54793 91.58266 59.71640
#
# Poissons Ratio (x) = 0.25531 0.19460
# Poissons Ratio (y) = 0.38067 0.14115
# Poissons Ratio (z) = 0.44498 0.21648
#
# Static dielectric constant tensor:
#      x y z
#    x 3.971780 0.000000 0.000000 
#    y 0.000000 3.480690 0.000000 
#    z 0.000000 0.000000 3.430280 
# 
# 
# High freq. dielectric constant tensor:
#      x y z
#    x 1.787030 0.000000 0.000000 
#    y 0.000000 1.768870 0.000000 
#    z 0.000000 0.000000 1.761330 
# 
# From -- ./inp_files/36750.got.cif
#   From: 2010.03.12/outbox.cif.g09.slc.cpg/sg64_19_cif.got.tgz:36750.got - 2010.04.10 20:19:32.
