data_PCOD8262077
_publ_section_title
;
Structure prediction by ZEFSAII (Michael W. Deem and Ramdas Pophale) SiO2 
 PCOD8262077
Probable space group: C M C A
;
_chemical_formula_sum "Si O2"
_cell_formula_units_Z 96
_cell_length_a 9.373130
_cell_length_b 23.084705
_cell_length_c 23.124418
_cell_angle_alpha 90.000000
_cell_angle_beta 90.000000
_cell_angle_gamma 90.000000
_cell_volume 5003.567704
_symmetry_space_group_name_H-M "C M C A"
_symmetry_group_IT_number 64
_symmetry_cell_setting 'orthorhombic'
loop_
_space_group_symop_operation_xyz
x,y,z
-x,1/2-y,1/2+z
x,-y,-z
-x,1/2+y,1/2-z
-x,-y,-z
x,1/2+y,1/2-z
-x,y,z
x,1/2-y,1/2+z
1/2+x,1/2+y,z
1/2-x,-y,1/2+z
1/2+x,1/2-y,-z
1/2-x,y,1/2-z
1/2-x,1/2-y,-z
1/2+x,y,1/2-z
1/2-x,1/2+y,z
1/2+x,-y,1/2+z
loop_
_atom_site_type_symbol
_atom_site_label
_atom_site_fract_x
_atom_site_fract_y
_atom_site_fract_z
Si Si1 0.331087 0.316149 0.689430
Si Si2 0.333785 0.531820 0.610262
Si Si3 0.834204 0.860337 0.471259
Si Si4 0.668073 0.403058 0.591787
Si Si5 0.340612 0.599648 0.804086
Si Si6 0.341597 0.708765 0.886061
O O1 0.500000 0.312389 0.701602
O O2 0.250000 0.318646 0.750000
O O3 0.288747 0.372754 0.652058
O O4 0.277975 0.261036 0.652118
O O5 0.500000 0.530127 0.627726
O O6 0.305417 0.578505 0.560317
O O7 0.277519 0.469131 0.589714
O O8 0.241877 0.546187 0.666951
O O9 0.772525 0.867571 0.536342
O O10 0.754929 0.806009 0.441552
O O11 0.000000 0.844577 0.469777
O O12 0.500000 0.403374 0.584200
O O13 0.500000 0.580125 0.785815
O O14 0.250000 0.621413 0.750000
O O15 0.349041 0.652501 0.847230
O O16 0.500000 0.726090 0.907940
#
# Coordination Sequence:
#
# PCOD8262077 Si02
#       6
#    16  16  16  16  16  16
#     4  10  21  37  54  72  99 134 170 206 246 293
#     4   9  17  31  51  74 101 133 167 203 246 296
#     4   9  17  31  54  80 102 128 165 205 246 296
#     4   9  18  33  53  76 102 133 167 204 245 292
#     4  10  19  31  48  71  98 128 166 210 254 297
#     4   9  19  34  51  73 101 130 161 205 256 298
#
# _framework density 19.186309999999999
#
# number of rings (size 3 to 8) (size 9 to 14) (size 15 to 20)
#    0.000    2.667    0.000    1.500    0.000    4.667 
#    0.000    4.167    0.000    4.000    0.000    0.000 
#    0.000    0.000    0.000    0.000    0.000    0.000 
#
# Total GULP energy -595058.857867 kJ/mol
# GULP energy per Si atom -12397.059539 kJ/mol
# Density = 1.914264 g / cm^3
# Si number density = 19.186310 Si / 1000 Ang^3
#
#
#
# Elastic Constant Matrix: (Units=GPa)
#
#
# Indices 1 2 3 4 5 6 
#
# 1 62.9943 21.5237 31.6152 0.0000 0.0000 0.0000
# 2 21.5237 70.0211 35.9740 0.0000 0.0000 0.0000
# 3 31.6152 35.9740 73.9906 0.0000 0.0000 0.0000
# 4 0.0000 0.0000 0.0000 22.8006 0.0000 0.0000
# 5 0.0000 0.0000 0.0000 0.0000 27.0348 0.0000
# 6 0.0000 0.0000 0.0000 0.0000 0.0000 19.0679
#
#
#
# Elastic Compliance Matrix: (Units=1/GPa)
#
#
# Indices 1 2 3 4 5 6 
#
# 1 0.020507 -0.002402 -0.007594 0.000000 0.000000 0.000000
# 2 -0.002402 0.019318 -0.008366 0.000000 0.000000 0.000000
# 3 -0.007594 -0.008366 0.020828 0.000000 0.000000 0.000000
# 4 0.000000 0.000000 0.000000 0.043858 0.000000 0.000000
# 5 0.000000 0.000000 0.000000 0.000000 0.036989 0.000000
# 6 0.000000 0.000000 0.000000 0.000000 0.000000 0.052444
#
#
# Mechanical properties :
#
#
# Convention : Reuss Voigt Hill
#
# Bulk Modulus (GPa) = 41.79263 42.80353 42.29808
# Shear Modulus (GPa) = 20.95168 21.64022 21.29595
#
# Velocity S-wave (km/s) = 3.30815 3.36206 3.33521
# Velocity P-wave (km/s) = 6.03503 6.11794 6.07662
#
# Compressibility (1/GPa) = 0.02392767
#
# Stress axis : x y z
#
# Youngs Moduli (GPa) = 48.76501 51.76581 48.01291
#
# Poissons Ratio (x) = 0.12433 0.36463
# Poissons Ratio (y) = 0.11712 0.40168
# Poissons Ratio (z) = 0.37034 0.43307
#
# Static dielectric constant tensor:
#      x y z
#    x 3.521860 0.000000 0.000000 
#    y 0.000000 3.554010 0.000000 
#    z 0.000000 0.000000 3.586380 
# 
# 
# High freq. dielectric constant tensor:
#      x y z
#    x 1.720310 0.000000 0.000000 
#    y 0.000000 1.745920 0.000000 
#    z 0.000000 0.000000 1.749180 
# 
# From -- ./inp_files/38398.got.cif
#   From: 2010.03.12/outbox.cif.g09.slc.cpg/sg64_20_cif.got.tgz:38398.got - 2010.04.10 20:19:32.
