data_PCOD8262456
_publ_section_title
;
Structure prediction by ZEFSAII (Michael W. Deem and Ramdas Pophale) SiO2 
 PCOD8262456
Probable space group: C M C A
;
_chemical_formula_sum "Si O2"
_cell_formula_units_Z 80
_cell_length_a 13.364780
_cell_length_b 17.621453
_cell_length_c 17.837539
_cell_angle_alpha 90.000000
_cell_angle_beta 90.000000
_cell_angle_gamma 90.000000
_cell_volume 4200.862490
_symmetry_space_group_name_H-M "C M C A"
_symmetry_group_IT_number 64
_symmetry_cell_setting 'orthorhombic'
loop_
_space_group_symop_operation_xyz
x,y,z
-x,1/2-y,1/2+z
x,-y,-z
-x,1/2+y,1/2-z
-x,-y,-z
x,1/2+y,1/2-z
-x,y,z
x,1/2-y,1/2+z
1/2+x,1/2+y,z
1/2-x,-y,1/2+z
1/2+x,1/2-y,-z
1/2-x,y,1/2-z
1/2-x,1/2-y,-z
1/2+x,y,1/2-z
1/2-x,1/2+y,z
1/2+x,-y,1/2+z
loop_
_atom_site_type_symbol
_atom_site_label
_atom_site_fract_x
_atom_site_fract_y
_atom_site_fract_z
Si Si1 0.220759 0.005116 0.334223
Si Si2 0.886722 0.368747 0.102242
Si Si3 0.704042 0.784824 0.427115
Si Si4 0.613644 0.868664 0.924099
Si Si5 0.385324 0.944573 0.433513
O O1 0.250000 0.025564 0.250000
O O2 0.131029 0.944641 0.348826
O O3 0.323431 0.968794 0.361842
O O4 0.191137 0.080828 0.377958
O O5 0.799560 0.308361 0.125841
O O6 0.000000 0.338897 0.117515
O O7 0.870641 0.384048 0.013150
O O8 0.750000 0.750000 0.500000
O O9 0.634107 0.717720 0.395192
O O10 0.636411 0.856535 0.450930
O O11 0.500000 0.889117 0.902550
O O12 0.500000 0.956076 0.413433
O O13 0.351877 0.000000 0.500000
#
# Coordination Sequence:
#
# PCOD8262456 Si02
#       5
#    16  16  16  16  16
#     4  11  22  35  52  75 107 141 179 223 265 314
#     4   9  18  34  58  82 103 135 177 221 266 314
#     4   9  17  31  54  84 111 132 169 221 270 319
#     4  10  19  34  58  83 107 137 176 223 271 317
#     4  10  20  35  55  77 105 142 179 217 263 317
#
# _framework density 19.043707999999999
#
# number of rings (size 3 to 8) (size 9 to 14) (size 15 to 20)
#    0.000    2.200    0.000    5.400    0.000    4.000 
#    0.000    5.000    0.000    4.800    0.000    0.000 
#    0.000    0.000    0.000    0.000    0.000    0.000 
#
# Total GULP energy -495568.237655 kJ/mol
# GULP energy per Si atom -12389.205941 kJ/mol
# Density = 1.900036 g / cm^3
# Si number density = 19.043708 Si / 1000 Ang^3
#
#
#
# Elastic Constant Matrix: (Units=GPa)
#
#
# Indices 1 2 3 4 5 6 
#
# 1 82.5167 14.9154 18.6632 0.0000 0.0000 0.0000
# 2 14.9154 108.6853 18.1659 0.0000 0.0000 0.0000
# 3 18.6632 18.1659 54.1439 0.0000 0.0000 0.0000
# 4 0.0000 0.0000 0.0000 8.4362 0.0000 0.0000
# 5 0.0000 0.0000 0.0000 0.0000 18.2749 0.0000
# 6 0.0000 0.0000 0.0000 0.0000 0.0000 28.1182
#
#
#
# Elastic Compliance Matrix: (Units=1/GPa)
#
#
# Indices 1 2 3 4 5 6 
#
# 1 0.013271 -0.001119 -0.004199 0.000000 0.000000 0.000000
# 2 -0.001119 0.009842 -0.002916 0.000000 0.000000 0.000000
# 3 -0.004199 -0.002916 0.020895 0.000000 0.000000 0.000000
# 4 0.000000 0.000000 0.000000 0.118536 0.000000 0.000000
# 5 0.000000 0.000000 0.000000 0.000000 0.054720 0.000000
# 6 0.000000 0.000000 0.000000 0.000000 0.000000 0.035564
#
#
# Mechanical properties :
#
#
# Convention : Reuss Voigt Hill
#
# Bulk Modulus (GPa) = 36.31236 38.75946 37.53591
# Shear Modulus (GPa) = 17.95484 23.87263 20.91374
#
# Velocity S-wave (km/s) = 3.07387 3.54442 3.31750
# Velocity P-wave (km/s) = 5.63095 6.09489 5.86750
#
# Compressibility (1/GPa) = 0.02753883
#
# Stress axis : x y z
#
# Youngs Moduli (GPa) = 75.35357 101.60616 47.85822
#
# Poissons Ratio (x) = 0.11374 0.20095
# Poissons Ratio (y) = 0.08435 0.13957
# Poissons Ratio (z) = 0.31640 0.29631
#
# Static dielectric constant tensor:
#      x y z
#    x 3.948590 0.000000 0.000000 
#    y 0.000000 5.774730 0.000000 
#    z 0.000000 0.000000 3.031990 
# 
# 
# High freq. dielectric constant tensor:
#      x y z
#    x 1.761120 0.000000 0.000000 
#    y 0.000000 1.746980 0.000000 
#    z 0.000000 0.000000 1.686350 
# 
# From -- ./inp_files/32036.got.cif
#   From: 2010.03.12/outbox.cif.g09.slc.cpg/sg64_17_cif.got.tgz:32036.got - 2010.04.10 20:19:32.
