data_PCOD8262244
_publ_section_title
;
Structure prediction by ZEFSAII (Michael W. Deem and Ramdas Pophale) SiO2 
 PCOD8262244
Probable space group: C M C A
;
_chemical_formula_sum "Si O2"
_cell_formula_units_Z 96
_cell_length_a 9.190032
_cell_length_b 29.473406
_cell_length_c 20.261751
_cell_angle_alpha 90.000000
_cell_angle_beta 90.000000
_cell_angle_gamma 90.000000
_cell_volume 5488.129166
_symmetry_space_group_name_H-M "C M C A"
_symmetry_group_IT_number 64
_symmetry_cell_setting 'orthorhombic'
loop_
_space_group_symop_operation_xyz
x,y,z
-x,1/2-y,1/2+z
x,-y,-z
-x,1/2+y,1/2-z
-x,-y,-z
x,1/2+y,1/2-z
-x,y,z
x,1/2-y,1/2+z
1/2+x,1/2+y,z
1/2-x,-y,1/2+z
1/2+x,1/2-y,-z
1/2-x,y,1/2-z
1/2-x,1/2-y,-z
1/2+x,y,1/2-z
1/2-x,1/2+y,z
1/2+x,-y,1/2+z
loop_
_atom_site_type_symbol
_atom_site_label
_atom_site_fract_x
_atom_site_fract_y
_atom_site_fract_z
Si Si1 0.833762 0.119753 0.979033
Si Si2 0.166320 0.995567 0.686653
Si Si3 0.666105 0.467599 0.941083
Si Si4 0.665130 0.692932 0.687294
Si Si5 0.336716 0.405567 0.356704
Si Si6 0.826682 0.789969 0.460992
O O1 0.781577 0.092463 0.914563
O O2 0.731523 0.163061 0.991776
O O3 0.000000 0.135777 0.968672
O O4 0.821787 0.085306 0.039967
O O5 0.250000 0.975979 0.750000
O O6 0.231987 0.974171 0.621188
O O7 0.000000 0.980129 0.691445
O O8 0.182157 0.049994 0.687456
O O9 0.500000 0.480626 0.923362
O O10 0.721950 0.500000 0.000000
O O11 0.500000 0.707030 0.698489
O O12 0.750000 0.713921 0.750000
O O13 0.687879 0.638712 0.688025
O O14 0.718058 0.712734 0.616546
O O15 0.500000 0.403349 0.387573
O O16 0.750000 0.750000 0.500000
O O17 0.000000 0.787768 0.469786
#
# Coordination Sequence:
#
# PCOD8262244 Si02
#       6
#    16  16  16  16  16  16
#     4  10  19  32  54  79 104 138 175 217 266 313
#     4  11  22  33  49  72 104 144 184 227 273 318
#     4  10  20  35  53  76 106 140 182 223 261 314
#     4   9  18  31  48  73 105 136 167 206 252 310
#     4   9  18  31  46  71 105 139 174 213 256 310
#     4  10  21  37  56  80 109 137 175 220 266 319
#
# _framework density 17.492298999999999
#
# number of rings (size 3 to 8) (size 9 to 14) (size 15 to 20)
#    0.000    2.167    1.667    3.000    0.000    5.667 
#    0.000    0.000    0.000    1.000    0.000    4.667 
#    0.000    0.000    0.000    0.000    0.000    0.000 
#
# Total GULP energy -595148.603339 kJ/mol
# GULP energy per Si atom -12398.929236 kJ/mol
# Density = 1.745249 g / cm^3
# Si number density = 17.492299 Si / 1000 Ang^3
#
#
#
# Elastic Constant Matrix: (Units=GPa)
#
#
# Indices 1 2 3 4 5 6 
#
# 1 113.6293 41.1942 73.4425 0.0000 0.0000 0.0000
# 2 41.1942 59.5986 44.6367 0.0000 0.0000 0.0000
# 3 73.4425 44.6367 119.9506 0.0000 0.0000 0.0000
# 4 0.0000 0.0000 0.0000 18.1305 0.0000 0.0000
# 5 0.0000 0.0000 0.0000 0.0000 36.0205 0.0000
# 6 0.0000 0.0000 0.0000 0.0000 0.0000 27.4086
#
#
#
# Elastic Compliance Matrix: (Units=1/GPa)
#
#
# Indices 1 2 3 4 5 6 
#
# 1 0.015579 -0.005024 -0.007669 0.000000 0.000000 0.000000
# 2 -0.005024 0.024883 -0.006183 0.000000 0.000000 0.000000
# 3 -0.007669 -0.006183 0.015333 0.000000 0.000000 0.000000
# 4 0.000000 0.000000 0.000000 0.055156 0.000000 0.000000
# 5 0.000000 0.000000 0.000000 0.000000 0.027762 0.000000
# 6 0.000000 0.000000 0.000000 0.000000 0.000000 0.036485
#
#
# Mechanical properties :
#
#
# Convention : Reuss Voigt Hill
#
# Bulk Modulus (GPa) = 55.42673 67.96947 61.69810
# Shear Modulus (GPa) = 22.83491 25.23891 24.03691
#
# Velocity S-wave (km/s) = 3.61699 3.80262 3.71096
# Velocity P-wave (km/s) = 7.01417 7.63027 7.32870
#
# Compressibility (1/GPa) = 0.01804184
#
# Stress axis : x y z
#
# Youngs Moduli (GPa) = 64.19095 40.18861 65.21885
#
# Poissons Ratio (x) = 0.20192 0.50014
# Poissons Ratio (y) = 0.32252 0.40326
# Poissons Ratio (z) = 0.49226 0.24850
#
# Static dielectric constant tensor:
#      x y z
#    x 3.370070 0.000000 0.000000 
#    y 0.000000 3.043950 0.000000 
#    z 0.000000 0.000000 3.076590 
# 
# 
# High freq. dielectric constant tensor:
#      x y z
#    x 1.688410 0.000000 0.000000 
#    y 0.000000 1.646770 0.000000 
#    z 0.000000 0.000000 1.664410 
# 
# From -- ./inp_files/36940.got.cif
#   From: 2010.03.12/outbox.cif.g09.slc.cpg/sg64_19_cif.got.tgz:36940.got - 2010.04.10 20:19:32.
