data_PCOD8262983
_publ_section_title
;
Structure prediction by ZEFSAII (Michael W. Deem and Ramdas Pophale) SiO2 
 PCOD8262983
Probable space group: C M C A
;
_chemical_formula_sum "Si O2"
_cell_formula_units_Z 80
_cell_length_a 8.632269
_cell_length_b 19.093462
_cell_length_c 25.378021
_cell_angle_alpha 90.000000
_cell_angle_beta 90.000000
_cell_angle_gamma 90.000000
_cell_volume 4182.802887
_symmetry_space_group_name_H-M "C M C A"
_symmetry_group_IT_number 64
_symmetry_cell_setting 'orthorhombic'
loop_
_space_group_symop_operation_xyz
x,y,z
-x,1/2-y,1/2+z
x,-y,-z
-x,1/2+y,1/2-z
-x,-y,-z
x,1/2+y,1/2-z
-x,y,z
x,1/2-y,1/2+z
1/2+x,1/2+y,z
1/2-x,-y,1/2+z
1/2+x,1/2-y,-z
1/2-x,y,1/2-z
1/2-x,1/2-y,-z
1/2+x,y,1/2-z
1/2-x,1/2+y,z
1/2+x,-y,1/2+z
loop_
_atom_site_type_symbol
_atom_site_label
_atom_site_fract_x
_atom_site_fract_y
_atom_site_fract_z
Si Si1 0.320069 0.121390 0.971445
Si Si2 0.318843 0.484377 0.378817
Si Si3 0.180416 0.622925 0.416154
Si Si4 0.179636 0.730691 0.601179
Si Si5 0.181079 0.872860 0.193887
O O1 0.500000 0.121495 0.986665
O O2 0.276654 0.196109 0.946289
O O3 0.277892 0.060056 0.930830
O O4 0.222224 0.107274 0.023491
O O5 0.500000 0.499839 0.375003
O O6 0.226739 0.556864 0.380593
O O7 0.264382 0.442581 0.327312
O O8 0.273263 0.688934 0.393473
O O9 0.000000 0.637896 0.410555
O O10 0.217650 0.692541 0.656009
O O11 0.000000 0.723971 0.586555
O O12 0.250000 0.852336 0.250000
O O13 0.000000 0.888131 0.198088
#
# Coordination Sequence:
#
# PCOD8262983 Si02
#       5
#    16  16  16  16  16
#     4  10  20  35  55  79 110 149 187 222 266 321
#     4  10  21  37  57  81 110 144 184 226 268 320
#     4  12  23  34  52  80 115 149 182 224 272 321
#     4  10  21  37  56  80 110 144 184 225 268 321
#     4  10  21  39  63  85 106 137 177 223 273 326
#
# _framework density 19.125931999999999
#
# number of rings (size 3 to 8) (size 9 to 14) (size 15 to 20)
#    0.000    1.600    0.000    5.400    0.000    7.200 
#    0.000    1.000    0.000    2.400    0.000    0.000 
#    0.000    0.000    0.000    0.000    0.000    0.000 
#
# Total GULP energy -496278.030098 kJ/mol
# GULP energy per Si atom -12406.950752 kJ/mol
# Density = 1.908240 g / cm^3
# Si number density = 19.125932 Si / 1000 Ang^3
#
#
#
# Elastic Constant Matrix: (Units=GPa)
#
#
# Indices 1 2 3 4 5 6 
#
# 1 59.5575 13.4016 17.5916 0.0000 0.0000 0.0000
# 2 13.4016 101.6411 14.9923 0.0000 0.0000 0.0000
# 3 17.5916 14.9923 70.8148 0.0000 0.0000 0.0000
# 4 0.0000 0.0000 0.0000 9.8584 0.0000 0.0000
# 5 0.0000 0.0000 0.0000 0.0000 33.5201 0.0000
# 6 0.0000 0.0000 0.0000 0.0000 0.0000 34.0069
#
#
#
# Elastic Compliance Matrix: (Units=1/GPa)
#
#
# Indices 1 2 3 4 5 6 
#
# 1 0.018438 -0.001812 -0.004197 0.000000 0.000000 0.000000
# 2 -0.001812 0.010334 -0.001738 0.000000 0.000000 0.000000
# 3 -0.004197 -0.001738 0.015532 0.000000 0.000000 0.000000
# 4 0.000000 0.000000 0.000000 0.101436 0.000000 0.000000
# 5 0.000000 0.000000 0.000000 0.000000 0.029833 0.000000
# 6 0.000000 0.000000 0.000000 0.000000 0.000000 0.029406
#
#
# Mechanical properties :
#
#
# Convention : Reuss Voigt Hill
#
# Bulk Modulus (GPa) = 34.70937 35.99828 35.35383
# Shear Modulus (GPa) = 21.73213 27.87894 24.80554
#
# Velocity S-wave (km/s) = 3.37451 3.82206 3.60524
# Velocity P-wave (km/s) = 5.77670 6.19194 5.98792
#
# Compressibility (1/GPa) = 0.02881066
#
# Stress axis : x y z
#
# Youngs Moduli (GPa) = 54.23635 96.77006 64.38426
#
# Poissons Ratio (x) = 0.17535 0.27020
# Poissons Ratio (y) = 0.09828 0.11188
# Poissons Ratio (z) = 0.22761 0.16815
#
# Static dielectric constant tensor:
#      x y z
#    x 3.587480 0.000000 0.000000 
#    y 0.000000 3.533860 0.000000 
#    z 0.000000 0.000000 3.460110 
# 
# 
# High freq. dielectric constant tensor:
#      x y z
#    x 1.759630 0.000000 0.000000 
#    y 0.000000 1.748960 0.000000 
#    z 0.000000 0.000000 1.726280 
# 
# From -- ./inp_files/47820.got.cif
#   From: 2010.03.12/outbox.cif.g09.slc.cpg/sg64_24_cif.got.tgz:47820.got - 2010.04.10 20:19:32.
