data_PCOD8262839
_publ_section_title
;
Structure prediction by ZEFSAII (Michael W. Deem and Ramdas Pophale) SiO2 
 PCOD8262839
Probable space group: C M C A
;
_chemical_formula_sum "Si O2"
_cell_formula_units_Z 104
_cell_length_a 26.427558
_cell_length_b 9.955520
_cell_length_c 19.963560
_cell_angle_alpha 90.000000
_cell_angle_beta 90.000000
_cell_angle_gamma 90.000000
_cell_volume 5252.414277
_symmetry_space_group_name_H-M "C M C A"
_symmetry_group_IT_number 64
_symmetry_cell_setting 'orthorhombic'
loop_
_space_group_symop_operation_xyz
x,y,z
-x,1/2-y,1/2+z
x,-y,-z
-x,1/2+y,1/2-z
-x,-y,-z
x,1/2+y,1/2-z
-x,y,z
x,1/2-y,1/2+z
1/2+x,1/2+y,z
1/2-x,-y,1/2+z
1/2+x,1/2-y,-z
1/2-x,y,1/2-z
1/2-x,1/2-y,-z
1/2+x,y,1/2-z
1/2-x,1/2+y,z
1/2+x,-y,1/2+z
loop_
_atom_site_type_symbol
_atom_site_label
_atom_site_fract_x
_atom_site_fract_y
_atom_site_fract_z
Si Si1 0.856078 0.115328 0.790031
Si Si2 0.130877 0.323381 0.900687
Si Si3 0.313696 0.134227 0.355726
Si Si4 0.885406 0.373816 0.142748
Si Si5 0.944327 0.844275 0.483609
Si Si6 0.765464 0.375169 0.957949
Si Si7 0.250000 0.233696 0.750000
O O1 0.881419 0.220708 0.840748
O O2 0.891900 0.124553 0.723759
O O3 0.797406 0.143201 0.772908
O O4 0.855385 0.966787 0.823732
O O5 0.122269 0.474421 0.878339
O O6 0.190302 0.314181 0.912915
O O7 0.097086 0.280657 0.965408
O O8 0.338871 0.276262 0.375449
O O9 0.284648 0.070846 0.419242
O O10 0.267444 0.165086 0.306936
O O11 0.931059 0.319932 0.095381
O O12 0.000000 0.780006 0.495908
O O13 0.946528 0.000000 0.500000
O O14 0.787412 0.500000 0.000000
O O15 0.750000 0.250000 0.000000
#
# Coordination Sequence:
#
# PCOD8262839 Si02
#       7
#    16  16  16  16  16  16   8
#     4  11  22  34  56  82 120 156 194 230 279 338
#     4  11  21  38  57  83 114 148 191 242 283 340
#     4  11  22  34  52  80 117 157 189 226 275 343
#     4  10  21  37  58  85 112 147 192 240 285 340
#     4   9  19  39  66  87 107 144 194 246 298 347
#     4  12  23  34  50  77 112 151 191 230 273 327
#     4  10  20  34  52  74 112 160 200 220 266 324
#
# _framework density 19.800419000000002
#
# number of rings (size 3 to 8) (size 9 to 14) (size 15 to 20)
#    0.000    1.385    1.538    6.462    4.308    0.000 
#    0.000    0.769    0.000    4.615    0.000    0.000 
#    0.000    0.000    0.000    0.000    0.000    0.000 
#
# Total GULP energy -644271.993224 kJ/mol
# GULP energy per Si atom -12389.846024 kJ/mol
# Density = 1.975535 g / cm^3
# Si number density = 19.800419 Si / 1000 Ang^3
#
#
#
# Elastic Constant Matrix: (Units=GPa)
#
#
# Indices 1 2 3 4 5 6 
#
# 1 70.9523 18.2181 50.7751 0.0000 0.0000 0.0000
# 2 18.2181 74.2507 38.9891 0.0000 0.0000 0.0000
# 3 50.7751 38.9891 135.1900 0.0000 0.0000 0.0000
# 4 0.0000 0.0000 0.0000 31.3097 0.0000 0.0000
# 5 0.0000 0.0000 0.0000 0.0000 26.0985 0.0000
# 6 0.0000 0.0000 0.0000 0.0000 0.0000 7.9993
#
#
#
# Elastic Compliance Matrix: (Units=1/GPa)
#
#
# Indices 1 2 3 4 5 6 
#
# 1 0.019350 -0.001098 -0.006951 0.000000 0.000000 0.000000
# 2 -0.001098 0.015934 -0.004183 0.000000 0.000000 0.000000
# 3 -0.006951 -0.004183 0.011214 0.000000 0.000000 0.000000
# 4 0.000000 0.000000 0.000000 0.031939 0.000000 0.000000
# 5 0.000000 0.000000 0.000000 0.000000 0.038316 0.000000
# 6 0.000000 0.000000 0.000000 0.000000 0.000000 0.125010
#
#
# Mechanical properties :
#
#
# Convention : Reuss Voigt Hill
#
# Bulk Modulus (GPa) = 45.38360 55.15085 50.26723
# Shear Modulus (GPa) = 18.27672 24.57556 21.42614
#
# Velocity S-wave (km/s) = 3.04147 3.52684 3.29311
# Velocity P-wave (km/s) = 5.94174 6.67073 6.31676
#
# Compressibility (1/GPa) = 0.02203439
#
# Stress axis : x y z
#
# Youngs Moduli (GPa) = 51.67924 62.75990 89.17370
#
# Poissons Ratio (x) = 0.06889 0.61985
# Poissons Ratio (y) = 0.05673 0.37302
# Poissons Ratio (z) = 0.35922 0.26253
#
# Static dielectric constant tensor:
#      x y z
#    x 3.427270 0.000000 0.000000 
#    y 0.000000 3.370810 0.000000 
#    z 0.000000 0.000000 4.000170 
# 
# 
# High freq. dielectric constant tensor:
#      x y z
#    x 1.728930 0.000000 0.000000 
#    y 0.000000 1.762520 0.000000 
#    z 0.000000 0.000000 1.790170 
# 
# From -- ./inp_files/41886.got.cif
#   From: 2010.03.12/outbox.cif.g09.slc.cpg/sg64_21_cif.got.tgz:41886.got - 2010.04.10 20:19:32.
