data_PCOD8262990
_publ_section_title
;
Structure prediction by ZEFSAII (Michael W. Deem and Ramdas Pophale) SiO2 
 PCOD8262990
Probable space group: C M C A
;
_chemical_formula_sum "Si O2"
_cell_formula_units_Z 88
_cell_length_a 20.947033
_cell_length_b 21.535262
_cell_length_c 9.999515
_cell_angle_alpha 90.000000
_cell_angle_beta 90.000000
_cell_angle_gamma 90.000000
_cell_volume 4510.779654
_symmetry_space_group_name_H-M "C M C A"
_symmetry_group_IT_number 64
_symmetry_cell_setting 'orthorhombic'
loop_
_space_group_symop_operation_xyz
x,y,z
-x,1/2-y,1/2+z
x,-y,-z
-x,1/2+y,1/2-z
-x,-y,-z
x,1/2+y,1/2-z
-x,y,z
x,1/2-y,1/2+z
1/2+x,1/2+y,z
1/2-x,-y,1/2+z
1/2+x,1/2-y,-z
1/2-x,y,1/2-z
1/2-x,1/2-y,-z
1/2+x,y,1/2-z
1/2-x,1/2+y,z
1/2+x,-y,1/2+z
loop_
_atom_site_type_symbol
_atom_site_label
_atom_site_fract_x
_atom_site_fract_y
_atom_site_fract_z
Si Si1 0.307624 0.270495 0.148768
Si Si2 0.500000 0.530718 0.293864
Si Si3 0.500000 0.099370 0.944069
Si Si4 0.377971 0.866926 0.198049
Si Si5 0.280162 0.150770 0.019448
Si Si6 0.750000 0.943146 0.750000
Si Si7 0.124397 0.006771 0.842951
O O1 0.250000 0.258758 0.250000
O O2 0.367990 0.301843 0.223109
O O3 0.325895 0.203124 0.088436
O O4 0.284772 0.316400 0.030537
O O5 0.500000 0.467580 0.376467
O O6 0.500000 0.589248 0.395683
O O7 0.563470 0.534162 0.202843
O O8 0.438944 0.138841 0.897917
O O9 0.386569 0.921464 0.305732
O O10 0.316704 0.880677 0.104684
O O11 0.259339 0.097570 0.118981
O O12 0.812418 0.984923 0.766683
O O13 0.133327 0.000000 0.000000
#
# Coordination Sequence:
#
# PCOD8262990 Si02
#       7
#    16   8   8  16  16   8  16
#     4   9  18  35  57  79 107 151 193 236 286 345
#     4   9  19  40  60  80 116 163 196 224 291 378
#     4   9  18  36  60  86 107 152 194 232 282 356
#     4  10  21  37  59  81 117 150 193 240 295 354
#     4  10  20  35  55  81 114 152 193 236 295 352
#     4  12  24  32  54  92 122 144 198 252 300 356
#     4  11  24  37  57  87 123 156 194 247 308 364
#
# _framework density 19.508821999999999
#
# number of rings (size 3 to 8) (size 9 to 14) (size 15 to 20)
#    0.000    2.000    0.909    2.455    6.364    1.455 
#    0.000    0.909    0.000    0.000    0.000    0.000 
#    0.000    0.000    0.000    0.000    0.000    0.000 
#
# Total GULP energy -545606.038061 kJ/mol
# GULP energy per Si atom -12400.137229 kJ/mol
# Density = 1.946442 g / cm^3
# Si number density = 19.508822 Si / 1000 Ang^3
#
#
#
# Elastic Constant Matrix: (Units=GPa)
#
#
# Indices 1 2 3 4 5 6 
#
# 1 99.5914 25.0267 14.4119 0.0000 0.0000 0.0000
# 2 25.0267 51.4333 20.3726 0.0000 0.0000 0.0000
# 3 14.4119 20.3726 78.2026 0.0000 0.0000 0.0000
# 4 0.0000 0.0000 0.0000 37.9811 0.0000 0.0000
# 5 0.0000 0.0000 0.0000 0.0000 25.0420 0.0000
# 6 0.0000 0.0000 0.0000 0.0000 0.0000 24.2522
#
#
#
# Elastic Compliance Matrix: (Units=1/GPa)
#
#
# Indices 1 2 3 4 5 6 
#
# 1 0.011478 -0.005293 -0.000736 0.000000 0.000000 0.000000
# 2 -0.005293 0.024121 -0.005308 0.000000 0.000000 0.000000
# 3 -0.000736 -0.005308 0.014306 0.000000 0.000000 0.000000
# 4 0.000000 0.000000 0.000000 0.026329 0.000000 0.000000
# 5 0.000000 0.000000 0.000000 0.000000 0.039933 0.000000
# 6 0.000000 0.000000 0.000000 0.000000 0.000000 0.041233
#
#
# Mechanical properties :
#
#
# Convention : Reuss Voigt Hill
#
# Bulk Modulus (GPa) = 36.72570 38.76106 37.74338
# Shear Modulus (GPa) = 26.43385 28.74947 27.59166
#
# Velocity S-wave (km/s) = 3.68498 3.84300 3.76482
# Velocity P-wave (km/s) = 6.08042 6.29310 6.18768
#
# Compressibility (1/GPa) = 0.02722889
#
# Stress axis : x y z
#
# Youngs Moduli (GPa) = 87.12514 41.45788 69.90151
#
# Poissons Ratio (x) = 0.21945 0.05147
# Poissons Ratio (y) = 0.46118 0.37105
# Poissons Ratio (z) = 0.06415 0.22007
#
# Static dielectric constant tensor:
#      x y z
#    x 3.533330 0.000000 0.000000 
#    y 0.000000 3.452800 0.000000 
#    z 0.000000 0.000000 3.764000 
# 
# 
# High freq. dielectric constant tensor:
#      x y z
#    x 1.738390 0.000000 0.000000 
#    y 0.000000 1.743290 0.000000 
#    z 0.000000 0.000000 1.775600 
# 
# From -- ./inp_files/9369.got.cif
#   From: 2010.03.12/outbox.cif.g09.slc.cpg/sg64_5_cif.got.tgz:9369.got - 2010.04.10 20:19:32.
