data_PCOD8262360
_publ_section_title
;
Structure prediction by ZEFSAII (Michael W. Deem and Ramdas Pophale) SiO2 
 PCOD8262360
Probable space group: C M C A
;
_chemical_formula_sum "Si O2"
_cell_formula_units_Z 112
_cell_length_a 14.433209
_cell_length_b 15.000498
_cell_length_c 24.797649
_cell_angle_alpha 90.000000
_cell_angle_beta 90.000000
_cell_angle_gamma 90.000000
_cell_volume 5368.823000
_symmetry_space_group_name_H-M "C M C A"
_symmetry_group_IT_number 64
_symmetry_cell_setting 'orthorhombic'
loop_
_space_group_symop_operation_xyz
x,y,z
-x,1/2-y,1/2+z
x,-y,-z
-x,1/2+y,1/2-z
-x,-y,-z
x,1/2+y,1/2-z
-x,y,z
x,1/2-y,1/2+z
1/2+x,1/2+y,z
1/2-x,-y,1/2+z
1/2+x,1/2-y,-z
1/2-x,y,1/2-z
1/2-x,1/2-y,-z
1/2+x,y,1/2-z
1/2-x,1/2+y,z
1/2+x,-y,1/2+z
loop_
_atom_site_type_symbol
_atom_site_label
_atom_site_fract_x
_atom_site_fract_y
_atom_site_fract_z
Si Si1 0.785423 0.477803 0.874448
Si Si2 0.604838 0.761155 0.508596
Si Si3 0.399485 0.030862 0.675976
Si Si4 0.820336 0.220053 0.798420
Si Si5 0.101581 0.063990 0.544266
Si Si6 0.231569 0.285739 0.913809
Si Si7 0.648059 0.405881 0.730695
O O1 0.677019 0.497222 0.865933
O O2 0.828479 0.562400 0.905395
O O3 0.802447 0.387112 0.907337
O O4 0.843376 0.472778 0.819383
O O5 0.500000 0.804686 0.506098
O O6 0.591776 0.658304 0.518039
O O7 0.666544 0.795910 0.558778
O O8 0.660928 0.771289 0.451964
O O9 0.500000 0.031321 0.647322
O O10 0.380134 0.130370 0.697023
O O11 0.408809 0.958602 0.724425
O O12 0.750000 0.200524 0.750000
O O13 0.765251 0.239205 0.854860
O O14 0.888149 0.305907 0.785390
O O15 0.000000 0.028682 0.562252
O O16 0.146472 0.000000 0.500000
O O17 0.750000 0.381497 0.750000
#
# Coordination Sequence:
#
# PCOD8262360 Si02
#       7
#    16  16  16  16  16  16  16
#     4  10  19  36  59  81 116 152 191 240 295 346
#     4  10  21  37  57  85 119 153 197 245 292 348
#     4  11  23  37  56  86 123 158 193 234 287 357
#     4  10  20  39  63  84 112 154 201 247 299 353
#     4  10  19  33  56  85 108 138 189 248 297 333
#     4  10  21  37  60  85 115 158 196 240 297 349
#     4   8  18  36  57  81 108 149 196 242 288 342
#
# _framework density 20.861184999999999
#
# number of rings (size 3 to 8) (size 9 to 14) (size 15 to 20)
#    0.000    2.143    1.429    3.000    0.000    2.286 
#    0.000    5.000    0.000    0.429    0.000    0.000 
#    0.000    0.000    0.000    0.000    0.000    0.000 
#
# Total GULP energy -693732.239156 kJ/mol
# GULP energy per Si atom -12388.075699 kJ/mol
# Density = 2.081370 g / cm^3
# Si number density = 20.861185 Si / 1000 Ang^3
#
#
#
# Elastic Constant Matrix: (Units=GPa)
#
#
# Indices 1 2 3 4 5 6 
#
# 1 99.3263 0.6701 38.8263 0.0000 0.0000 0.0000
# 2 0.6701 65.7305 11.5916 0.0000 0.0000 0.0000
# 3 38.8263 11.5916 106.0434 0.0000 0.0000 0.0000
# 4 0.0000 0.0000 0.0000 20.1954 0.0000 0.0000
# 5 0.0000 0.0000 0.0000 0.0000 -386.8589 0.0000
# 6 0.0000 0.0000 0.0000 0.0000 0.0000 20.5508
#
#
#
# Elastic Compliance Matrix: (Units=1/GPa)
#
#
# Indices 1 2 3 4 5 6 
#
# 1 0.011777 0.000653 -0.004383 0.000000 0.000000 0.000000
# 2 0.000653 0.015549 -0.001939 0.000000 0.000000 0.000000
# 3 -0.004383 -0.001939 0.011247 0.000000 0.000000 0.000000
# 4 0.000000 0.000000 0.000000 0.049516 0.000000 0.000000
# 5 0.000000 0.000000 0.000000 0.000000 -0.002585 0.000000
# 6 0.000000 0.000000 0.000000 0.000000 0.000000 0.048660
#
#
# Mechanical properties :
#
#
# Convention : Reuss Voigt Hill
#
# Bulk Modulus (GPa) = 36.71817 41.47514 39.09665
# Shear Modulus (GPa) = 32.34566 -54.55506 -11.10470
#
# Velocity S-wave (km/s) = 3.94193 -5.11940 -2.30970
# Velocity P-wave (km/s) = 6.19337 3.87552 3.41601
#
# Compressibility (1/GPa) = 0.02723447
#
# Stress axis : x y z
#
# Youngs Moduli (GPa) = 84.91242 64.31339 88.91338
#
# Poissons Ratio (x) = -0.04199 0.38973
# Poissons Ratio (y) = -0.05544 0.17238
# Poissons Ratio (z) = 0.37220 0.12468
#
# Static dielectric constant tensor:
#      x y z
#    x 3.882180 0.000000 0.000000 
#    y 0.000000 3.821160 0.000000 
#    z 0.000000 0.000000 4.153320 
# 
# 
# High freq. dielectric constant tensor:
#      x y z
#    x 1.796460 0.000000 0.000000 
#    y 0.000000 1.815470 0.000000 
#    z 0.000000 0.000000 1.815480 
# 
# From -- ./inp_files/45241.got.cif
#   From: 2010.03.12/outbox.cif.g09.slc.cpg/sg64_23_cif.got.tgz:45241.got - 2010.04.10 20:19:32.
