data_PCOD8262096
_publ_section_title
;
Structure prediction by ZEFSAII (Michael W. Deem and Ramdas Pophale) SiO2 
 PCOD8262096
Probable space group: C M C A
;
_chemical_formula_sum "Si O2"
_cell_formula_units_Z 96
_cell_length_a 8.835281
_cell_length_b 29.678745
_cell_length_c 20.597727
_cell_angle_alpha 90.000000
_cell_angle_beta 90.000000
_cell_angle_gamma 90.000000
_cell_volume 5401.137041
_symmetry_space_group_name_H-M "C M C A"
_symmetry_group_IT_number 64
_symmetry_cell_setting 'orthorhombic'
loop_
_space_group_symop_operation_xyz
x,y,z
-x,1/2-y,1/2+z
x,-y,-z
-x,1/2+y,1/2-z
-x,-y,-z
x,1/2+y,1/2-z
-x,y,z
x,1/2-y,1/2+z
1/2+x,1/2+y,z
1/2-x,-y,1/2+z
1/2+x,1/2-y,-z
1/2-x,y,1/2-z
1/2-x,1/2-y,-z
1/2+x,y,1/2-z
1/2-x,1/2+y,z
1/2+x,-y,1/2+z
loop_
_atom_site_type_symbol
_atom_site_label
_atom_site_fract_x
_atom_site_fract_y
_atom_site_fract_z
Si Si1 0.178296 0.743838 0.188024
Si Si2 0.177254 0.784246 0.050739
Si Si3 0.675648 0.944394 0.683452
Si Si4 0.322652 0.137615 0.014697
Si Si5 0.321211 0.461628 0.549525
Si Si6 0.176062 0.156526 0.145798
O O1 0.250000 0.770337 0.250000
O O2 0.221412 0.770787 0.123527
O O3 0.263738 0.695822 0.191418
O O4 0.000000 0.736984 0.195368
O O5 0.000000 0.783142 0.038977
O O6 0.250000 0.750000 0.000000
O O7 0.238406 0.835253 0.042291
O O8 0.500000 0.956374 0.685181
O O9 0.750000 0.962902 0.750000
O O10 0.745948 0.968587 0.620036
O O11 0.706238 0.891101 0.680099
O O12 0.500000 0.142283 0.003858
O O13 0.270610 0.085538 0.016844
O O14 0.276548 0.161384 0.081455
O O15 0.265513 0.500000 0.500000
O O16 0.500000 0.463072 0.560380
O O17 0.000000 0.162463 0.128242
#
# Coordination Sequence:
#
# PCOD8262096 Si02
#       6
#    16  16  16  16  16  16
#     4  11  23  35  49  71 101 138 178 220 264 310
#     4  11  22  35  53  76 104 139 180 218 258 309
#     4  10  20  32  49  76 107 140 173 211 261 317
#     4  10  19  32  53  79 105 136 174 216 262 312
#     4   9  19  36  57  80 107 138 174 218 268 320
#     4  10  19  31  49  73 104 139 173 210 255 310
#
# _framework density 17.774035999999999
#
# number of rings (size 3 to 8) (size 9 to 14) (size 15 to 20)
#    0.000    1.833    1.667    3.000    0.000    6.333 
#    0.000    0.000    0.000    1.000    0.000    2.333 
#    0.000    0.000    0.000    0.000    0.000    0.000 
#
# Total GULP energy -595203.835989 kJ/mol
# GULP energy per Si atom -12400.079916 kJ/mol
# Density = 1.773358 g / cm^3
# Si number density = 17.774036 Si / 1000 Ang^3
#
#
#
# Elastic Constant Matrix: (Units=GPa)
#
#
# Indices 1 2 3 4 5 6 
#
# 1 71.2739 32.9606 60.3525 0.0000 0.0000 0.0000
# 2 32.9606 73.2764 65.2364 0.0000 0.0000 0.0000
# 3 60.3525 65.2364 150.4802 0.0000 0.0000 0.0000
# 4 0.0000 0.0000 0.0000 20.2625 0.0000 0.0000
# 5 0.0000 0.0000 0.0000 0.0000 32.7890 0.0000
# 6 0.0000 0.0000 0.0000 0.0000 0.0000 22.2528
#
#
#
# Elastic Compliance Matrix: (Units=1/GPa)
#
#
# Indices 1 2 3 4 5 6 
#
# 1 0.021719 -0.003281 -0.007289 0.000000 0.000000 0.000000
# 2 -0.003281 0.022720 -0.008534 0.000000 0.000000 0.000000
# 3 -0.007289 -0.008534 0.013268 0.000000 0.000000 0.000000
# 4 0.000000 0.000000 0.000000 0.049352 0.000000 0.000000
# 5 0.000000 0.000000 0.000000 0.000000 0.030498 0.000000
# 6 0.000000 0.000000 0.000000 0.000000 0.000000 0.044938
#
#
# Mechanical properties :
#
#
# Convention : Reuss Voigt Hill
#
# Bulk Modulus (GPa) = 51.27866 68.01440 59.64653
# Shear Modulus (GPa) = 22.00673 24.15959 23.08316
#
# Velocity S-wave (km/s) = 3.52254 3.69082 3.60766
# Velocity P-wave (km/s) = 6.74220 7.51745 7.14036
#
# Compressibility (1/GPa) = 0.01950129
#
# Stress axis : x y z
#
# Youngs Moduli (GPa) = 46.04196 44.01362 75.36774
#
# Poissons Ratio (x) = 0.14439 0.54933
# Poissons Ratio (y) = 0.15105 0.64318
# Poissons Ratio (z) = 0.33558 0.37561
#
# Static dielectric constant tensor:
#      x y z
#    x 3.330790 0.000000 0.000000 
#    y 0.000000 3.214690 0.000000 
#    z 0.000000 0.000000 3.487440 
# 
# 
# High freq. dielectric constant tensor:
#      x y z
#    x 1.700140 0.000000 0.000000 
#    y 0.000000 1.654220 0.000000 
#    z 0.000000 0.000000 1.690390 
# 
# From -- ./inp_files/37103.got.cif
#   From: 2010.03.12/outbox.cif.g09.slc.cpg/sg64_19_cif.got.tgz:37103.got - 2010.04.10 20:19:32.
