data_PCOD8262833
_publ_section_title
;
Structure prediction by ZEFSAII (Michael W. Deem and Ramdas Pophale) SiO2 
 PCOD8262833
Probable space group: C M C A
;
_chemical_formula_sum "Si O2"
_cell_formula_units_Z 80
_cell_length_a 17.270476
_cell_length_b 25.747508
_cell_length_c 8.761611
_cell_angle_alpha 90.000000
_cell_angle_beta 90.000000
_cell_angle_gamma 90.000000
_cell_volume 3896.040624
_symmetry_space_group_name_H-M "C M C A"
_symmetry_group_IT_number 64
_symmetry_cell_setting 'orthorhombic'
loop_
_space_group_symop_operation_xyz
x,y,z
-x,1/2-y,1/2+z
x,-y,-z
-x,1/2+y,1/2-z
-x,-y,-z
x,1/2+y,1/2-z
-x,y,z
x,1/2-y,1/2+z
1/2+x,1/2+y,z
1/2-x,-y,1/2+z
1/2+x,1/2-y,-z
1/2-x,y,1/2-z
1/2-x,1/2-y,-z
1/2+x,y,1/2-z
1/2-x,1/2+y,z
1/2+x,-y,1/2+z
loop_
_atom_site_type_symbol
_atom_site_label
_atom_site_fract_x
_atom_site_fract_y
_atom_site_fract_z
Si Si1 0.220526 0.607208 0.410292
Si Si2 0.679029 0.275399 0.916281
Si Si3 0.586636 0.709678 0.809778
Si Si4 0.186456 0.457265 0.128313
Si Si5 0.087879 0.408360 0.367742
O O1 0.250000 0.581537 0.250000
O O2 0.206995 0.667273 0.372644
O O3 0.284441 0.595257 0.541246
O O4 0.140381 0.583141 0.479801
O O5 0.655240 0.241123 0.772014
O O6 0.750000 0.250000 0.000000
O O7 0.600016 0.276835 0.013451
O O8 0.500000 0.726506 0.761250
O O9 0.599333 0.648324 0.792897
O O10 0.250000 0.476958 0.250000
O O11 0.109809 0.446289 0.227593
O O12 0.169262 0.500000 0.000000
O O13 0.000000 0.418898 0.418533
#
# Coordination Sequence:
#
# PCOD8262833 Si02
#       5
#    16  16  16  16  16
#     4  10  20  35  55  80 109 145 186 229 275 327
#     4  11  20  32  51  77 106 141 186 229 264 314
#     4  10  20  34  51  75 111 149 182 220 273 325
#     4  10  20  36  60  83 109 145 186 230 279 332
#     4   9  20  37  56  81 114 148 182 227 279 329
#
# _framework density 20.533667000000001
#
# number of rings (size 3 to 8) (size 9 to 14) (size 15 to 20)
#    0.000    2.000    0.000    4.200    0.000    4.400 
#    0.000    1.000    0.000   20.400    0.000    0.000 
#    0.000    0.000    0.000    0.000    0.000    0.000 
#
# Total GULP energy -495543.347739 kJ/mol
# GULP energy per Si atom -12388.583693 kJ/mol
# Density = 2.048693 g / cm^3
# Si number density = 20.533667 Si / 1000 Ang^3
#
#
#
# Elastic Constant Matrix: (Units=GPa)
#
#
# Indices 1 2 3 4 5 6 
#
# 1 121.5557 34.6861 68.0865 0.0000 0.0000 0.0000
# 2 34.6861 63.5951 44.4117 0.0000 0.0000 0.0000
# 3 68.0865 44.4117 132.9529 0.0000 0.0000 0.0000
# 4 0.0000 0.0000 0.0000 27.1430 0.0000 0.0000
# 5 0.0000 0.0000 0.0000 0.0000 37.4446 0.0000
# 6 0.0000 0.0000 0.0000 0.0000 0.0000 10.1527
#
#
#
# Elastic Compliance Matrix: (Units=1/GPa)
#
#
# Indices 1 2 3 4 5 6 
#
# 1 0.011938 -0.002924 -0.005137 0.000000 0.000000 0.000000
# 2 -0.002924 0.021225 -0.005593 0.000000 0.000000 0.000000
# 3 -0.005137 -0.005593 0.012020 0.000000 0.000000 0.000000
# 4 0.000000 0.000000 0.000000 0.036842 0.000000 0.000000
# 5 0.000000 0.000000 0.000000 0.000000 0.026706 0.000000
# 6 0.000000 0.000000 0.000000 0.000000 0.000000 0.098496
#
#
# Mechanical properties :
#
#
# Convention : Reuss Voigt Hill
#
# Bulk Modulus (GPa) = 55.93966 68.05248 61.99607
# Shear Modulus (GPa) = 20.79055 26.34267 23.56661
#
# Velocity S-wave (km/s) = 3.18545 3.58565 3.39146
# Velocity P-wave (km/s) = 6.38995 7.09622 6.75233
#
# Compressibility (1/GPa) = 0.01787640
#
# Stress axis : x y z
#
# Youngs Moduli (GPa) = 83.76288 47.11454 83.19227
#
# Poissons Ratio (x) = 0.13776 0.42736
# Poissons Ratio (y) = 0.24492 0.46526
# Poissons Ratio (z) = 0.43030 0.26349
#
# Static dielectric constant tensor:
#      x y z
#    x 3.638770 0.000000 0.000000 
#    y 0.000000 3.212960 0.000000 
#    z 0.000000 0.000000 3.815910 
# 
# 
# High freq. dielectric constant tensor:
#      x y z
#    x 1.794890 0.000000 0.000000 
#    y 0.000000 1.792480 0.000000 
#    z 0.000000 0.000000 1.809420 
# 
# From -- ./inp_files/7101.got.cif
#   From: 2010.03.12/outbox.cif.g09.slc.cpg/sg64_4_cif.got.tgz:7101.got - 2010.04.10 20:19:32.
