data_PCOD8262443
_publ_section_title
;
Structure prediction by ZEFSAII (Michael W. Deem and Ramdas Pophale) SiO2 
 PCOD8262443
Probable space group: C M C A
;
_chemical_formula_sum "Si O2"
_cell_formula_units_Z 80
_cell_length_a 18.737559
_cell_length_b 13.043202
_cell_length_c 18.019031
_cell_angle_alpha 90.000000
_cell_angle_beta 90.000000
_cell_angle_gamma 90.000000
_cell_volume 4403.810940
_symmetry_space_group_name_H-M "C M C A"
_symmetry_group_IT_number 64
_symmetry_cell_setting 'orthorhombic'
loop_
_space_group_symop_operation_xyz
x,y,z
-x,1/2-y,1/2+z
x,-y,-z
-x,1/2+y,1/2-z
-x,-y,-z
x,1/2+y,1/2-z
-x,y,z
x,1/2-y,1/2+z
1/2+x,1/2+y,z
1/2-x,-y,1/2+z
1/2+x,1/2-y,-z
1/2-x,y,1/2-z
1/2-x,1/2-y,-z
1/2+x,y,1/2-z
1/2-x,1/2+y,z
1/2+x,-y,1/2+z
loop_
_atom_site_type_symbol
_atom_site_label
_atom_site_fract_x
_atom_site_fract_y
_atom_site_fract_z
Si Si1 0.648805 0.178791 0.903518
Si Si2 0.145607 0.760185 0.572706
Si Si3 0.284189 0.951880 0.419409
Si Si4 0.770290 0.353810 0.665041
Si Si5 0.000000 0.861673 0.579373
Si Si6 0.000000 0.410524 0.093594
O O1 0.702811 0.083243 0.905318
O O2 0.671887 0.264136 0.844337
O O3 0.571550 0.142008 0.875478
O O4 0.650073 0.229228 0.984523
O O5 0.161051 0.642025 0.592617
O O6 0.203045 0.833543 0.611407
O O7 0.068067 0.793640 0.601762
O O8 0.293431 0.000000 0.500000
O O9 0.303840 0.037244 0.358318
O O10 0.750000 0.357899 0.750000
O O11 0.000000 0.894223 0.494106
O O12 0.000000 0.971276 0.620847
#
# Coordination Sequence:
#
# PCOD8262443 Si02
#       6
#    16  16  16  16   8   8
#     4  10  19  34  57  82 107 142 183 233 274 328
#     4  10  19  35  57  80 108 142 184 230 276 327
#     4  11  18  32  56  79 110 146 184 225 278 329
#     4  11  22  35  54  81 112 143 185 230 280 333
#     4   9  18  32  53  85 110 141 184 233 267 325
#     4   9  18  30  56  84 111 138 188 227 275 325
#
# _framework density 18.166084999999999
#
# number of rings (size 3 to 8) (size 9 to 14) (size 15 to 20)
#    0.000    1.800    4.000    2.400    2.800    3.200 
#    0.000    2.500    0.000    0.000    0.000    0.000 
#    0.000    0.000    0.000    0.000    0.000    0.000 
#
# Total GULP energy -496002.314226 kJ/mol
# GULP energy per Si atom -12400.057856 kJ/mol
# Density = 1.812474 g / cm^3
# Si number density = 18.166085 Si / 1000 Ang^3
#
#
#
# Elastic Constant Matrix: (Units=GPa)
#
#
# Indices 1 2 3 4 5 6 
#
# 1 134.3892 66.0361 15.6326 0.0000 0.0000 0.0000
# 2 66.0361 146.1299 44.0381 0.0000 0.0000 0.0000
# 3 15.6326 44.0381 77.8100 0.0000 0.0000 0.0000
# 4 0.0000 0.0000 0.0000 18.2145 0.0000 0.0000
# 5 0.0000 0.0000 0.0000 0.0000 8.8897 0.0000
# 6 0.0000 0.0000 0.0000 0.0000 0.0000 -15.4875
#
#
#
# Elastic Compliance Matrix: (Units=1/GPa)
#
#
# Indices 1 2 3 4 5 6 
#
# 1 0.009591 -0.004525 0.000634 0.000000 0.000000 0.000000
# 2 -0.004525 0.010386 -0.004969 0.000000 0.000000 0.000000
# 3 0.000634 -0.004969 0.015537 0.000000 0.000000 0.000000
# 4 0.000000 0.000000 0.000000 0.054901 0.000000 0.000000
# 5 0.000000 0.000000 0.000000 0.000000 0.112490 0.000000
# 6 0.000000 0.000000 0.000000 0.000000 0.000000 -0.064568
#
#
# Mechanical properties :
#
#
# Convention : Reuss Voigt Hill
#
# Bulk Modulus (GPa) = 56.20016 67.74918 61.97467
# Shear Modulus (GPa) = 30.86673 17.83149 24.34911
#
# Velocity S-wave (km/s) = 4.12654 3.13642 3.66507
# Velocity P-wave (km/s) = 7.32860 7.10573 7.21803
#
# Compressibility (1/GPa) = 0.01779354
#
# Stress axis : x y z
#
# Youngs Moduli (GPa) = 104.26519 96.28705 64.36433
#
# Poissons Ratio (x) = 0.43573 -0.04083
# Poissons Ratio (y) = 0.47183 0.31981
# Poissons Ratio (z) = -0.06613 0.47843
#
# Static dielectric constant tensor:
#      x y z
#    x 3.420960 0.000000 0.000000 
#    y 0.000000 3.678360 0.000000 
#    z 0.000000 0.000000 2.974790 
# 
# 
# High freq. dielectric constant tensor:
#      x y z
#    x 1.693800 0.000000 0.000000 
#    y 0.000000 1.721260 0.000000 
#    z 0.000000 0.000000 1.667350 
# 
# From -- ./inp_files/34054.got.cif
#   From: 2010.03.12/outbox.cif.g09.slc.cpg/sg64_18_cif.got.tgz:34054.got - 2010.04.10 20:19:32.
