data_PCOD8262719
_publ_section_title
;
Structure prediction by ZEFSAII (Michael W. Deem and Ramdas Pophale) SiO2 
 PCOD8262719
Probable space group: C M C A
;
_chemical_formula_sum "Si O2"
_cell_formula_units_Z 128
_cell_length_a 17.446149
_cell_length_b 21.165528
_cell_length_c 19.639767
_cell_angle_alpha 90.000000
_cell_angle_beta 90.000000
_cell_angle_gamma 90.000000
_cell_volume 7252.120562
_symmetry_space_group_name_H-M "C M C A"
_symmetry_group_IT_number 64
_symmetry_cell_setting 'orthorhombic'
loop_
_space_group_symop_operation_xyz
x,y,z
-x,1/2-y,1/2+z
x,-y,-z
-x,1/2+y,1/2-z
-x,-y,-z
x,1/2+y,1/2-z
-x,y,z
x,1/2-y,1/2+z
1/2+x,1/2+y,z
1/2-x,-y,1/2+z
1/2+x,1/2-y,-z
1/2-x,y,1/2-z
1/2-x,1/2-y,-z
1/2+x,y,1/2-z
1/2-x,1/2+y,z
1/2+x,-y,1/2+z
loop_
_atom_site_type_symbol
_atom_site_label
_atom_site_fract_x
_atom_site_fract_y
_atom_site_fract_z
Si Si1 0.815396 0.364808 0.302112
Si Si2 0.632033 0.495153 0.167467
Si Si3 0.730206 0.085425 0.176090
Si Si4 0.584418 0.493635 0.685346
Si Si5 0.585988 0.060013 0.460834
Si Si6 0.213629 0.696015 0.912192
Si Si7 0.089091 0.862550 0.323677
Si Si8 0.784689 0.839530 0.951269
O O1 0.750000 0.390764 0.250000
O O2 0.851056 0.421266 0.347989
O O3 0.780630 0.312847 0.354451
O O4 0.881515 0.338811 0.251196
O O5 0.715964 0.524888 0.172484
O O6 0.581249 0.501127 0.233902
O O7 0.580685 0.533675 0.115101
O O8 0.750000 0.118011 0.250000
O O9 0.643971 0.060613 0.164851
O O10 0.741588 0.132917 0.114090
O O11 0.500000 0.473958 0.658348
O O12 0.606081 0.563822 0.660063
O O13 0.500000 0.076045 0.487032
O O14 0.636890 0.122730 0.466515
O O15 0.623140 0.000000 0.500000
O O16 0.132529 0.673573 0.883648
O O17 0.198732 0.767790 0.932482
O O18 0.233997 0.656442 0.980237
O O19 0.000000 0.845804 0.327871
#
# Coordination Sequence:
#
# PCOD8262719 Si02
#       8
#    16  16  16  16  16  16  16  16
#     4   9  16  29  52  77 102 131 168 208 244 290
#     4   9  15  27  47  71  98 128 160 200 252 303
#     4   9  17  30  49  71  97 130 169 209 250 301
#     4   9  16  28  48  75 103 127 157 202 256 306
#     4  10  20  32  48  73 101 128 164 211 261 310
#     4  10  20  36  53  71 100 137 175 211 246 297
#     4   9  18  32  54  82 106 132 167 207 251 296
#     4  10  22  36  52  72  98 137 177 210 255 304
#
# _framework density 17.650010000000002
#
# number of rings (size 3 to 8) (size 9 to 14) (size 15 to 20)
#    0.000    2.625    0.000    3.750    0.000    3.500 
#    0.000    1.250    0.000    8.250    0.000    0.000 
#    0.000    0.000    0.000    0.000    0.000    0.000 
#
# Total GULP energy -792929.718684 kJ/mol
# GULP energy per Si atom -12389.526854 kJ/mol
# Density = 1.760984 g / cm^3
# Si number density = 17.650010 Si / 1000 Ang^3
#
#
#
# Elastic Constant Matrix: (Units=GPa)
#
#
# Indices 1 2 3 4 5 6 
#
# 1 111.3512 42.7444 45.7459 0.0000 0.0000 0.0000
# 2 42.7444 78.8860 45.8408 0.0000 0.0000 0.0000
# 3 45.7459 45.8408 99.1465 0.0000 0.0000 0.0000
# 4 0.0000 0.0000 0.0000 30.6352 0.0000 0.0000
# 5 0.0000 0.0000 0.0000 0.0000 17.5685 0.0000
# 6 0.0000 0.0000 0.0000 0.0000 0.0000 12.4241
#
#
#
# Elastic Compliance Matrix: (Units=1/GPa)
#
#
# Indices 1 2 3 4 5 6 
#
# 1 0.012171 -0.004556 -0.003509 0.000000 0.000000 0.000000
# 2 -0.004556 0.019039 -0.006701 0.000000 0.000000 0.000000
# 3 -0.003509 -0.006701 0.014803 0.000000 0.000000 0.000000
# 4 0.000000 0.000000 0.000000 0.032642 0.000000 0.000000
# 5 0.000000 0.000000 0.000000 0.000000 0.056920 0.000000
# 6 0.000000 0.000000 0.000000 0.000000 0.000000 0.080489
#
#
# Mechanical properties :
#
#
# Convention : Reuss Voigt Hill
#
# Bulk Modulus (GPa) = 60.67279 62.00509 61.33894
# Shear Modulus (GPa) = 19.91318 22.46239 21.18779
#
# Velocity S-wave (km/s) = 3.36255 3.57130 3.46850
# Velocity P-wave (km/s) = 7.03746 7.22580 7.13225
#
# Compressibility (1/GPa) = 0.01648185
#
# Stress axis : x y z
#
# Youngs Moduli (GPa) = 82.16182 52.52448 67.55196
#
# Poissons Ratio (x) = 0.23928 0.23707
# Poissons Ratio (y) = 0.37429 0.45265
# Poissons Ratio (z) = 0.28834 0.35195
#
# Static dielectric constant tensor:
#      x y z
#    x 3.230970 0.000000 0.000000 
#    y 0.000000 3.082450 0.000000 
#    z 0.000000 0.000000 3.620110 
# 
# 
# High freq. dielectric constant tensor:
#      x y z
#    x 1.680580 0.000000 0.000000 
#    y 0.000000 1.658840 0.000000 
#    z 0.000000 0.000000 1.681960 
# 
# From -- ./inp_files/40557.got.cif
#   From: 2010.03.12/outbox.cif.g09.slc.cpg/sg64_21_cif.got.tgz:40557.got - 2010.04.10 20:19:32.
