data_PCOD8262281
_publ_section_title
;
Structure prediction by ZEFSAII (Michael W. Deem and Ramdas Pophale) SiO2 
 PCOD8262281
Probable space group: C M C A
;
_chemical_formula_sum "Si O2"
_cell_formula_units_Z 96
_cell_length_a 8.732263
_cell_length_b 25.518288
_cell_length_c 23.528890
_cell_angle_alpha 90.000000
_cell_angle_beta 90.000000
_cell_angle_gamma 90.000000
_cell_volume 5242.999078
_symmetry_space_group_name_H-M "C M C A"
_symmetry_group_IT_number 64
_symmetry_cell_setting 'orthorhombic'
loop_
_space_group_symop_operation_xyz
x,y,z
-x,1/2-y,1/2+z
x,-y,-z
-x,1/2+y,1/2-z
-x,-y,-z
x,1/2+y,1/2-z
-x,y,z
x,1/2-y,1/2+z
1/2+x,1/2+y,z
1/2-x,-y,1/2+z
1/2+x,1/2-y,-z
1/2-x,y,1/2-z
1/2-x,1/2-y,-z
1/2+x,y,1/2-z
1/2-x,1/2+y,z
1/2+x,-y,1/2+z
loop_
_atom_site_type_symbol
_atom_site_label
_atom_site_fract_x
_atom_site_fract_y
_atom_site_fract_z
Si Si1 0.180865 0.559071 0.189427
Si Si2 0.179664 0.345096 0.889819
Si Si3 0.181453 0.151133 0.878344
Si Si4 0.819100 0.249720 0.310806
Si Si5 0.818950 0.192232 0.998029
Si Si6 0.317813 0.551022 0.810971
O O1 0.250000 0.576073 0.250000
O O2 0.225067 0.601789 0.142451
O O3 0.251584 0.504367 0.168241
O O4 0.000000 0.553339 0.196872
O O5 0.235265 0.296218 0.852512
O O6 0.267900 0.343404 0.949306
O O7 0.000000 0.342025 0.902068
O O8 0.244904 0.195699 0.835736
O O9 0.237029 0.094471 0.856468
O O10 0.000000 0.153984 0.877836
O O11 0.241973 0.162254 0.941804
O O12 0.750000 0.238332 0.250000
O O13 0.000000 0.249973 0.304931
O O14 0.000000 0.198183 0.996772
O O15 0.750000 0.250000 0.000000
O O16 0.500000 0.547736 0.806166
O O17 0.250000 0.566599 0.750000
#
# Coordination Sequence:
#
# PCOD8262281 Si02
#       6
#    16  16  16  16  16  16
#     4  10  20  35  56  81 111 144 179 223 271 321
#     4  10  21  37  55  77 109 143 178 223 270 315
#     4   9  19  35  54  76 107 141 175 220 269 316
#     4  10  19  33  51  75 108 136 169 217 267 319
#     4  11  21  37  58  79 107 144 184 222 269 323
#     4  10  19  34  56  80 108 142 178 219 267 320
#
# _framework density 18.310130999999998
#
# number of rings (size 3 to 8) (size 9 to 14) (size 15 to 20)
#    0.000    2.000    1.667    3.500    0.000    2.000 
#    0.000    5.000    0.000    5.000    0.000    0.000 
#    0.000    0.000    0.000    0.000    0.000    0.000 
#
# Total GULP energy -595261.609022 kJ/mol
# GULP energy per Si atom -12401.283521 kJ/mol
# Density = 1.826846 g / cm^3
# Si number density = 18.310131 Si / 1000 Ang^3
#
#
#
# Elastic Constant Matrix: (Units=GPa)
#
#
# Indices 1 2 3 4 5 6 
#
# 1 56.6590 39.8442 34.9006 0.0000 0.0000 0.0000
# 2 39.8442 139.4878 72.3372 0.0000 0.0000 0.0000
# 3 34.9006 72.3372 126.7696 0.0000 0.0000 0.0000
# 4 0.0000 0.0000 0.0000 33.4518 0.0000 0.0000
# 5 0.0000 0.0000 0.0000 0.0000 30.7736 0.0000
# 6 0.0000 0.0000 0.0000 0.0000 0.0000 25.8091
#
#
#
# Elastic Compliance Matrix: (Units=1/GPa)
#
#
# Indices 1 2 3 4 5 6 
#
# 1 0.023252 -0.004718 -0.003709 0.000000 0.000000 0.000000
# 2 -0.004718 0.011140 -0.005057 0.000000 0.000000 0.000000
# 3 -0.003709 -0.005057 0.011795 0.000000 0.000000 0.000000
# 4 0.000000 0.000000 0.000000 0.029894 0.000000 0.000000
# 5 0.000000 0.000000 0.000000 0.000000 0.032495 0.000000
# 6 0.000000 0.000000 0.000000 0.000000 0.000000 0.038746
#
#
# Mechanical properties :
#
#
# Convention : Reuss Voigt Hill
#
# Bulk Modulus (GPa) = 52.03649 68.56451 60.30050
# Shear Modulus (GPa) = 27.67044 29.72920 28.69982
#
# Velocity S-wave (km/s) = 3.89165 4.03382 3.96337
# Velocity P-wave (km/s) = 6.97670 7.69566 7.34498
#
# Compressibility (1/GPa) = 0.01921728
#
# Stress axis : x y z
#
# Youngs Moduli (GPa) = 43.00653 89.76936 84.77903
#
# Poissons Ratio (x) = 0.42357 0.31445
# Poissons Ratio (y) = 0.20292 0.42877
# Poissons Ratio (z) = 0.15952 0.45401
#
# Static dielectric constant tensor:
#      x y z
#    x 3.250400 0.000000 0.000000 
#    y 0.000000 3.564760 0.000000 
#    z 0.000000 0.000000 3.542860 
# 
# 
# High freq. dielectric constant tensor:
#      x y z
#    x 1.700570 0.000000 0.000000 
#    y 0.000000 1.715480 0.000000 
#    z 0.000000 0.000000 1.711730 
# 
# From -- ./inp_files/37037.got.cif
#   From: 2010.03.12/outbox.cif.g09.slc.cpg/sg64_19_cif.got.tgz:37037.got - 2010.04.10 20:19:32.
