data_PCOD8262089
_publ_section_title
;
Structure prediction by ZEFSAII (Michael W. Deem and Ramdas Pophale) SiO2 
 PCOD8262089
Probable space group: C M C A
;
_chemical_formula_sum "Si O2"
_cell_formula_units_Z 96
_cell_length_a 8.872118
_cell_length_b 25.332460
_cell_length_c 25.188174
_cell_angle_alpha 90.000000
_cell_angle_beta 90.000000
_cell_angle_gamma 90.000000
_cell_volume 5661.106950
_symmetry_space_group_name_H-M "C M C A"
_symmetry_group_IT_number 64
_symmetry_cell_setting 'orthorhombic'
loop_
_space_group_symop_operation_xyz
x,y,z
-x,1/2-y,1/2+z
x,-y,-z
-x,1/2+y,1/2-z
-x,-y,-z
x,1/2+y,1/2-z
-x,y,z
x,1/2-y,1/2+z
1/2+x,1/2+y,z
1/2-x,-y,1/2+z
1/2+x,1/2-y,-z
1/2-x,y,1/2-z
1/2-x,1/2-y,-z
1/2+x,y,1/2-z
1/2-x,1/2+y,z
1/2+x,-y,1/2+z
loop_
_atom_site_type_symbol
_atom_site_label
_atom_site_fract_x
_atom_site_fract_y
_atom_site_fract_z
Si Si1 0.175118 0.748607 0.193120
Si Si2 0.665816 0.562461 0.995151
Si Si3 0.324306 0.634869 0.807389
Si Si4 0.823035 0.056583 0.610243
Si Si5 0.321868 0.646031 0.192233
Si Si6 0.322482 0.943740 0.610659
O O1 0.250000 0.751550 0.250000
O O2 0.199770 0.806357 0.167120
O O3 0.257763 0.699553 0.163840
O O4 0.000000 0.734880 0.198496
O O5 0.500000 0.585328 0.981007
O O6 0.779879 0.578335 0.948362
O O7 0.656172 0.500000 0.000000
O O8 0.719637 0.582477 0.053318
O O9 0.500000 0.622411 0.800892
O O10 0.250000 0.629719 0.750000
O O11 0.250783 0.593341 0.846179
O O12 0.000000 0.058885 0.616699
O O13 0.767713 0.997361 0.620357
O O14 0.500000 0.650564 0.197456
O O15 0.250000 0.637331 0.250000
O O16 0.273920 0.596904 0.155997
O O17 0.500000 0.956897 0.611927
#
# Coordination Sequence:
#
# PCOD8262089 Si02
#       6
#    16  16  16  16  16  16
#     4   9  17  30  49  70  92 122 159 196 233 275
#     4   8  15  31  51  67  89 124 163 199 236 281
#     4  10  20  34  51  71  97 128 160 195 236 284
#     4  11  21  31  48  74 100 126 157 197 241 284
#     4  10  19  31  49  72  98 127 158 193 234 281
#     4   9  19  34  50  69  96 131 164 195 237 285
#
# _framework density 16.957813999999999
#
# number of rings (size 3 to 8) (size 9 to 14) (size 15 to 20)
#    0.000    2.500    0.000    5.000    0.000    7.000 
#    0.000    1.667    0.000    1.000    0.000    0.000 
#    0.000    0.000    0.000    0.000    0.000    0.000 
#
# Total GULP energy -594827.002143 kJ/mol
# GULP energy per Si atom -12392.229211 kJ/mol
# Density = 1.691922 g / cm^3
# Si number density = 16.957814 Si / 1000 Ang^3
#
#
#
# Elastic Constant Matrix: (Units=GPa)
#
#
# Indices 1 2 3 4 5 6 
#
# 1 118.5049 63.3141 54.8857 0.0000 0.0000 0.0000
# 2 63.3141 99.3621 64.3592 0.0000 0.0000 0.0000
# 3 54.8857 64.3592 102.6455 0.0000 0.0000 0.0000
# 4 0.0000 0.0000 0.0000 -2.3415 0.0000 0.0000
# 5 0.0000 0.0000 0.0000 0.0000 22.2058 0.0000
# 6 0.0000 0.0000 0.0000 0.0000 0.0000 11.7791
#
#
#
# Elastic Compliance Matrix: (Units=1/GPa)
#
#
# Indices 1 2 3 4 5 6 
#
# 1 0.013333 -0.006530 -0.003035 0.000000 0.000000 0.000000
# 2 -0.006530 0.020145 -0.009139 0.000000 0.000000 0.000000
# 3 -0.003035 -0.009139 0.017095 0.000000 0.000000 0.000000
# 4 0.000000 0.000000 0.000000 -0.427084 0.000000 0.000000
# 5 0.000000 0.000000 0.000000 0.000000 0.045033 0.000000
# 6 0.000000 0.000000 0.000000 0.000000 0.000000 0.084896
#
#
# Mechanical properties :
#
#
# Convention : Reuss Voigt Hill
#
# Bulk Modulus (GPa) = 75.95985 76.18115 76.07050
# Shear Modulus (GPa) = -24.41596 15.52558 -4.44519
#
# Velocity S-wave (km/s) = -3.79859 3.02907 -1.62081
# Velocity P-wave (km/s) = 5.06474 7.56671 6.43843
#
# Compressibility (1/GPa) = 0.01316485
#
# Stress axis : x y z
#
# Youngs Moduli (GPa) = 75.00231 49.64040 58.49519
#
# Poissons Ratio (x) = 0.32415 0.17753
# Poissons Ratio (y) = 0.48977 0.53460
# Poissons Ratio (z) = 0.22762 0.45368
#
# Static dielectric constant tensor:
#      x y z
#    x 3.277260 0.000000 0.000000 
#    y 0.000000 3.504970 0.000000 
#    z 0.000000 0.000000 3.360150 
# 
# 
# High freq. dielectric constant tensor:
#      x y z
#    x 1.664590 0.000000 0.000000 
#    y 0.000000 1.642980 0.000000 
#    z 0.000000 0.000000 1.636900 
# 
# From -- ./inp_files/48632.got.cif
#   From: 2010.03.12/outbox.cif.g09.slc.cpg/sg64_25_cif.got.tgz:48632.got - 2010.04.10 20:19:32.
