data_PCOD8262516
_publ_section_title
;
Structure prediction by ZEFSAII (Michael W. Deem and Ramdas Pophale) SiO2 
 PCOD8262516
Probable space group: C M C A
;
_chemical_formula_sum "Si O2"
_cell_formula_units_Z 128
_cell_length_a 24.453042
_cell_length_b 23.713747
_cell_length_c 12.028265
_cell_angle_alpha 90.000000
_cell_angle_beta 90.000000
_cell_angle_gamma 90.000000
_cell_volume 6974.869134
_symmetry_space_group_name_H-M "C M C A"
_symmetry_group_IT_number 64
_symmetry_cell_setting 'orthorhombic'
loop_
_space_group_symop_operation_xyz
x,y,z
-x,1/2-y,1/2+z
x,-y,-z
-x,1/2+y,1/2-z
-x,-y,-z
x,1/2+y,1/2-z
-x,y,z
x,1/2-y,1/2+z
1/2+x,1/2+y,z
1/2-x,-y,1/2+z
1/2+x,1/2-y,-z
1/2-x,y,1/2-z
1/2-x,1/2-y,-z
1/2+x,y,1/2-z
1/2-x,1/2+y,z
1/2+x,-y,1/2+z
loop_
_atom_site_type_symbol
_atom_site_label
_atom_site_fract_x
_atom_site_fract_y
_atom_site_fract_z
Si Si1 0.228121 0.128349 0.440094
Si Si2 0.611643 0.679655 0.757048
Si Si3 0.309549 0.971028 0.798746
Si Si4 0.148674 0.613968 0.360435
Si Si5 0.802477 0.905750 0.322624
Si Si6 0.143451 0.200129 0.332186
Si Si7 0.938455 0.656950 0.515169
Si Si8 0.437339 0.715204 0.527147
O O1 0.194071 0.074392 0.397081
O O2 0.292041 0.127773 0.412313
O O3 0.216946 0.129044 0.570440
O O4 0.202788 0.184448 0.383597
O O5 0.654590 0.629923 0.746129
O O6 0.644643 0.735383 0.793234
O O7 0.569440 0.661208 0.852471
O O8 0.578639 0.687119 0.643421
O O9 0.250000 0.977255 0.750000
O O10 0.349546 0.946808 0.701435
O O11 0.329037 0.031945 0.845005
O O12 0.130327 0.661459 0.273310
O O13 0.103917 0.613030 0.458838
O O14 0.750000 0.916562 0.250000
O O15 0.097798 0.189204 0.426632
O O16 0.927936 0.718067 0.461230
O O17 0.000000 0.635928 0.491691
O O18 0.500000 0.701150 0.499473
#
# Coordination Sequence:
#
# PCOD8262516 Si02
#       8
#    16  16  16  16  16  16  16  16
#     4  10  19  35  57  82 114 149 184 232 284 341
#     4  11  21  36  52  82 115 149 189 235 283 342
#     4   8  18  34  56  81 110 146 186 226 275 333
#     4  10  19  36  58  84 114 148 187 236 287 342
#     4  11  21  34  53  83 113 150 190 224 275 342
#     4  10  20  35  54  82 114 149 187 224 293 341
#     4  10  21  36  56  80 110 149 193 241 286 337
#     4  10  20  36  56  79 110 150 196 240 278 329
#
# _framework density 18.351599
#
# number of rings (size 3 to 8) (size 9 to 14) (size 15 to 20)
#    0.000    2.000    2.500    2.625    0.000    2.000 
#    0.000    4.375    0.000    2.250    0.000    1.750 
#    0.000    0.000    0.000    0.000    0.000    0.000 
#
# Total GULP energy -793433.310131 kJ/mol
# GULP energy per Si atom -12397.395471 kJ/mol
# Density = 1.830983 g / cm^3
# Si number density = 18.351599 Si / 1000 Ang^3
#
#
#
# Elastic Constant Matrix: (Units=GPa)
#
#
# Indices 1 2 3 4 5 6 
#
# 1 101.3920 38.3323 35.6325 0.0000 0.0000 0.0000
# 2 38.3323 70.9294 29.9557 0.0000 0.0000 0.0000
# 3 35.6325 29.9557 83.2148 0.0000 0.0000 0.0000
# 4 0.0000 0.0000 0.0000 24.6542 0.0000 0.0000
# 5 0.0000 0.0000 0.0000 0.0000 27.4397 0.0000
# 6 0.0000 0.0000 0.0000 0.0000 0.0000 -39.5643
#
#
#
# Elastic Compliance Matrix: (Units=1/GPa)
#
#
# Indices 1 2 3 4 5 6 
#
# 1 0.013277 -0.005630 -0.003658 0.000000 0.000000 0.000000
# 2 -0.005630 0.019014 -0.004434 0.000000 0.000000 0.000000
# 3 -0.003658 -0.004434 0.015180 0.000000 0.000000 0.000000
# 4 0.000000 0.000000 0.000000 0.040561 0.000000 0.000000
# 5 0.000000 0.000000 0.000000 0.000000 0.036444 0.000000
# 6 0.000000 0.000000 0.000000 0.000000 0.000000 -0.025275
#
#
# Mechanical properties :
#
#
# Convention : Reuss Voigt Hill
#
# Bulk Modulus (GPa) = 49.93587 51.48638 50.71112
# Shear Modulus (GPa) = 37.50384 12.61362 25.05873
#
# Velocity S-wave (km/s) = 4.52555 2.62454 3.69925
# Velocity P-wave (km/s) = 7.38764 6.10743 6.77783
#
# Compressibility (1/GPa) = 0.02002569
#
# Stress axis : x y z
#
# Youngs Moduli (GPa) = 75.31848 52.59351 65.87751
#
# Poissons Ratio (x) = 0.29611 0.24101
# Poissons Ratio (y) = 0.42406 0.29208
# Poissons Ratio (z) = 0.27555 0.23319
#
# Static dielectric constant tensor:
#      x y z
#    x 3.210420 0.000000 0.000000 
#    y 0.000000 3.512480 0.000000 
#    z 0.000000 0.000000 3.500620 
# 
# 
# High freq. dielectric constant tensor:
#      x y z
#    x 1.693080 0.000000 0.000000 
#    y 0.000000 1.694110 0.000000 
#    z 0.000000 0.000000 1.727180 
# 
# From -- ./inp_files/18666.got.cif
#   From: 2010.03.12/outbox.cif.g09.slc.cpg/sg64_10_cif.got.tgz:18666.got - 2010.04.10 20:19:32.
