data_PCOD8262676
_publ_section_title
;
Structure prediction by ZEFSAII (Michael W. Deem and Ramdas Pophale) SiO2 
 PCOD8262676
Probable space group: C M C A
;
_chemical_formula_sum "Si O2"
_cell_formula_units_Z 80
_cell_length_a 17.862330
_cell_length_b 15.169930
_cell_length_c 15.253430
_cell_angle_alpha 90.000000
_cell_angle_beta 90.000000
_cell_angle_gamma 90.000000
_cell_volume 4133.226438
_symmetry_space_group_name_H-M "C M C A"
_symmetry_group_IT_number 64
_symmetry_cell_setting 'orthorhombic'
loop_
_space_group_symop_operation_xyz
x,y,z
-x,1/2-y,1/2+z
x,-y,-z
-x,1/2+y,1/2-z
-x,-y,-z
x,1/2+y,1/2-z
-x,y,z
x,1/2-y,1/2+z
1/2+x,1/2+y,z
1/2-x,-y,1/2+z
1/2+x,1/2-y,-z
1/2-x,y,1/2-z
1/2-x,1/2-y,-z
1/2+x,y,1/2-z
1/2-x,1/2+y,z
1/2+x,-y,1/2+z
loop_
_atom_site_type_symbol
_atom_site_label
_atom_site_fract_x
_atom_site_fract_y
_atom_site_fract_z
Si Si1 0.411357 0.203644 0.176520
Si Si2 0.661807 0.972145 0.752329
Si Si3 0.583797 0.564925 0.080132
Si Si4 0.587039 0.145098 0.814822
Si Si5 0.087428 0.752035 0.984901
O O1 0.500000 0.188073 0.175831
O O2 0.371925 0.113835 0.202945
O O3 0.389183 0.280143 0.244960
O O4 0.379426 0.227577 0.080010
O O5 0.750000 0.965127 0.750000
O O6 0.633032 0.981424 0.653562
O O7 0.636933 0.058744 0.804543
O O8 0.500000 0.582577 0.117705
O O9 0.622396 0.656515 0.050389
O O10 0.579566 0.500000 0.000000
O O11 0.500000 0.121200 0.801607
O O12 0.603370 0.176549 0.913829
O O13 0.000000 0.769253 0.997741
#
# Coordination Sequence:
#
# PCOD8262676 Si02
#       5
#    16  16  16  16  16
#     4  10  20  39  66  90 115 151 201 254 303 352
#     4  12  25  39  56  88 128 165 196 238 306 376
#     4  10  19  38  66  91 115 152 214 266 295 344
#     4  10  20  38  63  87 117 155 203 254 292 344
#     4   9  18  34  61  93 114 144 196 254 305 346
#
# _framework density 19.355340000000002
#
# number of rings (size 3 to 8) (size 9 to 14) (size 15 to 20)
#    0.000    1.800    2.000    3.000    0.000    4.800 
#    3.600    4.000    0.000    0.000    0.000    0.000 
#    0.000    0.000    0.000    0.000    0.000    0.000 
#
# Total GULP energy -496068.412572 kJ/mol
# GULP energy per Si atom -12401.710314 kJ/mol
# Density = 1.931129 g / cm^3
# Si number density = 19.355340 Si / 1000 Ang^3
#
#
#
# Elastic Constant Matrix: (Units=GPa)
#
#
# Indices 1 2 3 4 5 6 
#
# 1 66.0292 33.7571 24.5575 0.0000 0.0000 0.0000
# 2 33.7571 102.3309 11.4203 0.0000 0.0000 0.0000
# 3 24.5575 11.4203 108.8072 0.0000 0.0000 0.0000
# 4 0.0000 0.0000 0.0000 32.8638 0.0000 0.0000
# 5 0.0000 0.0000 0.0000 0.0000 17.6534 0.0000
# 6 0.0000 0.0000 0.0000 0.0000 0.0000 -2.3165
#
#
#
# Elastic Compliance Matrix: (Units=1/GPa)
#
#
# Indices 1 2 3 4 5 6 
#
# 1 0.019656 -0.006060 -0.003800 0.000000 0.000000 0.000000
# 2 -0.006060 0.011756 0.000134 0.000000 0.000000 0.000000
# 3 -0.003800 0.000134 0.010034 0.000000 0.000000 0.000000
# 4 0.000000 0.000000 0.000000 0.030429 0.000000 0.000000
# 5 0.000000 0.000000 0.000000 0.000000 0.056646 0.000000
# 6 0.000000 0.000000 0.000000 0.000000 0.000000 -0.431684
#
#
# Mechanical properties :
#
#
# Convention : Reuss Voigt Hill
#
# Bulk Modulus (GPa) = 45.46748 46.29302 45.88025
# Shear Modulus (GPa) = -18.09125 23.46895 2.68885
#
# Velocity S-wave (km/s) = -3.06059 3.48592 1.17992
# Velocity P-wave (km/s) = 3.32450 6.33810 5.06082
#
# Compressibility (1/GPa) = 0.02199374
#
# Stress axis : x y z
#
# Youngs Moduli (GPa) = 50.87378 85.05976 99.65866
#
# Poissons Ratio (x) = 0.51548 0.37874
# Poissons Ratio (y) = 0.30831 -0.01334
# Poissons Ratio (z) = 0.19334 -0.01138
#
# Static dielectric constant tensor:
#      x y z
#    x 3.208690 0.000000 0.000000 
#    y 0.000000 3.629710 0.000000 
#    z 0.000000 0.000000 3.774740 
# 
# 
# High freq. dielectric constant tensor:
#      x y z
#    x 1.710950 0.000000 0.000000 
#    y 0.000000 1.766540 0.000000 
#    z 0.000000 0.000000 1.769230 
# 
# From -- ./inp_files/26132.got.cif
#   From: 2010.03.12/outbox.cif.g09.slc.cpg/sg64_14_cif.got.tgz:26132.got - 2010.04.10 20:19:32.
