data_PCOD8262810
_publ_section_title
;
Structure prediction by ZEFSAII (Michael W. Deem and Ramdas Pophale) SiO2 
 PCOD8262810
Probable space group: C M C A
;
_chemical_formula_sum "Si O2"
_cell_formula_units_Z 104
_cell_length_a 14.237412
_cell_length_b 18.787632
_cell_length_c 20.824805
_cell_angle_alpha 90.000000
_cell_angle_beta 90.000000
_cell_angle_gamma 90.000000
_cell_volume 5570.369973
_symmetry_space_group_name_H-M "C M C A"
_symmetry_group_IT_number 64
_symmetry_cell_setting 'orthorhombic'
loop_
_space_group_symop_operation_xyz
x,y,z
-x,1/2-y,1/2+z
x,-y,-z
-x,1/2+y,1/2-z
-x,-y,-z
x,1/2+y,1/2-z
-x,y,z
x,1/2-y,1/2+z
1/2+x,1/2+y,z
1/2-x,-y,1/2+z
1/2+x,1/2-y,-z
1/2-x,y,1/2-z
1/2-x,1/2-y,-z
1/2+x,y,1/2-z
1/2-x,1/2+y,z
1/2+x,-y,1/2+z
loop_
_atom_site_type_symbol
_atom_site_label
_atom_site_fract_x
_atom_site_fract_y
_atom_site_fract_z
Si Si1 0.265450 0.013823 0.929279
Si Si2 0.395995 0.632874 0.533644
Si Si3 0.163448 0.634444 0.105360
Si Si4 0.500000 0.762225 0.681455
Si Si5 0.695590 0.262186 0.378302
Si Si6 0.500000 0.322549 0.689026
Si Si7 0.297112 0.111209 0.684769
Si Si8 0.500000 0.334496 0.207460
O O1 0.362914 0.054269 0.945279
O O2 0.208304 0.061045 0.878123
O O3 0.282763 0.940138 0.892926
O O4 0.215494 0.000000 0.000000
O O5 0.500000 0.645742 0.562469
O O6 0.400655 0.640100 0.457481
O O7 0.321972 0.691037 0.558381
O O8 0.238910 0.696729 0.105591
O O9 0.094236 0.638652 0.165740
O O10 0.595199 0.769634 0.641779
O O11 0.500000 0.826166 0.733714
O O12 0.500000 0.685239 0.716853
O O13 0.744672 0.312848 0.325317
O O14 0.500000 0.239273 0.665976
O O15 0.250000 0.078434 0.750000
O O16 0.408169 0.119806 0.692806
#
# Coordination Sequence:
#
# PCOD8262810 Si02
#       8
#    16  16  16   8  16   8  16   8
#     4   9  23  40  59  84 123 164 198 243 304 354
#     4  10  20  35  62  87 110 152 204 253 290 349
#     4  11  21  37  56  86 122 151 192 240 310 352
#     4  10  20  35  55  90 115 155 195 239 307 347
#     4  11  20  36  61  84 121 149 193 250 298 358
#     4  10  20  33  56  88 115 146 190 243 290 354
#     4  11  20  39  62  90 116 157 204 248 297 358
#     4  10  20  36  61  92 113 153 202 248 297 355
#
# _framework density 18.670214000000001
#
# number of rings (size 3 to 8) (size 9 to 14) (size 15 to 20)
#    0.462    1.231    4.615    0.462    1.077    0.923 
#    2.769    1.154    0.000    0.000    0.000    0.000 
#    0.000    0.000    0.000    0.000    0.000    0.000 
#
# Total GULP energy -644465.999078 kJ/mol
# GULP energy per Si atom -12393.576905 kJ/mol
# Density = 1.862772 g / cm^3
# Si number density = 18.670214 Si / 1000 Ang^3
#
#
#
# Elastic Constant Matrix: (Units=GPa)
#
#
# Indices 1 2 3 4 5 6 
#
# 1 82.1207 18.6277 9.5306 0.0000 0.0000 0.0000
# 2 18.6277 89.9999 23.0080 0.0000 0.0000 0.0000
# 3 9.5306 23.0080 66.3613 0.0000 0.0000 0.0000
# 4 0.0000 0.0000 0.0000 29.5349 0.0000 0.0000
# 5 0.0000 0.0000 0.0000 0.0000 23.9985 0.0000
# 6 0.0000 0.0000 0.0000 0.0000 0.0000 14.5276
#
#
#
# Elastic Compliance Matrix: (Units=1/GPa)
#
#
# Indices 1 2 3 4 5 6 
#
# 1 0.012839 -0.002399 -0.001012 0.000000 0.000000 0.000000
# 2 -0.002399 0.012640 -0.004038 0.000000 0.000000 0.000000
# 3 -0.001012 -0.004038 0.016614 0.000000 0.000000 0.000000
# 4 0.000000 0.000000 0.000000 0.033858 0.000000 0.000000
# 5 0.000000 0.000000 0.000000 0.000000 0.041669 0.000000
# 6 0.000000 0.000000 0.000000 0.000000 0.000000 0.068835
#
#
# Mechanical properties :
#
#
# Convention : Reuss Voigt Hill
#
# Bulk Modulus (GPa) = 36.77062 37.86828 37.31945
# Shear Modulus (GPa) = 23.76227 26.09990 24.93109
#
# Velocity S-wave (km/s) = 3.57141 3.74296 3.65820
# Velocity P-wave (km/s) = 6.06170 6.24552 6.15429
#
# Compressibility (1/GPa) = 0.02719562
#
# Stress axis : x y z
#
# Youngs Moduli (GPa) = 77.88924 79.11510 60.18886
#
# Poissons Ratio (x) = 0.18976 0.06093
# Poissons Ratio (y) = 0.18682 0.24303
# Poissons Ratio (z) = 0.07885 0.31946
#
# Static dielectric constant tensor:
#      x y z
#    x 3.231140 0.000000 0.000000 
#    y 0.000000 3.286850 0.000000 
#    z 0.000000 0.000000 3.494610 
# 
# 
# High freq. dielectric constant tensor:
#      x y z
#    x 1.717330 0.000000 0.000000 
#    y 0.000000 1.709580 0.000000 
#    z 0.000000 0.000000 1.726730 
# 
# From -- ./inp_files/39503.got.cif
#   From: 2010.03.12/outbox.cif.g09.slc.cpg/sg64_20_cif.got.tgz:39503.got - 2010.04.10 20:19:32.
