data_PCOD8262316
_publ_section_title
;
Structure prediction by ZEFSAII (Michael W. Deem and Ramdas Pophale) SiO2 
 PCOD8262316
Probable space group: C M C A
;
_chemical_formula_sum "Si O2"
_cell_formula_units_Z 96
_cell_length_a 8.940664
_cell_length_b 20.614986
_cell_length_c 26.901650
_cell_angle_alpha 90.000000
_cell_angle_beta 90.000000
_cell_angle_gamma 90.000000
_cell_volume 4958.287854
_symmetry_space_group_name_H-M "C M C A"
_symmetry_group_IT_number 64
_symmetry_cell_setting 'orthorhombic'
loop_
_space_group_symop_operation_xyz
x,y,z
-x,1/2-y,1/2+z
x,-y,-z
-x,1/2+y,1/2-z
-x,-y,-z
x,1/2+y,1/2-z
-x,y,z
x,1/2-y,1/2+z
1/2+x,1/2+y,z
1/2-x,-y,1/2+z
1/2+x,1/2-y,-z
1/2-x,y,1/2-z
1/2-x,1/2-y,-z
1/2+x,y,1/2-z
1/2-x,1/2+y,z
1/2+x,-y,1/2+z
loop_
_atom_site_type_symbol
_atom_site_label
_atom_site_fract_x
_atom_site_fract_y
_atom_site_fract_z
Si Si1 0.322837 0.677726 0.696992
Si Si2 0.674682 0.439012 0.141074
Si Si3 0.177212 0.305631 0.639958
Si Si4 0.322217 0.190435 0.472277
Si Si5 0.677614 0.937602 0.471729
Si Si6 0.674226 0.569997 0.197810
O O1 0.500000 0.675319 0.703031
O O2 0.250000 0.688900 0.750000
O O3 0.267749 0.610860 0.673845
O O4 0.270161 0.737261 0.662448
O O5 0.500000 0.421010 0.144668
O O6 0.735286 0.435608 0.084814
O O7 0.706164 0.510963 0.160671
O O8 0.238810 0.311167 0.584017
O O9 0.241837 0.364846 0.672910
O O10 0.000000 0.311309 0.638957
O O11 0.500000 0.197072 0.474090
O O12 0.250000 0.250000 0.500000
O O13 0.265863 0.125722 0.499510
O O14 0.500000 0.941936 0.471770
O O15 0.745088 0.000000 0.500000
O O16 0.500000 0.578460 0.208069
O O17 0.750000 0.555518 0.250000
#
# Coordination Sequence:
#
# PCOD8262316 Si02
#       6
#    16  16  16  16  16  16
#     4  11  22  36  54  75 103 137 173 213 258 310
#     4  10  20  34  54  80 108 137 171 213 259 306
#     4   9  19  35  54  76 102 135 171 210 257 303
#     4  10  19  33  54  78 105 135 169 209 253 302
#     4   9  17  31  54  81 105 135 177 217 250 296
#     4  10  20  35  54  75 101 133 171 213 256 302
#
# _framework density 19.361522000000001
#
# number of rings (size 3 to 8) (size 9 to 14) (size 15 to 20)
#    0.000    2.167    0.000    3.500    0.000    6.000 
#    0.000    2.500    0.000    4.000    0.000    0.000 
#    0.000    0.000    0.000    0.000    0.000    0.000 
#
# Total GULP energy -595331.385970 kJ/mol
# GULP energy per Si atom -12402.737208 kJ/mol
# Density = 1.931745 g / cm^3
# Si number density = 19.361522 Si / 1000 Ang^3
#
#
#
# Elastic Constant Matrix: (Units=GPa)
#
#
# Indices 1 2 3 4 5 6 
#
# 1 34.9798 33.7661 30.2028 0.0000 0.0000 0.0000
# 2 33.7661 119.8737 39.4185 0.0000 0.0000 0.0000
# 3 30.2028 39.4185 141.3333 0.0000 0.0000 0.0000
# 4 0.0000 0.0000 0.0000 42.8817 0.0000 0.0000
# 5 0.0000 0.0000 0.0000 0.0000 8.8787 0.0000
# 6 0.0000 0.0000 0.0000 0.0000 0.0000 21.7954
#
#
#
# Elastic Compliance Matrix: (Units=1/GPa)
#
#
# Indices 1 2 3 4 5 6 
#
# 1 0.044195 -0.010287 -0.006575 0.000000 0.000000 0.000000
# 2 -0.010287 0.011579 -0.001031 0.000000 0.000000 0.000000
# 3 -0.006575 -0.001031 0.008768 0.000000 0.000000 0.000000
# 4 0.000000 0.000000 0.000000 0.023320 0.000000 0.000000
# 5 0.000000 0.000000 0.000000 0.000000 0.112630 0.000000
# 6 0.000000 0.000000 0.000000 0.000000 0.000000 0.045881
#
#
# Mechanical properties :
#
#
# Convention : Reuss Voigt Hill
#
# Bulk Modulus (GPa) = 34.77577 55.88462 45.33019
# Shear Modulus (GPa) = 17.13826 27.56443 22.35135
#
# Velocity S-wave (km/s) = 2.97841 3.77725 3.40136
# Velocity P-wave (km/s) = 5.46152 6.92459 6.23611
#
# Compressibility (1/GPa) = 0.02875566
#
# Stress axis : x y z
#
# Youngs Moduli (GPa) = 22.62683 86.36509 114.04807
#
# Poissons Ratio (x) = 0.88841 0.74992
# Poissons Ratio (y) = 0.23276 0.11760
# Poissons Ratio (z) = 0.14878 0.08905
#
# Static dielectric constant tensor:
#      x y z
#    x 3.150170 0.000000 0.000000 
#    y 0.000000 3.628500 0.000000 
#    z 0.000000 0.000000 3.653030 
# 
# 
# High freq. dielectric constant tensor:
#      x y z
#    x 1.711130 0.000000 0.000000 
#    y 0.000000 1.772590 0.000000 
#    z 0.000000 0.000000 1.774240 
# 
# From -- ./inp_files/42997.got.cif
#   From: 2010.03.12/outbox.cif.g09.slc.cpg/sg64_22_cif.got.tgz:42997.got - 2010.04.10 20:19:32.
