data_PCOD8262754
_publ_section_title
;
Structure prediction by ZEFSAII (Michael W. Deem and Ramdas Pophale) SiO2 
 PCOD8262754
Probable space group: C M C A
;
_chemical_formula_sum "Si O2"
_cell_formula_units_Z 88
_cell_length_a 24.654430
_cell_length_b 5.259158
_cell_length_c 36.430421
_cell_angle_alpha 90.000000
_cell_angle_beta 90.000000
_cell_angle_gamma 90.000000
_cell_volume 4723.624591
_symmetry_space_group_name_H-M "C M C A"
_symmetry_group_IT_number 64
_symmetry_cell_setting 'orthorhombic'
loop_
_space_group_symop_operation_xyz
x,y,z
-x,1/2-y,1/2+z
x,-y,-z
-x,1/2+y,1/2-z
-x,-y,-z
x,1/2+y,1/2-z
-x,y,z
x,1/2-y,1/2+z
1/2+x,1/2+y,z
1/2-x,-y,1/2+z
1/2+x,1/2-y,-z
1/2-x,y,1/2-z
1/2-x,1/2-y,-z
1/2+x,y,1/2-z
1/2-x,1/2+y,z
1/2+x,-y,1/2+z
loop_
_atom_site_type_symbol
_atom_site_label
_atom_site_fract_x
_atom_site_fract_y
_atom_site_fract_z
Si Si1 0.226760 0.248946 0.958354
Si Si2 0.564741 0.316157 0.729296
Si Si3 0.891966 0.915739 0.041635
Si Si4 0.000000 0.745464 0.024215
Si Si5 0.063931 0.713801 0.396312
Si Si6 0.563087 0.298385 0.647251
O O1 0.248640 0.500921 0.938299
O O2 0.162189 0.247257 0.953284
O O3 0.250000 0.250000 0.000000
O O4 0.586623 0.068487 0.750659
O O5 0.500000 0.310425 0.728761
O O6 0.588546 0.311986 0.687960
O O7 0.898682 0.161694 0.067752
O O8 0.945672 0.740445 0.049478
O O9 0.891867 0.000000 0.000000
O O10 0.000000 0.500000 0.000000
O O11 0.000000 0.000000 0.000000
O O12 0.086450 0.972998 0.378071
O O13 0.000000 0.730134 0.407204
O O14 0.075034 0.478476 0.368994
O O15 0.500000 0.354415 0.650837
#
# Coordination Sequence:
#
# PCOD8262754 Si02
#       6
#    16  16  16   8  16  16
#     4  10  21  37  55  73  92 120 158 219 265 311
#     4   9  15  24  42  65  85 118 164 203 229 265
#     4  11  22  38  55  73  99 127 177 222 262 303
#     4  10  24  34  50  74  96 122 154 218 268 290
#     4  10  20  33  45  66  94 132 162 201 260 302
#     4   9  18  31  44  62  97 127 160 201 243 297
#
# _framework density 18.629764000000002
#
# number of rings (size 3 to 8) (size 9 to 14) (size 15 to 20)
#    0.000    2.182    2.727    1.091    2.545    8.727 
#    0.000    0.000    0.000    0.000    0.000    0.000 
#    0.000    0.000    0.000    0.000    0.000   63.636 
#
# Total GULP energy -545273.211232 kJ/mol
# GULP energy per Si atom -12392.572983 kJ/mol
# Density = 1.858736 g / cm^3
# Si number density = 18.629764 Si / 1000 Ang^3
#
#
#
# Elastic Constant Matrix: (Units=GPa)
#
#
# Indices 1 2 3 4 5 6 
#
# 1 100.7929 20.5211 -0.9890 0.0000 0.0000 0.0000
# 2 20.5211 101.1190 0.3521 0.0000 0.0000 0.0000
# 3 -0.9890 0.3521 73.5953 0.0000 0.0000 0.0000
# 4 0.0000 0.0000 0.0000 24.2506 0.0000 0.0000
# 5 0.0000 0.0000 0.0000 0.0000 0.8363 0.0000
# 6 0.0000 0.0000 0.0000 0.0000 0.0000 12.4119
#
#
#
# Elastic Compliance Matrix: (Units=1/GPa)
#
#
# Indices 1 2 3 4 5 6 
#
# 1 0.010351 -0.002101 0.000149 0.000000 0.000000 0.000000
# 2 -0.002101 0.010316 -0.000078 0.000000 0.000000 0.000000
# 3 0.000149 -0.000078 0.013590 0.000000 0.000000 0.000000
# 4 0.000000 0.000000 0.000000 0.041236 0.000000 0.000000
# 5 0.000000 0.000000 0.000000 0.000000 1.195745 0.000000
# 6 0.000000 0.000000 0.000000 0.000000 0.000000 0.080568
#
#
# Mechanical properties :
#
#
# Convention : Reuss Voigt Hill
#
# Bulk Modulus (GPa) = 33.11504 35.03062 34.07283
# Shear Modulus (GPa) = 3.66051 24.54129 14.10090
#
# Velocity S-wave (km/s) = 1.40326 3.63342 2.75417
# Velocity P-wave (km/s) = 4.52100 6.03711 5.33321
#
# Compressibility (1/GPa) = 0.03019775
#
# Stress axis : x y z
#
# Youngs Moduli (GPa) = 96.61305 96.93676 73.58242
#
# Poissons Ratio (x) = 0.20367 -0.01097
# Poissons Ratio (y) = 0.20299 0.00571
# Poissons Ratio (z) = -0.01441 0.00752
#
# Static dielectric constant tensor:
#      x y z
#    x -126.960360 0.000000 0.000000 
#    y 0.000000 4.078020 0.000000 
#    z 0.000000 0.000000 3.428150 
# 
# 
# High freq. dielectric constant tensor:
#      x y z
#    x 1.657400 0.000000 0.000000 
#    y 0.000000 1.747520 0.000000 
#    z 0.000000 0.000000 1.699830 
# 
# From -- ./inp_files/53998.got.cif
#   From: 2010.03.12/outbox.cif.g09.slc.cpg/sg64_27_cif.got.tgz:53998.got - 2010.04.10 20:19:32.
