data_PCOD8262413
_publ_section_title
;
Structure prediction by ZEFSAII (Michael W. Deem and Ramdas Pophale) SiO2 
 PCOD8262413
Probable space group: C M C A
;
_chemical_formula_sum "Si O2"
_cell_formula_units_Z 96
_cell_length_a 9.019586
_cell_length_b 19.173227
_cell_length_c 30.571119
_cell_angle_alpha 90.000000
_cell_angle_beta 90.000000
_cell_angle_gamma 90.000000
_cell_volume 5286.803313
_symmetry_space_group_name_H-M "C M C A"
_symmetry_group_IT_number 64
_symmetry_cell_setting 'orthorhombic'
loop_
_space_group_symop_operation_xyz
x,y,z
-x,1/2-y,1/2+z
x,-y,-z
-x,1/2+y,1/2-z
-x,-y,-z
x,1/2+y,1/2-z
-x,y,z
x,1/2-y,1/2+z
1/2+x,1/2+y,z
1/2-x,-y,1/2+z
1/2+x,1/2-y,-z
1/2-x,y,1/2-z
1/2-x,1/2-y,-z
1/2+x,y,1/2-z
1/2-x,1/2+y,z
1/2+x,-y,1/2+z
loop_
_atom_site_type_symbol
_atom_site_label
_atom_site_fract_x
_atom_site_fract_y
_atom_site_fract_z
Si Si1 0.670492 0.347607 0.295670
Si Si2 0.827525 0.078932 0.490102
Si Si3 0.170476 0.390764 0.889946
Si Si4 0.824465 0.357113 0.431281
Si Si5 0.674893 0.748098 0.127029
Si Si6 0.671182 0.457023 0.365499
O O1 0.500000 0.338869 0.284952
O O2 0.750000 0.341532 0.250000
O O3 0.723549 0.286342 0.328220
O O4 0.704128 0.422262 0.318443
O O5 0.790123 0.096139 0.440250
O O6 0.731433 0.131636 0.519358
O O7 0.000000 0.089615 0.500999
O O8 0.778926 0.000000 0.500000
O O9 0.275195 0.331750 0.869856
O O10 0.204333 0.460937 0.862529
O O11 0.000000 0.368128 0.884527
O O12 0.755732 0.285064 0.413646
O O13 0.772957 0.422674 0.402376
O O14 0.000000 0.350826 0.430515
O O15 0.500000 0.753871 0.119818
O O16 0.500000 0.443582 0.379425
#
# Coordination Sequence:
#
# PCOD8262413 Si02
#       6
#    16  16  16  16  16  16
#     4   9  19  36  60  83 105 137 176 218 268 327
#     4  10  19  34  55  77 107 150 188 224 273 320
#     4  10  20  35  57  81 108 145 185 222 268 323
#     4  11  21  33  53  80 108 143 189 232 265 310
#     4  10  22  39  56  77 111 148 181 223 277 327
#     4   9  18  36  57  79 109 143 176 216 271 326
#
# _framework density 18.158421000000001
#
# number of rings (size 3 to 8) (size 9 to 14) (size 15 to 20)
#    0.000    2.167    1.667    3.000    0.000    5.667 
#    0.000    0.833    0.000    4.000    0.000    0.000 
#    0.000    0.000    0.000    0.000    0.000    0.000 
#
# Total GULP energy -595302.188985 kJ/mol
# GULP energy per Si atom -12402.128937 kJ/mol
# Density = 1.811709 g / cm^3
# Si number density = 18.158421 Si / 1000 Ang^3
#
#
#
# Elastic Constant Matrix: (Units=GPa)
#
#
# Indices 1 2 3 4 5 6 
#
# 1 78.1806 48.2108 41.8017 0.0000 0.0000 0.0000
# 2 48.2108 132.0189 55.6149 0.0000 0.0000 0.0000
# 3 41.8017 55.6149 102.7747 0.0000 0.0000 0.0000
# 4 0.0000 0.0000 0.0000 19.2674 0.0000 0.0000
# 5 0.0000 0.0000 0.0000 0.0000 31.0564 0.0000
# 6 0.0000 0.0000 0.0000 0.0000 0.0000 30.5728
#
#
#
# Elastic Compliance Matrix: (Units=1/GPa)
#
#
# Indices 1 2 3 4 5 6 
#
# 1 0.018264 -0.004586 -0.004947 0.000000 0.000000 0.000000
# 2 -0.004586 0.010963 -0.004067 0.000000 0.000000 0.000000
# 3 -0.004947 -0.004067 0.013943 0.000000 0.000000 0.000000
# 4 0.000000 0.000000 0.000000 0.051901 0.000000 0.000000
# 5 0.000000 0.000000 0.000000 0.000000 0.032200 0.000000
# 6 0.000000 0.000000 0.000000 0.000000 0.000000 0.032709
#
#
# Mechanical properties :
#
#
# Convention : Reuss Voigt Hill
#
# Bulk Modulus (GPa) = 62.61797 67.13654 64.87726
# Shear Modulus (GPa) = 25.97384 27.33577 26.65481
#
# Velocity S-wave (km/s) = 3.78617 3.88416 3.83548
# Velocity P-wave (km/s) = 7.32616 7.56099 7.44450
#
# Compressibility (1/GPa) = 0.01596986
#
# Stress axis : x y z
#
# Youngs Moduli (GPa) = 54.75345 91.21947 71.72060
#
# Poissons Ratio (x) = 0.41829 0.35480
# Poissons Ratio (y) = 0.25107 0.29170
# Poissons Ratio (z) = 0.27087 0.37100
#
# Static dielectric constant tensor:
#      x y z
#    x 3.255050 0.000000 0.000000 
#    y 0.000000 3.450700 0.000000 
#    z 0.000000 0.000000 3.235760 
# 
# 
# High freq. dielectric constant tensor:
#      x y z
#    x 1.699340 0.000000 0.000000 
#    y 0.000000 1.704760 0.000000 
#    z 0.000000 0.000000 1.689660 
# 
# From -- ./inp_files/48110.got.cif
#   From: 2010.03.12/outbox.cif.g09.slc.cpg/sg64_25_cif.got.tgz:48110.got - 2010.04.10 20:19:32.
