data_PCOD8262555
_publ_section_title
;
Structure prediction by ZEFSAII (Michael W. Deem and Ramdas Pophale) SiO2 
 PCOD8262555
Probable space group: C M C A
;
_chemical_formula_sum "Si O2"
_cell_formula_units_Z 96
_cell_length_a 17.554579
_cell_length_b 25.259133
_cell_length_c 10.687055
_cell_angle_alpha 90.000000
_cell_angle_beta 90.000000
_cell_angle_gamma 90.000000
_cell_volume 4738.783882
_symmetry_space_group_name_H-M "C M C A"
_symmetry_group_IT_number 64
_symmetry_cell_setting 'orthorhombic'
loop_
_space_group_symop_operation_xyz
x,y,z
-x,1/2-y,1/2+z
x,-y,-z
-x,1/2+y,1/2-z
-x,-y,-z
x,1/2+y,1/2-z
-x,y,z
x,1/2-y,1/2+z
1/2+x,1/2+y,z
1/2-x,-y,1/2+z
1/2+x,1/2-y,-z
1/2-x,y,1/2-z
1/2-x,1/2-y,-z
1/2+x,y,1/2-z
1/2-x,1/2+y,z
1/2+x,-y,1/2+z
loop_
_atom_site_type_symbol
_atom_site_label
_atom_site_fract_x
_atom_site_fract_y
_atom_site_fract_z
Si Si1 0.089062 0.396881 0.253312
Si Si2 0.909572 0.792419 0.856700
Si Si3 0.416285 0.496144 0.857574
Si Si4 0.411423 0.561105 0.487823
Si Si5 0.838547 0.602404 0.256314
Si Si6 0.909231 0.287331 0.358163
O O1 0.123950 0.449538 0.315000
O O2 0.124972 0.344046 0.313771
O O3 0.000000 0.396125 0.282772
O O4 0.105766 0.402104 0.106745
O O5 0.880167 0.850726 0.828950
O O6 0.878020 0.754463 0.745371
O O7 0.000000 0.793251 0.854496
O O8 0.882829 0.774824 0.998114
O O9 0.500000 0.487146 0.789474
O O10 0.355938 0.450457 0.833064
O O11 0.434944 0.500000 0.000000
O O12 0.381787 0.500000 0.500000
O O13 0.500000 0.559377 0.456040
O O14 0.368817 0.594041 0.382547
O O15 0.750000 0.614771 0.250000
O O16 0.000000 0.287741 0.351710
#
# Coordination Sequence:
#
# PCOD8262555 Si02
#       6
#    16  16  16  16  16  16
#     4   9  17  31  57  90 116 140 183 245 300 347
#     4  10  21  39  63  89 116 151 200 252 303 353
#     4  10  19  35  61  87 114 152 194 242 298 352
#     4  10  19  35  61  88 114 150 198 247 296 347
#     4  12  25  38  55  83 124 164 198 240 293 360
#     4   9  19  35  61  94 118 144 193 255 306 353
#
# _framework density 20.258361000000001
#
# number of rings (size 3 to 8) (size 9 to 14) (size 15 to 20)
#    0.000    2.000    1.667    2.500    2.333    3.333 
#    0.000    0.833    0.000    0.000    0.000    0.000 
#    0.000    0.000    0.000    0.000    0.000    0.000 
#
# Total GULP energy -594833.276148 kJ/mol
# GULP energy per Si atom -12392.359920 kJ/mol
# Density = 2.021225 g / cm^3
# Si number density = 20.258361 Si / 1000 Ang^3
#
#
#
# Elastic Constant Matrix: (Units=GPa)
#
#
# Indices 1 2 3 4 5 6 
#
# 1 18.2328 11.0028 27.1213 0.0000 0.0000 0.0000
# 2 11.0028 131.1968 71.5552 0.0000 0.0000 0.0000
# 3 27.1213 71.5552 163.4420 0.0000 0.0000 0.0000
# 4 0.0000 0.0000 0.0000 42.8991 0.0000 0.0000
# 5 0.0000 0.0000 0.0000 0.0000 8.6202 0.0000
# 6 0.0000 0.0000 0.0000 0.0000 0.0000 7.1824
#
#
#
# Elastic Compliance Matrix: (Units=1/GPa)
#
#
# Indices 1 2 3 4 5 6 
#
# 1 0.072861 0.000635 -0.012369 0.000000 0.000000 0.000000
# 2 0.000635 0.010019 -0.004492 0.000000 0.000000 0.000000
# 3 -0.012369 -0.004492 0.010137 0.000000 0.000000 0.000000
# 4 0.000000 0.000000 0.000000 0.023311 0.000000 0.000000
# 5 0.000000 0.000000 0.000000 0.000000 0.116006 0.000000
# 6 0.000000 0.000000 0.000000 0.000000 0.000000 0.139228
#
#
# Mechanical properties :
#
#
# Convention : Reuss Voigt Hill
#
# Bulk Modulus (GPa) = 16.51052 59.13669 37.82361
# Shear Modulus (GPa) = 11.78686 25.28650 18.53668
#
# Velocity S-wave (km/s) = 2.41473 3.53682 3.02820
# Velocity P-wave (km/s) = 3.99277 6.77742 5.56218
#
# Compressibility (1/GPa) = 0.06056744
#
# Stress axis : x y z
#
# Youngs Moduli (GPa) = 13.72470 99.81455 98.64607
#
# Poissons Ratio (x) = -0.06342 1.22012
# Poissons Ratio (y) = -0.00872 0.44308
# Poissons Ratio (z) = 0.16976 0.44833
#
# Static dielectric constant tensor:
#      x y z
#    x 3.086270 0.000000 0.000000 
#    y 0.000000 3.878870 0.000000 
#    z 0.000000 0.000000 3.966970 
# 
# 
# High freq. dielectric constant tensor:
#      x y z
#    x 1.727800 0.000000 0.000000 
#    y 0.000000 1.797220 0.000000 
#    z 0.000000 0.000000 1.813600 
# 
# From -- ./inp_files/17483.got.cif
#   From: 2010.03.12/outbox.cif.g09.slc.cpg/sg64_9_cif.got.tgz:17483.got - 2010.04.10 20:19:32.
