data_PCOD8262012
_publ_section_title
;
Structure prediction by ZEFSAII (Michael W. Deem and Ramdas Pophale) SiO2 
 PCOD8262012
Probable space group: C M C A
;
_chemical_formula_sum "Si O2"
_cell_formula_units_Z 96
_cell_length_a 8.951786
_cell_length_b 23.704026
_cell_length_c 25.609997
_cell_angle_alpha 90.000000
_cell_angle_beta 90.000000
_cell_angle_gamma 90.000000
_cell_volume 5434.271520
_symmetry_space_group_name_H-M "C M C A"
_symmetry_group_IT_number 64
_symmetry_cell_setting 'orthorhombic'
loop_
_space_group_symop_operation_xyz
x,y,z
-x,1/2-y,1/2+z
x,-y,-z
-x,1/2+y,1/2-z
-x,-y,-z
x,1/2+y,1/2-z
-x,y,z
x,1/2-y,1/2+z
1/2+x,1/2+y,z
1/2-x,-y,1/2+z
1/2+x,1/2-y,-z
1/2-x,y,1/2-z
1/2-x,1/2-y,-z
1/2+x,y,1/2-z
1/2-x,1/2+y,z
1/2+x,-y,1/2+z
loop_
_atom_site_type_symbol
_atom_site_label
_atom_site_fract_x
_atom_site_fract_y
_atom_site_fract_z
Si Si1 0.326400 0.356302 0.932631
Si Si2 0.176855 0.017715 0.058640
Si Si3 0.825309 0.248246 0.127959
Si Si4 0.832731 0.675752 0.966867
Si Si5 0.329293 0.918983 0.113233
Si Si6 0.677636 0.836919 0.305488
O O1 0.500000 0.362268 0.942225
O O2 0.260511 0.419330 0.928918
O O3 0.293580 0.318783 0.880422
O O4 0.267847 0.321946 0.982212
O O5 0.000000 0.012530 0.066429
O O6 0.256424 0.979510 0.102158
O O7 0.222483 0.000000 0.000000
O O8 0.774669 0.278725 0.074706
O O9 0.729641 0.274611 0.175048
O O10 0.000000 0.260573 0.139172
O O11 0.823411 0.614029 0.941310
O O12 0.000000 0.690223 0.984344
O O13 0.500000 0.925655 0.132819
O O14 0.234515 0.886093 0.156555
O O15 0.500000 0.838388 0.301771
O O16 0.750000 0.848947 0.250000
#
# Coordination Sequence:
#
# PCOD8262012 Si02
#       6
#    16  16  16  16  16  16
#     4  10  19  30  47  70 105 147 181 215 255 302
#     4  10  19  31  48  74 109 148 188 222 257 307
#     4   9  19  34  49  73 105 137 174 215 261 311
#     4   9  17  28  44  68 101 137 177 219 255 301
#     4  10  20  34  52  77 107 140 179 221 263 309
#     4  11  22  38  61  83 103 129 165 216 273 323
#
# _framework density 17.665661
#
# number of rings (size 3 to 8) (size 9 to 14) (size 15 to 20)
#    0.000    2.167    1.667    3.500    0.000    4.333 
#    0.000    0.000    0.000    1.000    0.000    4.667 
#    0.000    0.000    0.000    0.000    0.000    0.000 
#
# Total GULP energy -595043.955980 kJ/mol
# GULP energy per Si atom -12396.749083 kJ/mol
# Density = 1.762545 g / cm^3
# Si number density = 17.665661 Si / 1000 Ang^3
#
#
#
# Elastic Constant Matrix: (Units=GPa)
#
#
# Indices 1 2 3 4 5 6 
#
# 1 80.3311 35.1730 40.2658 0.0000 0.0000 0.0000
# 2 35.1730 98.4741 31.1848 0.0000 0.0000 0.0000
# 3 40.2658 31.1848 72.0781 0.0000 0.0000 0.0000
# 4 0.0000 0.0000 0.0000 15.5559 0.0000 0.0000
# 5 0.0000 0.0000 0.0000 0.0000 28.8066 0.0000
# 6 0.0000 0.0000 0.0000 0.0000 0.0000 23.6223
#
#
#
# Elastic Compliance Matrix: (Units=1/GPa)
#
#
# Indices 1 2 3 4 5 6 
#
# 1 0.018474 -0.003859 -0.008651 0.000000 0.000000 0.000000
# 2 -0.003859 0.012573 -0.003284 0.000000 0.000000 0.000000
# 3 -0.008651 -0.003284 0.020127 0.000000 0.000000 0.000000
# 4 0.000000 0.000000 0.000000 0.064284 0.000000 0.000000
# 5 0.000000 0.000000 0.000000 0.000000 0.034714 0.000000
# 6 0.000000 0.000000 0.000000 0.000000 0.000000 0.042333
#
#
# Mechanical properties :
#
#
# Convention : Reuss Voigt Hill
#
# Bulk Modulus (GPa) = 51.05404 51.57004 51.31204
# Shear Modulus (GPa) = 21.68033 23.21428 22.44731
#
# Velocity S-wave (km/s) = 3.50703 3.62897 3.56852
# Velocity P-wave (km/s) = 6.73512 6.84214 6.78884
#
# Compressibility (1/GPa) = 0.01958709
#
# Stress axis : x y z
#
# Youngs Moduli (GPa) = 54.12876 79.53332 49.68340
#
# Poissons Ratio (x) = 0.30693 0.42981
# Poissons Ratio (y) = 0.20889 0.16316
# Poissons Ratio (z) = 0.46826 0.26119
#
# Static dielectric constant tensor:
#      x y z
#    x 3.225970 0.000000 0.000000 
#    y 0.000000 3.514390 0.000000 
#    z 0.000000 0.000000 3.005460 
# 
# 
# High freq. dielectric constant tensor:
#      x y z
#    x 1.682480 0.000000 0.000000 
#    y 0.000000 1.688030 0.000000 
#    z 0.000000 0.000000 1.647450 
# 
# From -- ./inp_files/43050.got.cif
#   From: 2010.03.12/outbox.cif.g09.slc.cpg/sg64_22_cif.got.tgz:43050.got - 2010.04.10 20:19:32.
