data_PCOD8262501
_publ_section_title
;
Structure prediction by ZEFSAII (Michael W. Deem and Ramdas Pophale) SiO2 
 PCOD8262501
Probable space group: C M C A
;
_chemical_formula_sum "Si O2"
_cell_formula_units_Z 112
_cell_length_a 17.852382
_cell_length_b 20.249035
_cell_length_c 16.403422
_cell_angle_alpha 90.000000
_cell_angle_beta 90.000000
_cell_angle_gamma 90.000000
_cell_volume 5929.730561
_symmetry_space_group_name_H-M "C M C A"
_symmetry_group_IT_number 64
_symmetry_cell_setting 'orthorhombic'
loop_
_space_group_symop_operation_xyz
x,y,z
-x,1/2-y,1/2+z
x,-y,-z
-x,1/2+y,1/2-z
-x,-y,-z
x,1/2+y,1/2-z
-x,y,z
x,1/2-y,1/2+z
1/2+x,1/2+y,z
1/2-x,-y,1/2+z
1/2+x,1/2-y,-z
1/2-x,y,1/2-z
1/2-x,1/2-y,-z
1/2+x,y,1/2-z
1/2-x,1/2+y,z
1/2+x,-y,1/2+z
loop_
_atom_site_type_symbol
_atom_site_label
_atom_site_fract_x
_atom_site_fract_y
_atom_site_fract_z
Si Si1 0.153946 0.841286 0.669681
Si Si2 0.416482 0.865460 0.005210
Si Si3 0.787914 0.715339 0.609371
Si Si4 0.271994 0.439234 0.891812
Si Si5 0.771864 0.418850 0.073063
Si Si6 0.634566 0.229564 0.451270
Si Si7 0.584202 0.617183 0.165009
O O1 0.107896 0.854818 0.587657
O O2 0.177742 0.763202 0.679798
O O3 0.227094 0.888454 0.666007
O O4 0.100875 0.858006 0.744327
O O5 0.500000 0.895372 0.009469
O O6 0.360297 0.914490 0.052749
O O7 0.414445 0.795750 0.051687
O O8 0.757727 0.641521 0.630883
O O9 0.719133 0.759403 0.578429
O O10 0.854618 0.705288 0.544040
O O11 0.240384 0.512937 0.879755
O O12 0.358050 0.439904 0.861859
O O13 0.271032 0.416486 0.986221
O O14 0.590825 0.177357 0.397523
O O15 0.500000 0.588684 0.161915
#
# Coordination Sequence:
#
# PCOD8262501 Si02
#       7
#    16  16  16  16  16  16  16
#     4  10  20  33  56  78 109 147 187 220 271 332
#     4   9  17  32  53  84 117 137 171 232 282 316
#     4   9  15  32  57  82 102 140 186 234 258 317
#     4  10  19  35  55  79 107 142 186 231 262 327
#     4   9  18  33  58  81 103 140 192 225 268 328
#     4   9  16  29  53  83 109 137 175 222 273 318
#     4  12  22  33  53  81 112 145 179 226 278 328
#
# _framework density 18.887874
#
# number of rings (size 3 to 8) (size 9 to 14) (size 15 to 20)
#    0.000    2.286    2.857    3.000    0.000    0.000 
#    0.000    7.857   12.571    0.000    0.000    0.000 
#    0.000    0.000    0.000    0.000    0.000    0.000 
#
# Total GULP energy -693907.012910 kJ/mol
# GULP energy per Si atom -12391.196659 kJ/mol
# Density = 1.884488 g / cm^3
# Si number density = 18.887874 Si / 1000 Ang^3
#
#
#
# Elastic Constant Matrix: (Units=GPa)
#
#
# Indices 1 2 3 4 5 6 
#
# 1 143.4735 52.8753 32.7407 0.0000 0.0000 0.0000
# 2 52.8753 109.8675 18.5729 0.0000 0.0000 0.0000
# 3 32.7407 18.5729 38.4678 0.0000 0.0000 0.0000
# 4 0.0000 0.0000 0.0000 9.6402 0.0000 0.0000
# 5 0.0000 0.0000 0.0000 0.0000 20.2134 0.0000
# 6 0.0000 0.0000 0.0000 0.0000 0.0000 20.2787
#
#
#
# Elastic Compliance Matrix: (Units=1/GPa)
#
#
# Indices 1 2 3 4 5 6 
#
# 1 0.009805 -0.003602 -0.006606 0.000000 0.000000 0.000000
# 2 -0.003602 0.011234 -0.002358 0.000000 0.000000 0.000000
# 3 -0.006606 -0.002358 0.032757 0.000000 0.000000 0.000000
# 4 0.000000 0.000000 0.000000 0.103732 0.000000 0.000000
# 5 0.000000 0.000000 0.000000 0.000000 0.049472 0.000000
# 6 0.000000 0.000000 0.000000 0.000000 0.000000 0.049313
#
#
# Mechanical properties :
#
#
# Convention : Reuss Voigt Hill
#
# Bulk Modulus (GPa) = 34.88784 55.57626 45.23205
# Shear Modulus (GPa) = 17.18213 22.53445 19.85829
#
# Velocity S-wave (km/s) = 3.01938 3.45782 3.24601
# Velocity P-wave (km/s) = 5.53775 6.74020 6.16834
#
# Compressibility (1/GPa) = 0.02866328
#
# Stress axis : x y z
#
# Youngs Moduli (GPa) = 101.98980 89.01509 30.52792
#
# Poissons Ratio (x) = 0.32063 0.20167
# Poissons Ratio (y) = 0.36737 0.07199
# Poissons Ratio (z) = 0.67375 0.20992
#
# Static dielectric constant tensor:
#      x y z
#    x 3.424110 0.000000 0.000000 
#    y 0.000000 3.420660 0.000000 
#    z 0.000000 0.000000 3.194170 
# 
# 
# High freq. dielectric constant tensor:
#      x y z
#    x 1.723430 0.000000 0.000000 
#    y 0.000000 1.723660 0.000000 
#    z 0.000000 0.000000 1.705770 
# 
# From -- ./inp_files/33610.got.cif
#   From: 2010.03.12/outbox.cif.g09.slc.cpg/sg64_17_cif.got.tgz:33610.got - 2010.04.10 20:19:32.
