data_PCOD8262954
_publ_section_title
;
Structure prediction by ZEFSAII (Michael W. Deem and Ramdas Pophale) SiO2 
 PCOD8262954
Probable space group: C M C A
;
_chemical_formula_sum "Si O2"
_cell_formula_units_Z 80
_cell_length_a 9.162536
_cell_length_b 19.363290
_cell_length_c 25.668962
_cell_angle_alpha 90.000000
_cell_angle_beta 90.000000
_cell_angle_gamma 90.000000
_cell_volume 4554.106168
_symmetry_space_group_name_H-M "C M C A"
_symmetry_group_IT_number 64
_symmetry_cell_setting 'orthorhombic'
loop_
_space_group_symop_operation_xyz
x,y,z
-x,1/2-y,1/2+z
x,-y,-z
-x,1/2+y,1/2-z
-x,-y,-z
x,1/2+y,1/2-z
-x,y,z
x,1/2-y,1/2+z
1/2+x,1/2+y,z
1/2-x,-y,1/2+z
1/2+x,1/2-y,-z
1/2-x,y,1/2-z
1/2-x,1/2-y,-z
1/2+x,y,1/2-z
1/2-x,1/2+y,z
1/2+x,-y,1/2+z
loop_
_atom_site_type_symbol
_atom_site_label
_atom_site_fract_x
_atom_site_fract_y
_atom_site_fract_z
Si Si1 0.830027 0.473910 0.623216
Si Si2 0.328004 0.372586 0.695873
Si Si3 0.169529 0.732457 0.107062
Si Si4 0.169125 0.865986 0.965809
Si Si5 0.828231 0.383074 0.418427
O O1 0.735602 0.441775 0.669814
O O2 0.803978 0.432855 0.569686
O O3 0.768499 0.551297 0.613819
O O4 0.000000 0.472174 0.639568
O O5 0.500000 0.381700 0.704082
O O6 0.250000 0.358460 0.750000
O O7 0.289011 0.306443 0.660282
O O8 0.252631 0.700624 0.058021
O O9 0.213023 0.813023 0.112393
O O10 0.000000 0.724200 0.094550
O O11 0.000000 0.846808 0.969673
O O12 0.235799 0.881052 0.022898
O O13 0.000000 0.393791 0.423311
#
# Coordination Sequence:
#
# PCOD8262954 Si02
#       5
#    16  16  16  16  16
#     4   9  17  30  49  72  97 125 158 193 228 271
#     4  10  20  35  53  69  87 116 155 196 239 285
#     4   9  18  31  47  69  96 125 157 193 233 275
#     4   9  16  27  46  71  98 131 165 189 217 267
#     4   9  16  28  47  71 100 130 157 188 227 271
#
# _framework density 17.566564
#
# number of rings (size 3 to 8) (size 9 to 14) (size 15 to 20)
#    0.000    2.800    0.000    1.800    0.000    3.200 
#    0.000    3.000    0.000    7.200    0.000    0.000 
#    0.000    0.000    0.000    0.000    0.000    0.000 
#
# Total GULP energy -495960.058557 kJ/mol
# GULP energy per Si atom -12399.001464 kJ/mol
# Density = 1.752658 g / cm^3
# Si number density = 17.566564 Si / 1000 Ang^3
#
#
#
# Elastic Constant Matrix: (Units=GPa)
#
#
# Indices 1 2 3 4 5 6 
#
# 1 47.7632 35.4042 38.4214 0.0000 0.0000 0.0000
# 2 35.4042 139.3586 53.8524 0.0000 0.0000 0.0000
# 3 38.4214 53.8524 108.8012 0.0000 0.0000 0.0000
# 4 0.0000 0.0000 0.0000 14.9258 0.0000 0.0000
# 5 0.0000 0.0000 0.0000 0.0000 22.1620 0.0000
# 6 0.0000 0.0000 0.0000 0.0000 0.0000 21.3978
#
#
#
# Elastic Compliance Matrix: (Units=1/GPa)
#
#
# Indices 1 2 3 4 5 6 
#
# 1 0.031434 -0.004571 -0.008838 0.000000 0.000000 0.000000
# 2 -0.004571 0.009537 -0.003107 0.000000 0.000000 0.000000
# 3 -0.008838 -0.003107 0.013850 0.000000 0.000000 0.000000
# 4 0.000000 0.000000 0.000000 0.066998 0.000000 0.000000
# 5 0.000000 0.000000 0.000000 0.000000 0.045122 0.000000
# 6 0.000000 0.000000 0.000000 0.000000 0.000000 0.046734
#
#
# Mechanical properties :
#
#
# Convention : Reuss Voigt Hill
#
# Bulk Modulus (GPa) = 45.89143 61.25321 53.57232
# Shear Modulus (GPa) = 19.68740 22.91344 21.30042
#
# Velocity S-wave (km/s) = 3.35136 3.61554 3.48595
# Velocity P-wave (km/s) = 6.41534 7.23701 6.83853
#
# Compressibility (1/GPa) = 0.02179056
#
# Stress axis : x y z
#
# Youngs Moduli (GPa) = 31.81260 104.85065 72.20316
#
# Poissons Ratio (x) = 0.47922 0.63815
# Poissons Ratio (y) = 0.14540 0.22431
# Poissons Ratio (z) = 0.28117 0.32573
#
# Static dielectric constant tensor:
#      x y z
#    x 3.088680 0.000000 0.000000 
#    y 0.000000 3.483840 0.000000 
#    z 0.000000 0.000000 3.193850 
# 
# 
# High freq. dielectric constant tensor:
#      x y z
#    x 1.657010 0.000000 0.000000 
#    y 0.000000 1.684970 0.000000 
#    z 0.000000 0.000000 1.667920 
# 
# From -- ./inp_files/43934.got.cif
#   From: 2010.03.12/outbox.cif.g09.slc.cpg/sg64_22_cif.got.tgz:43934.got - 2010.04.10 20:19:32.
