data_PCOD8262161
_publ_section_title
;
Structure prediction by ZEFSAII (Michael W. Deem and Ramdas Pophale) SiO2 
 PCOD8262161
Probable space group: C M C A
;
_chemical_formula_sum "Si O2"
_cell_formula_units_Z 96
_cell_length_a 21.544240
_cell_length_b 21.069952
_cell_length_c 11.740708
_cell_angle_alpha 90.000000
_cell_angle_beta 90.000000
_cell_angle_gamma 90.000000
_cell_volume 5329.531232
_symmetry_space_group_name_H-M "C M C A"
_symmetry_group_IT_number 64
_symmetry_cell_setting 'orthorhombic'
loop_
_space_group_symop_operation_xyz
x,y,z
-x,1/2-y,1/2+z
x,-y,-z
-x,1/2+y,1/2-z
-x,-y,-z
x,1/2+y,1/2-z
-x,y,z
x,1/2-y,1/2+z
1/2+x,1/2+y,z
1/2-x,-y,1/2+z
1/2+x,1/2-y,-z
1/2-x,y,1/2-z
1/2-x,1/2-y,-z
1/2+x,y,1/2-z
1/2-x,1/2+y,z
1/2+x,-y,1/2+z
loop_
_atom_site_type_symbol
_atom_site_label
_atom_site_fract_x
_atom_site_fract_y
_atom_site_fract_z
Si Si1 0.227214 0.674268 0.122863
Si Si2 0.837896 0.205266 0.969065
Si Si3 0.928692 0.523801 0.844692
Si Si4 0.114666 0.904938 0.555449
Si Si5 0.068350 0.292940 0.075671
Si Si6 0.070493 0.632942 0.690859
O O1 0.250000 0.665565 0.250000
O O2 0.192188 0.741885 0.113398
O O3 0.183433 0.615432 0.091156
O O4 0.284138 0.668524 0.035211
O O5 0.878780 0.154616 0.899903
O O6 0.881449 0.237638 0.063915
O O7 0.914353 0.448125 0.841960
O O8 0.917583 0.558529 0.723028
O O9 0.000000 0.535992 0.882414
O O10 0.883637 0.554274 0.939370
O O11 0.074054 0.842045 0.530382
O O12 0.080213 0.326945 0.194825
O O13 0.000000 0.262694 0.070576
O O14 0.000000 0.642221 0.644283
#
# Coordination Sequence:
#
# PCOD8262161 Si02
#       6
#    16  16  16  16  16  16
#     4  10  21  34  47  66  96 133 169 199 231 282
#     4  10  19  32  49  68  98 133 161 197 242 287
#     4   9  16  30  53  77  98 119 154 205 250 286
#     4   9  16  29  48  71  95 125 162 202 242 276
#     4   9  16  27  47  74  99 125 163 205 241 287
#     4   9  17  29  49  77 102 124 155 198 250 299
#
# _framework density 18.012841000000002
#
# number of rings (size 3 to 8) (size 9 to 14) (size 15 to 20)
#    0.000    2.667    0.000    4.500    0.000    1.333 
#    0.000    3.333    0.000    5.000    0.000    2.333 
#    0.000    0.000    0.000    0.000    0.000    0.000 
#
# Total GULP energy -594855.928182 kJ/mol
# GULP energy per Si atom -12392.831837 kJ/mol
# Density = 1.797184 g / cm^3
# Si number density = 18.012841 Si / 1000 Ang^3
#
#
#
# Elastic Constant Matrix: (Units=GPa)
#
#
# Indices 1 2 3 4 5 6 
#
# 1 113.8001 41.2221 50.4783 0.0000 0.0000 0.0000
# 2 41.2221 63.7418 30.1455 0.0000 0.0000 0.0000
# 3 50.4783 30.1455 67.2823 0.0000 0.0000 0.0000
# 4 0.0000 0.0000 0.0000 23.3189 0.0000 0.0000
# 5 0.0000 0.0000 0.0000 0.0000 31.2441 0.0000
# 6 0.0000 0.0000 0.0000 0.0000 0.0000 33.5584
#
#
#
# Elastic Compliance Matrix: (Units=1/GPa)
#
#
# Indices 1 2 3 4 5 6 
#
# 1 0.014485 -0.005365 -0.008464 0.000000 0.000000 0.000000
# 2 -0.005365 0.021893 -0.005784 0.000000 0.000000 0.000000
# 3 -0.008464 -0.005784 0.023804 0.000000 0.000000 0.000000
# 4 0.000000 0.000000 0.000000 0.042884 0.000000 0.000000
# 5 0.000000 0.000000 0.000000 0.000000 0.032006 0.000000
# 6 0.000000 0.000000 0.000000 0.000000 0.000000 0.029799
#
#
# Mechanical properties :
#
#
# Convention : Reuss Voigt Hill
#
# Bulk Modulus (GPa) = 47.71662 54.27954 50.99808
# Shear Modulus (GPa) = 23.68755 25.82284 24.75520
#
# Velocity S-wave (km/s) = 3.63028 3.79037 3.71119
# Velocity P-wave (km/s) = 6.64227 7.02532 6.83648
#
# Compressibility (1/GPa) = 0.02095706
#
# Stress axis : x y z
#
# Youngs Moduli (GPa) = 69.03803 45.67622 42.00951
#
# Poissons Ratio (x) = 0.24504 0.35555
# Poissons Ratio (y) = 0.37037 0.24300
# Poissons Ratio (z) = 0.58431 0.26421
#
# Static dielectric constant tensor:
#      x y z
#    x 3.404840 0.000000 0.000000 
#    y 0.000000 3.428670 0.000000 
#    z 0.000000 0.000000 3.025050 
# 
# 
# High freq. dielectric constant tensor:
#      x y z
#    x 1.701760 0.000000 0.000000 
#    y 0.000000 1.683160 0.000000 
#    z 0.000000 0.000000 1.665630 
# 
# From -- ./inp_files/17336.got.cif
#   From: 2010.03.12/outbox.cif.g09.slc.cpg/sg64_9_cif.got.tgz:17336.got - 2010.04.10 20:19:32.
