data_PCOD8262804
_publ_section_title
;
Structure prediction by ZEFSAII (Michael W. Deem and Ramdas Pophale) SiO2 
 PCOD8262804
Probable space group: C M C A
;
_chemical_formula_sum "Si O2"
_cell_formula_units_Z 72
_cell_length_a 29.415139
_cell_length_b 9.047478
_cell_length_c 12.223770
_cell_angle_alpha 90.000000
_cell_angle_beta 90.000000
_cell_angle_gamma 90.000000
_cell_volume 3253.146417
_symmetry_space_group_name_H-M "C M C A"
_symmetry_group_IT_number 64
_symmetry_cell_setting 'orthorhombic'
loop_
_space_group_symop_operation_xyz
x,y,z
-x,1/2-y,1/2+z
x,-y,-z
-x,1/2+y,1/2-z
-x,-y,-z
x,1/2+y,1/2-z
-x,y,z
x,1/2-y,1/2+z
1/2+x,1/2+y,z
1/2-x,-y,1/2+z
1/2+x,1/2-y,-z
1/2-x,y,1/2-z
1/2-x,1/2-y,-z
1/2+x,y,1/2-z
1/2-x,1/2+y,z
1/2+x,-y,1/2+z
loop_
_atom_site_type_symbol
_atom_site_label
_atom_site_fract_x
_atom_site_fract_y
_atom_site_fract_z
Si Si1 0.810889 0.619374 0.685928
Si Si2 0.950381 0.919724 0.616530
Si Si3 0.368873 0.093772 0.891303
Si Si4 0.602077 0.344653 0.035848
Si Si5 0.250000 0.372414 0.750000
O O1 0.826296 0.606863 0.812536
O O2 0.852530 0.623031 0.603977
O O3 0.782244 0.770305 0.674128
O O4 0.779259 0.475614 0.666816
O O5 0.934969 0.748701 0.604643
O O6 0.000000 0.924716 0.675400
O O7 0.954279 0.000000 0.500000
O O8 0.910105 0.011039 0.676810
O O9 0.384587 0.257077 0.925819
O O10 0.356093 0.000000 0.000000
O O11 0.579789 0.500000 0.000000
#
# Coordination Sequence:
#
# PCOD8262804 Si02
#       5
#    16  16  16  16   8
#     4  11  21  39  54  77 110 138 176 227 262 316
#     4   8  16  33  55  78 106 141 177 212 256 314
#     4   9  19  36  58  76 101 146 181 207 263 321
#     4  10  20  33  55  82 107 139 174 214 269 313
#     4  10  22  36  56  76 106 142 174 222 278 304
#
# _framework density 22.13242
#
# number of rings (size 3 to 8) (size 9 to 14) (size 15 to 20)
#    0.000    2.889    0.000    4.000    0.000    0.444 
#    0.000   23.333    0.000    8.000    0.000    0.000 
#    0.000    0.000    0.000    0.000    0.000    0.000 
#
# Total GULP energy -446104.411970 kJ/mol
# GULP energy per Si atom -12391.789221 kJ/mol
# Density = 2.208205 g / cm^3
# Si number density = 22.132420 Si / 1000 Ang^3
#
#
#
# Elastic Constant Matrix: (Units=GPa)
#
#
# Indices 1 2 3 4 5 6 
#
# 1 119.8544 46.8494 24.6929 0.0000 0.0000 0.0000
# 2 46.8494 177.2181 21.5143 0.0000 0.0000 0.0000
# 3 24.6929 21.5143 31.4512 0.0000 0.0000 0.0000
# 4 0.0000 0.0000 0.0000 12.8914 0.0000 0.0000
# 5 0.0000 0.0000 0.0000 0.0000 14.4674 0.0000
# 6 0.0000 0.0000 0.0000 0.0000 0.0000 27.1433
#
#
#
# Elastic Compliance Matrix: (Units=1/GPa)
#
#
# Indices 1 2 3 4 5 6 
#
# 1 0.010532 -0.001942 -0.006941 0.000000 0.000000 0.000000
# 2 -0.001942 0.006512 -0.002930 0.000000 0.000000 0.000000
# 3 -0.006941 -0.002930 0.039249 0.000000 0.000000 0.000000
# 4 0.000000 0.000000 0.000000 0.077571 0.000000 0.000000
# 5 0.000000 0.000000 0.000000 0.000000 0.069121 0.000000
# 6 0.000000 0.000000 0.000000 0.000000 0.000000 0.036841
#
#
# Mechanical properties :
#
#
# Convention : Reuss Voigt Hill
#
# Bulk Modulus (GPa) = 30.61099 57.18187 43.89643
# Shear Modulus (GPa) = 18.22544 26.59821 22.41183
#
# Velocity S-wave (km/s) = 2.87273 3.47043 3.18563
# Velocity P-wave (km/s) = 4.98642 6.47694 5.77993
#
# Compressibility (1/GPa) = 0.03266800
#
# Stress axis : x y z
#
# Youngs Moduli (GPa) = 94.94455 153.56803 25.47833
#
# Poissons Ratio (x) = 0.29819 0.17685
# Poissons Ratio (y) = 0.18436 0.07465
# Poissons Ratio (z) = 0.65901 0.44994
#
# Static dielectric constant tensor:
#      x y z
#    x 4.590080 0.000000 0.000000 
#    y 0.000000 4.306680 0.000000 
#    z 0.000000 0.000000 3.315390 
# 
# 
# High freq. dielectric constant tensor:
#      x y z
#    x 1.875860 0.000000 0.000000 
#    y 0.000000 1.892390 0.000000 
#    z 0.000000 0.000000 1.809630 
# 
# From -- ./inp_files/28270.got.cif
#   From: 2010.03.12/outbox.cif.g09.slc.cpg/sg64_15_cif.got.tgz:28270.got - 2010.04.10 20:19:32.
