data_PCOD8262783
_publ_section_title
;
Structure prediction by ZEFSAII (Michael W. Deem and Ramdas Pophale) SiO2 
 PCOD8262783
Probable space group: C M C A
;
_chemical_formula_sum "Si O2"
_cell_formula_units_Z 80
_cell_length_a 8.935682
_cell_length_b 18.607274
_cell_length_c 26.070960
_cell_angle_alpha 90.000000
_cell_angle_beta 90.000000
_cell_angle_gamma 90.000000
_cell_volume 4334.784193
_symmetry_space_group_name_H-M "C M C A"
_symmetry_group_IT_number 64
_symmetry_cell_setting 'orthorhombic'
loop_
_space_group_symop_operation_xyz
x,y,z
-x,1/2-y,1/2+z
x,-y,-z
-x,1/2+y,1/2-z
-x,-y,-z
x,1/2+y,1/2-z
-x,y,z
x,1/2-y,1/2+z
1/2+x,1/2+y,z
1/2-x,-y,1/2+z
1/2+x,1/2-y,-z
1/2-x,y,1/2-z
1/2-x,1/2-y,-z
1/2+x,y,1/2-z
1/2-x,1/2+y,z
1/2+x,-y,1/2+z
loop_
_atom_site_type_symbol
_atom_site_label
_atom_site_fract_x
_atom_site_fract_y
_atom_site_fract_z
Si Si1 0.674242 0.571966 0.589534
Si Si2 0.672975 0.920997 0.202017
Si Si3 0.826993 0.419005 0.588577
Si Si4 0.327039 0.925377 0.702559
Si Si5 0.676240 0.673067 0.496835
O O1 0.500000 0.550405 0.583694
O O2 0.701913 0.610913 0.644965
O O3 0.771524 0.500529 0.582770
O O4 0.725565 0.627943 0.546599
O O5 0.500000 0.924037 0.215013
O O6 0.750000 0.878037 0.250000
O O7 0.739894 0.000132 0.200028
O O8 0.808117 0.388845 0.646848
O O9 0.730084 0.366872 0.553885
O O10 0.000000 0.416659 0.571843
O O11 0.500000 0.938355 0.715180
O O12 0.250000 0.880732 0.750000
O O13 0.500000 0.682724 0.494489
O O14 0.750000 0.750000 0.500000
#
# Coordination Sequence:
#
# PCOD8262783 Si02
#       5
#    16  16  16  16  16
#     4   9  19  34  52  75 103 134 166 204 249 296
#     4   9  15  25  43  69 100 129 158 195 241 290
#     4  10  20  33  52  79 106 132 166 208 250 295
#     4   9  16  26  43  70 102 131 160 197 241 289
#     4  11  23  38  54  72  98 133 172 212 257 305
#
# _framework density 18.455359999999999
#
# number of rings (size 3 to 8) (size 9 to 14) (size 15 to 20)
#    0.000    2.400    0.000    4.200    0.000    7.200 
#    0.000    0.000    0.000    1.200    0.000    2.800 
#    0.000    0.000    0.000    0.000    0.000    0.000 
#
# Total GULP energy -495619.908866 kJ/mol
# GULP energy per Si atom -12390.497722 kJ/mol
# Density = 1.841335 g / cm^3
# Si number density = 18.455360 Si / 1000 Ang^3
#
#
#
# Elastic Constant Matrix: (Units=GPa)
#
#
# Indices 1 2 3 4 5 6 
#
# 1 98.7268 34.1401 63.0393 0.0000 0.0000 0.0000
# 2 34.1401 65.7575 52.3597 0.0000 0.0000 0.0000
# 3 63.0393 52.3597 166.3013 0.0000 0.0000 0.0000
# 4 0.0000 0.0000 0.0000 -0.1543 0.0000 0.0000
# 5 0.0000 0.0000 0.0000 0.0000 35.8723 0.0000
# 6 0.0000 0.0000 0.0000 0.0000 0.0000 21.4977
#
#
#
# Elastic Compliance Matrix: (Units=1/GPa)
#
#
# Indices 1 2 3 4 5 6 
#
# 1 0.014147 -0.004104 -0.004071 0.000000 0.000000 0.000000
# 2 -0.004104 0.021486 -0.005209 0.000000 0.000000 0.000000
# 3 -0.004071 -0.005209 0.009196 0.000000 0.000000 0.000000
# 4 0.000000 0.000000 0.000000 -6.481069 0.000000 0.000000
# 5 0.000000 0.000000 0.000000 0.000000 0.027877 0.000000
# 6 0.000000 0.000000 0.000000 0.000000 0.000000 0.046517
#
#
# Mechanical properties :
#
#
# Convention : Reuss Voigt Hill
#
# Bulk Modulus (GPa) = 55.36417 69.98487 62.67452
# Shear Modulus (GPa) = -0.79001 23.52625 11.36812
#
# Velocity S-wave (km/s) = -0.65498 3.57426 2.48459
# Velocity P-wave (km/s) = 5.43066 7.41871 6.50113
#
# Compressibility (1/GPa) = 0.01806222
#
# Stress axis : x y z
#
# Youngs Moduli (GPa) = 70.68490 46.54243 108.73857
#
# Poissons Ratio (x) = 0.19100 0.44265
# Poissons Ratio (y) = 0.29007 0.56644
# Poissons Ratio (z) = 0.28774 0.24245
#
# Static dielectric constant tensor:
#      x y z
#    x 3.546320 0.000000 0.000000 
#    y 0.000000 2.883730 0.000000 
#    z 0.000000 0.000000 4.798670 
# 
# 
# High freq. dielectric constant tensor:
#      x y z
#    x 1.732320 0.000000 0.000000 
#    y 0.000000 1.645120 0.000000 
#    z 0.000000 0.000000 1.751590 
# 
# From -- ./inp_files/47844.got.cif
#   From: 2010.03.12/outbox.cif.g09.slc.cpg/sg64_24_cif.got.tgz:47844.got - 2010.04.10 20:19:32.
