data_PCOD8262422
_publ_section_title
;
Structure prediction by ZEFSAII (Michael W. Deem and Ramdas Pophale) SiO2 
 PCOD8262422
Probable space group: C M C A
;
_chemical_formula_sum "Si O2"
_cell_formula_units_Z 104
_cell_length_a 23.463216
_cell_length_b 26.196526
_cell_length_c 8.949689
_cell_angle_alpha 90.000000
_cell_angle_beta 90.000000
_cell_angle_gamma 90.000000
_cell_volume 5500.968837
_symmetry_space_group_name_H-M "C M C A"
_symmetry_group_IT_number 64
_symmetry_cell_setting 'orthorhombic'
loop_
_space_group_symop_operation_xyz
x,y,z
-x,1/2-y,1/2+z
x,-y,-z
-x,1/2+y,1/2-z
-x,-y,-z
x,1/2+y,1/2-z
-x,y,z
x,1/2-y,1/2+z
1/2+x,1/2+y,z
1/2-x,-y,1/2+z
1/2+x,1/2-y,-z
1/2-x,y,1/2-z
1/2-x,1/2-y,-z
1/2+x,y,1/2-z
1/2-x,1/2+y,z
1/2+x,-y,1/2+z
loop_
_atom_site_type_symbol
_atom_site_label
_atom_site_fract_x
_atom_site_fract_y
_atom_site_fract_z
Si Si1 0.438223 0.278812 0.097862
Si Si2 0.250000 0.904638 0.250000
Si Si3 0.436123 0.387641 0.233243
Si Si4 0.657603 0.649680 0.552888
Si Si5 0.863866 0.740392 0.345032
Si Si6 0.153779 0.058164 0.958515
Si Si7 0.185017 0.864443 0.780753
O O1 0.500000 0.253072 0.128129
O O2 0.441045 0.337842 0.133703
O O3 0.384686 0.251920 0.177948
O O4 0.423442 0.273848 0.924278
O O5 0.286646 0.870968 0.136147
O O6 0.208950 0.938607 0.147736
O O7 0.500000 0.407352 0.275282
O O8 0.400881 0.373603 0.382002
O O9 0.402920 0.429031 0.134824
O O10 0.663980 0.710357 0.577130
O O11 0.653805 0.633937 0.379382
O O12 0.820338 0.692656 0.350196
O O13 0.158952 0.094252 0.104709
O O14 0.147026 0.000000 0.000000
O O15 0.250000 0.877920 0.750000
#
# Coordination Sequence:
#
# PCOD8262422 Si02
#       7
#    16   8  16  16  16  16  16
#     4  10  19  34  55  81 118 155 193 237 285 346
#     4  10  22  40  60  84 120 156 200 244 306 366
#     4   9  20  41  62  85 122 159 200 250 299 356
#     4  10  22  38  59  88 122 163 197 238 299 369
#     4  11  21  35  54  88 120 159 196 232 292 362
#     4  11  24  41  65  91 116 158 206 259 314 359
#     4  12  24  39  58  90 127 156 202 254 298 362
#
# _framework density 18.905759
#
# number of rings (size 3 to 8) (size 9 to 14) (size 15 to 20)
#    0.000    1.538    4.615    0.462    2.154    1.538 
#    0.000    3.077    0.000    0.923    0.000    0.000 
#    0.000    0.000    0.000    0.000    0.000    0.000 
#
# Total GULP energy -644524.516125 kJ/mol
# GULP energy per Si atom -12394.702233 kJ/mol
# Density = 1.886273 g / cm^3
# Si number density = 18.905759 Si / 1000 Ang^3
#
#
#
# Elastic Constant Matrix: (Units=GPa)
#
#
# Indices 1 2 3 4 5 6 
#
# 1 110.6693 42.7178 36.0081 0.0000 0.0000 0.0000
# 2 42.7178 110.2887 53.0174 0.0000 0.0000 0.0000
# 3 36.0081 53.0174 109.8686 0.0000 0.0000 0.0000
# 4 0.0000 0.0000 0.0000 21.2896 0.0000 0.0000
# 5 0.0000 0.0000 0.0000 0.0000 22.5600 0.0000
# 6 0.0000 0.0000 0.0000 0.0000 0.0000 17.4349
#
#
#
# Elastic Compliance Matrix: (Units=1/GPa)
#
#
# Indices 1 2 3 4 5 6 
#
# 1 0.010955 -0.003277 -0.002009 0.000000 0.000000 0.000000
# 2 -0.003277 0.012786 -0.005096 0.000000 0.000000 0.000000
# 3 -0.002009 -0.005096 0.012219 0.000000 0.000000 0.000000
# 4 0.000000 0.000000 0.000000 0.046971 0.000000 0.000000
# 5 0.000000 0.000000 0.000000 0.000000 0.044326 0.000000
# 6 0.000000 0.000000 0.000000 0.000000 0.000000 0.057356
#
#
# Mechanical properties :
#
#
# Convention : Reuss Voigt Hill
#
# Bulk Modulus (GPa) = 65.80710 66.03481 65.92095
# Shear Modulus (GPa) = 23.75943 25.52913 24.64428
#
# Velocity S-wave (km/s) = 3.54888 3.67868 3.61436
# Velocity P-wave (km/s) = 7.18862 7.28339 7.23616
#
# Compressibility (1/GPa) = 0.01519593
#
# Stress axis : x y z
#
# Youngs Moduli (GPa) = 91.28625 78.20922 81.83876
#
# Poissons Ratio (x) = 0.25632 0.16439
# Poissons Ratio (y) = 0.29918 0.41704
# Poissons Ratio (z) = 0.18337 0.39855
#
# Static dielectric constant tensor:
#      x y z
#    x 3.704030 0.000000 0.000000 
#    y 0.000000 3.213290 0.000000 
#    z 0.000000 0.000000 3.638080 
# 
# 
# High freq. dielectric constant tensor:
#      x y z
#    x 1.736750 0.000000 0.000000 
#    y 0.000000 1.711120 0.000000 
#    z 0.000000 0.000000 1.747990 
# 
# From -- ./inp_files/9664.got.cif
#   From: 2010.03.12/outbox.cif.g09.slc.cpg/sg64_5_cif.got.tgz:9664.got - 2010.04.10 20:19:32.
