data_PCOD8262327
_publ_section_title
;
Structure prediction by ZEFSAII (Michael W. Deem and Ramdas Pophale) SiO2 
 PCOD8262327
Probable space group: C M C A
;
_chemical_formula_sum "Si O2"
_cell_formula_units_Z 96
_cell_length_a 8.671442
_cell_length_b 23.114868
_cell_length_c 23.170622
_cell_angle_alpha 90.000000
_cell_angle_beta 90.000000
_cell_angle_gamma 90.000000
_cell_volume 4644.301799
_symmetry_space_group_name_H-M "C M C A"
_symmetry_group_IT_number 64
_symmetry_cell_setting 'orthorhombic'
loop_
_space_group_symop_operation_xyz
x,y,z
-x,1/2-y,1/2+z
x,-y,-z
-x,1/2+y,1/2-z
-x,-y,-z
x,1/2+y,1/2-z
-x,y,z
x,1/2-y,1/2+z
1/2+x,1/2+y,z
1/2-x,-y,1/2+z
1/2+x,1/2-y,-z
1/2-x,y,1/2-z
1/2-x,1/2-y,-z
1/2+x,y,1/2-z
1/2-x,1/2+y,z
1/2+x,-y,1/2+z
loop_
_atom_site_type_symbol
_atom_site_label
_atom_site_fract_x
_atom_site_fract_y
_atom_site_fract_z
Si Si1 0.181360 0.687913 0.313723
Si Si2 0.325885 0.895697 0.191384
Si Si3 0.319647 0.135253 0.976489
Si Si4 0.172544 0.475419 0.087192
Si Si5 0.319342 0.101940 0.101672
Si Si6 0.319299 0.794805 0.378784
O O1 0.250000 0.695321 0.250000
O O2 0.232426 0.627658 0.342956
O O3 0.237039 0.737187 0.357361
O O4 0.000000 0.690151 0.307288
O O5 0.500000 0.872253 0.199972
O O6 0.250000 0.916592 0.250000
O O7 0.325114 0.952207 0.152112
O O8 0.221077 0.845347 0.165500
O O9 0.500000 0.137570 0.959108
O O10 0.251108 0.072813 0.955019
O O11 0.235732 0.187704 0.943304
O O12 0.293376 0.141914 0.044872
O O13 0.252983 0.538425 0.087688
O O14 0.000000 0.485835 0.064196
O O15 0.500000 0.097626 0.116967
O O16 0.500000 0.782924 0.379897
#
# Coordination Sequence:
#
# PCOD8262327 Si02
#       6
#    16  16  16  16  16  16
#     4  12  26  44  62  82 112 150 193 236 284 339
#     4  10  19  33  54  82 114 148 189 236 288 340
#     4   9  18  35  61  91 120 150 186 231 282 334
#     4   8  16  32  56  85 117 153 190 230 278 333
#     4  10  20  37  61  88 118 153 192 231 276 332
#     4  11  22  38  60  85 113 146 188 237 289 340
#
# _framework density 20.670491999999999
#
# number of rings (size 3 to 8) (size 9 to 14) (size 15 to 20)
#    0.000    2.000    0.000    5.500    0.000    4.000 
#    0.000    5.833    0.000    5.000    0.000    0.000 
#    0.000    0.000    0.000    0.000    0.000    0.000 
#
# Total GULP energy -595094.510286 kJ/mol
# GULP energy per Si atom -12397.802298 kJ/mol
# Density = 2.062345 g / cm^3
# Si number density = 20.670492 Si / 1000 Ang^3
#
#
#
# Elastic Constant Matrix: (Units=GPa)
#
#
# Indices 1 2 3 4 5 6 
#
# 1 102.0529 23.5543 30.8709 0.0000 0.0000 0.0000
# 2 23.5543 80.4995 23.7103 0.0000 0.0000 0.0000
# 3 30.8709 23.7103 82.0512 0.0000 0.0000 0.0000
# 4 0.0000 0.0000 0.0000 17.8565 0.0000 0.0000
# 5 0.0000 0.0000 0.0000 0.0000 31.0022 0.0000
# 6 0.0000 0.0000 0.0000 0.0000 0.0000 21.5963
#
#
#
# Elastic Compliance Matrix: (Units=1/GPa)
#
#
# Indices 1 2 3 4 5 6 
#
# 1 0.011425 -0.002270 -0.003642 0.000000 0.000000 0.000000
# 2 -0.002270 0.014029 -0.003200 0.000000 0.000000 0.000000
# 3 -0.003642 -0.003200 0.014483 0.000000 0.000000 0.000000
# 4 0.000000 0.000000 0.000000 0.056002 0.000000 0.000000
# 5 0.000000 0.000000 0.000000 0.000000 0.032256 0.000000
# 6 0.000000 0.000000 0.000000 0.000000 0.000000 0.046304
#
#
# Mechanical properties :
#
#
# Convention : Reuss Voigt Hill
#
# Bulk Modulus (GPa) = 46.05823 46.76383 46.41103
# Shear Modulus (GPa) = 25.00496 26.52221 25.76358
#
# Velocity S-wave (km/s) = 3.48184 3.58592 3.53426
# Velocity P-wave (km/s) = 6.20441 6.31012 6.25749
#
# Compressibility (1/GPa) = 0.02171165
#
# Stress axis : x y z
#
# Youngs Moduli (GPa) = 87.53040 71.28013 69.04827
#
# Poissons Ratio (x) = 0.16181 0.25150
# Poissons Ratio (y) = 0.19870 0.22095
# Poissons Ratio (z) = 0.31882 0.22809
#
# Static dielectric constant tensor:
#      x y z
#    x 3.549520 0.000000 0.000000 
#    y 0.000000 3.804600 0.000000 
#    z 0.000000 0.000000 3.785590 
# 
# 
# High freq. dielectric constant tensor:
#      x y z
#    x 1.782640 0.000000 0.000000 
#    y 0.000000 1.807460 0.000000 
#    z 0.000000 0.000000 1.817390 
# 
# From -- ./inp_files/43048.got.cif
#   From: 2010.03.12/outbox.cif.g09.slc.cpg/sg64_22_cif.got.tgz:43048.got - 2010.04.10 20:19:32.
