data_PCOD8262975
_publ_section_title
;
Structure prediction by ZEFSAII (Michael W. Deem and Ramdas Pophale) SiO2 
 PCOD8262975
Probable space group: C M C A
;
_chemical_formula_sum "Si O2"
_cell_formula_units_Z 96
_cell_length_a 13.789451
_cell_length_b 10.501098
_cell_length_c 34.573723
_cell_angle_alpha 90.000000
_cell_angle_beta 90.000000
_cell_angle_gamma 90.000000
_cell_volume 5006.426396
_symmetry_space_group_name_H-M "C M C A"
_symmetry_group_IT_number 64
_symmetry_cell_setting 'orthorhombic'
loop_
_space_group_symop_operation_xyz
x,y,z
-x,1/2-y,1/2+z
x,-y,-z
-x,1/2+y,1/2-z
-x,-y,-z
x,1/2+y,1/2-z
-x,y,z
x,1/2-y,1/2+z
1/2+x,1/2+y,z
1/2-x,-y,1/2+z
1/2+x,1/2-y,-z
1/2-x,y,1/2-z
1/2-x,1/2-y,-z
1/2+x,y,1/2-z
1/2-x,1/2+y,z
1/2+x,-y,1/2+z
loop_
_atom_site_type_symbol
_atom_site_label
_atom_site_fract_x
_atom_site_fract_y
_atom_site_fract_z
Si Si1 0.303006 0.871512 0.829881
Si Si2 0.000000 0.896734 0.268252
Si Si3 0.709300 0.367148 0.293328
Si Si4 0.194630 0.398860 0.032065
Si Si5 0.109491 0.784601 0.024732
Si Si6 0.109686 0.573206 0.090579
Si Si7 0.500000 0.667835 0.286921
O O1 0.236770 0.750039 0.820769
O O2 0.315749 0.888944 0.875627
O O3 0.407356 0.841827 0.813227
O O4 0.254498 0.998011 0.810873
O O5 0.906805 0.866187 0.294059
O O6 0.000000 0.807882 0.230998
O O7 0.000000 0.048002 0.256541
O O8 0.750000 0.348794 0.250000
O O9 0.311797 0.391222 0.036698
O O10 0.147607 0.439818 0.072773
O O11 0.165488 0.500000 0.000000
O O12 0.145023 0.267890 0.017243
O O13 0.112829 0.679437 0.057887
O O14 0.000000 0.840479 0.021090
O O15 0.000000 0.554539 0.106168
#
# Coordination Sequence:
#
# PCOD8262975 Si02
#       7
#    16   8  16  16  16  16   8
#     4  11  23  37  58  86 113 149 185 234 285 331
#     4  10  22  36  60  78 112 138 186 234 274 337
#     4  11  23  39  59  83 110 146 188 232 280 335
#     4   9  18  33  55  81 106 141 182 225 273 326
#     4   9  18  33  55  80 108 142 183 224 271 330
#     4  10  20  35  55  78 110 145 184 227 272 332
#     4  10  20  38  58  86 109 146 186 231 285 329
#
# _framework density 19.175353999999999
#
# number of rings (size 3 to 8) (size 9 to 14) (size 15 to 20)
#    0.000    2.000    2.500    1.000    4.667    2.333 
#    0.000    0.000    1.833    0.000    0.000    0.000 
#    0.000    0.000    0.000    0.000    0.000    0.000 
#
# Total GULP energy -594944.030432 kJ/mol
# GULP energy per Si atom -12394.667301 kJ/mol
# Density = 1.913171 g / cm^3
# Si number density = 19.175354 Si / 1000 Ang^3
#
#
#
# Elastic Constant Matrix: (Units=GPa)
#
#
# Indices 1 2 3 4 5 6 
#
# 1 85.7245 10.8933 13.1248 0.0000 0.0000 0.0000
# 2 10.8933 57.8549 8.9133 0.0000 0.0000 0.0000
# 3 13.1248 8.9133 59.7465 0.0000 0.0000 0.0000
# 4 0.0000 0.0000 0.0000 17.1282 0.0000 0.0000
# 5 0.0000 0.0000 0.0000 0.0000 22.5718 0.0000
# 6 0.0000 0.0000 0.0000 0.0000 0.0000 60.4850
#
#
#
# Elastic Compliance Matrix: (Units=1/GPa)
#
#
# Indices 1 2 3 4 5 6 
#
# 1 0.012281 -0.001941 -0.002408 0.000000 0.000000 0.000000
# 2 -0.001941 0.017998 -0.002259 0.000000 0.000000 0.000000
# 3 -0.002408 -0.002259 0.017603 0.000000 0.000000 0.000000
# 4 0.000000 0.000000 0.000000 0.058383 0.000000 0.000000
# 5 0.000000 0.000000 0.000000 0.000000 0.044303 0.000000
# 6 0.000000 0.000000 0.000000 0.000000 0.000000 0.016533
#
#
# Mechanical properties :
#
#
# Convention : Reuss Voigt Hill
#
# Bulk Modulus (GPa) = 28.84664 29.90983 29.37824
# Shear Modulus (GPa) = 26.05889 31.39661 28.72775
#
# Velocity S-wave (km/s) = 3.69043 4.05080 3.87481
# Velocity P-wave (km/s) = 5.76501 6.12458 5.94751
#
# Compressibility (1/GPa) = 0.03466608
#
# Stress axis : x y z
#
# Youngs Moduli (GPa) = 81.42884 55.56135 56.80737
#
# Poissons Ratio (x) = 0.10786 0.13680
# Poissons Ratio (y) = 0.15808 0.12831
# Poissons Ratio (z) = 0.19609 0.12549
#
# Static dielectric constant tensor:
#      x y z
#    x 3.460640 0.000000 0.000000 
#    y 0.000000 3.653770 0.000000 
#    z 0.000000 0.000000 3.386380 
# 
# 
# High freq. dielectric constant tensor:
#      x y z
#    x 1.752500 0.000000 0.000000 
#    y 0.000000 1.738990 0.000000 
#    z 0.000000 0.000000 1.727200 
# 
# From -- ./inp_files/53195.got.cif
#   From: 2010.03.12/outbox.cif.g09.slc.cpg/sg64_27_cif.got.tgz:53195.got - 2010.04.10 20:19:32.
