data_PCOD8262188
_publ_section_title
;
Structure prediction by ZEFSAII (Michael W. Deem and Ramdas Pophale) SiO2 
 PCOD8262188
Probable space group: C M C A
;
_chemical_formula_sum "Si O2"
_cell_formula_units_Z 80
_cell_length_a 16.788005
_cell_length_b 28.465942
_cell_length_c 8.829884
_cell_angle_alpha 90.000000
_cell_angle_beta 90.000000
_cell_angle_gamma 90.000000
_cell_volume 4219.681271
_symmetry_space_group_name_H-M "C M C A"
_symmetry_group_IT_number 64
_symmetry_cell_setting 'orthorhombic'
loop_
_space_group_symop_operation_xyz
x,y,z
-x,1/2-y,1/2+z
x,-y,-z
-x,1/2+y,1/2-z
-x,-y,-z
x,1/2+y,1/2-z
-x,y,z
x,1/2-y,1/2+z
1/2+x,1/2+y,z
1/2-x,-y,1/2+z
1/2+x,1/2-y,-z
1/2-x,y,1/2-z
1/2-x,1/2-y,-z
1/2+x,y,1/2-z
1/2-x,1/2+y,z
1/2+x,-y,1/2+z
loop_
_atom_site_type_symbol
_atom_site_label
_atom_site_fract_x
_atom_site_fract_y
_atom_site_fract_z
Si Si1 0.088965 0.705123 0.474953
Si Si2 0.664985 0.220329 0.174532
Si Si3 0.091154 0.597978 0.430875
Si Si4 0.825262 0.117516 0.359087
Si Si5 0.259852 0.550126 0.929654
O O1 0.096160 0.719608 0.300303
O O2 0.152621 0.735241 0.567542
O O3 0.108949 0.650211 0.493801
O O4 0.000000 0.716464 0.530378
O O5 0.750000 0.226639 0.250000
O O6 0.657922 0.170722 0.083648
O O7 0.104506 0.596569 0.247866
O O8 0.150184 0.563779 0.522395
O O9 0.000000 0.582793 0.462773
O O10 0.750000 0.118992 0.250000
O O11 0.806903 0.085708 0.504759
O O12 0.250000 0.548694 0.750000
O O13 0.239688 0.500000 0.000000
#
# Coordination Sequence:
#
# PCOD8262188 Si02
#       5
#    16  16  16  16  16
#     4  10  20  33  50  76 111 145 176 215 264 309
#     4  10  19  32  51  75 104 142 185 220 254 305
#     4   9  19  36  56  79 110 145 180 221 266 312
#     4   8  17  35  55  77 104 140 181 220 265 314
#     4  11  22  38  60  82 106 137 175 220 272 327
#
# _framework density 18.958777999999999
#
# number of rings (size 3 to 8) (size 9 to 14) (size 15 to 20)
#    0.000    2.400    0.000    4.200    0.000    3.600 
#    0.000    1.000    0.000    2.400    0.000    0.000 
#    0.000    0.000    0.000    0.000    0.000    0.000 
#
# Total GULP energy -495843.981022 kJ/mol
# GULP energy per Si atom -12396.099526 kJ/mol
# Density = 1.891563 g / cm^3
# Si number density = 18.958778 Si / 1000 Ang^3
#
#
#
# Elastic Constant Matrix: (Units=GPa)
#
#
# Indices 1 2 3 4 5 6 
#
# 1 78.6389 38.4746 33.5695 0.0000 0.0000 0.0000
# 2 38.4746 99.2343 60.0875 0.0000 0.0000 0.0000
# 3 33.5695 60.0875 106.5421 0.0000 0.0000 0.0000
# 4 0.0000 0.0000 0.0000 32.9457 0.0000 0.0000
# 5 0.0000 0.0000 0.0000 0.0000 24.3789 0.0000
# 6 0.0000 0.0000 0.0000 0.0000 0.0000 19.9232
#
#
#
# Elastic Compliance Matrix: (Units=1/GPa)
#
#
# Indices 1 2 3 4 5 6 
#
# 1 0.016073 -0.004807 -0.002353 0.000000 0.000000 0.000000
# 2 -0.004807 0.016741 -0.007927 0.000000 0.000000 0.000000
# 3 -0.002353 -0.007927 0.014598 0.000000 0.000000 0.000000
# 4 0.000000 0.000000 0.000000 0.030353 0.000000 0.000000
# 5 0.000000 0.000000 0.000000 0.000000 0.041019 0.000000
# 6 0.000000 0.000000 0.000000 0.000000 0.000000 0.050193
#
#
# Mechanical properties :
#
#
# Convention : Reuss Voigt Hill
#
# Bulk Modulus (GPa) = 58.01278 60.96427 59.48852
# Shear Modulus (GPa) = 24.40270 25.60182 25.00226
#
# Velocity S-wave (km/s) = 3.59157 3.67876 3.63543
# Velocity P-wave (km/s) = 6.91846 7.09016 7.00484
#
# Compressibility (1/GPa) = 0.01723758
#
# Stress axis : x y z
#
# Youngs Moduli (GPa) = 62.21762 59.73532 68.50243
#
# Poissons Ratio (x) = 0.28712 0.16121
# Poissons Ratio (y) = 0.29905 0.54301
# Poissons Ratio (z) = 0.14642 0.47351
#
# Static dielectric constant tensor:
#      x y z
#    x 3.683040 0.000000 0.000000 
#    y 0.000000 3.572650 0.000000 
#    z 0.000000 0.000000 3.374350 
# 
# 
# High freq. dielectric constant tensor:
#      x y z
#    x 1.733310 0.000000 0.000000 
#    y 0.000000 1.739310 0.000000 
#    z 0.000000 0.000000 1.715060 
# 
# From -- ./inp_files/7025.got.cif
#   From: 2010.03.12/outbox.cif.g09.slc.cpg/sg64_4_cif.got.tgz:7025.got - 2010.04.10 20:19:32.
