data_PCOD8262526
_publ_section_title
;
Structure prediction by ZEFSAII (Michael W. Deem and Ramdas Pophale) SiO2 
 PCOD8262526
Probable space group: C M C A
;
_chemical_formula_sum "Si O2"
_cell_formula_units_Z 120
_cell_length_a 21.984494
_cell_length_b 12.346591
_cell_length_c 24.816155
_cell_angle_alpha 90.000000
_cell_angle_beta 90.000000
_cell_angle_gamma 90.000000
_cell_volume 6735.937192
_symmetry_space_group_name_H-M "C M C A"
_symmetry_group_IT_number 64
_symmetry_cell_setting 'orthorhombic'
loop_
_space_group_symop_operation_xyz
x,y,z
-x,1/2-y,1/2+z
x,-y,-z
-x,1/2+y,1/2-z
-x,-y,-z
x,1/2+y,1/2-z
-x,y,z
x,1/2-y,1/2+z
1/2+x,1/2+y,z
1/2-x,-y,1/2+z
1/2+x,1/2-y,-z
1/2-x,y,1/2-z
1/2-x,1/2-y,-z
1/2+x,y,1/2-z
1/2-x,1/2+y,z
1/2+x,-y,1/2+z
loop_
_atom_site_type_symbol
_atom_site_label
_atom_site_fract_x
_atom_site_fract_y
_atom_site_fract_z
Si Si1 0.568790 0.463264 0.130173
Si Si2 0.673301 0.743141 0.640095
Si Si3 0.666715 0.453441 0.793310
Si Si4 0.627335 0.172303 0.545660
Si Si5 0.284885 0.351508 0.582757
Si Si6 0.931230 0.183294 0.068009
Si Si7 0.800012 0.505526 0.822923
Si Si8 0.215371 0.500000 0.500000
O O1 0.500000 0.452742 0.150918
O O2 0.610030 0.480475 0.182790
O O3 0.587723 0.354585 0.098603
O O4 0.576980 0.560803 0.087967
O O5 0.733449 0.771760 0.606265
O O6 0.615157 0.740990 0.600666
O O7 0.677491 0.625996 0.666136
O O8 0.664285 0.828333 0.688568
O O9 0.727619 0.510338 0.814828
O O10 0.664728 0.458310 0.728836
O O11 0.662168 0.283933 0.554947
O O12 0.583020 0.186561 0.495093
O O13 0.674893 0.075311 0.537899
O O14 0.315789 0.425530 0.628317
O O15 0.256702 0.427279 0.537651
O O16 0.000000 0.224754 0.077612
#
# Coordination Sequence:
#
# PCOD8262526 Si02
#       8
#    16  16  16  16  16  16  16   8
#     4  10  19  35  58  83 110 140 187 241 280 316
#     4  10  19  37  55  78 112 143 179 226 274 335
#     4   9  20  36  55  85 106 139 183 229 275 330
#     4  12  20  33  54  83 117 142 182 233 277 333
#     4  11  23  32  53  85 115 146 183 220 282 336
#     4  10  20  34  53  78 107 148 187 223 273 329
#     4  10  21  36  57  81 115 146 177 222 284 339
#     4  12  20  34  51  84 117 150 182 232 280 328
#
# _framework density 17.814892
#
# number of rings (size 3 to 8) (size 9 to 14) (size 15 to 20)
#    0.000    1.600    2.667    4.000    1.867    6.400 
#    0.000    0.667    0.000    7.200    0.000    0.000 
#    0.000    0.000    0.000    0.000    0.000    0.000 
#
# Total GULP energy -744248.433729 kJ/mol
# GULP energy per Si atom -12404.140562 kJ/mol
# Density = 1.777434 g / cm^3
# Si number density = 17.814892 Si / 1000 Ang^3
#
#
#
# Elastic Constant Matrix: (Units=GPa)
#
#
# Indices 1 2 3 4 5 6 
#
# 1 96.3245 37.2561 53.3458 0.0000 0.0000 0.0000
# 2 37.2561 76.4057 29.1516 0.0000 0.0000 0.0000
# 3 53.3458 29.1516 72.8765 0.0000 0.0000 0.0000
# 4 0.0000 0.0000 0.0000 23.6483 0.0000 0.0000
# 5 0.0000 0.0000 0.0000 0.0000 29.0288 0.0000
# 6 0.0000 0.0000 0.0000 0.0000 0.0000 16.3631
#
#
#
# Elastic Compliance Matrix: (Units=1/GPa)
#
#
# Indices 1 2 3 4 5 6 
#
# 1 0.018740 -0.004607 -0.011875 0.000000 0.000000 0.000000
# 2 -0.004607 0.016578 -0.003259 0.000000 0.000000 0.000000
# 3 -0.011875 -0.003259 0.023718 0.000000 0.000000 0.000000
# 4 0.000000 0.000000 0.000000 0.042286 0.000000 0.000000
# 5 0.000000 0.000000 0.000000 0.000000 0.034449 0.000000
# 6 0.000000 0.000000 0.000000 0.000000 0.000000 0.061113
#
#
# Mechanical properties :
#
#
# Convention : Reuss Voigt Hill
#
# Bulk Modulus (GPa) = 51.14051 53.90154 52.52102
# Shear Modulus (GPa) = 20.58601 22.19825 21.39213
#
# Velocity S-wave (km/s) = 3.40303 3.53377 3.46902
# Velocity P-wave (km/s) = 6.64904 6.85363 6.75211
#
# Compressibility (1/GPa) = 0.01955397
#
# Stress axis : x y z
#
# Youngs Moduli (GPa) = 53.36214 60.32121 42.16235
#
# Poissons Ratio (x) = 0.27790 0.50067
# Poissons Ratio (y) = 0.24584 0.13741
# Poissons Ratio (z) = 0.63366 0.19659
#
# Static dielectric constant tensor:
#      x y z
#    x 3.329710 0.000000 0.000000 
#    y 0.000000 3.159930 0.000000 
#    z 0.000000 0.000000 3.364820 
# 
# 
# High freq. dielectric constant tensor:
#      x y z
#    x 1.678720 0.000000 0.000000 
#    y 0.000000 1.675600 0.000000 
#    z 0.000000 0.000000 1.693850 
# 
# From -- ./inp_files/41580.got.cif
#   From: 2010.03.12/outbox.cif.g09.slc.cpg/sg64_21_cif.got.tgz:41580.got - 2010.04.10 20:19:32.
