data_PCOD8262481
_publ_section_title
;
Structure prediction by ZEFSAII (Michael W. Deem and Ramdas Pophale) SiO2 
 PCOD8262481
Probable space group: C M C A
;
_chemical_formula_sum "Si O2"
_cell_formula_units_Z 96
_cell_length_a 19.027827
_cell_length_b 14.239843
_cell_length_c 16.735816
_cell_angle_alpha 90.000000
_cell_angle_beta 90.000000
_cell_angle_gamma 90.000000
_cell_volume 4534.624056
_symmetry_space_group_name_H-M "C M C A"
_symmetry_group_IT_number 64
_symmetry_cell_setting 'orthorhombic'
loop_
_space_group_symop_operation_xyz
x,y,z
-x,1/2-y,1/2+z
x,-y,-z
-x,1/2+y,1/2-z
-x,-y,-z
x,1/2+y,1/2-z
-x,y,z
x,1/2-y,1/2+z
1/2+x,1/2+y,z
1/2-x,-y,1/2+z
1/2+x,1/2-y,-z
1/2-x,y,1/2-z
1/2-x,1/2-y,-z
1/2+x,y,1/2-z
1/2-x,1/2+y,z
1/2+x,-y,1/2+z
loop_
_atom_site_type_symbol
_atom_site_label
_atom_site_fract_x
_atom_site_fract_y
_atom_site_fract_z
Si Si1 0.081135 0.393554 0.158839
Si Si2 0.582036 0.944759 0.727898
Si Si3 0.695639 0.106160 0.974046
Si Si4 0.669246 0.211831 0.562791
Si Si5 0.079459 0.247709 0.790438
Si Si6 0.419302 0.407898 0.947274
O O1 0.112270 0.466717 0.224040
O O2 0.125442 0.397345 0.078481
O O3 0.088930 0.292760 0.201037
O O4 0.000000 0.416003 0.136449
O O5 0.500000 0.960919 0.714024
O O6 0.598243 0.856613 0.784389
O O7 0.614663 0.931766 0.639434
O O8 0.760384 0.150724 0.925097
O O9 0.683582 0.176871 0.048935
O O10 0.714614 0.000000 0.000000
O O11 0.627783 0.197077 0.644845
O O12 0.625200 0.175567 0.486653
O O13 0.000000 0.231113 0.819996
O O14 0.500000 0.373375 0.939971
O O15 0.413049 0.500000 0.000000
#
# Coordination Sequence:
#
# PCOD8262481 Si02
#       6
#    16  16  16  16  16  16
#     4  10  21  38  60  86 115 148 189 236 286 341
#     4   9  18  33  56  88 119 147 186 236 286 337
#     4  11  25  42  59  83 116 154 194 238 289 346
#     4  11  23  39  59  84 117 155 195 237 286 346
#     4  10  20  36  60  88 116 147 188 237 286 339
#     4  10  19  34  60  91 122 156 194 238 286 336
#
# _framework density 21.170442000000001
#
# number of rings (size 3 to 8) (size 9 to 14) (size 15 to 20)
#    0.000    1.833    0.000    4.000    0.000    6.333 
#    0.000    0.000    0.000    8.000    0.000    0.000 
#    0.000    0.000    0.000    0.000    0.000    0.000 
#
# Total GULP energy -595212.104919 kJ/mol
# GULP energy per Si atom -12400.252186 kJ/mol
# Density = 2.112226 g / cm^3
# Si number density = 21.170442 Si / 1000 Ang^3
#
#
#
# Elastic Constant Matrix: (Units=GPa)
#
#
# Indices 1 2 3 4 5 6 
#
# 1 85.5758 27.6115 43.2250 0.0000 0.0000 0.0000
# 2 27.6115 108.3371 13.1276 0.0000 0.0000 0.0000
# 3 43.2250 13.1276 83.6150 0.0000 0.0000 0.0000
# 4 0.0000 0.0000 0.0000 -1.6519 0.0000 0.0000
# 5 0.0000 0.0000 0.0000 0.0000 18.2572 0.0000
# 6 0.0000 0.0000 0.0000 0.0000 0.0000 20.7247
#
#
#
# Elastic Compliance Matrix: (Units=1/GPa)
#
#
# Indices 1 2 3 4 5 6 
#
# 1 0.016906 -0.003313 -0.008220 0.000000 0.000000 0.000000
# 2 -0.003313 0.010059 0.000133 0.000000 0.000000 0.000000
# 3 -0.008220 0.000133 0.016188 0.000000 0.000000 0.000000
# 4 0.000000 0.000000 0.000000 -0.605350 0.000000 0.000000
# 5 0.000000 0.000000 0.000000 0.000000 0.054773 0.000000
# 6 0.000000 0.000000 0.000000 0.000000 0.000000 0.048252
#
#
# Mechanical properties :
#
#
# Convention : Reuss Voigt Hill
#
# Bulk Modulus (GPa) = 49.12919 49.49512 49.31215
# Shear Modulus (GPa) = -11.63900 20.37025 4.36562
#
# Velocity S-wave (km/s) = -2.34727 3.10530 1.43757
# Velocity P-wave (km/s) = 3.98881 6.02390 5.10872
#
# Compressibility (1/GPa) = 0.02035450
#
# Stress axis : x y z
#
# Youngs Moduli (GPa) = 59.14973 99.41728 61.77491
#
# Poissons Ratio (x) = 0.32935 0.50777
# Poissons Ratio (y) = 0.19595 -0.00824
# Poissons Ratio (z) = 0.48619 -0.01326
#
# Static dielectric constant tensor:
#      x y z
#    x 3.680060 0.000000 0.000000 
#    y 0.000000 3.979040 0.000000 
#    z 0.000000 0.000000 3.323900 
# 
# 
# High freq. dielectric constant tensor:
#      x y z
#    x 1.807410 0.000000 0.000000 
#    y 0.000000 1.845170 0.000000 
#    z 0.000000 0.000000 1.823000 
# 
# From -- ./inp_files/26315.got.cif
#   From: 2010.03.12/outbox.cif.g09.slc.cpg/sg64_14_cif.got.tgz:26315.got - 2010.04.10 20:19:32.
