data_PCOD8262385
_publ_section_title
;
Structure prediction by ZEFSAII (Michael W. Deem and Ramdas Pophale) SiO2 
 PCOD8262385
Probable space group: C M C A
;
_chemical_formula_sum "Si O2"
_cell_formula_units_Z 104
_cell_length_a 17.586285
_cell_length_b 15.542173
_cell_length_c 18.167005
_cell_angle_alpha 90.000000
_cell_angle_beta 90.000000
_cell_angle_gamma 90.000000
_cell_volume 4965.570834
_symmetry_space_group_name_H-M "C M C A"
_symmetry_group_IT_number 64
_symmetry_cell_setting 'orthorhombic'
loop_
_space_group_symop_operation_xyz
x,y,z
-x,1/2-y,1/2+z
x,-y,-z
-x,1/2+y,1/2-z
-x,-y,-z
x,1/2+y,1/2-z
-x,y,z
x,1/2-y,1/2+z
1/2+x,1/2+y,z
1/2-x,-y,1/2+z
1/2+x,1/2-y,-z
1/2-x,y,1/2-z
1/2-x,1/2-y,-z
1/2+x,y,1/2-z
1/2-x,1/2+y,z
1/2+x,-y,1/2+z
loop_
_atom_site_type_symbol
_atom_site_label
_atom_site_fract_x
_atom_site_fract_y
_atom_site_fract_z
Si Si1 0.586552 0.600202 0.588809
Si Si2 0.408875 0.074550 0.306330
Si Si3 0.588195 0.390039 0.242057
Si Si4 0.087351 0.754010 0.526686
Si Si5 0.800170 0.500000 0.000000
Si Si6 0.089586 0.711493 0.187235
Si Si7 0.654819 0.412675 0.965988
O O1 0.500000 0.566854 0.577361
O O2 0.602740 0.622872 0.672219
O O3 0.603030 0.684953 0.541895
O O4 0.645264 0.526478 0.566800
O O5 0.500000 0.077017 0.310424
O O6 0.378002 0.137617 0.241376
O O7 0.374790 0.105235 0.383820
O O8 0.376380 0.979158 0.288237
O O9 0.500000 0.394635 0.223102
O O10 0.625131 0.305836 0.204642
O O11 0.109296 0.805858 0.601494
O O12 0.135524 0.667338 0.518196
O O13 0.000000 0.725005 0.530322
O O14 0.746684 0.576856 0.031422
O O15 0.000000 0.714465 0.201209
O O16 0.616902 0.500000 0.000000
#
# Coordination Sequence:
#
# PCOD8262385 Si02
#       7
#    16  16  16  16   8  16  16
#     4  10  21  39  65  88 112 154 208 261 305 348
#     4  10  19  33  58  88 121 158 198 247 298 356
#     4   9  18  32  56  87 117 148 191 254 307 345
#     4  10  20  35  63  94 119 156 205 253 298 353
#     4  10  25  40  57  86 120 162 202 250 295 366
#     4   9  18  32  53  89 124 147 193 255 303 345
#     4  10  22  38  57  86 124 165 198 236 305 363
#
# _framework density 20.944217999999999
#
# number of rings (size 3 to 8) (size 9 to 14) (size 15 to 20)
#    0.462    1.846    0.000    2.538    2.154    5.538 
#    0.000    0.769    0.000    1.846    0.000    0.000 
#    0.000    0.000    0.000    0.000    0.000    0.000 
#
# Total GULP energy -644578.653794 kJ/mol
# GULP energy per Si atom -12395.743342 kJ/mol
# Density = 2.089655 g / cm^3
# Si number density = 20.944218 Si / 1000 Ang^3
#
#
#
# Elastic Constant Matrix: (Units=GPa)
#
#
# Indices 1 2 3 4 5 6 
#
# 1 55.5476 12.1915 15.6065 0.0000 0.0000 0.0000
# 2 12.1915 68.9282 28.6998 0.0000 0.0000 0.0000
# 3 15.6065 28.6998 105.6871 0.0000 0.0000 0.0000
# 4 0.0000 0.0000 0.0000 41.8930 0.0000 0.0000
# 5 0.0000 0.0000 0.0000 0.0000 -0.7192 0.0000
# 6 0.0000 0.0000 0.0000 0.0000 0.0000 25.1088
#
#
#
# Elastic Compliance Matrix: (Units=1/GPa)
#
#
# Indices 1 2 3 4 5 6 
#
# 1 0.019154 -0.002492 -0.002152 0.000000 0.000000 0.000000
# 2 -0.002492 0.016682 -0.004162 0.000000 0.000000 0.000000
# 3 -0.002152 -0.004162 0.010910 0.000000 0.000000 0.000000
# 4 0.000000 0.000000 0.000000 0.023870 0.000000 0.000000
# 5 0.000000 0.000000 0.000000 0.000000 -1.390468 0.000000
# 6 0.000000 0.000000 0.000000 0.000000 0.000000 0.039827
#
#
# Mechanical properties :
#
#
# Convention : Reuss Voigt Hill
#
# Bulk Modulus (GPa) = 34.32393 38.12872 36.22633
# Shear Modulus (GPa) = -3.99137 24.83420 10.42142
#
# Velocity S-wave (km/s) = -1.38197 3.44718 2.23307
# Velocity P-wave (km/s) = 3.72523 5.83853 4.89724
#
# Compressibility (1/GPa) = 0.02913420
#
# Stress axis : x y z
#
# Youngs Moduli (GPa) = 52.20833 59.94656 91.66038
#
# Poissons Ratio (x) = 0.14938 0.19723
# Poissons Ratio (y) = 0.13010 0.38149
# Poissons Ratio (z) = 0.11234 0.24950
#
# Static dielectric constant tensor:
#      x y z
#    x 3.353480 0.000000 0.000000 
#    y 0.000000 4.133870 0.000000 
#    z 0.000000 0.000000 3.778090 
# 
# 
# High freq. dielectric constant tensor:
#      x y z
#    x 1.769640 0.000000 0.000000 
#    y 0.000000 1.826130 0.000000 
#    z 0.000000 0.000000 1.831690 
# 
# From -- ./inp_files/34314.got.cif
#   From: 2010.03.12/outbox.cif.g09.slc.cpg/sg64_18_cif.got.tgz:34314.got - 2010.04.10 20:19:32.
