data_PCOD8262450
_publ_section_title
;
Structure prediction by ZEFSAII (Michael W. Deem and Ramdas Pophale) SiO2 
 PCOD8262450
Probable space group: C M C A
;
_chemical_formula_sum "Si O2"
_cell_formula_units_Z 120
_cell_length_a 25.233595
_cell_length_b 20.983070
_cell_length_c 12.200532
_cell_angle_alpha 90.000000
_cell_angle_beta 90.000000
_cell_angle_gamma 90.000000
_cell_volume 6459.916823
_symmetry_space_group_name_H-M "C M C A"
_symmetry_group_IT_number 64
_symmetry_cell_setting 'orthorhombic'
loop_
_space_group_symop_operation_xyz
x,y,z
-x,1/2-y,1/2+z
x,-y,-z
-x,1/2+y,1/2-z
-x,-y,-z
x,1/2+y,1/2-z
-x,y,z
x,1/2-y,1/2+z
1/2+x,1/2+y,z
1/2-x,-y,1/2+z
1/2+x,1/2-y,-z
1/2-x,y,1/2-z
1/2-x,1/2-y,-z
1/2+x,y,1/2-z
1/2-x,1/2+y,z
1/2+x,-y,1/2+z
loop_
_atom_site_type_symbol
_atom_site_label
_atom_site_fract_x
_atom_site_fract_y
_atom_site_fract_z
Si Si1 0.713552 0.098535 0.842325
Si Si2 0.361362 0.331118 0.856356
Si Si3 0.662711 0.500000 0.500000
Si Si4 0.357127 0.880018 0.871862
Si Si5 0.059185 0.177397 0.956736
Si Si6 0.056675 0.679380 0.988458
Si Si7 0.250504 0.823242 0.530671
Si Si8 0.616740 0.686711 0.722356
O O1 0.750000 0.067815 0.750000
O O2 0.667695 0.141591 0.788542
O O3 0.696407 0.038523 0.912732
O O4 0.751889 0.142420 0.914357
O O5 0.364827 0.382709 0.758518
O O6 0.302564 0.338554 0.901904
O O7 0.369168 0.260033 0.806590
O O8 0.403244 0.353875 0.949484
O O9 0.630666 0.551067 0.426724
O O10 0.300812 0.848156 0.902542
O O11 0.402347 0.834863 0.916869
O O12 0.090010 0.178746 0.841048
O O13 0.000000 0.144878 0.945616
O O14 0.048607 0.246015 0.005253
O O15 0.076157 0.659670 0.867892
O O16 0.000000 0.645193 0.008907
O O17 0.250000 0.750000 0.500000
#
# Coordination Sequence:
#
# PCOD8262450 Si02
#       8
#    16  16   8  16  16  16  16  16
#     4  11  23  36  61  83 121 162 202 249 296 359
#     4  11  22  33  58  88 124 157 198 241 307 359
#     4  10  24  44  57  78 124 160 213 246 288 348
#     4  11  22  40  58  84 119 160 200 252 288 358
#     4  10  21  35  55  89 128 155 188 245 318 375
#     4  10  19  34  57  85 114 156 197 242 305 359
#     4  11  20  34  55  89 124 152 191 244 305 360
#     4  11  19  36  56  88 123 155 195 246 303 361
#
# _framework density 18.576090000000001
#
# number of rings (size 3 to 8) (size 9 to 14) (size 15 to 20)
#    0.000    1.333    5.333    2.400    1.867    3.200 
#    0.000    0.333    0.000    0.000    0.000    0.933 
#    0.000    0.000    0.000    0.000    0.000    0.000 
#
# Total GULP energy -743334.858524 kJ/mol
# GULP energy per Si atom -12388.914309 kJ/mol
# Density = 1.853381 g / cm^3
# Si number density = 18.576090 Si / 1000 Ang^3
#
#
#
# Elastic Constant Matrix: (Units=GPa)
#
#
# Indices 1 2 3 4 5 6 
#
# 1 135.2069 10.1253 67.6036 0.0000 0.0000 0.0000
# 2 10.1253 30.5970 7.3676 0.0000 0.0000 0.0000
# 3 67.6036 7.3676 147.8006 0.0000 0.0000 0.0000
# 4 0.0000 0.0000 0.0000 27.9761 0.0000 0.0000
# 5 0.0000 0.0000 0.0000 0.0000 -1.0647 0.0000
# 6 0.0000 0.0000 0.0000 0.0000 0.0000 -20.8013
#
#
#
# Elastic Compliance Matrix: (Units=1/GPa)
#
#
# Indices 1 2 3 4 5 6 
#
# 1 0.009730 -0.002174 -0.004342 0.000000 0.000000 0.000000
# 2 -0.002174 0.033566 -0.000679 0.000000 0.000000 0.000000
# 3 -0.004342 -0.000679 0.008786 0.000000 0.000000 0.000000
# 4 0.000000 0.000000 0.000000 0.035745 0.000000 0.000000
# 5 0.000000 0.000000 0.000000 0.000000 -0.939250 0.000000
# 6 0.000000 0.000000 0.000000 0.000000 0.000000 -0.048074
#
#
# Mechanical properties :
#
#
# Convention : Reuss Voigt Hill
#
# Bulk Modulus (GPa) = 26.53117 53.75527 40.14322
# Shear Modulus (GPa) = -5.73037 16.45590 5.36276
#
# Velocity S-wave (km/s) = -1.75827 2.97958 1.70094
# Velocity P-wave (km/s) = 3.19240 6.39045 5.05120
#
# Compressibility (1/GPa) = 0.03769151
#
# Stress axis : x y z
#
# Youngs Moduli (GPa) = 102.77558 29.79211 113.82068
#
# Poissons Ratio (x) = 0.06478 0.49422
# Poissons Ratio (y) = 0.22347 0.07725
# Poissons Ratio (z) = 0.44626 0.02022
#
# Static dielectric constant tensor:
#      x y z
#    x 3.964040 0.000000 0.000000 
#    y 0.000000 3.066570 0.000000 
#    z 0.000000 0.000000 3.647380 
# 
# 
# High freq. dielectric constant tensor:
#      x y z
#    x 1.727640 0.000000 0.000000 
#    y 0.000000 1.678020 0.000000 
#    z 0.000000 0.000000 1.742030 
# 
# From -- ./inp_files/19351.got.cif
#   From: 2010.03.12/outbox.cif.g09.slc.cpg/sg64_10_cif.got.tgz:19351.got - 2010.04.10 20:19:32.
