data_PCOD8262231
_publ_section_title
;
Structure prediction by ZEFSAII (Michael W. Deem and Ramdas Pophale) SiO2 
 PCOD8262231
Probable space group: C M C A
;
_chemical_formula_sum "Si O2"
_cell_formula_units_Z 80
_cell_length_a 8.661797
_cell_length_b 19.571410
_cell_length_c 25.929980
_cell_angle_alpha 90.000000
_cell_angle_beta 90.000000
_cell_angle_gamma 90.000000
_cell_volume 4395.743050
_symmetry_space_group_name_H-M "C M C A"
_symmetry_group_IT_number 64
_symmetry_cell_setting 'orthorhombic'
loop_
_space_group_symop_operation_xyz
x,y,z
-x,1/2-y,1/2+z
x,-y,-z
-x,1/2+y,1/2-z
-x,-y,-z
x,1/2+y,1/2-z
-x,y,z
x,1/2-y,1/2+z
1/2+x,1/2+y,z
1/2-x,-y,1/2+z
1/2+x,1/2-y,-z
1/2-x,y,1/2-z
1/2-x,1/2-y,-z
1/2+x,y,1/2-z
1/2-x,1/2+y,z
1/2+x,-y,1/2+z
loop_
_atom_site_type_symbol
_atom_site_label
_atom_site_fract_x
_atom_site_fract_y
_atom_site_fract_z
Si Si1 0.682829 0.071136 0.804996
Si Si2 0.818427 0.320948 0.110055
Si Si3 0.318657 0.073909 0.304577
Si Si4 0.681226 0.671640 0.387283
Si Si5 0.178382 0.323066 0.998303
O O1 0.500000 0.066794 0.801381
O O2 0.750000 0.093763 0.750000
O O3 0.737852 0.126425 0.846721
O O4 0.746374 0.997805 0.822378
O O5 0.722291 0.251640 0.116631
O O6 0.000000 0.304140 0.115281
O O7 0.784457 0.357697 0.053896
O O8 0.500000 0.064745 0.298510
O O9 0.250000 0.097639 0.250000
O O10 0.281423 0.131280 0.346143
O O11 0.500000 0.661582 0.375732
O O12 0.729849 0.641117 0.444363
O O13 0.000000 0.310492 0.991952
O O14 0.250000 0.250000 0.000000
#
# Coordination Sequence:
#
# PCOD8262231 Si02
#       5
#    16  16  16  16  16
#     4  10  20  35  54  74 100 133 168 207 252 302
#     4   9  18  33  53  77 104 135 171 210 251 296
#     4  11  22  37  55  73  99 133 169 209 253 303
#     4  10  19  32  53  79 105 133 168 209 252 299
#     4   8  15  29  49  73 101 133 167 204 248 296
#
# _framework density 18.199427
#
# number of rings (size 3 to 8) (size 9 to 14) (size 15 to 20)
#    0.000    2.400    0.000    4.200    0.000    3.200 
#    0.000    3.000    0.000    6.000    0.000    0.000 
#    0.000    0.000    0.000    0.000    0.000    0.000 
#
# Total GULP energy -495572.532815 kJ/mol
# GULP energy per Si atom -12389.313320 kJ/mol
# Density = 1.815800 g / cm^3
# Si number density = 18.199427 Si / 1000 Ang^3
#
#
#
# Elastic Constant Matrix: (Units=GPa)
#
#
# Indices 1 2 3 4 5 6 
#
# 1 65.4878 24.1169 39.0989 0.0000 0.0000 0.0000
# 2 24.1169 68.6836 70.8030 0.0000 0.0000 0.0000
# 3 39.0989 70.8030 152.6005 0.0000 0.0000 0.0000
# 4 0.0000 0.0000 0.0000 1.3106 0.0000 0.0000
# 5 0.0000 0.0000 0.0000 0.0000 24.6429 0.0000
# 6 0.0000 0.0000 0.0000 0.0000 0.0000 27.0132
#
#
#
# Elastic Compliance Matrix: (Units=1/GPa)
#
#
# Indices 1 2 3 4 5 6 
#
# 1 0.018358 -0.003062 -0.003283 0.000000 0.000000 0.000000
# 2 -0.003062 0.028418 -0.012401 0.000000 0.000000 0.000000
# 3 -0.003283 -0.012401 0.013148 0.000000 0.000000 0.000000
# 4 0.000000 0.000000 0.000000 0.763024 0.000000 0.000000
# 5 0.000000 0.000000 0.000000 0.000000 0.040580 0.000000
# 6 0.000000 0.000000 0.000000 0.000000 0.000000 0.037019
#
#
# Mechanical properties :
#
#
# Convention : Reuss Voigt Hill
#
# Bulk Modulus (GPa) = 44.57789 61.64552 53.11171
# Shear Modulus (GPa) = 5.28813 20.77687 13.03250
#
# Velocity S-wave (km/s) = 1.70645 3.38246 2.67890
# Velocity P-wave (km/s) = 5.33197 7.01430 6.23018
#
# Compressibility (1/GPa) = 0.02243264
#
# Stress axis : x y z
#
# Youngs Moduli (GPa) = 54.47333 35.18882 76.05744
#
# Poissons Ratio (x) = 0.10773 0.24970
# Poissons Ratio (y) = 0.16677 0.94318
# Poissons Ratio (z) = 0.17884 0.43637
#
# Static dielectric constant tensor:
#      x y z
#    x 3.362520 0.000000 0.000000 
#    y 0.000000 3.054810 0.000000 
#    z 0.000000 0.000000 4.133300 
# 
# 
# High freq. dielectric constant tensor:
#      x y z
#    x 1.713830 0.000000 0.000000 
#    y 0.000000 1.669440 0.000000 
#    z 0.000000 0.000000 1.729950 
# 
# From -- ./inp_files/47817.got.cif
#   From: 2010.03.12/outbox.cif.g09.slc.cpg/sg64_24_cif.got.tgz:47817.got - 2010.04.10 20:19:32.
