data_PCOD8262906
_publ_section_title
;
Structure prediction by ZEFSAII (Michael W. Deem and Ramdas Pophale) SiO2 
 PCOD8262906
Probable space group: C M C A
;
_chemical_formula_sum "Si O2"
_cell_formula_units_Z 112
_cell_length_a 15.731107
_cell_length_b 28.914832
_cell_length_c 12.229993
_cell_angle_alpha 90.000000
_cell_angle_beta 90.000000
_cell_angle_gamma 90.000000
_cell_volume 5562.962942
_symmetry_space_group_name_H-M "C M C A"
_symmetry_group_IT_number 64
_symmetry_cell_setting 'orthorhombic'
loop_
_space_group_symop_operation_xyz
x,y,z
-x,1/2-y,1/2+z
x,-y,-z
-x,1/2+y,1/2-z
-x,-y,-z
x,1/2+y,1/2-z
-x,y,z
x,1/2-y,1/2+z
1/2+x,1/2+y,z
1/2-x,-y,1/2+z
1/2+x,1/2-y,-z
1/2-x,y,1/2-z
1/2-x,1/2-y,-z
1/2+x,y,1/2-z
1/2-x,1/2+y,z
1/2+x,-y,1/2+z
loop_
_atom_site_type_symbol
_atom_site_label
_atom_site_fract_x
_atom_site_fract_y
_atom_site_fract_z
Si Si1 0.094340 0.975966 0.665339
Si Si2 0.096262 0.342425 0.202381
Si Si3 0.811496 0.230163 0.846349
Si Si4 0.817542 0.686235 0.010176
Si Si5 0.236019 0.909725 0.565643
Si Si6 0.316084 0.065348 0.833788
Si Si7 0.904816 0.460763 0.586786
O O1 0.166725 0.940034 0.630305
O O2 0.091231 0.983461 0.794810
O O3 0.000000 0.961293 0.621941
O O4 0.116579 0.027453 0.622100
O O5 0.119936 0.303243 0.290484
O O6 0.145185 0.390033 0.227143
O O7 0.000000 0.354654 0.220616
O O8 0.109004 0.326581 0.076411
O O9 0.750000 0.248000 0.750000
O O10 0.852749 0.274602 0.906448
O O11 0.763439 0.201968 0.940143
O O12 0.788214 0.643609 0.087116
O O13 0.234684 0.917124 0.437219
O O14 0.333750 0.920559 0.596949
O O15 0.250000 0.041355 0.750000
O O16 0.876337 0.500000 0.500000
O O17 0.000000 0.441444 0.556358
#
# Coordination Sequence:
#
# PCOD8262906 Si02
#       7
#    16  16  16  16  16  16  16
#     4  11  23  36  54  82 115 150 190 234 282 341
#     4  10  20  34  55  84 114 143 181 232 289 347
#     4   9  18  37  59  80 104 139 188 235 279 341
#     4   9  20  36  57  80 109 145 185 232 290 346
#     4  11  21  35  57  82 112 151 189 233 289 349
#     4  11  21  36  57  80 109 148 192 232 279 338
#     4  10  21  37  55  78 111 150 193 241 287 336
#
# _framework density 20.133154999999999
#
# number of rings (size 3 to 8) (size 9 to 14) (size 15 to 20)
#    0.000    1.857    0.000    6.000    0.000    5.143 
#    0.000    4.286    0.000    6.857    0.000    0.000 
#    0.000    0.000    0.000    0.000    0.000    0.000 
#
# Total GULP energy -694096.239156 kJ/mol
# GULP energy per Si atom -12394.575699 kJ/mol
# Density = 2.008733 g / cm^3
# Si number density = 20.133155 Si / 1000 Ang^3
#
#
#
# Elastic Constant Matrix: (Units=GPa)
#
#
# Indices 1 2 3 4 5 6 
#
# 1 118.6991 38.7272 18.8639 0.0000 0.0000 0.0000
# 2 38.7272 122.1615 32.3072 0.0000 0.0000 0.0000
# 3 18.8639 32.3072 50.9751 0.0000 0.0000 0.0000
# 4 0.0000 0.0000 0.0000 36.0757 0.0000 0.0000
# 5 0.0000 0.0000 0.0000 0.0000 20.2435 0.0000
# 6 0.0000 0.0000 0.0000 0.0000 0.0000 13.0077
#
#
#
# Elastic Compliance Matrix: (Units=1/GPa)
#
#
# Indices 1 2 3 4 5 6 
#
# 1 0.009554 -0.002515 -0.001941 0.000000 0.000000 0.000000
# 2 -0.002515 0.010496 -0.005722 0.000000 0.000000 0.000000
# 3 -0.001941 -0.005722 0.023962 0.000000 0.000000 0.000000
# 4 0.000000 0.000000 0.000000 0.027719 0.000000 0.000000
# 5 0.000000 0.000000 0.000000 0.000000 0.049399 0.000000
# 6 0.000000 0.000000 0.000000 0.000000 0.000000 0.076877
#
#
# Mechanical properties :
#
#
# Convention : Reuss Voigt Hill
#
# Bulk Modulus (GPa) = 42.27296 52.40359 47.33827
# Shear Modulus (GPa) = 22.09946 27.32787 24.71367
#
# Velocity S-wave (km/s) = 3.31670 3.68823 3.50739
# Velocity P-wave (km/s) = 5.97575 6.64999 6.32187
#
# Compressibility (1/GPa) = 0.02365579
#
# Stress axis : x y z
#
# Youngs Moduli (GPa) = 104.66993 95.27031 41.73255
#
# Poissons Ratio (x) = 0.23963 0.08102
# Poissons Ratio (y) = 0.26328 0.23878
# Poissons Ratio (z) = 0.20320 0.54510
#
# Static dielectric constant tensor:
#      x y z
#    x 3.610520 0.000000 0.000000 
#    y 0.000000 3.704090 0.000000 
#    z 0.000000 0.000000 3.781930 
# 
# 
# High freq. dielectric constant tensor:
#      x y z
#    x 1.774990 0.000000 0.000000 
#    y 0.000000 1.776570 0.000000 
#    z 0.000000 0.000000 1.792940 
# 
# From -- ./inp_files/14925.got.cif
#   From: 2010.03.12/outbox.cif.g09.slc.cpg/sg64_8_cif.got.tgz:14925.got - 2010.04.10 20:19:32.
