data_PCOD8262894
_publ_section_title
;
Structure prediction by ZEFSAII (Michael W. Deem and Ramdas Pophale) SiO2 
 PCOD8262894
Probable space group: C M C A
;
_chemical_formula_sum "Si O2"
_cell_formula_units_Z 96
_cell_length_a 18.779125
_cell_length_b 14.880934
_cell_length_c 17.831480
_cell_angle_alpha 90.000000
_cell_angle_beta 90.000000
_cell_angle_gamma 90.000000
_cell_volume 4983.023486
_symmetry_space_group_name_H-M "C M C A"
_symmetry_group_IT_number 64
_symmetry_cell_setting 'orthorhombic'
loop_
_space_group_symop_operation_xyz
x,y,z
-x,1/2-y,1/2+z
x,-y,-z
-x,1/2+y,1/2-z
-x,-y,-z
x,1/2+y,1/2-z
-x,y,z
x,1/2-y,1/2+z
1/2+x,1/2+y,z
1/2-x,-y,1/2+z
1/2+x,1/2-y,-z
1/2-x,y,1/2-z
1/2-x,1/2-y,-z
1/2+x,y,1/2-z
1/2-x,1/2+y,z
1/2+x,-y,1/2+z
loop_
_atom_site_type_symbol
_atom_site_label
_atom_site_fract_x
_atom_site_fract_y
_atom_site_fract_z
Si Si1 0.580214 0.370127 0.688253
Si Si2 0.204635 0.347284 0.921767
Si Si3 0.705297 0.672319 0.592533
Si Si4 0.080772 0.776104 0.305977
Si Si5 0.226282 0.996784 0.166463
Si Si6 0.421099 0.458517 0.220020
O O1 0.500000 0.342662 0.666213
O O2 0.627845 0.351412 0.616361
O O3 0.604966 0.312642 0.760651
O O4 0.586437 0.474942 0.708923
O O5 0.235344 0.248994 0.906745
O O6 0.257545 0.422549 0.889944
O O7 0.193483 0.365822 0.009473
O O8 0.631141 0.712450 0.622385
O O9 0.730657 0.592586 0.646123
O O10 0.088311 0.858245 0.248965
O O11 0.000000 0.766822 0.335809
O O12 0.250000 0.025706 0.250000
O O13 0.141309 0.978867 0.160428
O O14 0.500000 0.471403 0.183100
#
# Coordination Sequence:
#
# PCOD8262894 Si02
#       6
#    16  16  16  16  16  16
#     4  10  20  35  57  84 113 148 191 235 281 342
#     4  11  24  38  56  85 119 151 188 238 291 347
#     4  11  24  38  56  85 119 151 188 238 291 347
#     4  10  20  35  57  84 113 148 191 235 281 342
#     4  12  21  36  63  86 109 153 194 235 281 339
#     4  10  20  34  54  86 113 139 190 238 277 325
#
# _framework density 19.265411
#
# number of rings (size 3 to 8) (size 9 to 14) (size 15 to 20)
#    0.000    1.333    3.333    2.500    0.000    0.667 
#    0.000    0.000    0.000    9.000    0.000    0.000 
#    0.000    0.000    0.000    0.000    0.000    0.000 
#
# Total GULP energy -595388.693871 kJ/mol
# GULP energy per Si atom -12403.931122 kJ/mol
# Density = 1.922156 g / cm^3
# Si number density = 19.265411 Si / 1000 Ang^3
#
#
#
# Elastic Constant Matrix: (Units=GPa)
#
#
# Indices 1 2 3 4 5 6 
#
# 1 107.0376 -0.9141 40.1110 0.0000 0.0000 0.0000
# 2 -0.9141 52.6751 1.3400 0.0000 0.0000 0.0000
# 3 40.1110 1.3400 61.1453 0.0000 0.0000 0.0000
# 4 0.0000 0.0000 0.0000 22.9720 0.0000 0.0000
# 5 0.0000 0.0000 0.0000 0.0000 29.0482 0.0000
# 6 0.0000 0.0000 0.0000 0.0000 0.0000 27.4676
#
#
#
# Elastic Compliance Matrix: (Units=1/GPa)
#
#
# Indices 1 2 3 4 5 6 
#
# 1 0.012397 0.000422 -0.008142 0.000000 0.000000 0.000000
# 2 0.000422 0.019009 -0.000694 0.000000 0.000000 0.000000
# 3 -0.008142 -0.000694 0.021711 0.000000 0.000000 0.000000
# 4 0.000000 0.000000 0.000000 0.043531 0.000000 0.000000
# 5 0.000000 0.000000 0.000000 0.000000 0.034426 0.000000
# 6 0.000000 0.000000 0.000000 0.000000 0.000000 0.036407
#
#
# Mechanical properties :
#
#
# Convention : Reuss Voigt Hill
#
# Bulk Modulus (GPa) = 27.55507 33.54797 30.55152
# Shear Modulus (GPa) = 25.45781 27.91896 26.68838
#
# Velocity S-wave (km/s) = 3.63909 3.81093 3.72600
# Velocity P-wave (km/s) = 5.65607 6.06759 5.86544
#
# Compressibility (1/GPa) = 0.03629096
#
# Stress axis : x y z
#
# Youngs Moduli (GPa) = 80.66396 52.60587 46.06045
#
# Poissons Ratio (x) = -0.02221 0.37501
# Poissons Ratio (y) = -0.03406 0.03195
# Poissons Ratio (z) = 0.65674 0.03649
#
# Static dielectric constant tensor:
#      x y z
#    x 3.838110 0.000000 0.000000 
#    y 0.000000 3.667340 0.000000 
#    z 0.000000 0.000000 3.231840 
# 
# 
# High freq. dielectric constant tensor:
#      x y z
#    x 1.765090 0.000000 0.000000 
#    y 0.000000 1.769260 0.000000 
#    z 0.000000 0.000000 1.714500 
# 
# From -- ./inp_files/26300.got.cif
#   From: 2010.03.12/outbox.cif.g09.slc.cpg/sg64_14_cif.got.tgz:26300.got - 2010.04.10 20:19:32.
