data_PCOD8262247
_publ_section_title
;
Structure prediction by ZEFSAII (Michael W. Deem and Ramdas Pophale) SiO2 
 PCOD8262247
Probable space group: C M C A
;
_chemical_formula_sum "Si O2"
_cell_formula_units_Z 104
_cell_length_a 13.337717
_cell_length_b 17.578214
_cell_length_c 23.696337
_cell_angle_alpha 90.000000
_cell_angle_beta 90.000000
_cell_angle_gamma 90.000000
_cell_volume 5555.683073
_symmetry_space_group_name_H-M "C M C A"
_symmetry_group_IT_number 64
_symmetry_cell_setting 'orthorhombic'
loop_
_space_group_symop_operation_xyz
x,y,z
-x,1/2-y,1/2+z
x,-y,-z
-x,1/2+y,1/2-z
-x,-y,-z
x,1/2+y,1/2-z
-x,y,z
x,1/2-y,1/2+z
1/2+x,1/2+y,z
1/2-x,-y,1/2+z
1/2+x,1/2-y,-z
1/2-x,y,1/2-z
1/2-x,1/2-y,-z
1/2+x,y,1/2-z
1/2-x,1/2+y,z
1/2+x,-y,1/2+z
loop_
_atom_site_type_symbol
_atom_site_label
_atom_site_fract_x
_atom_site_fract_y
_atom_site_fract_z
Si Si1 0.386221 0.013452 0.935562
Si Si2 0.740096 0.677247 0.076399
Si Si3 0.250000 0.865861 0.750000
Si Si4 0.614742 0.383000 0.121191
Si Si5 0.789978 0.457673 0.639583
Si Si6 0.794765 0.838395 0.452040
Si Si7 0.115940 0.272822 0.826336
O O1 0.500000 0.986739 0.926802
O O2 0.375845 0.104380 0.925587
O O3 0.319470 0.972828 0.888122
O O4 0.348819 0.000000 0.000000
O O5 0.666674 0.609246 0.098259
O O6 0.675421 0.753979 0.068557
O O7 0.828280 0.688159 0.121581
O O8 0.797162 0.655723 0.019281
O O9 0.214777 0.923336 0.798309
O O10 0.160995 0.808682 0.730991
O O11 0.500000 0.383229 0.100591
O O12 0.642484 0.467168 0.143269
O O13 0.682423 0.360991 0.067663
O O14 0.630300 0.319482 0.170542
O O15 0.000000 0.294797 0.829422
#
# Coordination Sequence:
#
# PCOD8262247 Si02
#       7
#    16  16   8  16  16  16  16
#     4  10  19  32  54  83 113 146 185 235 284 332
#     4   9  17  31  52  77 109 146 178 225 271 323
#     4  10  22  36  56  80 108 144 184 238 288 322
#     4   9  19  35  55  76 103 142 183 223 273 336
#     4  10  20  35  54  80 112 145 187 232 281 337
#     4   9  17  32  52  77 114 146 182 224 274 333
#     4   9  19  36  57  79 102 137 185 226 272 329
#
# _framework density 18.719570999999998
#
# number of rings (size 3 to 8) (size 9 to 14) (size 15 to 20)
#    0.000    2.615    1.538    0.000    0.000    4.308 
#    0.000    4.615    0.000   18.462    0.000    0.000 
#    0.000    0.000    0.000    0.000    0.000    0.000 
#
# Total GULP energy -644288.034232 kJ/mol
# GULP energy per Si atom -12390.154504 kJ/mol
# Density = 1.867696 g / cm^3
# Si number density = 18.719571 Si / 1000 Ang^3
#
#
#
# Elastic Constant Matrix: (Units=GPa)
#
#
# Indices 1 2 3 4 5 6 
#
# 1 62.4889 22.6715 25.4861 0.0000 0.0000 0.0000
# 2 22.6715 139.7748 46.0882 0.0000 0.0000 0.0000
# 3 25.4861 46.0882 97.8823 0.0000 0.0000 0.0000
# 4 0.0000 0.0000 0.0000 32.7742 0.0000 0.0000
# 5 0.0000 0.0000 0.0000 0.0000 17.0451 0.0000
# 6 0.0000 0.0000 0.0000 0.0000 0.0000 19.3845
#
#
#
# Elastic Compliance Matrix: (Units=1/GPa)
#
#
# Indices 1 2 3 4 5 6 
#
# 1 0.018219 -0.001647 -0.003968 0.000000 0.000000 0.000000
# 2 -0.001647 0.008618 -0.003629 0.000000 0.000000 0.000000
# 3 -0.003968 -0.003629 0.012958 0.000000 0.000000 0.000000
# 4 0.000000 0.000000 0.000000 0.030512 0.000000 0.000000
# 5 0.000000 0.000000 0.000000 0.000000 0.058668 0.000000
# 6 0.000000 0.000000 0.000000 0.000000 0.000000 0.051588
#
#
# Mechanical properties :
#
#
# Convention : Reuss Voigt Hill
#
# Bulk Modulus (GPa) = 46.93290 54.29308 50.61299
# Shear Modulus (GPa) = 24.25379 27.56741 25.91060
#
# Velocity S-wave (km/s) = 3.60340 3.84168 3.72445
# Velocity P-wave (km/s) = 6.51450 6.98171 6.75215
#
# Compressibility (1/GPa) = 0.02130701
#
# Stress axis : x y z
#
# Youngs Moduli (GPa) = 54.88848 116.03506 77.16987
#
# Poissons Ratio (x) = 0.19106 0.30624
# Poissons Ratio (y) = 0.09038 0.28006
# Poissons Ratio (z) = 0.21782 0.42111
#
# Static dielectric constant tensor:
#      x y z
#    x 3.086850 0.000000 0.000000 
#    y 0.000000 3.991370 0.000000 
#    z 0.000000 0.000000 3.309360 
# 
# 
# High freq. dielectric constant tensor:
#      x y z
#    x 1.690440 0.000000 0.000000 
#    y 0.000000 1.760660 0.000000 
#    z 0.000000 0.000000 1.710390 
# 
# From -- ./inp_files/45383.got.cif
#   From: 2010.03.12/outbox.cif.g09.slc.cpg/sg64_23_cif.got.tgz:45383.got - 2010.04.10 20:19:32.
