data_PCOD8262094
_publ_section_title
;
Structure prediction by ZEFSAII (Michael W. Deem and Ramdas Pophale) SiO2 
 PCOD8262094
Probable space group: C M C A
;
_chemical_formula_sum "Si O2"
_cell_formula_units_Z 96
_cell_length_a 9.076996
_cell_length_b 26.575183
_cell_length_c 21.444599
_cell_angle_alpha 90.000000
_cell_angle_beta 90.000000
_cell_angle_gamma 90.000000
_cell_volume 5172.926854
_symmetry_space_group_name_H-M "C M C A"
_symmetry_group_IT_number 64
_symmetry_cell_setting 'orthorhombic'
loop_
_space_group_symop_operation_xyz
x,y,z
-x,1/2-y,1/2+z
x,-y,-z
-x,1/2+y,1/2-z
-x,-y,-z
x,1/2+y,1/2-z
-x,y,z
x,1/2-y,1/2+z
1/2+x,1/2+y,z
1/2-x,-y,1/2+z
1/2+x,1/2-y,-z
1/2-x,y,1/2-z
1/2-x,1/2-y,-z
1/2+x,y,1/2-z
1/2-x,1/2+y,z
1/2+x,-y,1/2+z
loop_
_atom_site_type_symbol
_atom_site_label
_atom_site_fract_x
_atom_site_fract_y
_atom_site_fract_z
Si Si1 0.839723 0.363584 0.693827
Si Si2 0.171213 0.588535 0.088370
Si Si3 0.835153 0.980266 0.429353
Si Si4 0.668852 0.890675 0.462995
Si Si5 0.335374 0.253185 0.310084
Si Si6 0.827432 0.225155 0.939108
O O1 0.750000 0.389248 0.750000
O O2 0.756345 0.371939 0.629951
O O3 0.856421 0.304848 0.705364
O O4 0.000000 0.389197 0.691104
O O5 0.205904 0.530821 0.109585
O O6 0.221227 0.601384 0.019388
O O7 0.000000 0.600206 0.093031
O O8 0.721584 0.934496 0.414388
O O9 0.000000 0.961670 0.413049
O O10 0.828315 0.000000 0.500000
O O11 0.500000 0.900349 0.482165
O O12 0.690484 0.834979 0.437031
O O13 0.500000 0.277475 0.316413
O O14 0.250000 0.277679 0.250000
O O15 0.246245 0.257197 0.374807
O O16 0.000000 0.240332 0.940465
O O17 0.750000 0.250000 0.000000
#
# Coordination Sequence:
#
# PCOD8262094 Si02
#       6
#    16  16  16  16  16  16
#     4  10  20  33  50  73  99 128 164 203 246 298
#     4  10  19  31  49  73 101 131 163 201 247 298
#     4   8  16  30  47  69  96 127 161 195 239 297
#     4  10  20  32  48  73 102 131 166 207 250 297
#     4  10  21  37  56  77 103 138 177 214 257 312
#     4  11  23  36  52  78 109 139 175 219 264 308
#
# _framework density 18.558160000000001
#
# number of rings (size 3 to 8) (size 9 to 14) (size 15 to 20)
#    0.000    2.167    0.000    4.500    0.000   12.333 
#    0.000    0.000    0.000    1.000    0.000    7.000 
#    0.000    0.000    0.000    0.000    0.000    0.000 
#
# Total GULP energy -594747.944543 kJ/mol
# GULP energy per Si atom -12390.582178 kJ/mol
# Density = 1.851592 g / cm^3
# Si number density = 18.558160 Si / 1000 Ang^3
#
#
#
# Elastic Constant Matrix: (Units=GPa)
#
#
# Indices 1 2 3 4 5 6 
#
# 1 148.1697 32.0158 48.3374 0.0000 0.0000 0.0000
# 2 32.0158 47.4078 6.4278 0.0000 0.0000 0.0000
# 3 48.3374 6.4278 83.3205 0.0000 0.0000 0.0000
# 4 0.0000 0.0000 0.0000 15.2024 0.0000 0.0000
# 5 0.0000 0.0000 0.0000 0.0000 22.4967 0.0000
# 6 0.0000 0.0000 0.0000 0.0000 0.0000 49.2185
#
#
#
# Elastic Compliance Matrix: (Units=1/GPa)
#
#
# Indices 1 2 3 4 5 6 
#
# 1 0.009702 -0.005850 -0.005177 0.000000 0.000000 0.000000
# 2 -0.005850 0.024844 0.001477 0.000000 0.000000 0.000000
# 3 -0.005177 0.001477 0.014891 0.000000 0.000000 0.000000
# 4 0.000000 0.000000 0.000000 0.065779 0.000000 0.000000
# 5 0.000000 0.000000 0.000000 0.000000 0.044451 0.000000
# 6 0.000000 0.000000 0.000000 0.000000 0.000000 0.020318
#
#
# Mechanical properties :
#
#
# Convention : Reuss Voigt Hill
#
# Bulk Modulus (GPa) = 32.96268 50.27333 41.61800
# Shear Modulus (GPa) = 23.90085 30.19132 27.04609
#
# Velocity S-wave (km/s) = 3.59261 4.03780 3.82169
# Velocity P-wave (km/s) = 5.91688 6.99191 6.47674
#
# Compressibility (1/GPa) = 0.03033734
#
# Stress axis : x y z
#
# Youngs Moduli (GPa) = 103.07105 40.25115 67.15292
#
# Poissons Ratio (x) = 0.23547 0.34767
# Poissons Ratio (y) = 0.60298 -0.09920
# Poissons Ratio (z) = 0.53362 -0.05946
#
# Static dielectric constant tensor:
#      x y z
#    x 3.779890 0.000000 0.000000 
#    y 0.000000 3.805970 0.000000 
#    z 0.000000 0.000000 3.317160 
# 
# 
# High freq. dielectric constant tensor:
#      x y z
#    x 1.741280 0.000000 0.000000 
#    y 0.000000 1.708850 0.000000 
#    z 0.000000 0.000000 1.686130 
# 
# From -- ./inp_files/36960.got.cif
#   From: 2010.03.12/outbox.cif.g09.slc.cpg/sg64_19_cif.got.tgz:36960.got - 2010.04.10 20:19:32.
