data_PCOD8262187
_publ_section_title
;
Structure prediction by ZEFSAII (Michael W. Deem and Ramdas Pophale) SiO2 
 PCOD8262187
Probable space group: C M C A
;
_chemical_formula_sum "Si O2"
_cell_formula_units_Z 96
_cell_length_a 9.014418
_cell_length_b 19.797540
_cell_length_c 30.340064
_cell_angle_alpha 90.000000
_cell_angle_beta 90.000000
_cell_angle_gamma 90.000000
_cell_volume 5414.587972
_symmetry_space_group_name_H-M "C M C A"
_symmetry_group_IT_number 64
_symmetry_cell_setting 'orthorhombic'
loop_
_space_group_symop_operation_xyz
x,y,z
-x,1/2-y,1/2+z
x,-y,-z
-x,1/2+y,1/2-z
-x,-y,-z
x,1/2+y,1/2-z
-x,y,z
x,1/2-y,1/2+z
1/2+x,1/2+y,z
1/2-x,-y,1/2+z
1/2+x,1/2-y,-z
1/2-x,y,1/2-z
1/2-x,1/2-y,-z
1/2+x,y,1/2-z
1/2-x,1/2+y,z
1/2+x,-y,1/2+z
loop_
_atom_site_type_symbol
_atom_site_label
_atom_site_fract_x
_atom_site_fract_y
_atom_site_fract_z
Si Si1 0.169448 0.186963 0.050737
Si Si2 0.328743 0.177104 0.550883
Si Si3 0.337456 0.419029 0.291219
Si Si4 0.677128 0.428790 0.387558
Si Si5 0.166228 0.920716 0.707593
Si Si6 0.673961 0.069778 0.381234
O O1 0.276414 0.248145 0.064337
O O2 0.207408 0.123688 0.081002
O O3 0.000000 0.211120 0.056941
O O4 0.198045 0.164367 0.000687
O O5 0.500000 0.168246 0.564184
O O6 0.228954 0.122828 0.575662
O O7 0.500000 0.387252 0.287757
O O8 0.250000 0.386989 0.250000
O O9 0.269398 0.401488 0.339317
O O10 0.342922 0.499293 0.287158
O O11 0.500000 0.437563 0.387960
O O12 0.749853 0.501006 0.397203
O O13 0.250000 0.889360 0.750000
O O14 0.257114 0.901527 0.663899
O O15 0.000000 0.890420 0.704713
O O16 0.500000 0.057090 0.374128
#
# Coordination Sequence:
#
# PCOD8262187 Si02
#       6
#    16  16  16  16  16  16
#     4   9  20  37  54  73  99 131 166 206 253 303
#     4  10  20  35  55  75  96 129 171 208 247 302
#     4   8  15  26  42  65  94 127 159 194 236 284
#     4  10  20  33  49  74 106 134 164 206 253 297
#     4   9  16  27  44  69 100 132 166 202 244 293
#     4  10  19  32  51  75 103 133 166 207 253 296
#
# _framework density 17.729880999999999
#
# number of rings (size 3 to 8) (size 9 to 14) (size 15 to 20)
#    0.000    2.667    0.000    3.000    0.000    7.333 
#    0.000    3.333    0.000    1.000    0.000    4.667 
#    0.000    0.000    0.000    0.000    0.000    0.000 
#
# Total GULP energy -595103.166788 kJ/mol
# GULP energy per Si atom -12397.982641 kJ/mol
# Density = 1.768953 g / cm^3
# Si number density = 17.729881 Si / 1000 Ang^3
#
#
#
# Elastic Constant Matrix: (Units=GPa)
#
#
# Indices 1 2 3 4 5 6 
#
# 1 108.6837 46.7484 61.2096 0.0000 0.0000 0.0000
# 2 46.7484 65.5585 61.4496 0.0000 0.0000 0.0000
# 3 61.2096 61.4496 116.4881 0.0000 0.0000 0.0000
# 4 0.0000 0.0000 0.0000 -3.5408 0.0000 0.0000
# 5 0.0000 0.0000 0.0000 0.0000 33.1796 0.0000
# 6 0.0000 0.0000 0.0000 0.0000 0.0000 23.0548
#
#
#
# Elastic Compliance Matrix: (Units=1/GPa)
#
#
# Indices 1 2 3 4 5 6 
#
# 1 0.014242 -0.006214 -0.004206 0.000000 0.000000 0.000000
# 2 -0.006214 0.032883 -0.014082 0.000000 0.000000 0.000000
# 3 -0.004206 -0.014082 0.018223 0.000000 0.000000 0.000000
# 4 0.000000 0.000000 0.000000 -0.282420 0.000000 0.000000
# 5 0.000000 0.000000 0.000000 0.000000 0.030139 0.000000
# 6 0.000000 0.000000 0.000000 0.000000 0.000000 0.043375
#
#
# Mechanical properties :
#
#
# Convention : Reuss Voigt Hill
#
# Bulk Modulus (GPa) = 61.17572 69.94952 65.56262
# Shear Modulus (GPa) = -56.11286 18.62690 -18.74298
#
# Velocity S-wave (km/s) = -5.63183 3.24480 -3.25490
# Velocity P-wave (km/s) = 2.77682 7.31962 4.78885
#
# Compressibility (1/GPa) = 0.01634636
#
# Stress axis : x y z
#
# Youngs Moduli (GPa) = 70.21252 30.41045 54.87578
#
# Poissons Ratio (x) = 0.18896 0.23081
# Poissons Ratio (y) = 0.43627 0.77274
# Poissons Ratio (z) = 0.29532 0.42823
#
# Static dielectric constant tensor:
#      x y z
#    x 3.494350 0.000000 0.000000 
#    y 0.000000 2.855750 0.000000 
#    z 0.000000 0.000000 3.499930 
# 
# 
# High freq. dielectric constant tensor:
#      x y z
#    x 1.699130 0.000000 0.000000 
#    y 0.000000 1.639950 0.000000 
#    z 0.000000 0.000000 1.697520 
# 
# From -- ./inp_files/48147.got.cif
#   From: 2010.03.12/outbox.cif.g09.slc.cpg/sg64_25_cif.got.tgz:48147.got - 2010.04.10 20:19:32.
