data_PCOD8262970
_publ_section_title
;
Structure prediction by ZEFSAII (Michael W. Deem and Ramdas Pophale) SiO2 
 PCOD8262970
Probable space group: C M C A
;
_chemical_formula_sum "Si O2"
_cell_formula_units_Z 80
_cell_length_a 8.922351
_cell_length_b 33.368103
_cell_length_c 14.763457
_cell_angle_alpha 90.000000
_cell_angle_beta 90.000000
_cell_angle_gamma 90.000000
_cell_volume 4395.404870
_symmetry_space_group_name_H-M "C M C A"
_symmetry_group_IT_number 64
_symmetry_cell_setting 'orthorhombic'
loop_
_space_group_symop_operation_xyz
x,y,z
-x,1/2-y,1/2+z
x,-y,-z
-x,1/2+y,1/2-z
-x,-y,-z
x,1/2+y,1/2-z
-x,y,z
x,1/2-y,1/2+z
1/2+x,1/2+y,z
1/2-x,-y,1/2+z
1/2+x,1/2-y,-z
1/2-x,y,1/2-z
1/2-x,1/2-y,-z
1/2+x,y,1/2-z
1/2-x,1/2+y,z
1/2+x,-y,1/2+z
loop_
_atom_site_type_symbol
_atom_site_label
_atom_site_fract_x
_atom_site_fract_y
_atom_site_fract_z
Si Si1 0.176593 0.954828 0.656619
Si Si2 0.176503 0.191893 0.491128
Si Si3 0.323274 0.455026 0.343445
Si Si4 0.676970 0.748294 0.150445
Si Si5 0.678232 0.898710 0.000385
O O1 0.250000 0.942629 0.750000
O O2 0.239786 0.922527 0.586215
O O3 0.000000 0.951697 0.666716
O O4 0.222376 0.999891 0.626582
O O5 0.259219 0.209959 0.403279
O O6 0.215868 0.213736 0.586090
O O7 0.236938 0.146686 0.500961
O O8 0.000000 0.194149 0.471711
O O9 0.500000 0.451785 0.333772
O O10 0.250000 0.442903 0.250000
O O11 0.258859 0.422778 0.413694
O O12 0.500000 0.743273 0.163951
O O13 0.750000 0.753354 0.250000
O O14 0.500000 0.899401 0.001505
#
# Coordination Sequence:
#
# PCOD8262970 Si02
#       5
#    16  16  16  16  16
#     4   9  17  30  48  69  95 128 164 199 235 279
#     4   9  19  35  53  75 100 126 162 204 243 289
#     4   9  17  30  48  70  96 128 164 198 235 280
#     4  10  20  35  55  75  98 129 161 197 244 296
#     4   9  17  31  51  72  96 127 161 197 238 284
#
# _framework density 18.200825999999999
#
# number of rings (size 3 to 8) (size 9 to 14) (size 15 to 20)
#    0.000    2.800    0.000    1.200    0.000    4.800 
#    0.000    5.000    0.000    4.800    0.000    0.000 
#    0.000    0.000    0.000    0.000    0.000    0.000 
#
# Total GULP energy -495841.721968 kJ/mol
# GULP energy per Si atom -12396.043049 kJ/mol
# Density = 1.815940 g / cm^3
# Si number density = 18.200826 Si / 1000 Ang^3
#
#
#
# Elastic Constant Matrix: (Units=GPa)
#
#
# Indices 1 2 3 4 5 6 
#
# 1 33.6442 31.5496 43.8677 0.0000 0.0000 0.0000
# 2 31.5496 168.2840 103.3912 0.0000 0.0000 0.0000
# 3 43.8677 103.3912 165.4166 0.0000 0.0000 0.0000
# 4 0.0000 0.0000 0.0000 60.3590 0.0000 0.0000
# 5 0.0000 0.0000 0.0000 0.0000 31.4839 0.0000
# 6 0.0000 0.0000 0.0000 0.0000 0.0000 19.8843
#
#
#
# Elastic Compliance Matrix: (Units=1/GPa)
#
#
# Indices 1 2 3 4 5 6 
#
# 1 0.045775 -0.001824 -0.010999 0.000000 0.000000 0.000000
# 2 -0.001824 0.009720 -0.005591 0.000000 0.000000 0.000000
# 3 -0.010999 -0.005591 0.012457 0.000000 0.000000 0.000000
# 4 0.000000 0.000000 0.000000 0.016568 0.000000 0.000000
# 5 0.000000 0.000000 0.000000 0.000000 0.031762 0.000000
# 6 0.000000 0.000000 0.000000 0.000000 0.000000 0.050291
#
#
# Mechanical properties :
#
#
# Convention : Reuss Voigt Hill
#
# Bulk Modulus (GPa) = 32.13127 80.55131 56.34129
# Shear Modulus (GPa) = 23.38902 34.91451 29.15176
#
# Velocity S-wave (km/s) = 3.58865 4.38458 4.00643
# Velocity P-wave (km/s) = 5.90451 8.36575 7.24048
#
# Compressibility (1/GPa) = 0.03112233
#
# Stress axis : x y z
#
# Youngs Moduli (GPa) = 21.84605 102.88559 80.27585
#
# Poissons Ratio (x) = 0.18767 0.88297
# Poissons Ratio (y) = 0.03985 0.44885
# Poissons Ratio (z) = 0.24029 0.57527
#
# Static dielectric constant tensor:
#      x y z
#    x 3.104810 0.000000 0.000000 
#    y 0.000000 3.596410 0.000000 
#    z 0.000000 0.000000 3.449180 
# 
# 
# High freq. dielectric constant tensor:
#      x y z
#    x 1.681120 0.000000 0.000000 
#    y 0.000000 1.708840 0.000000 
#    z 0.000000 0.000000 1.713040 
# 
# From -- ./inp_files/13194.got.cif
#   From: 2010.03.12/outbox.cif.g09.slc.cpg/sg64_7_cif.got.tgz:13194.got - 2010.04.10 20:19:32.
