data_PCOD8262050
_publ_section_title
;
Structure prediction by ZEFSAII (Michael W. Deem and Ramdas Pophale) SiO2 
 PCOD8262050
Probable space group: C M C A
;
_chemical_formula_sum "Si O2"
_cell_formula_units_Z 88
_cell_length_a 33.712451
_cell_length_b 5.183105
_cell_length_c 27.777673
_cell_angle_alpha 90.000000
_cell_angle_beta 90.000000
_cell_angle_gamma 90.000000
_cell_volume 4853.736507
_symmetry_space_group_name_H-M "C M C A"
_symmetry_group_IT_number 64
_symmetry_cell_setting 'orthorhombic'
loop_
_space_group_symop_operation_xyz
x,y,z
-x,1/2-y,1/2+z
x,-y,-z
-x,1/2+y,1/2-z
-x,-y,-z
x,1/2+y,1/2-z
-x,y,z
x,1/2-y,1/2+z
1/2+x,1/2+y,z
1/2-x,-y,1/2+z
1/2+x,1/2-y,-z
1/2-x,y,1/2-z
1/2-x,1/2-y,-z
1/2+x,y,1/2-z
1/2-x,1/2+y,z
1/2+x,-y,1/2+z
loop_
_atom_site_type_symbol
_atom_site_label
_atom_site_fract_x
_atom_site_fract_y
_atom_site_fract_z
Si Si1 0.601834 0.500000 0.500000
Si Si2 0.724966 0.005268 0.944350
Si Si3 0.955114 0.549922 0.281086
Si Si4 0.900668 0.560072 0.371812
Si Si5 0.858954 0.081669 0.406985
Si Si6 0.543232 0.353438 0.950871
O O1 0.628951 0.339392 0.537413
O O2 0.573912 0.630219 0.539077
O O3 0.756888 0.784493 0.932879
O O4 0.688037 0.963361 0.908579
O O5 0.711307 0.000000 0.000000
O O6 0.948857 0.266500 0.259378
O O7 0.921254 0.594573 0.320532
O O8 0.000000 0.573801 0.302394
O O9 0.869578 0.322958 0.372593
O O10 0.936361 0.480795 0.408691
O O11 0.878734 0.823256 0.386040
O O12 0.500000 0.250699 0.933741
O O13 0.537255 0.500000 0.000000
#
# Coordination Sequence:
#
# PCOD8262050 Si02
#       6
#     8  16  16  16  16  16
#     4  10  19  32  44  68 102 150 178 224 252 304
#     4  10  20  34  52  76 106 150 191 222 259 319
#     4  10  21  39  60  81 109 144 186 238 287 329
#     4  11  22  35  54  81 106 144 182 228 276 324
#     4  11  21  34  53  76 112 140 184 219 269 317
#     4  10  19  31  45  67 102 145 185 217 251 302
#
# _framework density 18.130362999999999
#
# number of rings (size 3 to 8) (size 9 to 14) (size 15 to 20)
#    0.000    1.636    2.727    3.000    0.000    0.000 
#    0.000    1.818    0.000    0.000    0.000    0.000 
#    0.000   50.909    0.000    0.000    0.000    0.000 
#
# Total GULP energy -545153.968745 kJ/mol
# GULP energy per Si atom -12389.862926 kJ/mol
# Density = 1.808910 g / cm^3
# Si number density = 18.130363 Si / 1000 Ang^3
#
#
#
# Elastic Constant Matrix: (Units=GPa)
#
#
# Indices 1 2 3 4 5 6 
#
# 1 104.1337 26.0475 40.7750 0.0000 0.0000 0.0000
# 2 26.0475 91.0811 16.3126 0.0000 0.0000 0.0000
# 3 40.7750 16.3126 57.2749 0.0000 0.0000 0.0000
# 4 0.0000 0.0000 0.0000 19.6637 0.0000 0.0000
# 5 0.0000 0.0000 0.0000 0.0000 25.9447 0.0000
# 6 0.0000 0.0000 0.0000 0.0000 0.0000 20.3460
#
#
#
# Elastic Compliance Matrix: (Units=1/GPa)
#
#
# Indices 1 2 3 4 5 6 
#
# 1 0.013756 -0.002297 -0.009139 0.000000 0.000000 0.000000
# 2 -0.002297 0.011953 -0.001769 0.000000 0.000000 0.000000
# 3 -0.009139 -0.001769 0.024470 0.000000 0.000000 0.000000
# 4 0.000000 0.000000 0.000000 0.050855 0.000000 0.000000
# 5 0.000000 0.000000 0.000000 0.000000 0.038544 0.000000
# 6 0.000000 0.000000 0.000000 0.000000 0.000000 0.049150
#
#
# Mechanical properties :
#
#
# Convention : Reuss Voigt Hill
#
# Bulk Modulus (GPa) = 42.07236 46.52888 44.30062
# Shear Modulus (GPa) = 22.41548 24.48119 23.44833
#
# Velocity S-wave (km/s) = 3.51999 3.67861 3.60018
# Velocity P-wave (km/s) = 6.30685 6.61530 6.46291
#
# Compressibility (1/GPa) = 0.02376857
#
# Stress axis : x y z
#
# Youngs Moduli (GPa) = 72.69489 83.66100 40.86700
#
# Poissons Ratio (x) = 0.19219 0.37348
# Poissons Ratio (y) = 0.16700 0.07229
# Poissons Ratio (z) = 0.66435 0.14799
#
# Static dielectric constant tensor:
#      x y z
#    x 3.499640 0.000000 0.000000 
#    y 0.000000 3.136330 0.000000 
#    z 0.000000 0.000000 3.059270 
# 
# 
# High freq. dielectric constant tensor:
#      x y z
#    x 1.705340 0.000000 0.000000 
#    y 0.000000 1.703220 0.000000 
#    z 0.000000 0.000000 1.665620 
# 
# From -- ./inp_files/47096.got.cif
#   From: 2010.03.12/outbox.cif.g09.slc.cpg/sg64_24_cif.got.tgz:47096.got - 2010.04.10 20:19:32.
