data_PCOD8262593
_publ_section_title
;
Structure prediction by ZEFSAII (Michael W. Deem and Ramdas Pophale) SiO2 
 PCOD8262593
Probable space group: C M C A
;
_chemical_formula_sum "Si O2"
_cell_formula_units_Z 80
_cell_length_a 19.069964
_cell_length_b 16.286054
_cell_length_c 13.468773
_cell_angle_alpha 90.000000
_cell_angle_beta 90.000000
_cell_angle_gamma 90.000000
_cell_volume 4183.056948
_symmetry_space_group_name_H-M "C M C A"
_symmetry_group_IT_number 64
_symmetry_cell_setting 'orthorhombic'
loop_
_space_group_symop_operation_xyz
x,y,z
-x,1/2-y,1/2+z
x,-y,-z
-x,1/2+y,1/2-z
-x,-y,-z
x,1/2+y,1/2-z
-x,y,z
x,1/2-y,1/2+z
1/2+x,1/2+y,z
1/2-x,-y,1/2+z
1/2+x,1/2-y,-z
1/2-x,y,1/2-z
1/2-x,1/2-y,-z
1/2+x,y,1/2-z
1/2-x,1/2+y,z
1/2+x,-y,1/2+z
loop_
_atom_site_type_symbol
_atom_site_label
_atom_site_fract_x
_atom_site_fract_y
_atom_site_fract_z
Si Si1 0.750000 0.652717 0.750000
Si Si2 0.000000 0.312553 0.599077
Si Si3 0.859156 0.065440 0.277466
Si Si4 0.113147 0.746942 0.256913
Si Si5 0.000000 0.014358 0.200196
Si Si6 0.500000 0.335133 0.129442
Si Si7 0.735207 0.004070 0.614558
O O1 0.814559 0.708754 0.784400
O O2 0.727675 0.596517 0.843695
O O3 0.930657 0.268789 0.642612
O O4 0.000000 0.302301 0.482052
O O5 0.000000 0.408222 0.627015
O O6 0.871427 0.161151 0.298077
O O7 0.932392 0.016533 0.271968
O O8 0.814656 0.027367 0.368004
O O9 0.818001 0.055185 0.173112
O O10 0.069729 0.802613 0.181552
O O11 0.000000 0.933556 0.132759
O O12 0.714927 0.000000 0.500000
#
# Coordination Sequence:
#
# PCOD8262593 Si02
#       7
#     8   8  16  16   8   8  16
#     4  10  20  36  56  80 106 142 182 222 264 316
#     4   9  22  37  55  81 112 143 176 218 272 317
#     4   9  20  38  54  77 112 144 174 220 272 317
#     4  10  21  37  55  79 112 144 176 220 270 317
#     4  10  19  36  59  80 108 144 179 220 263 314
#     4  11  20  35  57  83 108 141 184 222 258 317
#     4  10  21  37  57  80 106 141 183 222 265 319
#
# _framework density 19.124768
#
# number of rings (size 3 to 8) (size 9 to 14) (size 15 to 20)
#    0.000    2.400    0.000    4.500    0.000    8.000 
#    0.000    3.500    0.000    0.000    0.000    0.000 
#    0.000    0.000    0.000    0.000    0.000    0.000 
#
# Total GULP energy -496063.772700 kJ/mol
# GULP energy per Si atom -12401.594318 kJ/mol
# Density = 1.908124 g / cm^3
# Si number density = 19.124768 Si / 1000 Ang^3
#
#
#
# Elastic Constant Matrix: (Units=GPa)
#
#
# Indices 1 2 3 4 5 6 
#
# 1 127.8686 43.3138 21.5678 0.0000 0.0000 0.0000
# 2 43.3138 106.7848 37.3709 0.0000 0.0000 0.0000
# 3 21.5678 37.3709 86.8696 0.0000 0.0000 0.0000
# 4 0.0000 0.0000 0.0000 14.5257 0.0000 0.0000
# 5 0.0000 0.0000 0.0000 0.0000 9.1240 0.0000
# 6 0.0000 0.0000 0.0000 0.0000 0.0000 37.9932
#
#
#
# Elastic Compliance Matrix: (Units=1/GPa)
#
#
# Indices 1 2 3 4 5 6 
#
# 1 0.009112 -0.003419 -0.000791 0.000000 0.000000 0.000000
# 2 -0.003419 0.012307 -0.004446 0.000000 0.000000 0.000000
# 3 -0.000791 -0.004446 0.013621 0.000000 0.000000 0.000000
# 4 0.000000 0.000000 0.000000 0.068844 0.000000 0.000000
# 5 0.000000 0.000000 0.000000 0.000000 0.109601 0.000000
# 6 0.000000 0.000000 0.000000 0.000000 0.000000 0.026321
#
#
# Mechanical properties :
#
#
# Convention : Reuss Voigt Hill
#
# Bulk Modulus (GPa) = 56.40933 58.44755 57.42844
# Shear Modulus (GPa) = 19.00946 26.94661 22.97803
#
# Velocity S-wave (km/s) = 3.15615 3.75772 3.47000
# Velocity P-wave (km/s) = 6.54532 7.03241 6.79323
#
# Compressibility (1/GPa) = 0.01772757
#
# Stress axis : x y z
#
# Youngs Moduli (GPa) = 109.74307 81.25265 73.41866
#
# Poissons Ratio (x) = 0.27781 0.05811
# Poissons Ratio (y) = 0.37522 0.32639
# Poissons Ratio (z) = 0.08686 0.36122
#
# Static dielectric constant tensor:
#      x y z
#    x 3.760270 0.000000 0.000000 
#    y 0.000000 3.558460 0.000000 
#    z 0.000000 0.000000 3.075160 
# 
# 
# High freq. dielectric constant tensor:
#      x y z
#    x 1.763960 0.000000 0.000000 
#    y 0.000000 1.754090 0.000000 
#    z 0.000000 0.000000 1.706170 
# 
# From -- ./inp_files/25372.got.cif
#   From: 2010.03.12/outbox.cif.g09.slc.cpg/sg64_13_cif.got.tgz:25372.got - 2010.04.10 20:19:32.
