data_PCOD8262969
_publ_section_title
;
Structure prediction by ZEFSAII (Michael W. Deem and Ramdas Pophale) SiO2 
 PCOD8262969
Probable space group: C M C A
;
_chemical_formula_sum "Si O2"
_cell_formula_units_Z 72
_cell_length_a 13.944635
_cell_length_b 12.553989
_cell_length_c 21.281894
_cell_angle_alpha 90.000000
_cell_angle_beta 90.000000
_cell_angle_gamma 90.000000
_cell_volume 3725.625270
_symmetry_space_group_name_H-M "C M C A"
_symmetry_group_IT_number 64
_symmetry_cell_setting 'orthorhombic'
loop_
_space_group_symop_operation_xyz
x,y,z
-x,1/2-y,1/2+z
x,-y,-z
-x,1/2+y,1/2-z
-x,-y,-z
x,1/2+y,1/2-z
-x,y,z
x,1/2-y,1/2+z
1/2+x,1/2+y,z
1/2-x,-y,1/2+z
1/2+x,1/2-y,-z
1/2-x,y,1/2-z
1/2-x,1/2-y,-z
1/2+x,y,1/2-z
1/2-x,1/2+y,z
1/2+x,-y,1/2+z
loop_
_atom_site_type_symbol
_atom_site_label
_atom_site_fract_x
_atom_site_fract_y
_atom_site_fract_z
Si Si1 0.391849 0.837860 0.148854
Si Si2 0.109236 0.400678 0.290586
Si Si3 0.750000 0.926377 0.750000
Si Si4 0.888493 0.458390 0.933041
Si Si5 0.206454 0.718437 0.139903
O O1 0.500000 0.803277 0.129900
O O2 0.379287 0.842822 0.223617
O O3 0.367614 0.953326 0.120071
O O4 0.316750 0.749740 0.124436
O O5 0.174137 0.505529 0.290248
O O6 0.144627 0.324610 0.346873
O O7 0.000000 0.434259 0.303297
O O8 0.807025 0.853672 0.701337
O O9 0.833727 0.348094 0.918823
O O10 0.000000 0.430199 0.936350
O O11 0.850838 0.500000 0.000000
#
# Coordination Sequence:
#
# PCOD8262969 Si02
#       5
#    16  16   8  16  16
#     4  10  20  35  54  81 113 142 183 232 279 329
#     4  11  21  33  51  81 113 143 179 227 277 332
#     4  12  20  34  50  82 114 144 174 228 278 342
#     4  10  22  39  59  82 111 152 195 231 273 333
#     4  12  20  36  58  81 113 149 186 226 286 333
#
# _framework density 19.325617000000001
#
# number of rings (size 3 to 8) (size 9 to 14) (size 15 to 20)
#    0.000    1.111    6.667    0.667    0.000    2.667 
#    0.000    0.000    0.000    0.667    0.000    0.000 
#    0.000    0.000    0.000    0.000    0.000    0.000 
#
# Total GULP energy -446485.418383 kJ/mol
# GULP energy per Si atom -12402.372733 kJ/mol
# Density = 1.928163 g / cm^3
# Si number density = 19.325617 Si / 1000 Ang^3
#
#
#
# Elastic Constant Matrix: (Units=GPa)
#
#
# Indices 1 2 3 4 5 6 
#
# 1 102.6771 36.8369 11.3561 0.0000 0.0000 0.0000
# 2 36.8369 69.3751 3.8398 0.0000 0.0000 0.0000
# 3 11.3561 3.8398 36.2007 0.0000 0.0000 0.0000
# 4 0.0000 0.0000 0.0000 22.4552 0.0000 0.0000
# 5 0.0000 0.0000 0.0000 0.0000 20.4020 0.0000
# 6 0.0000 0.0000 0.0000 0.0000 0.0000 24.4459
#
#
#
# Elastic Compliance Matrix: (Units=1/GPa)
#
#
# Indices 1 2 3 4 5 6 
#
# 1 0.012391 -0.006402 -0.003208 0.000000 0.000000 0.000000
# 2 -0.006402 0.017807 0.000119 0.000000 0.000000 0.000000
# 3 -0.003208 0.000119 0.028617 0.000000 0.000000 0.000000
# 4 0.000000 0.000000 0.000000 0.044533 0.000000 0.000000
# 5 0.000000 0.000000 0.000000 0.000000 0.049015 0.000000
# 6 0.000000 0.000000 0.000000 0.000000 0.000000 0.040907
#
#
# Mechanical properties :
#
#
# Convention : Reuss Voigt Hill
#
# Bulk Modulus (GPa) = 25.10372 34.70205 29.90289
# Shear Modulus (GPa) = 22.17013 23.87527 23.02270
#
# Velocity S-wave (km/s) = 3.39069 3.51867 3.45527
# Velocity P-wave (km/s) = 5.32420 5.87397 5.60583
#
# Compressibility (1/GPa) = 0.03983473
#
# Stress axis : x y z
#
# Youngs Moduli (GPa) = 80.70516 56.15771 34.94371
#
# Poissons Ratio (x) = 0.35951 0.11210
# Poissons Ratio (y) = 0.51665 -0.00417
# Poissons Ratio (z) = 0.25890 -0.00671
#
# Static dielectric constant tensor:
#      x y z
#    x 3.657460 0.000000 0.000000 
#    y 0.000000 3.476200 0.000000 
#    z 0.000000 0.000000 3.285510 
# 
# 
# High freq. dielectric constant tensor:
#      x y z
#    x 1.758470 0.000000 0.000000 
#    y 0.000000 1.749940 0.000000 
#    z 0.000000 0.000000 1.717150 
# 
# From -- ./inp_files/39940.got.cif
#   From: 2010.03.12/outbox.cif.g09.slc.cpg/sg64_20_cif.got.tgz:39940.got - 2010.04.10 20:19:32.
