data_PCOD8262020
_publ_section_title
;
Structure prediction by ZEFSAII (Michael W. Deem and Ramdas Pophale) SiO2 
 PCOD8262020
Probable space group: C M C A
;
_chemical_formula_sum "Si O2"
_cell_formula_units_Z 80
_cell_length_a 8.764577
_cell_length_b 19.393162
_cell_length_c 26.043562
_cell_angle_alpha 90.000000
_cell_angle_beta 90.000000
_cell_angle_gamma 90.000000
_cell_volume 4426.698760
_symmetry_space_group_name_H-M "C M C A"
_symmetry_group_IT_number 64
_symmetry_cell_setting 'orthorhombic'
loop_
_space_group_symop_operation_xyz
x,y,z
-x,1/2-y,1/2+z
x,-y,-z
-x,1/2+y,1/2-z
-x,-y,-z
x,1/2+y,1/2-z
-x,y,z
x,1/2-y,1/2+z
1/2+x,1/2+y,z
1/2-x,-y,1/2+z
1/2+x,1/2-y,-z
1/2-x,y,1/2-z
1/2-x,1/2-y,-z
1/2+x,y,1/2-z
1/2-x,1/2+y,z
1/2+x,-y,1/2+z
loop_
_atom_site_type_symbol
_atom_site_label
_atom_site_fract_x
_atom_site_fract_y
_atom_site_fract_z
Si Si1 0.322008 0.138322 0.034555
Si Si2 0.178587 0.729252 0.380901
Si Si3 0.319932 0.875097 0.080330
Si Si4 0.181054 0.873309 0.694217
Si Si5 0.176990 0.979349 0.611589
O O1 0.500000 0.158783 0.037022
O O2 0.227915 0.195427 0.065478
O O3 0.295588 0.063176 0.059401
O O4 0.255369 0.136495 0.977036
O O5 0.219903 0.810414 0.383535
O O6 0.267501 0.697921 0.332398
O O7 0.000000 0.717572 0.372682
O O8 0.500000 0.885271 0.074200
O O9 0.247884 0.944691 0.105312
O O10 0.250000 0.880342 0.750000
O O11 0.245609 0.937041 0.659968
O O12 0.000000 0.873166 0.697312
O O13 0.000000 0.988462 0.623006
#
# Coordination Sequence:
#
# PCOD8262020 Si02
#       5
#    16  16  16  16  16
#     4   9  16  28  48  71  98 134 170 197 224 269
#     4  10  19  30  47  72 102 131 160 195 234 280
#     4   9  16  27  46  73 102 131 161 195 234 275
#     4  10  20  36  57  73  89 118 157 201 244 290
#     4   8  15  28  48  73  96 122 160 199 234 278
#
# _framework density 18.072158000000002
#
# number of rings (size 3 to 8) (size 9 to 14) (size 15 to 20)
#    0.000    2.800    0.000    3.600    0.000    2.400 
#    0.000    2.000    0.000   25.200    0.000    0.000 
#    0.000    0.000    0.000    0.000    0.000    0.000 
#
# Total GULP energy -495847.004038 kJ/mol
# GULP energy per Si atom -12396.175101 kJ/mol
# Density = 1.803102 g / cm^3
# Si number density = 18.072158 Si / 1000 Ang^3
#
#
#
# Elastic Constant Matrix: (Units=GPa)
#
#
# Indices 1 2 3 4 5 6 
#
# 1 44.5032 29.5735 26.2637 0.0000 0.0000 0.0000
# 2 29.5735 120.4201 45.2852 0.0000 0.0000 0.0000
# 3 26.2637 45.2852 120.7783 0.0000 0.0000 0.0000
# 4 0.0000 0.0000 0.0000 12.8595 0.0000 0.0000
# 5 0.0000 0.0000 0.0000 0.0000 25.0441 0.0000
# 6 0.0000 0.0000 0.0000 0.0000 0.0000 18.6027
#
#
#
# Elastic Compliance Matrix: (Units=1/GPa)
#
#
# Indices 1 2 3 4 5 6 
#
# 1 0.028547 -0.005444 -0.004166 0.000000 0.000000 0.000000
# 2 -0.005444 0.010706 -0.002830 0.000000 0.000000 0.000000
# 3 -0.004166 -0.002830 0.010247 0.000000 0.000000 0.000000
# 4 0.000000 0.000000 0.000000 0.077764 0.000000 0.000000
# 5 0.000000 0.000000 0.000000 0.000000 0.039930 0.000000
# 6 0.000000 0.000000 0.000000 0.000000 0.000000 0.053756
#
#
# Mechanical properties :
#
#
# Convention : Reuss Voigt Hill
#
# Bulk Modulus (GPa) = 40.62056 54.21626 47.41841
# Shear Modulus (GPa) = 19.68233 23.60653 21.64443
#
# Velocity S-wave (km/s) = 3.30373 3.61811 3.46449
# Velocity P-wave (km/s) = 6.08921 6.89343 6.50376
#
# Compressibility (1/GPa) = 0.02461808
#
# Stress axis : x y z
#
# Youngs Moduli (GPa) = 35.03028 93.40985 97.59136
#
# Poissons Ratio (x) = 0.50851 0.40661
# Poissons Ratio (y) = 0.19070 0.27620
# Poissons Ratio (z) = 0.14595 0.26437
#
# Static dielectric constant tensor:
#      x y z
#    x 3.016580 0.000000 0.000000 
#    y 0.000000 3.629300 0.000000 
#    z 0.000000 0.000000 3.375310 
# 
# 
# High freq. dielectric constant tensor:
#      x y z
#    x 1.665950 0.000000 0.000000 
#    y 0.000000 1.706980 0.000000 
#    z 0.000000 0.000000 1.688570 
# 
# From -- ./inp_files/47771.got.cif
#   From: 2010.03.12/outbox.cif.g09.slc.cpg/sg64_24_cif.got.tgz:47771.got - 2010.04.10 20:19:32.
