data_PCOD8262514
_publ_section_title
;
Structure prediction by ZEFSAII (Michael W. Deem and Ramdas Pophale) SiO2 
 PCOD8262514
Probable space group: C M C A
;
_chemical_formula_sum "Si O2"
_cell_formula_units_Z 96
_cell_length_a 18.408050
_cell_length_b 17.454522
_cell_length_c 14.184776
_cell_angle_alpha 90.000000
_cell_angle_beta 90.000000
_cell_angle_gamma 90.000000
_cell_volume 4557.621207
_symmetry_space_group_name_H-M "C M C A"
_symmetry_group_IT_number 64
_symmetry_cell_setting 'orthorhombic'
loop_
_space_group_symop_operation_xyz
x,y,z
-x,1/2-y,1/2+z
x,-y,-z
-x,1/2+y,1/2-z
-x,-y,-z
x,1/2+y,1/2-z
-x,y,z
x,1/2-y,1/2+z
1/2+x,1/2+y,z
1/2-x,-y,1/2+z
1/2+x,1/2-y,-z
1/2-x,y,1/2-z
1/2-x,1/2-y,-z
1/2+x,y,1/2-z
1/2-x,1/2+y,z
1/2+x,-y,1/2+z
loop_
_atom_site_type_symbol
_atom_site_label
_atom_site_fract_x
_atom_site_fract_y
_atom_site_fract_z
Si Si1 0.418790 0.118557 0.607320
Si Si2 0.311428 0.779295 0.140221
Si Si3 0.585635 0.411156 0.703256
Si Si4 0.917427 0.342535 0.594042
Si Si5 0.329251 0.442454 0.276142
Si Si6 0.656274 0.735381 0.349820
O O1 0.500000 0.094074 0.637461
O O2 0.405638 0.101232 0.496047
O O3 0.362153 0.077346 0.674259
O O4 0.409750 0.209786 0.620837
O O5 0.370601 0.735435 0.076168
O O6 0.323867 0.871004 0.150670
O O7 0.323400 0.743142 0.241408
O O8 0.231776 0.757814 0.097288
O O9 0.500000 0.413205 0.681851
O O10 0.601749 0.391223 0.812914
O O11 0.621239 0.492552 0.676713
O O12 0.626374 0.350558 0.634706
O O13 0.000000 0.313686 0.599546
O O14 0.250000 0.474319 0.250000
#
# Coordination Sequence:
#
# PCOD8262514 Si02
#       6
#    16  16  16  16  16  16
#     4  10  19  35  57  80 110 143 180 230 273 323
#     4   9  17  34  53  79 105 139 181 226 266 309
#     4  10  21  34  55  83 111 144 179 226 275 326
#     4   9  20  34  54  83 110 142 182 224 276 324
#     4  11  21  35  53  80 112 143 182 220 275 328
#     4   9  17  33  54  81 102 138 186 225 268 312
#
# _framework density 21.063618000000002
#
# number of rings (size 3 to 8) (size 9 to 14) (size 15 to 20)
#    0.000    2.333    3.333    1.000    4.667    6.000 
#    0.000    2.500    0.000    1.000    0.000    3.500 
#    0.000    0.000    0.000    0.000    0.000    0.000 
#
# Total GULP energy -594735.924290 kJ/mol
# GULP energy per Si atom -12390.331756 kJ/mol
# Density = 2.101568 g / cm^3
# Si number density = 21.063618 Si / 1000 Ang^3
#
#
#
# Elastic Constant Matrix: (Units=GPa)
#
#
# Indices 1 2 3 4 5 6 
#
# 1 129.4660 54.4024 16.4666 0.0000 0.0000 0.0000
# 2 54.4024 125.4447 -4.0223 0.0000 0.0000 0.0000
# 3 16.4666 -4.0223 21.6770 0.0000 0.0000 0.0000
# 4 0.0000 0.0000 0.0000 9.6037 0.0000 0.0000
# 5 0.0000 0.0000 0.0000 0.0000 15.5633 0.0000
# 6 0.0000 0.0000 0.0000 0.0000 0.0000 30.2068
#
#
#
# Elastic Compliance Matrix: (Units=1/GPa)
#
#
# Indices 1 2 3 4 5 6 
#
# 1 0.011052 -0.005092 -0.009340 0.000000 0.000000 0.000000
# 2 -0.005092 0.010366 0.005792 0.000000 0.000000 0.000000
# 3 -0.009340 0.005792 0.054302 0.000000 0.000000 0.000000
# 4 0.000000 0.000000 0.000000 0.104126 0.000000 0.000000
# 5 0.000000 0.000000 0.000000 0.000000 0.064254 0.000000
# 6 0.000000 0.000000 0.000000 0.000000 0.000000 0.033105
#
#
# Mechanical properties :
#
#
# Convention : Reuss Voigt Hill
#
# Bulk Modulus (GPa) = 17.11227 45.58679 31.34953
# Shear Modulus (GPa) = 15.92530 25.05749 20.49140
#
# Velocity S-wave (km/s) = 2.75263 3.45281 3.12241
# Velocity P-wave (km/s) = 4.27134 6.13069 5.28345
#
# Compressibility (1/GPa) = 0.05843759
#
# Stress axis : x y z
#
# Youngs Moduli (GPa) = 90.48224 96.47087 18.41562
#
# Poissons Ratio (x) = 0.49127 0.17201
# Poissons Ratio (y) = 0.46078 -0.10666
# Poissons Ratio (z) = 0.84513 -0.55874
#
# Static dielectric constant tensor:
#      x y z
#    x 4.340550 0.000000 0.000000 
#    y 0.000000 3.825990 0.000000 
#    z 0.000000 0.000000 3.620230 
# 
# 
# High freq. dielectric constant tensor:
#      x y z
#    x 1.839850 0.000000 0.000000 
#    y 0.000000 1.810160 0.000000 
#    z 0.000000 0.000000 1.792980 
# 
# From -- ./inp_files/33336.got.cif
#   From: 2010.03.12/outbox.cif.g09.slc.cpg/sg64_17_cif.got.tgz:33336.got - 2010.04.10 20:19:32.
