data_PCOD8262837
_publ_section_title
;
Structure prediction by ZEFSAII (Michael W. Deem and Ramdas Pophale) SiO2 
 PCOD8262837
Probable space group: C M C A
;
_chemical_formula_sum "Si O2"
_cell_formula_units_Z 96
_cell_length_a 9.282406
_cell_length_b 20.042959
_cell_length_c 29.563814
_cell_angle_alpha 90.000000
_cell_angle_beta 90.000000
_cell_angle_gamma 90.000000
_cell_volume 5500.255441
_symmetry_space_group_name_H-M "C M C A"
_symmetry_group_IT_number 64
_symmetry_cell_setting 'orthorhombic'
loop_
_space_group_symop_operation_xyz
x,y,z
-x,1/2-y,1/2+z
x,-y,-z
-x,1/2+y,1/2-z
-x,-y,-z
x,1/2+y,1/2-z
-x,y,z
x,1/2-y,1/2+z
1/2+x,1/2+y,z
1/2-x,-y,1/2+z
1/2+x,1/2-y,-z
1/2-x,y,1/2-z
1/2-x,1/2-y,-z
1/2+x,y,1/2-z
1/2-x,1/2+y,z
1/2+x,-y,1/2+z
loop_
_atom_site_type_symbol
_atom_site_label
_atom_site_fract_x
_atom_site_fract_y
_atom_site_fract_z
Si Si1 0.831485 0.300490 0.294780
Si Si2 0.166860 0.937489 0.969665
Si Si3 0.833348 0.061100 0.134054
Si Si4 0.169479 0.804960 0.528853
Si Si5 0.167262 0.807466 0.633015
Si Si6 0.668641 0.452296 0.205252
O O1 0.750000 0.275951 0.250000
O O2 0.782521 0.254932 0.336748
O O3 0.788845 0.376384 0.307018
O O4 0.000000 0.293668 0.285196
O O5 0.198536 0.957064 0.917896
O O6 0.266773 0.876515 0.985090
O O7 0.000000 0.917548 0.976851
O O8 0.210882 0.000000 0.000000
O O9 0.749491 0.126869 0.149650
O O10 0.000000 0.076213 0.142150
O O11 0.781224 0.998395 0.163696
O O12 0.250000 0.750000 0.500000
O O13 0.203768 0.789988 0.581251
O O14 0.000000 0.803615 0.518467
O O15 0.000000 0.822678 0.639191
O O16 0.500000 0.458903 0.214631
O O17 0.750000 0.476734 0.250000
#
# Coordination Sequence:
#
# PCOD8262837 Si02
#       6
#    16  16  16  16  16  16
#     4   9  18  33  51  71  96 126 161 199 239 284
#     4   9  18  33  53  75  99 129 164 201 244 295
#     4   9  18  32  50  72  97 125 158 197 237 282
#     4  10  20  34  52  74 101 132 166 205 248 294
#     4   9  19  34  51  71  97 129 161 197 241 288
#     4   9  18  32  49  69  94 124 158 196 236 279
#
# _framework density 17.453734000000001
#
# number of rings (size 3 to 8) (size 9 to 14) (size 15 to 20)
#    0.000    2.833    0.000    0.500    0.000    4.333 
#    0.000    8.333    0.000    4.000    0.000    0.000 
#    0.000    0.000    0.000    0.000    0.000    0.000 
#
# Total GULP energy -595291.852767 kJ/mol
# GULP energy per Si atom -12401.913599 kJ/mol
# Density = 1.741401 g / cm^3
# Si number density = 17.453734 Si / 1000 Ang^3
#
#
#
# Elastic Constant Matrix: (Units=GPa)
#
#
# Indices 1 2 3 4 5 6 
#
# 1 59.6799 62.5416 50.7150 0.0000 0.0000 0.0000
# 2 62.5416 142.1597 94.6333 0.0000 0.0000 0.0000
# 3 50.7150 94.6333 105.2673 0.0000 0.0000 0.0000
# 4 0.0000 0.0000 0.0000 40.6374 0.0000 0.0000
# 5 0.0000 0.0000 0.0000 0.0000 28.4889 0.0000
# 6 0.0000 0.0000 0.0000 0.0000 0.0000 32.9428
#
#
#
# Elastic Compliance Matrix: (Units=1/GPa)
#
#
# Indices 1 2 3 4 5 6 
#
# 1 0.033097 -0.009827 -0.007111 0.000000 0.000000 0.000000
# 2 -0.009827 0.020435 -0.013636 0.000000 0.000000 0.000000
# 3 -0.007111 -0.013636 0.025184 0.000000 0.000000 0.000000
# 4 0.000000 0.000000 0.000000 0.024608 0.000000 0.000000
# 5 0.000000 0.000000 0.000000 0.000000 0.035101 0.000000
# 6 0.000000 0.000000 0.000000 0.000000 0.000000 0.030356
#
#
# Mechanical properties :
#
#
# Convention : Reuss Voigt Hill
#
# Bulk Modulus (GPa) = 56.92242 80.32073 68.62158
# Shear Modulus (GPa) = 21.20565 27.02831 24.11698
#
# Velocity S-wave (km/s) = 3.48941 3.93946 3.72124
# Velocity P-wave (km/s) = 6.99420 8.17383 7.60692
#
# Compressibility (1/GPa) = 0.01756777
#
# Stress axis : x y z
#
# Youngs Moduli (GPa) = 30.21412 48.93534 39.70720
#
# Poissons Ratio (x) = 0.48089 0.28236
# Poissons Ratio (y) = 0.29691 0.54146
# Poissons Ratio (z) = 0.21485 0.66730
#
# Static dielectric constant tensor:
#      x y z
#    x 3.232160 0.000000 0.000000 
#    y 0.000000 3.357690 0.000000 
#    z 0.000000 0.000000 3.331750 
# 
# 
# High freq. dielectric constant tensor:
#      x y z
#    x 1.672170 0.000000 0.000000 
#    y 0.000000 1.676990 0.000000 
#    z 0.000000 0.000000 1.673350 
# 
# From -- ./inp_files/48093.got.cif
#   From: 2010.03.12/outbox.cif.g09.slc.cpg/sg64_25_cif.got.tgz:48093.got - 2010.04.10 20:19:32.
