data_PCOD8262829
_publ_section_title
;
Structure prediction by ZEFSAII (Michael W. Deem and Ramdas Pophale) SiO2 
 PCOD8262829
Probable space group: C M C A
;
_chemical_formula_sum "Si O2"
_cell_formula_units_Z 80
_cell_length_a 8.895690
_cell_length_b 27.977920
_cell_length_c 18.257490
_cell_angle_alpha 90.000000
_cell_angle_beta 90.000000
_cell_angle_gamma 90.000000
_cell_volume 4543.977116
_symmetry_space_group_name_H-M "C M C A"
_symmetry_group_IT_number 64
_symmetry_cell_setting 'orthorhombic'
loop_
_space_group_symop_operation_xyz
x,y,z
-x,1/2-y,1/2+z
x,-y,-z
-x,1/2+y,1/2-z
-x,-y,-z
x,1/2+y,1/2-z
-x,y,z
x,1/2-y,1/2+z
1/2+x,1/2+y,z
1/2-x,-y,1/2+z
1/2+x,1/2-y,-z
1/2-x,y,1/2-z
1/2-x,1/2-y,-z
1/2+x,y,1/2-z
1/2-x,1/2+y,z
1/2+x,-y,1/2+z
loop_
_atom_site_type_symbol
_atom_site_label
_atom_site_fract_x
_atom_site_fract_y
_atom_site_fract_z
Si Si1 0.666987 0.568787 0.871651
Si Si2 0.332432 0.480963 0.582539
Si Si3 0.665172 0.105719 0.464746
Si Si4 0.178845 0.661430 0.824603
Si Si5 0.320340 0.702336 0.968674
O O1 0.500000 0.570348 0.836219
O O2 0.733370 0.515270 0.865472
O O3 0.776105 0.605675 0.830674
O O4 0.655187 0.582356 0.955919
O O5 0.329955 0.500000 0.500000
O O6 0.500000 0.480770 0.614161
O O7 0.272454 0.426395 0.586164
O O8 0.500000 0.105900 0.428524
O O9 0.724558 0.159951 0.474534
O O10 0.250000 0.682227 0.750000
O O11 0.248507 0.692458 0.889862
O O12 0.000000 0.666578 0.824580
O O13 0.500000 0.705679 0.960300
O O14 0.250000 0.750000 0.000000
#
# Coordination Sequence:
#
# PCOD8262829 Si02
#       5
#    16  16  16  16  16
#     4   9  16  27  42  62  90 122 154 189 232 282
#     4   9  15  22  36  60  88 118 151 184 221 268
#     4   8  15  26  40  60  89 122 154 191 236 284
#     4  11  21  34  51  72  99 130 165 205 251 305
#     4  10  20  34  51  73 100 131 168 212 262 308
#
# _framework density 17.605723000000001
#
# number of rings (size 3 to 8) (size 9 to 14) (size 15 to 20)
#    0.000    2.600    0.000    4.800    0.000    8.000 
#    0.000    0.000    0.000    0.000    0.000    1.400 
#    0.000    9.600    0.000    0.000    0.000    0.000 
#
# Total GULP energy -495796.880756 kJ/mol
# GULP energy per Si atom -12394.922019 kJ/mol
# Density = 1.756565 g / cm^3
# Si number density = 17.605723 Si / 1000 Ang^3
#
#
#
# Elastic Constant Matrix: (Units=GPa)
#
#
# Indices 1 2 3 4 5 6 
#
# 1 140.5960 67.5619 34.8695 0.0000 0.0000 0.0000
# 2 67.5619 146.3790 38.7835 0.0000 0.0000 0.0000
# 3 34.8695 38.7835 47.2691 0.0000 0.0000 0.0000
# 4 0.0000 0.0000 0.0000 10.6973 0.0000 0.0000
# 5 0.0000 0.0000 0.0000 0.0000 20.5492 0.0000
# 6 0.0000 0.0000 0.0000 0.0000 0.0000 30.6417
#
#
#
# Elastic Compliance Matrix: (Units=1/GPa)
#
#
# Indices 1 2 3 4 5 6 
#
# 1 0.009840 -0.003346 -0.004513 0.000000 0.000000 0.000000
# 2 -0.003346 0.009867 -0.005628 0.000000 0.000000 0.000000
# 3 -0.004513 -0.005628 0.029102 0.000000 0.000000 0.000000
# 4 0.000000 0.000000 0.000000 0.093481 0.000000 0.000000
# 5 0.000000 0.000000 0.000000 0.000000 0.048664 0.000000
# 6 0.000000 0.000000 0.000000 0.000000 0.000000 0.032635
#
#
# Mechanical properties :
#
#
# Convention : Reuss Voigt Hill
#
# Bulk Modulus (GPa) = 45.79714 68.51932 57.15823
# Shear Modulus (GPa) = 19.39179 25.24625 22.31902
#
# Velocity S-wave (km/s) = 3.32241 3.79090 3.56436
# Velocity P-wave (km/s) = 6.38647 7.62657 7.03390
#
# Compressibility (1/GPa) = 0.02183542
#
# Stress axis : x y z
#
# Youngs Moduli (GPa) = 101.62892 101.34967 34.36160
#
# Poissons Ratio (x) = 0.33909 0.15509
# Poissons Ratio (y) = 0.34002 0.19337
# Poissons Ratio (z) = 0.45870 0.57035
#
# Static dielectric constant tensor:
#      x y z
#    x 3.520050 0.000000 0.000000 
#    y 0.000000 3.390150 0.000000 
#    z 0.000000 0.000000 2.871100 
# 
# 
# High freq. dielectric constant tensor:
#      x y z
#    x 1.698100 0.000000 0.000000 
#    y 0.000000 1.672510 0.000000 
#    z 0.000000 0.000000 1.623720 
# 
# From -- ./inp_files/29723.got.cif
#   From: 2010.03.12/outbox.cif.g09.slc.cpg/sg64_15_cif.got.tgz:29723.got - 2010.04.10 20:19:32.
