data_PCOD8262908
_publ_section_title
;
Structure prediction by ZEFSAII (Michael W. Deem and Ramdas Pophale) SiO2 
 PCOD8262908
Probable space group: C M C A
;
_chemical_formula_sum "Si O2"
_cell_formula_units_Z 112
_cell_length_a 18.267344
_cell_length_b 18.460531
_cell_length_c 16.928594
_cell_angle_alpha 90.000000
_cell_angle_beta 90.000000
_cell_angle_gamma 90.000000
_cell_volume 5708.742914
_symmetry_space_group_name_H-M "C M C A"
_symmetry_group_IT_number 64
_symmetry_cell_setting 'orthorhombic'
loop_
_space_group_symop_operation_xyz
x,y,z
-x,1/2-y,1/2+z
x,-y,-z
-x,1/2+y,1/2-z
-x,-y,-z
x,1/2+y,1/2-z
-x,y,z
x,1/2-y,1/2+z
1/2+x,1/2+y,z
1/2-x,-y,1/2+z
1/2+x,1/2-y,-z
1/2-x,y,1/2-z
1/2-x,1/2-y,-z
1/2+x,y,1/2-z
1/2-x,1/2+y,z
1/2+x,-y,1/2+z
loop_
_atom_site_type_symbol
_atom_site_label
_atom_site_fract_x
_atom_site_fract_y
_atom_site_fract_z
Si Si1 0.416169 0.438516 0.438633
Si Si2 0.158573 0.681655 0.026388
Si Si3 0.084231 0.415751 0.675258
Si Si4 0.584476 0.946938 0.235881
Si Si5 0.081680 0.810813 0.680331
Si Si6 0.819925 0.194157 0.083967
Si Si7 0.170153 0.700047 0.767948
O O1 0.397370 0.500000 0.500000
O O2 0.500000 0.410240 0.445343
O O3 0.359140 0.372652 0.453792
O O4 0.402794 0.475302 0.353254
O O5 0.096541 0.663873 0.091088
O O6 0.237639 0.667478 0.066684
O O7 0.152047 0.764777 0.995091
O O8 0.114866 0.496450 0.697589
O O9 0.090140 0.376042 0.758860
O O10 0.132286 0.376918 0.606999
O O11 0.000000 0.417234 0.645574
O O12 0.500000 0.937918 0.255561
O O13 0.618154 0.868040 0.235199
O O14 0.142501 0.750675 0.697418
O O15 0.000000 0.778410 0.686725
O O16 0.828577 0.253750 0.152171
O O17 0.250000 0.670336 0.750000
#
# Coordination Sequence:
#
# PCOD8262908 Si02
#       7
#    16  16  16  16  16  16  16
#     4  10  20  34  55  84 118 150 184 235 295 350
#     4  11  20  36  57  83 123 151 192 237 293 356
#     4   9  20  38  58  83 114 149 198 244 286 350
#     4  10  20  37  58  80 110 147 190 240 289 342
#     4  10  20  34  57  84 111 149 191 236 288 345
#     4  10  22  37  58  83 115 154 190 239 293 348
#     4  11  20  38  55  81 114 148 193 242 283 344
#
# _framework density 19.619029999999999
#
# number of rings (size 3 to 8) (size 9 to 14) (size 15 to 20)
#    0.000    1.857    2.857    1.714    0.000    4.000 
#    5.143    0.000    0.000    0.000    0.000    3.000 
#    0.000    0.000    0.000    0.000    0.000    0.000 
#
# Total GULP energy -693965.514450 kJ/mol
# GULP energy per Si atom -12392.241329 kJ/mol
# Density = 1.957438 g / cm^3
# Si number density = 19.619030 Si / 1000 Ang^3
#
#
#
# Elastic Constant Matrix: (Units=GPa)
#
#
# Indices 1 2 3 4 5 6 
#
# 1 65.8070 40.2158 33.3316 0.0000 0.0000 0.0000
# 2 40.2158 84.5393 15.4377 0.0000 0.0000 0.0000
# 3 33.3316 15.4377 43.5091 0.0000 0.0000 0.0000
# 4 0.0000 0.0000 0.0000 39.0273 0.0000 0.0000
# 5 0.0000 0.0000 0.0000 0.0000 29.7065 0.0000
# 6 0.0000 0.0000 0.0000 0.0000 0.0000 27.8623
#
#
#
# Elastic Compliance Matrix: (Units=1/GPa)
#
#
# Indices 1 2 3 4 5 6 
#
# 1 0.033247 -0.011938 -0.021234 0.000000 0.000000 0.000000
# 2 -0.011938 0.016935 0.003137 0.000000 0.000000 0.000000
# 3 -0.021234 0.003137 0.038138 0.000000 0.000000 0.000000
# 4 0.000000 0.000000 0.000000 0.025623 0.000000 0.000000
# 5 0.000000 0.000000 0.000000 0.000000 0.033663 0.000000
# 6 0.000000 0.000000 0.000000 0.000000 0.000000 0.035891
#
#
# Mechanical properties :
#
#
# Convention : Reuss Voigt Hill
#
# Bulk Modulus (GPa) = 35.39964 41.31396 38.35680
# Shear Modulus (GPa) = 19.76423 26.31056 23.03739
#
# Velocity S-wave (km/s) = 3.17740 3.66604 3.43043
# Velocity P-wave (km/s) = 5.61639 6.24689 5.94001
#
# Compressibility (1/GPa) = 0.02824888
#
# Stress axis : x y z
#
# Youngs Moduli (GPa) = 30.07832 59.04923 26.22089
#
# Poissons Ratio (x) = 0.70493 0.55677
# Poissons Ratio (y) = 0.35908 -0.08225
# Poissons Ratio (z) = 0.63868 -0.18522
#
# Static dielectric constant tensor:
#      x y z
#    x 3.537840 0.000000 0.000000 
#    y 0.000000 3.497320 0.000000 
#    z 0.000000 0.000000 3.679060 
# 
# 
# High freq. dielectric constant tensor:
#      x y z
#    x 1.758810 0.000000 0.000000 
#    y 0.000000 1.755870 0.000000 
#    z 0.000000 0.000000 1.760520 
# 
# From -- ./inp_files/34479.got.cif
#   From: 2010.03.12/outbox.cif.g09.slc.cpg/sg64_18_cif.got.tgz:34479.got - 2010.04.10 20:19:32.
