data_PCOD8262110
_publ_section_title
;
Structure prediction by ZEFSAII (Michael W. Deem and Ramdas Pophale) SiO2 
 PCOD8262110
Probable space group: C M C A
;
_chemical_formula_sum "Si O2"
_cell_formula_units_Z 80
_cell_length_a 9.073955
_cell_length_b 25.430351
_cell_length_c 19.870384
_cell_angle_alpha 90.000000
_cell_angle_beta 90.000000
_cell_angle_gamma 90.000000
_cell_volume 4585.167820
_symmetry_space_group_name_H-M "C M C A"
_symmetry_group_IT_number 64
_symmetry_cell_setting 'orthorhombic'
loop_
_space_group_symop_operation_xyz
x,y,z
-x,1/2-y,1/2+z
x,-y,-z
-x,1/2+y,1/2-z
-x,-y,-z
x,1/2+y,1/2-z
-x,y,z
x,1/2-y,1/2+z
1/2+x,1/2+y,z
1/2-x,-y,1/2+z
1/2+x,1/2-y,-z
1/2-x,y,1/2-z
1/2-x,1/2-y,-z
1/2+x,y,1/2-z
1/2-x,1/2+y,z
1/2+x,-y,1/2+z
loop_
_atom_site_type_symbol
_atom_site_label
_atom_site_fract_x
_atom_site_fract_y
_atom_site_fract_z
Si Si1 0.673586 0.635405 0.924302
Si Si2 0.172569 0.136919 0.432290
Si Si3 0.671463 0.059031 0.182531
Si Si4 0.827047 0.562326 0.818542
Si Si5 0.167713 0.751063 0.068676
O O1 0.500000 0.622437 0.922404
O O2 0.761560 0.593872 0.880562
O O3 0.708487 0.694231 0.893180
O O4 0.731135 0.631223 0.000628
O O5 0.229168 0.093222 0.380137
O O6 0.197483 0.194507 0.395863
O O7 0.000000 0.128936 0.450291
O O8 0.500000 0.068352 0.193780
O O9 0.750000 0.078651 0.250000
O O10 0.708620 0.998532 0.167249
O O11 0.750000 0.581279 0.750000
O O12 0.000000 0.573068 0.812202
O O13 0.000000 0.755817 0.047664
O O14 0.250000 0.750000 0.000000
#
# Coordination Sequence:
#
# PCOD8262110 Si02
#       5
#    16  16  16  16  16
#     4  10  19  31  49  75 101 127 160 198 236 281
#     4   9  17  32  52  73  97 127 160 198 240 284
#     4   9  19  34  52  71  94 125 161 198 241 288
#     4  10  20  35  52  70  94 127 162 198 240 287
#     4   8  15  28  47  69  96 126 157 192 234 280
#
# _framework density 17.447562999999999
#
# number of rings (size 3 to 8) (size 9 to 14) (size 15 to 20)
#    0.000    2.800    0.000    1.200    0.000    3.200 
#    0.000    5.000    0.000    2.400    0.000    0.000 
#    0.000    0.000    0.000    0.000    0.000    0.000 
#
# Total GULP energy -495562.592233 kJ/mol
# GULP energy per Si atom -12389.064806 kJ/mol
# Density = 1.740785 g / cm^3
# Si number density = 17.447563 Si / 1000 Ang^3
#
#
#
# Elastic Constant Matrix: (Units=GPa)
#
#
# Indices 1 2 3 4 5 6 
#
# 1 61.6189 44.6628 38.8857 0.0000 0.0000 0.0000
# 2 44.6628 110.0928 67.4546 0.0000 0.0000 0.0000
# 3 38.8857 67.4546 91.0970 0.0000 0.0000 0.0000
# 4 0.0000 0.0000 0.0000 4.5337 0.0000 0.0000
# 5 0.0000 0.0000 0.0000 0.0000 30.2455 0.0000
# 6 0.0000 0.0000 0.0000 0.0000 0.0000 23.6753
#
#
#
# Elastic Compliance Matrix: (Units=1/GPa)
#
#
# Indices 1 2 3 4 5 6 
#
# 1 0.024490 -0.006462 -0.005669 0.000000 0.000000 0.000000
# 2 -0.006462 0.018331 -0.010816 0.000000 0.000000 0.000000
# 3 -0.005669 -0.010816 0.021406 0.000000 0.000000 0.000000
# 4 0.000000 0.000000 0.000000 0.220572 0.000000 0.000000
# 5 0.000000 0.000000 0.000000 0.000000 0.033063 0.000000
# 6 0.000000 0.000000 0.000000 0.000000 0.000000 0.042238
#
#
# Mechanical properties :
#
#
# Convention : Reuss Voigt Hill
#
# Bulk Modulus (GPa) = 54.54220 62.75720 58.64970
# Shear Modulus (GPa) = 12.13284 19.14460 15.63872
#
# Velocity S-wave (km/s) = 2.63988 3.31609 2.99712
# Velocity P-wave (km/s) = 6.37342 7.12103 6.75757
#
# Compressibility (1/GPa) = 0.01833443
#
# Stress axis : x y z
#
# Youngs Moduli (GPa) = 40.83306 54.55095 46.71596
#
# Poissons Ratio (x) = 0.35249 0.26484
# Poissons Ratio (y) = 0.26385 0.50527
# Poissons Ratio (z) = 0.23149 0.59001
#
# Static dielectric constant tensor:
#      x y z
#    x 3.242040 0.000000 0.000000 
#    y 0.000000 3.985920 0.000000 
#    z 0.000000 0.000000 2.979530 
# 
# 
# High freq. dielectric constant tensor:
#      x y z
#    x 1.681130 0.000000 0.000000 
#    y 0.000000 1.692270 0.000000 
#    z 0.000000 0.000000 1.641230 
# 
# From -- ./inp_files/29702.got.cif
#   From: 2010.03.12/outbox.cif.g09.slc.cpg/sg64_15_cif.got.tgz:29702.got - 2010.04.10 20:19:32.
