data_PCOD8262147
_publ_section_title
;
Structure prediction by ZEFSAII (Michael W. Deem and Ramdas Pophale) SiO2 
 PCOD8262147
Probable space group: C M C A
;
_chemical_formula_sum "Si O2"
_cell_formula_units_Z 88
_cell_length_a 13.344913
_cell_length_b 13.430655
_cell_length_c 27.121606
_cell_angle_alpha 90.000000
_cell_angle_beta 90.000000
_cell_angle_gamma 90.000000
_cell_volume 4861.030463
_symmetry_space_group_name_H-M "C M C A"
_symmetry_group_IT_number 64
_symmetry_cell_setting 'orthorhombic'
loop_
_space_group_symop_operation_xyz
x,y,z
-x,1/2-y,1/2+z
x,-y,-z
-x,1/2+y,1/2-z
-x,-y,-z
x,1/2+y,1/2-z
-x,y,z
x,1/2-y,1/2+z
1/2+x,1/2+y,z
1/2-x,-y,1/2+z
1/2+x,1/2-y,-z
1/2-x,y,1/2-z
1/2-x,1/2-y,-z
1/2+x,y,1/2-z
1/2-x,1/2+y,z
1/2+x,-y,1/2+z
loop_
_atom_site_type_symbol
_atom_site_label
_atom_site_fract_x
_atom_site_fract_y
_atom_site_fract_z
Si Si1 0.750000 0.668027 0.250000
Si Si2 0.613697 0.778187 0.971846
Si Si3 0.298830 0.809437 0.072489
Si Si4 0.387541 0.530692 0.315217
Si Si5 0.382152 0.299587 0.321328
Si Si6 0.112056 0.983915 0.573931
O O1 0.688707 0.597432 0.285701
O O2 0.673516 0.735407 0.219591
O O3 0.500000 0.747512 0.960436
O O4 0.681549 0.716712 0.933328
O O5 0.630939 0.896939 0.965365
O O6 0.641634 0.753253 0.028409
O O7 0.340982 0.770984 0.124512
O O8 0.308460 0.928326 0.067093
O O9 0.500000 0.549088 0.295414
O O10 0.359645 0.414637 0.309875
O O11 0.378743 0.563903 0.371954
O O12 0.500000 0.276278 0.319633
O O13 0.000000 0.030117 0.567596
#
# Coordination Sequence:
#
# PCOD8262147 Si02
#       6
#     8  16  16  16  16  16
#     4  12  20  32  54  76  98 128 168 210 258 306
#     4  10  19  31  52  80 104 132 172 209 242 290
#     4  10  19  32  53  76 105 136 166 205 252 299
#     4   9  19  34  50  71  99 129 166 211 252 297
#     4  10  21  36  53  75 103 134 167 206 256 306
#     4   9  17  32  53  73  95 129 173 212 245 288
#
# _framework density 18.103155999999998
#
# number of rings (size 3 to 8) (size 9 to 14) (size 15 to 20)
#    0.000    2.182    0.000    5.455    0.000    1.455 
#    0.000    0.909    0.000   24.000    0.000    0.000 
#    0.000    0.000    0.000    0.000    0.000    0.000 
#
# Total GULP energy -545604.063186 kJ/mol
# GULP energy per Si atom -12400.092345 kJ/mol
# Density = 1.806195 g / cm^3
# Si number density = 18.103156 Si / 1000 Ang^3
#
#
#
# Elastic Constant Matrix: (Units=GPa)
#
#
# Indices 1 2 3 4 5 6 
#
# 1 131.7091 51.2324 48.7868 0.0000 0.0000 0.0000
# 2 51.2324 50.8621 26.3983 0.0000 0.0000 0.0000
# 3 48.7868 26.3983 89.0186 0.0000 0.0000 0.0000
# 4 0.0000 0.0000 0.0000 23.3238 0.0000 0.0000
# 5 0.0000 0.0000 0.0000 0.0000 28.0664 0.0000
# 6 0.0000 0.0000 0.0000 0.0000 0.0000 31.6431
#
#
#
# Elastic Compliance Matrix: (Units=1/GPa)
#
#
# Indices 1 2 3 4 5 6 
#
# 1 0.013594 -0.011614 -0.004006 0.000000 0.000000 0.000000
# 2 -0.011614 0.033159 -0.003468 0.000000 0.000000 0.000000
# 3 -0.004006 -0.003468 0.014458 0.000000 0.000000 0.000000
# 4 0.000000 0.000000 0.000000 0.042875 0.000000 0.000000
# 5 0.000000 0.000000 0.000000 0.000000 0.035630 0.000000
# 6 0.000000 0.000000 0.000000 0.000000 0.000000 0.031603
#
#
# Mechanical properties :
#
#
# Convention : Reuss Voigt Hill
#
# Bulk Modulus (GPa) = 43.41309 58.26941 50.84125
# Shear Modulus (GPa) = 23.02314 26.28480 24.65397
#
# Velocity S-wave (km/s) = 3.57006 3.81457 3.69434
# Velocity P-wave (km/s) = 6.40522 7.18739 6.80755
#
# Compressibility (1/GPa) = 0.02303453
#
# Stress axis : x y z
#
# Youngs Moduli (GPa) = 73.56238 30.15737 69.16697
#
# Poissons Ratio (x) = 0.35024 0.27709
# Poissons Ratio (y) = 0.85432 0.23990
# Poissons Ratio (z) = 0.29470 0.10460
#
# Static dielectric constant tensor:
#      x y z
#    x 3.358930 0.000000 0.000000 
#    y 0.000000 3.139980 0.000000 
#    z 0.000000 0.000000 3.551670 
# 
# 
# High freq. dielectric constant tensor:
#      x y z
#    x 1.699300 0.000000 0.000000 
#    y 0.000000 1.683490 0.000000 
#    z 0.000000 0.000000 1.712980 
# 
# From -- ./inp_files/49219.got.cif
#   From: 2010.03.12/outbox.cif.g09.slc.cpg/sg64_25_cif.got.tgz:49219.got - 2010.04.10 20:19:32.
