data_PCOD8262764
_publ_section_title
;
Structure prediction by ZEFSAII (Michael W. Deem and Ramdas Pophale) SiO2 
 PCOD8262764
Probable space group: C M C A
;
_chemical_formula_sum "Si O2"
_cell_formula_units_Z 96
_cell_length_a 8.903385
_cell_length_b 23.890773
_cell_length_c 25.368216
_cell_angle_alpha 90.000000
_cell_angle_beta 90.000000
_cell_angle_gamma 90.000000
_cell_volume 5396.041514
_symmetry_space_group_name_H-M "C M C A"
_symmetry_group_IT_number 64
_symmetry_cell_setting 'orthorhombic'
loop_
_space_group_symop_operation_xyz
x,y,z
-x,1/2-y,1/2+z
x,-y,-z
-x,1/2+y,1/2-z
-x,-y,-z
x,1/2+y,1/2-z
-x,y,z
x,1/2-y,1/2+z
1/2+x,1/2+y,z
1/2-x,-y,1/2+z
1/2+x,1/2-y,-z
1/2-x,y,1/2-z
1/2-x,1/2-y,-z
1/2+x,y,1/2-z
1/2-x,1/2+y,z
1/2+x,-y,1/2+z
loop_
_atom_site_type_symbol
_atom_site_label
_atom_site_fract_x
_atom_site_fract_y
_atom_site_fract_z
Si Si1 0.825147 0.106903 0.572382
Si Si2 0.177129 0.732111 0.945307
Si Si3 0.329554 0.836252 0.619473
Si Si4 0.172675 0.508356 0.619549
Si Si5 0.666778 0.074743 0.471290
Si Si6 0.822756 0.581341 0.193224
O O1 0.767517 0.170905 0.573046
O O2 0.793783 0.080640 0.515127
O O3 0.000000 0.102734 0.584977
O O4 0.736954 0.071480 0.617044
O O5 0.222101 0.774177 0.897867
O O6 0.000000 0.732816 0.954937
O O7 0.250000 0.750000 0.000000
O O8 0.500000 0.836660 0.641189
O O9 0.317169 0.873546 0.567730
O O10 0.222680 0.860495 0.664894
O O11 0.190062 0.482741 0.560797
O O12 0.266102 0.472250 0.660951
O O13 0.000000 0.508431 0.637895
O O14 0.500000 0.075261 0.497304
O O15 0.750000 0.579692 0.250000
O O16 0.000000 0.578414 0.198248
#
# Coordination Sequence:
#
# PCOD8262764 Si02
#       6
#    16  16  16  16  16  16
#     4  11  21  30  46  75 108 143 183 221 259 306
#     4  10  20  33  50  74 109 150 187 222 260 310
#     4   9  18  34  53  76 108 144 181 220 265 312
#     4  10  21  36  52  73 104 140 177 216 266 320
#     4   9  17  30  48  69 100 143 182 214 258 311
#     4  11  22  38  61  85 106 130 168 220 275 325
#
# _framework density 17.790818999999999
#
# number of rings (size 3 to 8) (size 9 to 14) (size 15 to 20)
#    0.000    2.000    1.667    4.000    0.000    6.667 
#    0.000    0.000    0.000    1.000    0.000    4.667 
#    0.000    0.000    0.000    0.000    0.000    0.000 
#
# Total GULP energy -595191.017934 kJ/mol
# GULP energy per Si atom -12399.812874 kJ/mol
# Density = 1.775033 g / cm^3
# Si number density = 17.790819 Si / 1000 Ang^3
#
#
#
# Elastic Constant Matrix: (Units=GPa)
#
#
# Indices 1 2 3 4 5 6 
#
# 1 102.7819 54.7325 38.9088 0.0000 0.0000 0.0000
# 2 54.7325 143.2655 53.2335 0.0000 0.0000 0.0000
# 3 38.9088 53.2335 48.7388 0.0000 0.0000 0.0000
# 4 0.0000 0.0000 0.0000 4.4885 0.0000 0.0000
# 5 0.0000 0.0000 0.0000 0.0000 29.6227 0.0000
# 6 0.0000 0.0000 0.0000 0.0000 0.0000 26.2448
#
#
#
# Elastic Compliance Matrix: (Units=1/GPa)
#
#
# Indices 1 2 3 4 5 6 
#
# 1 0.014293 -0.002055 -0.009167 0.000000 0.000000 0.000000
# 2 -0.002055 0.012043 -0.011514 0.000000 0.000000 0.000000
# 3 -0.009167 -0.011514 0.040411 0.000000 0.000000 0.000000
# 4 0.000000 0.000000 0.000000 0.222794 0.000000 0.000000
# 5 0.000000 0.000000 0.000000 0.000000 0.033758 0.000000
# 6 0.000000 0.000000 0.000000 0.000000 0.000000 0.038103
#
#
# Mechanical properties :
#
#
# Convention : Reuss Voigt Hill
#
# Bulk Modulus (GPa) = 46.99734 65.39287 56.19511
# Shear Modulus (GPa) = 12.07835 21.93194 17.00515
#
# Velocity S-wave (km/s) = 2.60842 3.51489 3.09502
# Velocity P-wave (km/s) = 5.96203 7.30129 6.66538
#
# Compressibility (1/GPa) = 0.02127780
#
# Stress axis : x y z
#
# Youngs Moduli (GPa) = 69.96188 83.03534 24.74597
#
# Poissons Ratio (x) = 0.17060 0.22684
# Poissons Ratio (y) = 0.14374 0.28491
# Poissons Ratio (z) = 0.64132 0.95603
#
# Static dielectric constant tensor:
#      x y z
#    x 3.334030 0.000000 0.000000 
#    y 0.000000 3.680720 0.000000 
#    z 0.000000 0.000000 3.027710 
# 
# 
# High freq. dielectric constant tensor:
#      x y z
#    x 1.691300 0.000000 0.000000 
#    y 0.000000 1.698150 0.000000 
#    z 0.000000 0.000000 1.652090 
# 
# From -- ./inp_files/42992.got.cif
#   From: 2010.03.12/outbox.cif.g09.slc.cpg/sg64_22_cif.got.tgz:42992.got - 2010.04.10 20:19:32.
