data_PCOD8262107
_publ_section_title
;
Structure prediction by ZEFSAII (Michael W. Deem and Ramdas Pophale) SiO2 
 PCOD8262107
Probable space group: C M C A
;
_chemical_formula_sum "Si O2"
_cell_formula_units_Z 80
_cell_length_a 8.730654
_cell_length_b 27.530540
_cell_length_c 18.153218
_cell_angle_alpha 90.000000
_cell_angle_beta 90.000000
_cell_angle_gamma 90.000000
_cell_volume 4363.300565
_symmetry_space_group_name_H-M "C M C A"
_symmetry_group_IT_number 64
_symmetry_cell_setting 'orthorhombic'
loop_
_space_group_symop_operation_xyz
x,y,z
-x,1/2-y,1/2+z
x,-y,-z
-x,1/2+y,1/2-z
-x,-y,-z
x,1/2+y,1/2-z
-x,y,z
x,1/2-y,1/2+z
1/2+x,1/2+y,z
1/2-x,-y,1/2+z
1/2+x,1/2-y,-z
1/2-x,y,1/2-z
1/2-x,1/2-y,-z
1/2+x,y,1/2-z
1/2-x,1/2+y,z
1/2+x,-y,1/2+z
loop_
_atom_site_type_symbol
_atom_site_label
_atom_site_fract_x
_atom_site_fract_y
_atom_site_fract_z
Si Si1 0.680620 0.958507 0.327875
Si Si2 0.821601 0.941494 0.889333
Si Si3 0.320361 0.660732 0.173417
Si Si4 0.818818 0.300015 0.973201
Si Si5 0.319020 0.393291 0.036348
O O1 0.500000 0.963162 0.319073
O O2 0.750000 0.943397 0.250000
O O3 0.724419 0.916542 0.385609
O O4 0.753879 0.009650 0.356048
O O5 0.785499 0.896544 0.835615
O O6 0.000000 0.951862 0.896343
O O7 0.760000 0.929272 0.971329
O O8 0.500000 0.671505 0.171137
O O9 0.250000 0.678810 0.250000
O O10 0.240621 0.690570 0.108904
O O11 0.000000 0.297140 0.972720
O O12 0.750000 0.250000 0.000000
O O13 0.765186 0.341888 0.029482
O O14 0.500000 0.384315 0.027248
#
# Coordination Sequence:
#
# PCOD8262107 Si02
#       5
#    16  16  16  16  16
#     4  10  19  31  49  74 107 144 178 213 253 302
#     4   8  15  29  51  76 103 138 177 214 253 302
#     4  10  19  33  54  82 113 141 173 214 261 310
#     4  11  22  38  59  80 103 133 173 220 271 322
#     4   9  18  34  54  75 101 136 178 218 260 311
#
# _framework density 18.334744000000001
#
# number of rings (size 3 to 8) (size 9 to 14) (size 15 to 20)
#    0.000    2.400    0.000    4.800    0.000    3.200 
#    0.000    5.000    0.000    8.400    0.000    0.000 
#    0.000    0.000    0.000    0.000    0.000    0.000 
#
# Total GULP energy -495977.758243 kJ/mol
# GULP energy per Si atom -12399.443956 kJ/mol
# Density = 1.829301 g / cm^3
# Si number density = 18.334744 Si / 1000 Ang^3
#
#
#
# Elastic Constant Matrix: (Units=GPa)
#
#
# Indices 1 2 3 4 5 6 
#
# 1 88.1660 57.6609 59.0345 0.0000 0.0000 0.0000
# 2 57.6609 130.0644 82.6706 0.0000 0.0000 0.0000
# 3 59.0345 82.6706 141.9493 0.0000 0.0000 0.0000
# 4 0.0000 0.0000 0.0000 19.6061 0.0000 0.0000
# 5 0.0000 0.0000 0.0000 0.0000 32.0780 0.0000
# 6 0.0000 0.0000 0.0000 0.0000 0.0000 24.5493
#
#
#
# Elastic Compliance Matrix: (Units=1/GPa)
#
#
# Indices 1 2 3 4 5 6 
#
# 1 0.017544 -0.004986 -0.004393 0.000000 0.000000 0.000000
# 2 -0.004986 0.013624 -0.005861 0.000000 0.000000 0.000000
# 3 -0.004393 -0.005861 0.012285 0.000000 0.000000 0.000000
# 4 0.000000 0.000000 0.000000 0.051005 0.000000 0.000000
# 5 0.000000 0.000000 0.000000 0.000000 0.031174 0.000000
# 6 0.000000 0.000000 0.000000 0.000000 0.000000 0.040734
#
#
# Mechanical properties :
#
#
# Convention : Reuss Voigt Hill
#
# Bulk Modulus (GPa) = 77.07519 84.32351 80.69935
# Shear Modulus (GPa) = 24.85451 25.96759 25.41105
#
# Velocity S-wave (km/s) = 3.68584 3.76747 3.72687
# Velocity P-wave (km/s) = 7.76163 8.06325 7.91388
#
# Compressibility (1/GPa) = 0.01297434
#
# Stress axis : x y z
#
# Youngs Moduli (GPa) = 56.99880 73.39840 81.39912
#
# Poissons Ratio (x) = 0.36595 0.35756
# Poissons Ratio (y) = 0.28418 0.47710
# Poissons Ratio (z) = 0.25038 0.43020
#
# Static dielectric constant tensor:
#      x y z
#    x 3.186600 0.000000 0.000000 
#    y 0.000000 3.374790 0.000000 
#    z 0.000000 0.000000 3.541210 
# 
# 
# High freq. dielectric constant tensor:
#      x y z
#    x 1.693160 0.000000 0.000000 
#    y 0.000000 1.701720 0.000000 
#    z 0.000000 0.000000 1.716270 
# 
# From -- ./inp_files/29726.got.cif
#   From: 2010.03.12/outbox.cif.g09.slc.cpg/sg64_15_cif.got.tgz:29726.got - 2010.04.10 20:19:32.
