data_PCOD8262992
_publ_section_title
;
Structure prediction by ZEFSAII (Michael W. Deem and Ramdas Pophale) SiO2 
 PCOD8262992
Probable space group: C M C A
;
_chemical_formula_sum "Si O2"
_cell_formula_units_Z 80
_cell_length_a 8.527873
_cell_length_b 15.598647
_cell_length_c 29.602321
_cell_angle_alpha 90.000000
_cell_angle_beta 90.000000
_cell_angle_gamma 90.000000
_cell_volume 3937.797852
_symmetry_space_group_name_H-M "C M C A"
_symmetry_group_IT_number 64
_symmetry_cell_setting 'orthorhombic'
loop_
_space_group_symop_operation_xyz
x,y,z
-x,1/2-y,1/2+z
x,-y,-z
-x,1/2+y,1/2-z
-x,-y,-z
x,1/2+y,1/2-z
-x,y,z
x,1/2-y,1/2+z
1/2+x,1/2+y,z
1/2-x,-y,1/2+z
1/2+x,1/2-y,-z
1/2-x,y,1/2-z
1/2-x,1/2-y,-z
1/2+x,y,1/2-z
1/2-x,1/2+y,z
1/2+x,-y,1/2+z
loop_
_atom_site_type_symbol
_atom_site_label
_atom_site_fract_x
_atom_site_fract_y
_atom_site_fract_z
Si Si1 0.678838 0.720422 0.858627
Si Si2 0.680396 0.797332 0.457602
Si Si3 0.819467 0.974296 0.451634
Si Si4 0.813626 0.875889 0.700044
Si Si5 0.814735 0.525828 0.641302
O O1 0.500000 0.712010 0.843562
O O2 0.689363 0.755046 0.910552
O O3 0.757379 0.793900 0.827473
O O4 0.750894 0.623957 0.852619
O O5 0.500000 0.826011 0.466546
O O6 0.750000 0.750000 0.500000
O O7 0.799547 0.873563 0.448956
O O8 0.732343 0.013386 0.407884
O O9 0.000000 0.003106 0.449621
O O10 0.743925 0.000000 0.500000
O O11 0.750000 0.867686 0.750000
O O12 0.000000 0.875502 0.699334
O O13 0.757010 0.965937 0.679664
O O14 0.000000 0.525047 0.644842
#
# Coordination Sequence:
#
# PCOD8262992 Si02
#       5
#    16  16  16  16  16
#     4   8  19  39  60  81 117 157 193 240 298 354
#     4  10  20  35  55  83 116 155 198 245 297 356
#     4  10  21  36  55  82 117 159 200 241 295 356
#     4  11  23  41  63  89 117 154 198 246 301 360
#     4  10  21  40  62  88 120 156 198 249 302 359
#
# _framework density 20.315923999999999
#
# number of rings (size 3 to 8) (size 9 to 14) (size 15 to 20)
#    0.000    2.200    0.000    3.600    2.800    2.400 
#    0.000   13.000    0.000    0.000    0.000    0.000 
#    0.000    0.000    0.000    0.000    0.000    0.000 
#
# Total GULP energy -495579.784938 kJ/mol
# GULP energy per Si atom -12389.494623 kJ/mol
# Density = 2.026968 g / cm^3
# Si number density = 20.315924 Si / 1000 Ang^3
#
#
#
# Elastic Constant Matrix: (Units=GPa)
#
#
# Indices 1 2 3 4 5 6 
#
# 1 61.4749 28.3214 38.9903 0.0000 0.0000 0.0000
# 2 28.3214 102.4799 74.0524 0.0000 0.0000 0.0000
# 3 38.9903 74.0524 168.2952 0.0000 0.0000 0.0000
# 4 0.0000 0.0000 0.0000 40.8187 0.0000 0.0000
# 5 0.0000 0.0000 0.0000 0.0000 35.2624 0.0000
# 6 0.0000 0.0000 0.0000 0.0000 0.0000 24.0666
#
#
#
# Elastic Compliance Matrix: (Units=1/GPa)
#
#
# Indices 1 2 3 4 5 6 
#
# 1 0.019740 -0.003153 -0.003186 0.000000 0.000000 0.000000
# 2 -0.003153 0.014811 -0.005786 0.000000 0.000000 0.000000
# 3 -0.003186 -0.005786 0.009226 0.000000 0.000000 0.000000
# 4 0.000000 0.000000 0.000000 0.024499 0.000000 0.000000
# 5 0.000000 0.000000 0.000000 0.000000 0.028359 0.000000
# 6 0.000000 0.000000 0.000000 0.000000 0.000000 0.041551
#
#
# Mechanical properties :
#
#
# Convention : Reuss Voigt Hill
#
# Bulk Modulus (GPa) = 51.21396 68.33092 59.77244
# Shear Modulus (GPa) = 29.59535 32.75526 31.17531
#
# Velocity S-wave (km/s) = 3.82089 4.01970 3.92155
# Velocity P-wave (km/s) = 6.68798 7.43311 7.07037
#
# Compressibility (1/GPa) = 0.01952593
#
# Stress axis : x y z
#
# Youngs Moduli (GPa) = 50.65820 67.51868 108.38768
#
# Poissons Ratio (x) = 0.21290 0.34531
# Poissons Ratio (y) = 0.15974 0.62717
# Poissons Ratio (z) = 0.16139 0.39069
#
# Static dielectric constant tensor:
#      x y z
#    x 3.583190 0.000000 0.000000 
#    y 0.000000 4.001930 0.000000 
#    z 0.000000 0.000000 10.856960 
# 
# 
# High freq. dielectric constant tensor:
#      x y z
#    x 1.777720 0.000000 0.000000 
#    y 0.000000 1.785920 0.000000 
#    z 0.000000 0.000000 1.804620 
# 
# From -- ./inp_files/47809.got.cif
#   From: 2010.03.12/outbox.cif.g09.slc.cpg/sg64_24_cif.got.tgz:47809.got - 2010.04.10 20:19:32.
