data_PCOD8262552
_publ_section_title
;
Structure prediction by ZEFSAII (Michael W. Deem and Ramdas Pophale) SiO2 
 PCOD8262552
Probable space group: C M C A
;
_chemical_formula_sum "Si O2"
_cell_formula_units_Z 112
_cell_length_a 14.026622
_cell_length_b 25.804257
_cell_length_c 14.697170
_cell_angle_alpha 90.000000
_cell_angle_beta 90.000000
_cell_angle_gamma 90.000000
_cell_volume 5319.590108
_symmetry_space_group_name_H-M "C M C A"
_symmetry_group_IT_number 64
_symmetry_cell_setting 'orthorhombic'
loop_
_space_group_symop_operation_xyz
x,y,z
-x,1/2-y,1/2+z
x,-y,-z
-x,1/2+y,1/2-z
-x,-y,-z
x,1/2+y,1/2-z
-x,y,z
x,1/2-y,1/2+z
1/2+x,1/2+y,z
1/2-x,-y,1/2+z
1/2+x,1/2-y,-z
1/2-x,y,1/2-z
1/2-x,1/2-y,-z
1/2+x,y,1/2-z
1/2-x,1/2+y,z
1/2+x,-y,1/2+z
loop_
_atom_site_type_symbol
_atom_site_label
_atom_site_fract_x
_atom_site_fract_y
_atom_site_fract_z
Si Si1 0.729538 0.807382 0.537948
Si Si2 0.395815 0.853509 0.854828
Si Si3 0.269807 0.992619 0.390825
Si Si4 0.147648 0.770339 0.786670
Si Si5 0.794819 0.125311 0.878462
Si Si6 0.103756 0.842085 0.299818
Si Si7 0.386759 0.462865 0.731500
O O1 0.750000 0.750000 0.500000
O O2 0.825979 0.838287 0.563663
O O3 0.660353 0.804815 0.623692
O O4 0.672832 0.843695 0.467783
O O5 0.500000 0.863541 0.897958
O O6 0.405398 0.805537 0.786069
O O7 0.362141 0.904425 0.799870
O O8 0.310983 0.935430 0.379981
O O9 0.264020 0.000000 0.500000
O O10 0.344262 0.028929 0.333984
O O11 0.166209 0.999484 0.342225
O O12 0.250000 0.751299 0.750000
O O13 0.088677 0.719444 0.811013
O O14 0.861799 0.147577 0.801508
O O15 0.681710 0.136213 0.869013
O O16 0.000000 0.867957 0.317468
O O17 0.500000 0.474333 0.731322
#
# Coordination Sequence:
#
# PCOD8262552 Si02
#       7
#    16  16  16  16  16  16  16
#     4  11  21  38  62  88 126 164 199 257 317 369
#     4  10  22  38  62  91 123 166 213 256 313 382
#     4  11  25  41  68  96 126 170 219 276 335 397
#     4  10  19  35  60  86 119 159 198 247 299 367
#     4  11  23  40  59  93 121 155 211 251 312 375
#     4  11  21  39  61  84 122 163 199 246 304 368
#     4  10  23  44  66  95 131 171 221 278 336 393
#
# _framework density 21.054254
#
# number of rings (size 3 to 8) (size 9 to 14) (size 15 to 20)
#    0.000    1.429    2.857    3.857    8.000    3.429 
#    0.000    1.429    0.000    0.000    0.000    0.000 
#    0.000    0.000    0.000    0.000    0.000    0.000 
#
# Total GULP energy -694092.979872 kJ/mol
# GULP energy per Si atom -12394.517498 kJ/mol
# Density = 2.100633 g / cm^3
# Si number density = 21.054254 Si / 1000 Ang^3
#
#
#
# Elastic Constant Matrix: (Units=GPa)
#
#
# Indices 1 2 3 4 5 6 
#
# 1 105.7506 7.7384 23.0895 0.0000 0.0000 0.0000
# 2 7.7384 89.4195 7.4332 0.0000 0.0000 0.0000
# 3 23.0895 7.4332 108.7346 0.0000 0.0000 0.0000
# 4 0.0000 0.0000 0.0000 34.1963 0.0000 0.0000
# 5 0.0000 0.0000 0.0000 0.0000 14.5865 0.0000
# 6 0.0000 0.0000 0.0000 0.0000 0.0000 20.0555
#
#
#
# Elastic Compliance Matrix: (Units=1/GPa)
#
#
# Indices 1 2 3 4 5 6 
#
# 1 0.009958 -0.000690 -0.002067 0.000000 0.000000 0.000000
# 2 -0.000690 0.011295 -0.000626 0.000000 0.000000 0.000000
# 3 -0.002067 -0.000626 0.009678 0.000000 0.000000 0.000000
# 4 0.000000 0.000000 0.000000 0.029243 0.000000 0.000000
# 5 0.000000 0.000000 0.000000 0.000000 0.068556 0.000000
# 6 0.000000 0.000000 0.000000 0.000000 0.000000 0.049862
#
#
# Mechanical properties :
#
#
# Convention : Reuss Voigt Hill
#
# Bulk Modulus (GPa) = 41.38114 42.26967 41.82540
# Shear Modulus (GPa) = 25.85133 31.47723 28.66428
#
# Velocity S-wave (km/s) = 3.50786 3.87079 3.69378
# Velocity P-wave (km/s) = 6.00866 6.33225 6.17258
#
# Compressibility (1/GPa) = 0.02416560
#
# Stress axis : x y z
#
# Youngs Moduli (GPa) = 100.42087 88.53507 103.32198
#
# Poissons Ratio (x) = 0.06108 0.21361
# Poissons Ratio (y) = 0.06928 0.06464
# Poissons Ratio (z) = 0.20761 0.05539
#
# Static dielectric constant tensor:
#      x y z
#    x 3.751030 0.000000 0.000000 
#    y 0.000000 3.923010 0.000000 
#    z 0.000000 0.000000 3.908500 
# 
# 
# High freq. dielectric constant tensor:
#      x y z
#    x 1.811810 0.000000 0.000000 
#    y 0.000000 1.832630 0.000000 
#    z 0.000000 0.000000 1.825640 
# 
# From -- ./inp_files/24215.got.cif
#   From: 2010.03.12/outbox.cif.g09.slc.cpg/sg64_13_cif.got.tgz:24215.got - 2010.04.10 20:19:32.
