data_PCOD8262717
_publ_section_title
;
Structure prediction by ZEFSAII (Michael W. Deem and Ramdas Pophale) SiO2 
 PCOD8262717
Probable space group: C M C A
;
_chemical_formula_sum "Si O2"
_cell_formula_units_Z 96
_cell_length_a 8.914750
_cell_length_b 25.319904
_cell_length_c 25.111749
_cell_angle_alpha 90.000000
_cell_angle_beta 90.000000
_cell_angle_gamma 90.000000
_cell_volume 5668.239408
_symmetry_space_group_name_H-M "C M C A"
_symmetry_group_IT_number 64
_symmetry_cell_setting 'orthorhombic'
loop_
_space_group_symop_operation_xyz
x,y,z
-x,1/2-y,1/2+z
x,-y,-z
-x,1/2+y,1/2-z
-x,-y,-z
x,1/2+y,1/2-z
-x,y,z
x,1/2-y,1/2+z
1/2+x,1/2+y,z
1/2-x,-y,1/2+z
1/2+x,1/2-y,-z
1/2-x,y,1/2-z
1/2-x,1/2-y,-z
1/2+x,y,1/2-z
1/2-x,1/2+y,z
1/2+x,-y,1/2+z
loop_
_atom_site_type_symbol
_atom_site_label
_atom_site_fract_x
_atom_site_fract_y
_atom_site_fract_z
Si Si1 0.674482 0.241742 0.806977
Si Si2 0.325007 0.358415 0.807364
Si Si3 0.324057 0.359991 0.192610
Si Si4 0.334870 0.937645 0.005764
Si Si5 0.822370 0.437884 0.888810
Si Si6 0.325605 0.450048 0.109344
O O1 0.500000 0.228684 0.801611
O O2 0.750000 0.243812 0.750000
O O3 0.700064 0.299662 0.832674
O O4 0.755525 0.192582 0.836605
O O5 0.500000 0.370522 0.800443
O O6 0.250000 0.364191 0.750000
O O7 0.253333 0.399827 0.846867
O O8 0.500000 0.351999 0.199751
O O9 0.250000 0.369807 0.250000
O O10 0.286327 0.409869 0.156230
O O11 0.500000 0.914525 0.019246
O O12 0.221241 0.922940 0.053140
O O13 0.278529 0.916800 0.948088
O O14 0.347103 0.000000 0.000000
O O15 0.765930 0.497105 0.878841
O O16 0.000000 0.437701 0.881100
O O17 0.500000 0.463985 0.106766
#
# Coordination Sequence:
#
# PCOD8262717 Si02
#       6
#    16  16  16  16  16  16
#     4   9  17  30  49  70  92 122 159 196 233 276
#     4  10  20  33  50  73  99 127 159 195 237 284
#     4  10  20  32  48  71  97 126 159 194 235 281
#     4   8  16  31  49  69  92 122 161 198 236 282
#     4  10  20  33  50  72  98 128 160 196 238 284
#     4  10  20  32  48  72  99 127 160 198 239 283
#
# _framework density 16.936477
#
# number of rings (size 3 to 8) (size 9 to 14) (size 15 to 20)
#    0.000    2.500    0.000    4.500    0.000    9.000 
#    0.000    1.667    0.000    1.000    0.000    0.000 
#    0.000    0.000    0.000    0.000    0.000    0.000 
#
# Total GULP energy -594836.154953 kJ/mol
# GULP energy per Si atom -12392.419895 kJ/mol
# Density = 1.689793 g / cm^3
# Si number density = 16.936477 Si / 1000 Ang^3
#
#
#
# Elastic Constant Matrix: (Units=GPa)
#
#
# Indices 1 2 3 4 5 6 
#
# 1 114.6990 65.3064 59.2456 0.0000 0.0000 0.0000
# 2 65.3064 99.4346 59.2547 0.0000 0.0000 0.0000
# 3 59.2456 59.2547 97.7197 0.0000 0.0000 0.0000
# 4 0.0000 0.0000 0.0000 -3.0328 0.0000 0.0000
# 5 0.0000 0.0000 0.0000 0.0000 29.3151 0.0000
# 6 0.0000 0.0000 0.0000 0.0000 0.0000 15.7473
#
#
#
# Elastic Compliance Matrix: (Units=1/GPa)
#
#
# Indices 1 2 3 4 5 6 
#
# 1 0.015341 -0.007098 -0.004997 0.000000 0.000000 0.000000
# 2 -0.007098 0.019031 -0.007237 0.000000 0.000000 0.000000
# 3 -0.004997 -0.007237 0.017651 0.000000 0.000000 0.000000
# 4 0.000000 0.000000 0.000000 -0.329724 0.000000 0.000000
# 5 0.000000 0.000000 0.000000 0.000000 0.034112 0.000000
# 6 0.000000 0.000000 0.000000 0.000000 0.000000 0.063503
#
#
# Mechanical properties :
#
#
# Convention : Reuss Voigt Hill
#
# Bulk Modulus (GPa) = 74.84978 75.49631 75.17304
# Shear Modulus (GPa) = -36.50416 16.94237 -9.78090
#
# Velocity S-wave (km/s) = -4.64762 3.16626 -2.40574
# Velocity P-wave (km/s) = 3.93572 7.61839 6.06340
#
# Compressibility (1/GPa) = 0.01336009
#
# Stress axis : x y z
#
# Youngs Moduli (GPa) = 65.18563 52.54603 56.65395
#
# Poissons Ratio (x) = 0.37296 0.28310
# Poissons Ratio (y) = 0.46267 0.40998
# Poissons Ratio (z) = 0.32573 0.38026
#
# Static dielectric constant tensor:
#      x y z
#    x 3.352100 0.000000 0.000000 
#    y 0.000000 3.492900 0.000000 
#    z 0.000000 0.000000 3.281570 
# 
# 
# High freq. dielectric constant tensor:
#      x y z
#    x 1.671460 0.000000 0.000000 
#    y 0.000000 1.642240 0.000000 
#    z 0.000000 0.000000 1.633650 
# 
# From -- ./inp_files/48351.got.cif
#   From: 2010.03.12/outbox.cif.g09.slc.cpg/sg64_25_cif.got.tgz:48351.got - 2010.04.10 20:19:32.
