data_PCOD8262620
_publ_section_title
;
Structure prediction by ZEFSAII (Michael W. Deem and Ramdas Pophale) SiO2 
 PCOD8262620
Probable space group: C M C A
;
_chemical_formula_sum "Si O2"
_cell_formula_units_Z 128
_cell_length_a 21.130711
_cell_length_b 12.277085
_cell_length_c 25.113909
_cell_angle_alpha 90.000000
_cell_angle_beta 90.000000
_cell_angle_gamma 90.000000
_cell_volume 6515.139052
_symmetry_space_group_name_H-M "C M C A"
_symmetry_group_IT_number 64
_symmetry_cell_setting 'orthorhombic'
loop_
_space_group_symop_operation_xyz
x,y,z
-x,1/2-y,1/2+z
x,-y,-z
-x,1/2+y,1/2-z
-x,-y,-z
x,1/2+y,1/2-z
-x,y,z
x,1/2-y,1/2+z
1/2+x,1/2+y,z
1/2-x,-y,1/2+z
1/2+x,1/2-y,-z
1/2-x,y,1/2-z
1/2-x,1/2-y,-z
1/2+x,y,1/2-z
1/2-x,1/2+y,z
1/2+x,-y,1/2+z
loop_
_atom_site_type_symbol
_atom_site_label
_atom_site_fract_x
_atom_site_fract_y
_atom_site_fract_z
Si Si1 0.574527 0.826007 0.179341
Si Si2 0.572959 0.637453 0.462284
Si Si3 0.380398 0.411157 0.428002
Si Si4 0.852309 0.200616 0.894640
Si Si5 0.924230 0.375901 0.296759
Si Si6 0.142333 0.970734 0.940714
Si Si7 0.428202 0.403986 0.847127
Si Si8 0.727231 0.240876 0.439870
O O1 0.500000 0.819958 0.184102
O O2 0.590936 0.906892 0.131293
O O3 0.600567 0.862019 0.236746
O O4 0.606951 0.708835 0.167001
O O5 0.500000 0.613646 0.446756
O O6 0.577608 0.649474 0.526519
O O7 0.619590 0.539678 0.442651
O O8 0.596537 0.748982 0.435745
O O9 0.313040 0.350026 0.427358
O O10 0.884844 0.204130 0.836167
O O11 0.786092 0.265773 0.898381
O O12 0.832483 0.079444 0.912499
O O13 0.903456 0.498601 0.310446
O O14 0.000000 0.356348 0.304346
O O15 0.079732 0.932180 0.909394
O O16 0.192717 0.874505 0.934501
O O17 0.122677 0.000000 0.000000
O O18 0.500000 0.383260 0.834010
O O19 0.750000 0.250000 0.500000
#
# Coordination Sequence:
#
# PCOD8262620 Si02
#       8
#    16  16  16  16  16  16  16  16
#     4  10  19  36  62  88 121 162 207 260 319 381
#     4  11  23  39  61  92 133 163 206 268 327 386
#     4  11  22  38  59  90 124 165 209 257 317 380
#     4  11  24  38  61  89 122 166 207 259 314 374
#     4   9  20  39  60  87 121 158 207 259 317 378
#     4  11  21  37  59  88 120 160 204 251 310 377
#     4   9  19  35  57  88 121 154 197 255 310 370
#     4  12  23  39  60  89 122 168 213 256 307 380
#
# _framework density 19.646549
#
# number of rings (size 3 to 8) (size 9 to 14) (size 15 to 20)
#    0.000    1.500    3.750    1.875    1.750    1.750 
#    0.000    3.125    0.000    0.000    0.000    0.000 
#    0.000    0.000    0.000    0.000    0.000    0.000 
#
# Total GULP energy -793040.505884 kJ/mol
# GULP energy per Si atom -12391.257904 kJ/mol
# Density = 1.960183 g / cm^3
# Si number density = 19.646549 Si / 1000 Ang^3
#
#
#
# Elastic Constant Matrix: (Units=GPa)
#
#
# Indices 1 2 3 4 5 6 
#
# 1 60.0571 31.3985 34.0835 0.0000 0.0000 0.0000
# 2 31.3985 84.3219 46.2135 0.0000 0.0000 0.0000
# 3 34.0835 46.2135 165.0595 0.0000 0.0000 0.0000
# 4 0.0000 0.0000 0.0000 25.3739 0.0000 0.0000
# 5 0.0000 0.0000 0.0000 0.0000 24.2726 0.0000
# 6 0.0000 0.0000 0.0000 0.0000 0.0000 24.5263
#
#
#
# Elastic Compliance Matrix: (Units=1/GPa)
#
#
# Indices 1 2 3 4 5 6 
#
# 1 0.021586 -0.006609 -0.002607 0.000000 0.000000 0.000000
# 2 -0.006609 0.016032 -0.003124 0.000000 0.000000 0.000000
# 3 -0.002607 -0.003124 0.007471 0.000000 0.000000 0.000000
# 4 0.000000 0.000000 0.000000 0.039411 0.000000 0.000000
# 5 0.000000 0.000000 0.000000 0.000000 0.041199 0.000000
# 6 0.000000 0.000000 0.000000 0.000000 0.000000 0.040773
#
#
# Mechanical properties :
#
#
# Convention : Reuss Voigt Hill
#
# Bulk Modulus (GPa) = 48.99667 59.20328 54.09998
# Shear Modulus (GPa) = 25.25837 28.01743 26.63790
#
# Velocity S-wave (km/s) = 3.58947 3.78044 3.68619
# Velocity P-wave (km/s) = 6.49402 7.01821 6.76119
#
# Compressibility (1/GPa) = 0.02040955
#
# Stress axis : x y z
#
# Youngs Moduli (GPa) = 46.32736 62.37353 133.84376
#
# Poissons Ratio (x) = 0.41222 0.34891
# Poissons Ratio (y) = 0.30618 0.41814
# Poissons Ratio (z) = 0.12077 0.19486
#
# Static dielectric constant tensor:
#      x y z
#    x 3.496610 0.000000 0.000000 
#    y 0.000000 3.934270 0.000000 
#    z 0.000000 0.000000 3.800260 
# 
# 
# High freq. dielectric constant tensor:
#      x y z
#    x 1.740740 0.000000 0.000000 
#    y 0.000000 1.775650 0.000000 
#    z 0.000000 0.000000 1.759960 
# 
# From -- ./inp_files/46754.got.cif
#   From: 2010.03.12/outbox.cif.g09.slc.cpg/sg64_24_cif.got.tgz:46754.got - 2010.04.10 20:19:32.
