data_PCOD8262384
_publ_section_title
;
Structure prediction by ZEFSAII (Michael W. Deem and Ramdas Pophale) SiO2 
 PCOD8262384
Probable space group: C M C A
;
_chemical_formula_sum "Si O2"
_cell_formula_units_Z 112
_cell_length_a 26.384979
_cell_length_b 14.252755
_cell_length_c 13.661075
_cell_angle_alpha 90.000000
_cell_angle_beta 90.000000
_cell_angle_gamma 90.000000
_cell_volume 5137.365304
_symmetry_space_group_name_H-M "C M C A"
_symmetry_group_IT_number 64
_symmetry_cell_setting 'orthorhombic'
loop_
_space_group_symop_operation_xyz
x,y,z
-x,1/2-y,1/2+z
x,-y,-z
-x,1/2+y,1/2-z
-x,-y,-z
x,1/2+y,1/2-z
-x,y,z
x,1/2-y,1/2+z
1/2+x,1/2+y,z
1/2-x,-y,1/2+z
1/2+x,1/2-y,-z
1/2-x,y,1/2-z
1/2-x,1/2-y,-z
1/2+x,y,1/2-z
1/2-x,1/2+y,z
1/2+x,-y,1/2+z
loop_
_atom_site_type_symbol
_atom_site_label
_atom_site_fract_x
_atom_site_fract_y
_atom_site_fract_z
Si Si1 0.267233 0.833151 0.860363
Si Si2 0.871411 0.069161 0.830893
Si Si3 0.942726 0.532712 0.900962
Si Si4 0.706880 0.970735 0.171131
Si Si5 0.442283 0.912290 0.712818
Si Si6 0.440222 0.300904 0.267998
Si Si7 0.283928 0.140840 0.551301
O O1 0.250000 0.811844 0.750000
O O2 0.295837 0.741167 0.899285
O O3 0.303929 0.924053 0.869836
O O4 0.219137 0.851536 0.933526
O O5 0.843465 0.066385 0.724006
O O6 0.909390 0.158782 0.826061
O O7 0.831063 0.075349 0.918816
O O8 0.904177 0.975190 0.852080
O O9 0.938663 0.448788 0.823500
O O10 0.923381 0.631881 0.857986
O O11 0.000000 0.552566 0.931279
O O12 0.912949 0.500000 0.000000
O O13 0.750000 0.988128 0.250000
O O14 0.729558 0.899792 0.089832
O O15 0.500000 0.921851 0.673527
O O16 0.423919 0.804891 0.708357
O O17 0.500000 0.308275 0.244112
#
# Coordination Sequence:
#
# PCOD8262384 Si02
#       7
#    16  16  16  16  16  16  16
#     4  10  20  37  63  82 118 165 195 241 309 373
#     4  10  19  33  58  87 126 166 212 259 315 381
#     4   8  14  28  52  79 112 155 203 256 312 375
#     4   9  19  35  55  84 116 156 192 251 304 368
#     4   9  18  33  56  89 125 166 209 262 328 378
#     4   9  18  33  57  89 128 169 213 266 326 381
#     4  10  21  37  58  91 120 158 205 254 309 379
#
# _framework density 21.801058999999999
#
# number of rings (size 3 to 8) (size 9 to 14) (size 15 to 20)
#    0.000    2.714    0.000    3.000    2.000    0.000 
#    2.571    5.714    6.286    3.429    0.000    3.000 
#    0.000   69.714    0.000    1.143    0.000    0.000 
#
# Total GULP energy -693811.800095 kJ/mol
# GULP energy per Si atom -12389.496430 kJ/mol
# Density = 2.175144 g / cm^3
# Si number density = 21.801059 Si / 1000 Ang^3
#
#
#
# Elastic Constant Matrix: (Units=GPa)
#
#
# Indices 1 2 3 4 5 6 
#
# 1 85.6355 45.7039 21.5407 0.0000 0.0000 0.0000
# 2 45.7039 162.2870 35.3664 0.0000 0.0000 0.0000
# 3 21.5407 35.3664 107.8872 0.0000 0.0000 0.0000
# 4 0.0000 0.0000 0.0000 22.0823 0.0000 0.0000
# 5 0.0000 0.0000 0.0000 0.0000 14.6370 0.0000
# 6 0.0000 0.0000 0.0000 0.0000 0.0000 25.0736
#
#
#
# Elastic Compliance Matrix: (Units=1/GPa)
#
#
# Indices 1 2 3 4 5 6 
#
# 1 0.014001 -0.003590 -0.001618 0.000000 0.000000 0.000000
# 2 -0.003590 0.007557 -0.001760 0.000000 0.000000 0.000000
# 3 -0.001618 -0.001760 0.010169 0.000000 0.000000 0.000000
# 4 0.000000 0.000000 0.000000 0.045285 0.000000 0.000000
# 5 0.000000 0.000000 0.000000 0.000000 0.068320 0.000000
# 6 0.000000 0.000000 0.000000 0.000000 0.000000 0.039883
#
#
# Mechanical properties :
#
#
# Convention : Reuss Voigt Hill
#
# Bulk Modulus (GPa) = 56.21634 62.33685 59.27660
# Shear Modulus (GPa) = 24.38056 29.23849 26.80952
#
# Velocity S-wave (km/s) = 3.34776 3.66614 3.51056
# Velocity P-wave (km/s) = 6.38634 6.82469 6.60915
#
# Compressibility (1/GPa) = 0.01778842
#
# Stress axis : x y z
#
# Youngs Moduli (GPa) = 71.42540 132.33413 98.33682
#
# Poissons Ratio (x) = 0.47511 0.15915
# Poissons Ratio (y) = 0.25643 0.17310
# Poissons Ratio (z) = 0.11560 0.23295
#
# Static dielectric constant tensor:
#      x y z
#    x 3.931940 0.000000 0.000000 
#    y 0.000000 4.218860 0.000000 
#    z 0.000000 0.000000 3.827940 
# 
# 
# High freq. dielectric constant tensor:
#      x y z
#    x 1.839470 0.000000 0.000000 
#    y 0.000000 1.870850 0.000000 
#    z 0.000000 0.000000 1.828750 
# 
# From -- ./inp_files/28062.got.cif
#   From: 2010.03.12/outbox.cif.g09.slc.cpg/sg64_15_cif.got.tgz:28062.got - 2010.04.10 20:19:32.
