data_PCOD8262280
_publ_section_title
;
Structure prediction by ZEFSAII (Michael W. Deem and Ramdas Pophale) SiO2 
 PCOD8262280
Probable space group: C M C A
;
_chemical_formula_sum "Si O2"
_cell_formula_units_Z 80
_cell_length_a 7.689944
_cell_length_b 28.832131
_cell_length_c 19.722348
_cell_angle_alpha 90.000000
_cell_angle_beta 90.000000
_cell_angle_gamma 90.000000
_cell_volume 4372.789156
_symmetry_space_group_name_H-M "C M C A"
_symmetry_group_IT_number 64
_symmetry_cell_setting 'orthorhombic'
loop_
_space_group_symop_operation_xyz
x,y,z
-x,1/2-y,1/2+z
x,-y,-z
-x,1/2+y,1/2-z
-x,-y,-z
x,1/2+y,1/2-z
-x,y,z
x,1/2-y,1/2+z
1/2+x,1/2+y,z
1/2-x,-y,1/2+z
1/2+x,1/2-y,-z
1/2-x,y,1/2-z
1/2-x,1/2-y,-z
1/2+x,y,1/2-z
1/2-x,1/2+y,z
1/2+x,-y,1/2+z
loop_
_atom_site_type_symbol
_atom_site_label
_atom_site_fract_x
_atom_site_fract_y
_atom_site_fract_z
Si Si1 0.000000 0.551406 0.419990
Si Si2 0.202918 0.799270 0.675963
Si Si3 0.297518 0.619959 0.420955
Si Si4 0.306693 0.117007 0.922499
Si Si5 0.204430 0.804194 0.174946
Si Si6 0.500000 0.948367 0.419445
O O1 0.176321 0.577398 0.396506
O O2 0.000000 0.499928 0.387308
O O3 0.000000 0.547458 0.500368
O O4 0.250000 0.819122 0.750000
O O5 0.270459 0.834782 0.619186
O O6 0.282988 0.747820 0.665756
O O7 0.000000 0.793933 0.668774
O O8 0.500000 0.608266 0.405081
O O9 0.265738 0.630376 0.499905
O O10 0.500000 0.095512 0.916772
O O11 0.298830 0.163820 0.879546
O O12 0.171260 0.079024 0.894402
O O13 0.250000 0.822392 0.250000
O O14 0.000000 0.806349 0.161950
#
# Coordination Sequence:
#
# PCOD8262280 Si02
#       6
#     8  16  16  16  16   8
#     4   9  18  32  56  77 100 136 169 212 266 304
#     4   9  19  33  50  75 105 139 176 211 250 304
#     4   9  19  34  51  78 108 133 171 215 259 307
#     4  10  19  33  53  77 106 137 169 213 263 304
#     4  10  19  33  51  75 106 139 177 212 249 306
#     4   9  18  34  52  79 104 128 173 218 256 312
#
# _framework density 18.29496
#
# number of rings (size 3 to 8) (size 9 to 14) (size 15 to 20)
#    0.000    2.600    1.000    0.600    1.400    2.400 
#    0.000    4.000    0.000    1.200    0.000    0.000 
#    0.000    0.000    0.000    0.000    0.000    0.000 
#
# Total GULP energy -495910.186150 kJ/mol
# GULP energy per Si atom -12397.754654 kJ/mol
# Density = 1.825332 g / cm^3
# Si number density = 18.294960 Si / 1000 Ang^3
#
#
#
# Elastic Constant Matrix: (Units=GPa)
#
#
# Indices 1 2 3 4 5 6 
#
# 1 93.0385 54.2944 30.8926 0.0000 0.0000 0.0000
# 2 54.2944 138.4063 60.3443 0.0000 0.0000 0.0000
# 3 30.8926 60.3443 69.9114 0.0000 0.0000 0.0000
# 4 0.0000 0.0000 0.0000 9.7546 0.0000 0.0000
# 5 0.0000 0.0000 0.0000 0.0000 20.8195 0.0000
# 6 0.0000 0.0000 0.0000 0.0000 0.0000 20.2874
#
#
#
# Elastic Compliance Matrix: (Units=1/GPa)
#
#
# Indices 1 2 3 4 5 6 
#
# 1 0.014176 -0.004537 -0.002348 0.000000 0.000000 0.000000
# 2 -0.004537 0.013037 -0.009248 0.000000 0.000000 0.000000
# 3 -0.002348 -0.009248 0.023324 0.000000 0.000000 0.000000
# 4 0.000000 0.000000 0.000000 0.102516 0.000000 0.000000
# 5 0.000000 0.000000 0.000000 0.000000 0.048032 0.000000
# 6 0.000000 0.000000 0.000000 0.000000 0.000000 0.049292
#
#
# Mechanical properties :
#
#
# Convention : Reuss Voigt Hill
#
# Bulk Modulus (GPa) = 54.73306 65.82433 60.27869
# Shear Modulus (GPa) = 17.31711 20.56063 18.93887
#
# Velocity S-wave (km/s) = 3.07994 3.35601 3.22094
# Velocity P-wave (km/s) = 6.52917 7.14665 6.84488
#
# Compressibility (1/GPa) = 0.01827049
#
# Stress axis : x y z
#
# Youngs Moduli (GPa) = 70.54399 76.70399 42.87490
#
# Poissons Ratio (x) = 0.34803 0.10065
# Poissons Ratio (y) = 0.32008 0.39651
# Poissons Ratio (z) = 0.16560 0.70937
#
# Static dielectric constant tensor:
#      x y z
#    x 3.470630 0.000000 0.000000 
#    y 0.000000 3.628520 0.000000 
#    z 0.000000 0.000000 3.149690 
# 
# 
# High freq. dielectric constant tensor:
#      x y z
#    x 1.721470 0.000000 0.000000 
#    y 0.000000 1.698440 0.000000 
#    z 0.000000 0.000000 1.682370 
# 
# From -- ./inp_files/29872.got.cif
#   From: 2010.03.12/outbox.cif.g09.slc.cpg/sg64_15_cif.got.tgz:29872.got - 2010.04.10 20:19:32.
