data_PCOD8262733
_publ_section_title
;
Structure prediction by ZEFSAII (Michael W. Deem and Ramdas Pophale) SiO2 
 PCOD8262733
Probable space group: C M C A
;
_chemical_formula_sum "Si O2"
_cell_formula_units_Z 104
_cell_length_a 26.110900
_cell_length_b 22.298911
_cell_length_c 9.662446
_cell_angle_alpha 90.000000
_cell_angle_beta 90.000000
_cell_angle_gamma 90.000000
_cell_volume 5625.907347
_symmetry_space_group_name_H-M "C M C A"
_symmetry_group_IT_number 64
_symmetry_cell_setting 'orthorhombic'
loop_
_space_group_symop_operation_xyz
x,y,z
-x,1/2-y,1/2+z
x,-y,-z
-x,1/2+y,1/2-z
-x,-y,-z
x,1/2+y,1/2-z
-x,y,z
x,1/2-y,1/2+z
1/2+x,1/2+y,z
1/2-x,-y,1/2+z
1/2+x,1/2-y,-z
1/2-x,y,1/2-z
1/2-x,1/2-y,-z
1/2+x,y,1/2-z
1/2-x,1/2+y,z
1/2+x,-y,1/2+z
loop_
_atom_site_type_symbol
_atom_site_label
_atom_site_fract_x
_atom_site_fract_y
_atom_site_fract_z
Si Si1 0.500000 0.560447 0.813692
Si Si2 0.889696 0.579353 0.293673
Si Si3 0.894134 0.443835 0.196278
Si Si4 0.500000 0.579444 0.121565
Si Si5 0.752283 0.189276 0.584693
Si Si6 0.246314 0.000000 0.500000
Si Si7 0.170160 0.599454 0.045344
Si Si8 0.825774 0.409615 0.432405
O O1 0.548020 0.578156 0.719066
O O2 0.500000 0.491291 0.855701
O O3 0.500000 0.596431 0.958852
O O4 0.889974 0.513773 0.227564
O O5 0.947596 0.605465 0.310337
O O6 0.862759 0.573801 0.441433
O O7 0.856159 0.621146 0.189551
O O8 0.876180 0.429365 0.042217
O O9 0.858658 0.404054 0.295270
O O10 0.750000 0.199905 0.750000
O O11 0.750000 0.250000 0.500000
O O12 0.803523 0.154070 0.536797
O O13 0.702112 0.152920 0.538036
O O14 0.211284 0.952755 0.584114
O O15 0.283093 0.960973 0.400490
#
# Coordination Sequence:
#
# PCOD8262733 Si02
#       8
#     8  16  16   8  16   8  16  16
#     4   9  18  29  53  75 116 157 188 220 270 331
#     4  11  20  33  54  87 118 152 188 221 280 336
#     4  11  18  35  51  86 116 154 187 223 275 333
#     4   9  18  31  49  79 118 153 186 228 262 333
#     4  11  26  43  58  81 111 147 193 234 280 335
#     4  10  20  32  50  80 112 148 178 224 272 326
#     4  11  23  35  54  81 119 147 183 234 281 330
#     4  11  21  33  59  79 113 149 188 228 274 331
#
# _framework density 18.485907000000001
#
# number of rings (size 3 to 8) (size 9 to 14) (size 15 to 20)
#    0.000    1.385    6.154    0.000    2.154    3.692 
#    0.000    2.308    0.000    0.000    0.000    6.462 
#    0.000    0.000    0.000    0.000    0.000    0.000 
#
# Total GULP energy -644525.579163 kJ/mol
# GULP energy per Si atom -12394.722676 kJ/mol
# Density = 1.844383 g / cm^3
# Si number density = 18.485907 Si / 1000 Ang^3
#
#
#
# Elastic Constant Matrix: (Units=GPa)
#
#
# Indices 1 2 3 4 5 6 
#
# 1 143.3900 30.0117 45.7016 0.0000 0.0000 0.0000
# 2 30.0117 68.6756 16.6932 0.0000 0.0000 0.0000
# 3 45.7016 16.6932 88.2484 0.0000 0.0000 0.0000
# 4 0.0000 0.0000 0.0000 23.7017 0.0000 0.0000
# 5 0.0000 0.0000 0.0000 0.0000 26.9176 0.0000
# 6 0.0000 0.0000 0.0000 0.0000 0.0000 12.1563
#
#
#
# Elastic Compliance Matrix: (Units=1/GPa)
#
#
# Indices 1 2 3 4 5 6 
#
# 1 0.008869 -0.002892 -0.004046 0.000000 0.000000 0.000000
# 2 -0.002892 0.016206 -0.001568 0.000000 0.000000 0.000000
# 3 -0.004046 -0.001568 0.013723 0.000000 0.000000 0.000000
# 4 0.000000 0.000000 0.000000 0.042191 0.000000 0.000000
# 5 0.000000 0.000000 0.000000 0.000000 0.037150 0.000000
# 6 0.000000 0.000000 0.000000 0.000000 0.000000 0.082262
#
#
# Mechanical properties :
#
#
# Convention : Reuss Voigt Hill
#
# Bulk Modulus (GPa) = 45.89947 53.90301 49.90124
# Shear Modulus (GPa) = 22.25425 26.41561 24.33493
#
# Velocity S-wave (km/s) = 3.47342 3.78426 3.63217
# Velocity P-wave (km/s) = 6.40074 6.95100 6.68154
#
# Compressibility (1/GPa) = 0.02178674
#
# Stress axis : x y z
#
# Youngs Moduli (GPa) = 112.75418 61.70461 72.86805
#
# Poissons Ratio (x) = 0.17847 0.29481
# Poissons Ratio (y) = 0.32612 0.11424
# Poissons Ratio (z) = 0.45618 0.09674
#
# Static dielectric constant tensor:
#      x y z
#    x 3.835070 0.000000 0.000000 
#    y 0.000000 2.930300 0.000000 
#    z 0.000000 0.000000 3.565360 
# 
# 
# High freq. dielectric constant tensor:
#      x y z
#    x 1.734060 0.000000 0.000000 
#    y 0.000000 1.652270 0.000000 
#    z 0.000000 0.000000 1.721740 
# 
# From -- ./inp_files/11225.got.cif
#   From: 2010.03.12/outbox.cif.g09.slc.cpg/sg64_6_cif.got.tgz:11225.got - 2010.04.10 20:19:32.
