data_PCOD8262681
_publ_section_title
;
Structure prediction by ZEFSAII (Michael W. Deem and Ramdas Pophale) SiO2 
 PCOD8262681
Probable space group: C M C A
;
_chemical_formula_sum "Si O2"
_cell_formula_units_Z 72
_cell_length_a 10.504356
_cell_length_b 25.204142
_cell_length_c 14.663618
_cell_angle_alpha 90.000000
_cell_angle_beta 90.000000
_cell_angle_gamma 90.000000
_cell_volume 3882.240966
_symmetry_space_group_name_H-M "C M C A"
_symmetry_group_IT_number 64
_symmetry_cell_setting 'orthorhombic'
loop_
_space_group_symop_operation_xyz
x,y,z
-x,1/2-y,1/2+z
x,-y,-z
-x,1/2+y,1/2-z
-x,-y,-z
x,1/2+y,1/2-z
-x,y,z
x,1/2-y,1/2+z
1/2+x,1/2+y,z
1/2-x,-y,1/2+z
1/2+x,1/2-y,-z
1/2-x,y,1/2-z
1/2-x,1/2-y,-z
1/2+x,y,1/2-z
1/2-x,1/2+y,z
1/2+x,-y,1/2+z
loop_
_atom_site_type_symbol
_atom_site_label
_atom_site_fract_x
_atom_site_fract_y
_atom_site_fract_z
Si Si1 0.500000 0.109575 0.012091
Si Si2 0.750000 0.633574 0.750000
Si Si3 0.856583 0.795130 0.099524
Si Si4 0.225813 0.320698 0.921364
Si Si5 0.750000 0.390296 0.750000
Si Si6 0.500000 0.950176 0.807032
Si Si7 0.000000 0.573996 0.806753
O O1 0.621804 0.146458 0.023261
O O2 0.500000 0.062041 0.085359
O O3 0.500000 0.083006 0.914160
O O4 0.761541 0.670473 0.661106
O O5 0.874524 0.597602 0.760048
O O6 0.833004 0.733234 0.118562
O O7 0.000000 0.809357 0.127351
O O8 0.838072 0.807718 0.992433
O O9 0.279672 0.354022 0.837317
O O10 0.625608 0.425913 0.738428
O O11 0.500000 0.011945 0.787085
#
# Coordination Sequence:
#
# PCOD8262681 Si02
#       7
#     8   8  16  16   8   8   8
#     4  10  19  39  62  83 113 154 197 244 293 343
#     4  12  24  38  62  84 128 156 198 242 300 350
#     4  11  22  37  58  91 121 161 195 237 289 364
#     4  10  21  38  60  87 121 152 193 239 292 358
#     4  10  22  42  62  88 116 154 194 250 300 346
#     4  10  23  40  64  85 115 152 206 252 296 349
#     4  12  23  41  60  88 114 160 201 251 298 347
#
# _framework density 18.545988999999999
#
# number of rings (size 3 to 8) (size 9 to 14) (size 15 to 20)
#    0.000    1.333    4.444    1.667    1.556    0.000 
#    0.000    0.000    0.000    1.333    0.000    0.000 
#    0.000    0.000    0.000    0.000    0.000    0.000 
#
# Total GULP energy -446532.016214 kJ/mol
# GULP energy per Si atom -12403.667117 kJ/mol
# Density = 1.850378 g / cm^3
# Si number density = 18.545989 Si / 1000 Ang^3
#
#
#
# Elastic Constant Matrix: (Units=GPa)
#
#
# Indices 1 2 3 4 5 6 
#
# 1 114.3225 52.2883 38.7212 0.0000 0.0000 0.0000
# 2 52.2883 124.3603 51.7121 0.0000 0.0000 0.0000
# 3 38.7212 51.7121 101.4699 0.0000 0.0000 0.0000
# 4 0.0000 0.0000 0.0000 21.6505 0.0000 0.0000
# 5 0.0000 0.0000 0.0000 0.0000 41.9597 0.0000
# 6 0.0000 0.0000 0.0000 0.0000 0.0000 18.6954
#
#
#
# Elastic Compliance Matrix: (Units=1/GPa)
#
#
# Indices 1 2 3 4 5 6 
#
# 1 0.011270 -0.003744 -0.002393 0.000000 0.000000 0.000000
# 2 -0.003744 0.011447 -0.004405 0.000000 0.000000 0.000000
# 3 -0.002393 -0.004405 0.013013 0.000000 0.000000 0.000000
# 4 0.000000 0.000000 0.000000 0.046188 0.000000 0.000000
# 5 0.000000 0.000000 0.000000 0.000000 0.023832 0.000000
# 6 0.000000 0.000000 0.000000 0.000000 0.000000 0.053489
#
#
# Mechanical properties :
#
#
# Convention : Reuss Voigt Hill
#
# Bulk Modulus (GPa) = 68.27310 69.51065 68.89187
# Shear Modulus (GPa) = 26.99709 29.62318 28.31014
#
# Velocity S-wave (km/s) = 3.81948 4.00094 3.91126
# Velocity P-wave (km/s) = 7.50627 7.67495 7.59108
#
# Compressibility (1/GPa) = 0.01464706
#
# Stress axis : x y z
#
# Youngs Moduli (GPa) = 88.73263 87.35976 76.84485
#
# Poissons Ratio (x) = 0.32703 0.18387
# Poissons Ratio (y) = 0.33217 0.33851
# Poissons Ratio (z) = 0.21232 0.38483
#
# Static dielectric constant tensor:
#      x y z
#    x 3.340840 0.000000 0.000000 
#    y 0.000000 3.394670 0.000000 
#    z 0.000000 0.000000 3.342550 
# 
# 
# High freq. dielectric constant tensor:
#      x y z
#    x 1.723520 0.000000 0.000000 
#    y 0.000000 1.725330 0.000000 
#    z 0.000000 0.000000 1.724470 
# 
# From -- ./inp_files/21205.got.cif
#   From: 2010.03.12/outbox.cif.g09.slc.cpg/sg64_11_cif.got.tgz:21205.got - 2010.04.10 20:19:32.
