data_PCOD8262703
_publ_section_title
;
Structure prediction by ZEFSAII (Michael W. Deem and Ramdas Pophale) SiO2 
 PCOD8262703
Probable space group: C M C A
;
_chemical_formula_sum "Si O2"
_cell_formula_units_Z 96
_cell_length_a 18.521941
_cell_length_b 17.647896
_cell_length_c 16.640501
_cell_angle_alpha 90.000000
_cell_angle_beta 90.000000
_cell_angle_gamma 90.000000
_cell_volume 5439.335284
_symmetry_space_group_name_H-M "C M C A"
_symmetry_group_IT_number 64
_symmetry_cell_setting 'orthorhombic'
loop_
_space_group_symop_operation_xyz
x,y,z
-x,1/2-y,1/2+z
x,-y,-z
-x,1/2+y,1/2-z
-x,-y,-z
x,1/2+y,1/2-z
-x,y,z
x,1/2-y,1/2+z
1/2+x,1/2+y,z
1/2-x,-y,1/2+z
1/2+x,1/2-y,-z
1/2-x,y,1/2-z
1/2-x,1/2-y,-z
1/2+x,y,1/2-z
1/2-x,1/2+y,z
1/2+x,-y,1/2+z
loop_
_atom_site_type_symbol
_atom_site_label
_atom_site_fract_x
_atom_site_fract_y
_atom_site_fract_z
Si Si1 0.322464 0.302763 0.776389
Si Si2 0.341881 0.817503 0.360141
Si Si3 0.833836 0.432424 0.234771
Si Si4 0.314730 0.684414 0.598828
Si Si5 0.417832 0.691518 0.449370
Si Si6 0.417567 0.415742 0.699910
O O1 0.250000 0.349787 0.750000
O O2 0.317812 0.232350 0.715466
O O3 0.324689 0.269957 0.866695
O O4 0.391917 0.355875 0.767188
O O5 0.367134 0.896763 0.318266
O O6 0.270928 0.829841 0.416557
O O7 0.404363 0.774420 0.409403
O O8 0.750000 0.448720 0.250000
O O9 0.846806 0.376313 0.160550
O O10 0.872952 0.508350 0.208738
O O11 0.359644 0.676208 0.517740
O O12 0.500000 0.691346 0.482136
O O13 0.406255 0.623185 0.386703
O O14 0.500000 0.435216 0.716620
#
# Coordination Sequence:
#
# PCOD8262703 Si02
#       6
#    16  16  16  16  16  16
#     4   8  15  30  51  70  88 118 162 204 235 271
#     4   8  16  32  51  70  91 119 161 202 231 271
#     4   9  18  33  52  71  91 122 164 201 233 275
#     4   9  17  31  52  72  91 121 160 201 241 278
#     4  10  20  31  46  73 104 128 152 189 240 293
#     4  10  20  31  45  70 102 130 156 191 237 288
#
# _framework density 17.649215999999999
#
# number of rings (size 3 to 8) (size 9 to 14) (size 15 to 20)
#    0.000    3.000    0.000    3.000    0.000    2.667 
#    0.000    5.000    0.000    3.000    0.000    2.333 
#    0.000    0.000    0.000    0.000    0.000    0.000 
#
# Total GULP energy -594736.117561 kJ/mol
# GULP energy per Si atom -12390.335783 kJ/mol
# Density = 1.760905 g / cm^3
# Si number density = 17.649216 Si / 1000 Ang^3
#
#
#
# Elastic Constant Matrix: (Units=GPa)
#
#
# Indices 1 2 3 4 5 6 
#
# 1 77.5535 47.3781 42.3449 0.0000 0.0000 0.0000
# 2 47.3781 91.2606 35.8873 0.0000 0.0000 0.0000
# 3 42.3449 35.8873 61.9878 0.0000 0.0000 0.0000
# 4 0.0000 0.0000 0.0000 15.5780 0.0000 0.0000
# 5 0.0000 0.0000 0.0000 0.0000 24.9109 0.0000
# 6 0.0000 0.0000 0.0000 0.0000 0.0000 23.0848
#
#
#
# Elastic Compliance Matrix: (Units=1/GPa)
#
#
# Indices 1 2 3 4 5 6 
#
# 1 0.024265 -0.007871 -0.012019 0.000000 0.000000 0.000000
# 2 -0.007871 0.016741 -0.004315 0.000000 0.000000 0.000000
# 3 -0.012019 -0.004315 0.026841 0.000000 0.000000 0.000000
# 4 0.000000 0.000000 0.000000 0.064193 0.000000 0.000000
# 5 0.000000 0.000000 0.000000 0.000000 0.040143 0.000000
# 6 0.000000 0.000000 0.000000 0.000000 0.000000 0.043318
#
#
# Mechanical properties :
#
#
# Convention : Reuss Voigt Hill
#
# Bulk Modulus (GPa) = 51.44987 53.55806 52.50397
# Shear Modulus (GPa) = 18.49171 19.72752 19.10961
#
# Velocity S-wave (km/s) = 3.24039 3.34691 3.29408
# Velocity P-wave (km/s) = 6.57380 6.73406 6.65441
#
# Compressibility (1/GPa) = 0.01943639
#
# Stress axis : x y z
#
# Youngs Moduli (GPa) = 41.21089 59.73458 37.25648
#
# Poissons Ratio (x) = 0.47017 0.44780
# Poissons Ratio (y) = 0.32437 0.16077
# Poissons Ratio (z) = 0.49533 0.25776
#
# Static dielectric constant tensor:
#      x y z
#    x 3.239550 0.000000 0.000000 
#    y 0.000000 3.220920 0.000000 
#    z 0.000000 0.000000 3.123370 
# 
# 
# High freq. dielectric constant tensor:
#      x y z
#    x 1.679100 0.000000 0.000000 
#    y 0.000000 1.670040 0.000000 
#    z 0.000000 0.000000 1.663270 
# 
# From -- ./inp_files/33305.got.cif
#   From: 2010.03.12/outbox.cif.g09.slc.cpg/sg64_17_cif.got.tgz:33305.got - 2010.04.10 20:19:32.
