data_PCOD8262344
_publ_section_title
;
Structure prediction by ZEFSAII (Michael W. Deem and Ramdas Pophale) SiO2 
 PCOD8262344
Probable space group: C M C A
;
_chemical_formula_sum "Si O2"
_cell_formula_units_Z 104
_cell_length_a 23.853748
_cell_length_b 9.169632
_cell_length_c 26.612746
_cell_angle_alpha 90.000000
_cell_angle_beta 90.000000
_cell_angle_gamma 90.000000
_cell_volume 5821.008354
_symmetry_space_group_name_H-M "C M C A"
_symmetry_group_IT_number 64
_symmetry_cell_setting 'orthorhombic'
loop_
_space_group_symop_operation_xyz
x,y,z
-x,1/2-y,1/2+z
x,-y,-z
-x,1/2+y,1/2-z
-x,-y,-z
x,1/2+y,1/2-z
-x,y,z
x,1/2-y,1/2+z
1/2+x,1/2+y,z
1/2-x,-y,1/2+z
1/2+x,1/2-y,-z
1/2-x,y,1/2-z
1/2-x,1/2-y,-z
1/2+x,y,1/2-z
1/2-x,1/2+y,z
1/2+x,-y,1/2+z
loop_
_atom_site_type_symbol
_atom_site_label
_atom_site_fract_x
_atom_site_fract_y
_atom_site_fract_z
Si Si1 0.206722 0.036272 0.316759
Si Si2 0.000000 0.283083 0.029845
Si Si3 0.622236 0.763862 0.055753
Si Si4 0.117413 0.933383 0.609313
Si Si5 0.283804 0.422623 0.914056
Si Si6 0.500000 0.600578 0.424316
Si Si7 0.310411 0.264889 0.046203
Si Si8 0.750000 0.216600 0.750000
O O1 0.143076 0.023532 0.336824
O O2 0.252776 0.049854 0.361325
O O3 0.208942 0.177936 0.281293
O O4 0.215215 0.885858 0.287292
O O5 0.942684 0.208327 0.050850
O O6 0.000000 0.447430 0.048153
O O7 0.000000 0.278254 0.968740
O O8 0.657091 0.663183 0.095118
O O9 0.624805 0.932410 0.071078
O O10 0.652404 0.752201 0.002708
O O11 0.152678 0.794519 0.591967
O O12 0.052955 0.884847 0.612717
O O13 0.296097 0.569509 0.943024
O O14 0.247478 0.327220 0.954005
#
# Coordination Sequence:
#
# PCOD8262344 Si02
#       8
#    16   8  16  16  16   8  16   8
#     4  10  20  35  53  80  99 130 162 214 271 333
#     4   9  18  32  50  73 104 147 199 204 243 276
#     4  11  20  33  50  73 107 149 180 217 240 288
#     4  10  19  33  56  76 104 135 183 217 250 298
#     4  11  22  34  50  75 108 134 177 213 262 310
#     4   9  16  32  53  76 101 144 182 223 230 293
#     4  11  21  33  47  73 107 147 177 212 251 294
#     4  10  20  36  58  74 102 122 158 210 284 340
#
# _framework density 17.866320000000002
#
# number of rings (size 3 to 8) (size 9 to 14) (size 15 to 20)
#    0.000    1.692    1.538    6.000    0.000    2.462 
#    0.000    2.308    0.000    0.923    0.000    4.308 
#    0.000    0.000    0.000    0.000    0.000    0.000 
#
# Total GULP energy -644550.430015 kJ/mol
# GULP energy per Si atom -12395.200577 kJ/mol
# Density = 1.782566 g / cm^3
# Si number density = 17.866320 Si / 1000 Ang^3
#
#
#
# Elastic Constant Matrix: (Units=GPa)
#
#
# Indices 1 2 3 4 5 6 
#
# 1 153.9893 36.9951 36.3733 0.0000 0.0000 0.0000
# 2 36.9951 85.0791 12.5037 0.0000 0.0000 0.0000
# 3 36.3733 12.5037 65.4935 0.0000 0.0000 0.0000
# 4 0.0000 0.0000 0.0000 20.8843 0.0000 0.0000
# 5 0.0000 0.0000 0.0000 0.0000 20.2605 0.0000
# 6 0.0000 0.0000 0.0000 0.0000 0.0000 20.2370
#
#
#
# Elastic Compliance Matrix: (Units=1/GPa)
#
#
# Indices 1 2 3 4 5 6 
#
# 1 0.008139 -0.002958 -0.003955 0.000000 0.000000 0.000000
# 2 -0.002958 0.013168 -0.000871 0.000000 0.000000 0.000000
# 3 -0.003955 -0.000871 0.017632 0.000000 0.000000 0.000000
# 4 0.000000 0.000000 0.000000 0.047883 0.000000 0.000000
# 5 0.000000 0.000000 0.000000 0.000000 0.049357 0.000000
# 6 0.000000 0.000000 0.000000 0.000000 0.000000 0.049414
#
#
# Mechanical properties :
#
#
# Convention : Reuss Voigt Hill
#
# Bulk Modulus (GPa) = 42.79059 52.92291 47.85675
# Shear Modulus (GPa) = 23.92901 26.85570 25.39235
#
# Velocity S-wave (km/s) = 3.66366 3.88125 3.77403
# Velocity P-wave (km/s) = 6.47294 7.05488 6.77017
#
# Compressibility (1/GPa) = 0.02336963
#
# Stress axis : x y z
#
# Youngs Moduli (GPa) = 122.86788 75.94205 56.71583
#
# Poissons Ratio (x) = 0.22461 0.22433
# Poissons Ratio (y) = 0.36341 0.04942
# Poissons Ratio (z) = 0.48599 0.06617
#
# Static dielectric constant tensor:
#      x y z
#    x 3.741190 0.000000 0.000000 
#    y 0.000000 3.446320 0.000000 
#    z 0.000000 0.000000 3.263790 
# 
# 
# High freq. dielectric constant tensor:
#      x y z
#    x 1.691030 0.000000 0.000000 
#    y 0.000000 1.691300 0.000000 
#    z 0.000000 0.000000 1.667240 
# 
# From -- ./inp_files/51063.got.cif
#   From: 2010.03.12/outbox.cif.g09.slc.cpg/sg64_26_cif.got.tgz:51063.got - 2010.04.10 20:19:32.
