data_PCOD8262689
_publ_section_title
;
Structure prediction by ZEFSAII (Michael W. Deem and Ramdas Pophale) SiO2 
 PCOD8262689
Probable space group: C M C A
;
_chemical_formula_sum "Si O2"
_cell_formula_units_Z 64
_cell_length_a 16.622205
_cell_length_b 17.867439
_cell_length_c 9.888246
_cell_angle_alpha 90.000000
_cell_angle_beta 90.000000
_cell_angle_gamma 90.000000
_cell_volume 2936.771822
_symmetry_space_group_name_H-M "C M C A"
_symmetry_group_IT_number 64
_symmetry_cell_setting 'orthorhombic'
loop_
_space_group_symop_operation_xyz
x,y,z
-x,1/2-y,1/2+z
x,-y,-z
-x,1/2+y,1/2-z
-x,-y,-z
x,1/2+y,1/2-z
-x,y,z
x,1/2-y,1/2+z
1/2+x,1/2+y,z
1/2-x,-y,1/2+z
1/2+x,1/2-y,-z
1/2-x,y,1/2-z
1/2-x,1/2-y,-z
1/2+x,y,1/2-z
1/2-x,1/2+y,z
1/2+x,-y,1/2+z
loop_
_atom_site_type_symbol
_atom_site_label
_atom_site_fract_x
_atom_site_fract_y
_atom_site_fract_z
Si Si1 0.592952 0.070696 0.095583
Si Si2 0.660348 0.720710 0.510549
Si Si3 0.407406 0.680842 0.787120
Si Si4 0.095319 0.518300 0.646861
O O1 0.500000 0.097499 0.089390
O O2 0.650980 0.136842 0.047234
O O3 0.617845 0.047260 0.247910
O O4 0.605823 0.000000 0.000000
O O5 0.750000 0.750000 0.500000
O O6 0.601972 0.775202 0.427230
O O7 0.638048 0.724410 0.668100
O O8 0.500000 0.675784 0.745524
O O9 0.370083 0.597728 0.802152
O O10 0.132981 0.500000 0.500000
O O11 0.000000 0.526504 0.634586
#
# Coordination Sequence:
#
# PCOD8262689 Si02
#       4
#    16  16  16  16
#     4  10  19  39  71 100 128 179 242 289 337 407
#     4  12  26  43  65  99 146 183 219 286 358 421
#     4  11  23  43  70 100 135 183 239 287 338 412
#     4   9  19  36  65 103 132 163 227 300 339 385
#
# _framework density 21.792636000000002
#
# number of rings (size 3 to 8) (size 9 to 14) (size 15 to 20)
#    0.000    1.500    2.500    3.000    3.500    0.000 
#    0.000    1.250    0.000    0.000    0.000    0.000 
#    0.000    0.000    0.000    0.000    0.000    0.000 
#
# Total GULP energy -396890.030742 kJ/mol
# GULP energy per Si atom -12402.813461 kJ/mol
# Density = 2.174304 g / cm^3
# Si number density = 21.792636 Si / 1000 Ang^3
#
#
#
# Elastic Constant Matrix: (Units=GPa)
#
#
# Indices 1 2 3 4 5 6 
#
# 1 76.7016 47.8871 39.1798 0.0000 0.0000 0.0000
# 2 47.8871 120.8586 41.9476 0.0000 0.0000 0.0000
# 3 39.1798 41.9476 152.0784 0.0000 0.0000 0.0000
# 4 0.0000 0.0000 0.0000 42.0124 0.0000 0.0000
# 5 0.0000 0.0000 0.0000 0.0000 25.3805 0.0000
# 6 0.0000 0.0000 0.0000 0.0000 0.0000 28.6359
#
#
#
# Elastic Compliance Matrix: (Units=1/GPa)
#
#
# Indices 1 2 3 4 5 6 
#
# 1 0.018509 -0.006280 -0.003036 0.000000 0.000000 0.000000
# 2 -0.006280 0.011281 -0.001494 0.000000 0.000000 0.000000
# 3 -0.003036 -0.001494 0.007770 0.000000 0.000000 0.000000
# 4 0.000000 0.000000 0.000000 0.023802 0.000000 0.000000
# 5 0.000000 0.000000 0.000000 0.000000 0.039400 0.000000
# 6 0.000000 0.000000 0.000000 0.000000 0.000000 0.034921
#
#
# Mechanical properties :
#
#
# Convention : Reuss Voigt Hill
#
# Bulk Modulus (GPa) = 62.73541 67.51864 65.12703
# Shear Modulus (GPa) = 30.74705 33.91404 32.33054
#
# Velocity S-wave (km/s) = 3.76026 3.94917 3.85587
# Velocity P-wave (km/s) = 6.90671 7.20029 7.05503
#
# Compressibility (1/GPa) = 0.01593996
#
# Stress axis : x y z
#
# Youngs Moduli (GPa) = 54.02683 88.64582 128.70340
#
# Poissons Ratio (x) = 0.55670 0.39079
# Poissons Ratio (y) = 0.33929 0.19224
# Poissons Ratio (z) = 0.16404 0.13241
#
# Static dielectric constant tensor:
#      x y z
#    x 3.475840 0.000000 0.000000 
#    y 0.000000 4.046610 0.000000 
#    z 0.000000 0.000000 4.294130 
# 
# 
# High freq. dielectric constant tensor:
#      x y z
#    x 1.816990 0.000000 0.000000 
#    y 0.000000 1.864230 0.000000 
#    z 0.000000 0.000000 1.876950 
# 
# From -- ./inp_files/6595.got.cif
#   From: 2010.03.12/outbox.cif.g09.slc.cpg/sg64_4_cif.got.tgz:6595.got - 2010.04.10 20:19:32.
