data_PCOD8262827
_publ_section_title
;
Structure prediction by ZEFSAII (Michael W. Deem and Ramdas Pophale) SiO2 
 PCOD8262827
Probable space group: C M C A
;
_chemical_formula_sum "Si O2"
_cell_formula_units_Z 96
_cell_length_a 9.062671
_cell_length_b 26.993658
_cell_length_c 21.367219
_cell_angle_alpha 90.000000
_cell_angle_beta 90.000000
_cell_angle_gamma 90.000000
_cell_volume 5227.161961
_symmetry_space_group_name_H-M "C M C A"
_symmetry_group_IT_number 64
_symmetry_cell_setting 'orthorhombic'
loop_
_space_group_symop_operation_xyz
x,y,z
-x,1/2-y,1/2+z
x,-y,-z
-x,1/2+y,1/2-z
-x,-y,-z
x,1/2+y,1/2-z
-x,y,z
x,1/2-y,1/2+z
1/2+x,1/2+y,z
1/2-x,-y,1/2+z
1/2+x,1/2-y,-z
1/2-x,y,1/2-z
1/2-x,1/2-y,-z
1/2+x,y,1/2-z
1/2-x,1/2+y,z
1/2+x,-y,1/2+z
loop_
_atom_site_type_symbol
_atom_site_label
_atom_site_fract_x
_atom_site_fract_y
_atom_site_fract_z
Si Si1 0.671396 0.916145 0.911779
Si Si2 0.330771 0.388280 0.033901
Si Si3 0.834563 0.250746 0.189256
Si Si4 0.338665 0.990582 0.426089
Si Si5 0.326191 0.275430 0.060430
Si Si6 0.661990 0.865014 0.692512
O O1 0.500000 0.912326 0.900444
O O2 0.750942 0.875445 0.870321
O O3 0.721519 0.972337 0.894367
O O4 0.711767 0.899956 0.981214
O O5 0.500000 0.391749 0.008289
O O6 0.305777 0.431911 0.085937
O O7 0.299646 0.334365 0.061281
O O8 0.750000 0.274164 0.250000
O O9 0.744502 0.257206 0.125005
O O10 0.852038 0.193112 0.201778
O O11 0.000000 0.274105 0.183725
O O12 0.500000 0.003936 0.399043
O O13 0.335498 0.000000 0.500000
O O14 0.500000 0.262373 0.058899
O O15 0.250000 0.250000 0.000000
O O16 0.500000 0.889258 0.689724
O O17 0.750000 0.889479 0.750000
#
# Coordination Sequence:
#
# PCOD8262827 Si02
#       6
#    16  16  16  16  16  16
#     4  11  20  29  47  75 103 129 160 201 250 301
#     4   9  19  34  50  70  99 135 170 205 248 296
#     4  10  21  37  56  77 103 138 177 214 257 311
#     4   8  15  30  49  67  92 128 164 197 240 294
#     4  11  22  35  53  79 109 139 175 219 264 307
#     4  10  20  34  51  71  97 129 165 203 245 297
#
# _framework density 18.365607000000001
#
# number of rings (size 3 to 8) (size 9 to 14) (size 15 to 20)
#    0.000    2.167    0.000    5.000    0.000   10.333 
#    0.000    0.000    0.000    1.000    0.000    4.667 
#    0.000    0.000    0.000    0.000    0.000    0.000 
#
# Total GULP energy -594815.571282 kJ/mol
# GULP energy per Si atom -12391.991068 kJ/mol
# Density = 1.832381 g / cm^3
# Si number density = 18.365607 Si / 1000 Ang^3
#
#
#
# Elastic Constant Matrix: (Units=GPa)
#
#
# Indices 1 2 3 4 5 6 
#
# 1 154.0390 25.7343 46.9971 0.0000 0.0000 0.0000
# 2 25.7343 54.2975 8.3656 0.0000 0.0000 0.0000
# 3 46.9971 8.3656 82.4531 0.0000 0.0000 0.0000
# 4 0.0000 0.0000 0.0000 17.0655 0.0000 0.0000
# 5 0.0000 0.0000 0.0000 0.0000 26.7950 0.0000
# 6 0.0000 0.0000 0.0000 0.0000 0.0000 -6.7484
#
#
#
# Elastic Compliance Matrix: (Units=1/GPa)
#
#
# Indices 1 2 3 4 5 6 
#
# 1 0.008401 -0.003296 -0.004454 0.000000 0.000000 0.000000
# 2 -0.003296 0.020002 -0.000151 0.000000 0.000000 0.000000
# 3 -0.004454 -0.000151 0.014682 0.000000 0.000000 0.000000
# 4 0.000000 0.000000 0.000000 0.058598 0.000000 0.000000
# 5 0.000000 0.000000 0.000000 0.000000 0.037320 0.000000
# 6 0.000000 0.000000 0.000000 0.000000 0.000000 -0.148183
#
#
# Mechanical properties :
#
#
# Convention : Reuss Voigt Hill
#
# Bulk Modulus (GPa) = 36.65119 50.33152 43.49136
# Shear Modulus (GPa) = 318.10435 21.40192 169.75313
#
# Velocity S-wave (km/s) = 13.17507 3.41739 9.62448
# Velocity P-wave (km/s) = 15.85696 6.56020 12.13424
#
# Compressibility (1/GPa) = 0.02728424
#
# Stress axis : x y z
#
# Youngs Moduli (GPa) = 119.02709 49.99435 68.10900
#
# Poissons Ratio (x) = 0.16476 0.30338
# Poissons Ratio (y) = 0.39226 0.01028
# Poissons Ratio (z) = 0.53019 0.00755
#
# Static dielectric constant tensor:
#      x y z
#    x 3.811860 0.000000 0.000000 
#    y 0.000000 3.653830 0.000000 
#    z 0.000000 0.000000 3.134050 
# 
# 
# High freq. dielectric constant tensor:
#      x y z
#    x 1.725750 0.000000 0.000000 
#    y 0.000000 1.705690 0.000000 
#    z 0.000000 0.000000 1.676400 
# 
# From -- ./inp_files/37113.got.cif
#   From: 2010.03.12/outbox.cif.g09.slc.cpg/sg64_19_cif.got.tgz:37113.got - 2010.04.10 20:19:32.
