data_PCOD8262760
_publ_section_title
;
Structure prediction by ZEFSAII (Michael W. Deem and Ramdas Pophale) SiO2 
 PCOD8262760
Probable space group: C M C A
;
_chemical_formula_sum "Si O2"
_cell_formula_units_Z 96
_cell_length_a 10.277984
_cell_length_b 18.631522
_cell_length_c 28.225627
_cell_angle_alpha 90.000000
_cell_angle_beta 90.000000
_cell_angle_gamma 90.000000
_cell_volume 5405.051906
_symmetry_space_group_name_H-M "C M C A"
_symmetry_group_IT_number 64
_symmetry_cell_setting 'orthorhombic'
loop_
_space_group_symop_operation_xyz
x,y,z
-x,1/2-y,1/2+z
x,-y,-z
-x,1/2+y,1/2-z
-x,-y,-z
x,1/2+y,1/2-z
-x,y,z
x,1/2-y,1/2+z
1/2+x,1/2+y,z
1/2-x,-y,1/2+z
1/2+x,1/2-y,-z
1/2-x,y,1/2-z
1/2-x,1/2-y,-z
1/2+x,y,1/2-z
1/2-x,1/2+y,z
1/2+x,-y,1/2+z
loop_
_atom_site_type_symbol
_atom_site_label
_atom_site_fract_x
_atom_site_fract_y
_atom_site_fract_z
Si Si1 0.739404 0.047343 0.643394
Si Si2 0.232139 0.281989 0.357979
Si Si3 0.347777 0.785059 0.462764
Si Si4 0.500000 0.952181 0.189672
Si Si5 0.500000 0.219050 0.814402
Si Si6 0.849094 0.952795 0.042947
Si Si7 0.000000 0.047797 0.796045
Si Si8 0.000000 0.219112 0.793179
O O1 0.732218 0.132712 0.644007
O O2 0.725199 0.020329 0.589719
O O3 0.625642 0.017244 0.676884
O O4 0.874502 0.017051 0.663000
O O5 0.192675 0.256812 0.410658
O O6 0.373903 0.252376 0.342892
O O7 0.127556 0.251817 0.320347
O O8 0.500000 0.765681 0.472598
O O9 0.250000 0.750000 0.500000
O O10 0.325228 0.869678 0.467474
O O11 0.500000 0.866517 0.188336
O O12 0.500000 0.982279 0.242888
O O13 0.500000 0.248724 0.760555
O O14 0.000000 0.968409 0.051560
O O15 0.793241 0.000000 0.000000
O O16 0.000000 0.133431 0.794347
#
# Coordination Sequence:
#
# PCOD8262760 Si02
#       8
#    16  16  16   8   8  16   8   8
#     4   9  15  25  39  59  87 119 149 183 229 272
#     4   9  16  26  39  59  89 120 149 185 230 276
#     4  10  20  33  50  70  95 126 159 198 239 279
#     4   9  16  22  33  58  91 119 145 179 224 281
#     4   9  16  22  37  60  85 121 151 179 222 281
#     4   9  17  32  52  70  91 123 163 198 230 275
#     4   9  14  22  37  56  83 121 153 177 218 277
#     4   9  14  24  37  56  87 119 151 181 224 279
#
# _framework density 17.761161000000001
#
# number of rings (size 3 to 8) (size 9 to 14) (size 15 to 20)
#    0.000    2.833    1.667    1.000    1.167    4.000 
#    1.500    0.417    0.000    0.000    0.000    0.000 
#    0.000    8.000    0.000    0.000    0.000    0.000 
#
# Total GULP energy -595011.515964 kJ/mol
# GULP energy per Si atom -12396.073249 kJ/mol
# Density = 1.772074 g / cm^3
# Si number density = 17.761161 Si / 1000 Ang^3
#
#
#
# Elastic Constant Matrix: (Units=GPa)
#
#
# Indices 1 2 3 4 5 6 
#
# 1 169.4769 18.8014 101.6657 0.0000 0.0000 0.0000
# 2 18.8014 12.9851 27.1914 0.0000 0.0000 0.0000
# 3 101.6657 27.1914 182.9079 0.0000 0.0000 0.0000
# 4 0.0000 0.0000 0.0000 18.5798 0.0000 0.0000
# 5 0.0000 0.0000 0.0000 0.0000 37.2977 0.0000
# 6 0.0000 0.0000 0.0000 0.0000 0.0000 9.2945
#
#
#
# Elastic Compliance Matrix: (Units=1/GPa)
#
#
# Indices 1 2 3 4 5 6 
#
# 1 0.008973 -0.003700 -0.004437 0.000000 0.000000 0.000000
# 2 -0.003700 0.113348 -0.014794 0.000000 0.000000 0.000000
# 3 -0.004437 -0.014794 0.010133 0.000000 0.000000 0.000000
# 4 0.000000 0.000000 0.000000 0.053822 0.000000 0.000000
# 5 0.000000 0.000000 0.000000 0.000000 0.026811 0.000000
# 6 0.000000 0.000000 0.000000 0.000000 0.000000 0.107590
#
#
# Mechanical properties :
#
#
# Convention : Reuss Voigt Hill
#
# Bulk Modulus (GPa) = 11.54851 73.40965 42.47908
# Shear Modulus (GPa) = 12.64532 27.54850 20.09691
#
# Velocity S-wave (km/s) = 2.67116 3.94261 3.36744
# Velocity P-wave (km/s) = 4.00371 7.88333 6.25206
#
# Compressibility (1/GPa) = 0.08659127
#
# Stress axis : x y z
#
# Youngs Moduli (GPa) = 111.44742 8.82239 98.68825
#
# Poissons Ratio (x) = 0.03264 0.43791
# Poissons Ratio (y) = 0.41235 1.45999
# Poissons Ratio (z) = 0.49453 0.13052
#
# Static dielectric constant tensor:
#      x y z
#    x 3.514360 0.000000 0.000000 
#    y 0.000000 2.566790 0.000000 
#    z 0.000000 0.000000 3.535890 
# 
# 
# High freq. dielectric constant tensor:
#      x y z
#    x 1.697820 0.000000 0.000000 
#    y 0.000000 1.599560 0.000000 
#    z 0.000000 0.000000 1.705590 
# 
# From -- ./inp_files/44373.got.cif
#   From: 2010.03.12/outbox.cif.g09.slc.cpg/sg64_23_cif.got.tgz:44373.got - 2010.04.10 20:19:32.
