data_PCOD8262449
_publ_section_title
;
Structure prediction by ZEFSAII (Michael W. Deem and Ramdas Pophale) SiO2 
 PCOD8262449
Probable space group: C M C A
;
_chemical_formula_sum "Si O2"
_cell_formula_units_Z 96
_cell_length_a 8.935801
_cell_length_b 20.450255
_cell_length_c 28.147067
_cell_angle_alpha 90.000000
_cell_angle_beta 90.000000
_cell_angle_gamma 90.000000
_cell_volume 5143.578391
_symmetry_space_group_name_H-M "C M C A"
_symmetry_group_IT_number 64
_symmetry_cell_setting 'orthorhombic'
loop_
_space_group_symop_operation_xyz
x,y,z
-x,1/2-y,1/2+z
x,-y,-z
-x,1/2+y,1/2-z
-x,-y,-z
x,1/2+y,1/2-z
-x,y,z
x,1/2-y,1/2+z
1/2+x,1/2+y,z
1/2-x,-y,1/2+z
1/2+x,1/2-y,-z
1/2-x,y,1/2-z
1/2-x,1/2-y,-z
1/2+x,y,1/2-z
1/2-x,1/2+y,z
1/2+x,-y,1/2+z
loop_
_atom_site_type_symbol
_atom_site_label
_atom_site_fract_x
_atom_site_fract_y
_atom_site_fract_z
Si Si1 0.822325 0.260307 0.101761
Si Si2 0.171840 0.996701 0.108293
Si Si3 0.677362 0.112506 0.953949
Si Si4 0.328016 0.371669 0.947006
Si Si5 0.824783 0.455451 0.201778
Si Si6 0.674251 0.696704 0.702305
O O1 0.763247 0.321516 0.071115
O O2 0.764869 0.193679 0.078059
O O3 0.762438 0.265493 0.156001
O O4 0.000000 0.262201 0.103220
O O5 0.248641 0.949717 0.070355
O O6 0.254393 0.995003 0.158503
O O7 0.000000 0.975431 0.114397
O O8 0.185624 0.070578 0.090632
O O9 0.500000 0.105573 0.949393
O O10 0.723896 0.113201 0.008536
O O11 0.500000 0.362728 0.963748
O O12 0.750000 0.481504 0.250000
O O13 0.788350 0.379287 0.194404
O O14 0.000000 0.469291 0.203886
O O15 0.500000 0.708352 0.708710
O O16 0.750000 0.724319 0.750000
#
# Coordination Sequence:
#
# PCOD8262449 Si02
#       6
#    16  16  16  16  16  16
#     4   9  18  36  57  78 108 143 179 222 274 323
#     4  11  22  36  55  81 112 147 184 221 270 325
#     4  11  21  36  58  81 106 142 186 232 275 319
#     4  10  22  38  55  77 110 148 182 223 273 328
#     4  10  19  34  57  84 111 140 180 226 272 319
#     4   9  17  32  54  80 106 134 172 218 266 314
#
# _framework density 18.664048000000001
#
# number of rings (size 3 to 8) (size 9 to 14) (size 15 to 20)
#    0.000    2.000    1.667    2.500    0.000    4.000 
#    0.000    2.500    0.000    2.000    0.000    0.000 
#    0.000    0.000    0.000    0.000    0.000    0.000 
#
# Total GULP energy -595330.173802 kJ/mol
# GULP energy per Si atom -12402.711954 kJ/mol
# Density = 1.862157 g / cm^3
# Si number density = 18.664048 Si / 1000 Ang^3
#
#
#
# Elastic Constant Matrix: (Units=GPa)
#
#
# Indices 1 2 3 4 5 6 
#
# 1 64.9344 25.8768 38.3893 0.0000 0.0000 0.0000
# 2 25.8768 70.7628 24.1801 0.0000 0.0000 0.0000
# 3 38.3893 24.1801 132.7533 0.0000 0.0000 0.0000
# 4 0.0000 0.0000 0.0000 4.3634 0.0000 0.0000
# 5 0.0000 0.0000 0.0000 0.0000 36.6518 0.0000
# 6 0.0000 0.0000 0.0000 0.0000 0.0000 12.0455
#
#
#
# Elastic Compliance Matrix: (Units=1/GPa)
#
#
# Indices 1 2 3 4 5 6 
#
# 1 0.020636 -0.005873 -0.004898 0.000000 0.000000 0.000000
# 2 -0.005873 0.016741 -0.001351 0.000000 0.000000 0.000000
# 3 -0.004898 -0.001351 0.009195 0.000000 0.000000 0.000000
# 4 0.000000 0.000000 0.000000 0.229178 0.000000 0.000000
# 5 0.000000 0.000000 0.000000 0.000000 0.027284 0.000000
# 6 0.000000 0.000000 0.000000 0.000000 0.000000 0.083018
#
#
# Mechanical properties :
#
#
# Convention : Reuss Voigt Hill
#
# Bulk Modulus (GPa) = 44.78443 49.48255 47.13349
# Shear Modulus (GPa) = 11.96921 22.61243 17.29082
#
# Velocity S-wave (km/s) = 2.53513 3.48451 3.04702
# Velocity P-wave (km/s) = 5.71107 6.53903 6.13902
#
# Compressibility (1/GPa) = 0.02232919
#
# Stress axis : x y z
#
# Youngs Moduli (GPa) = 48.45884 59.73396 108.75254
#
# Poissons Ratio (x) = 0.35080 0.53265
# Poissons Ratio (y) = 0.28458 0.14692
# Poissons Ratio (z) = 0.23734 0.08070
#
# Static dielectric constant tensor:
#      x y z
#    x 3.356100 0.000000 0.000000 
#    y 0.000000 3.422180 0.000000 
#    z 0.000000 0.000000 3.730540 
# 
# 
# High freq. dielectric constant tensor:
#      x y z
#    x 1.714690 0.000000 0.000000 
#    y 0.000000 1.709790 0.000000 
#    z 0.000000 0.000000 1.740940 
# 
# From -- ./inp_files/48050.got.cif
#   From: 2010.03.12/outbox.cif.g09.slc.cpg/sg64_25_cif.got.tgz:48050.got - 2010.04.10 20:19:32.
