data_PCOD8262179
_publ_section_title
;
Structure prediction by ZEFSAII (Michael W. Deem and Ramdas Pophale) SiO2 
 PCOD8262179
Probable space group: C M C A
;
_chemical_formula_sum "Si O2"
_cell_formula_units_Z 72
_cell_length_a 32.480564
_cell_length_b 24.826224
_cell_length_c 5.025777
_cell_angle_alpha 90.000000
_cell_angle_beta 90.000000
_cell_angle_gamma 90.000000
_cell_volume 4052.634581
_symmetry_space_group_name_H-M "C M C A"
_symmetry_group_IT_number 64
_symmetry_cell_setting 'orthorhombic'
loop_
_space_group_symop_operation_xyz
x,y,z
-x,1/2-y,1/2+z
x,-y,-z
-x,1/2+y,1/2-z
-x,-y,-z
x,1/2+y,1/2-z
-x,y,z
x,1/2-y,1/2+z
1/2+x,1/2+y,z
1/2-x,-y,1/2+z
1/2+x,1/2-y,-z
1/2-x,y,1/2-z
1/2-x,1/2-y,-z
1/2+x,y,1/2-z
1/2-x,1/2+y,z
1/2+x,-y,1/2+z
loop_
_atom_site_type_symbol
_atom_site_label
_atom_site_fract_x
_atom_site_fract_y
_atom_site_fract_z
Si Si1 0.083327 0.895415 0.852515
Si Si2 0.452880 0.214488 0.486763
Si Si3 0.750000 0.463302 0.750000
Si Si4 0.952449 0.554528 0.868284
Si Si5 0.660887 0.538542 0.250965
O O1 0.079320 0.834071 0.949565
O O2 0.054500 0.899613 0.590504
O O3 0.129511 0.911322 0.766770
O O4 0.070097 0.934999 0.090755
O O5 0.500000 0.192891 0.465051
O O6 0.444465 0.238564 0.776276
O O7 0.757176 0.500000 0.500000
O O8 0.706237 0.432096 0.720829
O O9 0.000000 0.548999 0.797401
O O10 0.934460 0.500000 0.000000
O O11 0.651549 0.500000 0.500000
O O12 0.657275 0.500000 0.000000
#
# Coordination Sequence:
#
# PCOD8262179 Si02
#       5
#    16  16   8  16  16
#     4  12  21  33  52  72  95 129 167 207 245 285
#     4  10  21  36  51  67  89 122 168 216 254 285
#     4   8  16  30  48  70 100 132 156 186 230 284
#     4  11  22  33  46  69 102 134 161 191 235 295
#     4  10  19  32  50  75 104 130 158 192 235 293
#
# _framework density 17.766220000000001
#
# number of rings (size 3 to 8) (size 9 to 14) (size 15 to 20)
#    0.000    1.556    0.000    7.333    0.000    3.556 
#    0.000    0.000    0.000    0.000    0.000    1.556 
#    0.000    0.000    0.000    0.000    0.000    0.000 
#
# Total GULP energy -446206.577393 kJ/mol
# GULP energy per Si atom -12394.627150 kJ/mol
# Density = 1.772578 g / cm^3
# Si number density = 17.766220 Si / 1000 Ang^3
#
#
#
# Elastic Constant Matrix: (Units=GPa)
#
#
# Indices 1 2 3 4 5 6 
#
# 1 119.6254 47.8597 23.4605 0.0000 0.0000 0.0000
# 2 47.8597 62.3107 -1.9072 0.0000 0.0000 0.0000
# 3 23.4605 -1.9072 89.7879 0.0000 0.0000 0.0000
# 4 0.0000 0.0000 0.0000 20.3054 0.0000 0.0000
# 5 0.0000 0.0000 0.0000 0.0000 20.8824 0.0000
# 6 0.0000 0.0000 0.0000 0.0000 0.0000 16.4723
#
#
#
# Elastic Compliance Matrix: (Units=1/GPa)
#
#
# Indices 1 2 3 4 5 6 
#
# 1 0.013168 -0.010226 -0.003658 0.000000 0.000000 0.000000
# 2 -0.010226 0.024000 0.003182 0.000000 0.000000 0.000000
# 3 -0.003658 0.003182 0.012161 0.000000 0.000000 0.000000
# 4 0.000000 0.000000 0.000000 0.049248 0.000000 0.000000
# 5 0.000000 0.000000 0.000000 0.000000 0.047887 0.000000
# 6 0.000000 0.000000 0.000000 0.000000 0.000000 0.060708
#
#
# Mechanical properties :
#
#
# Convention : Reuss Voigt Hill
#
# Bulk Modulus (GPa) = 35.81045 45.61666 40.71356
# Shear Modulus (GPa) = 21.01857 25.01944 23.01901
#
# Velocity S-wave (km/s) = 3.44330 3.75675 3.60343
# Velocity P-wave (km/s) = 6.00072 6.67453 6.34657
#
# Compressibility (1/GPa) = 0.02792481
#
# Stress axis : x y z
#
# Youngs Moduli (GPa) = 75.94146 41.66588 82.23214
#
# Poissons Ratio (x) = 0.42608 0.30079
# Poissons Ratio (y) = 0.77658 -0.26164
# Poissons Ratio (z) = 0.27778 -0.13257
#
# Static dielectric constant tensor:
#      x y z
#    x 3.617310 0.000000 0.000000 
#    y 0.000000 2.914360 0.000000 
#    z 0.000000 0.000000 3.524340 
# 
# 
# High freq. dielectric constant tensor:
#      x y z
#    x 1.679160 0.000000 0.000000 
#    y 0.000000 1.639790 0.000000 
#    z 0.000000 0.000000 1.720740 
# 
# From -- ./inp_files/3248.got.cif
#   From: 2010.03.12/outbox.cif.g09.slc.cpg/sg64_2_cif.got.tgz:3248.got - 2010.04.10 20:19:32.
