data_PCOD8262122
_publ_section_title
;
Structure prediction by ZEFSAII (Michael W. Deem and Ramdas Pophale) SiO2 
 PCOD8262122
Probable space group: C M C A
;
_chemical_formula_sum "Si O2"
_cell_formula_units_Z 96
_cell_length_a 8.764030
_cell_length_b 22.904367
_cell_length_c 26.744690
_cell_angle_alpha 90.000000
_cell_angle_beta 90.000000
_cell_angle_gamma 90.000000
_cell_volume 5368.583567
_symmetry_space_group_name_H-M "C M C A"
_symmetry_group_IT_number 64
_symmetry_cell_setting 'orthorhombic'
loop_
_space_group_symop_operation_xyz
x,y,z
-x,1/2-y,1/2+z
x,-y,-z
-x,1/2+y,1/2-z
-x,-y,-z
x,1/2+y,1/2-z
-x,y,z
x,1/2-y,1/2+z
1/2+x,1/2+y,z
1/2-x,-y,1/2+z
1/2+x,1/2-y,-z
1/2-x,y,1/2-z
1/2-x,1/2-y,-z
1/2+x,y,1/2-z
1/2-x,1/2+y,z
1/2+x,-y,1/2+z
loop_
_atom_site_type_symbol
_atom_site_label
_atom_site_fract_x
_atom_site_fract_y
_atom_site_fract_z
Si Si1 0.331866 0.517391 0.447091
Si Si2 0.318426 0.500761 0.804556
Si Si3 0.320156 0.177874 0.549127
Si Si4 0.168914 0.589744 0.876470
Si Si5 0.674823 0.900984 0.621308
Si Si6 0.321411 0.688200 0.444835
O O1 0.267506 0.500000 0.500000
O O2 0.500000 0.548740 0.449442
O O3 0.352442 0.458906 0.417239
O O4 0.199361 0.558379 0.426649
O O5 0.500000 0.503095 0.803529
O O6 0.250000 0.497352 0.750000
O O7 0.260304 0.560649 0.830247
O O8 0.263970 0.440401 0.832139
O O9 0.500000 0.168580 0.546528
O O10 0.257011 0.142793 0.597005
O O11 0.272510 0.244622 0.559353
O O12 0.251526 0.159149 0.495020
O O13 0.000000 0.610515 0.858249
O O14 0.500000 0.884018 0.629058
O O15 0.766975 0.842069 0.607510
O O16 0.500000 0.681027 0.450010
#
# Coordination Sequence:
#
# PCOD8262122 Si02
#       6
#    16  16  16  16  16  16
#     4   9  17  28  43  66  97 130 162 196 239 295
#     4  10  21  37  56  78 102 129 165 210 261 311
#     4  10  20  33  50  74 105 140 176 212 247 291
#     4  10  19  31  50  75 102 133 167 206 253 303
#     4  10  20  32  49  73  99 128 164 208 253 299
#     4  10  20  33  50  73 104 142 177 208 246 295
#
# _framework density 17.881812
#
# number of rings (size 3 to 8) (size 9 to 14) (size 15 to 20)
#    0.000    2.167    0.000    3.500    0.000    6.333 
#    0.000    0.000    0.000    1.000    0.000    2.333 
#    0.000    0.000    0.000    0.000    0.000    0.000 
#
# Total GULP energy -594717.408618 kJ/mol
# GULP energy per Si atom -12389.946013 kJ/mol
# Density = 1.784111 g / cm^3
# Si number density = 17.881812 Si / 1000 Ang^3
#
#
#
# Elastic Constant Matrix: (Units=GPa)
#
#
# Indices 1 2 3 4 5 6 
#
# 1 80.5921 28.6473 35.1939 0.0000 0.0000 0.0000
# 2 28.6473 76.2719 33.7458 0.0000 0.0000 0.0000
# 3 35.1939 33.7458 95.5665 0.0000 0.0000 0.0000
# 4 0.0000 0.0000 0.0000 25.4571 0.0000 0.0000
# 5 0.0000 0.0000 0.0000 0.0000 31.4054 0.0000
# 6 0.0000 0.0000 0.0000 0.0000 0.0000 30.5875
#
#
#
# Elastic Compliance Matrix: (Units=1/GPa)
#
#
# Indices 1 2 3 4 5 6 
#
# 1 0.015737 -0.003966 -0.004395 0.000000 0.000000 0.000000
# 2 -0.003966 0.016538 -0.004379 0.000000 0.000000 0.000000
# 3 -0.004395 -0.004379 0.013629 0.000000 0.000000 0.000000
# 4 0.000000 0.000000 0.000000 0.039282 0.000000 0.000000
# 5 0.000000 0.000000 0.000000 0.000000 0.031842 0.000000
# 6 0.000000 0.000000 0.000000 0.000000 0.000000 0.032693
#
#
# Mechanical properties :
#
#
# Convention : Reuss Voigt Hill
#
# Bulk Modulus (GPa) = 48.96357 49.73383 49.34870
# Shear Modulus (GPa) = 27.47107 27.81289 27.64198
#
# Velocity S-wave (km/s) = 3.92376 3.94810 3.93595
# Velocity P-wave (km/s) = 6.92597 6.97540 6.95073
#
# Compressibility (1/GPa) = 0.02042335
#
# Stress axis : x y z
#
# Youngs Moduli (GPa) = 63.54344 60.46585 73.37418
#
# Poissons Ratio (x) = 0.23983 0.32247
# Poissons Ratio (y) = 0.25203 0.32132
# Poissons Ratio (z) = 0.27927 0.26479
#
# Static dielectric constant tensor:
#      x y z
#    x 3.445490 0.000000 0.000000 
#    y 0.000000 3.348280 0.000000 
#    z 0.000000 0.000000 3.237070 
# 
# 
# High freq. dielectric constant tensor:
#      x y z
#    x 1.703460 0.000000 0.000000 
#    y 0.000000 1.686330 0.000000 
#    z 0.000000 0.000000 1.667400 
# 
# From -- ./inp_files/48142.got.cif
#   From: 2010.03.12/outbox.cif.g09.slc.cpg/sg64_25_cif.got.tgz:48142.got - 2010.04.10 20:19:32.
