data_PCOD8262259
_publ_section_title
;
Structure prediction by ZEFSAII (Michael W. Deem and Ramdas Pophale) SiO2 
 PCOD8262259
Probable space group: C M C A
;
_chemical_formula_sum "Si O2"
_cell_formula_units_Z 80
_cell_length_a 18.898553
_cell_length_b 13.748464
_cell_length_c 14.793286
_cell_angle_alpha 90.000000
_cell_angle_beta 90.000000
_cell_angle_gamma 90.000000
_cell_volume 3843.681446
_symmetry_space_group_name_H-M "C M C A"
_symmetry_group_IT_number 64
_symmetry_cell_setting 'orthorhombic'
loop_
_space_group_symop_operation_xyz
x,y,z
-x,1/2-y,1/2+z
x,-y,-z
-x,1/2+y,1/2-z
-x,-y,-z
x,1/2+y,1/2-z
-x,y,z
x,1/2-y,1/2+z
1/2+x,1/2+y,z
1/2-x,-y,1/2+z
1/2+x,1/2-y,-z
1/2-x,y,1/2-z
1/2-x,1/2-y,-z
1/2+x,y,1/2-z
1/2-x,1/2+y,z
1/2+x,-y,1/2+z
loop_
_atom_site_type_symbol
_atom_site_label
_atom_site_fract_x
_atom_site_fract_y
_atom_site_fract_z
Si Si1 0.920089 0.523743 0.241199
Si Si2 0.077126 0.083558 0.928433
Si Si3 0.302272 0.601154 0.666920
Si Si4 0.713489 0.148458 0.507377
Si Si5 0.816284 0.327971 0.687700
O O1 0.922436 0.455229 0.327787
O O2 0.870824 0.468713 0.168050
O O3 0.887065 0.628688 0.266588
O O4 0.000000 0.539678 0.203558
O O5 0.138074 0.164084 0.941225
O O6 0.000000 0.128623 0.951136
O O7 0.096056 0.000000 0.000000
O O8 0.250000 0.575680 0.750000
O O9 0.262196 0.580069 0.571393
O O10 0.327653 0.713357 0.672165
O O11 0.750000 0.250000 0.500000
O O12 0.699661 0.112042 0.405174
O O13 0.750000 0.349998 0.750000
#
# Coordination Sequence:
#
# PCOD8262259 Si02
#       5
#    16  16  16  16  16
#     4  11  22  36  57  85 119 156 188 238 304 354
#     4  10  19  32  55  87 114 141 188 244 293 343
#     4  10  20  37  59  86 116 147 196 245 293 351
#     4  10  20  36  59  85 114 152 193 244 298 347
#     4  10  22  37  58  85 113 151 198 242 289 351
#
# _framework density 20.813379999999999
#
# number of rings (size 3 to 8) (size 9 to 14) (size 15 to 20)
#    0.000    1.800    4.000    0.600    0.000    0.800 
#    0.000    3.000    0.000    2.400    0.000    0.000 
#    0.000    0.000    0.000    0.000    0.000    0.000 
#
# Total GULP energy -495728.657200 kJ/mol
# GULP energy per Si atom -12393.216430 kJ/mol
# Density = 2.076601 g / cm^3
# Si number density = 20.813380 Si / 1000 Ang^3
#
#
#
# Elastic Constant Matrix: (Units=GPa)
#
#
# Indices 1 2 3 4 5 6 
#
# 1 166.2783 43.1642 18.6767 0.0000 0.0000 0.0000
# 2 43.1642 50.7299 0.7626 0.0000 0.0000 0.0000
# 3 18.6767 0.7626 61.1244 0.0000 0.0000 0.0000
# 4 0.0000 0.0000 0.0000 22.8186 0.0000 0.0000
# 5 0.0000 0.0000 0.0000 0.0000 9.5429 0.0000
# 6 0.0000 0.0000 0.0000 0.0000 0.0000 26.7252
#
#
#
# Elastic Compliance Matrix: (Units=1/GPa)
#
#
# Indices 1 2 3 4 5 6 
#
# 1 0.008049 -0.006813 -0.002374 0.000000 0.000000 0.000000
# 2 -0.006813 0.025483 0.001764 0.000000 0.000000 0.000000
# 3 -0.002374 0.001764 0.017064 0.000000 0.000000 0.000000
# 4 0.000000 0.000000 0.000000 0.043824 0.000000 0.000000
# 5 0.000000 0.000000 0.000000 0.000000 0.104790 0.000000
# 6 0.000000 0.000000 0.000000 0.000000 0.000000 0.037418
#
#
# Mechanical properties :
#
#
# Convention : Reuss Voigt Hill
#
# Bulk Modulus (GPa) = 27.97351 44.81553 36.39452
# Shear Modulus (GPa) = 18.98315 26.18594 22.58454
#
# Velocity S-wave (km/s) = 3.02332 3.55086 3.29766
# Velocity P-wave (km/s) = 5.06523 6.19599 5.65893
#
# Compressibility (1/GPa) = 0.03574810
#
# Stress axis : x y z
#
# Youngs Moduli (GPa) = 124.23338 39.24207 58.60427
#
# Poissons Ratio (x) = 0.26736 0.13916
# Poissons Ratio (y) = 0.84643 -0.10337
# Poissons Ratio (z) = 0.29499 -0.06922
#
# Static dielectric constant tensor:
#      x y z
#    x 4.297540 0.000000 0.000000 
#    y 0.000000 3.470470 0.000000 
#    z 0.000000 0.000000 4.045740 
# 
# 
# High freq. dielectric constant tensor:
#      x y z
#    x 1.820540 0.000000 0.000000 
#    y 0.000000 1.789180 0.000000 
#    z 0.000000 0.000000 1.811690 
# 
# From -- ./inp_files/25299.got.cif
#   From: 2010.03.12/outbox.cif.g09.slc.cpg/sg64_13_cif.got.tgz:25299.got - 2010.04.10 20:19:32.
