data_PCOD8262416
_publ_section_title
;
Structure prediction by ZEFSAII (Michael W. Deem and Ramdas Pophale) SiO2 
 PCOD8262416
Probable space group: C M C A
;
_chemical_formula_sum "Si O2"
_cell_formula_units_Z 72
_cell_length_a 13.073804
_cell_length_b 13.130666
_cell_length_c 22.087818
_cell_angle_alpha 90.000000
_cell_angle_beta 90.000000
_cell_angle_gamma 90.000000
_cell_volume 3791.766100
_symmetry_space_group_name_H-M "C M C A"
_symmetry_group_IT_number 64
_symmetry_cell_setting 'orthorhombic'
loop_
_space_group_symop_operation_xyz
x,y,z
-x,1/2-y,1/2+z
x,-y,-z
-x,1/2+y,1/2-z
-x,-y,-z
x,1/2+y,1/2-z
-x,y,z
x,1/2-y,1/2+z
1/2+x,1/2+y,z
1/2-x,-y,1/2+z
1/2+x,1/2-y,-z
1/2-x,y,1/2-z
1/2-x,1/2-y,-z
1/2+x,y,1/2-z
1/2-x,1/2+y,z
1/2+x,-y,1/2+z
loop_
_atom_site_type_symbol
_atom_site_label
_atom_site_fract_x
_atom_site_fract_y
_atom_site_fract_z
Si Si1 0.192882 0.598715 0.035613
Si Si2 0.615829 0.837713 0.337342
Si Si3 0.617440 0.603668 0.333416
Si Si4 0.250000 0.029746 0.750000
Si Si5 0.115252 0.817558 0.023023
O O1 0.182137 0.578630 0.106682
O O2 0.127253 0.696039 0.014170
O O3 0.152564 0.500000 0.000000
O O4 0.312391 0.619463 0.021836
O O5 0.500000 0.876128 0.325219
O O6 0.626233 0.721585 0.315784
O O7 0.698184 0.902348 0.301296
O O8 0.642660 0.846918 0.408191
O O9 0.500000 0.572888 0.344996
O O10 0.661580 0.539191 0.278305
O O11 0.000000 0.847788 0.006291
#
# Coordination Sequence:
#
# PCOD8262416 Si02
#       5
#    16  16  16   8  16
#     4  10  19  34  55  79 107 138 171 212 262 313
#     4   9  19  36  54  74 105 139 170 213 264 306
#     4  10  22  37  53  78 109 137 170 217 265 305
#     4  12  20  34  58  78  98 136 186 216 248 310
#     4   9  19  35  54  77 106 139 173 211 260 315
#
# _framework density 18.988513000000001
#
# number of rings (size 3 to 8) (size 9 to 14) (size 15 to 20)
#    0.000    2.222    0.000    4.667    0.000    2.222 
#    0.000    2.222    0.000    8.000    0.000    0.000 
#    0.000    0.000    0.000    0.000    0.000    0.000 
#
# Total GULP energy -446502.275613 kJ/mol
# GULP energy per Si atom -12402.840989 kJ/mol
# Density = 1.894529 g / cm^3
# Si number density = 18.988513 Si / 1000 Ang^3
#
#
#
# Elastic Constant Matrix: (Units=GPa)
#
#
# Indices 1 2 3 4 5 6 
#
# 1 131.3960 40.5671 67.0281 0.0000 0.0000 0.0000
# 2 40.5671 65.0440 45.5776 0.0000 0.0000 0.0000
# 3 67.0281 45.5776 86.2997 0.0000 0.0000 0.0000
# 4 0.0000 0.0000 0.0000 29.2960 0.0000 0.0000
# 5 0.0000 0.0000 0.0000 0.0000 35.8416 0.0000
# 6 0.0000 0.0000 0.0000 0.0000 0.0000 21.8976
#
#
#
# Elastic Compliance Matrix: (Units=1/GPa)
#
#
# Indices 1 2 3 4 5 6 
#
# 1 0.012709 -0.001603 -0.009024 0.000000 0.000000 0.000000
# 2 -0.001603 0.024608 -0.011752 0.000000 0.000000 0.000000
# 3 -0.009024 -0.011752 0.024803 0.000000 0.000000 0.000000
# 4 0.000000 0.000000 0.000000 0.034134 0.000000 0.000000
# 5 0.000000 0.000000 0.000000 0.000000 0.027901 0.000000
# 6 0.000000 0.000000 0.000000 0.000000 0.000000 0.045667
#
#
# Mechanical properties :
#
#
# Convention : Reuss Voigt Hill
#
# Bulk Modulus (GPa) = 57.59436 65.45394 61.52415
# Shear Modulus (GPa) = 22.68932 26.04484 24.36708
#
# Velocity S-wave (km/s) = 3.46048 3.70754 3.58614
# Velocity P-wave (km/s) = 6.80908 7.27138 7.04402
#
# Compressibility (1/GPa) = 0.01736281
#
# Stress axis : x y z
#
# Youngs Moduli (GPa) = 78.68421 40.63638 40.31750
#
# Poissons Ratio (x) = 0.06513 0.36384
# Poissons Ratio (y) = 0.12612 0.47380
# Poissons Ratio (z) = 0.71008 0.47754
#
# Static dielectric constant tensor:
#      x y z
#    x 3.443970 0.000000 0.000000 
#    y 0.000000 3.456040 0.000000 
#    z 0.000000 0.000000 3.322580 
# 
# 
# High freq. dielectric constant tensor:
#      x y z
#    x 1.741910 0.000000 0.000000 
#    y 0.000000 1.741610 0.000000 
#    z 0.000000 0.000000 1.727390 
# 
# From -- ./inp_files/43820.got.cif
#   From: 2010.03.12/outbox.cif.g09.slc.cpg/sg64_22_cif.got.tgz:43820.got - 2010.04.10 20:19:32.
