data_PCOD8262061
_publ_section_title
;
Structure prediction by ZEFSAII (Michael W. Deem and Ramdas Pophale) SiO2 
 PCOD8262061
Probable space group: C M C A
;
_chemical_formula_sum "Si O2"
_cell_formula_units_Z 80
_cell_length_a 17.766543
_cell_length_b 24.774474
_cell_length_c 10.257012
_cell_angle_alpha 90.000000
_cell_angle_beta 90.000000
_cell_angle_gamma 90.000000
_cell_volume 4514.693145
_symmetry_space_group_name_H-M "C M C A"
_symmetry_group_IT_number 64
_symmetry_cell_setting 'orthorhombic'
loop_
_space_group_symop_operation_xyz
x,y,z
-x,1/2-y,1/2+z
x,-y,-z
-x,1/2+y,1/2-z
-x,-y,-z
x,1/2+y,1/2-z
-x,y,z
x,1/2-y,1/2+z
1/2+x,1/2+y,z
1/2-x,-y,1/2+z
1/2+x,1/2-y,-z
1/2-x,y,1/2-z
1/2-x,1/2-y,-z
1/2+x,y,1/2-z
1/2-x,1/2+y,z
1/2+x,-y,1/2+z
loop_
_atom_site_type_symbol
_atom_site_label
_atom_site_fract_x
_atom_site_fract_y
_atom_site_fract_z
Si Si1 0.411340 0.921007 0.796354
Si Si2 0.190386 0.144241 0.135882
Si Si3 0.799866 0.238574 0.624681
Si Si4 0.827596 0.128291 0.533582
Si Si5 0.687511 0.517703 0.642742
O O1 0.500000 0.919728 0.786843
O O2 0.377070 0.898274 0.659919
O O3 0.382940 0.882277 0.912777
O O4 0.385633 0.982372 0.821794
O O5 0.250000 0.136964 0.250000
O O6 0.154723 0.205039 0.142433
O O7 0.238290 0.131330 0.005219
O O8 0.750000 0.225495 0.750000
O O9 0.750000 0.250000 0.500000
O O10 0.851640 0.185760 0.597944
O O11 0.835845 0.080612 0.640132
O O12 0.718388 0.500000 0.500000
O O13 0.750000 0.505253 0.750000
#
# Coordination Sequence:
#
# PCOD8262061 Si02
#       5
#    16  16  16  16  16
#     4  10  19  31  47  68  98 134 166 195 235 292
#     4   8  15  30  49  69  93 125 161 193 233 288
#     4   9  16  28  50  77 100 122 155 201 246 287
#     4   9  17  29  49  74  97 121 159 207 247 281
#     4  10  19  31  50  73  97 125 161 202 242 285
#
# _framework density 17.719919999999998
#
# number of rings (size 3 to 8) (size 9 to 14) (size 15 to 20)
#    0.000    2.800    0.000    4.800    0.000    3.600 
#    0.000    1.000    0.000    5.400    0.000   12.600 
#    0.000    0.000    0.000    0.000    0.000    0.000 
#
# Total GULP energy -495573.582866 kJ/mol
# GULP energy per Si atom -12389.339572 kJ/mol
# Density = 1.767959 g / cm^3
# Si number density = 17.719920 Si / 1000 Ang^3
#
#
#
# Elastic Constant Matrix: (Units=GPa)
#
#
# Indices 1 2 3 4 5 6 
#
# 1 97.8636 46.8812 25.5223 0.0000 0.0000 0.0000
# 2 46.8812 150.3311 18.6576 0.0000 0.0000 0.0000
# 3 25.5223 18.6576 56.7244 0.0000 0.0000 0.0000
# 4 0.0000 0.0000 0.0000 25.8459 0.0000 0.0000
# 5 0.0000 0.0000 0.0000 0.0000 12.4156 0.0000
# 6 0.0000 0.0000 0.0000 0.0000 0.0000 8.8808
#
#
#
# Elastic Compliance Matrix: (Units=1/GPa)
#
#
# Indices 1 2 3 4 5 6 
#
# 1 0.013139 -0.003507 -0.004758 0.000000 0.000000 0.000000
# 2 -0.003507 0.007871 -0.001011 0.000000 0.000000 0.000000
# 3 -0.004758 -0.001011 0.020103 0.000000 0.000000 0.000000
# 4 0.000000 0.000000 0.000000 0.038691 0.000000 0.000000
# 5 0.000000 0.000000 0.000000 0.000000 0.080544 0.000000
# 6 0.000000 0.000000 0.000000 0.000000 0.000000 0.112603
#
#
# Mechanical properties :
#
#
# Convention : Reuss Voigt Hill
#
# Bulk Modulus (GPa) = 44.32561 54.11569 49.22065
# Shear Modulus (GPa) = 16.72114 23.68567 20.20341
#
# Velocity S-wave (km/s) = 3.07520 3.66001 3.38028
# Velocity P-wave (km/s) = 6.13824 6.96180 6.56295
#
# Compressibility (1/GPa) = 0.02256032
#
# Stress axis : x y z
#
# Youngs Moduli (GPa) = 76.10793 127.04677 49.74489
#
# Poissons Ratio (x) = 0.44555 0.23670
# Poissons Ratio (y) = 0.26691 0.05029
# Poissons Ratio (z) = 0.36214 0.12845
#
# Static dielectric constant tensor:
#      x y z
#    x 2.798070 0.000000 0.000000 
#    y 0.000000 4.127690 0.000000 
#    z 0.000000 0.000000 3.344890 
# 
# 
# High freq. dielectric constant tensor:
#      x y z
#    x 1.616350 0.000000 0.000000 
#    y 0.000000 1.714150 0.000000 
#    z 0.000000 0.000000 1.676310 
# 
# From -- ./inp_files/14722.got.cif
#   From: 2010.03.12/outbox.cif.g09.slc.cpg/sg64_8_cif.got.tgz:14722.got - 2010.04.10 20:19:32.
