data_PCOD8262933
_publ_section_title
;
Structure prediction by ZEFSAII (Michael W. Deem and Ramdas Pophale) SiO2 
 PCOD8262933
Probable space group: C M C A
;
_chemical_formula_sum "Si O2"
_cell_formula_units_Z 112
_cell_length_a 13.813245
_cell_length_b 22.558445
_cell_length_c 15.290438
_cell_angle_alpha 90.000000
_cell_angle_beta 90.000000
_cell_angle_gamma 90.000000
_cell_volume 4764.581942
_symmetry_space_group_name_H-M "C M C A"
_symmetry_group_IT_number 64
_symmetry_cell_setting 'orthorhombic'
loop_
_space_group_symop_operation_xyz
x,y,z
-x,1/2-y,1/2+z
x,-y,-z
-x,1/2+y,1/2-z
-x,-y,-z
x,1/2+y,1/2-z
-x,y,z
x,1/2-y,1/2+z
1/2+x,1/2+y,z
1/2-x,-y,1/2+z
1/2+x,1/2-y,-z
1/2-x,y,1/2-z
1/2-x,1/2-y,-z
1/2+x,y,1/2-z
1/2-x,1/2+y,z
1/2+x,-y,1/2+z
loop_
_atom_site_type_symbol
_atom_site_label
_atom_site_fract_x
_atom_site_fract_y
_atom_site_fract_z
Si Si1 0.887325 0.615014 0.893836
Si Si2 0.887924 0.492482 0.221504
Si Si3 0.222999 0.763974 0.402663
Si Si4 0.890200 0.153571 0.144131
Si Si5 0.611379 0.920077 0.922367
Si Si6 0.616272 0.529070 0.090141
Si Si7 0.891017 0.803586 0.669598
O O1 0.873694 0.575366 0.807646
O O2 0.816239 0.670831 0.883921
O O3 0.000000 0.635380 0.903961
O O4 0.855973 0.573089 0.976377
O O5 0.836923 0.537025 0.149460
O O6 0.845043 0.497082 0.320404
O O7 0.000000 0.510454 0.228446
O O8 0.250000 0.750000 0.500000
O O9 0.138041 0.717753 0.387934
O O10 0.315455 0.750746 0.339053
O O11 0.840117 0.096664 0.097116
O O12 0.871190 0.153716 0.247761
O O13 0.000000 0.144500 0.120123
O O14 0.500000 0.937821 0.915353
O O15 0.626520 0.849265 0.909003
O O16 0.500000 0.527337 0.087578
O O17 0.657044 0.500000 0.000000
O O18 0.000000 0.777006 0.671600
#
# Coordination Sequence:
#
# PCOD8262933 Si02
#       7
#    16  16  16  16  16  16  16
#     4  10  20  34  57  96 142 175 206 261 331 393
#     4   9  16  30  58  95 132 168 206 259 328 393
#     4  12  24  38  60  91 134 169 215 266 323 386
#     4  10  21  40  66  92 122 168 219 262 315 387
#     4   9  15  29  57  92 125 162 209 256 315 385
#     4   9  17  33  61  93 124 163 213 262 315 389
#     4  10  20  38  64  91 121 166 224 273 311 371
#
# _framework density 23.506785000000001
#
# number of rings (size 3 to 8) (size 9 to 14) (size 15 to 20)
#    0.000    2.143    2.857    1.286    0.000    2.286 
#    0.000    2.857    3.143    3.429    0.000    0.000 
#    0.000    2.286    0.000    0.000    0.000    0.143 
#
# Total GULP energy -693768.831594 kJ/mol
# GULP energy per Si atom -12388.729136 kJ/mol
# Density = 2.345328 g / cm^3
# Si number density = 23.506785 Si / 1000 Ang^3
#
#
#
# Elastic Constant Matrix: (Units=GPa)
#
#
# Indices 1 2 3 4 5 6 
#
# 1 47.8395 46.8057 39.5763 0.0000 0.0000 0.0000
# 2 46.8057 129.4619 76.6207 0.0000 0.0000 0.0000
# 3 39.5763 76.6207 138.2627 0.0000 0.0000 0.0000
# 4 0.0000 0.0000 0.0000 76.7005 0.0000 0.0000
# 5 0.0000 0.0000 0.0000 0.0000 18.8066 0.0000
# 6 0.0000 0.0000 0.0000 0.0000 0.0000 30.6396
#
#
#
# Elastic Compliance Matrix: (Units=1/GPa)
#
#
# Indices 1 2 3 4 5 6 
#
# 1 0.034014 -0.009725 -0.004347 0.000000 0.000000 0.000000
# 2 -0.009725 0.014274 -0.005127 0.000000 0.000000 0.000000
# 3 -0.004347 -0.005127 0.011318 0.000000 0.000000 0.000000
# 4 0.000000 0.000000 0.000000 0.013038 0.000000 0.000000
# 5 0.000000 0.000000 0.000000 0.000000 0.053173 0.000000
# 6 0.000000 0.000000 0.000000 0.000000 0.000000 0.032638
#
#
# Mechanical properties :
#
#
# Convention : Reuss Voigt Hill
#
# Bulk Modulus (GPa) = 47.14913 71.28551 59.21732
# Shear Modulus (GPa) = 24.51926 35.40009 29.95968
#
# Velocity S-wave (km/s) = 3.23317 3.88487 3.57390
# Velocity P-wave (km/s) = 5.83430 7.10734 6.50205
#
# Compressibility (1/GPa) = 0.02120930
#
# Stress axis : x y z
#
# Youngs Moduli (GPa) = 29.39968 70.05554 88.35462
#
# Poissons Ratio (x) = 0.68127 0.38408
# Poissons Ratio (y) = 0.28590 0.45298
# Poissons Ratio (z) = 0.12780 0.35916
#
# Static dielectric constant tensor:
#      x y z
#    x 4.012170 0.000000 0.000000 
#    y 0.000000 4.361850 0.000000 
#    z 0.000000 0.000000 4.359130 
# 
# 
# High freq. dielectric constant tensor:
#      x y z
#    x 1.921420 0.000000 0.000000 
#    y 0.000000 1.914720 0.000000 
#    z 0.000000 0.000000 1.936320 
# 
# From -- ./inp_files/24229.got.cif
#   From: 2010.03.12/outbox.cif.g09.slc.cpg/sg64_13_cif.got.tgz:24229.got - 2010.04.10 20:19:32.
