data_PCOD8262145
_publ_section_title
;
Structure prediction by ZEFSAII (Michael W. Deem and Ramdas Pophale) SiO2 
 PCOD8262145
Probable space group: C M C A
;
_chemical_formula_sum "Si O2"
_cell_formula_units_Z 128
_cell_length_a 18.879463
_cell_length_b 24.337111
_cell_length_c 15.892126
_cell_angle_alpha 90.000000
_cell_angle_beta 90.000000
_cell_angle_gamma 90.000000
_cell_volume 7301.980348
_symmetry_space_group_name_H-M "C M C A"
_symmetry_group_IT_number 64
_symmetry_cell_setting 'orthorhombic'
loop_
_space_group_symop_operation_xyz
x,y,z
-x,1/2-y,1/2+z
x,-y,-z
-x,1/2+y,1/2-z
-x,-y,-z
x,1/2+y,1/2-z
-x,y,z
x,1/2-y,1/2+z
1/2+x,1/2+y,z
1/2-x,-y,1/2+z
1/2+x,1/2-y,-z
1/2-x,y,1/2-z
1/2-x,1/2-y,-z
1/2+x,y,1/2-z
1/2-x,1/2+y,z
1/2+x,-y,1/2+z
loop_
_atom_site_type_symbol
_atom_site_label
_atom_site_fract_x
_atom_site_fract_y
_atom_site_fract_z
Si Si1 0.287214 0.116609 0.551190
Si Si2 0.417430 0.045101 0.759633
Si Si3 0.580447 0.157410 0.957222
Si Si4 0.420878 0.670041 0.732458
Si Si5 0.654276 0.954959 0.072993
Si Si6 0.418719 0.544635 0.928397
Si Si7 0.199725 0.216852 0.825187
Si Si8 0.714566 0.800725 0.953219
O O1 0.234539 0.068059 0.580936
O O2 0.367356 0.095170 0.548097
O O3 0.280120 0.169722 0.609041
O O4 0.259892 0.142396 0.461576
O O5 0.500000 0.038912 0.784231
O O6 0.393467 0.108290 0.751739
O O7 0.370239 0.019243 0.835932
O O8 0.402461 0.020089 0.665740
O O9 0.500000 0.162424 0.991328
O O10 0.586850 0.185193 0.865480
O O11 0.599684 0.093053 0.951278
O O12 0.633816 0.189984 0.016806
O O13 0.500000 0.674858 0.764595
O O14 0.379822 0.712152 0.791595
O O15 0.651377 0.000000 0.000000
O O16 0.500000 0.565956 0.930701
O O17 0.405251 0.500000 0.000000
O O18 0.250000 0.203483 0.750000
O O19 0.209697 0.279401 0.857428
O O20 0.750000 0.750000 0.000000
#
# Coordination Sequence:
#
# PCOD8262145 Si02
#       8
#    16  16  16  16  16  16  16  16
#     4  10  20  33  52  74 106 132 170 218 255 310
#     4   9  17  30  48  75 105 130 168 213 251 300
#     4   9  18  33  51  75 108 134 166 214 259 302
#     4   9  16  28  48  76 101 123 160 213 258 298
#     4  10  19  31  51  79 108 139 173 208 260 308
#     4  10  20  34  54  78 105 139 174 214 259 304
#     4  11  19  30  53  76  98 130 168 213 266 306
#     4   9  19  33  48  71 100 134 168 206 257 312
#
# _framework density 17.529491
#
# number of rings (size 3 to 8) (size 9 to 14) (size 15 to 20)
#    0.000    2.375    1.250    4.500    0.000    1.500 
#    0.000    1.875    5.500    0.750    0.000    0.000 
#    0.000    0.000    0.000    0.000    0.000    0.000 
#
# Total GULP energy -792961.429769 kJ/mol
# GULP energy per Si atom -12390.022340 kJ/mol
# Density = 1.748959 g / cm^3
# Si number density = 17.529491 Si / 1000 Ang^3
#
#
#
# Elastic Constant Matrix: (Units=GPa)
#
#
# Indices 1 2 3 4 5 6 
#
# 1 97.0480 39.2909 43.4283 0.0000 0.0000 0.0000
# 2 39.2909 55.8000 50.9763 0.0000 0.0000 0.0000
# 3 43.4283 50.9763 94.5773 0.0000 0.0000 0.0000
# 4 0.0000 0.0000 0.0000 38.8125 0.0000 0.0000
# 5 0.0000 0.0000 0.0000 0.0000 20.4473 0.0000
# 6 0.0000 0.0000 0.0000 0.0000 0.0000 20.2530
#
#
#
# Elastic Compliance Matrix: (Units=1/GPa)
#
#
# Indices 1 2 3 4 5 6 
#
# 1 0.014663 -0.008223 -0.002301 0.000000 0.000000 0.000000
# 2 -0.008223 0.039916 -0.017739 0.000000 0.000000 0.000000
# 3 -0.002301 -0.017739 0.021191 0.000000 0.000000 0.000000
# 4 0.000000 0.000000 0.000000 0.025765 0.000000 0.000000
# 5 0.000000 0.000000 0.000000 0.000000 0.048906 0.000000
# 6 0.000000 0.000000 0.000000 0.000000 0.000000 0.049375
#
#
# Mechanical properties :
#
#
# Convention : Reuss Voigt Hill
#
# Bulk Modulus (GPa) = 51.96073 57.20182 54.58127
# Shear Modulus (GPa) = 19.02900 23.48454 21.25677
#
# Velocity S-wave (km/s) = 3.29833 3.66418 3.48606
# Velocity P-wave (km/s) = 6.64918 7.11367 6.88534
#
# Compressibility (1/GPa) = 0.01924530
#
# Stress axis : x y z
#
# Youngs Moduli (GPa) = 68.19943 25.05242 47.18972
#
# Poissons Ratio (x) = 0.20599 0.10859
# Poissons Ratio (y) = 0.56077 0.83709
# Poissons Ratio (z) = 0.15693 0.44440
#
# Static dielectric constant tensor:
#      x y z
#    x 3.286670 0.000000 0.000000 
#    y 0.000000 3.264440 0.000000 
#    z 0.000000 0.000000 3.547280 
# 
# 
# High freq. dielectric constant tensor:
#      x y z
#    x 1.690740 0.000000 0.000000 
#    y 0.000000 1.636050 0.000000 
#    z 0.000000 0.000000 1.670090 
# 
# From -- ./inp_files/33766.got.cif
#   From: 2010.03.12/outbox.cif.g09.slc.cpg/sg64_17_cif.got.tgz:33766.got - 2010.04.10 20:19:32.
