data_PCOD8262952
_publ_section_title
;
Structure prediction by ZEFSAII (Michael W. Deem and Ramdas Pophale) SiO2 
 PCOD8262952
Probable space group: C M C A
;
_chemical_formula_sum "Si O2"
_cell_formula_units_Z 72
_cell_length_a 20.861065
_cell_length_b 19.626297
_cell_length_c 8.445352
_cell_angle_alpha 90.000000
_cell_angle_beta 90.000000
_cell_angle_gamma 90.000000
_cell_volume 3457.742106
_symmetry_space_group_name_H-M "C M C A"
_symmetry_group_IT_number 64
_symmetry_cell_setting 'orthorhombic'
loop_
_space_group_symop_operation_xyz
x,y,z
-x,1/2-y,1/2+z
x,-y,-z
-x,1/2+y,1/2-z
-x,-y,-z
x,1/2+y,1/2-z
-x,y,z
x,1/2-y,1/2+z
1/2+x,1/2+y,z
1/2-x,-y,1/2+z
1/2+x,1/2-y,-z
1/2-x,y,1/2-z
1/2-x,1/2-y,-z
1/2+x,y,1/2-z
1/2-x,1/2+y,z
1/2+x,-y,1/2+z
loop_
_atom_site_type_symbol
_atom_site_label
_atom_site_fract_x
_atom_site_fract_y
_atom_site_fract_z
Si Si1 0.874151 0.429531 0.072214
Si Si2 0.500000 0.647624 0.670694
Si Si3 0.632660 0.682236 0.314084
Si Si4 0.750000 0.406435 0.250000
Si Si5 0.500000 0.221166 0.155704
Si Si6 0.307613 0.800695 0.484423
O O1 0.810123 0.447883 0.175343
O O2 0.934847 0.398073 0.168385
O O3 0.899520 0.500000 0.000000
O O4 0.850424 0.377395 0.936917
O O5 0.500000 0.696301 0.825035
O O6 0.500000 0.702859 0.529995
O O7 0.559027 0.682048 0.261317
O O8 0.637976 0.757136 0.395826
O O9 0.674936 0.672658 0.158382
O O10 0.713735 0.363968 0.117406
O O11 0.250000 0.750000 0.500000
#
# Coordination Sequence:
#
# PCOD8262952 Si02
#       6
#    16   8  16   8   8  16
#     4  11  25  42  61  87 126 175 213 246 299 375
#     4  10  21  42  66  92 125 158 204 256 322 376
#     4  11  21  37  60  90 123 154 199 254 321 373
#     4  12  24  38  60  94 120 160 214 262 312 362
#     4  10  20  34  62  94 116 144 192 262 310 366
#     4  12  20  35  61  89 118 151 194 261 325 360
#
# _framework density 20.822835999999999
#
# number of rings (size 3 to 8) (size 9 to 14) (size 15 to 20)
#    0.000    0.889    4.444    4.333    0.000    1.778 
#    0.000    0.000    0.000    0.000    0.000   11.667 
#    0.000    0.000    0.000    0.000    0.000    0.000 
#
# Total GULP energy -446143.936292 kJ/mol
# GULP energy per Si atom -12392.887119 kJ/mol
# Density = 2.077544 g / cm^3
# Si number density = 20.822836 Si / 1000 Ang^3
#
#
#
# Elastic Constant Matrix: (Units=GPa)
#
#
# Indices 1 2 3 4 5 6 
#
# 1 135.0341 24.7557 34.7577 0.0000 0.0000 0.0000
# 2 24.7557 60.1612 0.7262 0.0000 0.0000 0.0000
# 3 34.7577 0.7262 63.2508 0.0000 0.0000 0.0000
# 4 0.0000 0.0000 0.0000 19.1027 0.0000 0.0000
# 5 0.0000 0.0000 0.0000 0.0000 35.3485 0.0000
# 6 0.0000 0.0000 0.0000 0.0000 0.0000 27.7109
#
#
#
# Elastic Compliance Matrix: (Units=1/GPa)
#
#
# Indices 1 2 3 4 5 6 
#
# 1 0.009428 -0.003817 -0.005137 0.000000 0.000000 0.000000
# 2 -0.003817 0.018170 0.001889 0.000000 0.000000 0.000000
# 3 -0.005137 0.001889 0.018611 0.000000 0.000000 0.000000
# 4 0.000000 0.000000 0.000000 0.052349 0.000000 0.000000
# 5 0.000000 0.000000 0.000000 0.000000 0.028290 0.000000
# 6 0.000000 0.000000 0.000000 0.000000 0.000000 0.036087
#
#
# Mechanical properties :
#
#
# Convention : Reuss Voigt Hill
#
# Bulk Modulus (GPa) = 31.17341 42.10282 36.63812
# Shear Modulus (GPa) = 26.63016 29.64618 28.13817
#
# Velocity S-wave (km/s) = 3.58004 3.77733 3.68001
# Velocity P-wave (km/s) = 5.66500 6.26800 5.97411
#
# Compressibility (1/GPa) = 0.03207862
#
# Stress axis : x y z
#
# Youngs Moduli (GPa) = 106.07168 55.03576 53.73110
#
# Poissons Ratio (x) = 0.21009 0.27601
# Poissons Ratio (y) = 0.40491 -0.10150
# Poissons Ratio (z) = 0.54487 -0.10397
#
# Static dielectric constant tensor:
#      x y z
#    x 4.191450 0.000000 0.000000 
#    y 0.000000 3.635300 0.000000 
#    z 0.000000 0.000000 3.702330 
# 
# 
# High freq. dielectric constant tensor:
#      x y z
#    x 1.845950 0.000000 0.000000 
#    y 0.000000 1.780740 0.000000 
#    z 0.000000 0.000000 1.806870 
# 
# From -- ./inp_files/8074.got.cif
#   From: 2010.03.12/outbox.cif.g09.slc.cpg/sg64_5_cif.got.tgz:8074.got - 2010.04.10 20:19:32.
