data_PCOD8262262
_publ_section_title
;
Structure prediction by ZEFSAII (Michael W. Deem and Ramdas Pophale) SiO2 
 PCOD8262262
Probable space group: C M C A
;
_chemical_formula_sum "Si O2"
_cell_formula_units_Z 104
_cell_length_a 12.592095
_cell_length_b 18.074855
_cell_length_c 23.712938
_cell_angle_alpha 90.000000
_cell_angle_beta 90.000000
_cell_angle_gamma 90.000000
_cell_volume 5397.071596
_symmetry_space_group_name_H-M "C M C A"
_symmetry_group_IT_number 64
_symmetry_cell_setting 'orthorhombic'
loop_
_space_group_symop_operation_xyz
x,y,z
-x,1/2-y,1/2+z
x,-y,-z
-x,1/2+y,1/2-z
-x,-y,-z
x,1/2+y,1/2-z
-x,y,z
x,1/2-y,1/2+z
1/2+x,1/2+y,z
1/2-x,-y,1/2+z
1/2+x,1/2-y,-z
1/2-x,y,1/2-z
1/2-x,1/2-y,-z
1/2+x,y,1/2-z
1/2-x,1/2+y,z
1/2+x,-y,1/2+z
loop_
_atom_site_type_symbol
_atom_site_label
_atom_site_fract_x
_atom_site_fract_y
_atom_site_fract_z
Si Si1 0.122089 0.423461 0.970036
Si Si2 0.880544 0.362029 0.084961
Si Si3 0.201536 0.399907 0.620784
Si Si4 0.750000 0.658574 0.750000
Si Si5 0.000000 0.906960 0.949237
Si Si6 0.877133 0.738205 0.329709
Si Si7 0.000000 0.420473 0.427247
Si Si8 0.695937 0.564956 0.853811
O O1 0.190669 0.403858 0.915159
O O2 0.000000 0.428382 0.950202
O O3 0.158649 0.500000 0.000000
O O4 0.139529 0.359983 0.017527
O O5 0.862401 0.281090 0.110890
O O6 0.807519 0.422689 0.115325
O O7 0.000000 0.390088 0.096871
O O8 0.199407 0.334237 0.667316
O O9 0.179872 0.476892 0.653242
O O10 0.105225 0.376282 0.580004
O O11 0.838630 0.709487 0.779087
O O12 0.690094 0.605101 0.793785
O O13 0.000000 0.994565 0.944318
O O14 0.000000 0.876948 0.013491
O O15 0.000000 0.716758 0.318734
O O16 0.896225 0.399140 0.391861
#
# Coordination Sequence:
#
# PCOD8262262 Si02
#       8
#    16  16  16   8   8  16   8  16
#     4  10  19  32  56  89 125 163 194 235 284 347
#     4   9  18  35  58  83 120 161 197 225 282 356
#     4  11  20  34  60  88 122 150 196 242 296 357
#     4  10  24  42  62  76 108 160 202 248 304 340
#     4   9  18  30  51  90 120 152 169 227 308 352
#     4  10  22  41  59  82 116 157 195 245 303 362
#     4   9  18  30  53  84 124 136 180 233 294 346
#     4  10  20  35  58  89 106 146 198 250 286 342
#
# _framework density 19.269708999999999
#
# number of rings (size 3 to 8) (size 9 to 14) (size 15 to 20)
#    0.000    2.154    2.308    0.923    3.231    1.231 
#    0.000    0.769    1.692    0.000    0.000    0.000 
#    0.000    0.000    0.000    0.000    0.000    0.000 
#
# Total GULP energy -644678.513189 kJ/mol
# GULP energy per Si atom -12397.663715 kJ/mol
# Density = 1.922585 g / cm^3
# Si number density = 19.269709 Si / 1000 Ang^3
#
#
#
# Elastic Constant Matrix: (Units=GPa)
#
#
# Indices 1 2 3 4 5 6 
#
# 1 101.5167 41.8106 44.8739 0.0000 0.0000 0.0000
# 2 41.8106 99.4592 49.4187 0.0000 0.0000 0.0000
# 3 44.8739 49.4187 103.5615 0.0000 0.0000 0.0000
# 4 0.0000 0.0000 0.0000 27.6377 0.0000 0.0000
# 5 0.0000 0.0000 0.0000 0.0000 22.5877 0.0000
# 6 0.0000 0.0000 0.0000 0.0000 0.0000 23.8809
#
#
#
# Elastic Compliance Matrix: (Units=1/GPa)
#
#
# Indices 1 2 3 4 5 6 
#
# 1 0.013057 -0.003510 -0.003983 0.000000 0.000000 0.000000
# 2 -0.003510 0.014123 -0.005218 0.000000 0.000000 0.000000
# 3 -0.003983 -0.005218 0.013872 0.000000 0.000000 0.000000
# 4 0.000000 0.000000 0.000000 0.036182 0.000000 0.000000
# 5 0.000000 0.000000 0.000000 0.000000 0.044272 0.000000
# 6 0.000000 0.000000 0.000000 0.000000 0.000000 0.041874
#
#
# Mechanical properties :
#
#
# Convention : Reuss Voigt Hill
#
# Bulk Modulus (GPa) = 63.98150 64.08265 64.03208
# Shear Modulus (GPa) = 25.77163 26.05022 25.91093
#
# Velocity S-wave (km/s) = 3.66104 3.68077 3.67092
# Velocity P-wave (km/s) = 7.15165 7.16882 7.16024
#
# Compressibility (1/GPa) = 0.01562952
#
# Stress axis : x y z
#
# Youngs Moduli (GPa) = 76.58941 70.80774 72.08766
#
# Poissons Ratio (x) = 0.24853 0.28710
# Poissons Ratio (y) = 0.26882 0.37618
# Poissons Ratio (z) = 0.30503 0.36950
#
# Static dielectric constant tensor:
#      x y z
#    x 3.537360 0.000000 0.000000 
#    y 0.000000 3.430210 0.000000 
#    z 0.000000 0.000000 3.495640 
# 
# 
# High freq. dielectric constant tensor:
#      x y z
#    x 1.753060 0.000000 0.000000 
#    y 0.000000 1.736260 0.000000 
#    z 0.000000 0.000000 1.734110 
# 
# From -- ./inp_files/49417.got.cif
#   From: 2010.03.12/outbox.cif.g09.slc.cpg/sg64_25_cif.got.tgz:49417.got - 2010.04.10 20:19:32.
