data_PCOD8262725
_publ_section_title
;
Structure prediction by ZEFSAII (Michael W. Deem and Ramdas Pophale) SiO2 
 PCOD8262725
Probable space group: C M C A
;
_chemical_formula_sum "Si O2"
_cell_formula_units_Z 96
_cell_length_a 8.702613
_cell_length_b 27.174625
_cell_length_c 23.502969
_cell_angle_alpha 90.000000
_cell_angle_beta 90.000000
_cell_angle_gamma 90.000000
_cell_volume 5558.222892
_symmetry_space_group_name_H-M "C M C A"
_symmetry_group_IT_number 64
_symmetry_cell_setting 'orthorhombic'
loop_
_space_group_symop_operation_xyz
x,y,z
-x,1/2-y,1/2+z
x,-y,-z
-x,1/2+y,1/2-z
-x,-y,-z
x,1/2+y,1/2-z
-x,y,z
x,1/2-y,1/2+z
1/2+x,1/2+y,z
1/2-x,-y,1/2+z
1/2+x,1/2-y,-z
1/2-x,y,1/2-z
1/2-x,1/2-y,-z
1/2+x,y,1/2-z
1/2-x,1/2+y,z
1/2+x,-y,1/2+z
loop_
_atom_site_type_symbol
_atom_site_label
_atom_site_fract_x
_atom_site_fract_y
_atom_site_fract_z
Si Si1 0.321402 0.267946 0.588361
Si Si2 0.318918 0.676408 0.189808
Si Si3 0.177310 0.922646 0.023163
Si Si4 0.321829 0.319586 0.472288
Si Si5 0.680270 0.928071 0.809695
Si Si6 0.677269 0.019451 0.410859
O O1 0.500000 0.270491 0.603811
O O2 0.223529 0.283320 0.642956
O O3 0.278622 0.304327 0.536560
O O4 0.276676 0.212369 0.572017
O O5 0.500000 0.671698 0.195715
O O6 0.250000 0.693419 0.250000
O O7 0.251446 0.623829 0.170978
O O8 0.283416 0.876445 0.037199
O O9 0.000000 0.906265 0.021614
O O10 0.205050 0.962878 0.072210
O O11 0.225916 0.945301 0.962697
O O12 0.500000 0.309784 0.460155
O O13 0.500000 0.921527 0.802731
O O14 0.750000 0.945891 0.750000
O O15 0.717533 0.968933 0.856802
O O16 0.500000 0.028332 0.395155
#
# Coordination Sequence:
#
# PCOD8262725 Si02
#       6
#    16  16  16  16  16  16
#     4  10  20  34  51  73 101 132 166 203 245 292
#     4  11  21  34  52  74 101 131 164 202 245 293
#     4   9  18  32  51  73 100 133 164 199 245 294
#     4  10  20  32  49  74 102 132 166 204 245 291
#     4  11  21  33  50  73 100 131 165 202 245 290
#     4   9  18  33  51  73 100 131 166 201 242 292
#
# _framework density 17.271708
#
# number of rings (size 3 to 8) (size 9 to 14) (size 15 to 20)
#    0.000    2.000    0.000    7.000    0.000    6.000 
#    0.000    1.667    0.000    1.000    0.000    2.333 
#    0.000    0.000    0.000    0.000    0.000    0.000 
#
# Total GULP energy -595409.295869 kJ/mol
# GULP energy per Si atom -12404.360331 kJ/mol
# Density = 1.723240 g / cm^3
# Si number density = 17.271708 Si / 1000 Ang^3
#
#
#
# Elastic Constant Matrix: (Units=GPa)
#
#
# Indices 1 2 3 4 5 6 
#
# 1 107.5348 34.7266 46.0435 0.0000 0.0000 0.0000
# 2 34.7266 91.4896 43.6130 0.0000 0.0000 0.0000
# 3 46.0435 43.6130 97.5313 0.0000 0.0000 0.0000
# 4 0.0000 0.0000 0.0000 25.5735 0.0000 0.0000
# 5 0.0000 0.0000 0.0000 0.0000 29.3130 0.0000
# 6 0.0000 0.0000 0.0000 0.0000 0.0000 30.7074
#
#
#
# Elastic Compliance Matrix: (Units=1/GPa)
#
#
# Indices 1 2 3 4 5 6 
#
# 1 0.012045 -0.002365 -0.004629 0.000000 0.000000 0.000000
# 2 -0.002365 0.014356 -0.005303 0.000000 0.000000 0.000000
# 3 -0.004629 -0.005303 0.014809 0.000000 0.000000 0.000000
# 4 0.000000 0.000000 0.000000 0.039103 0.000000 0.000000
# 5 0.000000 0.000000 0.000000 0.000000 0.034115 0.000000
# 6 0.000000 0.000000 0.000000 0.000000 0.000000 0.032565
#
#
# Mechanical properties :
#
#
# Convention : Reuss Voigt Hill
#
# Bulk Modulus (GPa) = 60.18038 60.59132 60.38585
# Shear Modulus (GPa) = 28.22850 28.59696 28.41273
#
# Velocity S-wave (km/s) = 4.04713 4.07346 4.06032
# Velocity P-wave (km/s) = 7.53379 7.56845 7.55114
#
# Compressibility (1/GPa) = 0.01661671
#
# Stress axis : x y z
#
# Youngs Moduli (GPa) = 83.02176 69.65770 67.52442
#
# Poissons Ratio (x) = 0.16478 0.31254
# Poissons Ratio (y) = 0.19639 0.35807
# Poissons Ratio (z) = 0.38427 0.36938
#
# Static dielectric constant tensor:
#      x y z
#    x 3.216880 0.000000 0.000000 
#    y 0.000000 3.062990 0.000000 
#    z 0.000000 0.000000 3.135320 
# 
# 
# High freq. dielectric constant tensor:
#      x y z
#    x 1.677680 0.000000 0.000000 
#    y 0.000000 1.653970 0.000000 
#    z 0.000000 0.000000 1.657450 
# 
# From -- ./inp_files/37079.got.cif
#   From: 2010.03.12/outbox.cif.g09.slc.cpg/sg64_19_cif.got.tgz:37079.got - 2010.04.10 20:19:32.
