data_PCOD8262919
_publ_section_title
;
Structure prediction by ZEFSAII (Michael W. Deem and Ramdas Pophale) SiO2 
 PCOD8262919
Probable space group: C M C A
;
_chemical_formula_sum "Si O2"
_cell_formula_units_Z 96
_cell_length_a 15.001613
_cell_length_b 21.808439
_cell_length_c 14.585206
_cell_angle_alpha 90.000000
_cell_angle_beta 90.000000
_cell_angle_gamma 90.000000
_cell_volume 4771.721694
_symmetry_space_group_name_H-M "C M C A"
_symmetry_group_IT_number 64
_symmetry_cell_setting 'orthorhombic'
loop_
_space_group_symop_operation_xyz
x,y,z
-x,1/2-y,1/2+z
x,-y,-z
-x,1/2+y,1/2-z
-x,-y,-z
x,1/2+y,1/2-z
-x,y,z
x,1/2-y,1/2+z
1/2+x,1/2+y,z
1/2-x,-y,1/2+z
1/2+x,1/2-y,-z
1/2-x,y,1/2-z
1/2-x,1/2-y,-z
1/2+x,y,1/2-z
1/2-x,1/2+y,z
1/2+x,-y,1/2+z
loop_
_atom_site_type_symbol
_atom_site_label
_atom_site_fract_x
_atom_site_fract_y
_atom_site_fract_z
Si Si1 0.400669 0.822875 0.933940
Si Si2 0.777383 0.618739 0.462638
Si Si3 0.397302 0.777209 0.281625
Si Si4 0.314569 0.406599 0.168651
Si Si5 0.102077 0.230083 0.089416
Si Si6 0.403957 0.479230 0.896706
O O1 0.500000 0.851127 0.916832
O O2 0.323771 0.873978 0.925464
O O3 0.379980 0.769145 0.863225
O O4 0.395444 0.793590 0.034410
O O5 0.769994 0.595886 0.567607
O O6 0.833971 0.681328 0.459598
O O7 0.825476 0.571313 0.393154
O O8 0.500000 0.790517 0.264112
O O9 0.354396 0.841437 0.305776
O O10 0.357946 0.746638 0.189259
O O11 0.250000 0.426315 0.250000
O O12 0.385866 0.461679 0.166704
O O13 0.000000 0.204545 0.092727
O O14 0.500000 0.451369 0.864996
O O15 0.413647 0.500000 0.000000
#
# Coordination Sequence:
#
# PCOD8262919 Si02
#       6
#    16  16  16  16  16  16
#     4  10  21  36  54  84 125 160 194 244 303 361
#     4  11  21  37  62  85 119 160 207 251 300 359
#     4  10  21  35  55  86 121 157 195 242 303 364
#     4  11  22  36  60  88 119 155 203 251 305 362
#     4  10  20  34  56  91 126 158 197 244 306 369
#     4   9  20  39  63  87 112 150 198 253 306 352
#
# _framework density 20.118525000000002
#
# number of rings (size 3 to 8) (size 9 to 14) (size 15 to 20)
#    0.000    1.833    1.667    2.500    2.333    1.333 
#    3.000    0.833    0.000    5.500    0.000    0.000 
#    0.000    0.000    0.000    0.000    0.000    0.000 
#
# Total GULP energy -595009.311654 kJ/mol
# GULP energy per Si atom -12396.027326 kJ/mol
# Density = 2.007273 g / cm^3
# Si number density = 20.118525 Si / 1000 Ang^3
#
#
#
# Elastic Constant Matrix: (Units=GPa)
#
#
# Indices 1 2 3 4 5 6 
#
# 1 142.2503 67.0104 36.3002 0.0000 0.0000 0.0000
# 2 67.0104 71.2622 20.2789 0.0000 0.0000 0.0000
# 3 36.3002 20.2789 83.2858 0.0000 0.0000 0.0000
# 4 0.0000 0.0000 0.0000 17.6932 0.0000 0.0000
# 5 0.0000 0.0000 0.0000 0.0000 11.5529 0.0000
# 6 0.0000 0.0000 0.0000 0.0000 0.0000 23.8989
#
#
#
# Elastic Compliance Matrix: (Units=1/GPa)
#
#
# Indices 1 2 3 4 5 6 
#
# 1 0.013261 -0.011631 -0.002948 0.000000 0.000000 0.000000
# 2 -0.011631 0.025279 -0.001086 0.000000 0.000000 0.000000
# 3 -0.002948 -0.001086 0.013556 0.000000 0.000000 0.000000
# 4 0.000000 0.000000 0.000000 0.056519 0.000000 0.000000
# 5 0.000000 0.000000 0.000000 0.000000 0.086558 0.000000
# 6 0.000000 0.000000 0.000000 0.000000 0.000000 0.041843
#
#
# Mechanical properties :
#
#
# Convention : Reuss Voigt Hill
#
# Bulk Modulus (GPa) = 48.15375 60.44191 54.29783
# Shear Modulus (GPa) = 18.16412 22.17625 20.17019
#
# Velocity S-wave (km/s) = 3.00802 3.32366 3.16977
# Velocity P-wave (km/s) = 6.00427 6.69605 6.35957
#
# Compressibility (1/GPa) = 0.02076681
#
# Stress axis : x y z
#
# Youngs Moduli (GPa) = 75.40748 39.55879 73.76792
#
# Poissons Ratio (x) = 0.46012 0.21746
# Poissons Ratio (y) = 0.87708 0.08008
# Poissons Ratio (z) = 0.22230 0.04294
#
# Static dielectric constant tensor:
#      x y z
#    x 3.936790 0.000000 0.000000 
#    y 0.000000 3.508940 0.000000 
#    z 0.000000 0.000000 3.783220 
# 
# 
# High freq. dielectric constant tensor:
#      x y z
#    x 1.790220 0.000000 0.000000 
#    y 0.000000 1.763360 0.000000 
#    z 0.000000 0.000000 1.780650 
# 
# From -- ./inp_files/23875.got.cif
#   From: 2010.03.12/outbox.cif.g09.slc.cpg/sg64_12_cif.got.tgz:23875.got - 2010.04.10 20:19:32.
