data_PCOD8262274
_publ_section_title
;
Structure prediction by ZEFSAII (Michael W. Deem and Ramdas Pophale) SiO2 
 PCOD8262274
Probable space group: C M C A
;
_chemical_formula_sum "Si O2"
_cell_formula_units_Z 80
_cell_length_a 8.727597
_cell_length_b 19.710344
_cell_length_c 25.945348
_cell_angle_alpha 90.000000
_cell_angle_beta 90.000000
_cell_angle_gamma 90.000000
_cell_volume 4463.220966
_symmetry_space_group_name_H-M "C M C A"
_symmetry_group_IT_number 64
_symmetry_cell_setting 'orthorhombic'
loop_
_space_group_symop_operation_xyz
x,y,z
-x,1/2-y,1/2+z
x,-y,-z
-x,1/2+y,1/2-z
-x,-y,-z
x,1/2+y,1/2-z
-x,y,z
x,1/2-y,1/2+z
1/2+x,1/2+y,z
1/2-x,-y,1/2+z
1/2+x,1/2-y,-z
1/2-x,y,1/2-z
1/2-x,1/2-y,-z
1/2+x,y,1/2-z
1/2-x,1/2+y,z
1/2+x,-y,1/2+z
loop_
_atom_site_type_symbol
_atom_site_label
_atom_site_fract_x
_atom_site_fract_y
_atom_site_fract_z
Si Si1 0.816810 0.074007 0.195317
Si Si2 0.320314 0.824486 0.609091
Si Si3 0.182158 0.571328 0.804224
Si Si4 0.180834 0.328515 0.105913
Si Si5 0.320952 0.676480 0.996560
O O1 0.750000 0.097805 0.250000
O O2 0.751886 0.126685 0.152917
O O3 0.000000 0.071460 0.197702
O O4 0.753400 0.000541 0.180019
O O5 0.500000 0.819035 0.617987
O O6 0.253183 0.747901 0.614020
O O7 0.285641 0.857469 0.552485
O O8 0.250000 0.596557 0.750000
O O9 0.234828 0.625648 0.846626
O O10 0.000000 0.564589 0.800004
O O11 0.246054 0.361291 0.052594
O O12 0.000000 0.327558 0.100830
O O13 0.500000 0.681746 0.986836
O O14 0.250000 0.750000 0.000000
#
# Coordination Sequence:
#
# PCOD8262274 Si02
#       5
#    16  16  16  16  16
#     4  10  19  33  51  69  94 126 159 195 236 284
#     4   8  16  31  50  71  95 124 156 193 235 278
#     4  10  20  34  51  70  96 128 160 197 240 286
#     4   9  18  33  51  72  98 126 159 199 239 280
#     4   9  16  29  49  72  98 127 159 194 238 287
#
# _framework density 17.924275000000002
#
# number of rings (size 3 to 8) (size 9 to 14) (size 15 to 20)
#    0.000    2.800    0.000    4.200    0.000    2.400 
#    0.000   11.000    0.000    6.000    0.000    0.000 
#    0.000    0.000    0.000    0.000    0.000    0.000 
#
# Total GULP energy -495689.687352 kJ/mol
# GULP energy per Si atom -12392.242184 kJ/mol
# Density = 1.788348 g / cm^3
# Si number density = 17.924275 Si / 1000 Ang^3
#
#
#
# Elastic Constant Matrix: (Units=GPa)
#
#
# Indices 1 2 3 4 5 6 
#
# 1 51.4722 26.5584 47.0594 0.0000 0.0000 0.0000
# 2 26.5584 83.4514 94.8560 0.0000 0.0000 0.0000
# 3 47.0594 94.8560 190.4436 0.0000 0.0000 0.0000
# 4 0.0000 0.0000 0.0000 12.6410 0.0000 0.0000
# 5 0.0000 0.0000 0.0000 0.0000 31.0754 0.0000
# 6 0.0000 0.0000 0.0000 0.0000 0.0000 18.2497
#
#
#
# Elastic Compliance Matrix: (Units=1/GPa)
#
#
# Indices 1 2 3 4 5 6 
#
# 1 0.025269 -0.002177 -0.005160 0.000000 0.000000 0.000000
# 2 -0.002177 0.027808 -0.013312 0.000000 0.000000 0.000000
# 3 -0.005160 -0.013312 0.013157 0.000000 0.000000 0.000000
# 4 0.000000 0.000000 0.000000 0.079108 0.000000 0.000000
# 5 0.000000 0.000000 0.000000 0.000000 0.032180 0.000000
# 6 0.000000 0.000000 0.000000 0.000000 0.000000 0.054796
#
#
# Mechanical properties :
#
#
# Convention : Reuss Voigt Hill
#
# Bulk Modulus (GPa) = 40.10495 73.59055 56.84775
# Shear Modulus (GPa) = 17.73519 22.85278 20.29398
#
# Velocity S-wave (km/s) = 3.14897 3.57454 3.36848
# Velocity P-wave (km/s) = 5.97031 7.62771 6.84932
#
# Compressibility (1/GPa) = 0.02493458
#
# Stress axis : x y z
#
# Youngs Moduli (GPa) = 39.57493 35.96145 76.00779
#
# Poissons Ratio (x) = 0.07828 0.39218
# Poissons Ratio (y) = 0.08615 1.01185
# Poissons Ratio (z) = 0.20420 0.47874
#
# Static dielectric constant tensor:
#      x y z
#    x 3.287990 0.000000 0.000000 
#    y 0.000000 3.282090 0.000000 
#    z 0.000000 0.000000 3.944570 
# 
# 
# High freq. dielectric constant tensor:
#      x y z
#    x 1.686330 0.000000 0.000000 
#    y 0.000000 1.663090 0.000000 
#    z 0.000000 0.000000 1.713550 
# 
# From -- ./inp_files/47849.got.cif
#   From: 2010.03.12/outbox.cif.g09.slc.cpg/sg64_24_cif.got.tgz:47849.got - 2010.04.10 20:19:32.
