data_PCOD8262243
_publ_section_title
;
Structure prediction by ZEFSAII (Michael W. Deem and Ramdas Pophale) SiO2 
 PCOD8262243
Probable space group: C M C A
;
_chemical_formula_sum "Si O2"
_cell_formula_units_Z 80
_cell_length_a 15.913290
_cell_length_b 28.512951
_cell_length_c 9.274915
_cell_angle_alpha 90.000000
_cell_angle_beta 90.000000
_cell_angle_gamma 90.000000
_cell_volume 4208.352241
_symmetry_space_group_name_H-M "C M C A"
_symmetry_group_IT_number 64
_symmetry_cell_setting 'orthorhombic'
loop_
_space_group_symop_operation_xyz
x,y,z
-x,1/2-y,1/2+z
x,-y,-z
-x,1/2+y,1/2-z
-x,-y,-z
x,1/2+y,1/2-z
-x,y,z
x,1/2-y,1/2+z
1/2+x,1/2+y,z
1/2-x,-y,1/2+z
1/2+x,1/2-y,-z
1/2-x,y,1/2-z
1/2-x,1/2-y,-z
1/2+x,y,1/2-z
1/2-x,1/2+y,z
1/2+x,-y,1/2+z
loop_
_atom_site_type_symbol
_atom_site_label
_atom_site_fract_x
_atom_site_fract_y
_atom_site_fract_z
Si Si1 0.500000 0.558382 0.154984
Si Si2 0.839129 0.214855 0.311112
Si Si3 0.093847 0.712199 0.890271
Si Si4 0.342376 0.394264 0.695291
Si Si5 0.000000 0.448644 0.319733
Si Si6 0.407785 0.891049 0.105759
O O1 0.414283 0.579000 0.217966
O O2 0.500000 0.503946 0.194550
O O3 0.500000 0.567875 0.984329
O O4 0.750000 0.230131 0.250000
O O5 0.842614 0.225054 0.480983
O O6 0.904789 0.249184 0.234170
O O7 0.859300 0.160717 0.278286
O O8 0.118076 0.660090 0.830890
O O9 0.000000 0.711350 0.954346
O O10 0.250000 0.409372 0.750000
O O11 0.345794 0.406798 0.523745
O O12 0.084156 0.427991 0.238958
O O13 0.500000 0.886943 0.031130
#
# Coordination Sequence:
#
# PCOD8262243 Si02
#       6
#     8  16  16  16   8  16
#     4  11  21  39  62  85 114 145 192 245 286 353
#     4  10  21  35  51  79 115 149 186 235 278 327
#     4  10  19  32  54  78 110 147 190 227 269 341
#     4  10  21  37  60  87 114 152 198 235 282 349
#     4   9  21  39  60  85 116 149 184 243 304 341
#     4   8  17  37  58  79 115 152 187 230 287 342
#
# _framework density 19.009816000000001
#
# number of rings (size 3 to 8) (size 9 to 14) (size 15 to 20)
#    0.600    1.800    1.000    1.200    2.800    3.200 
#    0.000    5.000    0.000    0.000    0.000    0.000 
#    0.000    0.000    0.000    0.000    0.000    0.000 
#
# Total GULP energy -495636.378040 kJ/mol
# GULP energy per Si atom -12390.909451 kJ/mol
# Density = 1.896655 g / cm^3
# Si number density = 19.009816 Si / 1000 Ang^3
#
#
#
# Elastic Constant Matrix: (Units=GPa)
#
#
# Indices 1 2 3 4 5 6 
#
# 1 75.3901 39.5208 39.1745 0.0000 0.0000 0.0000
# 2 39.5208 99.5846 74.7000 0.0000 0.0000 0.0000
# 3 39.1745 74.7000 117.2966 0.0000 0.0000 0.0000
# 4 0.0000 0.0000 0.0000 34.6422 0.0000 0.0000
# 5 0.0000 0.0000 0.0000 0.0000 20.8727 0.0000
# 6 0.0000 0.0000 0.0000 0.0000 0.0000 17.4279
#
#
#
# Elastic Compliance Matrix: (Units=1/GPa)
#
#
# Indices 1 2 3 4 5 6 
#
# 1 0.017175 -0.004812 -0.002672 0.000000 0.000000 0.000000
# 2 -0.004812 0.020575 -0.011496 0.000000 0.000000 0.000000
# 3 -0.002672 -0.011496 0.016739 0.000000 0.000000 0.000000
# 4 0.000000 0.000000 0.000000 0.028867 0.000000 0.000000
# 5 0.000000 0.000000 0.000000 0.000000 0.047910 0.000000
# 6 0.000000 0.000000 0.000000 0.000000 0.000000 0.057379
#
#
# Mechanical properties :
#
#
# Convention : Reuss Voigt Hill
#
# Bulk Modulus (GPa) = 60.49748 66.56246 63.52997
# Shear Modulus (GPa) = 21.54131 23.84696 22.69414
#
# Velocity S-wave (km/s) = 3.36991 3.54567 3.45891
# Velocity P-wave (km/s) = 6.85822 7.20091 7.03165
#
# Compressibility (1/GPa) = 0.01652961
#
# Stress axis : x y z
#
# Youngs Moduli (GPa) = 58.22371 48.60375 59.74192
#
# Poissons Ratio (x) = 0.23389 0.15960
# Poissons Ratio (y) = 0.28018 0.68678
# Poissons Ratio (z) = 0.15555 0.55874
#
# Static dielectric constant tensor:
#      x y z
#    x 3.328930 0.000000 0.000000 
#    y 0.000000 3.418380 0.000000 
#    z 0.000000 0.000000 3.355130 
# 
# 
# High freq. dielectric constant tensor:
#      x y z
#    x 1.722680 0.000000 0.000000 
#    y 0.000000 1.736770 0.000000 
#    z 0.000000 0.000000 1.734130 
# 
# From -- ./inp_files/7181.got.cif
#   From: 2010.03.12/outbox.cif.g09.slc.cpg/sg64_4_cif.got.tgz:7181.got - 2010.04.10 20:19:32.
