data_PCOD8262720
_publ_section_title
;
Structure prediction by ZEFSAII (Michael W. Deem and Ramdas Pophale) SiO2 
 PCOD8262720
Probable space group: C M C A
;
_chemical_formula_sum "Si O2"
_cell_formula_units_Z 96
_cell_length_a 9.033971
_cell_length_b 19.937571
_cell_length_c 30.526617
_cell_angle_alpha 90.000000
_cell_angle_beta 90.000000
_cell_angle_gamma 90.000000
_cell_volume 5498.314998
_symmetry_space_group_name_H-M "C M C A"
_symmetry_group_IT_number 64
_symmetry_cell_setting 'orthorhombic'
loop_
_space_group_symop_operation_xyz
x,y,z
-x,1/2-y,1/2+z
x,-y,-z
-x,1/2+y,1/2-z
-x,-y,-z
x,1/2+y,1/2-z
-x,y,z
x,1/2-y,1/2+z
1/2+x,1/2+y,z
1/2-x,-y,1/2+z
1/2+x,1/2-y,-z
1/2-x,y,1/2-z
1/2-x,1/2-y,-z
1/2+x,y,1/2-z
1/2-x,1/2+y,z
1/2+x,-y,1/2+z
loop_
_atom_site_type_symbol
_atom_site_label
_atom_site_fract_x
_atom_site_fract_y
_atom_site_fract_z
Si Si1 0.172852 0.181239 0.051427
Si Si2 0.327579 0.183086 0.549580
Si Si3 0.170920 0.430368 0.290175
Si Si4 0.828422 0.433876 0.386561
Si Si5 0.327832 0.926856 0.790522
Si Si6 0.171933 0.075357 0.387769
O O1 0.240509 0.251925 0.066448
O O2 0.242236 0.121375 0.078605
O O3 0.000000 0.183257 0.060658
O O4 0.209865 0.167319 0.000729
O O5 0.500000 0.197703 0.556694
O O6 0.274475 0.119561 0.577676
O O7 0.250000 0.389281 0.250000
O O8 0.192697 0.398876 0.338561
O O9 0.247154 0.502273 0.292383
O O10 0.000000 0.437664 0.278171
O O11 0.730952 0.499929 0.392077
O O12 0.000000 0.453820 0.393429
O O13 0.500000 0.935637 0.779963
O O14 0.250000 0.885731 0.750000
O O15 0.304856 0.894327 0.838574
O O16 0.000000 0.074491 0.400126
#
# Coordination Sequence:
#
# PCOD8262720 Si02
#       6
#    16  16  16  16  16  16
#     4  10  20  34  53  73  94 125 163 201 242 291
#     4   9  19  36  54  71  94 125 162 202 244 291
#     4   9  15  24  41  65  93 124 155 188 229 277
#     4   9  18  32  50  72  98 128 160 196 239 284
#     4   9  16  26  42  65  93 125 157 191 232 276
#     4  10  20  32  48  73 103 130 158 197 241 283
#
# _framework density 17.459894999999999
#
# number of rings (size 3 to 8) (size 9 to 14) (size 15 to 20)
#    0.000    2.667    0.000    3.000    0.000    4.667 
#    0.000    3.333    0.000    1.000    0.000    2.333 
#    0.000    0.000    0.000    0.000    0.000    0.000 
#
# Total GULP energy -594813.937479 kJ/mol
# GULP energy per Si atom -12391.957031 kJ/mol
# Density = 1.742016 g / cm^3
# Si number density = 17.459895 Si / 1000 Ang^3
#
#
#
# Elastic Constant Matrix: (Units=GPa)
#
#
# Indices 1 2 3 4 5 6 
#
# 1 91.4372 38.2088 50.7283 0.0000 0.0000 0.0000
# 2 38.2088 71.4573 56.8545 0.0000 0.0000 0.0000
# 3 50.7283 56.8545 109.2440 0.0000 0.0000 0.0000
# 4 0.0000 0.0000 0.0000 -0.5850 0.0000 0.0000
# 5 0.0000 0.0000 0.0000 0.0000 31.1740 0.0000
# 6 0.0000 0.0000 0.0000 0.0000 0.0000 24.6364
#
#
#
# Elastic Compliance Matrix: (Units=1/GPa)
#
#
# Indices 1 2 3 4 5 6 
#
# 1 0.015492 -0.004369 -0.004920 0.000000 0.000000 0.000000
# 2 -0.004369 0.025117 -0.011043 0.000000 0.000000 0.000000
# 3 -0.004920 -0.011043 0.017185 0.000000 0.000000 0.000000
# 4 0.000000 0.000000 0.000000 -1.709358 0.000000 0.000000
# 5 0.000000 0.000000 0.000000 0.000000 0.032078 0.000000
# 6 0.000000 0.000000 0.000000 0.000000 0.000000 0.040590
#
#
# Mechanical properties :
#
#
# Convention : Reuss Voigt Hill
#
# Bulk Modulus (GPa) = 58.37595 62.63574 60.50584
# Shear Modulus (GPa) = -3.26260 19.46821 8.10281
#
# Velocity S-wave (km/s) = -1.36846 3.34282 2.15659
# Velocity P-wave (km/s) = 5.56866 7.13100 6.39770
#
# Compressibility (1/GPa) = 0.01713034
#
# Stress axis : x y z
#
# Youngs Moduli (GPa) = 64.55096 39.81420 58.18869
#
# Poissons Ratio (x) = 0.17395 0.28628
# Poissons Ratio (y) = 0.28203 0.64257
# Poissons Ratio (z) = 0.31758 0.43966
#
# Static dielectric constant tensor:
#      x y z
#    x 3.368900 0.000000 0.000000 
#    y 0.000000 2.835140 0.000000 
#    z 0.000000 0.000000 4.231110 
# 
# 
# High freq. dielectric constant tensor:
#      x y z
#    x 1.688720 0.000000 0.000000 
#    y 0.000000 1.621480 0.000000 
#    z 0.000000 0.000000 1.696120 
# 
# From -- ./inp_files/48146.got.cif
#   From: 2010.03.12/outbox.cif.g09.slc.cpg/sg64_25_cif.got.tgz:48146.got - 2010.04.10 20:19:32.
