data_PCOD8262914
_publ_section_title
;
Structure prediction by ZEFSAII (Michael W. Deem and Ramdas Pophale) SiO2 
 PCOD8262914
Probable space group: C M C A
;
_chemical_formula_sum "Si O2"
_cell_formula_units_Z 56
_cell_length_a 9.753854
_cell_length_b 8.942296
_cell_length_c 29.609949
_cell_angle_alpha 90.000000
_cell_angle_beta 90.000000
_cell_angle_gamma 90.000000
_cell_volume 2582.634519
_symmetry_space_group_name_H-M "C M C A"
_symmetry_group_IT_number 64
_symmetry_cell_setting 'orthorhombic'
loop_
_space_group_symop_operation_xyz
x,y,z
-x,1/2-y,1/2+z
x,-y,-z
-x,1/2+y,1/2-z
-x,-y,-z
x,1/2+y,1/2-z
-x,y,z
x,1/2-y,1/2+z
1/2+x,1/2+y,z
1/2-x,-y,1/2+z
1/2+x,1/2-y,-z
1/2-x,y,1/2-z
1/2-x,1/2-y,-z
1/2+x,y,1/2-z
1/2-x,1/2+y,z
1/2+x,-y,1/2+z
loop_
_atom_site_type_symbol
_atom_site_label
_atom_site_fract_x
_atom_site_fract_y
_atom_site_fract_z
Si Si1 0.342147 0.931270 0.793875
Si Si2 0.209599 0.000000 0.000000
Si Si3 0.842770 0.359295 0.347375
Si Si4 0.852412 0.233564 0.439206
O O1 0.500000 0.988741 0.786680
O O2 0.250000 0.957334 0.750000
O O3 0.265874 0.013145 0.835109
O O4 0.344879 0.757580 0.806326
O O5 0.292898 0.084299 0.038947
O O6 0.126803 0.869075 0.024904
O O7 0.778285 0.288915 0.393531
O O8 0.000000 0.420111 0.354764
O O9 0.000000 0.181542 0.422332
#
# Coordination Sequence:
#
# PCOD8262914 Si02
#       4
#    16   8  16  16
#     4  11  23  39  60  86 114 148 189 233 285 342
#     4  10  20  34  56  84 112 148 190 230 280 332
#     4  10  22  39  59  85 117 152 191 236 284 337
#     4  10  20  36  56  81 114 149 188 233 280 331
#
# _framework density 21.683285999999999
#
# number of rings (size 3 to 8) (size 9 to 14) (size 15 to 20)
#    0.000    1.714    0.000    4.286    0.000    4.571 
#    0.000    7.143    0.000    0.000    0.000    0.000 
#    0.000    0.000    0.000    0.000    0.000    0.000 
#
# Total GULP energy -346882.525898 kJ/mol
# GULP energy per Si atom -12388.661639 kJ/mol
# Density = 2.163393 g / cm^3
# Si number density = 21.683286 Si / 1000 Ang^3
#
#
#
# Elastic Constant Matrix: (Units=GPa)
#
#
# Indices 1 2 3 4 5 6 
#
# 1 107.4718 21.8619 14.7128 0.0000 0.0000 0.0000
# 2 21.8619 60.4469 -3.9228 0.0000 0.0000 0.0000
# 3 14.7128 -3.9228 81.3062 0.0000 0.0000 0.0000
# 4 0.0000 0.0000 0.0000 42.2361 0.0000 0.0000
# 5 0.0000 0.0000 0.0000 0.0000 25.0382 0.0000
# 6 0.0000 0.0000 0.0000 0.0000 0.0000 10.7968
#
#
#
# Elastic Compliance Matrix: (Units=1/GPa)
#
#
# Indices 1 2 3 4 5 6 
#
# 1 0.010378 -0.003888 -0.002066 0.000000 0.000000 0.000000
# 2 -0.003888 0.018052 0.001574 0.000000 0.000000 0.000000
# 3 -0.002066 0.001574 0.012749 0.000000 0.000000 0.000000
# 4 0.000000 0.000000 0.000000 0.023676 0.000000 0.000000
# 5 0.000000 0.000000 0.000000 0.000000 0.039939 0.000000
# 6 0.000000 0.000000 0.000000 0.000000 0.000000 0.092620
#
#
# Mechanical properties :
#
#
# Convention : Reuss Voigt Hill
#
# Bulk Modulus (GPa) = 30.84380 34.94762 32.89571
# Shear Modulus (GPa) = 23.04375 30.05244 26.54810
#
# Velocity S-wave (km/s) = 3.26351 3.72690 3.50288
# Velocity P-wave (km/s) = 5.33444 5.88830 5.61820
#
# Compressibility (1/GPa) = 0.03242143
#
# Stress axis : x y z
#
# Youngs Moduli (GPa) = 96.35427 55.39655 78.43798
#
# Poissons Ratio (x) = 0.21536 0.16202
# Poissons Ratio (y) = 0.37459 -0.12350
# Poissons Ratio (z) = 0.19903 -0.08722
#
# Static dielectric constant tensor:
#      x y z
#    x 3.807840 0.000000 0.000000 
#    y 0.000000 3.776880 0.000000 
#    z 0.000000 0.000000 3.977230 
# 
# 
# High freq. dielectric constant tensor:
#      x y z
#    x 1.839560 0.000000 0.000000 
#    y 0.000000 1.845110 0.000000 
#    z 0.000000 0.000000 1.868660 
# 
# From -- ./inp_files/48946.got.cif
#   From: 2010.03.12/outbox.cif.g09.slc.cpg/sg64_25_cif.got.tgz:48946.got - 2010.04.10 20:19:32.
