data_PCOD8262749
_publ_section_title
;
Structure prediction by ZEFSAII (Michael W. Deem and Ramdas Pophale) SiO2 
 PCOD8262749
Probable space group: C M C A
;
_chemical_formula_sum "Si O2"
_cell_formula_units_Z 72
_cell_length_a 23.010147
_cell_length_b 9.040200
_cell_length_c 15.583981
_cell_angle_alpha 90.000000
_cell_angle_beta 90.000000
_cell_angle_gamma 90.000000
_cell_volume 3241.722549
_symmetry_space_group_name_H-M "C M C A"
_symmetry_group_IT_number 64
_symmetry_cell_setting 'orthorhombic'
loop_
_space_group_symop_operation_xyz
x,y,z
-x,1/2-y,1/2+z
x,-y,-z
-x,1/2+y,1/2-z
-x,-y,-z
x,1/2+y,1/2-z
-x,y,z
x,1/2-y,1/2+z
1/2+x,1/2+y,z
1/2-x,-y,1/2+z
1/2+x,1/2-y,-z
1/2-x,y,1/2-z
1/2-x,1/2-y,-z
1/2+x,y,1/2-z
1/2-x,1/2+y,z
1/2+x,-y,1/2+z
loop_
_atom_site_type_symbol
_atom_site_label
_atom_site_fract_x
_atom_site_fract_y
_atom_site_fract_z
Si Si1 0.125143 0.127622 0.809766
Si Si2 0.229242 0.753415 0.613247
Si Si3 0.864695 0.786043 0.853178
Si Si4 0.564925 0.672645 0.982720
Si Si5 0.243450 0.000000 0.500000
O O1 0.189290 0.205398 0.807966
O O2 0.103429 0.176428 0.715279
O O3 0.088827 0.202692 0.886829
O O4 0.126391 0.952252 0.819196
O O5 0.296508 0.753195 0.637655
O O6 0.207973 0.913631 0.574976
O O7 0.215626 0.626878 0.541019
O O8 0.894942 0.752753 0.944389
O O9 0.500000 0.739348 0.988516
O O10 0.563316 0.500000 0.000000
#
# Coordination Sequence:
#
# PCOD8262749 Si02
#       5
#    16  16  16  16   8
#     4  11  24  40  62  94 126 162 206 250 304 368
#     4  11  21  36  58  91 129 164 197 253 296 375
#     4  11  24  40  62  94 126 162 206 250 304 368
#     4   9  20  42  67  87 117 163 208 254 308 362
#     4  10  20  32  58  86 118 166 206 236 294 352
#
# _framework density 22.210414
#
# number of rings (size 3 to 8) (size 9 to 14) (size 15 to 20)
#    0.000    1.556    2.222    3.333    6.222    2.667 
#    0.000    0.000    0.000    1.333    0.000    0.000 
#    0.000    0.000    0.000    0.000    0.000    0.000 
#
# Total GULP energy -446066.726558 kJ/mol
# GULP energy per Si atom -12390.742404 kJ/mol
# Density = 2.215986 g / cm^3
# Si number density = 22.210414 Si / 1000 Ang^3
#
#
#
# Elastic Constant Matrix: (Units=GPa)
#
#
# Indices 1 2 3 4 5 6 
#
# 1 111.8159 7.2367 45.6723 0.0000 0.0000 0.0000
# 2 7.2367 82.7245 24.6300 0.0000 0.0000 0.0000
# 3 45.6723 24.6300 134.5231 0.0000 0.0000 0.0000
# 4 0.0000 0.0000 0.0000 44.3647 0.0000 0.0000
# 5 0.0000 0.0000 0.0000 0.0000 16.4851 0.0000
# 6 0.0000 0.0000 0.0000 0.0000 0.0000 16.7168
#
#
#
# Elastic Compliance Matrix: (Units=1/GPa)
#
#
# Indices 1 2 3 4 5 6 
#
# 1 0.010385 0.000149 -0.003553 0.000000 0.000000 0.000000
# 2 0.000149 0.012787 -0.002392 0.000000 0.000000 0.000000
# 3 -0.003553 -0.002392 0.009078 0.000000 0.000000 0.000000
# 4 0.000000 0.000000 0.000000 0.022540 0.000000 0.000000
# 5 0.000000 0.000000 0.000000 0.000000 0.060661 0.000000
# 6 0.000000 0.000000 0.000000 0.000000 0.000000 0.059820
#
#
# Mechanical properties :
#
#
# Convention : Reuss Voigt Hill
#
# Bulk Modulus (GPa) = 48.40539 53.79347 51.09943
# Shear Modulus (GPa) = 25.80652 32.28161 29.04406
#
# Velocity S-wave (km/s) = 3.41238 3.81654 3.62011
# Velocity P-wave (km/s) = 6.11286 6.61013 6.36635
#
# Compressibility (1/GPa) = 0.02065886
#
# Stress axis : x y z
#
# Youngs Moduli (GPa) = 96.29341 78.20178 110.15679
#
# Poissons Ratio (x) = -0.01169 0.39141
# Poissons Ratio (y) = -0.01439 0.26349
# Poissons Ratio (z) = 0.34215 0.18706
#
# Static dielectric constant tensor:
#      x y z
#    x 3.857670 0.000000 0.000000 
#    y 0.000000 3.993060 0.000000 
#    z 0.000000 0.000000 4.362060 
# 
# 
# High freq. dielectric constant tensor:
#      x y z
#    x 1.835430 0.000000 0.000000 
#    y 0.000000 1.860190 0.000000 
#    z 0.000000 0.000000 1.894630 
# 
# From -- ./inp_files/34826.got.cif
#   From: 2010.03.12/outbox.cif.g09.slc.cpg/sg64_18_cif.got.tgz:34826.got - 2010.04.10 20:19:32.
