data_PCOD8262004
_publ_section_title
;
Structure prediction by ZEFSAII (Michael W. Deem and Ramdas Pophale) SiO2 
 PCOD8262004
Probable space group: C M C A
;
_chemical_formula_sum "Si O2"
_cell_formula_units_Z 80
_cell_length_a 9.156234
_cell_length_b 27.896098
_cell_length_c 18.268524
_cell_angle_alpha 90.000000
_cell_angle_beta 90.000000
_cell_angle_gamma 90.000000
_cell_volume 4666.204877
_symmetry_space_group_name_H-M "C M C A"
_symmetry_group_IT_number 64
_symmetry_cell_setting 'orthorhombic'
loop_
_space_group_symop_operation_xyz
x,y,z
-x,1/2-y,1/2+z
x,-y,-z
-x,1/2+y,1/2-z
-x,-y,-z
x,1/2+y,1/2-z
-x,y,z
x,1/2-y,1/2+z
1/2+x,1/2+y,z
1/2-x,-y,1/2+z
1/2+x,1/2-y,-z
1/2-x,y,1/2-z
1/2-x,1/2-y,-z
1/2+x,y,1/2-z
1/2-x,1/2+y,z
1/2+x,-y,1/2+z
loop_
_atom_site_type_symbol
_atom_site_label
_atom_site_fract_x
_atom_site_fract_y
_atom_site_fract_z
Si Si1 0.670882 0.772117 0.569276
Si Si2 0.829075 0.946567 0.021994
Si Si3 0.838912 0.676104 0.869118
Si Si4 0.335611 0.359817 0.534332
Si Si5 0.329702 0.910119 0.320057
O O1 0.500000 0.780113 0.551920
O O2 0.750000 0.750000 0.500000
O O3 0.691425 0.733558 0.635638
O O4 0.746436 0.823329 0.587621
O O5 0.783136 0.938351 0.106612
O O6 0.000000 0.936419 0.011836
O O7 0.742942 0.911406 0.967384
O O8 0.785221 0.000000 0.000000
O O9 0.718872 0.645740 0.825355
O O10 0.000000 0.664237 0.837074
O O11 0.834959 0.661983 0.953828
O O12 0.500000 0.365986 0.564479
O O13 0.500000 0.912605 0.306320
O O14 0.250000 0.934022 0.250000
#
# Coordination Sequence:
#
# PCOD8262004 Si02
#       5
#    16  16  16  16  16
#     4   9  15  23  37  58  85 115 143 173 209 252
#     4   9  18  32  48  66  89 119 156 197 241 283
#     4   8  15  26  39  58  85 114 144 176 211 257
#     4   9  16  25  39  61  88 116 145 180 223 269
#     4  10  19  30  46  66  90 119 149 185 228 279
#
# _framework density 17.144552999999998
#
# number of rings (size 3 to 8) (size 9 to 14) (size 15 to 20)
#    0.000    3.000    0.000    3.000    0.000    6.800 
#    0.000    0.000    0.000    0.000    0.000    1.400 
#    0.000    3.200    0.000    0.000    0.000    0.000 
#
# Total GULP energy -495669.125730 kJ/mol
# GULP energy per Si atom -12391.728143 kJ/mol
# Density = 1.710553 g / cm^3
# Si number density = 17.144553 Si / 1000 Ang^3
#
#
#
# Elastic Constant Matrix: (Units=GPa)
#
#
# Indices 1 2 3 4 5 6 
#
# 1 96.8964 57.2537 23.5643 0.0000 0.0000 0.0000
# 2 57.2537 132.0781 30.9522 0.0000 0.0000 0.0000
# 3 23.5643 30.9522 40.1456 0.0000 0.0000 0.0000
# 4 0.0000 0.0000 0.0000 13.3091 0.0000 0.0000
# 5 0.0000 0.0000 0.0000 0.0000 19.1387 0.0000
# 6 0.0000 0.0000 0.0000 0.0000 0.0000 27.5550
#
#
#
# Elastic Compliance Matrix: (Units=1/GPa)
#
#
# Indices 1 2 3 4 5 6 
#
# 1 0.014504 -0.005239 -0.004474 0.000000 0.000000 0.000000
# 2 -0.005239 0.011133 -0.005509 0.000000 0.000000 0.000000
# 3 -0.004474 -0.005509 0.031783 0.000000 0.000000 0.000000
# 4 0.000000 0.000000 0.000000 0.075136 0.000000 0.000000
# 5 0.000000 0.000000 0.000000 0.000000 0.052250 0.000000
# 6 0.000000 0.000000 0.000000 0.000000 0.000000 0.036291
#
#
# Mechanical properties :
#
#
# Convention : Reuss Voigt Hill
#
# Bulk Modulus (GPa) = 37.06937 54.74006 45.90471
# Shear Modulus (GPa) = 19.19145 22.49055 20.84100
#
# Velocity S-wave (km/s) = 3.34936 3.62583 3.49033
# Velocity P-wave (km/s) = 6.05196 7.03752 6.56327
#
# Compressibility (1/GPa) = 0.02697645
#
# Stress axis : x y z
#
# Youngs Moduli (GPa) = 68.94755 89.82243 31.46351
#
# Poissons Ratio (x) = 0.47054 0.14078
# Poissons Ratio (y) = 0.36119 0.17332
# Poissons Ratio (z) = 0.30849 0.49480
#
# Static dielectric constant tensor:
#      x y z
#    x 3.358870 0.000000 0.000000 
#    y 0.000000 3.486900 0.000000 
#    z 0.000000 0.000000 2.871740 
# 
# 
# High freq. dielectric constant tensor:
#      x y z
#    x 1.674750 0.000000 0.000000 
#    y 0.000000 1.654590 0.000000 
#    z 0.000000 0.000000 1.602790 
# 
# From -- ./inp_files/29959.got.cif
#   From: 2010.03.12/outbox.cif.g09.slc.cpg/sg64_15_cif.got.tgz:29959.got - 2010.04.10 20:19:32.
