data_PCOD8262971
_publ_section_title
;
Structure prediction by ZEFSAII (Michael W. Deem and Ramdas Pophale) SiO2 
 PCOD8262971
Probable space group: C M C A
;
_chemical_formula_sum "Si O2"
_cell_formula_units_Z 104
_cell_length_a 23.737240
_cell_length_b 9.148946
_cell_length_c 26.559510
_cell_angle_alpha 90.000000
_cell_angle_beta 90.000000
_cell_angle_gamma 90.000000
_cell_volume 5767.948094
_symmetry_space_group_name_H-M "C M C A"
_symmetry_group_IT_number 64
_symmetry_cell_setting 'orthorhombic'
loop_
_space_group_symop_operation_xyz
x,y,z
-x,1/2-y,1/2+z
x,-y,-z
-x,1/2+y,1/2-z
-x,-y,-z
x,1/2+y,1/2-z
-x,y,z
x,1/2-y,1/2+z
1/2+x,1/2+y,z
1/2-x,-y,1/2+z
1/2+x,1/2-y,-z
1/2-x,y,1/2-z
1/2-x,1/2-y,-z
1/2+x,y,1/2-z
1/2-x,1/2+y,z
1/2+x,-y,1/2+z
loop_
_atom_site_type_symbol
_atom_site_label
_atom_site_fract_x
_atom_site_fract_y
_atom_site_fract_z
Si Si1 0.623688 0.518510 0.694056
Si Si2 0.283350 0.792384 0.163887
Si Si3 0.747532 0.500000 0.000000
Si Si4 0.382652 0.719467 0.858059
Si Si5 0.312169 0.481878 0.202794
Si Si6 0.000000 0.688655 0.681944
Si Si7 0.794053 0.246966 0.433165
Si Si8 0.500000 0.003567 0.777475
O O1 0.657459 0.621050 0.654186
O O2 0.632306 0.349344 0.680639
O O3 0.651303 0.546993 0.747912
O O4 0.557093 0.562319 0.695370
O O5 0.296873 0.649273 0.195604
O O6 0.252629 0.756608 0.111306
O O7 0.245971 0.892073 0.201133
O O8 0.786074 0.403185 0.963301
O O9 0.708878 0.610434 0.968246
O O10 0.350935 0.571282 0.843079
O O11 0.448822 0.689567 0.857505
O O12 0.358129 0.762008 0.912668
O O13 0.000000 0.547811 0.718481
O O14 0.000000 0.827459 0.719610
#
# Coordination Sequence:
#
# PCOD8262971 Si02
#       8
#    16  16   8  16  16   8  16   8
#     4  11  21  34  49  74 108 151 183 220 242 295
#     4  11  22  33  52  76 111 135 182 217 264 314
#     4  10  20  36  60  76 104 124 164 214 288 346
#     4  10  20  35  55  76 108 139 184 215 262 302
#     4  11  21  33  48  74 107 150 178 215 251 300
#     4  10  20  36  54  76 106 150 182 230 240 302
#     4  10  20  36  54  82 101 134 165 219 276 338
#     4  10  22  34  52  72 108 149 202 209 252 278
#
# _framework density 18.030674999999999
#
# number of rings (size 3 to 8) (size 9 to 14) (size 15 to 20)
#    0.000    1.538    1.538    6.000    2.154    2.462 
#    0.000    0.000    0.000    0.923    0.000    4.308 
#    0.000    0.000    0.000    0.000    0.000    0.000 
#
# Total GULP energy -644589.306723 kJ/mol
# GULP energy per Si atom -12395.948206 kJ/mol
# Density = 1.798964 g / cm^3
# Si number density = 18.030675 Si / 1000 Ang^3
#
#
#
# Elastic Constant Matrix: (Units=GPa)
#
#
# Indices 1 2 3 4 5 6 
#
# 1 144.7287 45.3551 37.5361 0.0000 0.0000 0.0000
# 2 45.3551 87.5307 10.0133 0.0000 0.0000 0.0000
# 3 37.5361 10.0133 60.3560 0.0000 0.0000 0.0000
# 4 0.0000 0.0000 0.0000 21.9758 0.0000 0.0000
# 5 0.0000 0.0000 0.0000 0.0000 20.7516 0.0000
# 6 0.0000 0.0000 0.0000 0.0000 0.0000 22.8880
#
#
#
# Elastic Compliance Matrix: (Units=1/GPa)
#
#
# Indices 1 2 3 4 5 6 
#
# 1 0.009657 -0.004400 -0.005276 0.000000 0.000000 0.000000
# 2 -0.004400 0.013651 0.000472 0.000000 0.000000 0.000000
# 3 -0.005276 0.000472 0.019771 0.000000 0.000000 0.000000
# 4 0.000000 0.000000 0.000000 0.045505 0.000000 0.000000
# 5 0.000000 0.000000 0.000000 0.000000 0.048189 0.000000
# 6 0.000000 0.000000 0.000000 0.000000 0.000000 0.043691
#
#
# Mechanical properties :
#
#
# Convention : Reuss Voigt Hill
#
# Bulk Modulus (GPa) = 40.53437 53.15827 46.84632
# Shear Modulus (GPa) = 24.14358 26.43713 25.29036
#
# Velocity S-wave (km/s) = 3.66324 3.83329 3.74923
# Velocity P-wave (km/s) = 6.35783 7.00987 6.69180
#
# Compressibility (1/GPa) = 0.02467042
#
# Stress axis : x y z
#
# Youngs Moduli (GPa) = 103.55539 73.25682 50.57906
#
# Poissons Ratio (x) = 0.32235 0.26683
# Poissons Ratio (y) = 0.45567 -0.02387
# Poissons Ratio (z) = 0.54631 -0.03457
#
# Static dielectric constant tensor:
#      x y z
#    x 3.565670 0.000000 0.000000 
#    y 0.000000 3.458780 0.000000 
#    z 0.000000 0.000000 3.181910 
# 
# 
# High freq. dielectric constant tensor:
#      x y z
#    x 1.696500 0.000000 0.000000 
#    y 0.000000 1.711660 0.000000 
#    z 0.000000 0.000000 1.667300 
# 
# From -- ./inp_files/46920.got.cif
#   From: 2010.03.12/outbox.cif.g09.slc.cpg/sg64_24_cif.got.tgz:46920.got - 2010.04.10 20:19:32.
