data_PCOD8262577
_publ_section_title
;
Structure prediction by ZEFSAII (Michael W. Deem and Ramdas Pophale) SiO2 
 PCOD8262577
Probable space group: C M C A
;
_chemical_formula_sum "Si O2"
_cell_formula_units_Z 96
_cell_length_a 16.439001
_cell_length_b 10.454564
_cell_length_c 27.807245
_cell_angle_alpha 90.000000
_cell_angle_beta 90.000000
_cell_angle_gamma 90.000000
_cell_volume 4779.025092
_symmetry_space_group_name_H-M "C M C A"
_symmetry_group_IT_number 64
_symmetry_cell_setting 'orthorhombic'
loop_
_space_group_symop_operation_xyz
x,y,z
-x,1/2-y,1/2+z
x,-y,-z
-x,1/2+y,1/2-z
-x,-y,-z
x,1/2+y,1/2-z
-x,y,z
x,1/2-y,1/2+z
1/2+x,1/2+y,z
1/2-x,-y,1/2+z
1/2+x,1/2-y,-z
1/2-x,y,1/2-z
1/2-x,1/2-y,-z
1/2+x,y,1/2-z
1/2-x,1/2+y,z
1/2+x,-y,1/2+z
loop_
_atom_site_type_symbol
_atom_site_label
_atom_site_fract_x
_atom_site_fract_y
_atom_site_fract_z
Si Si1 0.339763 0.876489 0.027134
Si Si2 0.852376 0.627501 0.524716
Si Si3 0.406289 0.226765 0.622569
Si Si4 0.163617 0.720985 0.725395
Si Si5 0.092833 0.515448 0.882178
Si Si6 0.906406 0.489106 0.776246
O O1 0.243934 0.871920 0.021512
O O2 0.358248 0.888397 0.083700
O O3 0.383093 0.750563 0.005418
O O4 0.376530 0.000000 0.000000
O O5 0.888379 0.500000 0.500000
O O6 0.882415 0.629844 0.579961
O O7 0.500000 0.203367 0.639250
O O8 0.343385 0.212932 0.667309
O O9 0.396803 0.368794 0.600756
O O10 0.250000 0.688918 0.750000
O O11 0.138252 0.862019 0.743825
O O12 0.102672 0.609388 0.741691
O O13 0.128893 0.528049 0.828419
O O14 0.000000 0.560045 0.883443
O O15 0.000000 0.449562 0.782011
#
# Coordination Sequence:
#
# PCOD8262577 Si02
#       6
#    16  16  16  16  16  16
#     4  10  19  36  57  83 115 154 201 247 288 351
#     4  10  22  37  56  87 123 159 193 248 311 358
#     4  10  21  40  63  86 122 165 197 239 312 378
#     4  11  23  40  63  94 120 158 207 258 305 366
#     4   9  19  35  61  86 109 155 208 246 285 356
#     4  10  21  41  62  87 126 162 200 253 313 369
#
# _framework density 20.087779000000001
#
# number of rings (size 3 to 8) (size 9 to 14) (size 15 to 20)
#    0.000    2.000    1.667    3.000    2.333    1.333 
#    3.000    0.000    0.000    0.000    0.000    0.000 
#    0.000    0.000    0.000    0.000    0.000    0.000 
#
# Total GULP energy -595046.422481 kJ/mol
# GULP energy per Si atom -12396.800468 kJ/mol
# Density = 2.004206 g / cm^3
# Si number density = 20.087779 Si / 1000 Ang^3
#
#
#
# Elastic Constant Matrix: (Units=GPa)
#
#
# Indices 1 2 3 4 5 6 
#
# 1 38.8296 20.5167 27.4147 0.0000 0.0000 0.0000
# 2 20.5167 133.1982 65.4962 0.0000 0.0000 0.0000
# 3 27.4147 65.4962 113.2303 0.0000 0.0000 0.0000
# 4 0.0000 0.0000 0.0000 42.2448 0.0000 0.0000
# 5 0.0000 0.0000 0.0000 0.0000 30.6562 0.0000
# 6 0.0000 0.0000 0.0000 0.0000 0.0000 18.0711
#
#
#
# Elastic Compliance Matrix: (Units=1/GPa)
#
#
# Indices 1 2 3 4 5 6 
#
# 1 0.031285 -0.001529 -0.006690 0.000000 0.000000 0.000000
# 2 -0.001529 0.010566 -0.005742 0.000000 0.000000 0.000000
# 3 -0.006690 -0.005742 0.013773 0.000000 0.000000 0.000000
# 4 0.000000 0.000000 0.000000 0.023672 0.000000 0.000000
# 5 0.000000 0.000000 0.000000 0.000000 0.032620 0.000000
# 6 0.000000 0.000000 0.000000 0.000000 0.000000 0.055337
#
#
# Mechanical properties :
#
#
# Convention : Reuss Voigt Hill
#
# Bulk Modulus (GPa) = 36.09857 56.90145 46.50001
# Shear Modulus (GPa) = 24.46089 29.64981 27.05535
#
# Velocity S-wave (km/s) = 3.49334 3.84606 3.67394
# Velocity P-wave (km/s) = 5.85497 6.93619 6.41839
#
# Compressibility (1/GPa) = 0.02770193
#
# Stress axis : x y z
#
# Youngs Moduli (GPa) = 31.96439 94.63877 72.60841
#
# Poissons Ratio (x) = 0.14473 0.48574
# Poissons Ratio (y) = 0.04888 0.41690
# Poissons Ratio (z) = 0.21384 0.54339
#
# Static dielectric constant tensor:
#      x y z
#    x 3.320820 0.000000 0.000000 
#    y 0.000000 3.746520 0.000000 
#    z 0.000000 0.000000 3.613610 
# 
# 
# High freq. dielectric constant tensor:
#      x y z
#    x 1.765530 0.000000 0.000000 
#    y 0.000000 1.781150 0.000000 
#    z 0.000000 0.000000 1.786360 
# 
# From -- ./inp_files/45755.got.cif
#   From: 2010.03.12/outbox.cif.g09.slc.cpg/sg64_23_cif.got.tgz:45755.got - 2010.04.10 20:19:32.
