data_PCOD8262386
_publ_section_title
;
Structure prediction by ZEFSAII (Michael W. Deem and Ramdas Pophale) SiO2 
 PCOD8262386
Probable space group: C M C A
;
_chemical_formula_sum "Si O2"
_cell_formula_units_Z 112
_cell_length_a 27.988244
_cell_length_b 10.976654
_cell_length_c 18.750174
_cell_angle_alpha 90.000000
_cell_angle_beta 90.000000
_cell_angle_gamma 90.000000
_cell_volume 5760.377277
_symmetry_space_group_name_H-M "C M C A"
_symmetry_group_IT_number 64
_symmetry_cell_setting 'orthorhombic'
loop_
_space_group_symop_operation_xyz
x,y,z
-x,1/2-y,1/2+z
x,-y,-z
-x,1/2+y,1/2-z
-x,-y,-z
x,1/2+y,1/2-z
-x,y,z
x,1/2-y,1/2+z
1/2+x,1/2+y,z
1/2-x,-y,1/2+z
1/2+x,1/2-y,-z
1/2-x,y,1/2-z
1/2-x,1/2-y,-z
1/2+x,y,1/2-z
1/2-x,1/2+y,z
1/2+x,-y,1/2+z
loop_
_atom_site_type_symbol
_atom_site_label
_atom_site_fract_x
_atom_site_fract_y
_atom_site_fract_z
Si Si1 0.395059 0.343837 0.390566
Si Si2 0.555758 0.545833 0.320693
Si Si3 0.555580 0.615293 0.164919
Si Si4 0.799601 0.124449 0.545749
Si Si5 0.194808 0.873384 0.042499
Si Si6 0.054674 0.831867 0.534573
Si Si7 0.406201 0.418425 0.068739
O O1 0.417832 0.416197 0.324242
O O2 0.408721 0.203863 0.377180
O O3 0.338476 0.370673 0.390863
O O4 0.416146 0.386308 0.467575
O O5 0.500000 0.518819 0.322435
O O6 0.568705 0.617299 0.248594
O O7 0.573932 0.618598 0.389853
O O8 0.500000 0.649941 0.152034
O O9 0.566470 0.481414 0.134218
O O10 0.809968 0.248535 0.502227
O O11 0.746645 0.131550 0.581522
O O12 0.805486 0.000000 0.500000
O O13 0.147574 0.875398 0.092984
O O14 0.196043 0.000000 0.000000
O O15 0.059971 0.687952 0.540625
O O16 0.000000 0.867688 0.521280
O O17 0.398734 0.500000 0.000000
#
# Coordination Sequence:
#
# PCOD8262386 Si02
#       7
#    16  16  16  16  16  16  16
#     4  12  21  37  60  86 114 149 196 245 298 350
#     4  10  24  39  54  79 115 156 194 235 289 355
#     4  11  24  39  57  83 118 160 198 238 294 364
#     4  10  19  33  58  89 121 151 194 248 308 352
#     4   9  18  34  55  88 122 152 192 250 300 357
#     4  11  21  34  56  84 114 145 190 243 287 338
#     4  11  20  35  57  86 116 149 194 239 293 343
#
# _framework density 19.443171
#
# number of rings (size 3 to 8) (size 9 to 14) (size 15 to 20)
#    0.000    1.429    2.857    3.857    2.000    1.714 
#    0.000    0.000    0.000    0.857    0.000    0.000 
#    0.000    0.000    0.000    0.000    0.000    0.000 
#
# Total GULP energy -693936.393092 kJ/mol
# GULP energy per Si atom -12391.721305 kJ/mol
# Density = 1.939892 g / cm^3
# Si number density = 19.443171 Si / 1000 Ang^3
#
#
#
# Elastic Constant Matrix: (Units=GPa)
#
#
# Indices 1 2 3 4 5 6 
#
# 1 83.9362 15.2659 35.8561 0.0000 0.0000 0.0000
# 2 15.2659 83.6316 10.7428 0.0000 0.0000 0.0000
# 3 35.8561 10.7428 74.8177 0.0000 0.0000 0.0000
# 4 0.0000 0.0000 0.0000 26.5430 0.0000 0.0000
# 5 0.0000 0.0000 0.0000 0.0000 15.0389 0.0000
# 6 0.0000 0.0000 0.0000 0.0000 0.0000 28.2854
#
#
#
# Elastic Compliance Matrix: (Units=1/GPa)
#
#
# Indices 1 2 3 4 5 6 
#
# 1 0.015266 -0.001882 -0.007046 0.000000 0.000000 0.000000
# 2 -0.001882 0.012414 -0.000881 0.000000 0.000000 0.000000
# 3 -0.007046 -0.000881 0.016869 0.000000 0.000000 0.000000
# 4 0.000000 0.000000 0.000000 0.037675 0.000000 0.000000
# 5 0.000000 0.000000 0.000000 0.000000 0.066494 0.000000
# 6 0.000000 0.000000 0.000000 0.000000 0.000000 0.035354
#
#
# Mechanical properties :
#
#
# Convention : Reuss Voigt Hill
#
# Bulk Modulus (GPa) = 40.10864 40.67945 40.39405
# Shear Modulus (GPa) = 23.58500 26.00816 24.79658
#
# Velocity S-wave (km/s) = 3.48663 3.66136 3.57506
# Velocity P-wave (km/s) = 6.07307 6.23231 6.15321
#
# Compressibility (1/GPa) = 0.02493228
#
# Stress axis : x y z
#
# Youngs Moduli (GPa) = 65.50527 80.55563 59.28017
#
# Poissons Ratio (x) = 0.15157 0.41769
# Poissons Ratio (y) = 0.12325 0.05221
# Poissons Ratio (z) = 0.46155 0.07095
#
# Static dielectric constant tensor:
#      x y z
#    x 3.955030 0.000000 0.000000 
#    y 0.000000 4.051630 0.000000 
#    z 0.000000 0.000000 3.285240 
# 
# 
# High freq. dielectric constant tensor:
#      x y z
#    x 1.764990 0.000000 0.000000 
#    y 0.000000 1.779010 0.000000 
#    z 0.000000 0.000000 1.708030 
# 
# From -- ./inp_files/41962.got.cif
#   From: 2010.03.12/outbox.cif.g09.slc.cpg/sg64_21_cif.got.tgz:41962.got - 2010.04.10 20:19:32.
