data_PCOD8262748
_publ_section_title
;
Structure prediction by ZEFSAII (Michael W. Deem and Ramdas Pophale) SiO2 
 PCOD8262748
Probable space group: C M C A
;
_chemical_formula_sum "Si O2"
_cell_formula_units_Z 104
_cell_length_a 20.336580
_cell_length_b 26.884776
_cell_length_c 9.097208
_cell_angle_alpha 90.000000
_cell_angle_beta 90.000000
_cell_angle_gamma 90.000000
_cell_volume 4973.847511
_symmetry_space_group_name_H-M "C M C A"
_symmetry_group_IT_number 64
_symmetry_cell_setting 'orthorhombic'
loop_
_space_group_symop_operation_xyz
x,y,z
-x,1/2-y,1/2+z
x,-y,-z
-x,1/2+y,1/2-z
-x,-y,-z
x,1/2+y,1/2-z
-x,y,z
x,1/2-y,1/2+z
1/2+x,1/2+y,z
1/2-x,-y,1/2+z
1/2+x,1/2-y,-z
1/2-x,y,1/2-z
1/2-x,1/2-y,-z
1/2+x,y,1/2-z
1/2-x,1/2+y,z
1/2+x,-y,1/2+z
loop_
_atom_site_type_symbol
_atom_site_label
_atom_site_fract_x
_atom_site_fract_y
_atom_site_fract_z
Si Si1 0.750000 0.407903 0.250000
Si Si2 0.426668 0.044890 0.711929
Si Si3 0.645505 0.383963 0.025124
Si Si4 0.824616 0.960824 0.776141
Si Si5 0.819447 0.807050 0.556137
Si Si6 0.168282 0.289848 0.616378
Si Si7 0.646283 0.582305 0.530620
O O1 0.800623 0.375012 0.345450
O O2 0.706524 0.439401 0.367581
O O3 0.500000 0.022566 0.697754
O O4 0.417994 0.088790 0.592335
O O5 0.418555 0.067576 0.876608
O O6 0.370991 0.004900 0.665030
O O7 0.677185 0.415112 0.889911
O O8 0.622422 0.329896 0.967705
O O9 0.750000 0.979167 0.750000
O O10 0.857636 0.944778 0.623550
O O11 0.850701 0.792524 0.712655
O O12 0.842268 0.765992 0.438421
O O13 0.741569 0.808982 0.579189
O O14 0.846195 0.858764 0.492892
#
# Coordination Sequence:
#
# PCOD8262748 Si02
#       7
#     8  16  16  16  16  16  16
#     4  10  20  32  58  92 124 170 202 244 308 366
#     4  11  29  46  63  90 126 173 220 267 322 387
#     4  11  22  39  63  89 134 167 212 258 315 376
#     4  12  23  39  67  98 128 166 216 269 321 380
#     4  10  20  32  57  96 136 167 199 252 317 380
#     4  10  20  32  57  96 136 167 199 252 317 380
#     4  11  22  39  63  89 134 167 212 258 315 376
#
# _framework density 20.909368000000001
#
# number of rings (size 3 to 8) (size 9 to 14) (size 15 to 20)
#    0.000    1.231    4.615    0.923    8.615    3.692 
#    0.000    0.000    0.000    0.923    0.000    0.000 
#    0.000    0.000    0.000    0.000    0.000    0.000 
#
# Total GULP energy -644552.637548 kJ/mol
# GULP energy per Si atom -12395.243030 kJ/mol
# Density = 2.086178 g / cm^3
# Si number density = 20.909368 Si / 1000 Ang^3
#
#
#
# Elastic Constant Matrix: (Units=GPa)
#
#
# Indices 1 2 3 4 5 6 
#
# 1 82.7164 22.7738 11.3632 0.0000 0.0000 0.0000
# 2 22.7738 99.9256 21.2963 0.0000 0.0000 0.0000
# 3 11.3632 21.2963 110.9126 0.0000 0.0000 0.0000
# 4 0.0000 0.0000 0.0000 33.9632 0.0000 0.0000
# 5 0.0000 0.0000 0.0000 0.0000 14.8188 0.0000
# 6 0.0000 0.0000 0.0000 0.0000 0.0000 9.3065
#
#
#
# Elastic Compliance Matrix: (Units=1/GPa)
#
#
# Indices 1 2 3 4 5 6 
#
# 1 0.012966 -0.002786 -0.000793 0.000000 0.000000 0.000000
# 2 -0.002786 0.011033 -0.001833 0.000000 0.000000 0.000000
# 3 -0.000793 -0.001833 0.009449 0.000000 0.000000 0.000000
# 4 0.000000 0.000000 0.000000 0.029444 0.000000 0.000000
# 5 0.000000 0.000000 0.000000 0.000000 0.067482 0.000000
# 6 0.000000 0.000000 0.000000 0.000000 0.000000 0.107452
#
#
# Mechanical properties :
#
#
# Convention : Reuss Voigt Hill
#
# Bulk Modulus (GPa) = 44.20226 44.93568 44.56897
# Shear Modulus (GPa) = 19.51669 27.49246 23.50457
#
# Velocity S-wave (km/s) = 3.05847 3.63000 3.35642
# Velocity P-wave (km/s) = 5.80156 6.25353 6.03178
#
# Compressibility (1/GPa) = 0.02262328
#
# Stress axis : x y z
#
# Youngs Moduli (GPa) = 77.12771 90.63702 105.82736
#
# Poissons Ratio (x) = 0.25250 0.08397
# Poissons Ratio (y) = 0.21487 0.19398
# Poissons Ratio (z) = 0.06120 0.16614
#
# Static dielectric constant tensor:
#      x y z
#    x 3.211210 0.000000 0.000000 
#    y 0.000000 3.706630 0.000000 
#    z 0.000000 0.000000 4.223630 
# 
# 
# High freq. dielectric constant tensor:
#      x y z
#    x 1.749040 0.000000 0.000000 
#    y 0.000000 1.819760 0.000000 
#    z 0.000000 0.000000 1.849290 
# 
# From -- ./inp_files/8532.got.cif
#   From: 2010.03.12/outbox.cif.g09.slc.cpg/sg64_5_cif.got.tgz:8532.got - 2010.04.10 20:19:32.
