data_PCOD8262784
_publ_section_title
;
Structure prediction by ZEFSAII (Michael W. Deem and Ramdas Pophale) SiO2 
 PCOD8262784
Probable space group: C M C A
;
_chemical_formula_sum "Si O2"
_cell_formula_units_Z 96
_cell_length_a 25.379516
_cell_length_b 22.959323
_cell_length_c 8.799365
_cell_angle_alpha 90.000000
_cell_angle_beta 90.000000
_cell_angle_gamma 90.000000
_cell_volume 5127.359235
_symmetry_space_group_name_H-M "C M C A"
_symmetry_group_IT_number 64
_symmetry_cell_setting 'orthorhombic'
loop_
_space_group_symop_operation_xyz
x,y,z
-x,1/2-y,1/2+z
x,-y,-z
-x,1/2+y,1/2-z
-x,-y,-z
x,1/2+y,1/2-z
-x,y,z
x,1/2-y,1/2+z
1/2+x,1/2+y,z
1/2-x,-y,1/2+z
1/2+x,1/2-y,-z
1/2-x,y,1/2-z
1/2-x,1/2-y,-z
1/2+x,y,1/2-z
1/2-x,1/2+y,z
1/2+x,-y,1/2+z
loop_
_atom_site_type_symbol
_atom_site_label
_atom_site_fract_x
_atom_site_fract_y
_atom_site_fract_z
Si Si1 0.000000 0.825557 0.722090
Si Si2 0.094041 0.874371 0.322116
Si Si3 0.695651 0.302793 0.330123
Si Si4 0.560271 0.989430 0.323013
Si Si5 0.500000 0.293722 0.375612
Si Si6 0.304864 0.819003 0.814335
Si Si7 0.597958 0.899711 0.830107
O O1 0.000000 0.798234 0.555899
O O2 0.051181 0.864651 0.751407
O O3 0.000000 0.774501 0.844134
O O4 0.151407 0.849232 0.283207
O O5 0.081859 0.924832 0.203311
O O6 0.051735 0.822906 0.303525
O O7 0.090027 0.901504 0.489698
O O8 0.750000 0.321710 0.250000
O O9 0.702303 0.301561 0.510734
O O10 0.677886 0.238729 0.276752
O O11 0.500000 0.994895 0.265329
O O12 0.564753 0.000000 0.500000
O O13 0.597022 0.034585 0.231607
O O14 0.250000 0.843520 0.750000
O O15 0.347181 0.869407 0.787449
#
# Coordination Sequence:
#
# PCOD8262784 Si02
#       7
#     8  16  16  16   8  16  16
#     4  10  20  33  52  79 109 140 174 220 271 322
#     4  10  21  37  57  79 108 147 186 221 270 330
#     4  10  20  35  57  84 112 147 185 224 274 326
#     4  11  23  37  56  83 110 143 184 228 277 324
#     4  10  20  33  52  79 109 140 174 220 271 322
#     4  10  20  35  57  84 112 147 185 224 274 326
#     4  10  21  37  57  79 108 147 186 221 270 330
#
# _framework density 18.723088000000001
#
# number of rings (size 3 to 8) (size 9 to 14) (size 15 to 20)
#    0.000    1.833    1.667    3.500    0.000    4.667 
#    0.000    0.833    0.000    0.000    0.000    0.000 
#    0.000    0.000    0.000    0.000    0.000    0.000 
#
# Total GULP energy -595419.170856 kJ/mol
# GULP energy per Si atom -12404.566059 kJ/mol
# Density = 1.868047 g / cm^3
# Si number density = 18.723088 Si / 1000 Ang^3
#
#
#
# Elastic Constant Matrix: (Units=GPa)
#
#
# Indices 1 2 3 4 5 6 
#
# 1 103.4521 25.6987 32.6657 0.0000 0.0000 0.0000
# 2 25.6987 49.1962 11.6825 0.0000 0.0000 0.0000
# 3 32.6657 11.6825 46.4032 0.0000 0.0000 0.0000
# 4 0.0000 0.0000 0.0000 34.5533 0.0000 0.0000
# 5 0.0000 0.0000 0.0000 0.0000 26.1074 0.0000
# 6 0.0000 0.0000 0.0000 0.0000 0.0000 28.5741
#
#
#
# Elastic Compliance Matrix: (Units=1/GPa)
#
#
# Indices 1 2 3 4 5 6 
#
# 1 0.013540 -0.005115 -0.008244 0.000000 0.000000 0.000000
# 2 -0.005115 0.023552 -0.002328 0.000000 0.000000 0.000000
# 3 -0.008244 -0.002328 0.027940 0.000000 0.000000 0.000000
# 4 0.000000 0.000000 0.000000 0.028941 0.000000 0.000000
# 5 0.000000 0.000000 0.000000 0.000000 0.038303 0.000000
# 6 0.000000 0.000000 0.000000 0.000000 0.000000 0.034997
#
#
# Mechanical properties :
#
#
# Convention : Reuss Voigt Hill
#
# Bulk Modulus (GPa) = 29.71195 37.68280 33.69737
# Shear Modulus (GPa) = 23.82472 26.44728 25.13600
#
# Velocity S-wave (km/s) = 3.57105 3.76247 3.66801
# Velocity P-wave (km/s) = 5.73645 6.24860 5.99799
#
# Compressibility (1/GPa) = 0.03365649
#
# Stress axis : x y z
#
# Youngs Moduli (GPa) = 73.85516 42.45964 35.79141
#
# Poissons Ratio (x) = 0.21719 0.29505
# Poissons Ratio (y) = 0.37779 0.08334
# Poissons Ratio (z) = 0.60884 0.09887
#
# Static dielectric constant tensor:
#      x y z
#    x 3.546960 0.000000 0.000000 
#    y 0.000000 3.305530 0.000000 
#    z 0.000000 0.000000 3.365290 
# 
# 
# High freq. dielectric constant tensor:
#      x y z
#    x 1.730030 0.000000 0.000000 
#    y 0.000000 1.722520 0.000000 
#    z 0.000000 0.000000 1.729010 
# 
# From -- ./inp_files/9526.got.cif
#   From: 2010.03.12/outbox.cif.g09.slc.cpg/sg64_5_cif.got.tgz:9526.got - 2010.04.10 20:19:32.
