data_PCOD8262288
_publ_section_title
;
Structure prediction by ZEFSAII (Michael W. Deem and Ramdas Pophale) SiO2 
 PCOD8262288
Probable space group: C M C A
;
_chemical_formula_sum "Si O2"
_cell_formula_units_Z 80
_cell_length_a 15.548858
_cell_length_b 28.519587
_cell_length_c 9.155051
_cell_angle_alpha 90.000000
_cell_angle_beta 90.000000
_cell_angle_gamma 90.000000
_cell_volume 4059.779978
_symmetry_space_group_name_H-M "C M C A"
_symmetry_group_IT_number 64
_symmetry_cell_setting 'orthorhombic'
loop_
_space_group_symop_operation_xyz
x,y,z
-x,1/2-y,1/2+z
x,-y,-z
-x,1/2+y,1/2-z
-x,-y,-z
x,1/2+y,1/2-z
-x,y,z
x,1/2-y,1/2+z
1/2+x,1/2+y,z
1/2-x,-y,1/2+z
1/2+x,1/2-y,-z
1/2-x,y,1/2-z
1/2-x,1/2-y,-z
1/2+x,y,1/2-z
1/2-x,1/2+y,z
1/2+x,-y,1/2+z
loop_
_atom_site_type_symbol
_atom_site_label
_atom_site_fract_x
_atom_site_fract_y
_atom_site_fract_z
Si Si1 0.344101 0.213986 0.199752
Si Si2 0.595525 0.118791 0.116348
Si Si3 0.759828 0.952254 0.577185
Si Si4 0.095765 0.601978 0.459487
Si Si5 0.595914 0.206109 0.513613
O O1 0.250000 0.198402 0.250000
O O2 0.380166 0.173337 0.092422
O O3 0.401641 0.219972 0.343419
O O4 0.339656 0.262427 0.109508
O O5 0.500000 0.108897 0.051717
O O6 0.665274 0.085176 0.039901
O O7 0.596615 0.110113 0.287879
O O8 0.750000 0.959949 0.750000
O O9 0.669859 0.935514 0.503016
O O10 0.787774 0.000000 0.500000
O O11 0.118327 0.651305 0.537360
O O12 0.000000 0.584319 0.507841
O O13 0.500000 0.216640 0.569566
#
# Coordination Sequence:
#
# PCOD8262288 Si02
#       5
#    16  16  16  16  16
#     4  11  20  32  52  79 107 138 177 216 256 304
#     4   9  17  32  53  74 100 136 173 206 249 310
#     4  10  20  35  54  75  98 127 168 216 261 306
#     4   8  16  32  53  74 100 137 173 202 244 311
#     4  10  19  33  52  76 106 139 174 210 252 306
#
# _framework density 19.705503
#
# number of rings (size 3 to 8) (size 9 to 14) (size 15 to 20)
#    0.000    2.400    0.000    6.600    0.000    0.800 
#    0.000    3.000    0.000    2.400    0.000    0.000 
#    0.000    0.000    0.000    0.000    0.000    0.000 
#
# Total GULP energy -495880.622626 kJ/mol
# GULP energy per Si atom -12397.015566 kJ/mol
# Density = 1.966065 g / cm^3
# Si number density = 19.705503 Si / 1000 Ang^3
#
#
#
# Elastic Constant Matrix: (Units=GPa)
#
#
# Indices 1 2 3 4 5 6 
#
# 1 139.2701 56.3026 15.7029 0.0000 0.0000 0.0000
# 2 56.3026 103.4742 30.4974 0.0000 0.0000 0.0000
# 3 15.7029 30.4974 28.3614 0.0000 0.0000 0.0000
# 4 0.0000 0.0000 0.0000 31.3288 0.0000 0.0000
# 5 0.0000 0.0000 0.0000 0.0000 10.0790 0.0000
# 6 0.0000 0.0000 0.0000 0.0000 0.0000 27.6305
#
#
#
# Elastic Compliance Matrix: (Units=1/GPa)
#
#
# Indices 1 2 3 4 5 6 
#
# 1 0.009209 -0.005136 0.000424 0.000000 0.000000 0.000000
# 2 -0.005136 0.017012 -0.015450 0.000000 0.000000 0.000000
# 3 0.000424 -0.015450 0.051638 0.000000 0.000000 0.000000
# 4 0.000000 0.000000 0.000000 0.031920 0.000000 0.000000
# 5 0.000000 0.000000 0.000000 0.000000 0.099217 0.000000
# 6 0.000000 0.000000 0.000000 0.000000 0.000000 0.036192
#
#
# Mechanical properties :
#
#
# Convention : Reuss Voigt Hill
#
# Bulk Modulus (GPa) = 26.64148 52.90127 39.77138
# Shear Modulus (GPa) = 16.77722 25.04783 20.91252
#
# Velocity S-wave (km/s) = 2.92104 3.56913 3.26122
# Velocity P-wave (km/s) = 4.99257 6.62489 5.86579
#
# Compressibility (1/GPa) = 0.03753546
#
# Stress axis : x y z
#
# Youngs Moduli (GPa) = 108.59361 58.78101 19.36540
#
# Poissons Ratio (x) = 0.30187 -0.00821
# Poissons Ratio (y) = 0.55768 0.29920
# Poissons Ratio (z) = -0.04601 0.90818
#
# Static dielectric constant tensor:
#      x y z
#    x 3.930730 0.000000 0.000000 
#    y 0.000000 3.542640 0.000000 
#    z 0.000000 0.000000 3.040360 
# 
# 
# High freq. dielectric constant tensor:
#      x y z
#    x 1.784640 0.000000 0.000000 
#    y 0.000000 1.762190 0.000000 
#    z 0.000000 0.000000 1.711950 
# 
# From -- ./inp_files/14458.got.cif
#   From: 2010.03.12/outbox.cif.g09.slc.cpg/sg64_8_cif.got.tgz:14458.got - 2010.04.10 20:19:32.
