data_PCOD8262750
_publ_section_title
;
Structure prediction by ZEFSAII (Michael W. Deem and Ramdas Pophale) SiO2 
 PCOD8262750
Probable space group: C M C A
;
_chemical_formula_sum "Si O2"
_cell_formula_units_Z 72
_cell_length_a 9.075019
_cell_length_b 17.836668
_cell_length_c 22.905061
_cell_angle_alpha 90.000000
_cell_angle_beta 90.000000
_cell_angle_gamma 90.000000
_cell_volume 3707.598727
_symmetry_space_group_name_H-M "C M C A"
_symmetry_group_IT_number 64
_symmetry_cell_setting 'orthorhombic'
loop_
_space_group_symop_operation_xyz
x,y,z
-x,1/2-y,1/2+z
x,-y,-z
-x,1/2+y,1/2-z
-x,-y,-z
x,1/2+y,1/2-z
-x,y,z
x,1/2-y,1/2+z
1/2+x,1/2+y,z
1/2-x,-y,1/2+z
1/2+x,1/2-y,-z
1/2-x,y,1/2-z
1/2-x,1/2-y,-z
1/2+x,y,1/2-z
1/2-x,1/2+y,z
1/2+x,-y,1/2+z
loop_
_atom_site_type_symbol
_atom_site_label
_atom_site_fract_x
_atom_site_fract_y
_atom_site_fract_z
Si Si1 0.174228 0.487471 0.689984
Si Si2 0.166940 0.376646 0.143603
Si Si3 0.170614 0.735066 0.560356
Si Si4 0.750000 0.778985 0.250000
Si Si5 0.659402 0.842638 0.837039
O O1 0.250000 0.509723 0.750000
O O2 0.240797 0.546134 0.644207
O O3 0.210938 0.401537 0.674370
O O4 0.000000 0.496724 0.694311
O O5 0.244035 0.330913 0.092526
O O6 0.161148 0.332284 0.205458
O O7 0.000000 0.394531 0.125364
O O8 0.250000 0.750000 0.500000
O O9 0.184014 0.810279 0.598583
O O10 0.000000 0.712654 0.550856
O O11 0.650291 0.724743 0.289888
O O12 0.500000 0.883526 0.833191
#
# Coordination Sequence:
#
# PCOD8262750 Si02
#       5
#    16  16  16   8  16
#     4  12  24  37  56  85 123 160 195 237 291 354
#     4  11  22  37  60  87 120 157 196 243 296 350
#     4  10  22  41  64  89 118 153 200 248 295 348
#     4  10  20  32  58  86 120 150 196 234 294 350
#     4  10  21  37  58  86 119 153 194 240 290 348
#
# _framework density 19.419577
#
# number of rings (size 3 to 8) (size 9 to 14) (size 15 to 20)
#    0.000    1.333    2.222    4.000    0.000    6.222 
#    0.000    1.111    0.000    6.667    0.000    0.000 
#    0.000    0.000    0.000    0.000    0.000    0.000 
#
# Total GULP energy -446307.477799 kJ/mol
# GULP energy per Si atom -12397.429939 kJ/mol
# Density = 1.937538 g / cm^3
# Si number density = 19.419577 Si / 1000 Ang^3
#
#
#
# Elastic Constant Matrix: (Units=GPa)
#
#
# Indices 1 2 3 4 5 6 
#
# 1 172.3635 38.2687 31.7096 0.0000 0.0000 0.0000
# 2 38.2687 82.2414 11.3995 0.0000 0.0000 0.0000
# 3 31.7096 11.3995 92.3995 0.0000 0.0000 0.0000
# 4 0.0000 0.0000 0.0000 20.3155 0.0000 0.0000
# 5 0.0000 0.0000 0.0000 0.0000 26.3899 0.0000
# 6 0.0000 0.0000 0.0000 0.0000 0.0000 29.7865
#
#
#
# Elastic Compliance Matrix: (Units=1/GPa)
#
#
# Indices 1 2 3 4 5 6 
#
# 1 0.006808 -0.002894 -0.001979 0.000000 0.000000 0.000000
# 2 -0.002894 0.013601 -0.000685 0.000000 0.000000 0.000000
# 3 -0.001979 -0.000685 0.011586 0.000000 0.000000 0.000000
# 4 0.000000 0.000000 0.000000 0.049223 0.000000 0.000000
# 5 0.000000 0.000000 0.000000 0.000000 0.037893 0.000000
# 6 0.000000 0.000000 0.000000 0.000000 0.000000 0.033572
#
#
# Mechanical properties :
#
#
# Convention : Reuss Voigt Hill
#
# Bulk Modulus (GPa) = 47.89424 56.64001 52.26712
# Shear Modulus (GPa) = 29.28079 33.00681 31.14380
#
# Velocity S-wave (km/s) = 3.88725 4.12717 4.00901
# Velocity P-wave (km/s) = 6.69806 7.20702 6.95720
#
# Compressibility (1/GPa) = 0.02087934
#
# Stress axis : x y z
#
# Youngs Moduli (GPa) = 146.87906 73.52537 86.30823
#
# Poissons Ratio (x) = 0.21276 0.17085
# Poissons Ratio (y) = 0.42502 0.05911
# Poissons Ratio (z) = 0.29074 0.05036
#
# Static dielectric constant tensor:
#      x y z
#    x 3.546310 0.000000 0.000000 
#    y 0.000000 3.557140 0.000000 
#    z 0.000000 0.000000 3.340910 
# 
# 
# High freq. dielectric constant tensor:
#      x y z
#    x 1.768100 0.000000 0.000000 
#    y 0.000000 1.757360 0.000000 
#    z 0.000000 0.000000 1.738280 
# 
# From -- ./inp_files/42605.got.cif
#   From: 2010.03.12/outbox.cif.g09.slc.cpg/sg64_22_cif.got.tgz:42605.got - 2010.04.10 20:19:32.
