data_PCOD8262139
_publ_section_title
;
Structure prediction by ZEFSAII (Michael W. Deem and Ramdas Pophale) SiO2 
 PCOD8262139
Probable space group: C M C A
;
_chemical_formula_sum "Si O2"
_cell_formula_units_Z 96
_cell_length_a 9.051482
_cell_length_b 29.253083
_cell_length_c 20.583872
_cell_angle_alpha 90.000000
_cell_angle_beta 90.000000
_cell_angle_gamma 90.000000
_cell_volume 5450.274905
_symmetry_space_group_name_H-M "C M C A"
_symmetry_group_IT_number 64
_symmetry_cell_setting 'orthorhombic'
loop_
_space_group_symop_operation_xyz
x,y,z
-x,1/2-y,1/2+z
x,-y,-z
-x,1/2+y,1/2-z
-x,-y,-z
x,1/2+y,1/2-z
-x,y,z
x,1/2-y,1/2+z
1/2+x,1/2+y,z
1/2-x,-y,1/2+z
1/2+x,1/2-y,-z
1/2-x,y,1/2-z
1/2-x,1/2-y,-z
1/2+x,y,1/2-z
1/2-x,1/2+y,z
1/2+x,-y,1/2+z
loop_
_atom_site_type_symbol
_atom_site_label
_atom_site_fract_x
_atom_site_fract_y
_atom_site_fract_z
Si Si1 0.825544 0.715588 0.049637
Si Si2 0.832414 0.500982 0.688391
Si Si3 0.170232 0.387547 0.981133
Si Si4 0.327569 0.801564 0.684321
Si Si5 0.334507 0.597525 0.145136
Si Si6 0.324714 0.036988 0.552315
O O1 0.794829 0.666174 0.018389
O O2 0.750997 0.719844 0.120783
O O3 0.000000 0.725365 0.056697
O O4 0.750000 0.750000 0.000000
O O5 0.750000 0.522416 0.750000
O O6 0.816407 0.446007 0.691462
O O7 0.764320 0.521190 0.622277
O O8 0.000000 0.516693 0.694024
O O9 0.217664 0.408160 0.912197
O O10 0.000000 0.397887 0.992228
O O11 0.260164 0.412795 0.037939
O O12 0.500000 0.787549 0.684084
O O13 0.250000 0.782613 0.750000
O O14 0.307023 0.856307 0.685266
O O15 0.500000 0.597959 0.114503
O O16 0.500000 0.039514 0.551116
O O17 0.267566 0.000000 0.500000
#
# Coordination Sequence:
#
# PCOD8262139 Si02
#       6
#    16  16  16  16  16  16
#     4  10  21  37  56  80 108 137 174 220 271 324
#     4  10  20  32  47  69  99 137 175 216 256 298
#     4  10  20  32  51  79 105 130 169 220 263 302
#     4  10  19  31  51  77 108 143 174 211 260 317
#     4   9  17  31  48  69 102 141 174 203 250 310
#     4  10  19  34  53  71 100 139 179 212 249 307
#
# _framework density 17.613790000000002
#
# number of rings (size 3 to 8) (size 9 to 14) (size 15 to 20)
#    0.000    2.167    1.667    2.000    0.000    4.333 
#    0.000    0.000    0.000    1.000    0.000    2.333 
#    0.000    0.000    0.000    0.000    0.000    0.000 
#
# Total GULP energy -595122.194730 kJ/mol
# GULP energy per Si atom -12398.379057 kJ/mol
# Density = 1.757370 g / cm^3
# Si number density = 17.613790 Si / 1000 Ang^3
#
#
#
# Elastic Constant Matrix: (Units=GPa)
#
#
# Indices 1 2 3 4 5 6 
#
# 1 76.5878 38.6678 65.5966 0.0000 0.0000 0.0000
# 2 38.6678 54.2262 51.3606 0.0000 0.0000 0.0000
# 3 65.5966 51.3606 151.2825 0.0000 0.0000 0.0000
# 4 0.0000 0.0000 0.0000 21.3996 0.0000 0.0000
# 5 0.0000 0.0000 0.0000 0.0000 35.4768 0.0000
# 6 0.0000 0.0000 0.0000 0.0000 0.0000 25.8161
#
#
#
# Elastic Compliance Matrix: (Units=1/GPa)
#
#
# Indices 1 2 3 4 5 6 
#
# 1 0.024488 -0.010915 -0.006913 0.000000 0.000000 0.000000
# 2 -0.010915 0.032047 -0.006147 0.000000 0.000000 0.000000
# 3 -0.006913 -0.006147 0.011694 0.000000 0.000000 0.000000
# 4 0.000000 0.000000 0.000000 0.046730 0.000000 0.000000
# 5 0.000000 0.000000 0.000000 0.000000 0.028187 0.000000
# 6 0.000000 0.000000 0.000000 0.000000 0.000000 0.038736
#
#
# Mechanical properties :
#
#
# Convention : Reuss Voigt Hill
#
# Bulk Modulus (GPa) = 49.30917 65.92737 57.61827
# Shear Modulus (GPa) = 21.13347 24.96992 23.05170
#
# Velocity S-wave (km/s) = 3.46761 3.76923 3.62156
# Velocity P-wave (km/s) = 6.63987 7.51355 7.09018
#
# Compressibility (1/GPa) = 0.02028020
#
# Stress axis : x y z
#
# Youngs Moduli (GPa) = 40.83613 31.20432 85.51077
#
# Poissons Ratio (x) = 0.34059 0.59110
# Poissons Ratio (y) = 0.44572 0.52565
# Poissons Ratio (z) = 0.28228 0.19182
#
# Static dielectric constant tensor:
#      x y z
#    x 3.330100 0.000000 0.000000 
#    y 0.000000 3.082970 0.000000 
#    z 0.000000 0.000000 3.212610 
# 
# 
# High freq. dielectric constant tensor:
#      x y z
#    x 1.686810 0.000000 0.000000 
#    y 0.000000 1.649490 0.000000 
#    z 0.000000 0.000000 1.676550 
# 
# From -- ./inp_files/36938.got.cif
#   From: 2010.03.12/outbox.cif.g09.slc.cpg/sg64_19_cif.got.tgz:36938.got - 2010.04.10 20:19:32.
