data_PCOD8262227
_publ_section_title
;
Structure prediction by ZEFSAII (Michael W. Deem and Ramdas Pophale) SiO2 
 PCOD8262227
Probable space group: C M C A
;
_chemical_formula_sum "Si O2"
_cell_formula_units_Z 96
_cell_length_a 9.082521
_cell_length_b 20.629366
_cell_length_c 28.245512
_cell_angle_alpha 90.000000
_cell_angle_beta 90.000000
_cell_angle_gamma 90.000000
_cell_volume 5292.266958
_symmetry_space_group_name_H-M "C M C A"
_symmetry_group_IT_number 64
_symmetry_cell_setting 'orthorhombic'
loop_
_space_group_symop_operation_xyz
x,y,z
-x,1/2-y,1/2+z
x,-y,-z
-x,1/2+y,1/2-z
-x,-y,-z
x,1/2+y,1/2-z
-x,y,z
x,1/2-y,1/2+z
1/2+x,1/2+y,z
1/2-x,-y,1/2+z
1/2+x,1/2-y,-z
1/2-x,y,1/2-z
1/2-x,1/2-y,-z
1/2+x,y,1/2-z
1/2-x,1/2+y,z
1/2+x,-y,1/2+z
loop_
_atom_site_type_symbol
_atom_site_label
_atom_site_fract_x
_atom_site_fract_y
_atom_site_fract_z
Si Si1 0.826088 0.865731 0.450672
Si Si2 0.825828 0.618232 0.056882
Si Si3 0.325838 0.490714 0.390155
Si Si4 0.671215 0.801109 0.296709
Si Si5 0.674103 0.249114 0.603224
Si Si6 0.173494 0.450982 0.297701
O O1 0.764571 0.876906 0.503591
O O2 0.780898 0.927457 0.419634
O O3 0.750420 0.802068 0.430760
O O4 0.000000 0.854718 0.450423
O O5 0.767046 0.552897 0.081136
O O6 0.773630 0.679722 0.087591
O O7 0.000000 0.614991 0.054557
O O8 0.500000 0.493579 0.380802
O O9 0.241195 0.491522 0.340601
O O10 0.500000 0.792755 0.287646
O O11 0.750000 0.773366 0.250000
O O12 0.724305 0.760891 0.342440
O O13 0.713598 0.875753 0.305578
O O14 0.500000 0.239325 0.598292
O O15 0.250000 0.476598 0.250000
O O16 0.000000 0.462802 0.294517
#
# Coordination Sequence:
#
# PCOD8262227 Si02
#       6
#    16  16  16  16  16  16
#     4  10  19  32  53  78 102 135 179 218 251 298
#     4   9  19  34  52  74 105 142 175 209 254 308
#     4  10  19  33  53  77 105 138 175 213 254 301
#     4   9  18  31  50  74  98 126 163 207 252 300
#     4  10  19  34  53  75 104 136 170 212 261 307
#     4  10  19  33  53  78 104 131 170 213 258 306
#
# _framework density 18.139675
#
# number of rings (size 3 to 8) (size 9 to 14) (size 15 to 20)
#    0.000    2.333    1.667    1.500    0.000    3.333 
#    0.000    2.500    0.000    4.000    0.000    0.000 
#    0.000    0.000    0.000    0.000    0.000    0.000 
#
# Total GULP energy -595294.360464 kJ/mol
# GULP energy per Si atom -12401.965843 kJ/mol
# Density = 1.809839 g / cm^3
# Si number density = 18.139675 Si / 1000 Ang^3
#
#
#
# Elastic Constant Matrix: (Units=GPa)
#
#
# Indices 1 2 3 4 5 6 
#
# 1 33.1448 18.4650 33.9104 0.0000 0.0000 0.0000
# 2 18.4650 78.2849 39.1413 0.0000 0.0000 0.0000
# 3 33.9104 39.1413 153.5743 0.0000 0.0000 0.0000
# 4 0.0000 0.0000 0.0000 17.2873 0.0000 0.0000
# 5 0.0000 0.0000 0.0000 0.0000 29.3217 0.0000
# 6 0.0000 0.0000 0.0000 0.0000 0.0000 17.0961
#
#
#
# Elastic Compliance Matrix: (Units=1/GPa)
#
#
# Indices 1 2 3 4 5 6 
#
# 1 0.041246 -0.005931 -0.007596 0.000000 0.000000 0.000000
# 2 -0.005931 0.015492 -0.002639 0.000000 0.000000 0.000000
# 3 -0.007596 -0.002639 0.008861 0.000000 0.000000 0.000000
# 4 0.000000 0.000000 0.000000 0.057846 0.000000 0.000000
# 5 0.000000 0.000000 0.000000 0.000000 0.034104 0.000000
# 6 0.000000 0.000000 0.000000 0.000000 0.000000 0.058493
#
#
# Mechanical properties :
#
#
# Convention : Reuss Voigt Hill
#
# Bulk Modulus (GPa) = 30.05863 49.78193 39.92028
# Shear Modulus (GPa) = 19.27055 24.30684 21.78870
#
# Velocity S-wave (km/s) = 3.26290 3.66455 3.46954
# Velocity P-wave (km/s) = 5.54995 6.73858 6.17294
#
# Compressibility (1/GPa) = 0.03326831
#
# Stress axis : x y z
#
# Youngs Moduli (GPa) = 24.24476 64.54880 112.85018
#
# Poissons Ratio (x) = 0.38283 0.85720
# Poissons Ratio (y) = 0.14379 0.29780
# Poissons Ratio (z) = 0.18416 0.17034
#
# Static dielectric constant tensor:
#      x y z
#    x 3.096180 0.000000 0.000000 
#    y 0.000000 3.337790 0.000000 
#    z 0.000000 0.000000 3.594810 
# 
# 
# High freq. dielectric constant tensor:
#      x y z
#    x 1.680270 0.000000 0.000000 
#    y 0.000000 1.689390 0.000000 
#    z 0.000000 0.000000 1.720960 
# 
# From -- ./inp_files/43067.got.cif
#   From: 2010.03.12/outbox.cif.g09.slc.cpg/sg64_22_cif.got.tgz:43067.got - 2010.04.10 20:19:32.
