data_PCOD8262283
_publ_section_title
;
Structure prediction by ZEFSAII (Michael W. Deem and Ramdas Pophale) SiO2 
 PCOD8262283
Probable space group: C M C A
;
_chemical_formula_sum "Si O2"
_cell_formula_units_Z 112
_cell_length_a 13.863299
_cell_length_b 13.888372
_cell_length_c 28.072248
_cell_angle_alpha 90.000000
_cell_angle_beta 90.000000
_cell_angle_gamma 90.000000
_cell_volume 5404.992835
_symmetry_space_group_name_H-M "C M C A"
_symmetry_group_IT_number 64
_symmetry_cell_setting 'orthorhombic'
loop_
_space_group_symop_operation_xyz
x,y,z
-x,1/2-y,1/2+z
x,-y,-z
-x,1/2+y,1/2-z
-x,-y,-z
x,1/2+y,1/2-z
-x,y,z
x,1/2-y,1/2+z
1/2+x,1/2+y,z
1/2-x,-y,1/2+z
1/2+x,1/2-y,-z
1/2-x,y,1/2-z
1/2-x,1/2-y,-z
1/2+x,y,1/2-z
1/2-x,1/2+y,z
1/2+x,-y,1/2+z
loop_
_atom_site_type_symbol
_atom_site_label
_atom_site_fract_x
_atom_site_fract_y
_atom_site_fract_z
Si Si1 0.390357 0.723423 0.990646
Si Si2 0.718174 0.897349 0.870909
Si Si3 0.769838 0.715229 0.922808
Si Si4 0.388511 0.164429 0.836333
Si Si5 0.107901 0.559047 0.043380
Si Si6 0.110309 0.115928 0.186343
Si Si7 0.113104 0.472289 0.784837
O O1 0.500000 0.679609 0.990534
O O2 0.313192 0.665081 0.956597
O O3 0.393144 0.830166 0.970056
O O4 0.348041 0.727651 0.044226
O O5 0.712609 0.789269 0.889673
O O6 0.674071 0.966754 0.911272
O O7 0.828097 0.926843 0.857767
O O8 0.654007 0.898870 0.823615
O O9 0.827594 0.647633 0.885461
O O10 0.500000 0.151681 0.850565
O O11 0.372325 0.268444 0.811439
O O12 0.357370 0.082313 0.798180
O O13 0.000000 0.521988 0.054584
O O14 0.153759 0.500000 0.000000
O O15 0.151293 0.061782 0.233198
O O16 0.000000 0.090003 0.176459
O O17 0.000000 0.458180 0.784432
#
# Coordination Sequence:
#
# PCOD8262283 Si02
#       7
#    16  16  16  16  16  16  16
#     4   9  17  30  50  75 108 146 188 228 275 330
#     4  10  19  33  51  77 110 142 180 222 283 331
#     4   9  18  31  49  78 110 146 183 228 275 335
#     4   9  18  33  57  84 108 140 186 232 280 339
#     4   9  18  30  49  80 112 139 172 229 288 327
#     4   9  19  37  57  79 111 146 183 228 278 335
#     4  10  20  34  57  86 111 141 186 238 291 335
#
# _framework density 20.721582000000001
#
# number of rings (size 3 to 8) (size 9 to 14) (size 15 to 20)
#    0.000    2.714    0.000    1.286    2.000    1.143 
#    0.000    5.714    0.000    1.286    0.000    0.000 
#    0.000    0.000    0.000    0.000    0.000    0.000 
#
# Total GULP energy -693750.510817 kJ/mol
# GULP energy per Si atom -12388.401979 kJ/mol
# Density = 2.067442 g / cm^3
# Si number density = 20.721582 Si / 1000 Ang^3
#
#
#
# Elastic Constant Matrix: (Units=GPa)
#
#
# Indices 1 2 3 4 5 6 
#
# 1 68.6555 30.8222 52.4337 0.0000 0.0000 0.0000
# 2 30.8222 48.3717 33.1509 0.0000 0.0000 0.0000
# 3 52.4337 33.1509 124.4717 0.0000 0.0000 0.0000
# 4 0.0000 0.0000 0.0000 25.8141 0.0000 0.0000
# 5 0.0000 0.0000 0.0000 0.0000 41.1354 0.0000
# 6 0.0000 0.0000 0.0000 0.0000 0.0000 18.6593
#
#
#
# Elastic Compliance Matrix: (Units=1/GPa)
#
#
# Indices 1 2 3 4 5 6 
#
# 1 0.025393 -0.010825 -0.007814 0.000000 0.000000 0.000000
# 2 -0.010825 0.029904 -0.003404 0.000000 0.000000 0.000000
# 3 -0.007814 -0.003404 0.012232 0.000000 0.000000 0.000000
# 4 0.000000 0.000000 0.000000 0.038739 0.000000 0.000000
# 5 0.000000 0.000000 0.000000 0.000000 0.024310 0.000000
# 6 0.000000 0.000000 0.000000 0.000000 0.000000 0.053593
#
#
# Mechanical properties :
#
#
# Convention : Reuss Voigt Hill
#
# Bulk Modulus (GPa) = 42.65709 52.70137 47.67923
# Shear Modulus (GPa) = 21.18012 25.46124 23.32068
#
# Velocity S-wave (km/s) = 3.20054 3.50913 3.35838
# Velocity P-wave (km/s) = 5.85564 6.47356 6.17233
#
# Compressibility (1/GPa) = 0.02344276
#
# Stress axis : x y z
#
# Youngs Moduli (GPa) = 39.38135 33.44020 81.75200
#
# Poissons Ratio (x) = 0.36200 0.63878
# Poissons Ratio (y) = 0.42631 0.27831
# Poissons Ratio (z) = 0.30771 0.11384
#
# Static dielectric constant tensor:
#      x y z
#    x 4.212560 0.000000 0.000000 
#    y 0.000000 3.513720 0.000000 
#    z 0.000000 0.000000 4.077340 
# 
# 
# High freq. dielectric constant tensor:
#      x y z
#    x 1.820750 0.000000 0.000000 
#    y 0.000000 1.768260 0.000000 
#    z 0.000000 0.000000 1.817780 
# 
# From -- ./inp_files/50077.got.cif
#   From: 2010.03.12/outbox.cif.g09.slc.cpg/sg64_26_cif.got.tgz:50077.got - 2010.04.10 20:19:32.
