data_PCOD8262882
_publ_section_title
;
Structure prediction by ZEFSAII (Michael W. Deem and Ramdas Pophale) SiO2 
 PCOD8262882
Probable space group: C M C A
;
_chemical_formula_sum "Si O2"
_cell_formula_units_Z 72
_cell_length_a 10.195983
_cell_length_b 14.900943
_cell_length_c 23.611803
_cell_angle_alpha 90.000000
_cell_angle_beta 90.000000
_cell_angle_gamma 90.000000
_cell_volume 3587.335599
_symmetry_space_group_name_H-M "C M C A"
_symmetry_group_IT_number 64
_symmetry_cell_setting 'orthorhombic'
loop_
_space_group_symop_operation_xyz
x,y,z
-x,1/2-y,1/2+z
x,-y,-z
-x,1/2+y,1/2-z
-x,-y,-z
x,1/2+y,1/2-z
-x,y,z
x,1/2-y,1/2+z
1/2+x,1/2+y,z
1/2-x,-y,1/2+z
1/2+x,1/2-y,-z
1/2-x,y,1/2-z
1/2-x,1/2-y,-z
1/2+x,y,1/2-z
1/2-x,1/2+y,z
1/2+x,-y,1/2+z
loop_
_atom_site_type_symbol
_atom_site_label
_atom_site_fract_x
_atom_site_fract_y
_atom_site_fract_z
Si Si1 0.853530 0.852469 0.849722
Si Si2 0.353047 0.502058 0.374810
Si Si3 0.641847 0.317247 0.980219
Si Si4 0.348789 0.663669 0.701381
Si Si5 0.741918 0.000000 0.000000
O O1 0.855875 0.819429 0.913397
O O2 0.811618 0.766111 0.813354
O O3 0.000000 0.886386 0.832415
O O4 0.748638 0.932276 0.842548
O O5 0.500000 0.533220 0.358483
O O6 0.327585 0.400865 0.353021
O O7 0.344194 0.506570 0.443030
O O8 0.500000 0.283137 0.001698
O O9 0.750000 0.250000 0.000000
O O10 0.664771 0.414690 0.006639
O O11 0.500000 0.657606 0.722041
O O12 0.250000 0.630575 0.750000
#
# Coordination Sequence:
#
# PCOD8262882 Si02
#       5
#    16  16  16  16   8
#     4   9  20  38  56  77 109 145 181 225 276 328
#     4  10  21  37  59  87 116 148 189 234 281 335
#     4  10  20  34  54  80 111 147 184 224 271 325
#     4  10  22  40  59  81 111 147 188 235 285 337
#     4  10  20  36  58  84 118 154 186 226 280 342
#
# _framework density 20.070606000000002
#
# number of rings (size 3 to 8) (size 9 to 14) (size 15 to 20)
#    0.000    2.222    0.000    2.000    0.000    9.778 
#    0.000    6.667    0.000    0.000    0.000    0.000 
#    0.000    0.000    0.000    0.000    0.000    0.000 
#
# Total GULP energy -446296.957185 kJ/mol
# GULP energy per Si atom -12397.137700 kJ/mol
# Density = 2.002492 g / cm^3
# Si number density = 20.070606 Si / 1000 Ang^3
#
#
#
# Elastic Constant Matrix: (Units=GPa)
#
#
# Indices 1 2 3 4 5 6 
#
# 1 152.1981 77.0446 35.1509 0.0000 0.0000 0.0000
# 2 77.0446 112.0351 38.3831 0.0000 0.0000 0.0000
# 3 35.1509 38.3831 42.7188 0.0000 0.0000 0.0000
# 4 0.0000 0.0000 0.0000 29.6100 0.0000 0.0000
# 5 0.0000 0.0000 0.0000 0.0000 22.4089 0.0000
# 6 0.0000 0.0000 0.0000 0.0000 0.0000 30.4486
#
#
#
# Elastic Compliance Matrix: (Units=1/GPa)
#
#
# Indices 1 2 3 4 5 6 
#
# 1 0.010349 -0.006067 -0.003065 0.000000 0.000000 0.000000
# 2 -0.006067 0.016452 -0.009790 0.000000 0.000000 0.000000
# 3 -0.003065 -0.009790 0.034727 0.000000 0.000000 0.000000
# 4 0.000000 0.000000 0.000000 0.033772 0.000000 0.000000
# 5 0.000000 0.000000 0.000000 0.000000 0.044625 0.000000
# 6 0.000000 0.000000 0.000000 0.000000 0.000000 0.032842
#
#
# Mechanical properties :
#
#
# Convention : Reuss Voigt Hill
#
# Bulk Modulus (GPa) = 42.22079 67.56769 54.89424
# Shear Modulus (GPa) = 22.88257 26.91838 24.90048
#
# Velocity S-wave (km/s) = 3.38021 3.66619 3.52610
# Velocity P-wave (km/s) = 6.02629 7.18744 6.63233
#
# Compressibility (1/GPa) = 0.02368501
#
# Stress axis : x y z
#
# Youngs Moduli (GPa) = 96.62329 60.78227 28.79611
#
# Poissons Ratio (x) = 0.36878 0.08825
# Poissons Ratio (y) = 0.58624 0.28191
# Poissons Ratio (z) = 0.29610 0.59506
#
# Static dielectric constant tensor:
#      x y z
#    x 3.953170 0.000000 0.000000 
#    y 0.000000 3.700520 0.000000 
#    z 0.000000 0.000000 3.502070 
# 
# 
# High freq. dielectric constant tensor:
#      x y z
#    x 1.792570 0.000000 0.000000 
#    y 0.000000 1.786990 0.000000 
#    z 0.000000 0.000000 1.765440 
# 
# From -- ./inp_files/47596.got.cif
#   From: 2010.03.12/outbox.cif.g09.slc.cpg/sg64_24_cif.got.tgz:47596.got - 2010.04.10 20:19:32.
