data_PCOD8262172
_publ_section_title
;
Structure prediction by ZEFSAII (Michael W. Deem and Ramdas Pophale) SiO2 
 PCOD8262172
Probable space group: C M C A
;
_chemical_formula_sum "Si O2"
_cell_formula_units_Z 96
_cell_length_a 8.627903
_cell_length_b 27.005547
_cell_length_c 23.897284
_cell_angle_alpha 90.000000
_cell_angle_beta 90.000000
_cell_angle_gamma 90.000000
_cell_volume 5568.096804
_symmetry_space_group_name_H-M "C M C A"
_symmetry_group_IT_number 64
_symmetry_cell_setting 'orthorhombic'
loop_
_space_group_symop_operation_xyz
x,y,z
-x,1/2-y,1/2+z
x,-y,-z
-x,1/2+y,1/2-z
-x,-y,-z
x,1/2+y,1/2-z
-x,y,z
x,1/2-y,1/2+z
1/2+x,1/2+y,z
1/2-x,-y,1/2+z
1/2+x,1/2-y,-z
1/2-x,y,1/2-z
1/2-x,1/2-y,-z
1/2+x,y,1/2-z
1/2-x,1/2+y,z
1/2+x,-y,1/2+z
loop_
_atom_site_type_symbol
_atom_site_label
_atom_site_fract_x
_atom_site_fract_y
_atom_site_fract_z
Si Si1 0.818847 0.773290 0.581267
Si Si2 0.683457 0.019019 0.417893
Si Si3 0.183636 0.187504 0.191334
Si Si4 0.679905 0.673215 0.980007
Si Si5 0.818612 0.429550 0.023438
Si Si6 0.182578 0.074488 0.191969
O O1 0.760548 0.778486 0.644252
O O2 0.727889 0.812400 0.542897
O O3 0.779969 0.717630 0.562132
O O4 0.000000 0.784707 0.576001
O O5 0.500000 0.011558 0.418316
O O6 0.728430 0.057182 0.466650
O O7 0.743254 0.040883 0.359018
O O8 0.766036 0.966277 0.426979
O O9 0.250000 0.207127 0.250000
O O10 0.237637 0.130844 0.181892
O O11 0.000000 0.193378 0.189801
O O12 0.500000 0.659545 0.979779
O O13 0.776758 0.626110 0.958878
O O14 0.000000 0.435469 0.012970
O O15 0.250000 0.053431 0.250000
O O16 0.000000 0.072404 0.195941
#
# Coordination Sequence:
#
# PCOD8262172 Si02
#       6
#    16  16  16  16  16  16
#     4  10  20  33  51  75 100 128 164 204 246 293
#     4  10  19  33  51  72 100 132 163 198 245 294
#     4  10  19  32  50  73 102 133 165 200 242 291
#     4  10  20  34  51  72 100 132 163 199 246 296
#     4  11  21  32  49  74 100 129 165 203 243 287
#     4   9  19  32  49  72  97 128 161 195 237 285
#
# _framework density 17.24108
#
# number of rings (size 3 to 8) (size 9 to 14) (size 15 to 20)
#    0.000    2.000    0.000    5.500    0.000    5.333 
#    0.000    0.000    0.000    1.000    0.000    4.667 
#    0.000    0.000    0.000    0.000    0.000    0.000 
#
# Total GULP energy -595392.187854 kJ/mol
# GULP energy per Si atom -12404.003914 kJ/mol
# Density = 1.720184 g / cm^3
# Si number density = 17.241080 Si / 1000 Ang^3
#
#
#
# Elastic Constant Matrix: (Units=GPa)
#
#
# Indices 1 2 3 4 5 6 
#
# 1 39.5102 26.7672 17.8550 0.0000 0.0000 0.0000
# 2 26.7672 93.1688 49.1936 0.0000 0.0000 0.0000
# 3 17.8550 49.1936 127.9470 0.0000 0.0000 0.0000
# 4 0.0000 0.0000 0.0000 22.5610 0.0000 0.0000
# 5 0.0000 0.0000 0.0000 0.0000 30.3785 0.0000
# 6 0.0000 0.0000 0.0000 0.0000 0.0000 26.3156
#
#
#
# Elastic Compliance Matrix: (Units=1/GPa)
#
#
# Indices 1 2 3 4 5 6 
#
# 1 0.031562 -0.008459 -0.001152 0.000000 0.000000 0.000000
# 2 -0.008459 0.015735 -0.004869 0.000000 0.000000 0.000000
# 3 -0.001152 -0.004869 0.009849 0.000000 0.000000 0.000000
# 4 0.000000 0.000000 0.000000 0.044324 0.000000 0.000000
# 5 0.000000 0.000000 0.000000 0.000000 0.032918 0.000000
# 6 0.000000 0.000000 0.000000 0.000000 0.000000 0.038000
#
#
# Mechanical properties :
#
#
# Convention : Reuss Voigt Hill
#
# Bulk Modulus (GPa) = 35.48142 49.80638 42.64390
# Shear Modulus (GPa) = 23.72562 26.97170 25.34866
#
# Velocity S-wave (km/s) = 3.71362 3.95952 3.83854
# Velocity P-wave (km/s) = 6.24598 7.06078 6.66584
#
# Compressibility (1/GPa) = 0.02818377
#
# Stress axis : x y z
#
# Youngs Moduli (GPa) = 31.68415 63.55459 101.53722
#
# Poissons Ratio (x) = 0.53763 0.11696
# Poissons Ratio (y) = 0.26803 0.49440
# Poissons Ratio (z) = 0.03650 0.30946
#
# Static dielectric constant tensor:
#      x y z
#    x 3.251190 0.000000 0.000000 
#    y 0.000000 3.207660 0.000000 
#    z 0.000000 0.000000 3.231530 
# 
# 
# High freq. dielectric constant tensor:
#      x y z
#    x 1.679640 0.000000 0.000000 
#    y 0.000000 1.654030 0.000000 
#    z 0.000000 0.000000 1.655930 
# 
# From -- ./inp_files/43201.got.cif
#   From: 2010.03.12/outbox.cif.g09.slc.cpg/sg64_22_cif.got.tgz:43201.got - 2010.04.10 20:19:32.
