data_PCOD8262945
_publ_section_title
;
Structure prediction by ZEFSAII (Michael W. Deem and Ramdas Pophale) SiO2 
 PCOD8262945
Probable space group: C M C A
;
_chemical_formula_sum "Si O2"
_cell_formula_units_Z 64
_cell_length_a 19.867687
_cell_length_b 12.911152
_cell_length_c 11.487833
_cell_angle_alpha 90.000000
_cell_angle_beta 90.000000
_cell_angle_gamma 90.000000
_cell_volume 2946.798343
_symmetry_space_group_name_H-M "C M C A"
_symmetry_group_IT_number 64
_symmetry_cell_setting 'orthorhombic'
loop_
_space_group_symop_operation_xyz
x,y,z
-x,1/2-y,1/2+z
x,-y,-z
-x,1/2+y,1/2-z
-x,-y,-z
x,1/2+y,1/2-z
-x,y,z
x,1/2-y,1/2+z
1/2+x,1/2+y,z
1/2-x,-y,1/2+z
1/2+x,1/2-y,-z
1/2-x,y,1/2-z
1/2-x,1/2-y,-z
1/2+x,y,1/2-z
1/2-x,1/2+y,z
1/2+x,-y,1/2+z
loop_
_atom_site_type_symbol
_atom_site_label
_atom_site_fract_x
_atom_site_fract_y
_atom_site_fract_z
Si Si1 0.153680 0.265375 0.514631
Si Si2 0.819451 0.101734 0.696522
Si Si3 0.732274 0.605227 0.383586
Si Si4 0.075052 0.579426 0.603169
O O1 0.144114 0.196584 0.630428
O O2 0.203440 0.364668 0.535459
O O3 0.177616 0.192067 0.410249
O O4 0.084880 0.310089 0.461631
O O5 0.750000 0.145654 0.750000
O O6 0.870346 0.058666 0.794802
O O7 0.798111 0.012196 0.602569
O O8 0.750000 0.613481 0.250000
O O9 0.085200 0.500000 0.500000
O O10 0.000000 0.574308 0.656923
#
# Coordination Sequence:
#
# PCOD8262945 Si02
#       4
#    16  16  16  16
#     4  11  21  37  60  89 119 157 205 251 303 361
#     4  11  22  38  62  92 123 158 203 254 306 362
#     4  10  20  34  59  93 125 155 194 252 308 360
#     4  11  25  42  60  86 123 164 205 253 311 374
#
# _framework density 21.718485999999999
#
# number of rings (size 3 to 8) (size 9 to 14) (size 15 to 20)
#    0.000    1.250    0.000    9.000    0.000    3.000 
#    0.000    3.750    0.000    3.000    0.000    0.000 
#    0.000    0.000    0.000    0.000    0.000    0.000 
#
# Total GULP energy -396476.464137 kJ/mol
# GULP energy per Si atom -12389.889504 kJ/mol
# Density = 2.166905 g / cm^3
# Si number density = 21.718486 Si / 1000 Ang^3
#
#
#
# Elastic Constant Matrix: (Units=GPa)
#
#
# Indices 1 2 3 4 5 6 
#
# 1 93.6338 26.8043 26.8502 0.0000 0.0000 0.0000
# 2 26.8043 95.8742 10.9731 0.0000 0.0000 0.0000
# 3 26.8502 10.9731 55.9836 0.0000 0.0000 0.0000
# 4 0.0000 0.0000 0.0000 43.1796 0.0000 0.0000
# 5 0.0000 0.0000 0.0000 0.0000 23.6142 0.0000
# 6 0.0000 0.0000 0.0000 0.0000 0.0000 -23.6029
#
#
#
# Elastic Compliance Matrix: (Units=1/GPa)
#
#
# Indices 1 2 3 4 5 6 
#
# 1 0.013192 -0.003032 -0.005733 0.000000 0.000000 0.000000
# 2 -0.003032 0.011367 -0.000774 0.000000 0.000000 0.000000
# 3 -0.005733 -0.000774 0.020763 0.000000 0.000000 0.000000
# 4 0.000000 0.000000 0.000000 0.023159 0.000000 0.000000
# 5 0.000000 0.000000 0.000000 0.000000 0.042347 0.000000
# 6 0.000000 0.000000 0.000000 0.000000 0.000000 -0.042368
#
#
# Mechanical properties :
#
#
# Convention : Reuss Voigt Hill
#
# Bulk Modulus (GPa) = 38.10237 41.63855 39.87046
# Shear Modulus (GPa) = 51.92883 20.69576 36.31230
#
# Velocity S-wave (km/s) = 4.89509 3.09027 4.09339
# Velocity P-wave (km/s) = 7.03783 5.65213 6.38270
#
# Compressibility (1/GPa) = 0.02624509
#
# Stress axis : x y z
#
# Youngs Moduli (GPa) = 75.80506 87.97724 48.16158
#
# Poissons Ratio (x) = 0.26675 0.27609
# Poissons Ratio (y) = 0.22984 0.03726
# Poissons Ratio (z) = 0.43456 0.06807
#
# Static dielectric constant tensor:
#      x y z
#    x 3.675050 0.000000 0.000000 
#    y 0.000000 5.042220 0.000000 
#    z 0.000000 0.000000 3.947810 
# 
# 
# High freq. dielectric constant tensor:
#      x y z
#    x 1.805710 0.000000 0.000000 
#    y 0.000000 1.870540 0.000000 
#    z 0.000000 0.000000 1.874540 
# 
# From -- ./inp_files/16774.got.cif
#   From: 2010.03.12/outbox.cif.g09.slc.cpg/sg64_9_cif.got.tgz:16774.got - 2010.04.10 20:19:32.
