data_PCOD8262432
_publ_section_title
;
Structure prediction by ZEFSAII (Michael W. Deem and Ramdas Pophale) SiO2 
 PCOD8262432
Probable space group: C M C A
;
_chemical_formula_sum "Si O2"
_cell_formula_units_Z 96
_cell_length_a 9.267331
_cell_length_b 27.146343
_cell_length_c 19.254417
_cell_angle_alpha 90.000000
_cell_angle_beta 90.000000
_cell_angle_gamma 90.000000
_cell_volume 4843.913514
_symmetry_space_group_name_H-M "C M C A"
_symmetry_group_IT_number 64
_symmetry_cell_setting 'orthorhombic'
loop_
_space_group_symop_operation_xyz
x,y,z
-x,1/2-y,1/2+z
x,-y,-z
-x,1/2+y,1/2-z
-x,-y,-z
x,1/2+y,1/2-z
-x,y,z
x,1/2-y,1/2+z
1/2+x,1/2+y,z
1/2-x,-y,1/2+z
1/2+x,1/2-y,-z
1/2-x,y,1/2-z
1/2-x,1/2-y,-z
1/2+x,y,1/2-z
1/2-x,1/2+y,z
1/2+x,-y,1/2+z
loop_
_atom_site_type_symbol
_atom_site_label
_atom_site_fract_x
_atom_site_fract_y
_atom_site_fract_z
Si Si1 0.167434 0.545314 0.957519
Si Si2 0.835506 0.498052 0.814596
Si Si3 0.834192 0.200831 0.410393
Si Si4 0.162931 0.388116 0.814476
Si Si5 0.328057 0.217977 0.824200
Si Si6 0.670568 0.153698 0.951993
O O1 0.189508 0.535083 0.876913
O O2 0.238293 0.599537 0.968556
O O3 0.000000 0.547040 0.979726
O O4 0.241550 0.500000 0.000000
O O5 0.750000 0.520255 0.750000
O O6 0.781017 0.442886 0.834247
O O7 0.000000 0.495911 0.792104
O O8 0.821862 0.145476 0.381742
O O9 0.729040 0.234253 0.364862
O O10 0.780382 0.194578 0.490583
O O11 0.000000 0.220304 0.405721
O O12 0.250000 0.365327 0.750000
O O13 0.000000 0.390211 0.788364
O O14 0.500000 0.223081 0.812441
O O15 0.250000 0.211371 0.750000
O O16 0.288301 0.171958 0.874438
O O17 0.500000 0.148383 0.957561
#
# Coordination Sequence:
#
# PCOD8262432 Si02
#       6
#    16  16  16  16  16  16
#     4   9  16  29  52  79 104 133 172 213 253 302
#     4   9  17  29  47  72 101 133 169 209 254 304
#     4  10  19  34  56  79 104 134 172 217 265 313
#     4   9  17  28  45  72 103 133 167 211 259 305
#     4  11  23  38  55  77 107 140 176 215 257 307
#     4   9  19  34  53  78 106 136 171 215 262 309
#
# _framework density 19.818686
#
# number of rings (size 3 to 8) (size 9 to 14) (size 15 to 20)
#    0.000    2.500    0.000    2.500    0.000    6.667 
#    0.000    0.833    0.000    2.500    0.000    0.000 
#    0.000    0.000    0.000    0.000    0.000    0.000 
#
# Total GULP energy -594814.983344 kJ/mol
# GULP energy per Si atom -12391.978820 kJ/mol
# Density = 1.977358 g / cm^3
# Si number density = 19.818686 Si / 1000 Ang^3
#
#
#
# Elastic Constant Matrix: (Units=GPa)
#
#
# Indices 1 2 3 4 5 6 
#
# 1 48.8146 24.6920 40.9089 0.0000 0.0000 0.0000
# 2 24.6920 102.6420 48.7191 0.0000 0.0000 0.0000
# 3 40.9089 48.7191 115.8037 0.0000 0.0000 0.0000
# 4 0.0000 0.0000 0.0000 -530.3262 0.0000 0.0000
# 5 0.0000 0.0000 0.0000 0.0000 23.4844 0.0000
# 6 0.0000 0.0000 0.0000 0.0000 0.0000 12.6660
#
#
#
# Elastic Compliance Matrix: (Units=1/GPa)
#
#
# Indices 1 2 3 4 5 6 
#
# 1 0.029690 -0.002704 -0.009351 0.000000 0.000000 0.000000
# 2 -0.002704 0.012420 -0.004270 0.000000 0.000000 0.000000
# 3 -0.009351 -0.004270 0.013735 0.000000 0.000000 0.000000
# 4 0.000000 0.000000 0.000000 -0.001886 0.000000 0.000000
# 5 0.000000 0.000000 0.000000 0.000000 0.042582 0.000000
# 6 0.000000 0.000000 0.000000 0.000000 0.000000 0.078952
#
#
# Mechanical properties :
#
#
# Convention : Reuss Voigt Hill
#
# Bulk Modulus (GPa) = 43.11198 55.10003 49.10600
# Shear Modulus (GPa) = 23.16181 -88.63915 -32.73867
#
# Velocity S-wave (km/s) = 3.42231 -6.69493 -4.06878
# Velocity P-wave (km/s) = 6.11692 5.64805 1.66077
#
# Compressibility (1/GPa) = 0.02319541
#
# Stress axis : x y z
#
# Youngs Moduli (GPa) = 33.68164 80.51685 72.80748
#
# Poissons Ratio (x) = 0.21772 0.68080
# Poissons Ratio (y) = 0.09108 0.31087
# Poissons Ratio (z) = 0.31495 0.34379
#
# Static dielectric constant tensor:
#      x y z
#    x 3.337950 0.000000 0.000000 
#    y 0.000000 3.741320 0.000000 
#    z 0.000000 0.000000 3.782870 
# 
# 
# High freq. dielectric constant tensor:
#      x y z
#    x 1.724170 0.000000 0.000000 
#    y 0.000000 1.776560 0.000000 
#    z 0.000000 0.000000 1.783880 
# 
# From -- ./inp_files/31168.got.cif
#   From: 2010.03.12/outbox.cif.g09.slc.cpg/sg64_16_cif.got.tgz:31168.got - 2010.04.10 20:19:32.
