data_PCOD8262634
_publ_section_title
;
Structure prediction by ZEFSAII (Michael W. Deem and Ramdas Pophale) SiO2 
 PCOD8262634
Probable space group: C M C A
;
_chemical_formula_sum "Si O2"
_cell_formula_units_Z 88
_cell_length_a 19.130216
_cell_length_b 14.276631
_cell_length_c 13.980484
_cell_angle_alpha 90.000000
_cell_angle_beta 90.000000
_cell_angle_gamma 90.000000
_cell_volume 3818.280374
_symmetry_space_group_name_H-M "C M C A"
_symmetry_group_IT_number 64
_symmetry_cell_setting 'orthorhombic'
loop_
_space_group_symop_operation_xyz
x,y,z
-x,1/2-y,1/2+z
x,-y,-z
-x,1/2+y,1/2-z
-x,-y,-z
x,1/2+y,1/2-z
-x,y,z
x,1/2-y,1/2+z
1/2+x,1/2+y,z
1/2-x,-y,1/2+z
1/2+x,1/2-y,-z
1/2-x,y,1/2-z
1/2-x,1/2-y,-z
1/2+x,y,1/2-z
1/2-x,1/2+y,z
1/2+x,-y,1/2+z
loop_
_atom_site_type_symbol
_atom_site_label
_atom_site_fract_x
_atom_site_fract_y
_atom_site_fract_z
Si Si1 0.500000 0.940986 0.903355
Si Si2 0.635795 0.090894 0.707369
Si Si3 0.364205 0.090893 0.207369
Si Si4 0.000000 0.059013 0.903355
Si Si5 0.500000 0.250000 0.501169
Si Si6 0.723628 0.250000 0.640864
Si Si7 0.625740 0.750000 0.641484
O O1 0.430586 0.959153 0.842038
O O2 0.500000 0.832993 0.925717
O O3 0.500000 0.000000 0.000000
O O4 0.569414 0.040847 0.657962
O O5 0.679693 0.153050 0.629290
O O6 0.613966 0.158427 0.794277
O O7 0.677727 0.000001 0.750000
O O8 0.320306 0.153050 0.129290
O O9 0.386034 0.158426 0.294278
O O10 0.000000 0.167007 0.925716
O O11 0.000000 0.000000 0.000000
O O12 0.569475 0.250000 0.440094
O O13 0.750000 0.250000 0.750000
O O14 0.798010 0.250000 0.584375
#
# Coordination Sequence:
#
# PCOD8262634 Si02
#       7
#     8  16  16   8   8  16  16
#     4  12  24  36  54  86 116 150 190 226 272 332
#     4  10  19  37  59  81 111 147 187 233 273 323
#     4  10  19  37  59  81 111 147 187 233 273 323
#     4  12  24  36  54  86 116 150 190 226 272 332
#     4  12  22  38  58  82 120 148 176 236 282 320
#     4   8  19  34  58  88 106 136 192 234 274 328
#     4  10  21  37  61  87 104 145 192 226 279 338
#
# _framework density 23.047025000000001
#
# number of rings (size 3 to 8) (size 9 to 14) (size 15 to 20)
#    0.000    2.182    0.000    6.000    0.000    6.545 
#    0.000    3.636    0.000    2.182    0.000    0.000 
#    0.000    0.000    0.000    0.000    0.000    0.000 
#
# Total GULP energy -545150.432336 kJ/mol
# GULP energy per Si atom -12389.782553 kJ/mol
# Density = 2.299457 g / cm^3
# Si number density = 23.047025 Si / 1000 Ang^3
#
#
#
# Elastic Constant Matrix: (Units=GPa)
#
#
# Indices 1 2 3 4 5 6 
#
# 1 150.2932 21.5651 17.4084 0.0000 0.0000 0.0000
# 2 21.5651 173.1728 22.9243 0.0000 0.0000 0.0000
# 3 17.4084 22.9243 26.2693 0.0000 0.0000 0.0000
# 4 0.0000 0.0000 0.0000 38.1858 0.0000 0.0000
# 5 0.0000 0.0000 0.0000 0.0000 14.5608 0.0000
# 6 0.0000 0.0000 0.0000 0.0000 0.0000 24.9606
#
#
#
# Elastic Compliance Matrix: (Units=1/GPa)
#
#
# Indices 1 2 3 4 5 6 
#
# 1 0.007221 -0.000300 -0.004523 0.000000 0.000000 0.000000
# 2 -0.000300 0.006541 -0.005509 0.000000 0.000000 0.000000
# 3 -0.004523 -0.005509 0.045872 0.000000 0.000000 0.000000
# 4 0.000000 0.000000 0.000000 0.026188 0.000000 0.000000
# 5 0.000000 0.000000 0.000000 0.000000 0.068678 0.000000
# 6 0.000000 0.000000 0.000000 0.000000 0.000000 0.040063
#
#
# Mechanical properties :
#
#
# Convention : Reuss Voigt Hill
#
# Bulk Modulus (GPa) = 25.66142 52.61455 39.13799
# Shear Modulus (GPa) = 21.90894 34.73061 28.31978
#
# Velocity S-wave (km/s) = 3.08656 3.88615 3.50920
# Velocity P-wave (km/s) = 4.88477 6.55858 5.78256
#
# Compressibility (1/GPa) = 0.03896900
#
# Stress axis : x y z
#
# Youngs Moduli (GPa) = 138.49164 152.87479 21.79972
#
# Poissons Ratio (x) = 0.04593 0.09860
# Poissons Ratio (y) = 0.04161 0.12010
# Poissons Ratio (z) = 0.62638 0.84223
#
# Static dielectric constant tensor:
#      x y z
#    x 5.363300 0.000000 0.000000 
#    y 0.000000 4.461630 0.000000 
#    z 0.000000 0.000000 3.826320 
# 
# 
# High freq. dielectric constant tensor:
#      x y z
#    x 1.918360 0.000000 0.000000 
#    y 0.000000 1.927560 0.000000 
#    z 0.000000 0.000000 1.883140 
# 
# From -- ./inp_files/26265.got.cif
#   From: 2010.03.12/outbox.cif.g09.slc.cpg/sg64_14_cif.got.tgz:26265.got - 2010.04.10 20:19:32.
