data_PCOD8262230
_publ_section_title
;
Structure prediction by ZEFSAII (Michael W. Deem and Ramdas Pophale) SiO2 
 PCOD8262230
Probable space group: C M C A
;
_chemical_formula_sum "Si O2"
_cell_formula_units_Z 96
_cell_length_a 8.952821
_cell_length_b 23.256112
_cell_length_c 23.553986
_cell_angle_alpha 90.000000
_cell_angle_beta 90.000000
_cell_angle_gamma 90.000000
_cell_volume 4904.123792
_symmetry_space_group_name_H-M "C M C A"
_symmetry_group_IT_number 64
_symmetry_cell_setting 'orthorhombic'
loop_
_space_group_symop_operation_xyz
x,y,z
-x,1/2-y,1/2+z
x,-y,-z
-x,1/2+y,1/2-z
-x,-y,-z
x,1/2+y,1/2-z
-x,y,z
x,1/2-y,1/2+z
1/2+x,1/2+y,z
1/2-x,-y,1/2+z
1/2+x,1/2-y,-z
1/2-x,y,1/2-z
1/2-x,1/2-y,-z
1/2+x,y,1/2-z
1/2-x,1/2+y,z
1/2+x,-y,1/2+z
loop_
_atom_site_type_symbol
_atom_site_label
_atom_site_fract_x
_atom_site_fract_y
_atom_site_fract_z
Si Si1 0.832038 0.594294 0.194625
Si Si2 0.677631 0.702696 0.372068
Si Si3 0.321627 0.182131 0.687751
Si Si4 0.823538 0.867222 0.524400
Si Si5 0.830956 0.477428 0.913897
Si Si6 0.322985 0.604365 0.597909
O O1 0.750000 0.572679 0.250000
O O2 0.760864 0.652754 0.169319
O O3 0.821414 0.542340 0.150896
O O4 0.000000 0.608117 0.211833
O O5 0.500000 0.703936 0.371602
O O6 0.738315 0.763190 0.348678
O O7 0.734611 0.686062 0.436222
O O8 0.500000 0.180986 0.693673
O O9 0.250000 0.182841 0.750000
O O10 0.264923 0.127189 0.652669
O O11 0.754624 0.928778 0.545843
O O12 0.785893 0.856927 0.458152
O O13 0.000000 0.872387 0.534737
O O14 0.758376 0.540784 0.916473
O O15 0.000000 0.485388 0.934585
O O16 0.500000 0.604033 0.611206
#
# Coordination Sequence:
#
# PCOD8262230 Si02
#       6
#    16  16  16  16  16  16
#     4   9  16  28  47  70  95 123 161 208 253 292
#     4   8  16  31  51  74  98 125 160 207 255 293
#     4  11  23  38  53  70  98 135 172 207 246 293
#     4   8  14  28  53  81 103 126 162 206 249 294
#     4   8  15  28  48  75 103 131 165 204 243 289
#     4  10  19  32  53  79 104 132 166 201 241 295
#
# _framework density 19.575362999999999
#
# number of rings (size 3 to 8) (size 9 to 14) (size 15 to 20)
#    0.000    3.000    0.000    3.500    0.000    3.333 
#    0.000    3.333    0.000    7.000    0.000    0.000 
#    0.000    0.000    0.000    0.000    0.000    0.000 
#
# Total GULP energy -594669.639469 kJ/mol
# GULP energy per Si atom -12388.950822 kJ/mol
# Density = 1.953081 g / cm^3
# Si number density = 19.575363 Si / 1000 Ang^3
#
#
#
# Elastic Constant Matrix: (Units=GPa)
#
#
# Indices 1 2 3 4 5 6 
#
# 1 34.6463 14.5817 30.5230 0.0000 0.0000 0.0000
# 2 14.5817 81.6567 44.4118 0.0000 0.0000 0.0000
# 3 30.5230 44.4118 118.1089 0.0000 0.0000 0.0000
# 4 0.0000 0.0000 0.0000 17.9897 0.0000 0.0000
# 5 0.0000 0.0000 0.0000 0.0000 18.8236 0.0000
# 6 0.0000 0.0000 0.0000 0.0000 0.0000 15.5927
#
#
#
# Elastic Compliance Matrix: (Units=1/GPa)
#
#
# Indices 1 2 3 4 5 6 
#
# 1 0.037580 -0.001796 -0.009037 0.000000 0.000000 0.000000
# 2 -0.001796 0.015481 -0.005357 0.000000 0.000000 0.000000
# 3 -0.009037 -0.005357 0.012816 0.000000 0.000000 0.000000
# 4 0.000000 0.000000 0.000000 0.055587 0.000000 0.000000
# 5 0.000000 0.000000 0.000000 0.000000 0.053125 0.000000
# 6 0.000000 0.000000 0.000000 0.000000 0.000000 0.064132
#
#
# Mechanical properties :
#
#
# Convention : Reuss Voigt Hill
#
# Bulk Modulus (GPa) = 29.85231 45.93834 37.89533
# Shear Modulus (GPa) = 17.71373 20.14090 18.92731
#
# Velocity S-wave (km/s) = 3.01142 3.21111 3.11287
# Velocity P-wave (km/s) = 5.23207 6.10464 5.68512
#
# Compressibility (1/GPa) = 0.03349825
#
# Stress axis : x y z
#
# Youngs Moduli (GPa) = 26.60979 64.59664 78.02472
#
# Poissons Ratio (x) = 0.11601 0.70508
# Poissons Ratio (y) = 0.04779 0.41798
# Poissons Ratio (z) = 0.24046 0.34604
#
# Static dielectric constant tensor:
#      x y z
#    x 2.961600 0.000000 0.000000 
#    y 0.000000 3.730230 0.000000 
#    z 0.000000 0.000000 3.668970 
# 
# 
# High freq. dielectric constant tensor:
#      x y z
#    x 1.696130 0.000000 0.000000 
#    y 0.000000 1.762470 0.000000 
#    z 0.000000 0.000000 1.775280 
# 
# From -- ./inp_files/38395.got.cif
#   From: 2010.03.12/outbox.cif.g09.slc.cpg/sg64_20_cif.got.tgz:38395.got - 2010.04.10 20:19:32.
