data_PCOD8262741
_publ_section_title
;
Structure prediction by ZEFSAII (Michael W. Deem and Ramdas Pophale) SiO2 
 PCOD8262741
Probable space group: C M C A
;
_chemical_formula_sum "Si O2"
_cell_formula_units_Z 128
_cell_length_a 17.596680
_cell_length_b 16.687759
_cell_length_c 21.433188
_cell_angle_alpha 90.000000
_cell_angle_beta 90.000000
_cell_angle_gamma 90.000000
_cell_volume 6293.837546
_symmetry_space_group_name_H-M "C M C A"
_symmetry_group_IT_number 64
_symmetry_cell_setting 'orthorhombic'
loop_
_space_group_symop_operation_xyz
x,y,z
-x,1/2-y,1/2+z
x,-y,-z
-x,1/2+y,1/2-z
-x,-y,-z
x,1/2+y,1/2-z
-x,y,z
x,1/2-y,1/2+z
1/2+x,1/2+y,z
1/2-x,-y,1/2+z
1/2+x,1/2-y,-z
1/2-x,y,1/2-z
1/2-x,1/2-y,-z
1/2+x,y,1/2-z
1/2-x,1/2+y,z
1/2+x,-y,1/2+z
loop_
_atom_site_type_symbol
_atom_site_label
_atom_site_fract_x
_atom_site_fract_y
_atom_site_fract_z
Si Si1 0.666939 0.940673 0.238714
Si Si2 0.587421 0.963198 0.673162
Si Si3 0.414059 0.852998 0.791400
Si Si4 0.657381 0.113998 0.079390
Si Si5 0.409502 0.545364 0.609837
Si Si6 0.676403 0.756287 0.217825
Si Si7 0.826622 0.159746 0.093767
Si Si8 0.911184 0.202098 0.533845
O O1 0.750000 0.981411 0.250000
O O2 0.622486 0.950819 0.305622
O O3 0.619003 0.974749 0.179934
O O4 0.680431 0.850475 0.219033
O O5 0.500000 0.970988 0.655116
O O6 0.604223 0.916877 0.737550
O O7 0.627965 0.920148 0.614986
O O8 0.500000 0.857604 0.815113
O O9 0.358888 0.862174 0.849613
O O10 0.398414 0.768531 0.757033
O O11 0.632169 0.021774 0.066959
O O12 0.746593 0.128924 0.066996
O O13 0.608882 0.170688 0.034517
O O14 0.500000 0.532017 0.607593
O O15 0.387617 0.633912 0.584977
O O16 0.750000 0.717175 0.250000
O O17 0.676721 0.724620 0.148147
O O18 0.870041 0.211636 0.041256
O O19 0.000000 0.219115 0.539534
#
# Coordination Sequence:
#
# PCOD8262741 Si02
#       8
#    16  16  16  16  16  16  16  16
#     4  11  21  34  56  85 118 153 189 236 295 356
#     4  10  21  35  55  84 116 153 192 233 291 358
#     4  10  20  32  53  81 109 145 187 236 288 345
#     4  12  22  37  60  86 120 154 201 250 301 353
#     4  11  22  38  59  88 123 156 197 249 304 361
#     4  10  20  36  54  80 115 152 187 236 292 352
#     4  11  22  39  60  85 119 157 198 241 297 360
#     4  11  24  41  61  86 120 162 204 251 304 356
#
# _framework density 20.337354000000001
#
# number of rings (size 3 to 8) (size 9 to 14) (size 15 to 20)
#    0.000    1.250    3.750    3.375    0.000    2.500 
#    0.000    0.000    0.000    0.000    0.000    0.000 
#    0.000    9.000    0.000    0.000    0.000    0.000 
#
# Total GULP energy -793174.563561 kJ/mol
# GULP energy per Si atom -12393.352556 kJ/mol
# Density = 2.029107 g / cm^3
# Si number density = 20.337354 Si / 1000 Ang^3
#
#
#
# Elastic Constant Matrix: (Units=GPa)
#
#
# Indices 1 2 3 4 5 6 
#
# 1 105.1922 29.3858 10.7993 0.0000 0.0000 0.0000
# 2 29.3858 47.3147 6.1957 0.0000 0.0000 0.0000
# 3 10.7993 6.1957 33.2001 0.0000 0.0000 0.0000
# 4 0.0000 0.0000 0.0000 25.7846 0.0000 0.0000
# 5 0.0000 0.0000 0.0000 0.0000 33.6617 0.0000
# 6 0.0000 0.0000 0.0000 0.0000 0.0000 31.6801
#
#
#
# Elastic Compliance Matrix: (Units=1/GPa)
#
#
# Indices 1 2 3 4 5 6 
#
# 1 0.011703 -0.006939 -0.002512 0.000000 0.000000 0.000000
# 2 -0.006939 0.025779 -0.002554 0.000000 0.000000 0.000000
# 3 -0.002512 -0.002554 0.031414 0.000000 0.000000 0.000000
# 4 0.000000 0.000000 0.000000 0.038783 0.000000 0.000000
# 5 0.000000 0.000000 0.000000 0.000000 0.029707 0.000000
# 6 0.000000 0.000000 0.000000 0.000000 0.000000 0.031566
#
#
# Mechanical properties :
#
#
# Convention : Reuss Voigt Hill
#
# Bulk Modulus (GPa) = 22.27834 30.94098 26.60966
# Shear Modulus (GPa) = 24.04731 27.51369 25.78050
#
# Velocity S-wave (km/s) = 3.44237 3.68212 3.56426
# Velocity P-wave (km/s) = 5.17475 5.77272 5.48189
#
# Compressibility (1/GPa) = 0.04488666
#
# Stress axis : x y z
#
# Youngs Moduli (GPa) = 85.44963 38.79079 31.83301
#
# Poissons Ratio (x) = 0.26918 0.07995
# Poissons Ratio (y) = 0.59297 0.08129
# Poissons Ratio (z) = 0.21462 0.09906
#
# Static dielectric constant tensor:
#      x y z
#    x 3.881080 0.000000 0.000000 
#    y 0.000000 3.722740 0.000000 
#    z 0.000000 0.000000 3.542450 
# 
# 
# High freq. dielectric constant tensor:
#      x y z
#    x 1.802390 0.000000 0.000000 
#    y 0.000000 1.790770 0.000000 
#    z 0.000000 0.000000 1.775920 
# 
# From -- ./inp_files/46006.got.cif
#   From: 2010.03.12/outbox.cif.g09.slc.cpg/sg64_24_cif.got.tgz:46006.got - 2010.04.10 20:19:32.
