data_PCOD8262105
_publ_section_title
;
Structure prediction by ZEFSAII (Michael W. Deem and Ramdas Pophale) SiO2 
 PCOD8262105
Probable space group: C M C A
;
_chemical_formula_sum "Si O2"
_cell_formula_units_Z 96
_cell_length_a 8.719531
_cell_length_b 29.990233
_cell_length_c 20.420143
_cell_angle_alpha 90.000000
_cell_angle_beta 90.000000
_cell_angle_gamma 90.000000
_cell_volume 5339.883043
_symmetry_space_group_name_H-M "C M C A"
_symmetry_group_IT_number 64
_symmetry_cell_setting 'orthorhombic'
loop_
_space_group_symop_operation_xyz
x,y,z
-x,1/2-y,1/2+z
x,-y,-z
-x,1/2+y,1/2-z
-x,-y,-z
x,1/2+y,1/2-z
-x,y,z
x,1/2-y,1/2+z
1/2+x,1/2+y,z
1/2-x,-y,1/2+z
1/2+x,1/2-y,-z
1/2-x,y,1/2-z
1/2-x,1/2-y,-z
1/2+x,y,1/2-z
1/2-x,1/2+y,z
1/2+x,-y,1/2+z
loop_
_atom_site_type_symbol
_atom_site_label
_atom_site_fract_x
_atom_site_fract_y
_atom_site_fract_z
Si Si1 0.180218 0.216701 0.447178
Si Si2 0.680317 0.752637 0.183765
Si Si3 0.819517 0.062371 0.685446
Si Si4 0.674664 0.655919 0.842784
Si Si5 0.673503 0.634930 0.991873
Si Si6 0.820133 0.457096 0.040259
O O1 0.250000 0.250000 0.500000
O O2 0.239840 0.227759 0.375662
O O3 0.224340 0.165485 0.460980
O O4 0.000000 0.222833 0.449670
O O5 0.500000 0.744926 0.180452
O O6 0.750000 0.731531 0.250000
O O7 0.717563 0.805092 0.183417
O O8 0.750000 0.037178 0.750000
O O9 0.740364 0.110333 0.685059
O O10 0.778753 0.036816 0.617549
O O11 0.000000 0.067546 0.693234
O O12 0.500000 0.662724 0.818455
O O13 0.681506 0.656841 0.920800
O O14 0.500000 0.633935 0.018174
O O15 0.736095 0.584875 0.991356
O O16 0.000000 0.449179 0.031846
O O17 0.763541 0.500000 0.000000
#
# Coordination Sequence:
#
# PCOD8262105 Si02
#       6
#    16  16  16  16  16  16
#     4  12  23  37  57  81 110 146 188 229 272 325
#     4  12  24  37  53  75 108 147 188 232 278 327
#     4  10  19  31  49  74 106 139 173 213 267 328
#     4  10  19  32  50  74 107 142 179 218 266 324
#     4  10  20  34  55  82 110 141 181 227 274 325
#     4   9  19  36  57  80 107 140 180 226 276 329
#
# _framework density 17.977920000000001
#
# number of rings (size 3 to 8) (size 9 to 14) (size 15 to 20)
#    0.000    1.500    1.667    5.000    0.000    2.333 
#    0.000    0.000    0.000    1.000    0.000    4.667 
#    0.000    0.000    0.000    0.000    0.000    0.000 
#
# Total GULP energy -595259.980626 kJ/mol
# GULP energy per Si atom -12401.249596 kJ/mol
# Density = 1.793700 g / cm^3
# Si number density = 17.977920 Si / 1000 Ang^3
#
#
#
# Elastic Constant Matrix: (Units=GPa)
#
#
# Indices 1 2 3 4 5 6 
#
# 1 135.5385 47.5604 59.1272 0.0000 0.0000 0.0000
# 2 47.5604 76.5185 60.4232 0.0000 0.0000 0.0000
# 3 59.1272 60.4232 136.1537 0.0000 0.0000 0.0000
# 4 0.0000 0.0000 0.0000 17.8764 0.0000 0.0000
# 5 0.0000 0.0000 0.0000 0.0000 31.5702 0.0000
# 6 0.0000 0.0000 0.0000 0.0000 0.0000 24.2430
#
#
#
# Elastic Compliance Matrix: (Units=1/GPa)
#
#
# Indices 1 2 3 4 5 6 
#
# 1 0.009929 -0.004259 -0.002422 0.000000 0.000000 0.000000
# 2 -0.004259 0.021946 -0.007890 0.000000 0.000000 0.000000
# 3 -0.002422 -0.007890 0.011898 0.000000 0.000000 0.000000
# 4 0.000000 0.000000 0.000000 0.055940 0.000000 0.000000
# 5 0.000000 0.000000 0.000000 0.000000 0.031675 0.000000
# 6 0.000000 0.000000 0.000000 0.000000 0.000000 0.041249
#
#
# Mechanical properties :
#
#
# Convention : Reuss Voigt Hill
#
# Bulk Modulus (GPa) = 68.34508 75.82581 72.08544
# Shear Modulus (GPa) = 24.19486 26.81125 25.50305
#
# Velocity S-wave (km/s) = 3.67251 3.86598 3.77049
# Velocity P-wave (km/s) = 7.48877 7.88648 7.69020
#
# Compressibility (1/GPa) = 0.01463163
#
# Stress axis : x y z
#
# Youngs Moduli (GPa) = 100.71591 45.56586 84.04958
#
# Poissons Ratio (x) = 0.19407 0.20354
# Poissons Ratio (y) = 0.42895 0.66314
# Poissons Ratio (z) = 0.24390 0.35951
#
# Static dielectric constant tensor:
#      x y z
#    x 0.404060 0.000000 0.000000 
#    y 0.000000 3.098400 0.000000 
#    z 0.000000 0.000000 3.812220 
# 
# 
# High freq. dielectric constant tensor:
#      x y z
#    x 1.713130 0.000000 0.000000 
#    y 0.000000 1.660270 0.000000 
#    z 0.000000 0.000000 1.703720 
# 
# From -- ./inp_files/37039.got.cif
#   From: 2010.03.12/outbox.cif.g09.slc.cpg/sg64_19_cif.got.tgz:37039.got - 2010.04.10 20:19:32.
