data_PCOD8262017
_publ_section_title
;
Structure prediction by ZEFSAII (Michael W. Deem and Ramdas Pophale) SiO2 
 PCOD8262017
Probable space group: C M C A
;
_chemical_formula_sum "Si O2"
_cell_formula_units_Z 96
_cell_length_a 8.888911
_cell_length_b 27.247496
_cell_length_c 23.660866
_cell_angle_alpha 90.000000
_cell_angle_beta 90.000000
_cell_angle_gamma 90.000000
_cell_volume 5730.675159
_symmetry_space_group_name_H-M "C M C A"
_symmetry_group_IT_number 64
_symmetry_cell_setting 'orthorhombic'
loop_
_space_group_symop_operation_xyz
x,y,z
-x,1/2-y,1/2+z
x,-y,-z
-x,1/2+y,1/2-z
-x,-y,-z
x,1/2+y,1/2-z
-x,y,z
x,1/2-y,1/2+z
1/2+x,1/2+y,z
1/2-x,-y,1/2+z
1/2+x,1/2-y,-z
1/2-x,y,1/2-z
1/2-x,1/2-y,-z
1/2+x,y,1/2-z
1/2-x,1/2+y,z
1/2+x,-y,1/2+z
loop_
_atom_site_type_symbol
_atom_site_label
_atom_site_fract_x
_atom_site_fract_y
_atom_site_fract_z
Si Si1 0.825715 0.575407 0.474498
Si Si2 0.176366 0.324641 0.978915
Si Si3 0.321269 0.572189 0.691230
Si Si4 0.324565 0.522557 0.911671
Si Si5 0.674358 0.773754 0.421285
Si Si6 0.676581 0.823883 0.307205
O O1 0.737801 0.623956 0.455966
O O2 0.774270 0.557142 0.536379
O O3 0.792996 0.533776 0.428082
O O4 0.000000 0.588337 0.476338
O O5 0.227502 0.281481 0.935894
O O6 0.000000 0.328650 0.982734
O O7 0.237767 0.313450 0.041367
O O8 0.500000 0.575186 0.696981
O O9 0.250000 0.553517 0.750000
O O10 0.276369 0.534221 0.642478
O O11 0.254785 0.625283 0.675515
O O12 0.500000 0.530806 0.897820
O O13 0.500000 0.780810 0.435779
O O14 0.707553 0.783884 0.355661
O O15 0.500000 0.833473 0.298111
O O16 0.750000 0.802743 0.250000
#
# Coordination Sequence:
#
# PCOD8262017 Si02
#       6
#    16  16  16  16  16  16
#     4   9  18  32  50  70  95 127 156 187 233 283
#     4  10  19  30  47  71  96 122 156 195 230 272
#     4  11  21  32  48  71  97 124 155 192 234 277
#     4   9  18  33  50  69  95 126 158 190 229 279
#     4   9  19  33  47  66  95 128 155 186 233 280
#     4  10  19  32  49  68  93 123 155 190 229 275
#
# _framework density 16.751951999999999
#
# number of rings (size 3 to 8) (size 9 to 14) (size 15 to 20)
#    0.000    2.333    0.000    5.500    0.000    7.333 
#    0.000    1.667    0.000    1.000    0.000    4.667 
#    0.000    0.000    0.000    0.000    0.000    0.000 
#
# Total GULP energy -595242.933769 kJ/mol
# GULP energy per Si atom -12400.894454 kJ/mol
# Density = 1.671382 g / cm^3
# Si number density = 16.751952 Si / 1000 Ang^3
#
#
#
# Elastic Constant Matrix: (Units=GPa)
#
#
# Indices 1 2 3 4 5 6 
#
# 1 86.6095 42.6892 51.0875 0.0000 0.0000 0.0000
# 2 42.6892 96.2936 51.7598 0.0000 0.0000 0.0000
# 3 51.0875 51.7598 111.5636 0.0000 0.0000 0.0000
# 4 0.0000 0.0000 0.0000 23.9757 0.0000 0.0000
# 5 0.0000 0.0000 0.0000 0.0000 29.0657 0.0000
# 6 0.0000 0.0000 0.0000 0.0000 0.0000 29.6469
#
#
#
# Elastic Compliance Matrix: (Units=1/GPa)
#
#
# Indices 1 2 3 4 5 6 
#
# 1 0.017174 -0.004511 -0.005771 0.000000 0.000000 0.000000
# 2 -0.004511 0.015020 -0.004903 0.000000 0.000000 0.000000
# 3 -0.005771 -0.004903 0.013881 0.000000 0.000000 0.000000
# 4 0.000000 0.000000 0.000000 0.041709 0.000000 0.000000
# 5 0.000000 0.000000 0.000000 0.000000 0.034405 0.000000
# 6 0.000000 0.000000 0.000000 0.000000 0.000000 0.033730
#
#
# Mechanical properties :
#
#
# Convention : Reuss Voigt Hill
#
# Bulk Modulus (GPa) = 63.67708 65.05997 64.36852
# Shear Modulus (GPa) = 26.10628 26.46634 26.28631
#
# Velocity S-wave (km/s) = 3.95194 3.97910 3.96555
# Velocity P-wave (km/s) = 7.67581 7.74807 7.71202
#
# Compressibility (1/GPa) = 0.01570424
#
# Stress axis : x y z
#
# Youngs Moduli (GPa) = 58.22764 66.57670 72.04135
#
# Poissons Ratio (x) = 0.30036 0.41577
# Poissons Ratio (y) = 0.26269 0.35320
# Poissons Ratio (z) = 0.33605 0.32641
#
# Static dielectric constant tensor:
#      x y z
#    x 3.149580 0.000000 0.000000 
#    y 0.000000 3.132920 0.000000 
#    z 0.000000 0.000000 3.107090 
# 
# 
# High freq. dielectric constant tensor:
#      x y z
#    x 1.652260 0.000000 0.000000 
#    y 0.000000 1.634800 0.000000 
#    z 0.000000 0.000000 1.636020 
# 
# From -- ./inp_files/37064.got.cif
#   From: 2010.03.12/outbox.cif.g09.slc.cpg/sg64_19_cif.got.tgz:37064.got - 2010.04.10 20:19:32.
