data_PCOD8262651
_publ_section_title
;
Structure prediction by ZEFSAII (Michael W. Deem and Ramdas Pophale) SiO2 
 PCOD8262651
Probable space group: C M C A
;
_chemical_formula_sum "Si O2"
_cell_formula_units_Z 112
_cell_length_a 17.661683
_cell_length_b 33.067852
_cell_length_c 10.297767
_cell_angle_alpha 90.000000
_cell_angle_beta 90.000000
_cell_angle_gamma 90.000000
_cell_volume 6014.245223
_symmetry_space_group_name_H-M "C M C A"
_symmetry_group_IT_number 64
_symmetry_cell_setting 'orthorhombic'
loop_
_space_group_symop_operation_xyz
x,y,z
-x,1/2-y,1/2+z
x,-y,-z
-x,1/2+y,1/2-z
-x,-y,-z
x,1/2+y,1/2-z
-x,y,z
x,1/2-y,1/2+z
1/2+x,1/2+y,z
1/2-x,-y,1/2+z
1/2+x,1/2-y,-z
1/2-x,y,1/2-z
1/2-x,1/2-y,-z
1/2+x,y,1/2-z
1/2-x,1/2+y,z
1/2+x,-y,1/2+z
loop_
_atom_site_type_symbol
_atom_site_label
_atom_site_fract_x
_atom_site_fract_y
_atom_site_fract_z
Si Si1 0.660733 0.339724 0.254713
Si Si2 0.411609 0.800681 0.493324
Si Si3 0.913369 0.580827 0.854023
Si Si4 0.911370 0.206147 0.510529
Si Si5 0.410915 0.338269 0.742688
Si Si6 0.317523 0.498384 0.349857
Si Si7 0.085868 0.076183 0.346871
O O1 0.750000 0.343233 0.250000
O O2 0.627697 0.384525 0.272798
O O3 0.634507 0.309191 0.366021
O O4 0.633329 0.322437 0.119159
O O5 0.500000 0.810537 0.476965
O O6 0.396487 0.753238 0.491196
O O7 0.377887 0.818463 0.627344
O O8 0.876199 0.537598 0.827430
O O9 0.000000 0.578273 0.808369
O O10 0.907126 0.591525 0.005575
O O11 0.877576 0.184030 0.383729
O O12 0.000000 0.196621 0.534098
O O13 0.500000 0.331099 0.738527
O O14 0.390812 0.385853 0.742443
O O15 0.289291 0.500000 0.500000
O O16 0.250000 0.491811 0.250000
O O17 0.358735 0.539855 0.312439
O O18 0.000000 0.061956 0.319292
#
# Coordination Sequence:
#
# PCOD8262651 Si02
#       7
#    16  16  16  16  16  16  16
#     4  12  24  37  55  85 124 157 189 234 294 353
#     4  10  21  37  59  87 113 148 197 249 292 330
#     4  10  19  37  64  85 107 148 201 240 272 329
#     4  10  19  37  63  83 109 153 202 242 283 341
#     4   9  17  33  57  85 112 142 192 247 284 327
#     4  10  21  38  59  87 119 147 180 229 286 347
#     4   9  17  34  60  85 108 145 197 239 276 332
#
# _framework density 18.622454000000001
#
# number of rings (size 3 to 8) (size 9 to 14) (size 15 to 20)
#    0.000    2.000    1.429    3.000    0.000    4.571 
#    7.714    0.714    0.000    0.857    0.000    0.000 
#    0.000    0.000    0.000    0.000    0.000    0.000 
#
# Total GULP energy -694514.132914 kJ/mol
# GULP energy per Si atom -12402.038088 kJ/mol
# Density = 1.858007 g / cm^3
# Si number density = 18.622454 Si / 1000 Ang^3
#
#
#
# Elastic Constant Matrix: (Units=GPa)
#
#
# Indices 1 2 3 4 5 6 
#
# 1 92.3494 44.3505 40.5520 0.0000 0.0000 0.0000
# 2 44.3505 95.3181 44.8821 0.0000 0.0000 0.0000
# 3 40.5520 44.8821 95.5244 0.0000 0.0000 0.0000
# 4 0.0000 0.0000 0.0000 284.4754 0.0000 0.0000
# 5 0.0000 0.0000 0.0000 0.0000 21.4266 0.0000
# 6 0.0000 0.0000 0.0000 0.0000 0.0000 7.5613
#
#
#
# Elastic Compliance Matrix: (Units=1/GPa)
#
#
# Indices 1 2 3 4 5 6 
#
# 1 0.015035 -0.005124 -0.003975 0.000000 0.000000 0.000000
# 2 -0.005124 0.015218 -0.004975 0.000000 0.000000 0.000000
# 3 -0.003975 -0.004975 0.014494 0.000000 0.000000 0.000000
# 4 0.000000 0.000000 0.000000 0.003515 0.000000 0.000000
# 5 0.000000 0.000000 0.000000 0.000000 0.046671 0.000000
# 6 0.000000 0.000000 0.000000 0.000000 0.000000 0.132252
#
#
# Mechanical properties :
#
#
# Convention : Reuss Voigt Hill
#
# Bulk Modulus (GPa) = 60.24696 60.30681 60.27688
# Shear Modulus (GPa) = 19.16709 72.91982 46.04345
#
# Velocity S-wave (km/s) = 3.21167 6.26434 4.97779
# Velocity P-wave (km/s) = 6.79523 9.20743 8.09172
#
# Compressibility (1/GPa) = 0.01659835
#
# Stress axis : x y z
#
# Youngs Moduli (GPa) = 66.51318 65.71288 68.99639
#
# Poissons Ratio (x) = 0.33669 0.27427
# Poissons Ratio (y) = 0.34079 0.34325
# Poissons Ratio (z) = 0.26440 0.32692
#
# Static dielectric constant tensor:
#      x y z
#    x 3.253810 0.000000 0.000000 
#    y 0.000000 3.528470 0.000000 
#    z 0.000000 0.000000 3.491490 
# 
# 
# High freq. dielectric constant tensor:
#      x y z
#    x 1.701800 0.000000 0.000000 
#    y 0.000000 1.741140 0.000000 
#    z 0.000000 0.000000 1.719200 
# 
# From -- ./inp_files/14930.got.cif
#   From: 2010.03.12/outbox.cif.g09.slc.cpg/sg64_8_cif.got.tgz:14930.got - 2010.04.10 20:19:32.
