data_PCOD8262181
_publ_section_title
;
Structure prediction by ZEFSAII (Michael W. Deem and Ramdas Pophale) SiO2 
 PCOD8262181
Probable space group: C M C A
;
_chemical_formula_sum "Si O2"
_cell_formula_units_Z 80
_cell_length_a 8.811131
_cell_length_b 19.314625
_cell_length_c 26.080510
_cell_angle_alpha 90.000000
_cell_angle_beta 90.000000
_cell_angle_gamma 90.000000
_cell_volume 4438.477457
_symmetry_space_group_name_H-M "C M C A"
_symmetry_group_IT_number 64
_symmetry_cell_setting 'orthorhombic'
loop_
_space_group_symop_operation_xyz
x,y,z
-x,1/2-y,1/2+z
x,-y,-z
-x,1/2+y,1/2-z
-x,-y,-z
x,1/2+y,1/2-z
-x,y,z
x,1/2-y,1/2+z
1/2+x,1/2+y,z
1/2-x,-y,1/2+z
1/2+x,1/2-y,-z
1/2-x,y,1/2-z
1/2-x,1/2-y,-z
1/2+x,y,1/2-z
1/2-x,1/2+y,z
1/2+x,-y,1/2+z
loop_
_atom_site_type_symbol
_atom_site_label
_atom_site_fract_x
_atom_site_fract_y
_atom_site_fract_z
Si Si1 0.821712 0.324708 0.495374
Si Si2 0.322210 0.173967 0.392661
Si Si3 0.679200 0.580149 0.803299
Si Si4 0.320804 0.578564 0.197107
Si Si5 0.680055 0.168348 0.893506
O O1 0.750000 0.250000 0.500000
O O2 0.789386 0.359839 0.551041
O O3 0.740988 0.363385 0.447710
O O4 0.000000 0.319687 0.484498
O O5 0.500000 0.177946 0.383490
O O6 0.250687 0.124781 0.348987
O O7 0.260029 0.252515 0.388137
O O8 0.500000 0.590655 0.801545
O O9 0.750000 0.606322 0.750000
O O10 0.725599 0.500657 0.813210
O O11 0.749801 0.624860 0.848098
O O12 0.500000 0.586387 0.201054
O O13 0.250000 0.605858 0.250000
O O14 0.500000 0.162920 0.892491
#
# Coordination Sequence:
#
# PCOD8262181 Si02
#       5
#    16  16  16  16  16
#     4   9  16  29  49  72  99 130 163 199 244 292
#     4   8  16  31  51  73  96 125 161 201 240 282
#     4  10  20  34  52  71  95 128 162 198 241 290
#     4   9  18  34  52  70  94 125 161 198 240 288
#     4  10  19  32  51  74 101 129 161 202 242 287
#
# _framework density 18.024198999999999
#
# number of rings (size 3 to 8) (size 9 to 14) (size 15 to 20)
#    0.000    2.800    0.000    3.000    0.000    1.600 
#    0.000    9.000    0.000    6.000    0.000    0.000 
#    0.000    0.000    0.000    0.000    0.000    0.000 
#
# Total GULP energy -495735.028178 kJ/mol
# GULP energy per Si atom -12393.375704 kJ/mol
# Density = 1.798318 g / cm^3
# Si number density = 18.024199 Si / 1000 Ang^3
#
#
#
# Elastic Constant Matrix: (Units=GPa)
#
#
# Indices 1 2 3 4 5 6 
#
# 1 63.8653 26.4561 52.8957 0.0000 0.0000 0.0000
# 2 26.4561 62.8455 76.9675 0.0000 0.0000 0.0000
# 3 52.8957 76.9675 204.6139 0.0000 0.0000 0.0000
# 4 0.0000 0.0000 0.0000 -54.3956 0.0000 0.0000
# 5 0.0000 0.0000 0.0000 0.0000 36.4489 0.0000
# 6 0.0000 0.0000 0.0000 0.0000 0.0000 17.1280
#
#
#
# Elastic Compliance Matrix: (Units=1/GPa)
#
#
# Indices 1 2 3 4 5 6 
#
# 1 0.020441 -0.003956 -0.003796 0.000000 0.000000 0.000000
# 2 -0.003956 0.030270 -0.010364 0.000000 0.000000 0.000000
# 3 -0.003796 -0.010364 0.009767 0.000000 0.000000 0.000000
# 4 0.000000 0.000000 0.000000 -0.018384 0.000000 0.000000
# 5 0.000000 0.000000 0.000000 0.000000 0.027436 0.000000
# 6 0.000000 0.000000 0.000000 0.000000 0.000000 0.058384
#
#
# Mechanical properties :
#
#
# Convention : Reuss Voigt Hill
#
# Bulk Modulus (GPa) = 41.24320 71.55147 56.39734
# Shear Modulus (GPa) = 29.03155 11.50330 20.26742
#
# Velocity S-wave (km/s) = 4.01770 2.52903 3.35693
# Velocity P-wave (km/s) = 6.66741 6.95066 6.81051
#
# Compressibility (1/GPa) = 0.02424642
#
# Stress axis : x y z
#
# Youngs Moduli (GPa) = 48.92178 33.03642 102.38516
#
# Poissons Ratio (x) = 0.13068 0.38869
# Poissons Ratio (y) = 0.19351 1.06108
# Poissons Ratio (z) = 0.18572 0.34238
#
# Static dielectric constant tensor:
#      x y z
#    x 3.355760 0.000000 0.000000 
#    y 0.000000 3.256220 0.000000 
#    z 0.000000 0.000000 4.096220 
# 
# 
# High freq. dielectric constant tensor:
#      x y z
#    x 1.690740 0.000000 0.000000 
#    y 0.000000 1.664010 0.000000 
#    z 0.000000 0.000000 1.721030 
# 
# From -- ./inp_files/47780.got.cif
#   From: 2010.03.12/outbox.cif.g09.slc.cpg/sg64_24_cif.got.tgz:47780.got - 2010.04.10 20:19:32.
