data_PCOD8262751
_publ_section_title
;
Structure prediction by ZEFSAII (Michael W. Deem and Ramdas Pophale) SiO2 
 PCOD8262751
Probable space group: C M C A
;
_chemical_formula_sum "Si O2"
_cell_formula_units_Z 112
_cell_length_a 23.574858
_cell_length_b 20.424529
_cell_length_c 11.534643
_cell_angle_alpha 90.000000
_cell_angle_beta 90.000000
_cell_angle_gamma 90.000000
_cell_volume 5553.992556
_symmetry_space_group_name_H-M "C M C A"
_symmetry_group_IT_number 64
_symmetry_cell_setting 'orthorhombic'
loop_
_space_group_symop_operation_xyz
x,y,z
-x,1/2-y,1/2+z
x,-y,-z
-x,1/2+y,1/2-z
-x,-y,-z
x,1/2+y,1/2-z
-x,y,z
x,1/2-y,1/2+z
1/2+x,1/2+y,z
1/2-x,-y,1/2+z
1/2+x,1/2-y,-z
1/2-x,y,1/2-z
1/2-x,1/2-y,-z
1/2+x,y,1/2-z
1/2-x,1/2+y,z
1/2+x,-y,1/2+z
loop_
_atom_site_type_symbol
_atom_site_label
_atom_site_fract_x
_atom_site_fract_y
_atom_site_fract_z
Si Si1 0.847739 0.850337 0.649843
Si Si2 0.333877 0.412746 0.064294
Si Si3 0.689757 0.539247 0.187481
Si Si4 0.235478 0.820515 0.454802
Si Si5 0.562513 0.654459 0.871867
Si Si6 0.639119 0.720062 0.702218
Si Si7 0.562062 0.788203 0.995084
O O1 0.850524 0.913446 0.734719
O O2 0.794084 0.858444 0.563182
O O3 0.842661 0.782791 0.722204
O O4 0.905093 0.846539 0.572553
O O5 0.333565 0.465476 0.169952
O O6 0.399590 0.390969 0.042651
O O7 0.306936 0.435500 0.943540
O O8 0.292993 0.352188 0.096069
O O9 0.750000 0.537220 0.250000
O O10 0.250000 0.750000 0.500000
O O11 0.194642 0.815334 0.345129
O O12 0.500000 0.622561 0.849415
O O13 0.603384 0.661227 0.760910
O O14 0.552238 0.728049 0.910521
O O15 0.598799 0.743421 0.597736
O O16 0.500000 0.814363 0.035953
#
# Coordination Sequence:
#
# PCOD8262751 Si02
#       7
#    16  16  16  16  16  16  16
#     4  10  20  36  55  85 120 160 195 245 309 361
#     4  11  24  39  59  90 113 160 208 243 308 365
#     4  11  23  41  60  80 121 162 200 248 302 372
#     4  11  21  34  57  92 124 150 199 253 312 379
#     4  10  21  38  58  85 121 156 198 254 305 357
#     4  10  20  32  58  90 123 158 191 246 319 371
#     4   9  18  34  57  87 122 158 203 246 298 365
#
# _framework density 20.165673000000002
#
# number of rings (size 3 to 8) (size 9 to 14) (size 15 to 20)
#    0.000    1.714    1.429    4.714    2.000    1.714 
#    0.000    2.857    0.000    0.000    0.000    3.000 
#    0.000    0.000    0.000    0.000    0.000    0.000 
#
# Total GULP energy -693791.368642 kJ/mol
# GULP energy per Si atom -12389.131583 kJ/mol
# Density = 2.011978 g / cm^3
# Si number density = 20.165673 Si / 1000 Ang^3
#
#
#
# Elastic Constant Matrix: (Units=GPa)
#
#
# Indices 1 2 3 4 5 6 
#
# 1 161.0360 44.9074 33.1953 0.0000 0.0000 0.0000
# 2 44.9074 90.0581 17.4951 0.0000 0.0000 0.0000
# 3 33.1953 17.4951 62.9112 0.0000 0.0000 0.0000
# 4 0.0000 0.0000 0.0000 30.2598 0.0000 0.0000
# 5 0.0000 0.0000 0.0000 0.0000 21.6841 0.0000
# 6 0.0000 0.0000 0.0000 0.0000 0.0000 17.2032
#
#
#
# Elastic Compliance Matrix: (Units=1/GPa)
#
#
# Indices 1 2 3 4 5 6 
#
# 1 0.007777 -0.003257 -0.003198 0.000000 0.000000 0.000000
# 2 -0.003257 0.013102 -0.001925 0.000000 0.000000 0.000000
# 3 -0.003198 -0.001925 0.018118 0.000000 0.000000 0.000000
# 4 0.000000 0.000000 0.000000 0.033047 0.000000 0.000000
# 5 0.000000 0.000000 0.000000 0.000000 0.046117 0.000000
# 6 0.000000 0.000000 0.000000 0.000000 0.000000 0.058129
#
#
# Mechanical properties :
#
#
# Convention : Reuss Voigt Hill
#
# Bulk Modulus (GPa) = 44.96891 56.13343 50.55117
# Shear Modulus (GPa) = 24.94233 28.38991 26.66612
#
# Velocity S-wave (km/s) = 3.52073 3.75618 3.64036
# Velocity P-wave (km/s) = 6.23503 6.83436 6.54156
#
# Compressibility (1/GPa) = 0.02223759
#
# Stress axis : x y z
#
# Youngs Moduli (GPa) = 128.58044 76.32450 55.19312
#
# Poissons Ratio (x) = 0.24858 0.17651
# Poissons Ratio (y) = 0.41877 0.10625
# Poissons Ratio (z) = 0.41120 0.14693
#
# Static dielectric constant tensor:
#      x y z
#    x 4.101760 0.000000 0.000000 
#    y 0.000000 3.565770 0.000000 
#    z 0.000000 0.000000 3.791670 
# 
# 
# High freq. dielectric constant tensor:
#      x y z
#    x 1.792480 0.000000 0.000000 
#    y 0.000000 1.755930 0.000000 
#    z 0.000000 0.000000 1.794600 
# 
# From -- ./inp_files/18627.got.cif
#   From: 2010.03.12/outbox.cif.g09.slc.cpg/sg64_10_cif.got.tgz:18627.got - 2010.04.10 20:19:32.
