data_PCOD8262176
_publ_section_title
;
Structure prediction by ZEFSAII (Michael W. Deem and Ramdas Pophale) SiO2 
 PCOD8262176
Probable space group: C M C A
;
_chemical_formula_sum "Si O2"
_cell_formula_units_Z 96
_cell_length_a 8.817403
_cell_length_b 27.871408
_cell_length_c 20.838572
_cell_angle_alpha 90.000000
_cell_angle_beta 90.000000
_cell_angle_gamma 90.000000
_cell_volume 5121.150681
_symmetry_space_group_name_H-M "C M C A"
_symmetry_group_IT_number 64
_symmetry_cell_setting 'orthorhombic'
loop_
_space_group_symop_operation_xyz
x,y,z
-x,1/2-y,1/2+z
x,-y,-z
-x,1/2+y,1/2-z
-x,-y,-z
x,1/2+y,1/2-z
-x,y,z
x,1/2-y,1/2+z
1/2+x,1/2+y,z
1/2-x,-y,1/2+z
1/2+x,1/2-y,-z
1/2-x,y,1/2-z
1/2-x,1/2-y,-z
1/2+x,y,1/2-z
1/2-x,1/2+y,z
1/2+x,-y,1/2+z
loop_
_atom_site_type_symbol
_atom_site_label
_atom_site_fract_x
_atom_site_fract_y
_atom_site_fract_z
Si Si1 0.329816 0.481437 0.072632
Si Si2 0.677669 0.852478 0.685390
Si Si3 0.831843 0.390723 0.037585
Si Si4 0.321250 0.789662 0.453227
Si Si5 0.678456 0.750396 0.816193
Si Si6 0.832968 0.927978 0.603709
O O1 0.500000 0.479669 0.100126
O O2 0.259581 0.428234 0.081990
O O3 0.230642 0.518447 0.114703
O O4 0.332188 0.500000 0.000000
O O5 0.500000 0.844144 0.692814
O O6 0.750000 0.873668 0.750000
O O7 0.755807 0.802460 0.668211
O O8 0.712069 0.890393 0.630462
O O9 0.741948 0.341443 0.028490
O O10 0.000000 0.380594 0.066106
O O11 0.849527 0.417114 0.970567
O O12 0.500000 0.788266 0.464738
O O13 0.250000 0.750000 0.500000
O O14 0.281141 0.781583 0.378131
O O15 0.500000 0.754609 0.805669
O O16 0.750000 0.729243 0.750000
O O17 0.000000 0.923860 0.636261
#
# Coordination Sequence:
#
# PCOD8262176 Si02
#       6
#    16  16  16  16  16  16
#     4   9  17  30  49  73 100 131 166 202 246 303
#     4  11  21  33  51  74 100 132 169 209 255 306
#     4  10  20  33  51  75 104 137 170 208 256 306
#     4  11  23  36  53  79 109 139 175 220 267 314
#     4  10  21  37  55  76 103 138 178 217 260 313
#     4  10  19  32  50  74 104 134 167 207 252 304
#
# _framework density 18.745787
#
# number of rings (size 3 to 8) (size 9 to 14) (size 15 to 20)
#    0.000    1.833    0.000    6.000    0.000   10.667 
#    0.000    0.000    0.000    1.000    0.000    4.667 
#    0.000    0.000    0.000    0.000    0.000    0.000 
#
# Total GULP energy -595101.460718 kJ/mol
# GULP energy per Si atom -12397.947098 kJ/mol
# Density = 1.870312 g / cm^3
# Si number density = 18.745787 Si / 1000 Ang^3
#
#
#
# Elastic Constant Matrix: (Units=GPa)
#
#
# Indices 1 2 3 4 5 6 
#
# 1 134.2157 49.2262 39.6570 0.0000 0.0000 0.0000
# 2 49.2262 110.1870 20.5633 0.0000 0.0000 0.0000
# 3 39.6570 20.5633 40.7076 0.0000 0.0000 0.0000
# 4 0.0000 0.0000 0.0000 19.9502 0.0000 0.0000
# 5 0.0000 0.0000 0.0000 0.0000 27.4664 0.0000
# 6 0.0000 0.0000 0.0000 0.0000 0.0000 16.1142
#
#
#
# Elastic Compliance Matrix: (Units=1/GPa)
#
#
# Indices 1 2 3 4 5 6 
#
# 1 0.011489 -0.003361 -0.009494 0.000000 0.000000 0.000000
# 2 -0.003361 0.011003 -0.002284 0.000000 0.000000 0.000000
# 3 -0.009494 -0.002284 0.034969 0.000000 0.000000 0.000000
# 4 0.000000 0.000000 0.000000 0.050125 0.000000 0.000000
# 5 0.000000 0.000000 0.000000 0.000000 0.036408 0.000000
# 6 0.000000 0.000000 0.000000 0.000000 0.000000 0.062057
#
#
# Mechanical properties :
#
#
# Convention : Reuss Voigt Hill
#
# Bulk Modulus (GPa) = 36.78946 56.00034 46.39490
# Shear Modulus (GPa) = 20.37573 24.41708 22.39641
#
# Velocity S-wave (km/s) = 3.30047 3.61298 3.46026
# Velocity P-wave (km/s) = 5.84741 6.88065 6.38496
#
# Compressibility (1/GPa) = 0.02718170
#
# Stress axis : x y z
#
# Youngs Moduli (GPa) = 87.04251 90.88291 28.59697
#
# Poissons Ratio (x) = 0.30543 0.27151
# Poissons Ratio (y) = 0.29252 0.06532
# Poissons Ratio (z) = 0.82642 0.20760
#
# Static dielectric constant tensor:
#      x y z
#    x 3.781000 0.000000 0.000000 
#    y 0.000000 3.380610 0.000000 
#    z 0.000000 0.000000 3.252700 
# 
# 
# High freq. dielectric constant tensor:
#      x y z
#    x 1.752870 0.000000 0.000000 
#    y 0.000000 1.724550 0.000000 
#    z 0.000000 0.000000 1.690620 
# 
# From -- ./inp_files/37109.got.cif
#   From: 2010.03.12/outbox.cif.g09.slc.cpg/sg64_19_cif.got.tgz:37109.got - 2010.04.10 20:19:32.
