data_PCOD8262706
_publ_section_title
;
Structure prediction by ZEFSAII (Michael W. Deem and Ramdas Pophale) SiO2 
 PCOD8262706
Probable space group: C M C A
;
_chemical_formula_sum "Si O2"
_cell_formula_units_Z 96
_cell_length_a 20.383938
_cell_length_b 11.286703
_cell_length_c 21.857330
_cell_angle_alpha 90.000000
_cell_angle_beta 90.000000
_cell_angle_gamma 90.000000
_cell_volume 5028.660268
_symmetry_space_group_name_H-M "C M C A"
_symmetry_group_IT_number 64
_symmetry_cell_setting 'orthorhombic'
loop_
_space_group_symop_operation_xyz
x,y,z
-x,1/2-y,1/2+z
x,-y,-z
-x,1/2+y,1/2-z
-x,-y,-z
x,1/2+y,1/2-z
-x,y,z
x,1/2-y,1/2+z
1/2+x,1/2+y,z
1/2-x,-y,1/2+z
1/2+x,1/2-y,-z
1/2-x,y,1/2-z
1/2-x,1/2-y,-z
1/2+x,y,1/2-z
1/2-x,1/2+y,z
1/2+x,-y,1/2+z
loop_
_atom_site_type_symbol
_atom_site_label
_atom_site_fract_x
_atom_site_fract_y
_atom_site_fract_z
Si Si1 0.678306 0.587500 0.726493
Si Si2 0.825723 0.760790 0.882420
Si Si3 0.692077 0.876259 0.855516
Si Si4 0.360016 0.373642 0.143590
Si Si5 0.925312 0.047269 0.065326
Si Si6 0.738257 0.557126 0.562140
O O1 0.750000 0.629464 0.750000
O O2 0.651498 0.671499 0.671699
O O3 0.677091 0.450222 0.705907
O O4 0.631482 0.596470 0.785019
O O5 0.767638 0.836110 0.852716
O O6 0.883252 0.843074 0.908369
O O7 0.797767 0.684938 0.941134
O O8 0.641407 0.768331 0.863898
O O9 0.684484 0.962700 0.913852
O O10 0.421780 0.433277 0.110180
O O11 0.295162 0.432704 0.113241
O O12 0.000000 0.091359 0.060533
O O13 0.899148 0.000000 0.000000
O O14 0.766829 0.500000 0.500000
#
# Coordination Sequence:
#
# PCOD8262706 Si02
#       6
#    16  16  16  16  16  16
#     4  11  19  33  54  91 123 152 183 222 300 361
#     4  10  21  35  57  83 114 156 188 235 288 344
#     4  10  20  31  53  87 123 148 177 231 292 353
#     4  11  22  32  57  85 118 156 187 236 286 348
#     4  11  25  44  61  79 110 157 209 244 283 341
#     4  10  20  31  52  89 120 145 179 233 297 350
#
# _framework density 19.090572000000002
#
# number of rings (size 3 to 8) (size 9 to 14) (size 15 to 20)
#    0.000    1.500    6.667    0.500    7.000    1.333 
#    0.000    0.833    0.000    4.500    0.000    0.000 
#    0.000    0.000    0.000    0.000    0.000    0.000 
#
# Total GULP energy -594734.670381 kJ/mol
# GULP energy per Si atom -12390.305633 kJ/mol
# Density = 1.904712 g / cm^3
# Si number density = 19.090572 Si / 1000 Ang^3
#
#
#
# Elastic Constant Matrix: (Units=GPa)
#
#
# Indices 1 2 3 4 5 6 
#
# 1 44.2539 30.9413 19.9157 0.0000 0.0000 0.0000
# 2 30.9413 132.1297 50.6274 0.0000 0.0000 0.0000
# 3 19.9157 50.6274 112.8005 0.0000 0.0000 0.0000
# 4 0.0000 0.0000 0.0000 34.8546 0.0000 0.0000
# 5 0.0000 0.0000 0.0000 0.0000 13.3622 0.0000
# 6 0.0000 0.0000 0.0000 0.0000 0.0000 19.6150
#
#
#
# Elastic Compliance Matrix: (Units=1/GPa)
#
#
# Indices 1 2 3 4 5 6 
#
# 1 0.027539 -0.005538 -0.002376 0.000000 0.000000 0.000000
# 2 -0.005538 0.010254 -0.003624 0.000000 0.000000 0.000000
# 3 -0.002376 -0.003624 0.010911 0.000000 0.000000 0.000000
# 4 0.000000 0.000000 0.000000 0.028691 0.000000 0.000000
# 5 0.000000 0.000000 0.000000 0.000000 0.074838 0.000000
# 6 0.000000 0.000000 0.000000 0.000000 0.000000 0.050982
#
#
# Mechanical properties :
#
#
# Convention : Reuss Voigt Hill
#
# Bulk Modulus (GPa) = 39.02305 54.68365 46.85335
# Shear Modulus (GPa) = 21.29165 26.07969 23.68567
#
# Velocity S-wave (km/s) = 3.34323 3.70009 3.52618
# Velocity P-wave (km/s) = 5.94881 6.85279 6.41674
#
# Compressibility (1/GPa) = 0.02562588
#
# Stress axis : x y z
#
# Youngs Moduli (GPa) = 36.31276 97.52327 91.64648
#
# Poissons Ratio (x) = 0.54011 0.21779
# Poissons Ratio (y) = 0.20111 0.33216
# Poissons Ratio (z) = 0.08629 0.35346
#
# Static dielectric constant tensor:
#      x y z
#    x 2.920700 0.000000 0.000000 
#    y 0.000000 3.988790 0.000000 
#    z 0.000000 0.000000 3.736400 
# 
# 
# High freq. dielectric constant tensor:
#      x y z
#    x 1.663810 0.000000 0.000000 
#    y 0.000000 1.766760 0.000000 
#    z 0.000000 0.000000 1.753990 
# 
# From -- ./inp_files/40859.got.cif
#   From: 2010.03.12/outbox.cif.g09.slc.cpg/sg64_21_cif.got.tgz:40859.got - 2010.04.10 20:19:32.
