data_PCOD8262614
_publ_section_title
;
Structure prediction by ZEFSAII (Michael W. Deem and Ramdas Pophale) SiO2 
 PCOD8262614
Probable space group: C M C A
;
_chemical_formula_sum "Si O2"
_cell_formula_units_Z 104
_cell_length_a 19.598521
_cell_length_b 26.688274
_cell_length_c 9.601510
_cell_angle_alpha 90.000000
_cell_angle_beta 90.000000
_cell_angle_gamma 90.000000
_cell_volume 5022.076512
_symmetry_space_group_name_H-M "C M C A"
_symmetry_group_IT_number 64
_symmetry_cell_setting 'orthorhombic'
loop_
_space_group_symop_operation_xyz
x,y,z
-x,1/2-y,1/2+z
x,-y,-z
-x,1/2+y,1/2-z
-x,-y,-z
x,1/2+y,1/2-z
-x,y,z
x,1/2-y,1/2+z
1/2+x,1/2+y,z
1/2-x,-y,1/2+z
1/2+x,1/2-y,-z
1/2-x,y,1/2-z
1/2-x,1/2-y,-z
1/2+x,y,1/2-z
1/2-x,1/2+y,z
1/2+x,-y,1/2+z
loop_
_atom_site_type_symbol
_atom_site_label
_atom_site_fract_x
_atom_site_fract_y
_atom_site_fract_z
Si Si1 0.655858 0.610460 0.519084
Si Si2 0.302875 0.864949 0.521477
Si Si3 0.250000 0.712102 0.250000
Si Si4 0.924163 0.793008 0.430715
Si Si5 0.329745 0.944266 0.735884
Si Si6 0.367937 0.718466 0.862812
Si Si7 0.578346 0.525138 0.650732
O O1 0.735894 0.613113 0.554900
O O2 0.628300 0.666417 0.512843
O O3 0.646182 0.588898 0.365222
O O4 0.615111 0.578947 0.635947
O O5 0.285508 0.823288 0.637303
O O6 0.341513 0.911684 0.595670
O O7 0.348206 0.838679 0.403294
O O8 0.302069 0.748427 0.328399
O O9 0.918125 0.783907 0.267041
O O10 0.908863 0.741142 0.507870
O O11 0.000000 0.811592 0.464851
O O12 0.250000 0.959814 0.750000
O O13 0.378338 0.993287 0.735592
O O14 0.581255 0.500000 0.500000
O O15 0.500000 0.531190 0.701490
#
# Coordination Sequence:
#
# PCOD8262614 Si02
#       7
#    16  16   8  16  16  16  16
#     4  10  19  36  61  87 117 157 203 264 310 371
#     4  11  19  36  62  90 123 158 206 265 330 372
#     4  12  18  38  62  92 120 160 206 264 318 372
#     4  12  25  41  58  85 124 170 212 253 307 377
#     4   9  18  35  60  90 124 152 200 263 319 376
#     4  12  24  39  61  88 125 165 209 261 312 381
#     4   9  18  34  57  87 119 157 201 250 310 374
#
# _framework density 20.708566000000001
#
# number of rings (size 3 to 8) (size 9 to 14) (size 15 to 20)
#    0.000    1.385    5.385    2.308    0.000    0.615 
#    2.769    1.538    0.000    0.000    0.000    2.154 
#    0.000    0.000    0.000    0.000    0.000    0.000 
#
# Total GULP energy -644798.637697 kJ/mol
# GULP energy per Si atom -12399.973802 kJ/mol
# Density = 2.066143 g / cm^3
# Si number density = 20.708566 Si / 1000 Ang^3
#
#
#
# Elastic Constant Matrix: (Units=GPa)
#
#
# Indices 1 2 3 4 5 6 
#
# 1 94.8541 55.0703 48.9615 0.0000 0.0000 0.0000
# 2 55.0703 91.3899 29.3320 0.0000 0.0000 0.0000
# 3 48.9615 29.3320 67.9609 0.0000 0.0000 0.0000
# 4 0.0000 0.0000 0.0000 39.6022 0.0000 0.0000
# 5 0.0000 0.0000 0.0000 0.0000 21.7152 0.0000
# 6 0.0000 0.0000 0.0000 0.0000 0.0000 21.7118
#
#
#
# Elastic Compliance Matrix: (Units=1/GPa)
#
#
# Indices 1 2 3 4 5 6 
#
# 1 0.022247 -0.009590 -0.011888 0.000000 0.000000 0.000000
# 2 -0.009590 0.016836 -0.000357 0.000000 0.000000 0.000000
# 3 -0.011888 -0.000357 0.023433 0.000000 0.000000 0.000000
# 4 0.000000 0.000000 0.000000 0.025251 0.000000 0.000000
# 5 0.000000 0.000000 0.000000 0.000000 0.046051 0.000000
# 6 0.000000 0.000000 0.000000 0.000000 0.000000 0.046058
#
#
# Mechanical properties :
#
#
# Convention : Reuss Voigt Hill
#
# Bulk Modulus (GPa) = 53.06590 57.88138 55.47364
# Shear Modulus (GPa) = 21.75539 24.66189 23.20864
#
# Velocity S-wave (km/s) = 3.24474 3.45469 3.35136
# Velocity P-wave (km/s) = 6.30226 6.62754 6.46695
#
# Compressibility (1/GPa) = 0.01884449
#
# Stress axis : x y z
#
# Youngs Moduli (GPa) = 44.95050 59.39792 42.67431
#
# Poissons Ratio (x) = 0.56962 0.50732
# Poissons Ratio (y) = 0.43107 0.01525
# Poissons Ratio (z) = 0.53438 0.02122
#
# Static dielectric constant tensor:
#      x y z
#    x 3.749740 0.000000 0.000000 
#    y 0.000000 3.925190 0.000000 
#    z 0.000000 0.000000 3.616790 
# 
# 
# High freq. dielectric constant tensor:
#      x y z
#    x 1.798230 0.000000 0.000000 
#    y 0.000000 1.812770 0.000000 
#    z 0.000000 0.000000 1.792650 
# 
# From -- ./inp_files/8516.got.cif
#   From: 2010.03.12/outbox.cif.g09.slc.cpg/sg64_5_cif.got.tgz:8516.got - 2010.04.10 20:19:32.
