data_PCOD8262622
_publ_section_title
;
Structure prediction by ZEFSAII (Michael W. Deem and Ramdas Pophale) SiO2 
 PCOD8262622
Probable space group: C M C A
;
_chemical_formula_sum "Si O2"
_cell_formula_units_Z 96
_cell_length_a 14.128902
_cell_length_b 13.433450
_cell_length_c 23.418733
_cell_angle_alpha 90.000000
_cell_angle_beta 90.000000
_cell_angle_gamma 90.000000
_cell_volume 4444.873148
_symmetry_space_group_name_H-M "C M C A"
_symmetry_group_IT_number 64
_symmetry_cell_setting 'orthorhombic'
loop_
_space_group_symop_operation_xyz
x,y,z
-x,1/2-y,1/2+z
x,-y,-z
-x,1/2+y,1/2-z
-x,-y,-z
x,1/2+y,1/2-z
-x,y,z
x,1/2-y,1/2+z
1/2+x,1/2+y,z
1/2-x,-y,1/2+z
1/2+x,1/2-y,-z
1/2-x,y,1/2-z
1/2-x,1/2-y,-z
1/2+x,y,1/2-z
1/2-x,1/2+y,z
1/2+x,-y,1/2+z
loop_
_atom_site_type_symbol
_atom_site_label
_atom_site_fract_x
_atom_site_fract_y
_atom_site_fract_z
Si Si1 0.760736 0.744892 0.813426
Si Si2 0.764675 0.977714 0.313692
Si Si3 0.390059 0.855100 0.869997
Si Si4 0.606697 0.674224 0.091971
Si Si5 0.110347 0.271622 0.472799
Si Si6 0.106231 0.547750 0.600266
O O1 0.750000 0.788922 0.750000
O O2 0.805249 0.634771 0.811868
O O3 0.654521 0.757479 0.839144
O O4 0.829082 0.813999 0.851762
O O5 0.750000 0.020659 0.250000
O O6 0.835792 0.045017 0.351028
O O7 0.662177 0.966996 0.341115
O O8 0.500000 0.865191 0.853840
O O9 0.375796 0.832006 0.937892
O O10 0.500000 0.708750 0.107577
O O11 0.606950 0.560195 0.069901
O O12 0.651014 0.736764 0.037849
O O13 0.154219 0.367302 0.439450
O O14 0.000000 0.295650 0.481121
O O15 0.000000 0.580283 0.616889
#
# Coordination Sequence:
#
# PCOD8262622 Si02
#       6
#    16  16  16  16  16  16
#     4  11  24  42  63  91 125 162 214 262 309 379
#     4  11  24  42  60  90 130 166 213 266 315 380
#     4  11  23  41  64  91 126 167 208 256 318 377
#     4  10  21  38  64  95 128 164 208 266 321 373
#     4   9  19  38  62  92 127 162 211 266 316 377
#     4  10  19  36  62  93 124 162 211 266 321 372
#
# _framework density 21.597916999999999
#
# number of rings (size 3 to 8) (size 9 to 14) (size 15 to 20)
#    0.000    1.667    3.333    1.000    0.000    4.667 
#    0.000    4.167    0.000    3.000    0.000    0.000 
#    0.000    0.000    0.000    0.000    0.000    0.000 
#
# Total GULP energy -594742.573496 kJ/mol
# GULP energy per Si atom -12390.470281 kJ/mol
# Density = 2.154876 g / cm^3
# Si number density = 21.597917 Si / 1000 Ang^3
#
#
#
# Elastic Constant Matrix: (Units=GPa)
#
#
# Indices 1 2 3 4 5 6 
#
# 1 100.0514 27.9173 60.3536 0.0000 0.0000 0.0000
# 2 27.9173 109.4406 34.4315 0.0000 0.0000 0.0000
# 3 60.3536 34.4315 150.6609 0.0000 0.0000 0.0000
# 4 0.0000 0.0000 0.0000 21.1365 0.0000 0.0000
# 5 0.0000 0.0000 0.0000 0.0000 26.4612 0.0000
# 6 0.0000 0.0000 0.0000 0.0000 0.0000 25.3818
#
#
#
# Elastic Compliance Matrix: (Units=1/GPa)
#
#
# Indices 1 2 3 4 5 6 
#
# 1 0.013530 -0.001881 -0.004990 0.000000 0.000000 0.000000
# 2 -0.001881 0.010107 -0.001556 0.000000 0.000000 0.000000
# 3 -0.004990 -0.001556 0.008992 0.000000 0.000000 0.000000
# 4 0.000000 0.000000 0.000000 0.047312 0.000000 0.000000
# 5 0.000000 0.000000 0.000000 0.000000 0.037791 0.000000
# 6 0.000000 0.000000 0.000000 0.000000 0.000000 0.039398
#
#
# Mechanical properties :
#
#
# Convention : Reuss Voigt Hill
#
# Bulk Modulus (GPa) = 63.39655 67.28420 65.34037
# Shear Modulus (GPa) = 27.89511 30.42593 29.16052
#
# Velocity S-wave (km/s) = 3.59773 3.75740 3.67843
# Velocity P-wave (km/s) = 6.83191 7.07423 6.95413
#
# Compressibility (1/GPa) = 0.01577373
#
# Stress axis : x y z
#
# Youngs Moduli (GPa) = 73.91017 98.94248 111.20992
#
# Poissons Ratio (x) = 0.18615 0.55494
# Poissons Ratio (y) = 0.13906 0.17305
# Poissons Ratio (z) = 0.36881 0.15396
#
# Static dielectric constant tensor:
#      x y z
#    x 3.754810 0.000000 0.000000 
#    y 0.000000 3.917470 0.000000 
#    z 0.000000 0.000000 4.006690 
# 
# 
# High freq. dielectric constant tensor:
#      x y z
#    x 1.833160 0.000000 0.000000 
#    y 0.000000 1.848050 0.000000 
#    z 0.000000 0.000000 1.850400 
# 
# From -- ./inp_files/39208.got.cif
#   From: 2010.03.12/outbox.cif.g09.slc.cpg/sg64_20_cif.got.tgz:39208.got - 2010.04.10 20:19:32.
