data_PCOD8262483
_publ_section_title
;
Structure prediction by ZEFSAII (Michael W. Deem and Ramdas Pophale) SiO2 
 PCOD8262483
Probable space group: C M C A
;
_chemical_formula_sum "Si O2"
_cell_formula_units_Z 48
_cell_length_a 16.696482
_cell_length_b 25.301230
_cell_length_c 5.086705
_cell_angle_alpha 90.000000
_cell_angle_beta 90.000000
_cell_angle_gamma 90.000000
_cell_volume 2148.835449
_symmetry_space_group_name_H-M "C M C A"
_symmetry_group_IT_number 64
_symmetry_cell_setting 'orthorhombic'
loop_
_space_group_symop_operation_xyz
x,y,z
-x,1/2-y,1/2+z
x,-y,-z
-x,1/2+y,1/2-z
-x,-y,-z
x,1/2+y,1/2-z
-x,y,z
x,1/2-y,1/2+z
1/2+x,1/2+y,z
1/2-x,-y,1/2+z
1/2+x,1/2-y,-z
1/2-x,y,1/2-z
1/2-x,1/2-y,-z
1/2+x,y,1/2-z
1/2-x,1/2+y,z
1/2+x,-y,1/2+z
loop_
_atom_site_type_symbol
_atom_site_label
_atom_site_fract_x
_atom_site_fract_y
_atom_site_fract_z
Si Si1 0.838910 0.726157 0.480926
Si Si2 0.092206 0.443965 0.117944
Si Si3 0.664286 0.396236 0.864789
O O1 0.885299 0.754367 0.240649
O O2 0.750000 0.750000 0.500000
O O3 0.836273 0.663605 0.461979
O O4 0.143057 0.431556 0.380438
O O5 0.000000 0.444635 0.205847
O O6 0.120296 0.500000 0.000000
O O7 0.103239 0.402265 0.879528
O O8 0.750000 0.413484 0.750000
#
# Coordination Sequence:
#
# PCOD8262483 Si02
#       3
#    16  16  16
#     4  10  19  34  60  97 128 171 206 264 334 410
#     4  11  26  47  67  92 138 190 220 264 346 413
#     4  12  23  39  73 105 128 169 235 287 320 390
#
# _framework density 22.337682000000001
#
# number of rings (size 3 to 8) (size 9 to 14) (size 15 to 20)
#    0.000    1.000    3.333    5.000    4.667    5.333 
#    0.000    0.000    0.000   20.000    0.000    0.000 
#    0.000    0.000    0.000    0.000    0.000    0.000 
#
# Total GULP energy -297464.166630 kJ/mol
# GULP energy per Si atom -12394.340276 kJ/mol
# Density = 2.228684 g / cm^3
# Si number density = 22.337682 Si / 1000 Ang^3
#
#
#
# Elastic Constant Matrix: (Units=GPa)
#
#
# Indices 1 2 3 4 5 6 
#
# 1 68.2835 61.8687 57.7917 0.0000 0.0000 0.0000
# 2 61.8687 130.5568 74.8981 0.0000 0.0000 0.0000
# 3 57.7917 74.8981 245.9795 0.0000 0.0000 0.0000
# 4 0.0000 0.0000 0.0000 47.6926 0.0000 0.0000
# 5 0.0000 0.0000 0.0000 0.0000 33.9790 0.0000
# 6 0.0000 0.0000 0.0000 0.0000 0.0000 10.5523
#
#
#
# Elastic Compliance Matrix: (Units=1/GPa)
#
#
# Indices 1 2 3 4 5 6 
#
# 1 0.027386 -0.011252 -0.003008 0.000000 0.000000 0.000000
# 2 -0.011252 0.013904 -0.001590 0.000000 0.000000 0.000000
# 3 -0.003008 -0.001590 0.005256 0.000000 0.000000 0.000000
# 4 0.000000 0.000000 0.000000 0.020968 0.000000 0.000000
# 5 0.000000 0.000000 0.000000 0.000000 0.029430 0.000000
# 6 0.000000 0.000000 0.000000 0.000000 0.000000 0.094766
#
#
# Mechanical properties :
#
#
# Convention : Reuss Voigt Hill
#
# Bulk Modulus (GPa) = 67.35951 92.65964 80.00957
# Shear Modulus (GPa) = 21.89551 35.12888 28.51220
#
# Velocity S-wave (km/s) = 3.13422 3.96994 3.57657
# Velocity P-wave (km/s) = 6.58167 7.91109 7.27680
#
# Compressibility (1/GPa) = 0.01484571
#
# Stress axis : x y z
#
# Youngs Moduli (GPa) = 36.51567 71.92315 190.25078
#
# Poissons Ratio (x) = 0.80927 0.57228
# Poissons Ratio (y) = 0.41087 0.30249
# Poissons Ratio (z) = 0.10984 0.11435
#
# Static dielectric constant tensor:
#      x y z
#    x 3.641710 0.000000 0.000000 
#    y 0.000000 4.108280 0.000000 
#    z 0.000000 0.000000 0.638710 
# 
# 
# High freq. dielectric constant tensor:
#      x y z
#    x 1.834640 0.000000 0.000000 
#    y 0.000000 1.885950 0.000000 
#    z 0.000000 0.000000 1.923510 
# 
# From -- ./inp_files/719.got.cif
#   From: 2010.03.12/outbox.cif.g09.slc.cpg/sg64_1_cif.got.tgz:719.got - 2010.04.10 20:19:32.
