data_PCOD8262639
_publ_section_title
;
Structure prediction by ZEFSAII (Michael W. Deem and Ramdas Pophale) SiO2 
 PCOD8262639
Probable space group: C M C A
;
_chemical_formula_sum "Si O2"
_cell_formula_units_Z 112
_cell_length_a 16.313693
_cell_length_b 24.426711
_cell_length_c 14.148007
_cell_angle_alpha 90.000000
_cell_angle_beta 90.000000
_cell_angle_gamma 90.000000
_cell_volume 5637.837389
_symmetry_space_group_name_H-M "C M C A"
_symmetry_group_IT_number 64
_symmetry_cell_setting 'orthorhombic'
loop_
_space_group_symop_operation_xyz
x,y,z
-x,1/2-y,1/2+z
x,-y,-z
-x,1/2+y,1/2-z
-x,-y,-z
x,1/2+y,1/2-z
-x,y,z
x,1/2-y,1/2+z
1/2+x,1/2+y,z
1/2-x,-y,1/2+z
1/2+x,1/2-y,-z
1/2-x,y,1/2-z
1/2-x,1/2-y,-z
1/2+x,y,1/2-z
1/2-x,1/2+y,z
1/2+x,-y,1/2+z
loop_
_atom_site_type_symbol
_atom_site_label
_atom_site_fract_x
_atom_site_fract_y
_atom_site_fract_z
Si Si1 0.325548 0.012958 0.685646
Si Si2 0.727440 0.345816 0.028441
Si Si3 0.593793 0.583674 0.286783
Si Si4 0.829582 0.699027 0.814039
Si Si5 0.209520 0.449905 0.948149
Si Si6 0.325823 0.820107 0.681475
Si Si7 0.594179 0.872045 0.333073
O O1 0.250000 0.032562 0.750000
O O2 0.377354 0.065544 0.657716
O O3 0.389867 0.974633 0.739824
O O4 0.289033 0.976839 0.600950
O O5 0.803213 0.313532 0.077558
O O6 0.645228 0.337541 0.089880
O O7 0.754838 0.409368 0.027446
O O8 0.709079 0.325427 0.923762
O O9 0.500000 0.587934 0.319532
O O10 0.651982 0.585871 0.379165
O O11 0.610960 0.632654 0.212189
O O12 0.750000 0.694651 0.750000
O O13 0.867715 0.760238 0.809163
O O14 0.893218 0.654388 0.771742
O O15 0.160976 0.500000 0.000000
O O16 0.250000 0.826046 0.750000
O O17 0.500000 0.868220 0.361435
#
# Coordination Sequence:
#
# PCOD8262639 Si02
#       7
#    16  16  16  16  16  16  16
#     4  10  19  37  60  82 113 159 204 245 299 369
#     4  11  20  39  63  93 118 159 215 257 307 377
#     4  11  23  37  58  89 125 163 200 256 325 376
#     4   9  22  38  64  88 114 162 210 257 308 372
#     4  11  21  37  62  87 123 164 210 260 302 375
#     4  11  20  40  65  88 117 158 213 259 303 375
#     4  11  23  39  58  89 126 159 201 260 324 377
#
# _framework density 19.865773999999998
#
# number of rings (size 3 to 8) (size 9 to 14) (size 15 to 20)
#    0.000    1.429    4.286    2.571    2.000    1.429 
#    0.000    1.429    0.000    0.000    0.000    0.000 
#    0.000    0.000    0.000    0.000    0.000    0.000 
#
# Total GULP energy -694167.600131 kJ/mol
# GULP energy per Si atom -12395.850002 kJ/mol
# Density = 1.982056 g / cm^3
# Si number density = 19.865774 Si / 1000 Ang^3
#
#
#
# Elastic Constant Matrix: (Units=GPa)
#
#
# Indices 1 2 3 4 5 6 
#
# 1 91.4785 37.8742 37.0091 0.0000 0.0000 0.0000
# 2 37.8742 88.2162 23.9157 0.0000 0.0000 0.0000
# 3 37.0091 23.9157 103.4717 0.0000 0.0000 0.0000
# 4 0.0000 0.0000 0.0000 21.8196 0.0000 0.0000
# 5 0.0000 0.0000 0.0000 0.0000 17.7418 0.0000
# 6 0.0000 0.0000 0.0000 0.0000 0.0000 13.3207
#
#
#
# Elastic Compliance Matrix: (Units=1/GPa)
#
#
# Indices 1 2 3 4 5 6 
#
# 1 0.014740 -0.005226 -0.004064 0.000000 0.000000 0.000000
# 2 -0.005226 0.013947 -0.001354 0.000000 0.000000 0.000000
# 3 -0.004064 -0.001354 0.011431 0.000000 0.000000 0.000000
# 4 0.000000 0.000000 0.000000 0.045830 0.000000 0.000000
# 5 0.000000 0.000000 0.000000 0.000000 0.056364 0.000000
# 6 0.000000 0.000000 0.000000 0.000000 0.000000 0.075071
#
#
# Mechanical properties :
#
#
# Convention : Reuss Voigt Hill
#
# Bulk Modulus (GPa) = 53.11178 53.41827 53.26502
# Shear Modulus (GPa) = 20.41247 22.86757 21.64002
#
# Velocity S-wave (km/s) = 3.20897 3.39647 3.30405
# Velocity P-wave (km/s) = 6.36580 6.50610 6.43633
#
# Compressibility (1/GPa) = 0.01882822
#
# Stress axis : x y z
#
# Youngs Moduli (GPa) = 67.84482 71.70106 87.48108
#
# Poissons Ratio (x) = 0.37474 0.35552
# Poissons Ratio (y) = 0.35459 0.11847
# Poissons Ratio (z) = 0.27572 0.09710
#
# Static dielectric constant tensor:
#      x y z
#    x 3.301850 0.000000 0.000000 
#    y 0.000000 3.909060 0.000000 
#    z 0.000000 0.000000 3.825650 
# 
# 
# High freq. dielectric constant tensor:
#      x y z
#    x 1.736940 0.000000 0.000000 
#    y 0.000000 1.789530 0.000000 
#    z 0.000000 0.000000 1.778480 
# 
# From -- ./inp_files/24272.got.cif
#   From: 2010.03.12/outbox.cif.g09.slc.cpg/sg64_13_cif.got.tgz:24272.got - 2010.04.10 20:19:32.
