data_PCOD8262886
_publ_section_title
;
Structure prediction by ZEFSAII (Michael W. Deem and Ramdas Pophale) SiO2 
 PCOD8262886
Probable space group: C M C A
;
_chemical_formula_sum "Si O2"
_cell_formula_units_Z 80
_cell_length_a 9.065995
_cell_length_b 26.857174
_cell_length_c 18.048959
_cell_angle_alpha 90.000000
_cell_angle_beta 90.000000
_cell_angle_gamma 90.000000
_cell_volume 4394.686974
_symmetry_space_group_name_H-M "C M C A"
_symmetry_group_IT_number 64
_symmetry_cell_setting 'orthorhombic'
loop_
_space_group_symop_operation_xyz
x,y,z
-x,1/2-y,1/2+z
x,-y,-z
-x,1/2+y,1/2-z
-x,-y,-z
x,1/2+y,1/2-z
-x,y,z
x,1/2-y,1/2+z
1/2+x,1/2+y,z
1/2-x,-y,1/2+z
1/2+x,1/2-y,-z
1/2-x,y,1/2-z
1/2-x,1/2-y,-z
1/2+x,y,1/2-z
1/2-x,1/2+y,z
1/2+x,-y,1/2+z
loop_
_atom_site_type_symbol
_atom_site_label
_atom_site_fract_x
_atom_site_fract_y
_atom_site_fract_z
Si Si1 0.669899 0.912762 0.824735
Si Si2 0.170339 0.945466 0.968430
Si Si3 0.672654 0.789584 0.174019
Si Si4 0.671792 0.356227 0.463996
Si Si5 0.167448 0.695008 0.113807
O O1 0.500000 0.928508 0.820077
O O2 0.750000 0.929201 0.750000
O O3 0.742887 0.942686 0.891666
O O4 0.687226 0.853881 0.836448
O O5 0.000000 0.932922 0.954123
O O6 0.233881 0.906300 0.027967
O O7 0.193511 0.000000 0.000000
O O8 0.500000 0.786076 0.188266
O O9 0.750000 0.805229 0.250000
O O10 0.712396 0.831595 0.114054
O O11 0.723936 0.736044 0.145657
O O12 0.500000 0.370504 0.470439
O O13 0.711749 0.317253 0.529174
O O14 0.000000 0.714949 0.118167
#
# Coordination Sequence:
#
# PCOD8262886 Si02
#       5
#    16  16  16  16  16
#     4  10  20  34  54  81 111 140 173 215 262 311
#     4  10  21  37  58  82 105 133 173 218 266 319
#     4  11  22  34  50  75 107 142 178 213 254 305
#     4   9  20  37  55  76 102 136 177 217 260 311
#     4   9  18  33  53  77 104 136 174 213 256 306
#
# _framework density 18.203797999999999
#
# number of rings (size 3 to 8) (size 9 to 14) (size 15 to 20)
#    0.000    2.200    0.000    4.200    0.000    8.800 
#    0.000    1.000    0.000    2.400    0.000    0.000 
#    0.000    0.000    0.000    0.000    0.000    0.000 
#
# Total GULP energy -496156.287538 kJ/mol
# GULP energy per Si atom -12403.907188 kJ/mol
# Density = 1.816237 g / cm^3
# Si number density = 18.203798 Si / 1000 Ang^3
#
#
#
# Elastic Constant Matrix: (Units=GPa)
#
#
# Indices 1 2 3 4 5 6 
#
# 1 120.0569 56.1177 75.9415 0.0000 0.0000 0.0000
# 2 56.1177 73.4599 54.8747 0.0000 0.0000 0.0000
# 3 75.9415 54.8747 140.4169 0.0000 0.0000 0.0000
# 4 0.0000 0.0000 0.0000 15.5786 0.0000 0.0000
# 5 0.0000 0.0000 0.0000 0.0000 34.9495 0.0000
# 6 0.0000 0.0000 0.0000 0.0000 0.0000 24.6557
#
#
#
# Elastic Compliance Matrix: (Units=1/GPa)
#
#
# Indices 1 2 3 4 5 6 
#
# 1 0.015257 -0.007755 -0.005220 0.000000 0.000000 0.000000
# 2 -0.007755 0.023167 -0.004860 0.000000 0.000000 0.000000
# 3 -0.005220 -0.004860 0.011844 0.000000 0.000000 0.000000
# 4 0.000000 0.000000 0.000000 0.064191 0.000000 0.000000
# 5 0.000000 0.000000 0.000000 0.000000 0.028613 0.000000
# 6 0.000000 0.000000 0.000000 0.000000 0.000000 0.040559
#
#
# Mechanical properties :
#
#
# Convention : Reuss Voigt Hill
#
# Bulk Modulus (GPa) = 68.50413 78.64463 73.57438
# Shear Modulus (GPa) = 22.30490 24.83675 23.57082
#
# Velocity S-wave (km/s) = 3.50421 3.69775 3.60228
# Velocity P-wave (km/s) = 7.35433 7.84393 7.60307
#
# Compressibility (1/GPa) = 0.01459766
#
# Stress axis : x y z
#
# Youngs Moduli (GPa) = 65.54575 43.16434 84.42994
#
# Poissons Ratio (x) = 0.33474 0.44076
# Poissons Ratio (y) = 0.50831 0.41029
# Poissons Ratio (z) = 0.34218 0.20976
#
# Static dielectric constant tensor:
#      x y z
#    x 3.462240 0.000000 0.000000 
#    y 0.000000 3.105560 0.000000 
#    z 0.000000 0.000000 3.525730 
# 
# 
# High freq. dielectric constant tensor:
#      x y z
#    x 1.717320 0.000000 0.000000 
#    y 0.000000 1.684810 0.000000 
#    z 0.000000 0.000000 1.712890 
# 
# From -- ./inp_files/29709.got.cif
#   From: 2010.03.12/outbox.cif.g09.slc.cpg/sg64_15_cif.got.tgz:29709.got - 2010.04.10 20:19:32.
