data_PCOD8262189
_publ_section_title
;
Structure prediction by ZEFSAII (Michael W. Deem and Ramdas Pophale) SiO2 
 PCOD8262189
Probable space group: C M C A
;
_chemical_formula_sum "Si O2"
_cell_formula_units_Z 96
_cell_length_a 15.118991
_cell_length_b 14.641705
_cell_length_c 22.744309
_cell_angle_alpha 90.000000
_cell_angle_beta 90.000000
_cell_angle_gamma 90.000000
_cell_volume 5034.857785
_symmetry_space_group_name_H-M "C M C A"
_symmetry_group_IT_number 64
_symmetry_cell_setting 'orthorhombic'
loop_
_space_group_symop_operation_xyz
x,y,z
-x,1/2-y,1/2+z
x,-y,-z
-x,1/2+y,1/2-z
-x,-y,-z
x,1/2+y,1/2-z
-x,y,z
x,1/2-y,1/2+z
1/2+x,1/2+y,z
1/2-x,-y,1/2+z
1/2+x,1/2-y,-z
1/2-x,y,1/2-z
1/2-x,1/2-y,-z
1/2+x,y,1/2-z
1/2-x,1/2+y,z
1/2+x,-y,1/2+z
loop_
_atom_site_type_symbol
_atom_site_label
_atom_site_fract_x
_atom_site_fract_y
_atom_site_fract_z
Si Si1 0.813608 0.300338 0.044288
Si Si2 0.406582 0.087189 0.039813
Si Si3 0.898553 0.581809 0.790391
Si Si4 0.100128 0.270860 0.658538
Si Si5 0.601000 0.025201 0.327557
Si Si6 0.272850 0.517737 0.608473
O O1 0.839402 0.239324 0.100469
O O2 0.770548 0.395488 0.065745
O O3 0.750000 0.250000 0.000000
O O4 0.896764 0.325788 0.003214
O O5 0.500000 0.101112 0.075129
O O6 0.320314 0.071687 0.080595
O O7 0.418464 0.000000 0.000000
O O8 0.881525 0.691364 0.793273
O O9 0.878820 0.542876 0.726024
O O10 0.830057 0.534713 0.833513
O O11 0.000000 0.559382 0.808839
O O12 0.116366 0.368396 0.690135
O O13 0.000000 0.263203 0.635818
O O14 0.500000 0.010778 0.350000
O O15 0.670199 0.002518 0.378784
#
# Coordination Sequence:
#
# PCOD8262189 Si02
#       6
#    16  16  16  16  16  16
#     4  10  19  32  51  75 105 138 175 215 260 313
#     4   9  17  30  51  76 100 130 172 221 263 299
#     4   9  18  34  56  79 102 132 174 220 265 314
#     4   9  18  34  55  76 101 137 177 216 262 316
#     4  10  20  35  54  77 107 142 177 214 262 323
#     4  10  19  33  52  75 105 137 172 217 266 311
#
# _framework density 19.067072
#
# number of rings (size 3 to 8) (size 9 to 14) (size 15 to 20)
#    0.000    2.500    0.000    2.500    0.000    4.000 
#    0.000   10.000    0.000    8.500    0.000    0.000 
#    0.000    0.000    0.000    0.000    0.000    0.000 
#
# Total GULP energy -594634.475810 kJ/mol
# GULP energy per Si atom -12388.218246 kJ/mol
# Density = 1.902367 g / cm^3
# Si number density = 19.067072 Si / 1000 Ang^3
#
#
#
# Elastic Constant Matrix: (Units=GPa)
#
#
# Indices 1 2 3 4 5 6 
#
# 1 116.2483 44.3919 56.8196 0.0000 0.0000 0.0000
# 2 44.3919 90.5347 48.6353 0.0000 0.0000 0.0000
# 3 56.8196 48.6353 80.6794 0.0000 0.0000 0.0000
# 4 0.0000 0.0000 0.0000 30.7740 0.0000 0.0000
# 5 0.0000 0.0000 0.0000 0.0000 36.0892 0.0000
# 6 0.0000 0.0000 0.0000 0.0000 0.0000 -7.7013
#
#
#
# Elastic Compliance Matrix: (Units=1/GPa)
#
#
# Indices 1 2 3 4 5 6 
#
# 1 0.013413 -0.002222 -0.008107 0.000000 0.000000 0.000000
# 2 -0.002222 0.016704 -0.008505 0.000000 0.000000 0.000000
# 3 -0.008107 -0.008505 0.023231 0.000000 0.000000 0.000000
# 4 0.000000 0.000000 0.000000 0.032495 0.000000 0.000000
# 5 0.000000 0.000000 0.000000 0.000000 0.027709 0.000000
# 6 0.000000 0.000000 0.000000 0.000000 0.000000 -0.129847
#
#
# Mechanical properties :
#
#
# Convention : Reuss Voigt Hill
#
# Bulk Modulus (GPa) = 63.77178 65.23955 64.50567
# Shear Modulus (GPa) = 187.97914 21.00673 104.49293
#
# Velocity S-wave (km/s) = 9.93994 3.32283 7.41092
# Velocity P-wave (km/s) = 12.85516 7.00084 10.35053
#
# Compressibility (1/GPa) = 0.01568092
#
# Stress axis : x y z
#
# Youngs Moduli (GPa) = 74.55272 59.86751 43.04580
#
# Poissons Ratio (x) = 0.13301 0.34898
# Poissons Ratio (y) = 0.16564 0.36609
# Poissons Ratio (z) = 0.60441 0.50915
#
# Static dielectric constant tensor:
#      x y z
#    x 3.776950 0.000000 0.000000 
#    y 0.000000 3.296280 0.000000 
#    z 0.000000 0.000000 3.143820 
# 
# 
# High freq. dielectric constant tensor:
#      x y z
#    x 1.747540 0.000000 0.000000 
#    y 0.000000 1.736060 0.000000 
#    z 0.000000 0.000000 1.717090 
# 
# From -- ./inp_files/39191.got.cif
#   From: 2010.03.12/outbox.cif.g09.slc.cpg/sg64_20_cif.got.tgz:39191.got - 2010.04.10 20:19:32.
