data_PCOD8262130
_publ_section_title
;
Structure prediction by ZEFSAII (Michael W. Deem and Ramdas Pophale) SiO2 
 PCOD8262130
Probable space group: C M C A
;
_chemical_formula_sum "Si O2"
_cell_formula_units_Z 104
_cell_length_a 30.873856
_cell_length_b 21.302029
_cell_length_c 8.010430
_cell_angle_alpha 90.000000
_cell_angle_beta 90.000000
_cell_angle_gamma 90.000000
_cell_volume 5268.265765
_symmetry_space_group_name_H-M "C M C A"
_symmetry_group_IT_number 64
_symmetry_cell_setting 'orthorhombic'
loop_
_space_group_symop_operation_xyz
x,y,z
-x,1/2-y,1/2+z
x,-y,-z
-x,1/2+y,1/2-z
-x,-y,-z
x,1/2+y,1/2-z
-x,y,z
x,1/2-y,1/2+z
1/2+x,1/2+y,z
1/2-x,-y,1/2+z
1/2+x,1/2-y,-z
1/2-x,y,1/2-z
1/2-x,1/2-y,-z
1/2+x,y,1/2-z
1/2-x,1/2+y,z
1/2+x,-y,1/2+z
loop_
_atom_site_type_symbol
_atom_site_label
_atom_site_fract_x
_atom_site_fract_y
_atom_site_fract_z
Si Si1 0.593990 0.000000 0.000000
Si Si2 0.176125 0.719687 0.639655
Si Si3 0.126626 0.091556 0.264067
Si Si4 0.706893 0.341370 0.830841
Si Si5 0.048587 0.881303 0.339968
Si Si6 0.450870 0.572015 0.029042
Si Si7 0.625124 0.689902 0.555218
O O1 0.623947 0.021884 0.155671
O O2 0.564395 0.942132 0.057606
O O3 0.198092 0.782021 0.711113
O O4 0.210702 0.682133 0.524145
O O5 0.135633 0.740899 0.518367
O O6 0.157338 0.676576 0.787878
O O7 0.170130 0.103972 0.158654
O O8 0.083056 0.103786 0.156627
O O9 0.132799 0.139077 0.415072
O O10 0.750000 0.371989 0.750000
O O11 0.075759 0.818420 0.383016
O O12 0.000000 0.867511 0.396681
O O13 0.052078 0.891700 0.143701
O O14 0.500000 0.575845 0.102204
O O15 0.437514 0.500000 0.000000
#
# Coordination Sequence:
#
# PCOD8262130 Si02
#       7
#     8  16  16  16  16  16  16
#     4  10  19  32  50  70 102 138 174 214 263 320
#     4   9  18  35  55  78 106 136 176 220 273 325
#     4  10  20  33  52  77 108 141 175 225 269 318
#     4  10  19  33  57  83 107 136 175 223 271 328
#     4  10  19  31  50  77 104 134 176 222 267 320
#     4  10  19  32  52  79 106 137 180 225 270 320
#     4   9  19  33  53  78 104 142 178 218 274 329
#
# _framework density 19.740842000000001
#
# number of rings (size 3 to 8) (size 9 to 14) (size 15 to 20)
#    0.000    2.308    1.538    1.615    0.000    2.462 
#    0.000    0.769    1.692    5.538    0.000    0.000 
#    0.000    0.000    0.000    0.000    0.000    0.000 
#
# Total GULP energy -644243.172092 kJ/mol
# GULP energy per Si atom -12389.291771 kJ/mol
# Density = 1.969591 g / cm^3
# Si number density = 19.740842 Si / 1000 Ang^3
#
#
#
# Elastic Constant Matrix: (Units=GPa)
#
#
# Indices 1 2 3 4 5 6 
#
# 1 104.2620 21.4155 34.1828 0.0000 0.0000 0.0000
# 2 21.4155 17.7934 14.0271 0.0000 0.0000 0.0000
# 3 34.1828 14.0271 96.5323 0.0000 0.0000 0.0000
# 4 0.0000 0.0000 0.0000 31.1775 0.0000 0.0000
# 5 0.0000 0.0000 0.0000 0.0000 32.5665 0.0000
# 6 0.0000 0.0000 0.0000 0.0000 0.0000 22.8675
#
#
#
# Elastic Compliance Matrix: (Units=1/GPa)
#
#
# Indices 1 2 3 4 5 6 
#
# 1 0.013336 -0.013923 -0.002699 0.000000 0.000000 0.000000
# 2 -0.013923 0.078007 -0.006405 0.000000 0.000000 0.000000
# 3 -0.002699 -0.006405 0.012246 0.000000 0.000000 0.000000
# 4 0.000000 0.000000 0.000000 0.032074 0.000000 0.000000
# 5 0.000000 0.000000 0.000000 0.000000 0.030706 0.000000
# 6 0.000000 0.000000 0.000000 0.000000 0.000000 0.043730
#
#
# Mechanical properties :
#
#
# Convention : Reuss Voigt Hill
#
# Bulk Modulus (GPa) = 17.38084 39.75985 28.57035
# Shear Modulus (GPa) = 18.15988 27.25312 22.70650
#
# Velocity S-wave (km/s) = 3.03630 3.71960 3.39518
# Velocity P-wave (km/s) = 4.59519 6.21545 5.46569
#
# Compressibility (1/GPa) = 0.05753462
#
# Stress axis : x y z
#
# Youngs Moduli (GPa) = 74.98532 12.81934 81.66093
#
# Poissons Ratio (x) = 0.17848 0.22042
# Poissons Ratio (y) = 1.04401 0.52304
# Poissons Ratio (z) = 0.20240 0.08211
#
# Static dielectric constant tensor:
#      x y z
#    x 3.844760 0.000000 0.000000 
#    y 0.000000 3.554380 0.000000 
#    z 0.000000 0.000000 3.930030 
# 
# 
# High freq. dielectric constant tensor:
#      x y z
#    x 1.755970 0.000000 0.000000 
#    y 0.000000 1.727150 0.000000 
#    z 0.000000 0.000000 1.790590 
# 
# From -- ./inp_files/10581.got.cif
#   From: 2010.03.12/outbox.cif.g09.slc.cpg/sg64_6_cif.got.tgz:10581.got - 2010.04.10 20:19:32.
