data_PCOD8262797
_publ_section_title
;
Structure prediction by ZEFSAII (Michael W. Deem and Ramdas Pophale) SiO2 
 PCOD8262797
Probable space group: C M C A
;
_chemical_formula_sum "Si O2"
_cell_formula_units_Z 96
_cell_length_a 9.000412
_cell_length_b 22.441041
_cell_length_c 22.954968
_cell_angle_alpha 90.000000
_cell_angle_beta 90.000000
_cell_angle_gamma 90.000000
_cell_volume 4636.412637
_symmetry_space_group_name_H-M "C M C A"
_symmetry_group_IT_number 64
_symmetry_cell_setting 'orthorhombic'
loop_
_space_group_symop_operation_xyz
x,y,z
-x,1/2-y,1/2+z
x,-y,-z
-x,1/2+y,1/2-z
-x,-y,-z
x,1/2+y,1/2-z
-x,y,z
x,1/2-y,1/2+z
1/2+x,1/2+y,z
1/2-x,-y,1/2+z
1/2+x,1/2-y,-z
1/2-x,y,1/2-z
1/2-x,1/2-y,-z
1/2+x,y,1/2-z
1/2-x,1/2+y,z
1/2+x,-y,1/2+z
loop_
_atom_site_type_symbol
_atom_site_label
_atom_site_fract_x
_atom_site_fract_y
_atom_site_fract_z
Si Si1 0.176589 0.318590 0.313185
Si Si2 0.172621 0.855720 0.523252
Si Si3 0.832707 0.218104 0.113138
Si Si4 0.164795 0.103092 0.192662
Si Si5 0.827637 0.465504 0.899034
Si Si6 0.328015 0.100216 0.898805
O O1 0.250000 0.312319 0.250000
O O2 0.230442 0.266060 0.355289
O O3 0.227717 0.379976 0.344029
O O4 0.000000 0.316544 0.306057
O O5 0.264929 0.800940 0.550653
O O6 0.205450 0.857479 0.454295
O O7 0.000000 0.844270 0.536089
O O8 0.221036 0.919714 0.550264
O O9 0.835795 0.159853 0.151861
O O10 0.000000 0.243511 0.104076
O O11 0.250000 0.122150 0.250000
O O12 0.000000 0.082859 0.209550
O O13 0.242602 0.047897 0.160859
O O14 0.788458 0.532790 0.917580
O O15 0.000000 0.458204 0.885536
O O16 0.500000 0.105037 0.880287
#
# Coordination Sequence:
#
# PCOD8262797 Si02
#       6
#    16  16  16  16  16  16
#     4  12  26  43  62  83 111 150 193 236 284 337
#     4   9  18  35  61  91 119 148 186 232 282 334
#     4  10  21  38  60  86 115 147 187 235 287 340
#     4  10  20  33  53  81 111 145 186 235 287 338
#     4   9  18  34  57  84 115 151 189 231 280 333
#     4  10  21  38  60  86 117 153 191 231 277 333
#
# _framework density 20.705663999999999
#
# number of rings (size 3 to 8) (size 9 to 14) (size 15 to 20)
#    0.000    2.000    0.000    3.500    0.000    8.000 
#    0.000    0.000    0.000    5.000    0.000    0.000 
#    0.000    0.000    0.000    0.000    0.000    0.000 
#
# Total GULP energy -595243.141468 kJ/mol
# GULP energy per Si atom -12400.898781 kJ/mol
# Density = 2.065854 g / cm^3
# Si number density = 20.705664 Si / 1000 Ang^3
#
#
#
# Elastic Constant Matrix: (Units=GPa)
#
#
# Indices 1 2 3 4 5 6 
#
# 1 113.3003 33.5919 38.3444 0.0000 0.0000 0.0000
# 2 33.5919 59.8593 24.8834 0.0000 0.0000 0.0000
# 3 38.3444 24.8834 75.0260 0.0000 0.0000 0.0000
# 4 0.0000 0.0000 0.0000 20.6686 0.0000 0.0000
# 5 0.0000 0.0000 0.0000 0.0000 34.4716 0.0000
# 6 0.0000 0.0000 0.0000 0.0000 0.0000 27.3735
#
#
#
# Elastic Compliance Matrix: (Units=1/GPa)
#
#
# Indices 1 2 3 4 5 6 
#
# 1 0.011729 -0.004744 -0.004421 0.000000 0.000000 0.000000
# 2 -0.004744 0.021296 -0.004639 0.000000 0.000000 0.000000
# 3 -0.004421 -0.004639 0.017127 0.000000 0.000000 0.000000
# 4 0.000000 0.000000 0.000000 0.048383 0.000000 0.000000
# 5 0.000000 0.000000 0.000000 0.000000 0.029009 0.000000
# 6 0.000000 0.000000 0.000000 0.000000 0.000000 0.036532
#
#
# Mechanical properties :
#
#
# Convention : Reuss Voigt Hill
#
# Bulk Modulus (GPa) = 44.35675 49.09166 46.72421
# Shear Modulus (GPa) = 25.10066 26.59380 25.84723
#
# Velocity S-wave (km/s) = 3.48553 3.58770 3.53699
# Velocity P-wave (km/s) = 6.13739 6.39710 6.26859
#
# Compressibility (1/GPa) = 0.02254448
#
# Stress axis : x y z
#
# Youngs Moduli (GPa) = 85.25965 46.95608 58.38867
#
# Poissons Ratio (x) = 0.22277 0.25813
# Poissons Ratio (y) = 0.40449 0.27084
# Poissons Ratio (z) = 0.37692 0.21781
#
# Static dielectric constant tensor:
#      x y z
#    x 3.947730 0.000000 0.000000 
#    y 0.000000 3.777020 0.000000 
#    z 0.000000 0.000000 3.837650 
# 
# 
# High freq. dielectric constant tensor:
#      x y z
#    x 1.804930 0.000000 0.000000 
#    y 0.000000 1.810530 0.000000 
#    z 0.000000 0.000000 1.813180 
# 
# From -- ./inp_files/42971.got.cif
#   From: 2010.03.12/outbox.cif.g09.slc.cpg/sg64_22_cif.got.tgz:42971.got - 2010.04.10 20:19:32.
