data_PCOD8262286
_publ_section_title
;
Structure prediction by ZEFSAII (Michael W. Deem and Ramdas Pophale) SiO2 
 PCOD8262286
Probable space group: C M C A
;
_chemical_formula_sum "Si O2"
_cell_formula_units_Z 80
_cell_length_a 9.153893
_cell_length_b 33.141947
_cell_length_c 14.638605
_cell_angle_alpha 90.000000
_cell_angle_beta 90.000000
_cell_angle_gamma 90.000000
_cell_volume 4441.028316
_symmetry_space_group_name_H-M "C M C A"
_symmetry_group_IT_number 64
_symmetry_cell_setting 'orthorhombic'
loop_
_space_group_symop_operation_xyz
x,y,z
-x,1/2-y,1/2+z
x,-y,-z
-x,1/2+y,1/2-z
-x,-y,-z
x,1/2+y,1/2-z
-x,y,z
x,1/2-y,1/2+z
1/2+x,1/2+y,z
1/2-x,-y,1/2+z
1/2+x,1/2-y,-z
1/2-x,y,1/2-z
1/2-x,1/2-y,-z
1/2+x,y,1/2-z
1/2-x,1/2+y,z
1/2+x,-y,1/2+z
loop_
_atom_site_type_symbol
_atom_site_label
_atom_site_fract_x
_atom_site_fract_y
_atom_site_fract_z
Si Si1 0.327200 0.151693 0.499280
Si Si2 0.173393 0.994256 0.152212
Si Si3 0.169250 0.288139 0.657800
Si Si4 0.827805 0.060404 0.012139
Si Si5 0.828696 0.696853 0.843985
O O1 0.500000 0.154868 0.517970
O O2 0.276611 0.180543 0.417611
O O3 0.276360 0.106383 0.476304
O O4 0.238644 0.165235 0.586879
O O5 0.250000 0.990264 0.250000
O O6 0.224725 0.957616 0.085551
O O7 0.000000 0.993997 0.168549
O O8 0.227240 0.034999 0.100068
O O9 0.250000 0.299395 0.750000
O O10 0.204933 0.242739 0.624366
O O11 0.000000 0.293267 0.678467
O O12 0.000000 0.056779 0.011888
O O13 0.750000 0.687788 0.750000
O O14 0.000000 0.689142 0.833299
#
# Coordination Sequence:
#
# PCOD8262286 Si02
#       5
#    16  16  16  16  16
#     4  10  19  33  52  74  99 129 163 204 247 288
#     4   9  17  33  54  73  95 128 161 193 236 288
#     4   9  19  33  50  71  98 131 167 203 244 290
#     4   8  17  33  51  71  99 130 159 190 238 297
#     4  10  20  34  50  71  98 131 167 204 244 290
#
# _framework density 18.013846999999998
#
# number of rings (size 3 to 8) (size 9 to 14) (size 15 to 20)
#    0.000    2.800    0.000    2.400    0.000    3.200 
#    0.000    6.000    0.000    0.000    0.000    0.000 
#    0.000    0.000    0.000    0.000    0.000    0.000 
#
# Total GULP energy -495873.451671 kJ/mol
# GULP energy per Si atom -12396.836292 kJ/mol
# Density = 1.797285 g / cm^3
# Si number density = 18.013847 Si / 1000 Ang^3
#
#
#
# Elastic Constant Matrix: (Units=GPa)
#
#
# Indices 1 2 3 4 5 6 
#
# 1 36.2837 15.3687 22.9820 0.0000 0.0000 0.0000
# 2 15.3687 66.4827 17.6589 0.0000 0.0000 0.0000
# 3 22.9820 17.6589 78.2932 0.0000 0.0000 0.0000
# 4 0.0000 0.0000 0.0000 17.0049 0.0000 0.0000
# 5 0.0000 0.0000 0.0000 0.0000 36.8468 0.0000
# 6 0.0000 0.0000 0.0000 0.0000 0.0000 18.2817
#
#
#
# Elastic Compliance Matrix: (Units=1/GPa)
#
#
# Indices 1 2 3 4 5 6 
#
# 1 0.035871 -0.005846 -0.009211 0.000000 0.000000 0.000000
# 2 -0.005846 0.016953 -0.002108 0.000000 0.000000 0.000000
# 3 -0.009211 -0.002108 0.015952 0.000000 0.000000 0.000000
# 4 0.000000 0.000000 0.000000 0.058807 0.000000 0.000000
# 5 0.000000 0.000000 0.000000 0.000000 0.027139 0.000000
# 6 0.000000 0.000000 0.000000 0.000000 0.000000 0.054700
#
#
# Mechanical properties :
#
#
# Convention : Reuss Voigt Hill
#
# Bulk Modulus (GPa) = 29.03051 32.56430 30.79741
# Shear Modulus (GPa) = 19.59006 22.76334 21.17670
#
# Velocity S-wave (km/s) = 3.30130 3.55865 3.43239
# Velocity P-wave (km/s) = 5.53915 5.91625 5.73080
#
# Compressibility (1/GPa) = 0.03444652
#
# Stress axis : x y z
#
# Youngs Moduli (GPa) = 27.87785 58.98773 62.68940
#
# Poissons Ratio (x) = 0.34482 0.57743
# Poissons Ratio (y) = 0.16296 0.13213
# Poissons Ratio (z) = 0.25678 0.12433
#
# Static dielectric constant tensor:
#      x y z
#    x 3.102390 0.000000 0.000000 
#    y 0.000000 3.710260 0.000000 
#    z 0.000000 0.000000 3.118470 
# 
# 
# High freq. dielectric constant tensor:
#      x y z
#    x 1.675520 0.000000 0.000000 
#    y 0.000000 1.701650 0.000000 
#    z 0.000000 0.000000 1.701940 
# 
# From -- ./inp_files/13200.got.cif
#   From: 2010.03.12/outbox.cif.g09.slc.cpg/sg64_7_cif.got.tgz:13200.got - 2010.04.10 20:19:32.
