data_PCOD8262812
_publ_section_title
;
Structure prediction by ZEFSAII (Michael W. Deem and Ramdas Pophale) SiO2 
 PCOD8262812
Probable space group: C M C A
;
_chemical_formula_sum "Si O2"
_cell_formula_units_Z 96
_cell_length_a 14.306899
_cell_length_b 14.853019
_cell_length_c 22.373852
_cell_angle_alpha 90.000000
_cell_angle_beta 90.000000
_cell_angle_gamma 90.000000
_cell_volume 4754.457929
_symmetry_space_group_name_H-M "C M C A"
_symmetry_group_IT_number 64
_symmetry_cell_setting 'orthorhombic'
loop_
_space_group_symop_operation_xyz
x,y,z
-x,1/2-y,1/2+z
x,-y,-z
-x,1/2+y,1/2-z
-x,-y,-z
x,1/2+y,1/2-z
-x,y,z
x,1/2-y,1/2+z
1/2+x,1/2+y,z
1/2-x,-y,1/2+z
1/2+x,1/2-y,-z
1/2-x,y,1/2-z
1/2-x,1/2-y,-z
1/2+x,y,1/2-z
1/2-x,1/2+y,z
1/2+x,-y,1/2+z
loop_
_atom_site_type_symbol
_atom_site_label
_atom_site_fract_x
_atom_site_fract_y
_atom_site_fract_z
Si Si1 0.786064 0.959971 0.117835
Si Si2 0.898067 0.984289 0.565713
Si Si3 0.750998 0.771446 0.320511
Si Si4 0.609622 0.371696 0.015133
Si Si5 0.888272 0.636479 0.377015
Si Si6 0.399521 0.785206 0.899870
O O1 0.783275 0.870101 0.157665
O O2 0.835876 0.948383 0.052803
O O3 0.676298 0.980233 0.112882
O O4 0.841229 0.044019 0.149391
O O5 0.911450 0.879301 0.569479
O O6 0.000000 0.031304 0.576176
O O7 0.858781 0.000000 0.500000
O O8 0.750000 0.771757 0.250000
O O9 0.847712 0.727715 0.345668
O O10 0.670211 0.705501 0.344223
O O11 0.500000 0.395114 0.018304
O O12 0.637096 0.279095 0.047504
O O13 0.641820 0.361382 0.946672
O O14 0.000000 0.635357 0.367284
O O15 0.500000 0.750047 0.875856
#
# Coordination Sequence:
#
# PCOD8262812 Si02
#       6
#    16  16  16  16  16  16
#     4  11  22  38  63  91 126 166 203 253 314 376
#     4  10  20  33  56  92 130 161 195 243 310 386
#     4  11  26  43  62  85 120 163 216 264 307 355
#     4   9  19  35  61  94 126 155 193 245 312 383
#     4  11  23  41  66  96 125 159 204 257 310 373
#     4   9  19  38  62  88 121 161 198 245 308 372
#
# _framework density 20.191576999999999
#
# number of rings (size 3 to 8) (size 9 to 14) (size 15 to 20)
#    0.000    1.833    1.667    2.000    2.333    5.333 
#    0.000    0.000    0.000    0.000    0.000    0.000 
#    0.000    0.000    0.000    0.000    0.000    0.000 
#
# Total GULP energy -594745.924591 kJ/mol
# GULP energy per Si atom -12390.540096 kJ/mol
# Density = 2.014562 g / cm^3
# Si number density = 20.191577 Si / 1000 Ang^3
#
#
#
# Elastic Constant Matrix: (Units=GPa)
#
#
# Indices 1 2 3 4 5 6 
#
# 1 107.5563 33.4865 39.0293 0.0000 0.0000 0.0000
# 2 33.4865 71.8502 43.9553 0.0000 0.0000 0.0000
# 3 39.0293 43.9553 99.6839 0.0000 0.0000 0.0000
# 4 0.0000 0.0000 0.0000 15.4063 0.0000 0.0000
# 5 0.0000 0.0000 0.0000 0.0000 6.9458 0.0000
# 6 0.0000 0.0000 0.0000 0.0000 0.0000 27.1178
#
#
#
# Elastic Compliance Matrix: (Units=1/GPa)
#
#
# Indices 1 2 3 4 5 6 
#
# 1 0.011465 -0.003557 -0.002920 0.000000 0.000000 0.000000
# 2 -0.003557 0.020162 -0.007498 0.000000 0.000000 0.000000
# 3 -0.002920 -0.007498 0.014481 0.000000 0.000000 0.000000
# 4 0.000000 0.000000 0.000000 0.064909 0.000000 0.000000
# 5 0.000000 0.000000 0.000000 0.000000 0.143972 0.000000
# 6 0.000000 0.000000 0.000000 0.000000 0.000000 0.036876
#
#
# Mechanical properties :
#
#
# Convention : Reuss Voigt Hill
#
# Bulk Modulus (GPa) = 55.07145 56.89252 55.98198
# Shear Modulus (GPa) = 15.34364 20.73526 18.03945
#
# Velocity S-wave (km/s) = 2.75962 3.20805 2.99225
# Velocity P-wave (km/s) = 6.12272 6.47762 6.30267
#
# Compressibility (1/GPa) = 0.01815823
#
# Stress axis : x y z
#
# Youngs Moduli (GPa) = 87.22578 49.59715 69.05393
#
# Poissons Ratio (x) = 0.17639 0.20167
# Poissons Ratio (y) = 0.31022 0.51777
# Poissons Ratio (z) = 0.25474 0.37188
#
# Static dielectric constant tensor:
#      x y z
#    x 4.090270 0.000000 0.000000 
#    y 0.000000 3.581430 0.000000 
#    z 0.000000 0.000000 3.295000 
# 
# 
# High freq. dielectric constant tensor:
#      x y z
#    x 1.805300 0.000000 0.000000 
#    y 0.000000 1.798820 0.000000 
#    z 0.000000 0.000000 1.743940 
# 
# From -- ./inp_files/39148.got.cif
#   From: 2010.03.12/outbox.cif.g09.slc.cpg/sg64_20_cif.got.tgz:39148.got - 2010.04.10 20:19:32.
