data_PCOD8262047
_publ_section_title
;
Structure prediction by ZEFSAII (Michael W. Deem and Ramdas Pophale) SiO2 
 PCOD8262047
Probable space group: C M C A
;
_chemical_formula_sum "Si O2"
_cell_formula_units_Z 120
_cell_length_a 13.547592
_cell_length_b 18.401908
_cell_length_c 25.605606
_cell_angle_alpha 90.000000
_cell_angle_beta 90.000000
_cell_angle_gamma 90.000000
_cell_volume 6383.517050
_symmetry_space_group_name_H-M "C M C A"
_symmetry_group_IT_number 64
_symmetry_cell_setting 'orthorhombic'
loop_
_space_group_symop_operation_xyz
x,y,z
-x,1/2-y,1/2+z
x,-y,-z
-x,1/2+y,1/2-z
-x,-y,-z
x,1/2+y,1/2-z
-x,y,z
x,1/2-y,1/2+z
1/2+x,1/2+y,z
1/2-x,-y,1/2+z
1/2+x,1/2-y,-z
1/2-x,y,1/2-z
1/2-x,1/2-y,-z
1/2+x,y,1/2-z
1/2-x,1/2+y,z
1/2+x,-y,1/2+z
loop_
_atom_site_type_symbol
_atom_site_label
_atom_site_fract_x
_atom_site_fract_y
_atom_site_fract_z
Si Si1 0.889580 0.748720 0.993922
Si Si2 0.385421 0.509757 0.833940
Si Si3 0.388464 0.327179 0.688414
Si Si4 0.389683 0.174930 0.658035
Si Si5 0.750000 0.429009 0.750000
Si Si6 0.754628 0.833844 0.062974
Si Si7 0.774194 0.996855 0.058441
Si Si8 0.111766 0.881254 0.575605
O O1 0.826655 0.817862 0.013364
O O2 0.881871 0.682536 0.034019
O O3 0.000000 0.775235 0.982964
O O4 0.842546 0.716963 0.940540
O O5 0.500000 0.483378 0.827043
O O6 0.378841 0.594806 0.818267
O O7 0.306453 0.474938 0.794389
O O8 0.354219 0.494042 0.894506
O O9 0.500000 0.349872 0.697738
O O10 0.373219 0.240366 0.699642
O O11 0.330818 0.376169 0.727860
O O12 0.355364 0.345962 0.629887
O O13 0.500000 0.183815 0.633501
O O14 0.310292 0.189950 0.614289
O O15 0.724476 0.917875 0.064635
O O16 0.686137 0.054330 0.061458
O O17 0.823484 0.000000 0.000000
O O18 0.000000 0.912660 0.577713
#
# Coordination Sequence:
#
# PCOD8262047 Si02
#       8
#    16  16  16  16   8  16  16  16
#     4  10  19  32  52  79 109 145 188 235 273 319
#     4  10  23  40  58  84 117 154 191 234 284 341
#     4  10  20  36  61  85 105 142 188 232 283 339
#     4   9  18  36  59  80 107 143 190 230 270 337
#     4  12  22  38  64  84 118 142 182 242 298 338
#     4  10  19  30  53  77 109 149 185 228 275 335
#     4  11  21  36  56  85 120 153 191 230 285 346
#     4  10  19  34  56  83 113 143 186 237 282 327
#
# _framework density 18.798414999999999
#
# number of rings (size 3 to 8) (size 9 to 14) (size 15 to 20)
#    0.000    1.867    4.000    0.800    0.000    2.133 
#    0.000    0.000    0.000    0.800    0.000    0.000 
#    0.000    0.000    0.000    0.000    0.000    0.000 
#
# Total GULP energy -743415.113788 kJ/mol
# GULP energy per Si atom -12390.251896 kJ/mol
# Density = 1.875563 g / cm^3
# Si number density = 18.798415 Si / 1000 Ang^3
#
#
#
# Elastic Constant Matrix: (Units=GPa)
#
#
# Indices 1 2 3 4 5 6 
#
# 1 61.5109 23.7854 33.3906 0.0000 0.0000 0.0000
# 2 23.7854 85.8802 33.3511 0.0000 0.0000 0.0000
# 3 33.3906 33.3511 78.3359 0.0000 0.0000 0.0000
# 4 0.0000 0.0000 0.0000 -18.8134 0.0000 0.0000
# 5 0.0000 0.0000 0.0000 0.0000 23.1632 0.0000
# 6 0.0000 0.0000 0.0000 0.0000 0.0000 26.1428
#
#
#
# Elastic Compliance Matrix: (Units=1/GPa)
#
#
# Indices 1 2 3 4 5 6 
#
# 1 0.021739 -0.002902 -0.008031 0.000000 0.000000 0.000000
# 2 -0.002902 0.014338 -0.004867 0.000000 0.000000 0.000000
# 3 -0.008031 -0.004867 0.018261 0.000000 0.000000 0.000000
# 4 0.000000 0.000000 0.000000 -0.053153 0.000000 0.000000
# 5 0.000000 0.000000 0.000000 0.000000 0.043172 0.000000
# 6 0.000000 0.000000 0.000000 0.000000 0.000000 0.038251
#
#
# Mechanical properties :
#
#
# Convention : Reuss Voigt Hill
#
# Bulk Modulus (GPa) = 43.98002 45.19793 44.58897
# Shear Modulus (GPa) = 41.05531 15.11185 28.08358
#
# Velocity S-wave (km/s) = 4.67837 2.83837 3.86934
# Velocity P-wave (km/s) = 7.25461 5.90233 6.61312
#
# Compressibility (1/GPa) = 0.02273760
#
# Stress axis : x y z
#
# Youngs Moduli (GPa) = 46.00061 69.74425 54.76212
#
# Poissons Ratio (x) = 0.20241 0.43977
# Poissons Ratio (y) = 0.13350 0.26654
# Poissons Ratio (z) = 0.36941 0.33947
#
# Static dielectric constant tensor:
#      x y z
#    x 3.571630 0.000000 0.000000 
#    y 0.000000 3.634260 0.000000 
#    z 0.000000 0.000000 2.868190 
# 
# 
# High freq. dielectric constant tensor:
#      x y z
#    x 1.729260 0.000000 0.000000 
#    y 0.000000 1.741850 0.000000 
#    z 0.000000 0.000000 1.703070 
# 
# From -- ./inp_files/49568.got.cif
#   From: 2010.03.12/outbox.cif.g09.slc.cpg/sg64_25_cif.got.tgz:49568.got - 2010.04.10 20:19:32.
