data_PCOD8262588
_publ_section_title
;
Structure prediction by ZEFSAII (Michael W. Deem and Ramdas Pophale) SiO2 
 PCOD8262588
Probable space group: C M C A
;
_chemical_formula_sum "Si O2"
_cell_formula_units_Z 88
_cell_length_a 22.015967
_cell_length_b 12.953318
_cell_length_c 15.905515
_cell_angle_alpha 90.000000
_cell_angle_beta 90.000000
_cell_angle_gamma 90.000000
_cell_volume 4535.931931
_symmetry_space_group_name_H-M "C M C A"
_symmetry_group_IT_number 64
_symmetry_cell_setting 'orthorhombic'
loop_
_space_group_symop_operation_xyz
x,y,z
-x,1/2-y,1/2+z
x,-y,-z
-x,1/2+y,1/2-z
-x,-y,-z
x,1/2+y,1/2-z
-x,y,z
x,1/2-y,1/2+z
1/2+x,1/2+y,z
1/2-x,-y,1/2+z
1/2+x,1/2-y,-z
1/2-x,y,1/2-z
1/2-x,1/2-y,-z
1/2+x,y,1/2-z
1/2-x,1/2+y,z
1/2+x,-y,1/2+z
loop_
_atom_site_type_symbol
_atom_site_label
_atom_site_fract_x
_atom_site_fract_y
_atom_site_fract_z
Si Si1 0.288765 0.578347 0.355672
Si Si2 0.334215 0.995970 0.686673
Si Si3 0.372853 0.000000 0.000000
Si Si4 0.429604 0.290108 0.485139
Si Si5 0.928405 0.677234 0.314440
Si Si6 0.363402 0.770272 0.343910
O O1 0.309725 0.502856 0.281277
O O2 0.216761 0.561997 0.371127
O O3 0.328229 0.547846 0.433522
O O4 0.303302 0.698423 0.334498
O O5 0.343319 0.111718 0.655844
O O6 0.397698 0.935238 0.683521
O O7 0.416274 0.910067 0.033842
O O8 0.500000 0.273668 0.502810
O O9 0.409005 0.231728 0.400962
O O10 0.395337 0.248536 0.566935
O O11 0.907761 0.744646 0.234065
O O12 0.000000 0.660147 0.307714
#
# Coordination Sequence:
#
# PCOD8262588 Si02
#       6
#    16  16   8  16  16  16
#     4   9  21  36  56  83 108 141 187 230 275 329
#     4  10  21  38  58  81 113 150 180 226 285 332
#     4  10  19  36  58  82 109 144 188 234 278 324
#     4  10  21  36  56  83 113 146 186 230 275 328
#     4  10  22  38  56  82 113 147 189 230 273 329
#     4  10  21  38  58  81 112 147 185 228 276 332
#
# _framework density 19.400644
#
# number of rings (size 3 to 8) (size 9 to 14) (size 15 to 20)
#    0.000    2.182    0.000    1.909    0.000   10.909 
#    0.000   10.000    0.000    0.000    0.000    0.000 
#    0.000    0.000    0.000    0.000    0.000    0.000 
#
# Total GULP energy -545476.888705 kJ/mol
# GULP energy per Si atom -12397.202016 kJ/mol
# Density = 1.935649 g / cm^3
# Si number density = 19.400644 Si / 1000 Ang^3
#
#
#
# Elastic Constant Matrix: (Units=GPa)
#
#
# Indices 1 2 3 4 5 6 
#
# 1 104.2381 63.7677 37.4993 0.0000 0.0000 0.0000
# 2 63.7677 132.7302 41.3970 0.0000 0.0000 0.0000
# 3 37.4993 41.3970 98.9438 0.0000 0.0000 0.0000
# 4 0.0000 0.0000 0.0000 22.7717 0.0000 0.0000
# 5 0.0000 0.0000 0.0000 0.0000 21.3282 0.0000
# 6 0.0000 0.0000 0.0000 0.0000 0.0000 24.2504
#
#
#
# Elastic Compliance Matrix: (Units=1/GPa)
#
#
# Indices 1 2 3 4 5 6 
#
# 1 0.014286 -0.005951 -0.002924 0.000000 0.000000 0.000000
# 2 -0.005951 0.011144 -0.002407 0.000000 0.000000 0.000000
# 3 -0.002924 -0.002407 0.012222 0.000000 0.000000 0.000000
# 4 0.000000 0.000000 0.000000 0.043914 0.000000 0.000000
# 5 0.000000 0.000000 0.000000 0.000000 0.046886 0.000000
# 6 0.000000 0.000000 0.000000 0.000000 0.000000 0.041236
#
#
# Mechanical properties :
#
#
# Convention : Reuss Voigt Hill
#
# Bulk Modulus (GPa) = 66.28323 69.02666 67.65495
# Shear Modulus (GPa) = 25.34417 26.55327 25.94872
#
# Velocity S-wave (km/s) = 3.61828 3.70358 3.66118
# Velocity P-wave (km/s) = 7.18996 7.34476 7.26777
#
# Compressibility (1/GPa) = 0.01508677
#
# Stress axis : x y z
#
# Youngs Moduli (GPa) = 69.99713 89.73383 81.81877
#
# Poissons Ratio (x) = 0.53405 0.23927
# Poissons Ratio (y) = 0.41659 0.19693
# Poissons Ratio (z) = 0.20470 0.21599
#
# Static dielectric constant tensor:
#      x y z
#    x 3.726670 0.000000 0.000000 
#    y 0.000000 3.567690 0.000000 
#    z 0.000000 0.000000 3.699210 
# 
# 
# High freq. dielectric constant tensor:
#      x y z
#    x 1.761010 0.000000 0.000000 
#    y 0.000000 1.755920 0.000000 
#    z 0.000000 0.000000 1.761880 
# 
# From -- ./inp_files/27165.got.cif
#   From: 2010.03.12/outbox.cif.g09.slc.cpg/sg64_14_cif.got.tgz:27165.got - 2010.04.10 20:19:32.
