data_PCOD8262956
_publ_section_title
;
Structure prediction by ZEFSAII (Michael W. Deem and Ramdas Pophale) SiO2 
 PCOD8262956
Probable space group: C M C A
;
_chemical_formula_sum "Si O2"
_cell_formula_units_Z 96
_cell_length_a 9.224091
_cell_length_b 25.223484
_cell_length_c 23.342153
_cell_angle_alpha 90.000000
_cell_angle_beta 90.000000
_cell_angle_gamma 90.000000
_cell_volume 5430.871957
_symmetry_space_group_name_H-M "C M C A"
_symmetry_group_IT_number 64
_symmetry_cell_setting 'orthorhombic'
loop_
_space_group_symop_operation_xyz
x,y,z
-x,1/2-y,1/2+z
x,-y,-z
-x,1/2+y,1/2-z
-x,-y,-z
x,1/2+y,1/2-z
-x,y,z
x,1/2-y,1/2+z
1/2+x,1/2+y,z
1/2-x,-y,1/2+z
1/2+x,1/2-y,-z
1/2-x,y,1/2-z
1/2-x,1/2-y,-z
1/2+x,y,1/2-z
1/2-x,1/2+y,z
1/2+x,-y,1/2+z
loop_
_atom_site_type_symbol
_atom_site_label
_atom_site_fract_x
_atom_site_fract_y
_atom_site_fract_z
Si Si1 0.667936 0.406597 0.626306
Si Si2 0.669975 0.685649 0.807658
Si Si3 0.830876 0.094050 0.891211
Si Si4 0.833433 0.304805 0.806094
Si Si5 0.669823 0.439658 0.500251
Si Si6 0.828559 0.002902 0.190978
O O1 0.500000 0.422751 0.635959
O O2 0.696681 0.345269 0.642098
O O3 0.712307 0.413242 0.560410
O O4 0.768022 0.442141 0.666677
O O5 0.500000 0.679371 0.796144
O O6 0.750000 0.667993 0.750000
O O7 0.719688 0.647097 0.858558
O O8 0.714175 0.745665 0.825136
O O9 0.747796 0.093505 0.951064
O O10 0.789174 0.043091 0.853667
O O11 0.000000 0.095081 0.904802
O O12 0.750000 0.324333 0.750000
O O13 0.000000 0.304726 0.788279
O O14 0.726433 0.500000 0.500000
O O15 0.500000 0.437601 0.488052
O O16 0.750000 0.988648 0.250000
O O17 0.000000 0.007787 0.201417
#
# Coordination Sequence:
#
# PCOD8262956 Si02
#       6
#    16  16  16  16  16  16
#     4  10  20  35  53  75 102 134 172 212 255 302
#     4   9  18  34  54  77 103 134 169 208 255 304
#     4  10  21  35  52  75 103 134 170 209 254 303
#     4   9  18  33  54  76 102 133 167 208 254 304
#     4  10  20  35  54  74 100 138 177 212 252 301
#     4  11  22  33  49  75 104 133 164 206 256 306
#
# _framework density 17.67672
#
# number of rings (size 3 to 8) (size 9 to 14) (size 15 to 20)
#    0.000    2.167    1.667    1.500    0.000    4.333 
#    0.000    0.833    0.000    0.000    0.000    0.000 
#    0.000    0.000    0.000    0.000    0.000    0.000 
#
# Total GULP energy -595340.079596 kJ/mol
# GULP energy per Si atom -12402.918325 kJ/mol
# Density = 1.763649 g / cm^3
# Si number density = 17.676720 Si / 1000 Ang^3
#
#
#
# Elastic Constant Matrix: (Units=GPa)
#
#
# Indices 1 2 3 4 5 6 
#
# 1 44.9371 28.7324 39.6315 0.0000 0.0000 0.0000
# 2 28.7324 101.8078 57.5267 0.0000 0.0000 0.0000
# 3 39.6315 57.5267 120.2543 0.0000 0.0000 0.0000
# 4 0.0000 0.0000 0.0000 31.4156 0.0000 0.0000
# 5 0.0000 0.0000 0.0000 0.0000 34.7870 0.0000
# 6 0.0000 0.0000 0.0000 0.0000 0.0000 21.2674
#
#
#
# Elastic Compliance Matrix: (Units=1/GPa)
#
#
# Indices 1 2 3 4 5 6 
#
# 1 0.032690 -0.004301 -0.008716 0.000000 0.000000 0.000000
# 2 -0.004301 0.014027 -0.005293 0.000000 0.000000 0.000000
# 3 -0.008716 -0.005293 0.013720 0.000000 0.000000 0.000000
# 4 0.000000 0.000000 0.000000 0.031831 0.000000 0.000000
# 5 0.000000 0.000000 0.000000 0.000000 0.028746 0.000000
# 6 0.000000 0.000000 0.000000 0.000000 0.000000 0.047020
#
#
# Mechanical properties :
#
#
# Convention : Reuss Voigt Hill
#
# Bulk Modulus (GPa) = 41.98517 57.64228 49.81372
# Shear Modulus (GPa) = 23.51900 26.90123 25.21011
#
# Velocity S-wave (km/s) = 3.65157 3.90532 3.78057
# Velocity P-wave (km/s) = 6.44840 7.28116 6.87739
#
# Compressibility (1/GPa) = 0.02381794
#
# Stress axis : x y z
#
# Youngs Moduli (GPa) = 30.59011 71.29161 72.88556
#
# Poissons Ratio (x) = 0.30662 0.63528
# Poissons Ratio (y) = 0.13156 0.38576
# Poissons Ratio (z) = 0.26663 0.37733
#
# Static dielectric constant tensor:
#      x y z
#    x 3.235220 0.000000 0.000000 
#    y 0.000000 3.420530 0.000000 
#    z 0.000000 0.000000 3.250930 
# 
# 
# High freq. dielectric constant tensor:
#      x y z
#    x 1.681210 0.000000 0.000000 
#    y 0.000000 1.686520 0.000000 
#    z 0.000000 0.000000 1.680070 
# 
# From -- ./inp_files/36953.got.cif
#   From: 2010.03.12/outbox.cif.g09.slc.cpg/sg64_19_cif.got.tgz:36953.got - 2010.04.10 20:19:32.
