data_PCOD8262905
_publ_section_title
;
Structure prediction by ZEFSAII (Michael W. Deem and Ramdas Pophale) SiO2 
 PCOD8262905
Probable space group: C M C A
;
_chemical_formula_sum "Si O2"
_cell_formula_units_Z 80
_cell_length_a 13.435992
_cell_length_b 10.632530
_cell_length_c 28.146884
_cell_angle_alpha 90.000000
_cell_angle_beta 90.000000
_cell_angle_gamma 90.000000
_cell_volume 4021.024105
_symmetry_space_group_name_H-M "C M C A"
_symmetry_group_IT_number 64
_symmetry_cell_setting 'orthorhombic'
loop_
_space_group_symop_operation_xyz
x,y,z
-x,1/2-y,1/2+z
x,-y,-z
-x,1/2+y,1/2-z
-x,-y,-z
x,1/2+y,1/2-z
-x,y,z
x,1/2-y,1/2+z
1/2+x,1/2+y,z
1/2-x,-y,1/2+z
1/2+x,1/2-y,-z
1/2-x,y,1/2-z
1/2-x,1/2-y,-z
1/2+x,y,1/2-z
1/2-x,1/2+y,z
1/2+x,-y,1/2+z
loop_
_atom_site_type_symbol
_atom_site_label
_atom_site_fract_x
_atom_site_fract_y
_atom_site_fract_z
Si Si1 0.824303 0.892669 0.965509
Si Si2 0.325462 0.578686 0.137984
Si Si3 0.500000 0.200126 0.711684
Si Si4 0.113077 0.696250 0.038695
Si Si5 0.828983 0.701683 0.636626
Si Si6 0.500000 0.919277 0.711456
O O1 0.875413 0.903299 0.914005
O O2 0.703289 0.904708 0.957344
O O3 0.862165 0.764226 0.988983
O O4 0.863516 0.000000 0.000000
O O5 0.246318 0.686767 0.146622
O O6 0.278909 0.437155 0.139873
O O7 0.404781 0.596630 0.178795
O O8 0.405932 0.216904 0.678603
O O9 0.500000 0.309287 0.750322
O O10 0.500000 0.059494 0.735040
O O11 0.120658 0.787390 0.084527
O O12 0.000000 0.639085 0.036644
#
# Coordination Sequence:
#
# PCOD8262905 Si02
#       6
#    16  16   8  16  16   8
#     4  10  20  34  55  83 122 155 193 235 281 343
#     4  10  22  38  59  89 122 153 194 240 290 347
#     4  10  22  42  65  84 114 151 196 246 301 353
#     4  10  20  34  55  84 116 159 196 234 281 342
#     4  10  20  39  61  86 116 156 195 240 291 347
#     4  10  24  42  62  89 116 149 196 248 299 353
#
# _framework density 19.895427999999999
#
# number of rings (size 3 to 8) (size 9 to 14) (size 15 to 20)
#    0.000    2.000    3.000    0.000    1.400    3.200 
#    0.000    4.000    0.000    0.000    0.000    0.000 
#    0.000    0.000    0.000    0.000    0.000    0.000 
#
# Total GULP energy -495565.364695 kJ/mol
# GULP energy per Si atom -12389.134117 kJ/mol
# Density = 1.985015 g / cm^3
# Si number density = 19.895428 Si / 1000 Ang^3
#
#
#
# Elastic Constant Matrix: (Units=GPa)
#
#
# Indices 1 2 3 4 5 6 
#
# 1 69.6153 36.6245 24.9231 0.0000 0.0000 0.0000
# 2 36.6245 139.0121 72.7487 0.0000 0.0000 0.0000
# 3 24.9231 72.7487 127.1826 0.0000 0.0000 0.0000
# 4 0.0000 0.0000 0.0000 36.6791 0.0000 0.0000
# 5 0.0000 0.0000 0.0000 0.0000 21.8700 0.0000
# 6 0.0000 0.0000 0.0000 0.0000 0.0000 21.7601
#
#
#
# Elastic Compliance Matrix: (Units=1/GPa)
#
#
# Indices 1 2 3 4 5 6 
#
# 1 0.016780 -0.003854 -0.001084 0.000000 0.000000 0.000000
# 2 -0.003854 0.011152 -0.005624 0.000000 0.000000 0.000000
# 3 -0.001084 -0.005624 0.011292 0.000000 0.000000 0.000000
# 4 0.000000 0.000000 0.000000 0.027263 0.000000 0.000000
# 5 0.000000 0.000000 0.000000 0.000000 0.045725 0.000000
# 6 0.000000 0.000000 0.000000 0.000000 0.000000 0.045956
#
#
# Mechanical properties :
#
#
# Convention : Reuss Voigt Hill
#
# Bulk Modulus (GPa) = 55.24490 67.15582 61.20036
# Shear Modulus (GPa) = 26.97972 29.49611 28.23792
#
# Velocity S-wave (km/s) = 3.68649 3.85458 3.77147
# Velocity P-wave (km/s) = 6.77851 7.32380 7.05642
#
# Compressibility (1/GPa) = 0.01810122
#
# Stress axis : x y z
#
# Youngs Moduli (GPa) = 59.59427 89.67016 88.55873
#
# Poissons Ratio (x) = 0.34556 0.09600
# Poissons Ratio (y) = 0.22966 0.49803
# Poissons Ratio (z) = 0.06460 0.50429
#
# Static dielectric constant tensor:
#      x y z
#    x 3.605960 0.000000 0.000000 
#    y 0.000000 3.674380 0.000000 
#    z 0.000000 0.000000 3.729830 
# 
# 
# High freq. dielectric constant tensor:
#      x y z
#    x 1.761230 0.000000 0.000000 
#    y 0.000000 1.772290 0.000000 
#    z 0.000000 0.000000 1.781890 
# 
# From -- ./inp_files/49917.got.cif
#   From: 2010.03.12/outbox.cif.g09.slc.cpg/sg64_25_cif.got.tgz:49917.got - 2010.04.10 20:19:32.
