data_PCOD8262957
_publ_section_title
;
Structure prediction by ZEFSAII (Michael W. Deem and Ramdas Pophale) SiO2 
 PCOD8262957
Probable space group: C M C A
;
_chemical_formula_sum "Si O2"
_cell_formula_units_Z 96
_cell_length_a 22.705159
_cell_length_b 25.224453
_cell_length_c 9.313222
_cell_angle_alpha 90.000000
_cell_angle_beta 90.000000
_cell_angle_gamma 90.000000
_cell_volume 5333.917082
_symmetry_space_group_name_H-M "C M C A"
_symmetry_group_IT_number 64
_symmetry_cell_setting 'orthorhombic'
loop_
_space_group_symop_operation_xyz
x,y,z
-x,1/2-y,1/2+z
x,-y,-z
-x,1/2+y,1/2-z
-x,-y,-z
x,1/2+y,1/2-z
-x,y,z
x,1/2-y,1/2+z
1/2+x,1/2+y,z
1/2-x,-y,1/2+z
1/2+x,1/2-y,-z
1/2-x,y,1/2-z
1/2-x,1/2-y,-z
1/2+x,y,1/2-z
1/2-x,1/2+y,z
1/2+x,-y,1/2+z
loop_
_atom_site_type_symbol
_atom_site_label
_atom_site_fract_x
_atom_site_fract_y
_atom_site_fract_z
Si Si1 0.705491 0.763864 0.126495
Si Si2 0.000000 0.706825 0.444131
Si Si3 0.374291 0.168229 0.419948
Si Si4 0.373256 0.149941 0.751932
Si Si5 0.693048 0.568069 0.153826
Si Si6 0.189677 0.950708 0.175931
Si Si7 0.500000 0.811845 0.228679
O O1 0.750000 0.773589 0.250000
O O2 0.660806 0.715881 0.154842
O O3 0.665316 0.817730 0.128451
O O4 0.750000 0.750000 0.000000
O O5 0.056538 0.674324 0.389355
O O6 0.000000 0.713988 0.614564
O O7 0.000000 0.765961 0.387332
O O8 0.361049 0.171618 0.590465
O O9 0.355351 0.114536 0.337283
O O10 0.358637 0.087548 0.747427
O O11 0.441886 0.152721 0.793672
O O12 0.750000 0.583393 0.250000
O O13 0.667332 0.511005 0.203965
O O14 0.707405 0.562069 0.986946
O O15 0.250000 0.938779 0.250000
#
# Coordination Sequence:
#
# PCOD8262957 Si02
#       7
#    16   8  16  16  16  16   8
#     4  12  22  32  50  79 110 138 169 215 270 316
#     4  10  20  36  53  71 101 143 174 215 256 308
#     4  10  20  35  53  75 107 136 176 217 260 308
#     4  10  20  35  53  76 106 140 173 217 261 310
#     4   9  18  34  53  79 103 136 174 216 261 316
#     4   9  18  33  55  76 106 137 171 214 268 312
#     4  10  20  36  53  71 103 141 180 211 256 310
#
# _framework density 17.99803
#
# number of rings (size 3 to 8) (size 9 to 14) (size 15 to 20)
#    0.000    2.000    3.333    1.000    2.333    0.000 
#    0.000    0.833    0.000    5.000    0.000    0.000 
#    0.000    6.667    0.000    0.000    0.000    0.000 
#
# Total GULP energy -594655.760076 kJ/mol
# GULP energy per Si atom -12388.661668 kJ/mol
# Density = 1.795707 g / cm^3
# Si number density = 17.998030 Si / 1000 Ang^3
#
#
#
# Elastic Constant Matrix: (Units=GPa)
#
#
# Indices 1 2 3 4 5 6 
#
# 1 143.8474 77.7722 37.4935 0.0000 0.0000 0.0000
# 2 77.7722 125.6345 27.8544 0.0000 0.0000 0.0000
# 3 37.4935 27.8544 28.3988 0.0000 0.0000 0.0000
# 4 0.0000 0.0000 0.0000 25.0610 0.0000 0.0000
# 5 0.0000 0.0000 0.0000 0.0000 17.8409 0.0000
# 6 0.0000 0.0000 0.0000 0.0000 0.0000 45.9552
#
#
#
# Elastic Compliance Matrix: (Units=1/GPa)
#
#
# Indices 1 2 3 4 5 6 
#
# 1 0.012945 -0.005398 -0.011796 0.000000 0.000000 0.000000
# 2 -0.005398 0.012423 -0.005058 0.000000 0.000000 0.000000
# 3 -0.011796 -0.005058 0.055747 0.000000 0.000000 0.000000
# 4 0.000000 0.000000 0.000000 0.039903 0.000000 0.000000
# 5 0.000000 0.000000 0.000000 0.000000 0.056051 0.000000
# 6 0.000000 0.000000 0.000000 0.000000 0.000000 0.021760
#
#
# Mechanical properties :
#
#
# Convention : Reuss Voigt Hill
#
# Bulk Modulus (GPa) = 27.31402 64.90230 46.10816
# Shear Modulus (GPa) = 19.56678 28.08877 23.82777
#
# Velocity S-wave (km/s) = 3.30079 3.95480 3.64250
# Velocity P-wave (km/s) = 5.45308 7.54937 6.58517
#
# Compressibility (1/GPa) = 0.03661123
#
# Stress axis : x y z
#
# Youngs Moduli (GPa) = 77.25057 80.49902 17.93823
#
# Poissons Ratio (x) = 0.43454 0.21160
# Poissons Ratio (y) = 0.41700 0.09072
# Poissons Ratio (z) = 0.91124 0.40713
#
# Static dielectric constant tensor:
#      x y z
#    x 3.532400 0.000000 0.000000 
#    y 0.000000 3.544360 0.000000 
#    z 0.000000 0.000000 3.026120 
# 
# 
# High freq. dielectric constant tensor:
#      x y z
#    x 1.694780 0.000000 0.000000 
#    y 0.000000 1.697680 0.000000 
#    z 0.000000 0.000000 1.682380 
# 
# From -- ./inp_files/9642.got.cif
#   From: 2010.03.12/outbox.cif.g09.slc.cpg/sg64_5_cif.got.tgz:9642.got - 2010.04.10 20:19:32.
