data_PCOD8262962
_publ_section_title
;
Structure prediction by ZEFSAII (Michael W. Deem and Ramdas Pophale) SiO2 
 PCOD8262962
Probable space group: C M C A
;
_chemical_formula_sum "Si O2"
_cell_formula_units_Z 96
_cell_length_a 8.747875
_cell_length_b 20.298259
_cell_length_c 29.303321
_cell_angle_alpha 90.000000
_cell_angle_beta 90.000000
_cell_angle_gamma 90.000000
_cell_volume 5203.292030
_symmetry_space_group_name_H-M "C M C A"
_symmetry_group_IT_number 64
_symmetry_cell_setting 'orthorhombic'
loop_
_space_group_symop_operation_xyz
x,y,z
-x,1/2-y,1/2+z
x,-y,-z
-x,1/2+y,1/2-z
-x,-y,-z
x,1/2+y,1/2-z
-x,y,z
x,1/2-y,1/2+z
1/2+x,1/2+y,z
1/2-x,-y,1/2+z
1/2+x,1/2-y,-z
1/2-x,y,1/2-z
1/2-x,1/2-y,-z
1/2+x,y,1/2-z
1/2-x,1/2+y,z
1/2+x,-y,1/2+z
loop_
_atom_site_type_symbol
_atom_site_label
_atom_site_fract_x
_atom_site_fract_y
_atom_site_fract_z
Si Si1 0.821053 0.802962 0.363486
Si Si2 0.322416 0.939578 0.364243
Si Si3 0.821903 0.559016 0.531067
Si Si4 0.821446 0.304684 0.031568
Si Si5 0.680856 0.696071 0.298777
Si Si6 0.818983 0.557617 0.298526
O O1 0.775806 0.876733 0.348374
O O2 0.774609 0.792007 0.416066
O O3 0.723782 0.751381 0.334945
O O4 0.000000 0.792065 0.354720
O O5 0.500000 0.922388 0.357200
O O6 0.286586 0.958129 0.416456
O O7 0.271695 0.001763 0.334366
O O8 0.758385 0.500000 0.500000
O O9 0.736896 0.624595 0.515089
O O10 0.000000 0.570393 0.522349
O O11 0.000000 0.302406 0.025182
O O12 0.750000 0.250000 0.000000
O O13 0.500000 0.690263 0.294240
O O14 0.750000 0.715936 0.250000
O O15 0.748476 0.626431 0.315618
O O16 0.750000 0.536993 0.250000
O O17 0.000000 0.565690 0.294333
#
# Coordination Sequence:
#
# PCOD8262962 Si02
#       6
#    16  16  16  16  16  16
#     4  10  21  37  56  79 108 141 179 222 267 315
#     4   9  19  35  54  77 106 139 175 217 264 313
#     4   9  18  34  55  78 105 138 175 216 264 316
#     4  10  21  36  55  79 108 142 179 222 267 314
#     4  11  22  37  57  80 108 141 178 220 266 316
#     4  10  20  35  54  77 107 140 176 217 261 311
#
# _framework density 18.449857000000002
#
# number of rings (size 3 to 8) (size 9 to 14) (size 15 to 20)
#    0.000    2.167    0.000    4.000    0.000    5.667 
#    0.000    5.000    0.000    0.000    0.000    0.000 
#    0.000    0.000    0.000    0.000    0.000    0.000 
#
# Total GULP energy -595374.606257 kJ/mol
# GULP energy per Si atom -12403.637630 kJ/mol
# Density = 1.840786 g / cm^3
# Si number density = 18.449857 Si / 1000 Ang^3
#
#
#
# Elastic Constant Matrix: (Units=GPa)
#
#
# Indices 1 2 3 4 5 6 
#
# 1 89.0102 63.5019 47.8844 0.0000 0.0000 0.0000
# 2 63.5019 162.1125 97.7768 0.0000 0.0000 0.0000
# 3 47.8844 97.7768 94.4763 0.0000 0.0000 0.0000
# 4 0.0000 0.0000 0.0000 43.8316 0.0000 0.0000
# 5 0.0000 0.0000 0.0000 0.0000 27.6982 0.0000
# 6 0.0000 0.0000 0.0000 0.0000 0.0000 37.3389
#
#
#
# Elastic Compliance Matrix: (Units=1/GPa)
#
#
# Indices 1 2 3 4 5 6 
#
# 1 0.016247 -0.003719 -0.004386 0.000000 0.000000 0.000000
# 2 -0.003719 0.017266 -0.015985 0.000000 0.000000 0.000000
# 3 -0.004386 -0.015985 0.029351 0.000000 0.000000 0.000000
# 4 0.000000 0.000000 0.000000 0.022815 0.000000 0.000000
# 5 0.000000 0.000000 0.000000 0.000000 0.036103 0.000000
# 6 0.000000 0.000000 0.000000 0.000000 0.000000 0.026782
#
#
# Mechanical properties :
#
#
# Convention : Reuss Voigt Hill
#
# Bulk Modulus (GPa) = 68.09508 84.88056 76.48782
# Shear Modulus (GPa) = 24.79693 30.86946 27.83320
#
# Velocity S-wave (km/s) = 3.67006 4.09486 3.88827
# Velocity P-wave (km/s) = 7.41265 8.27424 7.85527
#
# Compressibility (1/GPa) = 0.01468535
#
# Stress axis : x y z
#
# Youngs Moduli (GPa) = 61.54852 57.91634 34.07094
#
# Poissons Ratio (x) = 0.21539 0.14943
# Poissons Ratio (y) = 0.22890 0.54461
# Poissons Ratio (z) = 0.26994 0.92576
#
# Static dielectric constant tensor:
#      x y z
#    x 3.455670 0.000000 0.000000 
#    y 0.000000 3.518440 0.000000 
#    z 0.000000 0.000000 3.385990 
# 
# 
# High freq. dielectric constant tensor:
#      x y z
#    x 1.724320 0.000000 0.000000 
#    y 0.000000 1.723660 0.000000 
#    z 0.000000 0.000000 1.713360 
# 
# From -- ./inp_files/48039.got.cif
#   From: 2010.03.12/outbox.cif.g09.slc.cpg/sg64_25_cif.got.tgz:48039.got - 2010.04.10 20:19:32.
