data_PCOD8262473
_publ_section_title
;
Structure prediction by ZEFSAII (Michael W. Deem and Ramdas Pophale) SiO2 
 PCOD8262473
Probable space group: C M C A
;
_chemical_formula_sum "Si O2"
_cell_formula_units_Z 96
_cell_length_a 15.860272
_cell_length_b 29.307868
_cell_length_c 11.283071
_cell_angle_alpha 90.000000
_cell_angle_beta 90.000000
_cell_angle_gamma 90.000000
_cell_volume 5244.718448
_symmetry_space_group_name_H-M "C M C A"
_symmetry_group_IT_number 64
_symmetry_cell_setting 'orthorhombic'
loop_
_space_group_symop_operation_xyz
x,y,z
-x,1/2-y,1/2+z
x,-y,-z
-x,1/2+y,1/2-z
-x,-y,-z
x,1/2+y,1/2-z
-x,y,z
x,1/2-y,1/2+z
1/2+x,1/2+y,z
1/2-x,-y,1/2+z
1/2+x,1/2-y,-z
1/2-x,y,1/2-z
1/2-x,1/2-y,-z
1/2+x,y,1/2-z
1/2-x,1/2+y,z
1/2+x,-y,1/2+z
loop_
_atom_site_type_symbol
_atom_site_label
_atom_site_fract_x
_atom_site_fract_y
_atom_site_fract_z
Si Si1 0.321046 0.426678 0.469560
Si Si2 0.161435 0.125831 0.885121
Si Si3 0.000000 0.922189 0.041175
Si Si4 0.739891 0.216905 0.886927
Si Si5 0.403256 0.849039 0.135779
Si Si6 0.166693 0.987288 0.679417
Si Si7 0.500000 0.011014 0.321644
O O1 0.232356 0.410988 0.414590
O O2 0.389244 0.385383 0.469767
O O3 0.358480 0.469449 0.399327
O O4 0.308970 0.442260 0.604626
O O5 0.192194 0.177116 0.912912
O O6 0.138969 0.124657 0.746521
O O7 0.079865 0.111699 0.960755
O O8 0.000000 0.956362 0.154240
O O9 0.000000 0.956626 0.933893
O O10 0.750000 0.236958 0.750000
O O11 0.644692 0.197834 0.893110
O O12 0.750000 0.250000 0.000000
O O13 0.500000 0.836834 0.157862
O O14 0.250000 0.000774 0.750000
O O15 0.085194 0.975306 0.755557
#
# Coordination Sequence:
#
# PCOD8262473 Si02
#       7
#    16  16   8  16  16  16   8
#     4  10  21  33  55  74 112 149 195 231 287 333
#     4  10  19  36  61  85 105 150 194 245 279 343
#     4  11  20  36  56  80 110 148 205 238 288 329
#     4   9  20  40  62  88 119 146 187 233 302 359
#     4  10  19  34  59  88 109 144 191 243 276 337
#     4  11  22  35  49  77 112 153 194 241 286 335
#     4  11  24  33  52  78 118 157 193 245 290 340
#
# _framework density 18.304127999999999
#
# number of rings (size 3 to 8) (size 9 to 14) (size 15 to 20)
#    0.000    1.833    0.833    5.500    2.333    3.333 
#    1.500    6.667    0.000    0.000    0.000    0.000 
#    0.000    0.000    0.000    0.000    0.000    0.000 
#
# Total GULP energy -594839.779952 kJ/mol
# GULP energy per Si atom -12392.495416 kJ/mol
# Density = 1.826247 g / cm^3
# Si number density = 18.304128 Si / 1000 Ang^3
#
#
#
# Elastic Constant Matrix: (Units=GPa)
#
#
# Indices 1 2 3 4 5 6 
#
# 1 137.7126 40.6299 39.3380 0.0000 0.0000 0.0000
# 2 40.6299 85.9964 50.6455 0.0000 0.0000 0.0000
# 3 39.3380 50.6455 87.3672 0.0000 0.0000 0.0000
# 4 0.0000 0.0000 0.0000 36.2989 0.0000 0.0000
# 5 0.0000 0.0000 0.0000 0.0000 21.5805 0.0000
# 6 0.0000 0.0000 0.0000 0.0000 0.0000 22.4477
#
#
#
# Elastic Compliance Matrix: (Units=1/GPa)
#
#
# Indices 1 2 3 4 5 6 
#
# 1 0.008742 -0.002751 -0.002341 0.000000 0.000000 0.000000
# 2 -0.002751 0.018522 -0.009498 0.000000 0.000000 0.000000
# 3 -0.002341 -0.009498 0.018006 0.000000 0.000000 0.000000
# 4 0.000000 0.000000 0.000000 0.027549 0.000000 0.000000
# 5 0.000000 0.000000 0.000000 0.000000 0.046338 0.000000
# 6 0.000000 0.000000 0.000000 0.000000 0.000000 0.044548
#
#
# Mechanical properties :
#
#
# Convention : Reuss Voigt Hill
#
# Bulk Modulus (GPa) = 62.15600 63.58924 62.87262
# Shear Modulus (GPa) = 25.22073 28.09628 26.65850
#
# Velocity S-wave (km/s) = 3.71600 3.92212 3.82045
# Velocity P-wave (km/s) = 7.24173 7.43818 7.34061
#
# Compressibility (1/GPa) = 0.01608855
#
# Stress axis : x y z
#
# Youngs Moduli (GPa) = 114.38963 53.98980 55.53707
#
# Poissons Ratio (x) = 0.14855 0.13002
# Poissons Ratio (y) = 0.31474 0.52749
# Poissons Ratio (z) = 0.26781 0.51280
#
# Static dielectric constant tensor:
#      x y z
#    x 3.464180 0.000000 0.000000 
#    y 0.000000 3.241320 0.000000 
#    z 0.000000 0.000000 3.413070 
# 
# 
# High freq. dielectric constant tensor:
#      x y z
#    x 1.718020 0.000000 0.000000 
#    y 0.000000 1.691950 0.000000 
#    z 0.000000 0.000000 1.699480 
# 
# From -- ./inp_files/14897.got.cif
#   From: 2010.03.12/outbox.cif.g09.slc.cpg/sg64_8_cif.got.tgz:14897.got - 2010.04.10 20:19:32.
