data_PCOD8262768
_publ_section_title
;
Structure prediction by ZEFSAII (Michael W. Deem and Ramdas Pophale) SiO2 
 PCOD8262768
Probable space group: C M C A
;
_chemical_formula_sum "Si O2"
_cell_formula_units_Z 104
_cell_length_a 22.429953
_cell_length_b 25.919261
_cell_length_c 9.404921
_cell_angle_alpha 90.000000
_cell_angle_beta 90.000000
_cell_angle_gamma 90.000000
_cell_volume 5467.718288
_symmetry_space_group_name_H-M "C M C A"
_symmetry_group_IT_number 64
_symmetry_cell_setting 'orthorhombic'
loop_
_space_group_symop_operation_xyz
x,y,z
-x,1/2-y,1/2+z
x,-y,-z
-x,1/2+y,1/2-z
-x,-y,-z
x,1/2+y,1/2-z
-x,y,z
x,1/2-y,1/2+z
1/2+x,1/2+y,z
1/2-x,-y,1/2+z
1/2+x,1/2-y,-z
1/2-x,y,1/2-z
1/2-x,1/2-y,-z
1/2+x,y,1/2-z
1/2-x,1/2+y,z
1/2+x,-y,1/2+z
loop_
_atom_site_type_symbol
_atom_site_label
_atom_site_fract_x
_atom_site_fract_y
_atom_site_fract_z
Si Si1 0.434521 0.863593 0.995927
Si Si2 0.140884 0.557488 0.518621
Si Si3 0.067250 0.064657 0.239203
Si Si4 0.750000 0.747536 0.250000
Si Si5 0.686887 0.810320 0.003147
Si Si6 0.267153 0.415744 0.408646
Si Si7 0.612537 0.546713 0.674978
O O1 0.500000 0.838540 0.020974
O O2 0.429511 0.885907 0.838511
O O3 0.384660 0.819258 0.017874
O O4 0.430968 0.914516 0.094684
O O5 0.117689 0.500000 0.500000
O O6 0.108137 0.586171 0.389766
O O7 0.212374 0.559096 0.506373
O O8 0.119098 0.575506 0.672736
O O9 0.000000 0.053741 0.186996
O O10 0.090357 0.012290 0.317271
O O11 0.705491 0.715568 0.353272
O O12 0.792118 0.779994 0.355904
O O13 0.716913 0.865965 0.999790
O O14 0.250000 0.398356 0.250000
O O15 0.322670 0.455212 0.401926
#
# Coordination Sequence:
#
# PCOD8262768 Si02
#       7
#    16  16  16   8  16  16  16
#     4  10  21  36  55  81 112 146 183 218 261 321
#     4   9  19  31  48  76 111 149 188 231 262 300
#     4  10  20  33  50  77 113 153 194 225 255 304
#     4  10  22  40  62  86 102 130 170 222 282 348
#     4  10  21  38  61  83 106 134 171 221 277 338
#     4   9  17  32  52  77 109 139 176 223 272 318
#     4   9  18  32  51  75 110 154 188 221 258 307
#
# _framework density 19.020731999999999
#
# number of rings (size 3 to 8) (size 9 to 14) (size 15 to 20)
#    0.000    2.462    0.769    0.923    2.154    7.077 
#    0.000    3.846    0.000    0.000    0.000    0.000 
#    0.000    0.000    0.000    0.000    0.000    0.000 
#
# Total GULP energy -644273.160104 kJ/mol
# GULP energy per Si atom -12389.868464 kJ/mol
# Density = 1.897744 g / cm^3
# Si number density = 19.020732 Si / 1000 Ang^3
#
#
#
# Elastic Constant Matrix: (Units=GPa)
#
#
# Indices 1 2 3 4 5 6 
#
# 1 155.1146 38.5824 56.1355 0.0000 0.0000 0.0000
# 2 38.5824 44.3228 23.3036 0.0000 0.0000 0.0000
# 3 56.1355 23.3036 90.0609 0.0000 0.0000 0.0000
# 4 0.0000 0.0000 0.0000 18.0885 0.0000 0.0000
# 5 0.0000 0.0000 0.0000 0.0000 28.8480 0.0000
# 6 0.0000 0.0000 0.0000 0.0000 0.0000 27.1388
#
#
#
# Elastic Compliance Matrix: (Units=1/GPa)
#
#
# Indices 1 2 3 4 5 6 
#
# 1 0.009523 -0.005983 -0.004388 0.000000 0.000000 0.000000
# 2 -0.005983 0.029873 -0.004001 0.000000 0.000000 0.000000
# 3 -0.004388 -0.004001 0.014874 0.000000 0.000000 0.000000
# 4 0.000000 0.000000 0.000000 0.055284 0.000000 0.000000
# 5 0.000000 0.000000 0.000000 0.000000 0.034664 0.000000
# 6 0.000000 0.000000 0.000000 0.000000 0.000000 0.036848
#
#
# Mechanical properties :
#
#
# Convention : Reuss Voigt Hill
#
# Bulk Modulus (GPa) = 39.17344 58.39349 48.78347
# Shear Modulus (GPa) = 22.90254 26.24685 24.57470
#
# Velocity S-wave (km/s) = 3.47375 3.71874 3.59833
# Velocity P-wave (km/s) = 6.06046 7.01465 6.55494
#
# Compressibility (1/GPa) = 0.02552750
#
# Stress axis : x y z
#
# Youngs Moduli (GPa) = 105.01135 33.47501 67.23311
#
# Poissons Ratio (x) = 0.20027 0.29499
# Poissons Ratio (y) = 0.62824 0.26899
# Poissons Ratio (z) = 0.46075 0.13393
#
# Static dielectric constant tensor:
#      x y z
#    x 3.688060 0.000000 0.000000 
#    y 0.000000 3.133270 0.000000 
#    z 0.000000 0.000000 3.842000 
# 
# 
# High freq. dielectric constant tensor:
#      x y z
#    x 1.747610 0.000000 0.000000 
#    y 0.000000 1.698170 0.000000 
#    z 0.000000 0.000000 1.749600 
# 
# From -- ./inp_files/9676.got.cif
#   From: 2010.03.12/outbox.cif.g09.slc.cpg/sg64_5_cif.got.tgz:9676.got - 2010.04.10 20:19:32.
