data_PCOD8262309
_publ_section_title
;
Structure prediction by ZEFSAII (Michael W. Deem and Ramdas Pophale) SiO2 
 PCOD8262309
Probable space group: C M C A
;
_chemical_formula_sum "Si O2"
_cell_formula_units_Z 96
_cell_length_a 8.543832
_cell_length_b 25.548025
_cell_length_c 23.445043
_cell_angle_alpha 90.000000
_cell_angle_beta 90.000000
_cell_angle_gamma 90.000000
_cell_volume 5117.537882
_symmetry_space_group_name_H-M "C M C A"
_symmetry_group_IT_number 64
_symmetry_cell_setting 'orthorhombic'
loop_
_space_group_symop_operation_xyz
x,y,z
-x,1/2-y,1/2+z
x,-y,-z
-x,1/2+y,1/2-z
-x,-y,-z
x,1/2+y,1/2-z
-x,y,z
x,1/2-y,1/2+z
1/2+x,1/2+y,z
1/2-x,-y,1/2+z
1/2+x,1/2-y,-z
1/2-x,y,1/2-z
1/2-x,1/2-y,-z
1/2+x,y,1/2-z
1/2-x,1/2+y,z
1/2+x,-y,1/2+z
loop_
_atom_site_type_symbol
_atom_site_label
_atom_site_fract_x
_atom_site_fract_y
_atom_site_fract_z
Si Si1 0.316353 0.556829 0.935784
Si Si2 0.817153 0.247734 0.812528
Si Si3 0.679196 0.947564 0.940414
Si Si4 0.821396 0.160520 0.396610
Si Si5 0.179154 0.305697 0.493659
Si Si6 0.680924 0.151770 0.883981
O O1 0.500000 0.565379 0.942643
O O2 0.278471 0.497143 0.918874
O O3 0.255922 0.593354 0.882870
O O4 0.240645 0.571495 0.997352
O O5 0.750000 0.251367 0.750000
O O6 0.772053 0.302858 0.843371
O O7 0.755963 0.195570 0.843478
O O8 0.000000 0.241272 0.808470
O O9 0.500000 0.964939 0.948394
O O10 0.690010 0.902729 0.890605
O O11 0.692292 0.169148 0.444723
O O12 0.000000 0.175586 0.414642
O O13 0.250000 0.250000 0.500000
O O14 0.291082 0.333870 0.449321
O O15 0.000000 0.305655 0.472079
O O16 0.500000 0.148491 0.868171
#
# Coordination Sequence:
#
# PCOD8262309 Si02
#       6
#    16  16  16  16  16  16
#     4  11  21  33  51  81 118 154 189 231 280 339
#     4  11  24  42  61  84 112 147 191 238 288 341
#     4  10  19  33  53  80 115 155 191 228 278 338
#     4  10  21  36  57  81 114 151 188 231 280 338
#     4  12  22  32  51  81 116 149 185 226 281 344
#     4  12  23  37  57  82 114 152 191 235 286 340
#
# _framework density 18.75902
#
# number of rings (size 3 to 8) (size 9 to 14) (size 15 to 20)
#    0.000    1.000    3.333    6.500    0.000    1.333 
#    0.000    0.000    0.000    1.000    0.000    4.667 
#    0.000    0.000    0.000    0.000    0.000    0.000 
#
# Total GULP energy -594637.702344 kJ/mol
# GULP energy per Si atom -12388.285465 kJ/mol
# Density = 1.871632 g / cm^3
# Si number density = 18.759020 Si / 1000 Ang^3
#
#
#
# Elastic Constant Matrix: (Units=GPa)
#
#
# Indices 1 2 3 4 5 6 
#
# 1 88.3600 29.1658 25.9083 0.0000 0.0000 0.0000
# 2 29.1658 144.8622 57.2397 0.0000 0.0000 0.0000
# 3 25.9083 57.2397 91.2023 0.0000 0.0000 0.0000
# 4 0.0000 0.0000 0.0000 16.9706 0.0000 0.0000
# 5 0.0000 0.0000 0.0000 0.0000 24.2115 0.0000
# 6 0.0000 0.0000 0.0000 0.0000 0.0000 27.5708
#
#
#
# Elastic Compliance Matrix: (Units=1/GPa)
#
#
# Indices 1 2 3 4 5 6 
#
# 1 0.012583 -0.001491 -0.002639 0.000000 0.000000 0.000000
# 2 -0.001491 0.009356 -0.005449 0.000000 0.000000 0.000000
# 3 -0.002639 -0.005449 0.015134 0.000000 0.000000 0.000000
# 4 0.000000 0.000000 0.000000 0.058925 0.000000 0.000000
# 5 0.000000 0.000000 0.000000 0.000000 0.041303 0.000000
# 6 0.000000 0.000000 0.000000 0.000000 0.000000 0.036270
#
#
# Mechanical properties :
#
#
# Convention : Reuss Voigt Hill
#
# Bulk Modulus (GPa) = 55.81378 61.00580 58.40979
# Shear Modulus (GPa) = 25.16355 27.89131 26.52743
#
# Velocity S-wave (km/s) = 3.66650 3.86012 3.76455
# Velocity P-wave (km/s) = 6.90955 7.24284 7.07816
#
# Compressibility (1/GPa) = 0.01791672
#
# Stress axis : x y z
#
# Youngs Moduli (GPa) = 79.47121 106.88170 66.07689
#
# Poissons Ratio (x) = 0.15933 0.17438
# Poissons Ratio (y) = 0.11847 0.36002
# Poissons Ratio (z) = 0.20972 0.58235
#
# Static dielectric constant tensor:
#      x y z
#    x 4.961420 0.000000 0.000000 
#    y 0.000000 3.839280 0.000000 
#    z 0.000000 0.000000 3.096040 
# 
# 
# High freq. dielectric constant tensor:
#      x y z
#    x 1.743410 0.000000 0.000000 
#    y 0.000000 1.754330 0.000000 
#    z 0.000000 0.000000 1.669870 
# 
# From -- ./inp_files/37069.got.cif
#   From: 2010.03.12/outbox.cif.g09.slc.cpg/sg64_19_cif.got.tgz:37069.got - 2010.04.10 20:19:32.
