data_PCOD8262752
_publ_section_title
;
Structure prediction by ZEFSAII (Michael W. Deem and Ramdas Pophale) SiO2 
 PCOD8262752
Probable space group: C M C A
;
_chemical_formula_sum "Si O2"
_cell_formula_units_Z 96
_cell_length_a 19.015480
_cell_length_b 11.567234
_cell_length_c 22.595023
_cell_angle_alpha 90.000000
_cell_angle_beta 90.000000
_cell_angle_gamma 90.000000
_cell_volume 4969.922330
_symmetry_space_group_name_H-M "C M C A"
_symmetry_group_IT_number 64
_symmetry_cell_setting 'orthorhombic'
loop_
_space_group_symop_operation_xyz
x,y,z
-x,1/2-y,1/2+z
x,-y,-z
-x,1/2+y,1/2-z
-x,-y,-z
x,1/2+y,1/2-z
-x,y,z
x,1/2-y,1/2+z
1/2+x,1/2+y,z
1/2-x,-y,1/2+z
1/2+x,1/2-y,-z
1/2-x,y,1/2-z
1/2-x,1/2-y,-z
1/2+x,y,1/2-z
1/2-x,1/2+y,z
1/2+x,-y,1/2+z
loop_
_atom_site_type_symbol
_atom_site_label
_atom_site_fract_x
_atom_site_fract_y
_atom_site_fract_z
Si Si1 0.649262 0.216045 0.644835
Si Si2 0.170659 0.892147 0.266687
Si Si3 0.693051 0.767733 0.623089
Si Si4 0.580391 0.947966 0.839243
Si Si5 0.822917 0.002679 0.930153
Si Si6 0.835275 0.447235 0.061645
O O1 0.636826 0.161111 0.708740
O O2 0.723647 0.279328 0.634242
O O3 0.590709 0.314933 0.641492
O O4 0.638430 0.115230 0.596155
O O5 0.250000 0.928334 0.250000
O O6 0.163061 0.796338 0.318623
O O7 0.129550 0.009685 0.284579
O O8 0.654567 0.889031 0.607725
O O9 0.676794 0.691123 0.564052
O O10 0.500000 0.969939 0.821918
O O11 0.600804 0.024155 0.895443
O O12 0.739431 0.000515 0.918234
O O13 0.840639 0.000000 0.000000
O O14 0.858528 0.500000 0.000000
#
# Coordination Sequence:
#
# PCOD8262752 Si02
#       6
#    16  16  16  16  16  16
#     4  10  21  34  57  82 114 152 188 240 300 355
#     4   9  21  37  61  85 109 150 194 249 294 348
#     4   9  18  34  54  88 116 142 190 248 299 346
#     4  11  23  38  56  83 119 152 196 240 293 364
#     4  10  20  32  58  91 119 150 190 252 310 346
#     4   9  19  33  56  82 115 151 192 241 293 349
#
# _framework density 19.316198
#
# number of rings (size 3 to 8) (size 9 to 14) (size 15 to 20)
#    0.000    2.333    1.667    1.000    4.667    3.667 
#    0.000    0.000    0.000    1.500    0.000    0.000 
#    0.000    0.000    0.000    0.000    0.000    0.000 
#
# Total GULP energy -594718.043714 kJ/mol
# GULP energy per Si atom -12389.959244 kJ/mol
# Density = 1.927223 g / cm^3
# Si number density = 19.316198 Si / 1000 Ang^3
#
#
#
# Elastic Constant Matrix: (Units=GPa)
#
#
# Indices 1 2 3 4 5 6 
#
# 1 68.2910 31.2961 32.8205 0.0000 0.0000 0.0000
# 2 31.2961 113.5489 54.9007 0.0000 0.0000 0.0000
# 3 32.8205 54.9007 94.7328 0.0000 0.0000 0.0000
# 4 0.0000 0.0000 0.0000 30.1391 0.0000 0.0000
# 5 0.0000 0.0000 0.0000 0.0000 10.9444 0.0000
# 6 0.0000 0.0000 0.0000 0.0000 0.0000 16.7389
#
#
#
# Elastic Compliance Matrix: (Units=1/GPa)
#
#
# Indices 1 2 3 4 5 6 
#
# 1 0.018157 -0.002727 -0.004710 0.000000 0.000000 0.000000
# 2 -0.002727 0.012645 -0.006383 0.000000 0.000000 0.000000
# 3 -0.004710 -0.006383 0.015887 0.000000 0.000000 0.000000
# 4 0.000000 0.000000 0.000000 0.033180 0.000000 0.000000
# 5 0.000000 0.000000 0.000000 0.000000 0.091371 0.000000
# 6 0.000000 0.000000 0.000000 0.000000 0.000000 0.059741
#
#
# Mechanical properties :
#
#
# Convention : Reuss Voigt Hill
#
# Bulk Modulus (GPa) = 52.49932 57.17858 54.83895
# Shear Modulus (GPa) = 18.87010 22.06817 20.46914
#
# Velocity S-wave (km/s) = 3.12894 3.38371 3.25882
# Velocity P-wave (km/s) = 6.34757 6.70311 6.52776
#
# Compressibility (1/GPa) = 0.01904786
#
# Stress axis : x y z
#
# Youngs Moduli (GPa) = 55.07651 79.08480 62.94429
#
# Poissons Ratio (x) = 0.21566 0.29647
# Poissons Ratio (y) = 0.15019 0.40179
# Poissons Ratio (z) = 0.25941 0.50481
#
# Static dielectric constant tensor:
#      x y z
#    x 2.994200 0.000000 0.000000 
#    y 0.000000 3.681540 0.000000 
#    z 0.000000 0.000000 3.793900 
# 
# 
# High freq. dielectric constant tensor:
#      x y z
#    x 1.689000 0.000000 0.000000 
#    y 0.000000 1.763520 0.000000 
#    z 0.000000 0.000000 1.757040 
# 
# From -- ./inp_files/40829.got.cif
#   From: 2010.03.12/outbox.cif.g09.slc.cpg/sg64_21_cif.got.tgz:40829.got - 2010.04.10 20:19:32.
