data_PCOD8262082
_publ_section_title
;
Structure prediction by ZEFSAII (Michael W. Deem and Ramdas Pophale) SiO2 
 PCOD8262082
Probable space group: C M C A
;
_chemical_formula_sum "Si O2"
_cell_formula_units_Z 96
_cell_length_a 8.877252
_cell_length_b 30.042157
_cell_length_c 20.376614
_cell_angle_alpha 90.000000
_cell_angle_beta 90.000000
_cell_angle_gamma 90.000000
_cell_volume 5434.275831
_symmetry_space_group_name_H-M "C M C A"
_symmetry_group_IT_number 64
_symmetry_cell_setting 'orthorhombic'
loop_
_space_group_symop_operation_xyz
x,y,z
-x,1/2-y,1/2+z
x,-y,-z
-x,1/2+y,1/2-z
-x,-y,-z
x,1/2+y,1/2-z
-x,y,z
x,1/2-y,1/2+z
1/2+x,1/2+y,z
1/2-x,-y,1/2+z
1/2+x,1/2-y,-z
1/2-x,y,1/2-z
1/2-x,1/2-y,-z
1/2+x,y,1/2-z
1/2-x,1/2+y,z
1/2+x,-y,1/2+z
loop_
_atom_site_type_symbol
_atom_site_label
_atom_site_fract_x
_atom_site_fract_y
_atom_site_fract_z
Si Si1 0.671310 0.119499 0.991561
Si Si2 0.676168 0.006568 0.687026
Si Si3 0.675539 0.537710 0.050060
Si Si4 0.822767 0.689485 0.685273
Si Si5 0.327897 0.401521 0.343083
Si Si6 0.178157 0.710012 0.539712
O O1 0.500000 0.131019 0.010699
O O2 0.682509 0.096580 0.921188
O O3 0.766789 0.164615 0.993763
O O4 0.737978 0.084144 0.042542
O O5 0.500000 0.014306 0.696617
O O6 0.750000 0.981678 0.750000
O O7 0.709785 0.977263 0.623631
O O8 0.758156 0.053689 0.683870
O O9 0.500000 0.546058 0.036383
O O10 0.736167 0.500000 0.000000
O O11 0.750000 0.713139 0.750000
O O12 0.770014 0.638602 0.685193
O O13 0.771410 0.712534 0.616628
O O14 0.000000 0.691842 0.692646
O O15 0.500000 0.395931 0.319499
O O16 0.250000 0.750000 0.500000
O O17 0.000000 0.712346 0.533733
#
# Coordination Sequence:
#
# PCOD8262082 Si02
#       6
#    16  16  16  16  16  16
#     4  10  20  33  54  81 107 137 176 221 265 313
#     4  11  22  34  49  70 102 141 179 222 267 314
#     4  10  20  35  54  75 103 140 181 220 262 312
#     4  10  20  33  51  76 107 141 173 211 260 317
#     4  10  19  31  48  73 105 139 174 212 258 313
#     4  10  21  37  58  82 110 141 177 219 268 321
#
# _framework density 17.665648000000001
#
# number of rings (size 3 to 8) (size 9 to 14) (size 15 to 20)
#    0.000    1.833    1.667    3.000    0.000    5.000 
#    0.000    0.000    0.000    1.000    0.000    7.000 
#    0.000    0.000    0.000    0.000    0.000    0.000 
#
# Total GULP energy -595215.384404 kJ/mol
# GULP energy per Si atom -12400.320508 kJ/mol
# Density = 1.762544 g / cm^3
# Si number density = 17.665648 Si / 1000 Ang^3
#
#
#
# Elastic Constant Matrix: (Units=GPa)
#
#
# Indices 1 2 3 4 5 6 
#
# 1 72.0395 40.5767 48.0928 0.0000 0.0000 0.0000
# 2 40.5767 88.7683 58.6462 0.0000 0.0000 0.0000
# 3 48.0928 58.6462 110.4237 0.0000 0.0000 0.0000
# 4 0.0000 0.0000 0.0000 -41.2094 0.0000 0.0000
# 5 0.0000 0.0000 0.0000 0.0000 31.4017 0.0000
# 6 0.0000 0.0000 0.0000 0.0000 0.0000 30.7724
#
#
#
# Elastic Compliance Matrix: (Units=1/GPa)
#
#
# Indices 1 2 3 4 5 6 
#
# 1 0.021200 -0.005531 -0.006295 0.000000 0.000000 0.000000
# 2 -0.005531 0.018798 -0.007575 0.000000 0.000000 0.000000
# 3 -0.006295 -0.007575 0.015821 0.000000 0.000000 0.000000
# 4 0.000000 0.000000 0.000000 -0.024266 0.000000 0.000000
# 5 0.000000 0.000000 0.000000 0.000000 0.031845 0.000000
# 6 0.000000 0.000000 0.000000 0.000000 0.000000 0.032497
#
#
# Mechanical properties :
#
#
# Convention : Reuss Voigt Hill
#
# Bulk Modulus (GPa) = 58.76920 62.87363 60.82142
# Shear Modulus (GPa) = 35.62060 12.45400 24.03730
#
# Velocity S-wave (km/s) = 4.49528 2.65803 3.69274
# Velocity P-wave (km/s) = 7.76422 6.71479 7.25849
#
# Compressibility (1/GPa) = 0.01701571
#
# Stress axis : x y z
#
# Youngs Moduli (GPa) = 47.17089 53.19728 63.20845
#
# Poissons Ratio (x) = 0.29425 0.39792
# Poissons Ratio (y) = 0.26092 0.47878
# Poissons Ratio (z) = 0.29695 0.40295
#
# Static dielectric constant tensor:
#      x y z
#    x 3.407510 0.000000 0.000000 
#    y 0.000000 2.977580 0.000000 
#    z 0.000000 0.000000 3.618760 
# 
# 
# High freq. dielectric constant tensor:
#      x y z
#    x 1.697450 0.000000 0.000000 
#    y 0.000000 1.648900 0.000000 
#    z 0.000000 0.000000 1.690080 
# 
# From -- ./inp_files/37031.got.cif
#   From: 2010.03.12/outbox.cif.g09.slc.cpg/sg64_19_cif.got.tgz:37031.got - 2010.04.10 20:19:32.
