data_PCOD8262616
_publ_section_title
;
Structure prediction by ZEFSAII (Michael W. Deem and Ramdas Pophale) SiO2 
 PCOD8262616
Probable space group: C M C A
;
_chemical_formula_sum "Si O2"
_cell_formula_units_Z 64
_cell_length_a 15.702880
_cell_length_b 8.848159
_cell_length_c 19.554908
_cell_angle_alpha 90.000000
_cell_angle_beta 90.000000
_cell_angle_gamma 90.000000
_cell_volume 2716.989795
_symmetry_space_group_name_H-M "C M C A"
_symmetry_group_IT_number 64
_symmetry_cell_setting 'orthorhombic'
loop_
_space_group_symop_operation_xyz
x,y,z
-x,1/2-y,1/2+z
x,-y,-z
-x,1/2+y,1/2-z
-x,-y,-z
x,1/2+y,1/2-z
-x,y,z
x,1/2-y,1/2+z
1/2+x,1/2+y,z
1/2-x,-y,1/2+z
1/2+x,1/2-y,-z
1/2-x,y,1/2-z
1/2-x,1/2-y,-z
1/2+x,y,1/2-z
1/2-x,1/2+y,z
1/2+x,-y,1/2+z
loop_
_atom_site_type_symbol
_atom_site_label
_atom_site_fract_x
_atom_site_fract_y
_atom_site_fract_z
Si Si1 0.161015 0.285413 0.034928
Si Si2 0.898919 0.297182 0.290145
Si Si3 0.100978 0.118647 0.160973
Si Si4 0.096527 0.418581 0.907299
O O1 0.137426 0.148305 0.085342
O O2 0.159497 0.440842 0.078858
O O3 0.250000 0.250000 0.000000
O O4 0.093718 0.306366 0.973043
O O5 0.861822 0.460570 0.310343
O O6 0.870664 0.251588 0.213486
O O7 0.864742 0.170448 0.342723
O O8 0.000000 0.300110 0.296461
O O9 0.000000 0.111174 0.156186
O O10 0.000000 0.476593 0.893020
#
# Coordination Sequence:
#
# PCOD8262616 Si02
#       4
#    16  16  16  16
#     4  11  23  37  58  88 125 167 211 260 315 375
#     4   9  19  34  62  96 124 157 208 262 314 376
#     4  10  19  36  61  93 127 163 206 261 319 383
#     4  10  21  41  64  89 123 171 216 257 311 380
#
# _framework density 23.555482000000001
#
# number of rings (size 3 to 8) (size 9 to 14) (size 15 to 20)
#    0.000    2.000    0.000    4.500    0.000    9.000 
#    0.000    5.000    0.000    9.000    0.000    0.000 
#    0.000    0.000    0.000    0.000    0.000    0.000 
#
# Total GULP energy -396707.223754 kJ/mol
# GULP energy per Si atom -12397.100742 kJ/mol
# Density = 2.350187 g / cm^3
# Si number density = 23.555482 Si / 1000 Ang^3
#
#
#
# Elastic Constant Matrix: (Units=GPa)
#
#
# Indices 1 2 3 4 5 6 
#
# 1 51.8351 53.4627 33.6797 0.0000 0.0000 0.0000
# 2 53.4627 115.6086 40.1598 0.0000 0.0000 0.0000
# 3 33.6797 40.1598 119.9979 0.0000 0.0000 0.0000
# 4 0.0000 0.0000 0.0000 56.6189 0.0000 0.0000
# 5 0.0000 0.0000 0.0000 0.0000 30.2064 0.0000
# 6 0.0000 0.0000 0.0000 0.0000 0.0000 26.0195
#
#
#
# Elastic Compliance Matrix: (Units=1/GPa)
#
#
# Indices 1 2 3 4 5 6 
#
# 1 0.040065 -0.016545 -0.005708 0.000000 0.000000 0.000000
# 2 -0.016545 0.016620 -0.000919 0.000000 0.000000 0.000000
# 3 -0.005708 -0.000919 0.010243 0.000000 0.000000 0.000000
# 4 0.000000 0.000000 0.000000 0.017662 0.000000 0.000000
# 5 0.000000 0.000000 0.000000 0.000000 0.033106 0.000000
# 6 0.000000 0.000000 0.000000 0.000000 0.000000 0.038433
#
#
# Mechanical properties :
#
#
# Convention : Reuss Voigt Hill
#
# Bulk Modulus (GPa) = 48.57882 60.22734 54.40308
# Shear Modulus (GPa) = 23.88527 33.24492 28.56510
#
# Velocity S-wave (km/s) = 3.18779 3.76086 3.48612
# Velocity P-wave (km/s) = 5.84955 6.66953 6.27295
#
# Compressibility (1/GPa) = 0.02058510
#
# Stress axis : x y z
#
# Youngs Moduli (GPa) = 24.95919 60.16745 97.62840
#
# Poissons Ratio (x) = 0.99549 0.55725
# Poissons Ratio (y) = 0.41296 0.08968
# Poissons Ratio (z) = 0.14246 0.05527
#
# Static dielectric constant tensor:
#      x y z
#    x 3.699370 0.000000 0.000000 
#    y 0.000000 4.490860 0.000000 
#    z 0.000000 0.000000 4.567160 
# 
# 
# High freq. dielectric constant tensor:
#      x y z
#    x 1.886350 0.000000 0.000000 
#    y 0.000000 1.932460 0.000000 
#    z 0.000000 0.000000 1.951720 
# 
# From -- ./inp_files/39807.got.cif
#   From: 2010.03.12/outbox.cif.g09.slc.cpg/sg64_20_cif.got.tgz:39807.got - 2010.04.10 20:19:32.
