data_PCOD8262510
_publ_section_title
;
Structure prediction by ZEFSAII (Michael W. Deem and Ramdas Pophale) SiO2 
 PCOD8262510
Probable space group: C M C A
;
_chemical_formula_sum "Si O2"
_cell_formula_units_Z 112
_cell_length_a 13.878863
_cell_length_b 25.821352
_cell_length_c 15.757980
_cell_angle_alpha 90.000000
_cell_angle_beta 90.000000
_cell_angle_gamma 90.000000
_cell_volume 5647.203159
_symmetry_space_group_name_H-M "C M C A"
_symmetry_group_IT_number 64
_symmetry_cell_setting 'orthorhombic'
loop_
_space_group_symop_operation_xyz
x,y,z
-x,1/2-y,1/2+z
x,-y,-z
-x,1/2+y,1/2-z
-x,-y,-z
x,1/2+y,1/2-z
-x,y,z
x,1/2-y,1/2+z
1/2+x,1/2+y,z
1/2-x,-y,1/2+z
1/2+x,1/2-y,-z
1/2-x,y,1/2-z
1/2-x,1/2-y,-z
1/2+x,y,1/2-z
1/2-x,1/2+y,z
1/2+x,-y,1/2+z
loop_
_atom_site_type_symbol
_atom_site_label
_atom_site_fract_x
_atom_site_fract_y
_atom_site_fract_z
Si Si1 0.768167 0.692986 0.464886
Si Si2 0.390065 0.841524 0.848017
Si Si3 0.281800 0.983802 0.335290
Si Si4 0.111555 0.776778 0.808038
Si Si5 0.793013 0.123363 0.880444
Si Si6 0.111169 0.843484 0.289313
Si Si7 0.391120 0.458219 0.703702
O O1 0.750000 0.750000 0.500000
O O2 0.669331 0.665867 0.434501
O O3 0.841135 0.694821 0.387253
O O4 0.815313 0.656339 0.536096
O O5 0.500000 0.830478 0.873341
O O6 0.349206 0.799976 0.780445
O O7 0.378930 0.897153 0.804266
O O8 0.250000 0.951300 0.250000
O O9 0.364277 0.024127 0.301379
O O10 0.185373 0.015843 0.363154
O O11 0.315047 0.938448 0.399843
O O12 0.132574 0.716287 0.807721
O O13 0.000000 0.790193 0.814575
O O14 0.864104 0.144588 0.808191
O O15 0.680104 0.126635 0.854837
O O16 0.000000 0.858427 0.306812
O O17 0.500000 0.475938 0.682483
#
# Coordination Sequence:
#
# PCOD8262510 Si02
#       7
#    16  16  16  16  16  16  16
#     4  12  24  35  58  83 125 160 178 241 294 348
#     4  10  22  39  62  86 108 151 205 239 283 347
#     4   8  18  30  55  82 110 140 187 240 276 338
#     4  10  22  37  56  82 109 151 204 238 277 345
#     4  11  21  36  52  90 119 148 198 229 294 353
#     4  10  19  35  57  75 109 156 196 235 273 337
#     4   8  16  34  59  83 106 140 189 242 283 327
#
# _framework density 19.832826000000001
#
# number of rings (size 3 to 8) (size 9 to 14) (size 15 to 20)
#    0.857    1.143    2.857    1.286    6.000    4.000 
#    0.000    0.714    0.000    1.714    0.000    3.000 
#    0.000    0.000    0.000    0.000    0.000    0.000 
#
# Total GULP energy -693805.719605 kJ/mol
# GULP energy per Si atom -12389.387850 kJ/mol
# Density = 1.978769 g / cm^3
# Si number density = 19.832826 Si / 1000 Ang^3
#
#
#
# Elastic Constant Matrix: (Units=GPa)
#
#
# Indices 1 2 3 4 5 6 
#
# 1 66.4706 26.4777 15.5737 0.0000 0.0000 0.0000
# 2 26.4777 85.6218 16.8703 0.0000 0.0000 0.0000
# 3 15.5737 16.8703 53.9340 0.0000 0.0000 0.0000
# 4 0.0000 0.0000 0.0000 27.1582 0.0000 0.0000
# 5 0.0000 0.0000 0.0000 0.0000 19.0064 0.0000
# 6 0.0000 0.0000 0.0000 0.0000 0.0000 26.1759
#
#
#
# Elastic Compliance Matrix: (Units=1/GPa)
#
#
# Indices 1 2 3 4 5 6 
#
# 1 0.017805 -0.004788 -0.003644 0.000000 0.000000 0.000000
# 2 -0.004788 0.013734 -0.002913 0.000000 0.000000 0.000000
# 3 -0.003644 -0.002913 0.020505 0.000000 0.000000 0.000000
# 4 0.000000 0.000000 0.000000 0.036821 0.000000 0.000000
# 5 0.000000 0.000000 0.000000 0.000000 0.052614 0.000000
# 6 0.000000 0.000000 0.000000 0.000000 0.000000 0.038203
#
#
# Mechanical properties :
#
#
# Convention : Reuss Voigt Hill
#
# Bulk Modulus (GPa) = 34.06744 35.98554 35.02649
# Shear Modulus (GPa) = 23.56747 24.27507 23.92127
#
# Velocity S-wave (km/s) = 3.45092 3.50234 3.47673
# Velocity P-wave (km/s) = 5.75266 5.87699 5.81516
#
# Compressibility (1/GPa) = 0.02935354
#
# Stress axis : x y z
#
# Youngs Moduli (GPa) = 56.16325 72.81205 48.76959
#
# Poissons Ratio (x) = 0.34864 0.17770
# Poissons Ratio (y) = 0.26892 0.14208
# Poissons Ratio (z) = 0.20464 0.21213
#
# Static dielectric constant tensor:
#      x y z
#    x 3.672670 0.000000 0.000000 
#    y 0.000000 3.648290 0.000000 
#    z 0.000000 0.000000 3.291520 
# 
# 
# High freq. dielectric constant tensor:
#      x y z
#    x 1.773970 0.000000 0.000000 
#    y 0.000000 1.783370 0.000000 
#    z 0.000000 0.000000 1.733500 
# 
# From -- ./inp_files/24214.got.cif
#   From: 2010.03.12/outbox.cif.g09.slc.cpg/sg64_13_cif.got.tgz:24214.got - 2010.04.10 20:19:32.
