data_PCOD8262683
_publ_section_title
;
Structure prediction by ZEFSAII (Michael W. Deem and Ramdas Pophale) SiO2 
 PCOD8262683
Probable space group: C M C A
;
_chemical_formula_sum "Si O2"
_cell_formula_units_Z 80
_cell_length_a 18.586248
_cell_length_b 13.349637
_cell_length_c 15.306166
_cell_angle_alpha 90.000000
_cell_angle_beta 90.000000
_cell_angle_gamma 90.000000
_cell_volume 3797.760765
_symmetry_space_group_name_H-M "C M C A"
_symmetry_group_IT_number 64
_symmetry_cell_setting 'orthorhombic'
loop_
_space_group_symop_operation_xyz
x,y,z
-x,1/2-y,1/2+z
x,-y,-z
-x,1/2+y,1/2-z
-x,-y,-z
x,1/2+y,1/2-z
-x,y,z
x,1/2-y,1/2+z
1/2+x,1/2+y,z
1/2-x,-y,1/2+z
1/2+x,1/2-y,-z
1/2-x,y,1/2-z
1/2-x,1/2-y,-z
1/2+x,y,1/2-z
1/2-x,1/2+y,z
1/2+x,-y,1/2+z
loop_
_atom_site_type_symbol
_atom_site_label
_atom_site_fract_x
_atom_site_fract_y
_atom_site_fract_z
Si Si1 0.577216 0.387450 0.966161
Si Si2 0.693514 0.866130 0.173539
Si Si3 0.581433 0.702456 0.215933
Si Si4 0.269046 0.881220 0.500579
Si Si5 0.307519 0.099755 0.175164
O O1 0.500000 0.335482 0.992908
O O2 0.584300 0.381266 0.860705
O O3 0.649492 0.335626 0.003490
O O4 0.573985 0.500000 0.000000
O O5 0.750000 0.842306 0.250000
O O6 0.620510 0.804881 0.186764
O O7 0.674187 0.982792 0.168376
O O8 0.728154 0.833827 0.081236
O O9 0.500000 0.730991 0.240627
O O10 0.618775 0.656380 0.301677
O O11 0.225218 0.852378 0.587401
O O12 0.276412 0.000000 0.500000
O O13 0.250000 0.121987 0.250000
#
# Coordination Sequence:
#
# PCOD8262683 Si02
#       5
#    16  16  16  16  16
#     4   9  18  33  56  87 121 156 196 245 305 359
#     4  10  23  39  62  92 120 158 209 253 304 364
#     4  11  23  40  59  87 127 162 200 258 308 358
#     4   9  18  36  63  87 115 157 203 252 299 356
#     4  10  19  39  64  88 117 159 205 250 303 365
#
# _framework density 21.065044
#
# number of rings (size 3 to 8) (size 9 to 14) (size 15 to 20)
#    0.000    2.200    2.000    0.600    2.800    1.600 
#    0.000    2.000    0.000    3.600    0.000    0.000 
#    0.000    0.000    0.000    0.000    0.000    0.000 
#
# Total GULP energy -495703.714350 kJ/mol
# GULP energy per Si atom -12392.592859 kJ/mol
# Density = 2.101710 g / cm^3
# Si number density = 21.065044 Si / 1000 Ang^3
#
#
#
# Elastic Constant Matrix: (Units=GPa)
#
#
# Indices 1 2 3 4 5 6 
#
# 1 222.7039 61.5072 84.9964 0.0000 0.0000 0.0000
# 2 61.5072 73.5192 27.0741 0.0000 0.0000 0.0000
# 3 84.9964 27.0741 144.6790 0.0000 0.0000 0.0000
# 4 0.0000 0.0000 0.0000 -14.2715 0.0000 0.0000
# 5 0.0000 0.0000 0.0000 0.0000 29.2925 0.0000
# 6 0.0000 0.0000 0.0000 0.0000 0.0000 24.9874
#
#
#
# Elastic Compliance Matrix: (Units=1/GPa)
#
#
# Indices 1 2 3 4 5 6 
#
# 1 0.007023 -0.004678 -0.003250 0.000000 0.000000 0.000000
# 2 -0.004678 0.017725 -0.000568 0.000000 0.000000 0.000000
# 3 -0.003250 -0.000568 0.008928 0.000000 0.000000 0.000000
# 4 0.000000 0.000000 0.000000 -0.070070 0.000000 0.000000
# 5 0.000000 0.000000 0.000000 0.000000 0.034138 0.000000
# 6 0.000000 0.000000 0.000000 0.000000 0.000000 0.040020
#
#
# Mechanical properties :
#
#
# Convention : Reuss Voigt Hill
#
# Bulk Modulus (GPa) = 59.94695 87.56193 73.75444
# Shear Modulus (GPa) = 82.89116 25.82329 54.35722
#
# Velocity S-wave (km/s) = 6.27977 3.50506 5.08532
# Velocity P-wave (km/s) = 9.00558 7.61828 8.34083
#
# Compressibility (1/GPa) = 0.01668142
#
# Stress axis : x y z
#
# Youngs Moduli (GPa) = 142.39128 56.41646 112.01039
#
# Poissons Ratio (x) = 0.26394 0.36407
# Poissons Ratio (y) = 0.66618 0.06367
# Poissons Ratio (z) = 0.46282 0.03207
#
# Static dielectric constant tensor:
#      x y z
#    x 4.252260 0.000000 0.000000 
#    y 0.000000 3.640910 0.000000 
#    z 0.000000 0.000000 3.938840 
# 
# 
# High freq. dielectric constant tensor:
#      x y z
#    x 1.830390 0.000000 0.000000 
#    y 0.000000 1.818620 0.000000 
#    z 0.000000 0.000000 1.820740 
# 
# From -- ./inp_files/25315.got.cif
#   From: 2010.03.12/outbox.cif.g09.slc.cpg/sg64_13_cif.got.tgz:25315.got - 2010.04.10 20:19:32.
