data_PCOD8262937
_publ_section_title
;
Structure prediction by ZEFSAII (Michael W. Deem and Ramdas Pophale) SiO2 
 PCOD8262937
Probable space group: C M C A
;
_chemical_formula_sum "Si O2"
_cell_formula_units_Z 112
_cell_length_a 15.388829
_cell_length_b 24.301109
_cell_length_c 14.440729
_cell_angle_alpha 90.000000
_cell_angle_beta 90.000000
_cell_angle_gamma 90.000000
_cell_volume 5400.336042
_symmetry_space_group_name_H-M "C M C A"
_symmetry_group_IT_number 64
_symmetry_cell_setting 'orthorhombic'
loop_
_space_group_symop_operation_xyz
x,y,z
-x,1/2-y,1/2+z
x,-y,-z
-x,1/2+y,1/2-z
-x,-y,-z
x,1/2+y,1/2-z
-x,y,z
x,1/2-y,1/2+z
1/2+x,1/2+y,z
1/2-x,-y,1/2+z
1/2+x,1/2-y,-z
1/2-x,y,1/2-z
1/2-x,1/2-y,-z
1/2+x,y,1/2-z
1/2-x,1/2+y,z
1/2+x,-y,1/2+z
loop_
_atom_site_type_symbol
_atom_site_label
_atom_site_fract_x
_atom_site_fract_y
_atom_site_fract_z
Si Si1 0.402311 0.994506 0.658270
Si Si2 0.692502 0.344908 0.037961
Si Si3 0.655370 0.592363 0.283093
Si Si4 0.815032 0.704817 0.826206
Si Si5 0.239806 0.446959 0.954680
Si Si6 0.400681 0.814562 0.651157
Si Si7 0.599449 0.883101 0.292503
O O1 0.500000 0.998683 0.613433
O O2 0.411265 0.953439 0.745932
O O3 0.331699 0.967480 0.590012
O O4 0.370654 0.053912 0.694457
O O5 0.765904 0.302480 0.075150
O O6 0.615376 0.348083 0.113357
O O7 0.734377 0.405279 0.035341
O O8 0.659439 0.330599 0.935480
O O9 0.750000 0.574837 0.250000
O O10 0.667287 0.586082 0.393649
O O11 0.628892 0.652723 0.244235
O O12 0.750000 0.729902 0.750000
O O13 0.892212 0.749167 0.834413
O O14 0.848272 0.645155 0.791713
O O15 0.193327 0.500000 0.000000
O O16 0.500000 0.829073 0.628616
O O17 0.500000 0.879666 0.265368
#
# Coordination Sequence:
#
# PCOD8262937 Si02
#       7
#    16  16  16  16  16  16  16
#     4  10  20  34  58  87 120 155 198 251 309 364
#     4  11  22  37  61  93 119 157 204 262 308 368
#     4  10  21  36  59  87 122 162 206 251 314 374
#     4  10  24  40  63  85 122 165 208 246 316 378
#     4  11  22  36  60  91 128 162 205 251 308 377
#     4  12  23  41  65  89 119 158 211 269 316 362
#     4  10  21  38  58  88 124 158 200 252 312 376
#
# _framework density 20.739450999999999
#
# number of rings (size 3 to 8) (size 9 to 14) (size 15 to 20)
#    0.000    1.429    4.286    2.143    2.000    2.571 
#    0.000    0.000    0.000    4.286    0.000    0.000 
#    0.000    0.000    0.000    0.000    0.000    0.000 
#
# Total GULP energy -693861.412572 kJ/mol
# GULP energy per Si atom -12390.382367 kJ/mol
# Density = 2.069225 g / cm^3
# Si number density = 20.739451 Si / 1000 Ang^3
#
#
#
# Elastic Constant Matrix: (Units=GPa)
#
#
# Indices 1 2 3 4 5 6 
#
# 1 65.3677 33.1172 35.1965 0.0000 0.0000 0.0000
# 2 33.1172 121.7293 37.9594 0.0000 0.0000 0.0000
# 3 35.1965 37.9594 90.1685 0.0000 0.0000 0.0000
# 4 0.0000 0.0000 0.0000 27.7885 0.0000 0.0000
# 5 0.0000 0.0000 0.0000 0.0000 16.3451 0.0000
# 6 0.0000 0.0000 0.0000 0.0000 0.0000 28.4791
#
#
#
# Elastic Compliance Matrix: (Units=1/GPa)
#
#
# Indices 1 2 3 4 5 6 
#
# 1 0.020635 -0.003571 -0.006551 0.000000 0.000000 0.000000
# 2 -0.003571 0.010074 -0.002847 0.000000 0.000000 0.000000
# 3 -0.006551 -0.002847 0.014846 0.000000 0.000000 0.000000
# 4 0.000000 0.000000 0.000000 0.035986 0.000000 0.000000
# 5 0.000000 0.000000 0.000000 0.000000 0.061181 0.000000
# 6 0.000000 0.000000 0.000000 0.000000 0.000000 0.035114
#
#
# Mechanical properties :
#
#
# Convention : Reuss Voigt Hill
#
# Bulk Modulus (GPa) = 50.97782 54.42353 52.70067
# Shear Modulus (GPa) = 23.77410 25.92203 24.84807
#
# Velocity S-wave (km/s) = 3.38941 3.53921 3.46512
# Velocity P-wave (km/s) = 6.32068 6.55743 6.44014
#
# Compressibility (1/GPa) = 0.01961638
#
# Stress axis : x y z
#
# Youngs Moduli (GPa) = 48.46217 99.26250 67.35724
#
# Poissons Ratio (x) = 0.35445 0.44128
# Poissons Ratio (y) = 0.17305 0.19178
# Poissons Ratio (z) = 0.31749 0.28262
#
# Static dielectric constant tensor:
#      x y z
#    x 3.653320 0.000000 0.000000 
#    y 0.000000 3.842980 0.000000 
#    z 0.000000 0.000000 3.938160 
# 
# 
# High freq. dielectric constant tensor:
#      x y z
#    x 1.793140 0.000000 0.000000 
#    y 0.000000 1.819800 0.000000 
#    z 0.000000 0.000000 1.796910 
# 
# From -- ./inp_files/24270.got.cif
#   From: 2010.03.12/outbox.cif.g09.slc.cpg/sg64_13_cif.got.tgz:24270.got - 2010.04.10 20:19:32.
