data_PCOD8262867
_publ_section_title
;
Structure prediction by ZEFSAII (Michael W. Deem and Ramdas Pophale) SiO2 
 PCOD8262867
Probable space group: C M C A
;
_chemical_formula_sum "Si O2"
_cell_formula_units_Z 112
_cell_length_a 33.132948
_cell_length_b 13.379686
_cell_length_c 14.483083
_cell_angle_alpha 90.000000
_cell_angle_beta 90.000000
_cell_angle_gamma 90.000000
_cell_volume 6420.472938
_symmetry_space_group_name_H-M "C M C A"
_symmetry_group_IT_number 64
_symmetry_cell_setting 'orthorhombic'
loop_
_space_group_symop_operation_xyz
x,y,z
-x,1/2-y,1/2+z
x,-y,-z
-x,1/2+y,1/2-z
-x,-y,-z
x,1/2+y,1/2-z
-x,y,z
x,1/2-y,1/2+z
1/2+x,1/2+y,z
1/2-x,-y,1/2+z
1/2+x,1/2-y,-z
1/2-x,y,1/2-z
1/2-x,1/2-y,-z
1/2+x,y,1/2-z
1/2-x,1/2+y,z
1/2+x,-y,1/2+z
loop_
_atom_site_type_symbol
_atom_site_label
_atom_site_fract_x
_atom_site_fract_y
_atom_site_fract_z
Si Si1 0.163914 0.033164 0.232681
Si Si2 0.695209 0.085734 0.074068
Si Si3 0.353172 0.767767 0.491472
Si Si4 0.283926 0.093370 0.436052
Si Si5 0.047264 0.023889 0.105906
Si Si6 0.898500 0.195616 0.173173
Si Si7 0.105247 0.135260 0.819123
O O1 0.185176 0.032657 0.330427
O O2 0.198503 0.052785 0.158928
O O3 0.131198 0.120338 0.224864
O O4 0.143815 0.924598 0.219590
O O5 0.739205 0.139695 0.080630
O O6 0.660092 0.162994 0.050242
O O7 0.695023 0.000000 0.000000
O O8 0.312983 0.829528 0.513267
O O9 0.377893 0.751365 0.585467
O O10 0.382145 0.821138 0.418113
O O11 0.277661 0.000000 0.500000
O O12 0.062889 0.133496 0.136420
O O13 0.000000 0.020591 0.123883
O O14 0.067655 0.938857 0.168305
O O15 0.058461 0.000000 0.000000
O O16 0.909887 0.280687 0.247199
#
# Coordination Sequence:
#
# PCOD8262867 Si02
#       7
#    16  16  16  16  16  16  16
#     4  10  20  34  54  78 105 142 195 229 270 335
#     4  11  22  35  50  76 112 147 182 235 286 328
#     4  11  20  36  55  80 107 145 192 234 270 339
#     4  10  20  34  54  73 106 146 189 240 284 312
#     4  10  21  38  62  91 116 142 183 228 277 342
#     4  10  21  35  59  85 109 147 181 225 278 330
#     4  11  20  36  61  85 110 149 185 229 281 332
#
# _framework density 17.444196999999999
#
# number of rings (size 3 to 8) (size 9 to 14) (size 15 to 20)
#    0.000    1.571    4.286    1.714    0.000    0.571 
#    0.000    0.000    0.000    0.000    0.000    1.000 
#    0.000    0.000    0.000    0.000    0.000    0.000 
#
# Total GULP energy -694376.541498 kJ/mol
# GULP energy per Si atom -12399.581098 kJ/mol
# Density = 1.740449 g / cm^3
# Si number density = 17.444197 Si / 1000 Ang^3
#
#
#
# Elastic Constant Matrix: (Units=GPa)
#
#
# Indices 1 2 3 4 5 6 
#
# 1 84.8757 29.0790 33.4087 0.0000 0.0000 0.0000
# 2 29.0790 73.4651 34.9228 0.0000 0.0000 0.0000
# 3 33.4087 34.9228 99.2788 0.0000 0.0000 0.0000
# 4 0.0000 0.0000 0.0000 29.7461 0.0000 0.0000
# 5 0.0000 0.0000 0.0000 0.0000 26.2488 0.0000
# 6 0.0000 0.0000 0.0000 0.0000 0.0000 23.0872
#
#
#
# Elastic Compliance Matrix: (Units=1/GPa)
#
#
# Indices 1 2 3 4 5 6 
#
# 1 0.014551 -0.004121 -0.003447 0.000000 0.000000 0.000000
# 2 -0.004121 0.017512 -0.004773 0.000000 0.000000 0.000000
# 3 -0.003447 -0.004773 0.012912 0.000000 0.000000 0.000000
# 4 0.000000 0.000000 0.000000 0.033618 0.000000 0.000000
# 5 0.000000 0.000000 0.000000 0.000000 0.038097 0.000000
# 6 0.000000 0.000000 0.000000 0.000000 0.000000 0.043314
#
#
# Mechanical properties :
#
#
# Convention : Reuss Voigt Hill
#
# Bulk Modulus (GPa) = 49.28048 50.27120 49.77584
# Shear Modulus (GPa) = 26.11651 26.49701 26.30676
#
# Velocity S-wave (km/s) = 3.87349 3.90161 3.88758
# Velocity P-wave (km/s) = 6.95104 7.01267 6.98193
#
# Compressibility (1/GPa) = 0.02029201
#
# Stress axis : x y z
#
# Youngs Moduli (GPa) = 68.72601 57.10318 77.44920
#
# Poissons Ratio (x) = 0.23531 0.26696
# Poissons Ratio (y) = 0.28321 0.36970
# Poissons Ratio (z) = 0.23689 0.27258
#
# Static dielectric constant tensor:
#      x y z
#    x 3.213670 0.000000 0.000000 
#    y 0.000000 3.233680 0.000000 
#    z 0.000000 0.000000 3.270020 
# 
# 
# High freq. dielectric constant tensor:
#      x y z
#    x 1.665510 0.000000 0.000000 
#    y 0.000000 1.669990 0.000000 
#    z 0.000000 0.000000 1.685340 
# 
# From -- ./inp_files/28465.got.cif
#   From: 2010.03.12/outbox.cif.g09.slc.cpg/sg64_15_cif.got.tgz:28465.got - 2010.04.10 20:19:32.
