data_PCOD8262896
_publ_section_title
;
Structure prediction by ZEFSAII (Michael W. Deem and Ramdas Pophale) SiO2 
 PCOD8262896
Probable space group: C M C A
;
_chemical_formula_sum "Si O2"
_cell_formula_units_Z 128
_cell_length_a 27.222640
_cell_length_b 16.297034
_cell_length_c 14.626474
_cell_angle_alpha 90.000000
_cell_angle_beta 90.000000
_cell_angle_gamma 90.000000
_cell_volume 6489.010174
_symmetry_space_group_name_H-M "C M C A"
_symmetry_group_IT_number 64
_symmetry_cell_setting 'orthorhombic'
loop_
_space_group_symop_operation_xyz
x,y,z
-x,1/2-y,1/2+z
x,-y,-z
-x,1/2+y,1/2-z
-x,-y,-z
x,1/2+y,1/2-z
-x,y,z
x,1/2-y,1/2+z
1/2+x,1/2+y,z
1/2-x,-y,1/2+z
1/2+x,1/2-y,-z
1/2-x,y,1/2-z
1/2-x,1/2-y,-z
1/2+x,y,1/2-z
1/2-x,1/2+y,z
1/2+x,-y,1/2+z
loop_
_atom_site_type_symbol
_atom_site_label
_atom_site_fract_x
_atom_site_fract_y
_atom_site_fract_z
Si Si1 0.259489 0.209971 0.854111
Si Si2 0.361010 0.364906 0.330408
Si Si3 0.841380 0.324809 0.441466
Si Si4 0.816697 0.356488 0.638948
Si Si5 0.053724 0.552704 0.913160
Si Si6 0.118225 0.218430 0.290237
Si Si7 0.357954 0.481421 0.169862
Si Si8 0.445456 0.428403 0.752574
O O1 0.250000 0.184566 0.750000
O O2 0.312617 0.170847 0.880054
O O3 0.216956 0.175014 0.918095
O O4 0.264144 0.309389 0.867072
O O5 0.401723 0.383246 0.407058
O O6 0.389771 0.303088 0.263191
O O7 0.346325 0.444774 0.270192
O O8 0.848705 0.325286 0.550696
O O9 0.866243 0.244772 0.393840
O O10 0.863986 0.410047 0.404461
O O11 0.838579 0.328551 0.736667
O O12 0.813717 0.455765 0.640518
O O13 0.052914 0.494784 0.826120
O O14 0.000000 0.595941 0.922721
O O15 0.066237 0.500000 0.000000
O O16 0.070682 0.159919 0.289788
O O17 0.407478 0.538015 0.170895
O O18 0.500000 0.417543 0.795338
#
# Coordination Sequence:
#
# PCOD8262896 Si02
#       8
#    16  16  16  16  16  16  16  16
#     4  11  19  37  52  75 114 146 180 232 272 321
#     4   9  18  34  56  74 107 145 181 219 280 326
#     4  11  20  36  56  76 110 147 184 228 274 331
#     4  10  20  34  55  78 102 143 189 222 274 332
#     4   9  18  33  53  79 110 141 179 229 279 332
#     4   9  19  34  53  77 105 142 178 226 277 327
#     4   9  18  35  54  76 103 140 179 227 274 327
#     4   9  18  33  54  80 107 138 180 229 280 333
#
# _framework density 19.725657999999999
#
# number of rings (size 3 to 8) (size 9 to 14) (size 15 to 20)
#    0.000    2.375    3.750    0.750    0.000    2.500 
#    2.250    3.125    0.000    9.000    0.000    0.000 
#    0.000    0.000    0.000    0.000    0.000    0.000 
#
# Total GULP energy -792850.036377 kJ/mol
# GULP energy per Si atom -12388.281818 kJ/mol
# Density = 1.968076 g / cm^3
# Si number density = 19.725658 Si / 1000 Ang^3
#
#
#
# Elastic Constant Matrix: (Units=GPa)
#
#
# Indices 1 2 3 4 5 6 
#
# 1 98.8169 36.4982 -7.7481 0.0000 0.0000 0.0000
# 2 36.4982 85.1475 -1.0741 0.0000 0.0000 0.0000
# 3 -7.7481 -1.0741 24.5262 0.0000 0.0000 0.0000
# 4 0.0000 0.0000 0.0000 19.4492 0.0000 0.0000
# 5 0.0000 0.0000 0.0000 0.0000 21.2437 0.0000
# 6 0.0000 0.0000 0.0000 0.0000 0.0000 42.7222
#
#
#
# Elastic Compliance Matrix: (Units=1/GPa)
#
#
# Indices 1 2 3 4 5 6 
#
# 1 0.012345 -0.005245 0.003670 0.000000 0.000000 0.000000
# 2 -0.005245 0.013980 -0.001045 0.000000 0.000000 0.000000
# 3 0.003670 -0.001045 0.041886 0.000000 0.000000 0.000000
# 4 0.000000 0.000000 0.000000 0.051416 0.000000 0.000000
# 5 0.000000 0.000000 0.000000 0.000000 0.047073 0.000000
# 6 0.000000 0.000000 0.000000 0.000000 0.000000 0.023407
#
#
# Mechanical properties :
#
#
# Convention : Reuss Voigt Hill
#
# Bulk Modulus (GPa) = 15.88037 29.31585 22.59811
# Shear Modulus (GPa) = 23.11212 28.73733 25.92473
#
# Velocity S-wave (km/s) = 3.42669 3.82101 3.62921
# Velocity P-wave (km/s) = 4.87077 5.86182 5.38912
#
# Compressibility (1/GPa) = 0.06297084
#
# Stress axis : x y z
#
# Youngs Moduli (GPa) = 81.00538 71.53324 23.87411
#
# Poissons Ratio (x) = 0.37521 -0.08762
# Poissons Ratio (y) = 0.42490 0.02494
# Poissons Ratio (z) = -0.29730 0.07474
#
# Static dielectric constant tensor:
#      x y z
#    x 3.820710 0.000000 0.000000 
#    y 0.000000 3.833890 0.000000 
#    z 0.000000 0.000000 3.423800 
# 
# 
# High freq. dielectric constant tensor:
#      x y z
#    x 1.743590 0.000000 0.000000 
#    y 0.000000 1.771370 0.000000 
#    z 0.000000 0.000000 1.755000 
# 
# From -- ./inp_files/35159.got.cif
#   From: 2010.03.12/outbox.cif.g09.slc.cpg/sg64_18_cif.got.tgz:35159.got - 2010.04.10 20:19:32.
