data_PCOD8262763
_publ_section_title
;
Structure prediction by ZEFSAII (Michael W. Deem and Ramdas Pophale) SiO2 
 PCOD8262763
Probable space group: C M C A
;
_chemical_formula_sum "Si O2"
_cell_formula_units_Z 80
_cell_length_a 8.870877
_cell_length_b 31.339235
_cell_length_c 13.895755
_cell_angle_alpha 90.000000
_cell_angle_beta 90.000000
_cell_angle_gamma 90.000000
_cell_volume 3863.110198
_symmetry_space_group_name_H-M "C M C A"
_symmetry_group_IT_number 64
_symmetry_cell_setting 'orthorhombic'
loop_
_space_group_symop_operation_xyz
x,y,z
-x,1/2-y,1/2+z
x,-y,-z
-x,1/2+y,1/2-z
-x,-y,-z
x,1/2+y,1/2-z
-x,y,z
x,1/2-y,1/2+z
1/2+x,1/2+y,z
1/2-x,-y,1/2+z
1/2+x,1/2-y,-z
1/2-x,y,1/2-z
1/2-x,1/2-y,-z
1/2+x,y,1/2-z
1/2-x,1/2+y,z
1/2+x,-y,1/2+z
loop_
_atom_site_type_symbol
_atom_site_label
_atom_site_fract_x
_atom_site_fract_y
_atom_site_fract_z
Si Si1 0.322346 0.232886 0.649441
Si Si2 0.168358 0.483310 0.607466
Si Si3 0.821579 0.900854 0.548048
Si Si4 0.177463 0.811455 0.952897
Si Si5 0.823782 0.566243 0.841112
O O1 0.500000 0.238459 0.663135
O O2 0.250000 0.216945 0.750000
O O3 0.251191 0.277829 0.619429
O O4 0.284900 0.199071 0.564642
O O5 0.159532 0.500000 0.500000
O O6 0.252884 0.437885 0.614995
O O7 0.264628 0.517767 0.665179
O O8 0.000000 0.478782 0.650543
O O9 0.747711 0.856416 0.577186
O O10 0.775346 0.909888 0.437802
O O11 0.000000 0.899401 0.562408
O O12 0.000000 0.811822 0.934838
O O13 0.750000 0.590980 0.750000
O O14 0.000000 0.565614 0.828536
#
# Coordination Sequence:
#
# PCOD8262763 Si02
#       5
#    16  16  16  16  16
#     4  10  21  38  60  84 112 146 183 225 275 332
#     4   9  17  31  51  72  97 132 171 209 253 306
#     4  10  20  34  53  77 106 139 176 219 266 317
#     4  10  21  37  58  84 113 146 185 227 274 330
#     4  10  20  33  50  74 105 140 178 220 266 316
#
# _framework density 20.708701000000001
#
# number of rings (size 3 to 8) (size 9 to 14) (size 15 to 20)
#    0.000    2.200    0.000    3.000    0.000    8.000 
#    0.000    5.000    0.000    0.000    0.000    0.000 
#    0.000    0.000    0.000    0.000    0.000    0.000 
#
# Total GULP energy -495974.554544 kJ/mol
# GULP energy per Si atom -12399.363864 kJ/mol
# Density = 2.066157 g / cm^3
# Si number density = 20.708701 Si / 1000 Ang^3
#
#
#
# Elastic Constant Matrix: (Units=GPa)
#
#
# Indices 1 2 3 4 5 6 
#
# 1 78.0887 16.0601 1.1483 0.0000 0.0000 0.0000
# 2 16.0601 78.3044 -24.4194 0.0000 0.0000 0.0000
# 3 1.1483 -24.4194 34.4029 0.0000 0.0000 0.0000
# 4 0.0000 0.0000 0.0000 12.5182 0.0000 0.0000
# 5 0.0000 0.0000 0.0000 0.0000 33.8507 0.0000
# 6 0.0000 0.0000 0.0000 0.0000 0.0000 33.6498
#
#
#
# Elastic Compliance Matrix: (Units=1/GPa)
#
#
# Indices 1 2 3 4 5 6 
#
# 1 0.013628 -0.003772 -0.003132 0.000000 0.000000 0.000000
# 2 -0.003772 0.017445 0.012509 0.000000 0.000000 0.000000
# 3 -0.003132 0.012509 0.038051 0.000000 0.000000 0.000000
# 4 0.000000 0.000000 0.000000 0.079884 0.000000 0.000000
# 5 0.000000 0.000000 0.000000 0.000000 0.029541 0.000000
# 6 0.000000 0.000000 0.000000 0.000000 0.000000 0.029718
#
#
# Mechanical properties :
#
#
# Convention : Reuss Voigt Hill
#
# Bulk Modulus (GPa) = 12.44823 19.59711 16.02267
# Shear Modulus (GPa) = 22.33791 29.20422 25.77106
#
# Velocity S-wave (km/s) = 3.28788 3.75939 3.53151
# Velocity P-wave (km/s) = 4.52081 5.32238 4.93789
#
# Compressibility (1/GPa) = 0.08033268
#
# Stress axis : x y z
#
# Youngs Moduli (GPa) = 73.37980 57.32277 26.28081
#
# Poissons Ratio (x) = 0.21621 0.08231
# Poissons Ratio (y) = 0.27677 -0.32873
# Poissons Ratio (z) = 0.22983 -0.71703
#
# Static dielectric constant tensor:
#      x y z
#    x 3.840760 0.000000 0.000000 
#    y 0.000000 3.625700 0.000000 
#    z 0.000000 0.000000 3.937570 
# 
# 
# High freq. dielectric constant tensor:
#      x y z
#    x 1.824730 0.000000 0.000000 
#    y 0.000000 1.797980 0.000000 
#    z 0.000000 0.000000 1.803790 
# 
# From -- ./inp_files/29984.got.cif
#   From: 2010.03.12/outbox.cif.g09.slc.cpg/sg64_15_cif.got.tgz:29984.got - 2010.04.10 20:19:32.
