data_PCOD8262701
_publ_section_title
;
Structure prediction by ZEFSAII (Michael W. Deem and Ramdas Pophale) SiO2 
 PCOD8262701
Probable space group: C M C A
;
_chemical_formula_sum "Si O2"
_cell_formula_units_Z 88
_cell_length_a 9.266862
_cell_length_b 23.262906
_cell_length_c 23.124571
_cell_angle_alpha 90.000000
_cell_angle_beta 90.000000
_cell_angle_gamma 90.000000
_cell_volume 4985.059497
_symmetry_space_group_name_H-M "C M C A"
_symmetry_group_IT_number 64
_symmetry_cell_setting 'orthorhombic'
loop_
_space_group_symop_operation_xyz
x,y,z
-x,1/2-y,1/2+z
x,-y,-z
-x,1/2+y,1/2-z
-x,-y,-z
x,1/2+y,1/2-z
-x,y,z
x,1/2-y,1/2+z
1/2+x,1/2+y,z
1/2-x,-y,1/2+z
1/2+x,1/2-y,-z
1/2-x,y,1/2-z
1/2-x,1/2-y,-z
1/2+x,y,1/2-z
1/2-x,1/2+y,z
1/2+x,-y,1/2+z
loop_
_atom_site_type_symbol
_atom_site_label
_atom_site_fract_x
_atom_site_fract_y
_atom_site_fract_z
Si Si1 0.667865 0.438927 0.190105
Si Si2 0.250000 0.253296 0.250000
Si Si3 0.335518 0.565925 0.191129
Si Si4 0.833536 0.257226 0.440707
Si Si5 0.335595 0.167004 0.851497
Si Si6 0.343818 0.666303 0.345882
O O1 0.500000 0.421581 0.199147
O O2 0.750000 0.440941 0.250000
O O3 0.679915 0.502822 0.161795
O O4 0.749295 0.392666 0.151666
O O5 0.340371 0.295906 0.291868
O O6 0.339135 0.211647 0.207549
O O7 0.500000 0.579812 0.205307
O O8 0.250000 0.569505 0.250000
O O9 0.276576 0.616904 0.151089
O O10 0.750000 0.250000 0.500000
O O11 0.746374 0.302745 0.403300
O O12 0.828536 0.197287 0.407056
O O13 0.000000 0.276898 0.450395
O O14 0.500000 0.154516 0.869343
O O15 0.500000 0.636454 0.341381
#
# Coordination Sequence:
#
# PCOD8262701 Si02
#       6
#    16   8  16  16  16  16
#     4  10  20  33  49  74 108 143 178 215 258 311
#     4  10  20  30  48  78 110 138 174 210 258 320
#     4  10  20  32  49  74 107 143 177 213 257 311
#     4  10  22  39  57  79 106 138 179 221 267 317
#     4  11  21  33  54  79 108 142 176 218 266 316
#     4  10  20  33  52  77 107 138 172 216 259 311
#
# _framework density 17.652747999999999
#
# number of rings (size 3 to 8) (size 9 to 14) (size 15 to 20)
#    0.000    1.818    1.818    2.727    0.000    7.273 
#    0.000    0.000    0.000    1.091    0.000    7.636 
#    0.000    0.000    0.000    0.000    0.000    0.000 
#
# Total GULP energy -545250.827249 kJ/mol
# GULP energy per Si atom -12392.064256 kJ/mol
# Density = 1.761257 g / cm^3
# Si number density = 17.652748 Si / 1000 Ang^3
#
#
#
# Elastic Constant Matrix: (Units=GPa)
#
#
# Indices 1 2 3 4 5 6 
#
# 1 178.3026 72.7701 48.0985 0.0000 0.0000 0.0000
# 2 72.7701 112.9027 33.8275 0.0000 0.0000 0.0000
# 3 48.0985 33.8275 91.1964 0.0000 0.0000 0.0000
# 4 0.0000 0.0000 0.0000 14.6373 0.0000 0.0000
# 5 0.0000 0.0000 0.0000 0.0000 24.7828 0.0000
# 6 0.0000 0.0000 0.0000 0.0000 0.0000 19.8155
#
#
#
# Elastic Compliance Matrix: (Units=1/GPa)
#
#
# Indices 1 2 3 4 5 6 
#
# 1 0.008139 -0.004455 -0.002640 0.000000 0.000000 0.000000
# 2 -0.004455 0.012403 -0.002251 0.000000 0.000000 0.000000
# 3 -0.002640 -0.002251 0.013193 0.000000 0.000000 0.000000
# 4 0.000000 0.000000 0.000000 0.068318 0.000000 0.000000
# 5 0.000000 0.000000 0.000000 0.000000 0.040351 0.000000
# 6 0.000000 0.000000 0.000000 0.000000 0.000000 0.050466
#
#
# Mechanical properties :
#
#
# Convention : Reuss Voigt Hill
#
# Bulk Modulus (GPa) = 66.47818 76.86598 71.67208
# Shear Modulus (GPa) = 23.08670 27.02751 25.05710
#
# Velocity S-wave (km/s) = 3.62031 3.91713 3.77164
# Velocity P-wave (km/s) = 7.43075 8.00602 7.72375
#
# Compressibility (1/GPa) = 0.01504253
#
# Stress axis : x y z
#
# Youngs Moduli (GPa) = 122.86958 80.62647 75.79899
#
# Poissons Ratio (x) = 0.35917 0.20012
# Poissons Ratio (y) = 0.54735 0.17063
# Poissons Ratio (z) = 0.32439 0.18150
#
# Static dielectric constant tensor:
#      x y z
#    x 5.142910 0.000000 0.000000 
#    y 0.000000 3.777540 0.000000 
#    z 0.000000 0.000000 2.930740 
# 
# 
# High freq. dielectric constant tensor:
#      x y z
#    x 1.702520 0.000000 0.000000 
#    y 0.000000 1.689620 0.000000 
#    z 0.000000 0.000000 1.640950 
# 
# From -- ./inp_files/36826.got.cif
#   From: 2010.03.12/outbox.cif.g09.slc.cpg/sg64_19_cif.got.tgz:36826.got - 2010.04.10 20:19:32.
