data_PCOD8262746
_publ_section_title
;
Structure prediction by ZEFSAII (Michael W. Deem and Ramdas Pophale) SiO2 
 PCOD8262746
Probable space group: C M C A
;
_chemical_formula_sum "Si O2"
_cell_formula_units_Z 88
_cell_length_a 29.013388
_cell_length_b 9.049992
_cell_length_c 15.715133
_cell_angle_alpha 90.000000
_cell_angle_beta 90.000000
_cell_angle_gamma 90.000000
_cell_volume 4126.337076
_symmetry_space_group_name_H-M "C M C A"
_symmetry_group_IT_number 64
_symmetry_cell_setting 'orthorhombic'
loop_
_space_group_symop_operation_xyz
x,y,z
-x,1/2-y,1/2+z
x,-y,-z
-x,1/2+y,1/2-z
-x,-y,-z
x,1/2+y,1/2-z
-x,y,z
x,1/2-y,1/2+z
1/2+x,1/2+y,z
1/2-x,-y,1/2+z
1/2+x,1/2-y,-z
1/2-x,y,1/2-z
1/2-x,1/2-y,-z
1/2+x,y,1/2-z
1/2-x,1/2+y,z
1/2+x,-y,1/2+z
loop_
_atom_site_type_symbol
_atom_site_label
_atom_site_fract_x
_atom_site_fract_y
_atom_site_fract_z
Si Si1 0.947612 0.663440 0.028954
Si Si2 0.687713 0.756277 0.044917
Si Si3 0.408427 0.261186 0.864165
Si Si4 0.748725 0.000000 0.500000
Si Si5 0.115481 0.017240 0.752853
Si Si6 0.860987 0.772913 0.633316
O O1 0.941836 0.766409 0.945346
O O2 0.000000 0.669339 0.061574
O O3 0.932203 0.500000 0.000000
O O4 0.914617 0.719664 0.103653
O O5 0.645057 0.753060 0.108107
O O6 0.719766 0.898960 0.062565
O O7 0.716639 0.606125 0.057661
O O8 0.672771 0.771165 0.946156
O O9 0.416143 0.411583 0.811847
O O10 0.418476 0.118506 0.804916
O O11 0.148333 0.915017 0.693495
O O12 0.146441 0.123479 0.812434
#
# Coordination Sequence:
#
# PCOD8262746 Si02
#       6
#    16  16  16   8  16  16
#     4  10  20  37  59  84 110 145 187 225 265 322
#     4  10  20  35  59  79 108 143 189 224 272 322
#     4  10  20  37  59  81 110 150 181 226 271 331
#     4  10  20  32  56  88 104 134 188 242 262 314
#     4  10  20  34  57  85 110 144 188 220 276 325
#     4  10  20  37  59  81 110 150 181 226 271 331
#
# _framework density 21.326422000000001
#
# number of rings (size 3 to 8) (size 9 to 14) (size 15 to 20)
#    0.000    2.000    1.818    2.182    2.545    2.182 
#    0.000    7.273    0.000   76.364    0.000    0.000 
#    0.000    0.000    0.000    0.000    0.000    0.000 
#
# Total GULP energy -545481.203923 kJ/mol
# GULP energy per Si atom -12397.300089 kJ/mol
# Density = 2.127788 g / cm^3
# Si number density = 21.326422 Si / 1000 Ang^3
#
#
#
# Elastic Constant Matrix: (Units=GPa)
#
#
# Indices 1 2 3 4 5 6 
#
# 1 84.5342 24.8141 21.8617 0.0000 0.0000 0.0000
# 2 24.8141 144.4519 42.1776 0.0000 0.0000 0.0000
# 3 21.8617 42.1776 102.3658 0.0000 0.0000 0.0000
# 4 0.0000 0.0000 0.0000 29.3508 0.0000 0.0000
# 5 0.0000 0.0000 0.0000 0.0000 12.4963 0.0000
# 6 0.0000 0.0000 0.0000 0.0000 0.0000 18.7726
#
#
#
# Elastic Compliance Matrix: (Units=1/GPa)
#
#
# Indices 1 2 3 4 5 6 
#
# 1 0.012837 -0.001597 -0.002084 0.000000 0.000000 0.000000
# 2 -0.001597 0.008068 -0.002983 0.000000 0.000000 0.000000
# 3 -0.002084 -0.002983 0.011443 0.000000 0.000000 0.000000
# 4 0.000000 0.000000 0.000000 0.034071 0.000000 0.000000
# 5 0.000000 0.000000 0.000000 0.000000 0.080024 0.000000
# 6 0.000000 0.000000 0.000000 0.000000 0.000000 0.053269
#
#
# Mechanical properties :
#
#
# Convention : Reuss Voigt Hill
#
# Bulk Modulus (GPa) = 52.57373 56.56206 54.56789
# Shear Modulus (GPa) = 22.79158 28.29051 25.54105
#
# Velocity S-wave (km/s) = 3.27265 3.64613 3.46443
# Velocity P-wave (km/s) = 6.24385 6.65623 6.45333
#
# Compressibility (1/GPa) = 0.01902091
#
# Stress axis : x y z
#
# Youngs Moduli (GPa) = 77.89914 123.94519 87.38922
#
# Poissons Ratio (x) = 0.19791 0.18209
# Poissons Ratio (y) = 0.12439 0.26070
# Poissons Ratio (z) = 0.16231 0.36976
#
# Static dielectric constant tensor:
#      x y z
#    x 3.421850 0.000000 0.000000 
#    y 0.000000 4.095670 0.000000 
#    z 0.000000 0.000000 3.838080 
# 
# 
# High freq. dielectric constant tensor:
#      x y z
#    x 1.793280 0.000000 0.000000 
#    y 0.000000 1.854950 0.000000 
#    z 0.000000 0.000000 1.831950 
# 
# From -- ./inp_files/35721.got.cif
#   From: 2010.03.12/outbox.cif.g09.slc.cpg/sg64_18_cif.got.tgz:35721.got - 2010.04.10 20:19:32.
