data_PCOD8262936
_publ_section_title
;
Structure prediction by ZEFSAII (Michael W. Deem and Ramdas Pophale) SiO2 
 PCOD8262936
Probable space group: C M C A
;
_chemical_formula_sum "Si O2"
_cell_formula_units_Z 104
_cell_length_a 22.153744
_cell_length_b 28.236761
_cell_length_c 8.253279
_cell_angle_alpha 90.000000
_cell_angle_beta 90.000000
_cell_angle_gamma 90.000000
_cell_volume 5162.838469
_symmetry_space_group_name_H-M "C M C A"
_symmetry_group_IT_number 64
_symmetry_cell_setting 'orthorhombic'
loop_
_space_group_symop_operation_xyz
x,y,z
-x,1/2-y,1/2+z
x,-y,-z
-x,1/2+y,1/2-z
-x,-y,-z
x,1/2+y,1/2-z
-x,y,z
x,1/2-y,1/2+z
1/2+x,1/2+y,z
1/2-x,-y,1/2+z
1/2+x,1/2-y,-z
1/2-x,y,1/2-z
1/2-x,1/2-y,-z
1/2+x,y,1/2-z
1/2-x,1/2+y,z
1/2+x,-y,1/2+z
loop_
_atom_site_type_symbol
_atom_site_label
_atom_site_fract_x
_atom_site_fract_y
_atom_site_fract_z
Si Si1 0.681860 0.715288 0.227044
Si Si2 0.932126 0.624124 0.710366
Si Si3 0.313789 0.026998 0.331641
Si Si4 0.565857 0.513046 0.809475
Si Si5 0.750000 0.640721 0.750000
Si Si6 0.167972 0.624606 0.475362
Si Si7 0.352430 0.691028 0.578397
O O1 0.750000 0.734751 0.250000
O O2 0.689840 0.673536 0.098251
O O3 0.639459 0.757011 0.157559
O O4 0.647237 0.695388 0.384508
O O5 0.929589 0.567959 0.737627
O O6 0.900119 0.633096 0.537207
O O7 0.902668 0.653923 0.858386
O O8 0.000000 0.642534 0.693922
O O9 0.250000 0.015563 0.250000
O O10 0.323458 0.083150 0.346777
O O11 0.313123 0.000000 0.500000
O O12 0.373718 0.010301 0.230198
O O13 0.500000 0.494416 0.743965
O O14 0.568277 0.500000 0.000000
O O15 0.793713 0.609432 0.636336
O O16 0.713018 0.672954 0.627359
#
# Coordination Sequence:
#
# PCOD8262936 Si02
#       7
#    16  16  16  16   8  16  16
#     4  12  22  40  59  92 128 163 205 251 320 391
#     4  10  21  40  65  90 119 163 215 261 310 369
#     4  11  23  37  56  96 131 165 212 274 338 380
#     4   9  17  37  64  86 116 162 218 262 303 384
#     4  10  20  34  58  86 118 160 204 252 310 374
#     4  11  22  37  60  90 126 170 209 258 318 381
#     4  11  22  37  62  90 121 155 207 260 310 380
#
# _framework density 20.143958000000001
#
# number of rings (size 3 to 8) (size 9 to 14) (size 15 to 20)
#    0.000    1.385    5.385    2.769    1.077    0.000 
#    0.000    3.846    0.000    0.462    0.000    0.000 
#    0.000    0.000    0.000    0.000    0.000    0.000 
#
# Total GULP energy -644255.634497 kJ/mol
# GULP energy per Si atom -12389.531433 kJ/mol
# Density = 2.009811 g / cm^3
# Si number density = 20.143958 Si / 1000 Ang^3
#
#
#
# Elastic Constant Matrix: (Units=GPa)
#
#
# Indices 1 2 3 4 5 6 
#
# 1 171.7471 46.8745 41.1080 0.0000 0.0000 0.0000
# 2 46.8745 101.1996 20.2340 0.0000 0.0000 0.0000
# 3 41.1080 20.2340 57.9966 0.0000 0.0000 0.0000
# 4 0.0000 0.0000 0.0000 20.9274 0.0000 0.0000
# 5 0.0000 0.0000 0.0000 0.0000 18.4628 0.0000
# 6 0.0000 0.0000 0.0000 0.0000 0.0000 15.4322
#
#
#
# Elastic Compliance Matrix: (Units=1/GPa)
#
#
# Indices 1 2 3 4 5 6 
#
# 1 0.007612 -0.002631 -0.004478 0.000000 0.000000 0.000000
# 2 -0.002631 0.011532 -0.002159 0.000000 0.000000 0.000000
# 3 -0.004478 -0.002159 0.021169 0.000000 0.000000 0.000000
# 4 0.000000 0.000000 0.000000 0.047784 0.000000 0.000000
# 5 0.000000 0.000000 0.000000 0.000000 0.054163 0.000000
# 6 0.000000 0.000000 0.000000 0.000000 0.000000 0.064800
#
#
# Mechanical properties :
#
#
# Convention : Reuss Voigt Hill
#
# Bulk Modulus (GPa) = 45.91543 60.81956 53.36750
# Shear Modulus (GPa) = 21.47276 25.81296 23.64286
#
# Velocity S-wave (km/s) = 3.26845 3.58358 3.42964
# Velocity P-wave (km/s) = 6.08990 6.88337 6.49875
#
# Compressibility (1/GPa) = 0.02177917
#
# Stress axis : x y z
#
# Youngs Moduli (GPa) = 131.36724 86.71882 47.23819
#
# Poissons Ratio (x) = 0.22812 0.21152
# Poissons Ratio (y) = 0.34558 0.10197
# Poissons Ratio (z) = 0.58823 0.18719
#
# Static dielectric constant tensor:
#      x y z
#    x 4.158430 0.000000 0.000000 
#    y 0.000000 3.641170 0.000000 
#    z 0.000000 0.000000 3.428170 
# 
# 
# High freq. dielectric constant tensor:
#      x y z
#    x 1.788420 0.000000 0.000000 
#    y 0.000000 1.789930 0.000000 
#    z 0.000000 0.000000 1.757100 
# 
# From -- ./inp_files/9764.got.cif
#   From: 2010.03.12/outbox.cif.g09.slc.cpg/sg64_5_cif.got.tgz:9764.got - 2010.04.10 20:19:32.
