data_PCOD8262261
_publ_section_title
;
Structure prediction by ZEFSAII (Michael W. Deem and Ramdas Pophale) SiO2 
 PCOD8262261
Probable space group: C M C A
;
_chemical_formula_sum "Si O2"
_cell_formula_units_Z 80
_cell_length_a 17.155842
_cell_length_b 18.552974
_cell_length_c 13.518150
_cell_angle_alpha 90.000000
_cell_angle_beta 90.000000
_cell_angle_gamma 90.000000
_cell_volume 4302.717521
_symmetry_space_group_name_H-M "C M C A"
_symmetry_group_IT_number 64
_symmetry_cell_setting 'orthorhombic'
loop_
_space_group_symop_operation_xyz
x,y,z
-x,1/2-y,1/2+z
x,-y,-z
-x,1/2+y,1/2-z
-x,-y,-z
x,1/2+y,1/2-z
-x,y,z
x,1/2-y,1/2+z
1/2+x,1/2+y,z
1/2-x,-y,1/2+z
1/2+x,1/2-y,-z
1/2-x,y,1/2-z
1/2-x,1/2-y,-z
1/2+x,y,1/2-z
1/2-x,1/2+y,z
1/2+x,-y,1/2+z
loop_
_atom_site_type_symbol
_atom_site_label
_atom_site_fract_x
_atom_site_fract_y
_atom_site_fract_z
Si Si1 0.281855 0.920513 0.035080
Si Si2 0.085174 0.209894 0.053399
Si Si3 0.587713 0.859859 0.154055
Si Si4 0.833714 0.179500 0.860183
Si Si5 0.242628 0.826419 0.858276
O O1 0.361283 0.921393 0.099800
O O2 0.211670 0.891623 0.103676
O O3 0.292667 0.870437 0.938093
O O4 0.260330 0.000000 0.000000
O O5 0.086453 0.293632 0.079045
O O6 0.151499 0.168133 0.113939
O O7 0.000000 0.177130 0.079736
O O8 0.098724 0.201368 0.936313
O O9 0.500000 0.888901 0.173549
O O10 0.627091 0.835004 0.255715
O O11 0.770430 0.243614 0.855507
O O12 0.250000 0.861951 0.750000
#
# Coordination Sequence:
#
# PCOD8262261 Si02
#       5
#    16  16  16  16  16
#     4  11  23  38  58  81 116 159 197 234 285 351
#     4  10  19  32  55  88 116 140 180 235 295 340
#     4  11  21  35  60  89 119 149 185 239 299 346
#     4  11  19  38  60  85 112 151 194 246 283 343
#     4  11  19  36  58  83 112 146 192 249 286 331
#
# _framework density 18.592901999999999
#
# number of rings (size 3 to 8) (size 9 to 14) (size 15 to 20)
#    0.000    1.200    6.000    2.400    0.000    2.000 
#    0.000    1.000    0.000   19.800    0.000    0.000 
#    0.000    0.000    0.000    0.000    0.000    0.000 
#
# Total GULP energy -495944.582667 kJ/mol
# GULP energy per Si atom -12398.614567 kJ/mol
# Density = 1.855058 g / cm^3
# Si number density = 18.592902 Si / 1000 Ang^3
#
#
#
# Elastic Constant Matrix: (Units=GPa)
#
#
# Indices 1 2 3 4 5 6 
#
# 1 137.1424 38.0832 64.7597 0.0000 0.0000 0.0000
# 2 38.0832 79.7158 35.7292 0.0000 0.0000 0.0000
# 3 64.7597 35.7292 117.1341 0.0000 0.0000 0.0000
# 4 0.0000 0.0000 0.0000 18.4905 0.0000 0.0000
# 5 0.0000 0.0000 0.0000 0.0000 24.2847 0.0000
# 6 0.0000 0.0000 0.0000 0.0000 0.0000 12.0435
#
#
#
# Elastic Compliance Matrix: (Units=1/GPa)
#
#
# Indices 1 2 3 4 5 6 
#
# 1 0.010367 -0.002761 -0.004889 0.000000 0.000000 0.000000
# 2 -0.002761 0.015267 -0.003130 0.000000 0.000000 0.000000
# 3 -0.004889 -0.003130 0.012195 0.000000 0.000000 0.000000
# 4 0.000000 0.000000 0.000000 0.054082 0.000000 0.000000
# 5 0.000000 0.000000 0.000000 0.000000 0.041178 0.000000
# 6 0.000000 0.000000 0.000000 0.000000 0.000000 0.083032
#
#
# Mechanical properties :
#
#
# Convention : Reuss Voigt Hill
#
# Bulk Modulus (GPa) = 61.47268 67.90403 64.68835
# Shear Modulus (GPa) = 20.56720 23.99178 22.27949
#
# Velocity S-wave (km/s) = 3.32954 3.59607 3.46537
# Velocity P-wave (km/s) = 6.92209 7.33778 7.13297
#
# Compressibility (1/GPa) = 0.01626739
#
# Stress axis : x y z
#
# Youngs Moduli (GPa) = 96.45671 65.50203 81.99925
#
# Poissons Ratio (x) = 0.18087 0.40093
# Poissons Ratio (y) = 0.26635 0.25667
# Poissons Ratio (z) = 0.47162 0.20503
#
# Static dielectric constant tensor:
#      x y z
#    x 3.674160 0.000000 0.000000 
#    y 0.000000 2.991210 0.000000 
#    z 0.000000 0.000000 3.724560 
# 
# 
# High freq. dielectric constant tensor:
#      x y z
#    x 1.727220 0.000000 0.000000 
#    y 0.000000 1.672520 0.000000 
#    z 0.000000 0.000000 1.742360 
# 
# From -- ./inp_files/25268.got.cif
#   From: 2010.03.12/outbox.cif.g09.slc.cpg/sg64_13_cif.got.tgz:25268.got - 2010.04.10 20:19:32.
