data_PCOD8262332
_publ_section_title
;
Structure prediction by ZEFSAII (Michael W. Deem and Ramdas Pophale) SiO2 
 PCOD8262332
Probable space group: C M C A
;
_chemical_formula_sum "Si O2"
_cell_formula_units_Z 112
_cell_length_a 17.070557
_cell_length_b 19.332685
_cell_length_c 18.019992
_cell_angle_alpha 90.000000
_cell_angle_beta 90.000000
_cell_angle_gamma 90.000000
_cell_volume 5946.952376
_symmetry_space_group_name_H-M "C M C A"
_symmetry_group_IT_number 64
_symmetry_cell_setting 'orthorhombic'
loop_
_space_group_symop_operation_xyz
x,y,z
-x,1/2-y,1/2+z
x,-y,-z
-x,1/2+y,1/2-z
-x,-y,-z
x,1/2+y,1/2-z
-x,y,z
x,1/2-y,1/2+z
1/2+x,1/2+y,z
1/2-x,-y,1/2+z
1/2+x,1/2-y,-z
1/2-x,y,1/2-z
1/2-x,1/2-y,-z
1/2+x,y,1/2-z
1/2-x,1/2+y,z
1/2+x,-y,1/2+z
loop_
_atom_site_type_symbol
_atom_site_label
_atom_site_fract_x
_atom_site_fract_y
_atom_site_fract_z
Si Si1 0.911695 0.551425 0.150045
Si Si2 0.407627 0.429795 0.964887
Si Si3 0.908767 0.341731 0.969842
Si Si4 0.194473 0.390483 0.320223
Si Si5 0.590113 0.977940 0.689603
Si Si6 0.593421 0.189280 0.573932
Si Si7 0.813014 0.445667 0.064514
O O1 0.888815 0.621031 0.107665
O O2 0.900472 0.568191 0.236922
O O3 0.862345 0.485513 0.126143
O O4 0.000000 0.530192 0.131087
O O5 0.500000 0.428302 0.969952
O O6 0.379379 0.430639 0.878875
O O7 0.373872 0.500000 0.000000
O O8 0.376793 0.364207 0.010523
O O9 0.881339 0.263169 0.958815
O O10 0.000000 0.345650 0.990659
O O11 0.861684 0.380218 0.034412
O O12 0.250000 0.369082 0.250000
O O13 0.138708 0.452871 0.296255
O O14 0.139379 0.326930 0.348729
O O15 0.239583 0.414425 0.393596
O O16 0.500000 0.000165 0.674847
O O17 0.500000 0.185672 0.589149
O O18 0.788688 0.500000 0.000000
#
# Coordination Sequence:
#
# PCOD8262332 Si02
#       7
#    16  16  16  16  16  16  16
#     4   9  17  34  59  83 109 142 184 236 280 327
#     4   9  16  29  53  82 105 134 181 231 273 316
#     4   9  19  38  61  82 108 147 193 233 278 334
#     4  12  23  35  53  81 118 147 185 226 282 345
#     4  10  19  33  55  81 109 142 186 234 279 328
#     4  10  21  38  60  82 112 151 191 233 278 331
#     4  10  21  35  56  84 112 143 186 234 283 332
#
# _framework density 18.833176000000002
#
# number of rings (size 3 to 8) (size 9 to 14) (size 15 to 20)
#    0.000    2.143    2.857    0.857    2.000    2.286 
#    0.000    1.429    6.286    3.429    0.000    0.000 
#    0.000    0.000    0.000    0.000    0.000    0.000 
#
# Total GULP energy -694043.452556 kJ/mol
# GULP energy per Si atom -12393.633081 kJ/mol
# Density = 1.879031 g / cm^3
# Si number density = 18.833176 Si / 1000 Ang^3
#
#
#
# Elastic Constant Matrix: (Units=GPa)
#
#
# Indices 1 2 3 4 5 6 
#
# 1 54.2726 31.1316 36.3478 0.0000 0.0000 0.0000
# 2 31.1316 117.2373 44.0354 0.0000 0.0000 0.0000
# 3 36.3478 44.0354 120.1176 0.0000 0.0000 0.0000
# 4 0.0000 0.0000 0.0000 21.5573 0.0000 0.0000
# 5 0.0000 0.0000 0.0000 0.0000 29.2432 0.0000
# 6 0.0000 0.0000 0.0000 0.0000 0.0000 10.4035
#
#
#
# Elastic Compliance Matrix: (Units=1/GPa)
#
#
# Indices 1 2 3 4 5 6 
#
# 1 0.024914 -0.004388 -0.005930 0.000000 0.000000 0.000000
# 2 -0.004388 0.010665 -0.002582 0.000000 0.000000 0.000000
# 3 -0.005930 -0.002582 0.011066 0.000000 0.000000 0.000000
# 4 0.000000 0.000000 0.000000 0.046388 0.000000 0.000000
# 5 0.000000 0.000000 0.000000 0.000000 0.034196 0.000000
# 6 0.000000 0.000000 0.000000 0.000000 0.000000 0.096122
#
#
# Mechanical properties :
#
#
# Convention : Reuss Voigt Hill
#
# Bulk Modulus (GPa) = 47.97461 57.18411 52.57936
# Shear Modulus (GPa) = 19.52358 24.24830 21.88594
#
# Velocity S-wave (km/s) = 3.22321 3.59211 3.41265
# Velocity P-wave (km/s) = 6.27542 6.90172 6.59601
#
# Compressibility (1/GPa) = 0.02084436
#
# Stress axis : x y z
#
# Youngs Moduli (GPa) = 40.13729 93.76674 90.36519
#
# Poissons Ratio (x) = 0.41148 0.53590
# Poissons Ratio (y) = 0.17614 0.23330
# Poissons Ratio (z) = 0.23803 0.24209
#
# Static dielectric constant tensor:
#      x y z
#    x 3.455830 0.000000 0.000000 
#    y 0.000000 3.321670 0.000000 
#    z 0.000000 0.000000 3.643660 
# 
# 
# High freq. dielectric constant tensor:
#      x y z
#    x 1.730940 0.000000 0.000000 
#    y 0.000000 1.706030 0.000000 
#    z 0.000000 0.000000 1.738180 
# 
# From -- ./inp_files/34489.got.cif
#   From: 2010.03.12/outbox.cif.g09.slc.cpg/sg64_18_cif.got.tgz:34489.got - 2010.04.10 20:19:32.
