data_PCOD8262560
_publ_section_title
;
Structure prediction by ZEFSAII (Michael W. Deem and Ramdas Pophale) SiO2 
 PCOD8262560
Probable space group: C M C A
;
_chemical_formula_sum "Si O2"
_cell_formula_units_Z 96
_cell_length_a 18.788488
_cell_length_b 9.350978
_cell_length_c 26.523499
_cell_angle_alpha 90.000000
_cell_angle_beta 90.000000
_cell_angle_gamma 90.000000
_cell_volume 4659.933112
_symmetry_space_group_name_H-M "C M C A"
_symmetry_group_IT_number 64
_symmetry_cell_setting 'orthorhombic'
loop_
_space_group_symop_operation_xyz
x,y,z
-x,1/2-y,1/2+z
x,-y,-z
-x,1/2+y,1/2-z
-x,-y,-z
x,1/2+y,1/2-z
-x,y,z
x,1/2-y,1/2+z
1/2+x,1/2+y,z
1/2-x,-y,1/2+z
1/2+x,1/2-y,-z
1/2-x,y,1/2-z
1/2-x,1/2-y,-z
1/2+x,y,1/2-z
1/2-x,1/2+y,z
1/2+x,-y,1/2+z
loop_
_atom_site_type_symbol
_atom_site_label
_atom_site_fract_x
_atom_site_fract_y
_atom_site_fract_z
Si Si1 0.803143 0.524611 0.059477
Si Si2 0.083466 0.194486 0.793230
Si Si3 0.321691 0.785280 0.599605
Si Si4 0.914286 0.365680 0.696383
Si Si5 0.075123 0.479669 0.556461
Si Si6 0.084376 0.274525 0.902033
O O1 0.749481 0.623533 0.091138
O O2 0.803992 0.377918 0.089905
O O3 0.879756 0.600541 0.065024
O O4 0.784140 0.500000 0.000000
O O5 0.113248 0.275984 0.744456
O O6 0.106521 0.282694 0.843164
O O7 0.000000 0.196790 0.789669
O O8 0.108022 0.030030 0.794894
O O9 0.364249 0.808268 0.651634
O O10 0.375860 0.840887 0.557316
O O11 0.000000 0.347086 0.686704
O O12 0.054152 0.500000 0.500000
O O13 0.113018 0.619675 0.579460
O O14 0.000000 0.455121 0.586435
O O15 0.000000 0.287940 0.910783
#
# Coordination Sequence:
#
# PCOD8262560 Si02
#       6
#    16  16  16  16  16  16
#     4  12  27  44  64  90 127 175 222 271 327 385
#     4   9  19  37  64  97 128 160 201 256 321 381
#     4  12  24  41  64  88 126 169 217 265 317 390
#     4  10  21  39  69 100 127 165 211 262 320 388
#     4  10  19  35  62  92 122 160 205 256 315 378
#     4  10  21  40  65  92 128 163 206 270 327 384
#
# _framework density 20.601153
#
# number of rings (size 3 to 8) (size 9 to 14) (size 15 to 20)
#    0.000    1.500    1.667    3.500    2.333    1.667 
#    0.000    0.833    0.000    0.000    0.000    0.000 
#    0.000    0.000    0.000    0.000    0.000    0.000 
#
# Total GULP energy -594712.675401 kJ/mol
# GULP energy per Si atom -12389.847404 kJ/mol
# Density = 2.055426 g / cm^3
# Si number density = 20.601153 Si / 1000 Ang^3
#
#
#
# Elastic Constant Matrix: (Units=GPa)
#
#
# Indices 1 2 3 4 5 6 
#
# 1 72.3478 45.6570 27.9818 0.0000 0.0000 0.0000
# 2 45.6570 124.7824 24.3320 0.0000 0.0000 0.0000
# 3 27.9818 24.3320 99.6201 0.0000 0.0000 0.0000
# 4 0.0000 0.0000 0.0000 39.7155 0.0000 0.0000
# 5 0.0000 0.0000 0.0000 0.0000 22.7397 0.0000
# 6 0.0000 0.0000 0.0000 0.0000 0.0000 25.9208
#
#
#
# Elastic Compliance Matrix: (Units=1/GPa)
#
#
# Indices 1 2 3 4 5 6 
#
# 1 0.019303 -0.006306 -0.003882 0.000000 0.000000 0.000000
# 2 -0.006306 0.010475 -0.000787 0.000000 0.000000 0.000000
# 3 -0.003882 -0.000787 0.011321 0.000000 0.000000 0.000000
# 4 0.000000 0.000000 0.000000 0.025179 0.000000 0.000000
# 5 0.000000 0.000000 0.000000 0.000000 0.043976 0.000000
# 6 0.000000 0.000000 0.000000 0.000000 0.000000 0.038579
#
#
# Mechanical properties :
#
#
# Convention : Reuss Voigt Hill
#
# Bulk Modulus (GPa) = 52.22260 54.74353 53.48307
# Shear Modulus (GPa) = 28.22228 30.92716 29.57472
#
# Velocity S-wave (km/s) = 3.70528 3.87878 3.79302
# Velocity P-wave (km/s) = 6.61134 6.83305 6.72311
#
# Compressibility (1/GPa) = 0.01914880
#
# Stress axis : x y z
#
# Youngs Moduli (GPa) = 51.80562 95.46782 88.33357
#
# Poissons Ratio (x) = 0.60201 0.34288
# Poissons Ratio (y) = 0.32668 0.06954
# Poissons Ratio (z) = 0.20109 0.07515
#
# Static dielectric constant tensor:
#      x y z
#    x 3.650780 0.000000 0.000000 
#    y 0.000000 3.910820 0.000000 
#    z 0.000000 0.000000 4.042540 
# 
# 
# High freq. dielectric constant tensor:
#      x y z
#    x 1.794070 0.000000 0.000000 
#    y 0.000000 1.807270 0.000000 
#    z 0.000000 0.000000 1.814540 
# 
# From -- ./inp_files/50671.got.cif
#   From: 2010.03.12/outbox.cif.g09.slc.cpg/sg64_26_cif.got.tgz:50671.got - 2010.04.10 20:19:32.
