data_PCOD8262686
_publ_section_title
;
Structure prediction by ZEFSAII (Michael W. Deem and Ramdas Pophale) SiO2 
 PCOD8262686
Probable space group: C M C A
;
_chemical_formula_sum "Si O2"
_cell_formula_units_Z 64
_cell_length_a 19.090109
_cell_length_b 16.731526
_cell_length_c 9.109029
_cell_angle_alpha 90.000000
_cell_angle_beta 90.000000
_cell_angle_gamma 90.000000
_cell_volume 2909.484484
_symmetry_space_group_name_H-M "C M C A"
_symmetry_group_IT_number 64
_symmetry_cell_setting 'orthorhombic'
loop_
_space_group_symop_operation_xyz
x,y,z
-x,1/2-y,1/2+z
x,-y,-z
-x,1/2+y,1/2-z
-x,-y,-z
x,1/2+y,1/2-z
-x,y,z
x,1/2-y,1/2+z
1/2+x,1/2+y,z
1/2-x,-y,1/2+z
1/2+x,1/2-y,-z
1/2-x,y,1/2-z
1/2-x,1/2-y,-z
1/2+x,y,1/2-z
1/2-x,1/2+y,z
1/2+x,-y,1/2+z
loop_
_atom_site_type_symbol
_atom_site_label
_atom_site_fract_x
_atom_site_fract_y
_atom_site_fract_z
Si Si1 0.146007 0.402539 0.708038
Si Si2 0.237173 0.842273 0.527257
Si Si3 0.500000 0.341514 0.386138
Si Si4 0.500000 0.328593 0.736688
Si Si5 0.864740 0.442642 0.137283
O O1 0.183373 0.353546 0.838690
O O2 0.187513 0.382697 0.558564
O O3 0.066249 0.375201 0.698347
O O4 0.150672 0.498452 0.726954
O O5 0.250000 0.750000 0.500000
O O6 0.202448 0.885203 0.386304
O O7 0.500000 0.327420 0.560463
O O8 0.500000 0.259967 0.297730
O O9 0.567677 0.389377 0.332803
O O10 0.880616 0.500000 0.000000
#
# Coordination Sequence:
#
# PCOD8262686 Si02
#       5
#    16  16   8   8  16
#     4  10  22  38  65  95 123 171 219 267 324 398
#     4  10  20  38  62  94 128 164 218 272 324 383
#     4  12  22  39  68  99 125 179 214 274 327 390
#     4  12  23  40  67  96 135 165 228 266 332 391
#     4  10  19  39  67  89 126 170 222 260 327 402
#
# _framework density 21.997025000000001
#
# number of rings (size 3 to 8) (size 9 to 14) (size 15 to 20)
#    0.000    1.500    5.000    2.625    0.000    0.000 
#    0.000   27.500    0.000    1.500    0.000    0.000 
#    0.000    0.000    0.000    0.000    0.000    0.000 
#
# Total GULP energy -396834.022505 kJ/mol
# GULP energy per Si atom -12401.063203 kJ/mol
# Density = 2.194696 g / cm^3
# Si number density = 21.997025 Si / 1000 Ang^3
#
#
#
# Elastic Constant Matrix: (Units=GPa)
#
#
# Indices 1 2 3 4 5 6 
#
# 1 197.9442 107.6876 50.7730 0.0000 0.0000 0.0000
# 2 107.6876 219.6914 54.3674 0.0000 0.0000 0.0000
# 3 50.7730 54.3674 34.7654 0.0000 0.0000 0.0000
# 4 0.0000 0.0000 0.0000 37.2329 0.0000 0.0000
# 5 0.0000 0.0000 0.0000 0.0000 9.1098 0.0000
# 6 0.0000 0.0000 0.0000 0.0000 0.0000 46.7290
#
#
#
# Elastic Compliance Matrix: (Units=1/GPa)
#
#
# Indices 1 2 3 4 5 6 
#
# 1 0.008485 -0.001782 -0.009605 0.000000 0.000000 0.000000
# 2 -0.001782 0.007800 -0.009595 0.000000 0.000000 0.000000
# 3 -0.009605 -0.009595 0.057797 0.000000 0.000000 0.000000
# 4 0.000000 0.000000 0.000000 0.026858 0.000000 0.000000
# 5 0.000000 0.000000 0.000000 0.000000 0.109771 0.000000
# 6 0.000000 0.000000 0.000000 0.000000 0.000000 0.021400
#
#
# Mechanical properties :
#
#
# Convention : Reuss Voigt Hill
#
# Bulk Modulus (GPa) = 31.13574 97.56189 64.34881
# Shear Modulus (GPa) = 17.55734 34.58589 26.07161
#
# Velocity S-wave (km/s) = 2.82825 3.96952 3.44646
# Velocity P-wave (km/s) = 4.98504 8.09062 6.71970
#
# Compressibility (1/GPa) = 0.03211744
#
# Stress axis : x y z
#
# Youngs Moduli (GPa) = 117.85147 128.20617 17.30206
#
# Poissons Ratio (x) = 0.22850 0.16619
# Poissons Ratio (y) = 0.21005 0.16601
# Poissons Ratio (z) = 1.13197 1.23012
#
# Static dielectric constant tensor:
#      x y z
#    x 4.307700 0.000000 0.000000 
#    y 0.000000 4.199300 0.000000 
#    z 0.000000 0.000000 3.823330 
# 
# 
# High freq. dielectric constant tensor:
#      x y z
#    x 1.882040 0.000000 0.000000 
#    y 0.000000 1.880320 0.000000 
#    z 0.000000 0.000000 1.829730 
# 
# From -- ./inp_files/15543.got.cif
#   From: 2010.03.12/outbox.cif.g09.slc.cpg/sg64_8_cif.got.tgz:15543.got - 2010.04.10 20:19:32.
