data_PCOD8262206
_publ_section_title
;
Structure prediction by ZEFSAII (Michael W. Deem and Ramdas Pophale) SiO2 
 PCOD8262206
Probable space group: C M C A
;
_chemical_formula_sum "Si O2"
_cell_formula_units_Z 80
_cell_length_a 24.746042
_cell_length_b 5.116173
_cell_length_c 30.676849
_cell_angle_alpha 90.000000
_cell_angle_beta 90.000000
_cell_angle_gamma 90.000000
_cell_volume 3883.843447
_symmetry_space_group_name_H-M "C M C A"
_symmetry_group_IT_number 64
_symmetry_cell_setting 'orthorhombic'
loop_
_space_group_symop_operation_xyz
x,y,z
-x,1/2-y,1/2+z
x,-y,-z
-x,1/2+y,1/2-z
-x,-y,-z
x,1/2+y,1/2-z
-x,y,z
x,1/2-y,1/2+z
1/2+x,1/2+y,z
1/2-x,-y,1/2+z
1/2+x,1/2-y,-z
1/2-x,y,1/2-z
1/2-x,1/2-y,-z
1/2+x,y,1/2-z
1/2-x,1/2+y,z
1/2+x,-y,1/2+z
loop_
_atom_site_type_symbol
_atom_site_label
_atom_site_fract_x
_atom_site_fract_y
_atom_site_fract_z
Si Si1 0.216174 0.490348 0.449005
Si Si2 0.226316 0.087752 0.297800
Si Si3 0.614701 0.983033 0.169164
Si Si4 0.615213 0.983354 0.388835
Si Si5 0.500000 0.412956 0.886206
Si Si6 0.000000 0.912098 0.668715
O O1 0.203407 0.500000 0.500000
O O2 0.242334 0.216480 0.435152
O O3 0.159627 0.532329 0.425183
O O4 0.250000 0.152760 0.250000
O O5 0.240763 0.357821 0.322886
O O6 0.162481 0.031613 0.296019
O O7 0.620105 0.191027 0.129932
O O8 0.556496 0.022186 0.193793
O O9 0.620623 0.691721 0.150459
O O10 0.555871 0.022818 0.411666
O O11 0.500000 0.607034 0.843958
O O12 0.500000 0.107235 0.873196
#
# Coordination Sequence:
#
# PCOD8262206 Si02
#       6
#    16  16  16  16   8   8
#     4  10  21  35  49  69 102 138 168 203 247 294
#     4  10  21  35  50  70 102 133 157 195 250 298
#     4  10  19  32  53  76  98 127 164 208 247 292
#     4  10  19  32  52  76 100 127 167 208 248 293
#     4   8  16  30  47  72 101 124 154 209 254 283
#     4   8  16  30  48  72  98 124 158 201 250 289
#
# _framework density 20.598154000000001
#
# number of rings (size 3 to 8) (size 9 to 14) (size 15 to 20)
#    0.000    2.400    0.000    2.400    0.000    4.800 
#    0.000    0.500    0.000    4.800    0.000   12.600 
#    0.000    0.000    0.000    0.000    0.000    0.000 
#
# Total GULP energy -495580.762428 kJ/mol
# GULP energy per Si atom -12389.519061 kJ/mol
# Density = 2.055127 g / cm^3
# Si number density = 20.598154 Si / 1000 Ang^3
#
#
#
# Elastic Constant Matrix: (Units=GPa)
#
#
# Indices 1 2 3 4 5 6 
#
# 1 177.4754 0.7738 32.9205 0.0000 0.0000 0.0000
# 2 0.7738 111.8316 -0.3323 0.0000 0.0000 0.0000
# 3 32.9205 -0.3323 23.0744 0.0000 0.0000 0.0000
# 4 0.0000 0.0000 0.0000 6.2505 0.0000 0.0000
# 5 0.0000 0.0000 0.0000 0.0000 15.9095 0.0000
# 6 0.0000 0.0000 0.0000 0.0000 0.0000 29.8852
#
#
#
# Elastic Compliance Matrix: (Units=1/GPa)
#
#
# Indices 1 2 3 4 5 6 
#
# 1 0.007663 -0.000086 -0.010934 0.000000 0.000000 0.000000
# 2 -0.000086 0.008943 0.000251 0.000000 0.000000 0.000000
# 3 -0.010934 0.000251 0.058942 0.000000 0.000000 0.000000
# 4 0.000000 0.000000 0.000000 0.159988 0.000000 0.000000
# 5 0.000000 0.000000 0.000000 0.000000 0.062855 0.000000
# 6 0.000000 0.000000 0.000000 0.000000 0.000000 0.033461
#
#
# Mechanical properties :
#
#
# Convention : Reuss Voigt Hill
#
# Bulk Modulus (GPa) = 18.51502 42.12284 30.31893
# Shear Modulus (GPa) = 13.46275 29.01033 21.23654
#
# Velocity S-wave (km/s) = 2.55931 3.75693 3.21439
# Velocity P-wave (km/s) = 4.21208 6.27005 5.34112
#
# Compressibility (1/GPa) = 0.05401020
#
# Stress axis : x y z
#
# Youngs Moduli (GPa) = 130.49334 111.81493 16.96585
#
# Poissons Ratio (x) = 0.00956 0.18551
# Poissons Ratio (y) = 0.01116 -0.00426
# Poissons Ratio (z) = 1.42687 -0.02804
#
# Static dielectric constant tensor:
#      x y z
#    x 4.298820 0.000000 0.000000 
#    y 0.000000 4.384950 0.000000 
#    z 0.000000 0.000000 3.203220 
# 
# 
# High freq. dielectric constant tensor:
#      x y z
#    x 1.836490 0.000000 0.000000 
#    y 0.000000 1.843000 0.000000 
#    z 0.000000 0.000000 1.718200 
# 
# From -- ./inp_files/2397.got.cif
#   From: 2010.03.12/outbox.cif.g09.slc.cpg/sg64_2_cif.got.tgz:2397.got - 2010.04.10 20:19:32.
