data_PCOD8262405
_publ_section_title
;
Structure prediction by ZEFSAII (Michael W. Deem and Ramdas Pophale) SiO2 
 PCOD8262405
Probable space group: C M C A
;
_chemical_formula_sum "Si O2"
_cell_formula_units_Z 72
_cell_length_a 18.176986
_cell_length_b 14.277893
_cell_length_c 14.151052
_cell_angle_alpha 90.000000
_cell_angle_beta 90.000000
_cell_angle_gamma 90.000000
_cell_volume 3672.609240
_symmetry_space_group_name_H-M "C M C A"
_symmetry_group_IT_number 64
_symmetry_cell_setting 'orthorhombic'
loop_
_space_group_symop_operation_xyz
x,y,z
-x,1/2-y,1/2+z
x,-y,-z
-x,1/2+y,1/2-z
-x,-y,-z
x,1/2+y,1/2-z
-x,y,z
x,1/2-y,1/2+z
1/2+x,1/2+y,z
1/2-x,-y,1/2+z
1/2+x,1/2-y,-z
1/2-x,y,1/2-z
1/2-x,1/2-y,-z
1/2+x,y,1/2-z
1/2-x,1/2+y,z
1/2+x,-y,1/2+z
loop_
_atom_site_type_symbol
_atom_site_label
_atom_site_fract_x
_atom_site_fract_y
_atom_site_fract_z
Si Si1 0.417149 0.913956 0.320860
Si Si2 0.640751 0.500000 0.000000
Si Si3 0.163360 0.739945 0.113175
Si Si4 0.413360 0.609044 0.255601
Si Si5 0.324037 0.317384 0.914914
O O1 0.500000 0.879797 0.298162
O O2 0.362147 0.825594 0.318405
O O3 0.415608 0.957313 0.425012
O O4 0.392563 0.998410 0.250665
O O5 0.694306 0.579358 0.043286
O O6 0.121555 0.646473 0.147026
O O7 0.250654 0.728815 0.126967
O O8 0.144061 0.755492 0.002243
O O9 0.500000 0.622725 0.256162
O O10 0.383030 0.671618 0.168418
#
# Coordination Sequence:
#
# PCOD8262405 Si02
#       5
#    16   8  16  16  16
#     4   9  17  30  51  78 104 136 178 220 265 314
#     4   8  15  30  52  76 101 128 168 226 273 314
#     4  10  19  34  54  77 110 145 179 223 271 324
#     4  10  20  34  54  80 109 140 181 230 272 318
#     4   9  19  34  53  80 109 141 182 222 272 326
#
# _framework density 19.604590000000002
#
# number of rings (size 3 to 8) (size 9 to 14) (size 15 to 20)
#    0.000    2.667    0.000    1.667    0.000    6.222 
#    0.000   15.556    0.000    0.000    0.000    7.778 
#    0.000    0.000    0.000    0.000    0.000    0.000 
#
# Total GULP energy -446125.411376 kJ/mol
# GULP energy per Si atom -12392.372538 kJ/mol
# Density = 1.955997 g / cm^3
# Si number density = 19.604590 Si / 1000 Ang^3
#
#
#
# Elastic Constant Matrix: (Units=GPa)
#
#
# Indices 1 2 3 4 5 6 
#
# 1 106.0581 61.1872 42.1764 0.0000 0.0000 0.0000
# 2 61.1872 103.5045 42.1405 0.0000 0.0000 0.0000
# 3 42.1764 42.1405 59.0843 0.0000 0.0000 0.0000
# 4 0.0000 0.0000 0.0000 37.0716 0.0000 0.0000
# 5 0.0000 0.0000 0.0000 0.0000 25.1602 0.0000
# 6 0.0000 0.0000 0.0000 0.0000 0.0000 34.7416
#
#
#
# Elastic Compliance Matrix: (Units=1/GPa)
#
#
# Indices 1 2 3 4 5 6 
#
# 1 0.015929 -0.006746 -0.006559 0.000000 0.000000 0.000000
# 2 -0.006746 0.016472 -0.006933 0.000000 0.000000 0.000000
# 3 -0.006559 -0.006933 0.026552 0.000000 0.000000 0.000000
# 4 0.000000 0.000000 0.000000 0.026975 0.000000 0.000000
# 5 0.000000 0.000000 0.000000 0.000000 0.039745 0.000000
# 6 0.000000 0.000000 0.000000 0.000000 0.000000 0.028784
#
#
# Mechanical properties :
#
#
# Convention : Reuss Voigt Hill
#
# Bulk Modulus (GPa) = 54.12183 62.18391 58.15287
# Shear Modulus (GPa) = 24.86423 27.60420 26.23421
#
# Velocity S-wave (km/s) = 3.56516 3.75647 3.66207
# Velocity P-wave (km/s) = 6.67936 7.11355 6.89987
#
# Compressibility (1/GPa) = 0.01847683
#
# Stress axis : x y z
#
# Youngs Moduli (GPa) = 62.77770 60.70929 37.66224
#
# Poissons Ratio (x) = 0.40955 0.24704
# Poissons Ratio (y) = 0.42350 0.26110
# Poissons Ratio (z) = 0.41178 0.42088
#
# Static dielectric constant tensor:
#      x y z
#    x 3.301270 0.000000 0.000000 
#    y 0.000000 3.888270 0.000000 
#    z 0.000000 0.000000 3.526080 
# 
# 
# High freq. dielectric constant tensor:
#      x y z
#    x 1.746670 0.000000 0.000000 
#    y 0.000000 1.766840 0.000000 
#    z 0.000000 0.000000 1.748240 
# 
# From -- ./inp_files/25119.got.cif
#   From: 2010.03.12/outbox.cif.g09.slc.cpg/sg64_13_cif.got.tgz:25119.got - 2010.04.10 20:19:32.
