data_PCOD8262311
_publ_section_title
;
Structure prediction by ZEFSAII (Michael W. Deem and Ramdas Pophale) SiO2 
 PCOD8262311
Probable space group: C M C A
;
_chemical_formula_sum "Si O2"
_cell_formula_units_Z 88
_cell_length_a 24.574450
_cell_length_b 5.074231
_cell_length_c 32.311772
_cell_angle_alpha 90.000000
_cell_angle_beta 90.000000
_cell_angle_gamma 90.000000
_cell_volume 4029.162809
_symmetry_space_group_name_H-M "C M C A"
_symmetry_group_IT_number 64
_symmetry_cell_setting 'orthorhombic'
loop_
_space_group_symop_operation_xyz
x,y,z
-x,1/2-y,1/2+z
x,-y,-z
-x,1/2+y,1/2-z
-x,-y,-z
x,1/2+y,1/2-z
-x,y,z
x,1/2-y,1/2+z
1/2+x,1/2+y,z
1/2-x,-y,1/2+z
1/2+x,1/2-y,-z
1/2-x,y,1/2-z
1/2-x,1/2-y,-z
1/2+x,y,1/2-z
1/2-x,1/2+y,z
1/2+x,-y,1/2+z
loop_
_atom_site_type_symbol
_atom_site_label
_atom_site_fract_x
_atom_site_fract_y
_atom_site_fract_z
Si Si1 0.099361 0.048739 0.043848
Si Si2 0.669656 0.046855 0.045600
Si Si3 0.399862 0.605720 0.661823
Si Si4 0.500000 0.916607 0.222835
Si Si5 0.440719 0.887772 0.374955
Si Si6 0.783995 0.495296 0.864567
O O1 0.118477 0.349171 0.047281
O O2 0.150790 0.850269 0.049124
O O3 0.054612 0.987715 0.078291
O O4 0.070533 0.000000 0.000000
O O5 0.705912 0.980065 0.085785
O O6 0.698657 0.000000 0.000000
O O7 0.442590 0.539772 0.698514
O O8 0.417599 0.407903 0.624853
O O9 0.335808 0.542324 0.666313
O O10 0.402391 0.912713 0.650287
O O11 0.500000 0.620945 0.239739
O O12 0.500000 0.900158 0.354111
O O13 0.761332 0.209698 0.853114
#
# Coordination Sequence:
#
# PCOD8262311 Si02
#       6
#    16  16  16   8  16  16
#     4  10  19  33  53  81 123 174 224 277 328 376
#     4  10  20  36  55  81 123 174 236 292 324 355
#     4  12  24  44  67 102 135 165 213 267 320 399
#     4  12  26  48  78 110 133 160 199 258 340 406
#     4  12  20  36  63  92 126 175 217 270 331 381
#     4  12  24  39  64  94 132 182 229 267 324 383
#
# _framework density 21.840765999999999
#
# number of rings (size 3 to 8) (size 9 to 14) (size 15 to 20)
#    0.000    0.727    5.455    3.273    0.000    1.091 
#    0.000    0.000    0.000    8.727    0.000    0.000 
#    0.000    0.000    0.000    0.000    0.000    0.000 
#
# Total GULP energy -545145.562306 kJ/mol
# GULP energy per Si atom -12389.671871 kJ/mol
# Density = 2.179106 g / cm^3
# Si number density = 21.840766 Si / 1000 Ang^3
#
#
#
# Elastic Constant Matrix: (Units=GPa)
#
#
# Indices 1 2 3 4 5 6 
#
# 1 100.4194 11.1581 25.9552 0.0000 0.0000 0.0000
# 2 11.1581 92.7597 4.3153 0.0000 0.0000 0.0000
# 3 25.9552 4.3153 62.2847 0.0000 0.0000 0.0000
# 4 0.0000 0.0000 0.0000 23.9726 0.0000 0.0000
# 5 0.0000 0.0000 0.0000 0.0000 26.9895 0.0000
# 6 0.0000 0.0000 0.0000 0.0000 0.0000 31.1146
#
#
#
# Elastic Compliance Matrix: (Units=1/GPa)
#
#
# Indices 1 2 3 4 5 6 
#
# 1 0.011280 -0.001142 -0.004621 0.000000 0.000000 0.000000
# 2 -0.001142 0.010931 -0.000282 0.000000 0.000000 0.000000
# 3 -0.004621 -0.000282 0.018001 0.000000 0.000000 0.000000
# 4 0.000000 0.000000 0.000000 0.041714 0.000000 0.000000
# 5 0.000000 0.000000 0.000000 0.000000 0.037051 0.000000
# 6 0.000000 0.000000 0.000000 0.000000 0.000000 0.032139
#
#
# Mechanical properties :
#
#
# Convention : Reuss Voigt Hill
#
# Bulk Modulus (GPa) = 35.55953 37.59122 36.57538
# Shear Modulus (GPa) = 28.97219 30.68436 29.82828
#
# Velocity S-wave (km/s) = 3.64609 3.75228 3.69957
# Velocity P-wave (km/s) = 5.83455 6.00181 5.91877
#
# Compressibility (1/GPa) = 0.02812186
#
# Stress axis : x y z
#
# Youngs Moduli (GPa) = 88.65587 91.48304 55.55379
#
# Poissons Ratio (x) = 0.10446 0.25673
# Poissons Ratio (y) = 0.10123 0.01564
# Poissons Ratio (z) = 0.40970 0.02575
#
# Static dielectric constant tensor:
#      x y z
#    x 3.702700 0.000000 0.000000 
#    y 0.000000 4.117250 0.000000 
#    z 0.000000 0.000000 3.852320 
# 
# 
# High freq. dielectric constant tensor:
#      x y z
#    x 1.834710 0.000000 0.000000 
#    y 0.000000 1.885540 0.000000 
#    z 0.000000 0.000000 1.825930 
# 
# From -- ./inp_files/53893.got.cif
#   From: 2010.03.12/outbox.cif.g09.slc.cpg/sg64_27_cif.got.tgz:53893.got - 2010.04.10 20:19:32.
