data_PCOD8262325
_publ_section_title
;
Structure prediction by ZEFSAII (Michael W. Deem and Ramdas Pophale) SiO2 
 PCOD8262325
Probable space group: C M C A
;
_chemical_formula_sum "Si O2"
_cell_formula_units_Z 80
_cell_length_a 13.679824
_cell_length_b 19.568825
_cell_length_c 15.166080
_cell_angle_alpha 90.000000
_cell_angle_beta 90.000000
_cell_angle_gamma 90.000000
_cell_volume 4059.930526
_symmetry_space_group_name_H-M "C M C A"
_symmetry_group_IT_number 64
_symmetry_cell_setting 'orthorhombic'
loop_
_space_group_symop_operation_xyz
x,y,z
-x,1/2-y,1/2+z
x,-y,-z
-x,1/2+y,1/2-z
-x,-y,-z
x,1/2+y,1/2-z
-x,y,z
x,1/2-y,1/2+z
1/2+x,1/2+y,z
1/2-x,-y,1/2+z
1/2+x,1/2-y,-z
1/2-x,y,1/2-z
1/2-x,1/2-y,-z
1/2+x,y,1/2-z
1/2-x,1/2+y,z
1/2+x,-y,1/2+z
loop_
_atom_site_type_symbol
_atom_site_label
_atom_site_fract_x
_atom_site_fract_y
_atom_site_fract_z
Si Si1 0.613000 0.090534 0.100145
Si Si2 0.385056 0.214162 0.428572
Si Si3 0.231934 0.339197 0.051538
Si Si4 0.733902 0.985330 0.404384
Si Si5 0.388626 0.590080 0.199365
O O1 0.500000 0.090768 0.074031
O O2 0.672242 0.140484 0.036420
O O3 0.631791 0.113645 0.200914
O O4 0.655329 0.013937 0.091333
O O5 0.500000 0.225073 0.443213
O O6 0.334708 0.194597 0.521810
O O7 0.334589 0.284797 0.394940
O O8 0.361628 0.154910 0.359413
O O9 0.257407 0.404191 0.113295
O O10 0.682986 0.000000 0.500000
O O11 0.674002 0.023462 0.327770
O O12 0.500000 0.567467 0.186678
#
# Coordination Sequence:
#
# PCOD8262325 Si02
#       5
#    16  16  16  16  16
#     4  10  20  34  56  81 110 150 192 230 276 335
#     4  10  20  35  56  83 113 144 185 230 281 337
#     4  10  21  35  56  84 111 149 186 233 281 330
#     4  10  19  33  54  82 110 142 184 229 274 330
#     4  10  20  35  59  83 111 149 187 233 282 335
#
# _framework density 19.704771000000001
#
# number of rings (size 3 to 8) (size 9 to 14) (size 15 to 20)
#    0.000    2.000    4.000    1.200    0.000    5.600 
#    0.000    0.000   17.600    0.000    0.000    0.000 
#    0.000    0.000    0.000    0.000    0.000    0.000 
#
# Total GULP energy -495828.033782 kJ/mol
# GULP energy per Si atom -12395.700845 kJ/mol
# Density = 1.965992 g / cm^3
# Si number density = 19.704771 Si / 1000 Ang^3
#
#
#
# Elastic Constant Matrix: (Units=GPa)
#
#
# Indices 1 2 3 4 5 6 
#
# 1 93.5799 50.5170 28.7600 0.0000 0.0000 0.0000
# 2 50.5170 150.2628 19.4929 0.0000 0.0000 0.0000
# 3 28.7600 19.4929 45.6599 0.0000 0.0000 0.0000
# 4 0.0000 0.0000 0.0000 18.7633 0.0000 0.0000
# 5 0.0000 0.0000 0.0000 0.0000 26.5799 0.0000
# 6 0.0000 0.0000 0.0000 0.0000 0.0000 25.7091
#
#
#
# Elastic Compliance Matrix: (Units=1/GPa)
#
#
# Indices 1 2 3 4 5 6 
#
# 1 0.015346 -0.004134 -0.007901 0.000000 0.000000 0.000000
# 2 -0.004134 0.008159 -0.000879 0.000000 0.000000 0.000000
# 3 -0.007901 -0.000879 0.027253 0.000000 0.000000 0.000000
# 4 0.000000 0.000000 0.000000 0.053296 0.000000 0.000000
# 5 0.000000 0.000000 0.000000 0.000000 0.037622 0.000000
# 6 0.000000 0.000000 0.000000 0.000000 0.000000 0.038897
#
#
# Mechanical properties :
#
#
# Convention : Reuss Voigt Hill
#
# Bulk Modulus (GPa) = 40.11371 54.11580 47.11475
# Shear Modulus (GPa) = 23.28704 26.92596 25.10650
#
# Velocity S-wave (km/s) = 3.44146 3.70059 3.57337
# Velocity P-wave (km/s) = 6.01607 6.76624 6.40215
#
# Compressibility (1/GPa) = 0.02492913
#
# Stress axis : x y z
#
# Youngs Moduli (GPa) = 65.16323 122.56491 36.69310
#
# Poissons Ratio (x) = 0.50671 0.28992
# Poissons Ratio (y) = 0.26940 0.03226
# Poissons Ratio (z) = 0.51486 0.10775
#
# Static dielectric constant tensor:
#      x y z
#    x 3.729910 0.000000 0.000000 
#    y 0.000000 3.678030 0.000000 
#    z 0.000000 0.000000 3.474440 
# 
# 
# High freq. dielectric constant tensor:
#      x y z
#    x 1.777300 0.000000 0.000000 
#    y 0.000000 1.766740 0.000000 
#    z 0.000000 0.000000 1.740920 
# 
# From -- ./inp_files/32248.got.cif
#   From: 2010.03.12/outbox.cif.g09.slc.cpg/sg64_17_cif.got.tgz:32248.got - 2010.04.10 20:19:32.
