data_PCOD8262044
_publ_section_title
;
Structure prediction by ZEFSAII (Michael W. Deem and Ramdas Pophale) SiO2 
 PCOD8262044
Probable space group: C M C A
;
_chemical_formula_sum "Si O2"
_cell_formula_units_Z 64
_cell_length_a 22.887953
_cell_length_b 8.567192
_cell_length_c 15.864439
_cell_angle_alpha 90.000000
_cell_angle_beta 90.000000
_cell_angle_gamma 90.000000
_cell_volume 3110.786261
_symmetry_space_group_name_H-M "C M C A"
_symmetry_group_IT_number 64
_symmetry_cell_setting 'orthorhombic'
loop_
_space_group_symop_operation_xyz
x,y,z
-x,1/2-y,1/2+z
x,-y,-z
-x,1/2+y,1/2-z
-x,-y,-z
x,1/2+y,1/2-z
-x,y,z
x,1/2-y,1/2+z
1/2+x,1/2+y,z
1/2-x,-y,1/2+z
1/2+x,1/2-y,-z
1/2-x,y,1/2-z
1/2-x,1/2-y,-z
1/2+x,y,1/2-z
1/2-x,1/2+y,z
1/2+x,-y,1/2+z
loop_
_atom_site_type_symbol
_atom_site_label
_atom_site_fract_x
_atom_site_fract_y
_atom_site_fract_z
Si Si1 0.750000 0.573538 0.750000
Si Si2 0.816511 0.823269 0.847014
Si Si3 0.435629 0.344670 0.127082
Si Si4 0.349115 0.500000 0.000000
Si Si5 0.064904 0.350462 0.724377
O O1 0.773532 0.679488 0.827572
O O2 0.802441 0.467791 0.715462
O O3 0.883862 0.772268 0.832241
O O4 0.809068 0.886267 0.942759
O O5 0.500000 0.342866 0.084392
O O6 0.388700 0.384776 0.056269
O O7 0.433619 0.465861 0.205243
O O8 0.422526 0.181211 0.175607
O O9 0.000000 0.283878 0.700685
#
# Coordination Sequence:
#
# PCOD8262044 Si02
#       5
#     8  16  16   8  16
#     4  10  22  38  56  72 102 142 182 214 246 314
#     4  10  20  36  55  78 102 136 175 215 260 304
#     4   9  17  30  51  79 108 138 169 207 256 311
#     4  10  19  30  52  78 106 132 171 220 262 302
#     4   9  17  31  54  79 103 132 169 208 252 310
#
# _framework density 20.573575999999999
#
# number of rings (size 3 to 8) (size 9 to 14) (size 15 to 20)
#    0.000    2.500    0.000    3.375    0.000    2.000 
#    0.000    0.000    0.000   24.000    0.000   47.250 
#    0.000    0.000    0.000    1.125    0.000    0.000 
#
# Total GULP energy -396436.282313 kJ/mol
# GULP energy per Si atom -12388.633822 kJ/mol
# Density = 2.052675 g / cm^3
# Si number density = 20.573576 Si / 1000 Ang^3
#
#
#
# Elastic Constant Matrix: (Units=GPa)
#
#
# Indices 1 2 3 4 5 6 
#
# 1 78.8969 20.4884 20.4695 0.0000 0.0000 0.0000
# 2 20.4884 58.2070 32.4960 0.0000 0.0000 0.0000
# 3 20.4695 32.4960 100.7163 0.0000 0.0000 0.0000
# 4 0.0000 0.0000 0.0000 32.5170 0.0000 0.0000
# 5 0.0000 0.0000 0.0000 0.0000 30.3884 0.0000
# 6 0.0000 0.0000 0.0000 0.0000 0.0000 13.6287
#
#
#
# Elastic Compliance Matrix: (Units=1/GPa)
#
#
# Indices 1 2 3 4 5 6 
#
# 1 0.014145 -0.004115 -0.001547 0.000000 0.000000 0.000000
# 2 -0.004115 0.022152 -0.006311 0.000000 0.000000 0.000000
# 3 -0.001547 -0.006311 0.012279 0.000000 0.000000 0.000000
# 4 0.000000 0.000000 0.000000 0.030753 0.000000 0.000000
# 5 0.000000 0.000000 0.000000 0.000000 0.032907 0.000000
# 6 0.000000 0.000000 0.000000 0.000000 0.000000 0.073374
#
#
# Mechanical properties :
#
#
# Convention : Reuss Voigt Hill
#
# Bulk Modulus (GPa) = 40.60098 42.74754 41.67426
# Shear Modulus (GPa) = 22.96031 26.26458 24.61245
#
# Velocity S-wave (km/s) = 3.34430 3.57685 3.46253
# Velocity P-wave (km/s) = 5.88980 6.15480 6.02376
#
# Compressibility (1/GPa) = 0.02462995
#
# Stress axis : x y z
#
# Youngs Moduli (GPa) = 70.69745 45.14302 81.43654
#
# Poissons Ratio (x) = 0.18577 0.12598
# Poissons Ratio (y) = 0.29093 0.51394
# Poissons Ratio (z) = 0.10937 0.28489
#
# Static dielectric constant tensor:
#      x y z
#    x 3.894310 0.000000 0.000000 
#    y 0.000000 3.593690 0.000000 
#    z 0.000000 0.000000 3.570430 
# 
# 
# High freq. dielectric constant tensor:
#      x y z
#    x 1.816870 0.000000 0.000000 
#    y 0.000000 1.783000 0.000000 
#    z 0.000000 0.000000 1.774170 
# 
# From -- ./inp_files/27748.got.cif
#   From: 2010.03.12/outbox.cif.g09.slc.cpg/sg64_14_cif.got.tgz:27748.got - 2010.04.10 20:19:32.
