data_PCOD8262913
_publ_section_title
;
Structure prediction by ZEFSAII (Michael W. Deem and Ramdas Pophale) SiO2 
 PCOD8262913
Probable space group: C M C A
;
_chemical_formula_sum "Si O2"
_cell_formula_units_Z 72
_cell_length_a 28.348891
_cell_length_b 9.200799
_cell_length_c 14.152479
_cell_angle_alpha 90.000000
_cell_angle_beta 90.000000
_cell_angle_gamma 90.000000
_cell_volume 3691.425742
_symmetry_space_group_name_H-M "C M C A"
_symmetry_group_IT_number 64
_symmetry_cell_setting 'orthorhombic'
loop_
_space_group_symop_operation_xyz
x,y,z
-x,1/2-y,1/2+z
x,-y,-z
-x,1/2+y,1/2-z
-x,-y,-z
x,1/2+y,1/2-z
-x,y,z
x,1/2-y,1/2+z
1/2+x,1/2+y,z
1/2-x,-y,1/2+z
1/2+x,1/2-y,-z
1/2-x,y,1/2-z
1/2-x,1/2-y,-z
1/2+x,y,1/2-z
1/2-x,1/2+y,z
1/2+x,-y,1/2+z
loop_
_atom_site_type_symbol
_atom_site_label
_atom_site_fract_x
_atom_site_fract_y
_atom_site_fract_z
Si Si1 0.750000 0.494523 0.250000
Si Si2 0.618222 0.163087 0.474259
Si Si3 0.102752 0.723335 0.680385
Si Si4 0.054196 0.077835 0.184792
Si Si5 0.812478 0.245484 0.180415
O O1 0.780488 0.389792 0.181689
O O2 0.782254 0.597412 0.315046
O O3 0.607599 0.254796 0.568750
O O4 0.570807 0.161329 0.410183
O O5 0.659694 0.244553 0.418146
O O6 0.634398 0.000000 0.500000
O O7 0.061448 0.823796 0.722687
O O8 0.088057 0.558546 0.698614
O O9 0.152431 0.754031 0.730287
O O10 0.000000 0.032498 0.174154
#
# Coordination Sequence:
#
# PCOD8262913 Si02
#       5
#     8  16  16  16  16
#     4  10  20  36  60  80 108 140 178 232 270 318
#     4   9  19  35  56  79 109 146 181 218 267 323
#     4  10  20  37  57  77 110 147 177 220 272 321
#     4  10  20  34  56  84 110 143 185 222 261 315
#     4  10  20  38  56  80 109 142 181 222 274 322
#
# _framework density 19.504659
#
# number of rings (size 3 to 8) (size 9 to 14) (size 15 to 20)
#    0.000    2.222    0.000    4.667    0.000    4.889 
#    0.000   22.222    0.000    6.667    0.000    0.000 
#    0.000    0.000    0.000    0.000    0.000    0.000 
#
# Total GULP energy -446418.258228 kJ/mol
# GULP energy per Si atom -12400.507173 kJ/mol
# Density = 1.946027 g / cm^3
# Si number density = 19.504659 Si / 1000 Ang^3
#
#
#
# Elastic Constant Matrix: (Units=GPa)
#
#
# Indices 1 2 3 4 5 6 
#
# 1 111.6429 38.1252 48.0212 0.0000 0.0000 0.0000
# 2 38.1252 78.2508 49.6826 0.0000 0.0000 0.0000
# 3 48.0212 49.6826 151.5131 0.0000 0.0000 0.0000
# 4 0.0000 0.0000 0.0000 26.4807 0.0000 0.0000
# 5 0.0000 0.0000 0.0000 0.0000 16.0685 0.0000
# 6 0.0000 0.0000 0.0000 0.0000 0.0000 29.5652
#
#
#
# Elastic Compliance Matrix: (Units=1/GPa)
#
#
# Indices 1 2 3 4 5 6 
#
# 1 0.011320 -0.004089 -0.002247 0.000000 0.000000 0.000000
# 2 -0.004089 0.017616 -0.004481 0.000000 0.000000 0.000000
# 3 -0.002247 -0.004481 0.008782 0.000000 0.000000 0.000000
# 4 0.000000 0.000000 0.000000 0.037763 0.000000 0.000000
# 5 0.000000 0.000000 0.000000 0.000000 0.062234 0.000000
# 6 0.000000 0.000000 0.000000 0.000000 0.000000 0.033824
#
#
# Mechanical properties :
#
#
# Convention : Reuss Voigt Hill
#
# Bulk Modulus (GPa) = 62.16955 68.11830 65.14392
# Shear Modulus (GPa) = 25.18477 28.12806 26.65641
#
# Velocity S-wave (km/s) = 3.59725 3.80165 3.70086
# Velocity P-wave (km/s) = 7.01406 7.36681 7.19260
#
# Compressibility (1/GPa) = 0.01608505
#
# Stress axis : x y z
#
# Youngs Moduli (GPa) = 88.34011 56.76562 113.87490
#
# Poissons Ratio (x) = 0.23209 0.25589
# Poissons Ratio (y) = 0.36118 0.51024
# Poissons Ratio (z) = 0.19851 0.25435
#
# Static dielectric constant tensor:
#      x y z
#    x 3.561560 0.000000 0.000000 
#    y 0.000000 3.528800 0.000000 
#    z 0.000000 0.000000 3.618530 
# 
# 
# High freq. dielectric constant tensor:
#      x y z
#    x 1.762830 0.000000 0.000000 
#    y 0.000000 1.754330 0.000000 
#    z 0.000000 0.000000 1.752270 
# 
# From -- ./inp_files/28260.got.cif
#   From: 2010.03.12/outbox.cif.g09.slc.cpg/sg64_15_cif.got.tgz:28260.got - 2010.04.10 20:19:32.
