data_PCOD8262898
_publ_section_title
;
Structure prediction by ZEFSAII (Michael W. Deem and Ramdas Pophale) SiO2 
 PCOD8262898
Probable space group: C M C A
;
_chemical_formula_sum "Si O2"
_cell_formula_units_Z 80
_cell_length_a 8.753552
_cell_length_b 25.086340
_cell_length_c 19.779658
_cell_angle_alpha 90.000000
_cell_angle_beta 90.000000
_cell_angle_gamma 90.000000
_cell_volume 4343.505724
_symmetry_space_group_name_H-M "C M C A"
_symmetry_group_IT_number 64
_symmetry_cell_setting 'orthorhombic'
loop_
_space_group_symop_operation_xyz
x,y,z
-x,1/2-y,1/2+z
x,-y,-z
-x,1/2+y,1/2-z
-x,-y,-z
x,1/2+y,1/2-z
-x,y,z
x,1/2-y,1/2+z
1/2+x,1/2+y,z
1/2-x,-y,1/2+z
1/2+x,1/2-y,-z
1/2-x,y,1/2-z
1/2-x,1/2-y,-z
1/2+x,y,1/2-z
1/2-x,1/2+y,z
1/2+x,-y,1/2+z
loop_
_atom_site_type_symbol
_atom_site_label
_atom_site_fract_x
_atom_site_fract_y
_atom_site_fract_z
Si Si1 0.822586 0.312458 0.566446
Si Si2 0.323195 0.005002 0.822789
Si Si3 0.676680 0.688709 0.573601
Si Si4 0.678320 0.612667 0.323956
Si Si5 0.679721 0.609570 0.824262
O O1 0.730274 0.330333 0.500208
O O2 0.790827 0.251035 0.583421
O O3 0.765678 0.346065 0.629480
O O4 0.000000 0.323182 0.552984
O O5 0.500000 0.019664 0.816478
O O6 0.250000 0.000567 0.750000
O O7 0.239496 0.054510 0.860094
O O8 0.300121 0.946769 0.856533
O O9 0.500000 0.674215 0.582157
O O10 0.773119 0.659442 0.630711
O O11 0.500000 0.627251 0.319373
O O12 0.750000 0.616534 0.250000
O O13 0.500000 0.607591 0.817732
O O14 0.750000 0.616236 0.750000
#
# Coordination Sequence:
#
# PCOD8262898 Si02
#       5
#    16  16  16  16  16
#     4  10  21  37  57  79 105 139 176 216 264 316
#     4   9  17  31  51  76 106 139 173 211 260 311
#     4  10  21  38  57  77 105 140 176 216 264 316
#     4  10  20  34  55  81 109 141 176 217 261 309
#     4  11  21  34  55  81 108 139 176 218 262 309
#
# _framework density 18.418302000000001
#
# number of rings (size 3 to 8) (size 9 to 14) (size 15 to 20)
#    0.000    2.000    0.000    5.400    0.000    5.600 
#    0.000    1.000    0.000    6.000    0.000    0.000 
#    0.000    0.000    0.000    0.000    0.000    0.000 
#
# Total GULP energy -495909.871749 kJ/mol
# GULP energy per Si atom -12397.746794 kJ/mol
# Density = 1.837638 g / cm^3
# Si number density = 18.418302 Si / 1000 Ang^3
#
#
#
# Elastic Constant Matrix: (Units=GPa)
#
#
# Indices 1 2 3 4 5 6 
#
# 1 125.5295 58.3175 37.2751 0.0000 0.0000 0.0000
# 2 58.3175 95.1518 56.1766 0.0000 0.0000 0.0000
# 3 37.2751 56.1766 76.9698 0.0000 0.0000 0.0000
# 4 0.0000 0.0000 0.0000 -3.7225 0.0000 0.0000
# 5 0.0000 0.0000 0.0000 0.0000 33.0718 0.0000
# 6 0.0000 0.0000 0.0000 0.0000 0.0000 31.9567
#
#
#
# Elastic Compliance Matrix: (Units=1/GPa)
#
#
# Indices 1 2 3 4 5 6 
#
# 1 0.011160 -0.006412 -0.000725 0.000000 0.000000 0.000000
# 2 -0.006412 0.022151 -0.013062 0.000000 0.000000 0.000000
# 3 -0.000725 -0.013062 0.022876 0.000000 0.000000 0.000000
# 4 0.000000 0.000000 0.000000 -0.268634 0.000000 0.000000
# 5 0.000000 0.000000 0.000000 0.000000 0.030237 0.000000
# 6 0.000000 0.000000 0.000000 0.000000 0.000000 0.031292
#
#
# Mechanical properties :
#
#
# Convention : Reuss Voigt Hill
#
# Bulk Modulus (GPa) = 63.33015 66.79885 65.06450
# Shear Modulus (GPa) = -47.50304 21.98665 -12.75820
#
# Velocity S-wave (km/s) = -5.08402 3.45880 -2.63476
# Velocity P-wave (km/s) = 0.06279 7.23170 5.11339
#
# Compressibility (1/GPa) = 0.01579027
#
# Stress axis : x y z
#
# Youngs Moduli (GPa) = 89.60249 45.14496 43.71356
#
# Poissons Ratio (x) = 0.28948 0.03169
# Poissons Ratio (y) = 0.57454 0.57097
# Poissons Ratio (z) = 0.06495 0.58966
#
# Static dielectric constant tensor:
#      x y z
#    x 3.587390 0.000000 0.000000 
#    y 0.000000 3.942130 0.000000 
#    z 0.000000 0.000000 3.108700 
# 
# 
# High freq. dielectric constant tensor:
#      x y z
#    x 1.736940 0.000000 0.000000 
#    y 0.000000 1.727300 0.000000 
#    z 0.000000 0.000000 1.684850 
# 
# From -- ./inp_files/29759.got.cif
#   From: 2010.03.12/outbox.cif.g09.slc.cpg/sg64_15_cif.got.tgz:29759.got - 2010.04.10 20:19:32.
