data_PCOD8262472
_publ_section_title
;
Structure prediction by ZEFSAII (Michael W. Deem and Ramdas Pophale) SiO2 
 PCOD8262472
Probable space group: C M C A
;
_chemical_formula_sum "Si O2"
_cell_formula_units_Z 80
_cell_length_a 17.312956
_cell_length_b 15.218159
_cell_length_c 15.530331
_cell_angle_alpha 90.000000
_cell_angle_beta 90.000000
_cell_angle_gamma 90.000000
_cell_volume 4091.796765
_symmetry_space_group_name_H-M "C M C A"
_symmetry_group_IT_number 64
_symmetry_cell_setting 'orthorhombic'
loop_
_space_group_symop_operation_xyz
x,y,z
-x,1/2-y,1/2+z
x,-y,-z
-x,1/2+y,1/2-z
-x,-y,-z
x,1/2+y,1/2-z
-x,y,z
x,1/2-y,1/2+z
1/2+x,1/2+y,z
1/2-x,-y,1/2+z
1/2+x,1/2-y,-z
1/2-x,y,1/2-z
1/2-x,1/2-y,-z
1/2+x,y,1/2-z
1/2-x,1/2+y,z
1/2+x,-y,1/2+z
loop_
_atom_site_type_symbol
_atom_site_label
_atom_site_fract_x
_atom_site_fract_y
_atom_site_fract_z
Si Si1 0.587284 0.735144 0.564591
Si Si2 0.827273 0.402593 0.503640
Si Si3 0.085769 0.575388 0.060808
Si Si4 0.759451 0.320490 0.155589
Si Si5 0.781755 0.874390 0.660721
O O1 0.500000 0.738461 0.604594
O O2 0.607725 0.830561 0.525230
O O3 0.588648 0.668659 0.485700
O O4 0.650425 0.703046 0.634960
O O5 0.865296 0.500000 0.500000
O O6 0.779520 0.380873 0.416798
O O7 0.767122 0.406822 0.580643
O O8 0.133717 0.583111 0.148899
O O9 0.000000 0.547128 0.088088
O O10 0.121575 0.500000 0.000000
O O11 0.750000 0.366124 0.250000
O O12 0.711439 0.230488 0.160789
O O13 0.750000 0.911981 0.750000
#
# Coordination Sequence:
#
# PCOD8262472 Si02
#       5
#    16  16  16  16  16
#     4  10  20  38  60  83 116 152 196 247 294 354
#     4  11  21  37  58  84 122 161 199 240 292 358
#     4  10  19  34  59  87 117 151 193 250 310 353
#     4  10  20  37  59  88 114 154 203 248 299 354
#     4  10  19  35  57  86 116 152 199 247 301 349
#
# _framework density 19.551314000000001
#
# number of rings (size 3 to 8) (size 9 to 14) (size 15 to 20)
#    0.000    1.800    4.000    1.800    0.000    1.200 
#    0.000   10.000    0.000    0.000    0.000    0.000 
#    0.000    0.000    0.000    0.000    0.000    0.000 
#
# Total GULP energy -495768.939368 kJ/mol
# GULP energy per Si atom -12394.223484 kJ/mol
# Density = 1.950681 g / cm^3
# Si number density = 19.551314 Si / 1000 Ang^3
#
#
#
# Elastic Constant Matrix: (Units=GPa)
#
#
# Indices 1 2 3 4 5 6 
#
# 1 120.4379 34.2293 64.7167 0.0000 0.0000 0.0000
# 2 34.2293 103.4301 30.5473 0.0000 0.0000 0.0000
# 3 64.7167 30.5473 148.6661 0.0000 0.0000 0.0000
# 4 0.0000 0.0000 0.0000 -3.6221 0.0000 0.0000
# 5 0.0000 0.0000 0.0000 0.0000 26.0221 0.0000
# 6 0.0000 0.0000 0.0000 0.0000 0.0000 19.9708
#
#
#
# Elastic Compliance Matrix: (Units=1/GPa)
#
#
# Indices 1 2 3 4 5 6 
#
# 1 0.011395 -0.002455 -0.004456 0.000000 0.000000 0.000000
# 2 -0.002455 0.010822 -0.001155 0.000000 0.000000 0.000000
# 3 -0.004456 -0.001155 0.008904 0.000000 0.000000 0.000000
# 4 0.000000 0.000000 0.000000 -0.276084 0.000000 0.000000
# 5 0.000000 0.000000 0.000000 0.000000 0.038429 0.000000
# 6 0.000000 0.000000 0.000000 0.000000 0.000000 0.050073
#
#
# Mechanical properties :
#
#
# Convention : Reuss Voigt Hill
#
# Bulk Modulus (GPa) = 66.71719 70.16897 68.44308
# Shear Modulus (GPa) = -36.94586 24.67687 -6.13450
#
# Velocity S-wave (km/s) = -4.35177 3.55654 -1.77326
# Velocity P-wave (km/s) = 2.99127 7.26862 5.55790
#
# Compressibility (1/GPa) = 0.01498864
#
# Stress axis : x y z
#
# Youngs Moduli (GPa) = 87.75602 92.40481 112.31431
#
# Poissons Ratio (x) = 0.22686 0.50048
# Poissons Ratio (y) = 0.21545 0.12971
# Poissons Ratio (z) = 0.39105 0.10672
#
# Static dielectric constant tensor:
#      x y z
#    x 3.765550 0.000000 0.000000 
#    y 0.000000 3.641240 0.000000 
#    z 0.000000 0.000000 3.658720 
# 
# 
# High freq. dielectric constant tensor:
#      x y z
#    x 1.749060 0.000000 0.000000 
#    y 0.000000 1.768400 0.000000 
#    z 0.000000 0.000000 1.745150 
# 
# From -- ./inp_files/25310.got.cif
#   From: 2010.03.12/outbox.cif.g09.slc.cpg/sg64_13_cif.got.tgz:25310.got - 2010.04.10 20:19:32.
