data_PCOD8262989
_publ_section_title
;
Structure prediction by ZEFSAII (Michael W. Deem and Ramdas Pophale) SiO2 
 PCOD8262989
Probable space group: C M C A
;
_chemical_formula_sum "Si O2"
_cell_formula_units_Z 56
_cell_length_a 11.211125
_cell_length_b 17.137467
_cell_length_c 14.153860
_cell_angle_alpha 90.000000
_cell_angle_beta 90.000000
_cell_angle_gamma 90.000000
_cell_volume 2719.385152
_symmetry_space_group_name_H-M "C M C A"
_symmetry_group_IT_number 64
_symmetry_cell_setting 'orthorhombic'
loop_
_space_group_symop_operation_xyz
x,y,z
-x,1/2-y,1/2+z
x,-y,-z
-x,1/2+y,1/2-z
-x,-y,-z
x,1/2+y,1/2-z
-x,y,z
x,1/2-y,1/2+z
1/2+x,1/2+y,z
1/2-x,-y,1/2+z
1/2+x,1/2-y,-z
1/2-x,y,1/2-z
1/2-x,1/2-y,-z
1/2+x,y,1/2-z
1/2-x,1/2+y,z
1/2+x,-y,1/2+z
loop_
_atom_site_type_symbol
_atom_site_label
_atom_site_fract_x
_atom_site_fract_y
_atom_site_fract_z
Si Si1 0.207728 0.772231 0.650087
Si Si2 0.215531 0.500000 0.000000
Si Si3 0.369158 0.440223 0.689285
Si Si4 0.133008 0.346161 0.497880
O O1 0.250000 0.736762 0.750000
O O2 0.127420 0.848180 0.668483
O O3 0.133539 0.705901 0.596741
O O4 0.321170 0.796353 0.586783
O O5 0.134143 0.487963 0.908154
O O6 0.293805 0.575891 0.981122
O O7 0.500000 0.460203 0.736655
O O8 0.250000 0.461719 0.750000
O O9 0.000000 0.371579 0.522096
#
# Coordination Sequence:
#
# PCOD8262989 Si02
#       4
#    16   8  16  16
#     4   9  20  36  56  81 108 145 191 238 287 337
#     4  10  22  36  54  82 117 152 187 226 283 344
#     4  10  21  38  60  84 112 149 191 234 283 338
#     4  10  20  35  55  81 113 149 191 237 284 337
#
# _framework density 20.592891000000002
#
# number of rings (size 3 to 8) (size 9 to 14) (size 15 to 20)
#    0.000    2.286    0.000    1.714    0.000   13.714 
#    0.000    1.429    0.000    0.000    0.000    0.000 
#    0.000    0.000    0.000    0.000    0.000    0.000 
#
# Total GULP energy -347038.456382 kJ/mol
# GULP energy per Si atom -12394.230585 kJ/mol
# Density = 2.054602 g / cm^3
# Si number density = 20.592891 Si / 1000 Ang^3
#
#
#
# Elastic Constant Matrix: (Units=GPa)
#
#
# Indices 1 2 3 4 5 6 
#
# 1 154.5654 14.2411 39.0912 0.0000 0.0000 0.0000
# 2 14.2411 57.2034 25.2585 0.0000 0.0000 0.0000
# 3 39.0912 25.2585 124.1162 0.0000 0.0000 0.0000
# 4 0.0000 0.0000 0.0000 25.5008 0.0000 0.0000
# 5 0.0000 0.0000 0.0000 0.0000 15.4261 0.0000
# 6 0.0000 0.0000 0.0000 0.0000 0.0000 -6.6015
#
#
#
# Elastic Compliance Matrix: (Units=1/GPa)
#
#
# Indices 1 2 3 4 5 6 
#
# 1 0.007067 -0.000853 -0.002052 0.000000 0.000000 0.000000
# 2 -0.000853 0.019310 -0.003661 0.000000 0.000000 0.000000
# 3 -0.002052 -0.003661 0.009448 0.000000 0.000000 0.000000
# 4 0.000000 0.000000 0.000000 0.039215 0.000000 0.000000
# 5 0.000000 0.000000 0.000000 0.000000 0.064825 0.000000
# 6 0.000000 0.000000 0.000000 0.000000 0.000000 -0.151480
#
#
# Mechanical properties :
#
#
# Convention : Reuss Voigt Hill
#
# Bulk Modulus (GPa) = 44.06641 54.78520 49.42580
# Shear Modulus (GPa) = 550.44609 24.01800 287.23205
#
# Velocity S-wave (km/s) = 16.36702 3.41885 11.82303
# Velocity P-wave (km/s) = 19.45810 6.49973 14.50628
#
# Compressibility (1/GPa) = 0.02269302
#
# Stress axis : x y z
#
# Youngs Moduli (GPa) = 141.49440 51.78538 105.83802
#
# Poissons Ratio (x) = 0.04419 0.21721
# Poissons Ratio (y) = 0.12073 0.38748
# Poissons Ratio (z) = 0.29039 0.18959
#
# Static dielectric constant tensor:
#      x y z
#    x 3.635410 0.000000 0.000000 
#    y 0.000000 3.662670 0.000000 
#    z 0.000000 0.000000 3.855740 
# 
# 
# High freq. dielectric constant tensor:
#      x y z
#    x 1.804510 0.000000 0.000000 
#    y 0.000000 1.792020 0.000000 
#    z 0.000000 0.000000 1.808070 
# 
# From -- ./inp_files/12730.got.cif
#   From: 2010.03.12/outbox.cif.g09.slc.cpg/sg64_7_cif.got.tgz:12730.got - 2010.04.10 20:19:32.
