data_PCOD8262324
_publ_section_title
;
Structure prediction by ZEFSAII (Michael W. Deem and Ramdas Pophale) SiO2 
 PCOD8262324
Probable space group: C M C A
;
_chemical_formula_sum "Si O2"
_cell_formula_units_Z 80
_cell_length_a 8.798795
_cell_length_b 25.142425
_cell_length_c 18.569277
_cell_angle_alpha 90.000000
_cell_angle_beta 90.000000
_cell_angle_gamma 90.000000
_cell_volume 4107.951971
_symmetry_space_group_name_H-M "C M C A"
_symmetry_group_IT_number 64
_symmetry_cell_setting 'orthorhombic'
loop_
_space_group_symop_operation_xyz
x,y,z
-x,1/2-y,1/2+z
x,-y,-z
-x,1/2+y,1/2-z
-x,-y,-z
x,1/2+y,1/2-z
-x,y,z
x,1/2-y,1/2+z
1/2+x,1/2+y,z
1/2-x,-y,1/2+z
1/2+x,1/2-y,-z
1/2-x,y,1/2-z
1/2-x,1/2-y,-z
1/2+x,y,1/2-z
1/2-x,1/2+y,z
1/2+x,-y,1/2+z
loop_
_atom_site_type_symbol
_atom_site_label
_atom_site_fract_x
_atom_site_fract_y
_atom_site_fract_z
Si Si1 0.819836 0.976085 0.426217
Si Si2 0.680023 0.168432 0.079498
Si Si3 0.680737 0.355898 0.420398
Si Si4 0.180345 0.267641 0.327432
Si Si5 0.179880 0.929908 0.672546
O O1 0.760842 0.916476 0.412904
O O2 0.000000 0.974877 0.433715
O O3 0.750851 0.000000 0.500000
O O4 0.768280 0.013511 0.360278
O O5 0.500000 0.165809 0.079793
O O6 0.738494 0.221783 0.118206
O O7 0.743272 0.116990 0.121531
O O8 0.737676 0.167167 0.997175
O O9 0.500000 0.351596 0.412128
O O10 0.760174 0.323805 0.356473
O O11 0.250000 0.255413 0.250000
O O12 0.000000 0.268574 0.320955
O O13 0.250000 0.922397 0.750000
O O14 0.000000 0.926485 0.678917
#
# Coordination Sequence:
#
# PCOD8262324 Si02
#       5
#    16  16  16  16  16
#     4   9  16  31  57  82 105 140 183 219 259 321
#     4   9  18  34  58  82 106 139 184 227 269 324
#     4  10  19  35  60  85 107 140 183 227 271 323
#     4  11  23  38  54  78 111 147 183 225 273 325
#     4  10  19  33  54  82 110 140 179 223 270 322
#
# _framework density 19.474423999999999
#
# number of rings (size 3 to 8) (size 9 to 14) (size 15 to 20)
#    0.000    2.200    2.000    1.800    0.000    0.800 
#    0.000    6.000    0.000    1.200    0.000    0.000 
#    0.000    0.000    0.000    0.000    0.000    0.000 
#
# Total GULP energy -496021.992050 kJ/mol
# GULP energy per Si atom -12400.549801 kJ/mol
# Density = 1.943010 g / cm^3
# Si number density = 19.474424 Si / 1000 Ang^3
#
#
#
# Elastic Constant Matrix: (Units=GPa)
#
#
# Indices 1 2 3 4 5 6 
#
# 1 32.1154 21.4392 16.6925 0.0000 0.0000 0.0000
# 2 21.4392 129.6762 21.8072 0.0000 0.0000 0.0000
# 3 16.6925 21.8072 73.5705 0.0000 0.0000 0.0000
# 4 0.0000 0.0000 0.0000 36.2132 0.0000 0.0000
# 5 0.0000 0.0000 0.0000 0.0000 26.8484 0.0000
# 6 0.0000 0.0000 0.0000 0.0000 0.0000 19.5172
#
#
#
# Elastic Compliance Matrix: (Units=1/GPa)
#
#
# Indices 1 2 3 4 5 6 
#
# 1 0.038284 -0.005124 -0.007167 0.000000 0.000000 0.000000
# 2 -0.005124 0.008802 -0.001446 0.000000 0.000000 0.000000
# 3 -0.007167 -0.001446 0.015647 0.000000 0.000000 0.000000
# 4 0.000000 0.000000 0.000000 0.027614 0.000000 0.000000
# 5 0.000000 0.000000 0.000000 0.000000 0.037246 0.000000
# 6 0.000000 0.000000 0.000000 0.000000 0.000000 0.051237
#
#
# Mechanical properties :
#
#
# Convention : Reuss Voigt Hill
#
# Bulk Modulus (GPa) = 28.36294 39.47110 33.91702
# Shear Modulus (GPa) = 22.92965 28.21066 25.57015
#
# Velocity S-wave (km/s) = 3.43508 3.81018 3.62748
# Velocity P-wave (km/s) = 5.50717 6.29832 5.91598
#
# Compressibility (1/GPa) = 0.03525727
#
# Stress axis : x y z
#
# Youngs Moduli (GPa) = 26.12074 113.61169 63.90865
#
# Poissons Ratio (x) = 0.58216 0.45806
# Poissons Ratio (y) = 0.13385 0.09244
# Poissons Ratio (z) = 0.18722 0.16433
#
# Static dielectric constant tensor:
#      x y z
#    x 3.042740 0.000000 0.000000 
#    y 0.000000 3.869450 0.000000 
#    z 0.000000 0.000000 3.623490 
# 
# 
# High freq. dielectric constant tensor:
#      x y z
#    x 1.710240 0.000000 0.000000 
#    y 0.000000 1.775570 0.000000 
#    z 0.000000 0.000000 1.766660 
# 
# From -- ./inp_files/22343.got.cif
#   From: 2010.03.12/outbox.cif.g09.slc.cpg/sg64_12_cif.got.tgz:22343.got - 2010.04.10 20:19:32.
