data_PCOD8262925
_publ_section_title
;
Structure prediction by ZEFSAII (Michael W. Deem and Ramdas Pophale) SiO2 
 PCOD8262925
Probable space group: C M C A
;
_chemical_formula_sum "Si O2"
_cell_formula_units_Z 80
_cell_length_a 16.403330
_cell_length_b 17.126567
_cell_length_c 14.715585
_cell_angle_alpha 90.000000
_cell_angle_beta 90.000000
_cell_angle_gamma 90.000000
_cell_volume 4134.089472
_symmetry_space_group_name_H-M "C M C A"
_symmetry_group_IT_number 64
_symmetry_cell_setting 'orthorhombic'
loop_
_space_group_symop_operation_xyz
x,y,z
-x,1/2-y,1/2+z
x,-y,-z
-x,1/2+y,1/2-z
-x,-y,-z
x,1/2+y,1/2-z
-x,y,z
x,1/2-y,1/2+z
1/2+x,1/2+y,z
1/2-x,-y,1/2+z
1/2+x,1/2-y,-z
1/2-x,y,1/2-z
1/2-x,1/2-y,-z
1/2+x,y,1/2-z
1/2-x,1/2+y,z
1/2+x,-y,1/2+z
loop_
_atom_site_type_symbol
_atom_site_label
_atom_site_fract_x
_atom_site_fract_y
_atom_site_fract_z
Si Si1 0.094491 0.688084 0.834474
Si Si2 0.093059 0.518878 0.894699
Si Si3 0.680785 0.304787 0.963957
Si Si4 0.405297 0.766989 0.364652
Si Si5 0.705223 0.116695 0.155793
O O1 0.124152 0.606882 0.878275
O O2 0.137520 0.761405 0.880271
O O3 0.114331 0.685575 0.727096
O O4 0.000000 0.700004 0.853300
O O5 0.155078 0.463463 0.840857
O O6 0.000000 0.508283 0.858690
O O7 0.097850 0.500000 0.000000
O O8 0.724015 0.382520 0.922699
O O9 0.750000 0.250000 0.000000
O O10 0.620149 0.321163 0.048741
O O11 0.500000 0.746304 0.373038
O O12 0.358264 0.685464 0.365282
O O13 0.750000 0.130164 0.250000
#
# Coordination Sequence:
#
# PCOD8262925 Si02
#       5
#    16  16  16  16  16
#     4  10  20  37  60  85 112 151 200 242 280 338
#     4  10  21  39  60  83 112 151 201 243 283 341
#     4  10  20  34  57  84 120 145 186 240 289 345
#     4  10  20  36  61  85 113 156 196 236 285 342
#     4  11  21  38  54  87 123 150 185 237 299 347
#
# _framework density 19.351298
#
# number of rings (size 3 to 8) (size 9 to 14) (size 15 to 20)
#    0.000    1.800    2.000    3.600    0.000    1.600 
#   10.800    0.000    0.000    0.000    0.000    4.200 
#    0.000    0.000    0.000    0.000    0.000    0.000 
#
# Total GULP energy -495848.027161 kJ/mol
# GULP energy per Si atom -12396.200679 kJ/mol
# Density = 1.930725 g / cm^3
# Si number density = 19.351298 Si / 1000 Ang^3
#
#
#
# Elastic Constant Matrix: (Units=GPa)
#
#
# Indices 1 2 3 4 5 6 
#
# 1 81.0440 29.4682 45.4164 0.0000 0.0000 0.0000
# 2 29.4682 58.1102 11.6606 0.0000 0.0000 0.0000
# 3 45.4164 11.6606 112.8176 0.0000 0.0000 0.0000
# 4 0.0000 0.0000 0.0000 22.3579 0.0000 0.0000
# 5 0.0000 0.0000 0.0000 0.0000 36.3404 0.0000
# 6 0.0000 0.0000 0.0000 0.0000 0.0000 7.6170
#
#
#
# Elastic Compliance Matrix: (Units=1/GPa)
#
#
# Indices 1 2 3 4 5 6 
#
# 1 0.019240 -0.008376 -0.006880 0.000000 0.000000 0.000000
# 2 -0.008376 0.021220 0.001179 0.000000 0.000000 0.000000
# 3 -0.006880 0.001179 0.011512 0.000000 0.000000 0.000000
# 4 0.000000 0.000000 0.000000 0.044727 0.000000 0.000000
# 5 0.000000 0.000000 0.000000 0.000000 0.027518 0.000000
# 6 0.000000 0.000000 0.000000 0.000000 0.000000 0.131286
#
#
# Mechanical properties :
#
#
# Convention : Reuss Voigt Hill
#
# Bulk Modulus (GPa) = 41.98664 47.22913 44.60788
# Shear Modulus (GPa) = 17.14709 24.29148 20.71928
#
# Velocity S-wave (km/s) = 2.97996 3.54685 3.27569
# Velocity P-wave (km/s) = 5.79521 6.42127 6.11625
#
# Compressibility (1/GPa) = 0.02381710
#
# Stress axis : x y z
#
# Youngs Moduli (GPa) = 51.97528 47.12574 86.86959
#
# Poissons Ratio (x) = 0.39474 0.59763
# Poissons Ratio (y) = 0.43536 -0.10240
# Poissons Ratio (z) = 0.35757 -0.05555
#
# Static dielectric constant tensor:
#      x y z
#    x 3.970470 0.000000 0.000000 
#    y 0.000000 3.246770 0.000000 
#    z 0.000000 0.000000 4.014140 
# 
# 
# High freq. dielectric constant tensor:
#      x y z
#    x 1.766180 0.000000 0.000000 
#    y 0.000000 1.714780 0.000000 
#    z 0.000000 0.000000 1.766660 
# 
# From -- ./inp_files/25282.got.cif
#   From: 2010.03.12/outbox.cif.g09.slc.cpg/sg64_13_cif.got.tgz:25282.got - 2010.04.10 20:19:32.
