data_PCOD8262537
_publ_section_title
;
Structure prediction by ZEFSAII (Michael W. Deem and Ramdas Pophale) SiO2 
 PCOD8262537
Probable space group: C M C A
;
_chemical_formula_sum "Si O2"
_cell_formula_units_Z 88
_cell_length_a 17.412562
_cell_length_b 26.595091
_cell_length_c 9.380551
_cell_angle_alpha 90.000000
_cell_angle_beta 90.000000
_cell_angle_gamma 90.000000
_cell_volume 4344.026895
_symmetry_space_group_name_H-M "C M C A"
_symmetry_group_IT_number 64
_symmetry_cell_setting 'orthorhombic'
loop_
_space_group_symop_operation_xyz
x,y,z
-x,1/2-y,1/2+z
x,-y,-z
-x,1/2+y,1/2-z
-x,-y,-z
x,1/2+y,1/2-z
-x,y,z
x,1/2-y,1/2+z
1/2+x,1/2+y,z
1/2-x,-y,1/2+z
1/2+x,1/2-y,-z
1/2-x,y,1/2-z
1/2-x,1/2-y,-z
1/2+x,y,1/2-z
1/2-x,1/2+y,z
1/2+x,-y,1/2+z
loop_
_atom_site_type_symbol
_atom_site_label
_atom_site_fract_x
_atom_site_fract_y
_atom_site_fract_z
Si Si1 0.590079 0.791729 0.069172
Si Si2 0.750000 0.878135 0.750000
Si Si3 0.091446 0.510897 0.660473
Si Si4 0.411974 0.601403 0.659531
Si Si5 0.334059 0.716674 0.266722
Si Si6 0.836371 0.953142 0.586109
O O1 0.500000 0.796596 0.031787
O O2 0.638807 0.781853 0.928673
O O3 0.622705 0.842278 0.147422
O O4 0.602626 0.744292 0.171820
O O5 0.676475 0.841836 0.716369
O O6 0.768524 0.913160 0.613904
O O7 0.118832 0.500000 0.500000
O O8 0.121664 0.566356 0.712309
O O9 0.127742 0.468622 0.762350
O O10 0.000000 0.507575 0.675033
O O11 0.500000 0.608881 0.692468
O O12 0.402066 0.572071 0.510312
O O13 0.250000 0.743466 0.250000
O O14 0.800007 0.000000 0.500000
#
# Coordination Sequence:
#
# PCOD8262537 Si02
#       6
#    16   8  16  16  16  16
#     4  11  21  39  63  93 121 160 212 265 311 372
#     4  10  22  38  60  84 118 156 206 242 314 362
#     4   9  18  33  53  83 118 147 185 246 308 361
#     4   9  17  33  57  82 112 151 196 241 301 368
#     4  10  22  40  63  85 125 163 205 256 319 381
#     4  10  19  35  59  82 112 155 203 242 289 362
#
# _framework density 20.257701000000001
#
# number of rings (size 3 to 8) (size 9 to 14) (size 15 to 20)
#    0.545    1.636    1.818    1.636    0.000    2.909 
#    3.273    0.000    8.000    0.000    0.000    0.000 
#    0.000    0.000    0.000    0.000    0.000    0.000 
#
# Total GULP energy -545163.884802 kJ/mol
# GULP energy per Si atom -12390.088291 kJ/mol
# Density = 2.021159 g / cm^3
# Si number density = 20.257701 Si / 1000 Ang^3
#
#
#
# Elastic Constant Matrix: (Units=GPa)
#
#
# Indices 1 2 3 4 5 6 
#
# 1 39.0063 30.9693 30.6210 0.0000 0.0000 0.0000
# 2 30.9693 148.9378 75.8837 0.0000 0.0000 0.0000
# 3 30.6210 75.8837 147.7281 0.0000 0.0000 0.0000
# 4 0.0000 0.0000 0.0000 33.1862 0.0000 0.0000
# 5 0.0000 0.0000 0.0000 0.0000 20.2044 0.0000
# 6 0.0000 0.0000 0.0000 0.0000 0.0000 28.1171
#
#
#
# Elastic Compliance Matrix: (Units=1/GPa)
#
#
# Indices 1 2 3 4 5 6 
#
# 1 0.032737 -0.004537 -0.004455 0.000000 0.000000 0.000000
# 2 -0.004537 0.009723 -0.004054 0.000000 0.000000 0.000000
# 3 -0.004455 -0.004054 0.009775 0.000000 0.000000 0.000000
# 4 0.000000 0.000000 0.000000 0.030133 0.000000 0.000000
# 5 0.000000 0.000000 0.000000 0.000000 0.049494 0.000000
# 6 0.000000 0.000000 0.000000 0.000000 0.000000 0.035566
#
#
# Mechanical properties :
#
#
# Convention : Reuss Voigt Hill
#
# Bulk Modulus (GPa) = 38.25218 67.84669 53.04944
# Shear Modulus (GPa) = 24.72382 29.51475 27.11928
#
# Velocity S-wave (km/s) = 3.49731 3.82116 3.66281
# Velocity P-wave (km/s) = 5.93565 7.28237 6.64322
#
# Compressibility (1/GPa) = 0.02614230
#
# Stress axis : x y z
#
# Youngs Moduli (GPa) = 30.54688 102.84683 102.30105
#
# Poissons Ratio (x) = 0.46664 0.45575
# Poissons Ratio (y) = 0.13860 0.41473
# Poissons Ratio (z) = 0.13609 0.41695
#
# Static dielectric constant tensor:
#      x y z
#    x 3.393520 0.000000 0.000000 
#    y 0.000000 4.025330 0.000000 
#    z 0.000000 0.000000 3.608560 
# 
# 
# High freq. dielectric constant tensor:
#      x y z
#    x 1.768150 0.000000 0.000000 
#    y 0.000000 1.801410 0.000000 
#    z 0.000000 0.000000 1.781890 
# 
# From -- ./inp_files/8259.got.cif
#   From: 2010.03.12/outbox.cif.g09.slc.cpg/sg64_5_cif.got.tgz:8259.got - 2010.04.10 20:19:32.
