data_PCOD8262136
_publ_section_title
;
Structure prediction by ZEFSAII (Michael W. Deem and Ramdas Pophale) SiO2 
 PCOD8262136
Probable space group: C M C A
;
_chemical_formula_sum "Si O2"
_cell_formula_units_Z 88
_cell_length_a 25.341662
_cell_length_b 5.118538
_cell_length_c 36.726991
_cell_angle_alpha 90.000000
_cell_angle_beta 90.000000
_cell_angle_gamma 90.000000
_cell_volume 4763.941003
_symmetry_space_group_name_H-M "C M C A"
_symmetry_group_IT_number 64
_symmetry_cell_setting 'orthorhombic'
loop_
_space_group_symop_operation_xyz
x,y,z
-x,1/2-y,1/2+z
x,-y,-z
-x,1/2+y,1/2-z
-x,-y,-z
x,1/2+y,1/2-z
-x,y,z
x,1/2-y,1/2+z
1/2+x,1/2+y,z
1/2-x,-y,1/2+z
1/2+x,1/2-y,-z
1/2-x,y,1/2-z
1/2-x,1/2-y,-z
1/2+x,y,1/2-z
1/2-x,1/2+y,z
1/2+x,-y,1/2+z
loop_
_atom_site_type_symbol
_atom_site_label
_atom_site_fract_x
_atom_site_fract_y
_atom_site_fract_z
Si Si1 0.114005 0.897705 0.774297
Si Si2 0.285211 0.436247 0.824562
Si Si3 0.781990 0.400402 0.592303
Si Si4 0.441880 0.994460 0.043157
Si Si5 0.379415 0.005727 0.543130
Si Si6 0.000000 0.991552 0.772889
O O1 0.119322 0.607696 0.758108
O O2 0.160096 0.941265 0.803135
O O3 0.055739 0.931570 0.793660
O O4 0.250307 0.687420 0.814326
O O5 0.302678 0.438524 0.866684
O O6 0.733749 0.600101 0.585879
O O7 0.824338 0.474101 0.562514
O O8 0.500000 0.027872 0.060257
O O9 0.418551 0.720845 0.056273
O O10 0.404528 0.225177 0.056961
O O11 0.445927 0.000000 0.000000
O O12 0.369771 0.000000 0.500000
O O13 0.000000 0.796552 0.737970
#
# Coordination Sequence:
#
# PCOD8262136 Si02
#       6
#    16  16  16  16  16   8
#     4  10  19  32  53  78 102 131 165 208 246 293
#     4  10  21  35  51  74 102 137 169 202 257 305
#     4  10  21  36  51  70  99 138 170 204 256 307
#     4   9  17  30  49  73 100 127 158 202 257 308
#     4  10  19  31  51  76  97 129 172 212 251 297
#     4   8  16  30  48  72  98 128 161 190 243 294
#
# _framework density 18.472100000000001
#
# number of rings (size 3 to 8) (size 9 to 14) (size 15 to 20)
#    0.000    2.364    0.000    2.727    0.000    5.091 
#    0.000    0.000    4.000    0.000    4.727    0.000 
#    0.000    0.000    0.000    0.000    0.000    0.000 
#
# Total GULP energy -545422.582976 kJ/mol
# GULP energy per Si atom -12395.967795 kJ/mol
# Density = 1.843006 g / cm^3
# Si number density = 18.472100 Si / 1000 Ang^3
#
#
#
# Elastic Constant Matrix: (Units=GPa)
#
#
# Indices 1 2 3 4 5 6 
#
# 1 133.0506 17.4417 49.8688 0.0000 0.0000 0.0000
# 2 17.4417 88.9587 14.6582 0.0000 0.0000 0.0000
# 3 49.8688 14.6582 41.2178 0.0000 0.0000 0.0000
# 4 0.0000 0.0000 0.0000 13.2628 0.0000 0.0000
# 5 0.0000 0.0000 0.0000 0.0000 1.4607 0.0000
# 6 0.0000 0.0000 0.0000 0.0000 0.0000 22.8919
#
#
#
# Elastic Compliance Matrix: (Units=1/GPa)
#
#
# Indices 1 2 3 4 5 6 
#
# 1 0.013753 0.000048 -0.016656 0.000000 0.000000 0.000000
# 2 0.000048 0.011941 -0.004305 0.000000 0.000000 0.000000
# 3 -0.016656 -0.004305 0.045944 0.000000 0.000000 0.000000
# 4 0.000000 0.000000 0.000000 0.075399 0.000000 0.000000
# 5 0.000000 0.000000 0.000000 0.000000 0.684584 0.000000
# 6 0.000000 0.000000 0.000000 0.000000 0.000000 0.043684
#
#
# Mechanical properties :
#
#
# Convention : Reuss Voigt Hill
#
# Bulk Modulus (GPa) = 33.54320 47.46273 40.50296
# Shear Modulus (GPa) = 5.39335 19.60698 12.50017
#
# Velocity S-wave (km/s) = 1.71058 3.26151 2.60418
# Velocity P-wave (km/s) = 4.70103 6.31928 5.56924
#
# Compressibility (1/GPa) = 0.02981230
#
# Stress axis : x y z
#
# Youngs Moduli (GPa) = 72.71389 83.74470 21.76549
#
# Poissons Ratio (x) = -0.00403 0.36253
# Poissons Ratio (y) = -0.00350 0.09370
# Poissons Ratio (z) = 1.21113 0.36050
#
# Static dielectric constant tensor:
#      x y z
#    x 3.584070 0.000000 0.000000 
#    y 0.000000 3.880690 0.000000 
#    z 0.000000 0.000000 3.052880 
# 
# 
# High freq. dielectric constant tensor:
#      x y z
#    x 1.730110 0.000000 0.000000 
#    y 0.000000 1.743450 0.000000 
#    z 0.000000 0.000000 1.662830 
# 
# From -- ./inp_files/3323.got.cif
#   From: 2010.03.12/outbox.cif.g09.slc.cpg/sg64_2_cif.got.tgz:3323.got - 2010.04.10 20:19:32.
