data_PCOD8262739
_publ_section_title
;
Structure prediction by ZEFSAII (Michael W. Deem and Ramdas Pophale) SiO2 
 PCOD8262739
Probable space group: C M C A
;
_chemical_formula_sum "Si O2"
_cell_formula_units_Z 112
_cell_length_a 21.043406
_cell_length_b 25.372254
_cell_length_c 11.027983
_cell_angle_alpha 90.000000
_cell_angle_beta 90.000000
_cell_angle_gamma 90.000000
_cell_volume 5888.045708
_symmetry_space_group_name_H-M "C M C A"
_symmetry_group_IT_number 64
_symmetry_cell_setting 'orthorhombic'
loop_
_space_group_symop_operation_xyz
x,y,z
-x,1/2-y,1/2+z
x,-y,-z
-x,1/2+y,1/2-z
-x,-y,-z
x,1/2+y,1/2-z
-x,y,z
x,1/2-y,1/2+z
1/2+x,1/2+y,z
1/2-x,-y,1/2+z
1/2+x,1/2-y,-z
1/2-x,y,1/2-z
1/2-x,1/2-y,-z
1/2+x,y,1/2-z
1/2-x,1/2+y,z
1/2+x,-y,1/2+z
loop_
_atom_site_type_symbol
_atom_site_label
_atom_site_fract_x
_atom_site_fract_y
_atom_site_fract_z
Si Si1 0.926348 0.119912 0.754817
Si Si2 0.074136 0.942569 0.015241
Si Si3 0.572621 0.057373 0.986646
Si Si4 0.924779 0.841119 0.611487
Si Si5 0.319096 0.206897 0.756650
Si Si6 0.857506 0.247067 0.996822
Si Si7 0.926090 0.656962 0.379643
O O1 0.899051 0.088809 0.870016
O O2 0.922193 0.077078 0.649853
O O3 0.879642 0.168845 0.732529
O O4 0.000000 0.139913 0.770100
O O5 0.000000 0.951596 0.037559
O O6 0.087822 0.905315 0.899385
O O7 0.107150 0.000000 0.000000
O O8 0.500000 0.050399 0.028402
O O9 0.604654 0.102224 0.071897
O O10 0.606697 0.000000 0.000000
O O11 0.905073 0.796219 0.517381
O O12 0.900990 0.827309 0.746667
O O13 0.000000 0.845616 0.605095
O O14 0.250000 0.177869 0.750000
O O15 0.316836 0.242191 0.880652
O O16 0.321321 0.241528 0.632056
O O17 0.894011 0.192146 0.016891
O O18 0.000000 0.668539 0.391575
#
# Coordination Sequence:
#
# PCOD8262739 Si02
#       7
#    16  16  16  16  16  16  16
#     4  10  20  36  59  86 114 152 195 237 288 346
#     4   9  18  31  51  82 117 150 186 233 286 341
#     4   9  18  31  51  82 117 150 186 233 286 341
#     4  10  20  32  52  85 121 153 186 235 293 344
#     4  12  26  42  61  84 118 158 199 245 296 358
#     4  12  22  40  58  82 113 152 199 242 291 352
#     4  10  20  32  52  85 121 153 186 235 293 344
#
# _framework density 19.02159
#
# number of rings (size 3 to 8) (size 9 to 14) (size 15 to 20)
#    0.000    1.714    4.286    0.857    2.000    1.143 
#    0.000    0.000    0.000    0.857    0.000    0.000 
#    0.000    0.000    0.000    0.000    0.000    0.000 
#
# Total GULP energy -693779.252131 kJ/mol
# GULP energy per Si atom -12388.915217 kJ/mol
# Density = 1.897830 g / cm^3
# Si number density = 19.021590 Si / 1000 Ang^3
#
#
#
# Elastic Constant Matrix: (Units=GPa)
#
#
# Indices 1 2 3 4 5 6 
#
# 1 57.1848 29.7437 24.6128 0.0000 0.0000 0.0000
# 2 29.7437 113.9208 30.1981 0.0000 0.0000 0.0000
# 3 24.6128 30.1981 113.9455 0.0000 0.0000 0.0000
# 4 0.0000 0.0000 0.0000 27.9790 0.0000 0.0000
# 5 0.0000 0.0000 0.0000 0.0000 3.1399 0.0000
# 6 0.0000 0.0000 0.0000 0.0000 0.0000 4.8500
#
#
#
# Elastic Compliance Matrix: (Units=1/GPa)
#
#
# Indices 1 2 3 4 5 6 
#
# 1 0.021378 -0.004687 -0.003376 0.000000 0.000000 0.000000
# 2 -0.004687 0.010469 -0.001762 0.000000 0.000000 0.000000
# 3 -0.003376 -0.001762 0.009972 0.000000 0.000000 0.000000
# 4 0.000000 0.000000 0.000000 0.035741 0.000000 0.000000
# 5 0.000000 0.000000 0.000000 0.000000 0.318480 0.000000
# 6 0.000000 0.000000 0.000000 0.000000 0.000000 0.206185
#
#
# Mechanical properties :
#
#
# Convention : Reuss Voigt Hill
#
# Bulk Modulus (GPa) = 45.10617 50.46226 47.78422
# Shear Modulus (GPa) = 7.94579 20.56022 14.25301
#
# Velocity S-wave (km/s) = 2.04605 3.29125 2.74032
# Velocity P-wave (km/s) = 5.41723 6.40544 5.93195
#
# Compressibility (1/GPa) = 0.02216992
#
# Stress axis : x y z
#
# Youngs Moduli (GPa) = 46.77756 95.52200 100.27808
#
# Poissons Ratio (x) = 0.44769 0.33850
# Poissons Ratio (y) = 0.21923 0.17670
# Poissons Ratio (z) = 0.15790 0.16832
#
# Static dielectric constant tensor:
#      x y z
#    x 2.962770 0.000000 0.000000 
#    y 0.000000 3.674760 0.000000 
#    z 0.000000 0.000000 3.814650 
# 
# 
# High freq. dielectric constant tensor:
#      x y z
#    x 1.672490 0.000000 0.000000 
#    y 0.000000 1.742740 0.000000 
#    z 0.000000 0.000000 1.764000 
# 
# From -- ./inp_files/17676.got.cif
#   From: 2010.03.12/outbox.cif.g09.slc.cpg/sg64_9_cif.got.tgz:17676.got - 2010.04.10 20:19:32.
