data_PCOD8262330
_publ_section_title
;
Structure prediction by ZEFSAII (Michael W. Deem and Ramdas Pophale) SiO2 
 PCOD8262330
Probable space group: C M C A
;
_chemical_formula_sum "Si O2"
_cell_formula_units_Z 96
_cell_length_a 9.126807
_cell_length_b 19.132639
_cell_length_c 30.361838
_cell_angle_alpha 90.000000
_cell_angle_beta 90.000000
_cell_angle_gamma 90.000000
_cell_volume 5301.781223
_symmetry_space_group_name_H-M "C M C A"
_symmetry_group_IT_number 64
_symmetry_cell_setting 'orthorhombic'
loop_
_space_group_symop_operation_xyz
x,y,z
-x,1/2-y,1/2+z
x,-y,-z
-x,1/2+y,1/2-z
-x,-y,-z
x,1/2+y,1/2-z
-x,y,z
x,1/2-y,1/2+z
1/2+x,1/2+y,z
1/2-x,-y,1/2+z
1/2+x,1/2-y,-z
1/2-x,y,1/2-z
1/2-x,1/2-y,-z
1/2+x,y,1/2-z
1/2-x,1/2+y,z
1/2+x,-y,1/2+z
loop_
_atom_site_type_symbol
_atom_site_label
_atom_site_fract_x
_atom_site_fract_y
_atom_site_fract_z
Si Si1 0.167642 0.574875 0.981980
Si Si2 0.672358 0.252956 0.372646
Si Si3 0.331904 0.643261 0.427685
Si Si4 0.331553 0.851006 0.704601
Si Si5 0.668499 0.458005 0.866583
Si Si6 0.169620 0.110309 0.893960
O O1 0.272202 0.598938 0.943017
O O2 0.000000 0.569514 0.965066
O O3 0.220567 0.500000 0.000000
O O4 0.181764 0.632956 0.020051
O O5 0.500000 0.259123 0.380498
O O6 0.740634 0.211619 0.414059
O O7 0.711148 0.212403 0.327805
O O8 0.741839 0.329379 0.369132
O O9 0.500000 0.653191 0.413309
O O10 0.270348 0.573692 0.404441
O O11 0.500000 0.848311 0.716783
O O12 0.250000 0.842697 0.750000
O O13 0.290422 0.924155 0.680643
O O14 0.500000 0.438562 0.878087
O O15 0.692513 0.540893 0.864601
O O16 0.000000 0.131155 0.897059
#
# Coordination Sequence:
#
# PCOD8262330 Si02
#       6
#    16  16  16  16  16  16
#     4  10  20  34  52  78 111 146 186 232 274 316
#     4  10  22  39  56  77 112 147 179 224 277 324
#     4  10  19  33  55  79 105 143 189 226 263 317
#     4   9  19  37  60  83 105 135 173 216 268 326
#     4   9  19  35  54  79 111 140 172 219 269 315
#     4  11  22  35  55  81 110 146 187 227 269 321
#
# _framework density 18.107122
#
# number of rings (size 3 to 8) (size 9 to 14) (size 15 to 20)
#    0.000    2.167    1.667    2.500    0.000    6.333 
#    0.000    0.833    0.000    4.000    0.000    0.000 
#    0.000    0.000    0.000    0.000    0.000    0.000 
#
# Total GULP energy -595292.596096 kJ/mol
# GULP energy per Si atom -12401.929085 kJ/mol
# Density = 1.806591 g / cm^3
# Si number density = 18.107122 Si / 1000 Ang^3
#
#
#
# Elastic Constant Matrix: (Units=GPa)
#
#
# Indices 1 2 3 4 5 6 
#
# 1 104.5507 64.9617 56.9133 0.0000 0.0000 0.0000
# 2 64.9617 129.5393 55.3753 0.0000 0.0000 0.0000
# 3 56.9133 55.3753 103.7648 0.0000 0.0000 0.0000
# 4 0.0000 0.0000 0.0000 16.6803 0.0000 0.0000
# 5 0.0000 0.0000 0.0000 0.0000 32.8971 0.0000
# 6 0.0000 0.0000 0.0000 0.0000 0.0000 33.5973
#
#
#
# Elastic Compliance Matrix: (Units=1/GPa)
#
#
# Indices 1 2 3 4 5 6 
#
# 1 0.016295 -0.005637 -0.005929 0.000000 0.000000 0.000000
# 2 -0.005637 0.011951 -0.003286 0.000000 0.000000 0.000000
# 3 -0.005929 -0.003286 0.014643 0.000000 0.000000 0.000000
# 4 0.000000 0.000000 0.000000 0.059951 0.000000 0.000000
# 5 0.000000 0.000000 0.000000 0.000000 0.030398 0.000000
# 6 0.000000 0.000000 0.000000 0.000000 0.000000 0.029764
#
#
# Mechanical properties :
#
#
# Convention : Reuss Voigt Hill
#
# Bulk Modulus (GPa) = 75.84728 76.92837 76.38782
# Shear Modulus (GPa) = 25.36762 27.34189 26.35476
#
# Velocity S-wave (km/s) = 3.74702 3.89010 3.81923
# Velocity P-wave (km/s) = 7.79097 7.92178 7.85665
#
# Compressibility (1/GPa) = 0.01318439
#
# Stress axis : x y z
#
# Youngs Moduli (GPa) = 61.36902 83.67318 68.29215
#
# Poissons Ratio (x) = 0.47166 0.40492
# Poissons Ratio (y) = 0.34593 0.22442
# Poissons Ratio (z) = 0.36387 0.27496
#
# Static dielectric constant tensor:
#      x y z
#    x 3.433710 0.000000 0.000000 
#    y 0.000000 3.483960 0.000000 
#    z 0.000000 0.000000 3.117510 
# 
# 
# High freq. dielectric constant tensor:
#      x y z
#    x 1.711180 0.000000 0.000000 
#    y 0.000000 1.703880 0.000000 
#    z 0.000000 0.000000 1.681340 
# 
# From -- ./inp_files/48101.got.cif
#   From: 2010.03.12/outbox.cif.g09.slc.cpg/sg64_25_cif.got.tgz:48101.got - 2010.04.10 20:19:32.
