data_PCOD8262542
_publ_section_title
;
Structure prediction by ZEFSAII (Michael W. Deem and Ramdas Pophale) SiO2 
 PCOD8262542
Probable space group: C M C A
;
_chemical_formula_sum "Si O2"
_cell_formula_units_Z 96
_cell_length_a 8.863535
_cell_length_b 29.335169
_cell_length_c 18.732002
_cell_angle_alpha 90.000000
_cell_angle_beta 90.000000
_cell_angle_gamma 90.000000
_cell_volume 4870.569602
_symmetry_space_group_name_H-M "C M C A"
_symmetry_group_IT_number 64
_symmetry_cell_setting 'orthorhombic'
loop_
_space_group_symop_operation_xyz
x,y,z
-x,1/2-y,1/2+z
x,-y,-z
-x,1/2+y,1/2-z
-x,-y,-z
x,1/2+y,1/2-z
-x,y,z
x,1/2-y,1/2+z
1/2+x,1/2+y,z
1/2-x,-y,1/2+z
1/2+x,1/2-y,-z
1/2-x,y,1/2-z
1/2-x,1/2-y,-z
1/2+x,y,1/2-z
1/2-x,1/2+y,z
1/2+x,-y,1/2+z
loop_
_atom_site_type_symbol
_atom_site_label
_atom_site_fract_x
_atom_site_fract_y
_atom_site_fract_z
Si Si1 0.178477 0.088805 0.072189
Si Si2 0.822211 0.479457 0.826068
Si Si3 0.324160 0.359524 0.323026
Si Si4 0.174678 0.814617 0.555033
Si Si5 0.326191 0.271838 0.402575
Si Si6 0.676873 0.063329 0.928283
O O1 0.250022 0.066616 0.142918
O O2 0.227600 0.141243 0.071443
O O3 0.000000 0.085604 0.076551
O O4 0.235484 0.061248 0.002865
O O5 0.750000 0.491299 0.750000
O O6 0.782817 0.519872 0.880729
O O7 0.000000 0.473161 0.816603
O O8 0.500000 0.367681 0.314417
O O9 0.250000 0.375229 0.250000
O O10 0.285537 0.306791 0.339178
O O11 0.266440 0.391621 0.386876
O O12 0.224356 0.773134 0.606937
O O13 0.209573 0.798762 0.475074
O O14 0.000000 0.826223 0.567022
O O15 0.500000 0.256757 0.400615
O O16 0.500000 0.065771 0.946429
#
# Coordination Sequence:
#
# PCOD8262542 Si02
#       6
#    16  16  16  16  16  16
#     4  12  24  38  61  91 121 154 202 251 294 352
#     4  11  24  42  64  87 120 159 198 244 301 360
#     4  10  20  35  55  83 121 158 194 240 293 355
#     4  10  19  35  59  84 114 148 193 243 295 349
#     4   9  18  34  55  81 116 151 190 239 292 351
#     4  10  21  40  62  87 119 157 197 244 301 353
#
# _framework density 19.710221000000001
#
# number of rings (size 3 to 8) (size 9 to 14) (size 15 to 20)
#    0.000    1.667    1.667    3.500    0.000    5.333 
#    0.000    0.833    0.000    2.000    0.000    0.000 
#    0.000    0.000    0.000    0.000    0.000    0.000 
#
# Total GULP energy -595349.616843 kJ/mol
# GULP energy per Si atom -12403.117018 kJ/mol
# Density = 1.966536 g / cm^3
# Si number density = 19.710221 Si / 1000 Ang^3
#
#
#
# Elastic Constant Matrix: (Units=GPa)
#
#
# Indices 1 2 3 4 5 6 
#
# 1 92.7847 48.2359 34.4866 0.0000 0.0000 0.0000
# 2 48.2359 99.8744 28.7871 0.0000 0.0000 0.0000
# 3 34.4866 28.7871 62.4892 0.0000 0.0000 0.0000
# 4 0.0000 0.0000 0.0000 15.8472 0.0000 0.0000
# 5 0.0000 0.0000 0.0000 0.0000 33.5837 0.0000
# 6 0.0000 0.0000 0.0000 0.0000 0.0000 31.1996
#
#
#
# Elastic Compliance Matrix: (Units=1/GPa)
#
#
# Indices 1 2 3 4 5 6 
#
# 1 0.016215 -0.006056 -0.006159 0.000000 0.000000 0.000000
# 2 -0.006056 0.013808 -0.003018 0.000000 0.000000 0.000000
# 3 -0.006159 -0.003018 0.020792 0.000000 0.000000 0.000000
# 4 0.000000 0.000000 0.000000 0.063103 0.000000 0.000000
# 5 0.000000 0.000000 0.000000 0.000000 0.029776 0.000000
# 6 0.000000 0.000000 0.000000 0.000000 0.000000 0.032052
#
#
# Mechanical properties :
#
#
# Convention : Reuss Voigt Hill
#
# Bulk Modulus (GPa) = 49.14524 53.12972 51.13748
# Shear Modulus (GPa) = 23.47468 25.70203 24.58835
#
# Velocity S-wave (km/s) = 3.45482 3.61500 3.53582
# Velocity P-wave (km/s) = 6.39550 6.66620 6.53225
#
# Compressibility (1/GPa) = 0.02034785
#
# Stress axis : x y z
#
# Youngs Moduli (GPa) = 61.67036 72.42431 48.09472
#
# Poissons Ratio (x) = 0.43861 0.29621
# Poissons Ratio (y) = 0.37349 0.14517
# Poissons Ratio (z) = 0.37983 0.21861
#
# Static dielectric constant tensor:
#      x y z
#    x 3.524470 0.000000 0.000000 
#    y 0.000000 3.758600 0.000000 
#    z 0.000000 0.000000 3.461100 
# 
# 
# High freq. dielectric constant tensor:
#      x y z
#    x 1.765180 0.000000 0.000000 
#    y 0.000000 1.781040 0.000000 
#    z 0.000000 0.000000 1.753040 
# 
# From -- ./inp_files/37034.got.cif
#   From: 2010.03.12/outbox.cif.g09.slc.cpg/sg64_19_cif.got.tgz:37034.got - 2010.04.10 20:19:32.
