data_PCOD8262994
_publ_section_title
;
Structure prediction by ZEFSAII (Michael W. Deem and Ramdas Pophale) SiO2 
 PCOD8262994
Probable space group: C M C A
;
_chemical_formula_sum "Si O2"
_cell_formula_units_Z 104
_cell_length_a 22.990290
_cell_length_b 27.019056
_cell_length_c 8.762796
_cell_angle_alpha 90.000000
_cell_angle_beta 90.000000
_cell_angle_gamma 90.000000
_cell_volume 5443.237981
_symmetry_space_group_name_H-M "C M C A"
_symmetry_group_IT_number 64
_symmetry_cell_setting 'orthorhombic'
loop_
_space_group_symop_operation_xyz
x,y,z
-x,1/2-y,1/2+z
x,-y,-z
-x,1/2+y,1/2-z
-x,-y,-z
x,1/2+y,1/2-z
-x,y,z
x,1/2-y,1/2+z
1/2+x,1/2+y,z
1/2-x,-y,1/2+z
1/2+x,1/2-y,-z
1/2-x,y,1/2-z
1/2-x,1/2-y,-z
1/2+x,y,1/2-z
1/2-x,1/2+y,z
1/2+x,-y,1/2+z
loop_
_atom_site_type_symbol
_atom_site_label
_atom_site_fract_x
_atom_site_fract_y
_atom_site_fract_z
Si Si1 0.750000 0.383131 0.750000
Si Si2 0.135297 0.752901 0.846819
Si Si3 0.063815 0.590976 0.622469
Si Si4 0.208880 0.208692 0.420405
Si Si5 0.846447 0.453253 0.600364
Si Si6 0.934952 0.701611 0.598749
Si Si7 0.566149 0.497403 0.328258
O O1 0.768854 0.347585 0.893333
O O2 0.797726 0.420042 0.680419
O O3 0.190166 0.773980 0.750643
O O4 0.084726 0.737171 0.733847
O O5 0.155168 0.707759 0.959176
O O6 0.108230 0.795721 0.953723
O O7 0.115886 0.581124 0.508170
O O8 0.067497 0.647562 0.670995
O O9 0.070309 0.559447 0.776138
O O10 0.000000 0.579418 0.547603
O O11 0.250000 0.250000 0.500000
O O12 0.821500 0.500000 0.500000
O O13 0.890454 0.470349 0.729670
O O14 0.000000 0.716732 0.548436
O O15 0.588454 0.500000 0.500000
O O16 0.500000 0.517675 0.312848
#
# Coordination Sequence:
#
# PCOD8262994 Si02
#       7
#     8  16  16  16  16  16  16
#     4  12  24  38  64  84 118 158 204 252 308 352
#     4  10  21  35  58  80 116 151 190 250 297 341
#     4   9  18  34  58  83 111 150 194 232 281 353
#     4  11  21  39  59  85 111 147 207 256 288 344
#     4  10  22  39  58  83 118 155 196 238 290 359
#     4  10  20  35  55  85 118 151 189 233 298 365
#     4   9  18  35  61  88 117 148 186 244 290 336
#
# _framework density 19.106273999999999
#
# number of rings (size 3 to 8) (size 9 to 14) (size 15 to 20)
#    0.000    2.000    1.538    1.846    2.154    3.692 
#    0.000    1.538    0.000    7.385    0.000    0.000 
#    0.000    0.000    0.000    0.000    0.000    0.000 
#
# Total GULP energy -644266.069884 kJ/mol
# GULP energy per Si atom -12389.732113 kJ/mol
# Density = 1.906279 g / cm^3
# Si number density = 19.106274 Si / 1000 Ang^3
#
#
#
# Elastic Constant Matrix: (Units=GPa)
#
#
# Indices 1 2 3 4 5 6 
#
# 1 92.3157 52.3106 48.0218 0.0000 0.0000 0.0000
# 2 52.3106 101.5021 43.0098 0.0000 0.0000 0.0000
# 3 48.0218 43.0098 118.0574 0.0000 0.0000 0.0000
# 4 0.0000 0.0000 0.0000 24.9411 0.0000 0.0000
# 5 0.0000 0.0000 0.0000 0.0000 34.2134 0.0000
# 6 0.0000 0.0000 0.0000 0.0000 0.0000 27.0252
#
#
#
# Elastic Compliance Matrix: (Units=1/GPa)
#
#
# Indices 1 2 3 4 5 6 
#
# 1 0.017047 -0.006915 -0.004415 0.000000 0.000000 0.000000
# 2 -0.006915 0.014455 -0.002454 0.000000 0.000000 0.000000
# 3 -0.004415 -0.002454 0.011160 0.000000 0.000000 0.000000
# 4 0.000000 0.000000 0.000000 0.040095 0.000000 0.000000
# 5 0.000000 0.000000 0.000000 0.000000 0.029228 0.000000
# 6 0.000000 0.000000 0.000000 0.000000 0.000000 0.037002
#
#
# Mechanical properties :
#
#
# Convention : Reuss Voigt Hill
#
# Bulk Modulus (GPa) = 66.24288 66.50662 66.37475
# Shear Modulus (GPa) = 27.53499 28.47147 28.00323
#
# Velocity S-wave (km/s) = 3.80037 3.86445 3.83254
# Velocity P-wave (km/s) = 7.34868 7.40245 7.37561
#
# Compressibility (1/GPa) = 0.01509596
#
# Stress axis : x y z
#
# Youngs Moduli (GPa) = 58.66009 69.17889 89.60368
#
# Poissons Ratio (x) = 0.47835 0.39561
# Poissons Ratio (y) = 0.40562 0.21985
# Poissons Ratio (z) = 0.25899 0.16973
#
# Static dielectric constant tensor:
#      x y z
#    x 3.666370 0.000000 0.000000 
#    y 0.000000 3.431960 0.000000 
#    z 0.000000 0.000000 3.646770 
# 
# 
# High freq. dielectric constant tensor:
#      x y z
#    x 1.751080 0.000000 0.000000 
#    y 0.000000 1.729770 0.000000 
#    z 0.000000 0.000000 1.747260 
# 
# From -- ./inp_files/9682.got.cif
#   From: 2010.03.12/outbox.cif.g09.slc.cpg/sg64_5_cif.got.tgz:9682.got - 2010.04.10 20:19:32.
