data_PCOD8262790
_publ_section_title
;
Structure prediction by ZEFSAII (Michael W. Deem and Ramdas Pophale) SiO2 
 PCOD8262790
Probable space group: C M C A
;
_chemical_formula_sum "Si O2"
_cell_formula_units_Z 96
_cell_length_a 13.696437
_cell_length_b 15.292128
_cell_length_c 22.514168
_cell_angle_alpha 90.000000
_cell_angle_beta 90.000000
_cell_angle_gamma 90.000000
_cell_volume 4715.539979
_symmetry_space_group_name_H-M "C M C A"
_symmetry_group_IT_number 64
_symmetry_cell_setting 'orthorhombic'
loop_
_space_group_symop_operation_xyz
x,y,z
-x,1/2-y,1/2+z
x,-y,-z
-x,1/2+y,1/2-z
-x,-y,-z
x,1/2+y,1/2-z
-x,y,z
x,1/2-y,1/2+z
1/2+x,1/2+y,z
1/2-x,-y,1/2+z
1/2+x,1/2-y,-z
1/2-x,y,1/2-z
1/2-x,1/2-y,-z
1/2+x,y,1/2-z
1/2-x,1/2+y,z
1/2+x,-y,1/2+z
loop_
_atom_site_type_symbol
_atom_site_label
_atom_site_fract_x
_atom_site_fract_y
_atom_site_fract_z
Si Si1 0.885174 0.695881 0.386579
Si Si2 0.107790 0.101409 0.992299
Si Si3 0.352831 0.194153 0.723846
Si Si4 0.610092 0.536438 0.691430
Si Si5 0.249967 0.861738 0.386818
Si Si6 0.605984 0.875306 0.735766
O O1 0.863251 0.638757 0.443870
O O2 0.827390 0.785048 0.394404
O O3 0.843792 0.645374 0.328002
O O4 0.000000 0.717643 0.378155
O O5 0.197375 0.120871 0.948778
O O6 0.000000 0.138021 0.972045
O O7 0.097333 0.000000 0.000000
O O8 0.250000 0.221410 0.750000
O O9 0.399671 0.118544 0.763923
O O10 0.340109 0.160434 0.656899
O O11 0.410155 0.285743 0.726480
O O12 0.500000 0.517096 0.666971
O O13 0.686329 0.556420 0.638109
O O14 0.657073 0.451984 0.725585
O O15 0.500000 0.915214 0.721388
#
# Coordination Sequence:
#
# PCOD8262790 Si02
#       6
#    16  16  16  16  16  16
#     4  10  20  39  63  85 119 160 201 250 307 367
#     4  10  24  42  60  87 117 158 212 261 309 362
#     4  10  20  33  52  87 121 154 192 242 296 359
#     4  10  21  36  58  91 126 159 198 243 305 367
#     4  11  22  38  61  90 119 161 204 252 303 365
#     4  10  20  35  58  87 122 160 193 242 306 370
#
# _framework density 20.358218999999998
#
# number of rings (size 3 to 8) (size 9 to 14) (size 15 to 20)
#    0.000    1.833    3.333    1.500    2.333    4.667 
#    0.000    0.000    0.000    4.000    0.000    0.000 
#    0.000    0.000    0.000    0.000    0.000    0.000 
#
# Total GULP energy -594722.051069 kJ/mol
# GULP energy per Si atom -12390.042731 kJ/mol
# Density = 2.031188 g / cm^3
# Si number density = 20.358219 Si / 1000 Ang^3
#
#
#
# Elastic Constant Matrix: (Units=GPa)
#
#
# Indices 1 2 3 4 5 6 
#
# 1 85.7297 22.3137 46.9835 0.0000 0.0000 0.0000
# 2 22.3137 104.6801 33.5631 0.0000 0.0000 0.0000
# 3 46.9835 33.5631 103.3263 0.0000 0.0000 0.0000
# 4 0.0000 0.0000 0.0000 33.5952 0.0000 0.0000
# 5 0.0000 0.0000 0.0000 0.0000 34.1593 0.0000
# 6 0.0000 0.0000 0.0000 0.0000 0.0000 28.5589
#
#
#
# Elastic Compliance Matrix: (Units=1/GPa)
#
#
# Indices 1 2 3 4 5 6 
#
# 1 0.015665 -0.001178 -0.006740 0.000000 0.000000 0.000000
# 2 -0.001178 0.010752 -0.002957 0.000000 0.000000 0.000000
# 3 -0.006740 -0.002957 0.013704 0.000000 0.000000 0.000000
# 4 0.000000 0.000000 0.000000 0.029766 0.000000 0.000000
# 5 0.000000 0.000000 0.000000 0.000000 0.029275 0.000000
# 6 0.000000 0.000000 0.000000 0.000000 0.000000 0.035015
#
#
# Mechanical properties :
#
#
# Convention : Reuss Voigt Hill
#
# Bulk Modulus (GPa) = 54.43656 55.49521 54.96588
# Shear Modulus (GPa) = 30.85445 31.98774 31.42109
#
# Velocity S-wave (km/s) = 3.89726 3.96819 3.93289
# Velocity P-wave (km/s) = 6.85923 6.95082 6.90518
#
# Compressibility (1/GPa) = 0.01837001
#
# Stress axis : x y z
#
# Youngs Moduli (GPa) = 63.83546 93.00531 72.97397
#
# Poissons Ratio (x) = 0.10957 0.49188
# Poissons Ratio (y) = 0.07520 0.21578
# Poissons Ratio (z) = 0.43028 0.27501
#
# Static dielectric constant tensor:
#      x y z
#    x 4.075830 0.000000 0.000000 
#    y 0.000000 3.725600 0.000000 
#    z 0.000000 0.000000 2.772420 
# 
# 
# High freq. dielectric constant tensor:
#      x y z
#    x 1.802120 0.000000 0.000000 
#    y 0.000000 1.796840 0.000000 
#    z 0.000000 0.000000 1.775030 
# 
# From -- ./inp_files/39171.got.cif
#   From: 2010.03.12/outbox.cif.g09.slc.cpg/sg64_20_cif.got.tgz:39171.got - 2010.04.10 20:19:32.
