data_PCOD8262267
_publ_section_title
;
Structure prediction by ZEFSAII (Michael W. Deem and Ramdas Pophale) SiO2 
 PCOD8262267
Probable space group: C M C A
;
_chemical_formula_sum "Si O2"
_cell_formula_units_Z 112
_cell_length_a 19.433172
_cell_length_b 12.104704
_cell_length_c 23.940410
_cell_angle_alpha 90.000000
_cell_angle_beta 90.000000
_cell_angle_gamma 90.000000
_cell_volume 5631.569554
_symmetry_space_group_name_H-M "C M C A"
_symmetry_group_IT_number 64
_symmetry_cell_setting 'orthorhombic'
loop_
_space_group_symop_operation_xyz
x,y,z
-x,1/2-y,1/2+z
x,-y,-z
-x,1/2+y,1/2-z
-x,-y,-z
x,1/2+y,1/2-z
-x,y,z
x,1/2-y,1/2+z
1/2+x,1/2+y,z
1/2-x,-y,1/2+z
1/2+x,1/2-y,-z
1/2-x,y,1/2-z
1/2-x,1/2-y,-z
1/2+x,y,1/2-z
1/2-x,1/2+y,z
1/2+x,-y,1/2+z
loop_
_atom_site_type_symbol
_atom_site_label
_atom_site_fract_x
_atom_site_fract_y
_atom_site_fract_z
Si Si1 0.581589 0.002601 0.830677
Si Si2 0.802484 0.561004 0.635979
Si Si3 0.154637 0.716847 0.545659
Si Si4 0.290520 0.148291 0.435349
Si Si5 0.171896 0.296414 0.163565
Si Si6 0.579334 0.426298 0.549324
Si Si7 0.327000 0.584347 0.233703
O O1 0.500000 0.992113 0.822098
O O2 0.609214 0.957549 0.889970
O O3 0.619367 0.929380 0.783749
O O4 0.603704 0.130645 0.827412
O O5 0.851647 0.644833 0.602043
O O6 0.775527 0.470358 0.591724
O O7 0.738792 0.625174 0.663827
O O8 0.847411 0.500052 0.683594
O O9 0.217015 0.802777 0.549606
O O10 0.163905 0.638235 0.491674
O O11 0.088339 0.795181 0.538604
O O12 0.332264 0.229226 0.394093
O O13 0.173467 0.211752 0.215140
O O14 0.614545 0.500000 0.500000
O O15 0.500000 0.456573 0.550458
O O16 0.250000 0.550806 0.250000
#
# Coordination Sequence:
#
# PCOD8262267 Si02
#       7
#    16  16  16  16  16  16  16
#     4  11  24  41  62  88 121 161 209 261 308 372
#     4  10  20  36  56  87 119 155 199 250 305 367
#     4  10  19  32  59  86 120 151 194 246 309 361
#     4   9  19  33  54  90 119 152 187 252 307 363
#     4  10  21  36  59  84 118 159 203 247 313 368
#     4  10  22  40  62  88 121 161 203 250 307 379
#     4  11  24  38  60  86 121 160 210 258 308 371
#
# _framework density 19.887884
#
# number of rings (size 3 to 8) (size 9 to 14) (size 15 to 20)
#    0.000    1.857    1.429    2.143    6.000    2.857 
#    0.000    2.143    0.000    3.429    0.000    0.000 
#    0.000    0.000    0.000    0.000    0.000    0.000 
#
# Total GULP energy -694323.071834 kJ/mol
# GULP energy per Si atom -12398.626283 kJ/mol
# Density = 1.984262 g / cm^3
# Si number density = 19.887884 Si / 1000 Ang^3
#
#
#
# Elastic Constant Matrix: (Units=GPa)
#
#
# Indices 1 2 3 4 5 6 
#
# 1 53.0504 27.9338 41.7452 0.0000 0.0000 0.0000
# 2 27.9338 119.9834 60.7227 0.0000 0.0000 0.0000
# 3 41.7452 60.7227 145.5432 0.0000 0.0000 0.0000
# 4 0.0000 0.0000 0.0000 41.7239 0.0000 0.0000
# 5 0.0000 0.0000 0.0000 0.0000 25.5948 0.0000
# 6 0.0000 0.0000 0.0000 0.0000 0.0000 25.5401
#
#
#
# Elastic Compliance Matrix: (Units=1/GPa)
#
#
# Indices 1 2 3 4 5 6 
#
# 1 0.025057 -0.002784 -0.006025 0.000000 0.000000 0.000000
# 2 -0.002784 0.010875 -0.003738 0.000000 0.000000 0.000000
# 3 -0.006025 -0.003738 0.010159 0.000000 0.000000 0.000000
# 4 0.000000 0.000000 0.000000 0.023967 0.000000 0.000000
# 5 0.000000 0.000000 0.000000 0.000000 0.039070 0.000000
# 6 0.000000 0.000000 0.000000 0.000000 0.000000 0.039154
#
#
# Mechanical properties :
#
#
# Convention : Reuss Voigt Hill
#
# Bulk Modulus (GPa) = 47.63135 64.37559 56.00347
# Shear Modulus (GPa) = 27.71968 31.11678 29.41823
#
# Velocity S-wave (km/s) = 3.73741 3.95981 3.85021
# Velocity P-wave (km/s) = 6.52888 7.30385 6.92721
#
# Compressibility (1/GPa) = 0.02099458
#
# Stress axis : x y z
#
# Youngs Moduli (GPa) = 39.90825 91.95633 98.43697
#
# Poissons Ratio (x) = 0.25604 0.59312
# Poissons Ratio (y) = 0.11112 0.36800
# Poissons Ratio (z) = 0.24046 0.34378
#
# Static dielectric constant tensor:
#      x y z
#    x 3.157680 0.000000 0.000000 
#    y 0.000000 3.694000 0.000000 
#    z 0.000000 0.000000 3.977500 
# 
# 
# High freq. dielectric constant tensor:
#      x y z
#    x 1.726460 0.000000 0.000000 
#    y 0.000000 1.785510 0.000000 
#    z 0.000000 0.000000 1.796090 
# 
# From -- ./inp_files/46343.got.cif
#   From: 2010.03.12/outbox.cif.g09.slc.cpg/sg64_24_cif.got.tgz:46343.got - 2010.04.10 20:19:32.
