data_PCOD8262293
_publ_section_title
;
Structure prediction by ZEFSAII (Michael W. Deem and Ramdas Pophale) SiO2 
 PCOD8262293
Probable space group: C M C A
;
_chemical_formula_sum "Si O2"
_cell_formula_units_Z 104
_cell_length_a 9.571353
_cell_length_b 22.002914
_cell_length_c 25.417500
_cell_angle_alpha 90.000000
_cell_angle_beta 90.000000
_cell_angle_gamma 90.000000
_cell_volume 5352.865945
_symmetry_space_group_name_H-M "C M C A"
_symmetry_group_IT_number 64
_symmetry_cell_setting 'orthorhombic'
loop_
_space_group_symop_operation_xyz
x,y,z
-x,1/2-y,1/2+z
x,-y,-z
-x,1/2+y,1/2-z
-x,-y,-z
x,1/2+y,1/2-z
-x,y,z
x,1/2-y,1/2+z
1/2+x,1/2+y,z
1/2-x,-y,1/2+z
1/2+x,1/2-y,-z
1/2-x,y,1/2-z
1/2-x,1/2-y,-z
1/2+x,y,1/2-z
1/2-x,1/2+y,z
1/2+x,-y,1/2+z
loop_
_atom_site_type_symbol
_atom_site_label
_atom_site_fract_x
_atom_site_fract_y
_atom_site_fract_z
Si Si1 0.166242 0.421551 0.697152
Si Si2 0.341084 0.076697 0.097871
Si Si3 0.650114 0.885708 0.445037
Si Si4 0.159455 0.279386 0.702219
Si Si5 0.844803 0.179137 0.051081
Si Si6 0.232524 0.500000 0.000000
Si Si7 0.658356 0.798358 0.103986
O O1 0.250000 0.442640 0.750000
O O2 0.245474 0.450665 0.645851
O O3 0.185195 0.349751 0.689701
O O4 0.000000 0.439723 0.699645
O O5 0.500000 0.087750 0.117836
O O6 0.273454 0.140315 0.080421
O O7 0.353715 0.032287 0.046849
O O8 0.500000 0.887453 0.416928
O O9 0.653039 0.835047 0.489970
O O10 0.673360 0.951239 0.470161
O O11 0.761211 0.862363 0.402370
O O12 0.250000 0.255905 0.750000
O O13 0.211250 0.238632 0.654213
O O14 0.000000 0.267250 0.716449
O O15 0.817958 0.251330 0.055899
O O16 0.000000 0.164479 0.076152
O O17 0.500000 0.819312 0.109410
#
# Coordination Sequence:
#
# PCOD8262293 Si02
#       7
#    16  16  16  16  16   8  16
#     4  10  19  34  55  82 116 149 185 228 283 343
#     4  11  21  34  56  83 111 147 193 240 286 337
#     4  10  21  35  55  78 101 139 187 228 271 328
#     4   9  18  32  51  77 111 148 179 214 266 327
#     4   9  18  34  51  74 111 147 175 215 274 333
#     4  10  24  42  56  76 112 152 194 242 294 348
#     4  10  19  33  52  77 112 146 173 216 277 328
#
# _framework density 19.428844000000002
#
# number of rings (size 3 to 8) (size 9 to 14) (size 15 to 20)
#    0.000    2.154    1.538    1.846    0.000    6.769 
#    0.000    0.000    0.000    0.923    0.000    2.154 
#    0.000    0.000    0.000    0.000    0.000    0.000 
#
# Total GULP energy -644279.538242 kJ/mol
# GULP energy per Si atom -12389.991120 kJ/mol
# Density = 1.938462 g / cm^3
# Si number density = 19.428844 Si / 1000 Ang^3
#
#
#
# Elastic Constant Matrix: (Units=GPa)
#
#
# Indices 1 2 3 4 5 6 
#
# 1 117.4055 25.1241 35.5574 0.0000 0.0000 0.0000
# 2 25.1241 61.6437 16.5803 0.0000 0.0000 0.0000
# 3 35.5574 16.5803 62.2254 0.0000 0.0000 0.0000
# 4 0.0000 0.0000 0.0000 29.3226 0.0000 0.0000
# 5 0.0000 0.0000 0.0000 0.0000 31.4344 0.0000
# 6 0.0000 0.0000 0.0000 0.0000 0.0000 8.7028
#
#
#
# Elastic Compliance Matrix: (Units=1/GPa)
#
#
# Indices 1 2 3 4 5 6 
#
# 1 0.010775 -0.002947 -0.005372 0.000000 0.000000 0.000000
# 2 -0.002947 0.018280 -0.003187 0.000000 0.000000 0.000000
# 3 -0.005372 -0.003187 0.019990 0.000000 0.000000 0.000000
# 4 0.000000 0.000000 0.000000 0.034103 0.000000 0.000000
# 5 0.000000 0.000000 0.000000 0.000000 0.031812 0.000000
# 6 0.000000 0.000000 0.000000 0.000000 0.000000 0.114906
#
#
# Mechanical properties :
#
#
# Convention : Reuss Voigt Hill
#
# Bulk Modulus (GPa) = 38.41212 43.97758 41.19485
# Shear Modulus (GPa) = 19.11636 24.82615 21.97125
#
# Velocity S-wave (km/s) = 3.14015 3.57851 3.36647
# Velocity P-wave (km/s) = 5.74116 6.30545 6.02991
#
# Compressibility (1/GPa) = 0.02603345
#
# Stress axis : x y z
#
# Youngs Moduli (GPa) = 92.80720 54.70321 50.02615
#
# Poissons Ratio (x) = 0.16119 0.26874
# Poissons Ratio (y) = 0.27347 0.15944
# Poissons Ratio (z) = 0.49856 0.17435
#
# Static dielectric constant tensor:
#      x y z
#    x 3.670230 0.000000 0.000000 
#    y 0.000000 3.225940 0.000000 
#    z 0.000000 0.000000 3.598530 
# 
# 
# High freq. dielectric constant tensor:
#      x y z
#    x 1.762970 0.000000 0.000000 
#    y 0.000000 1.719830 0.000000 
#    z 0.000000 0.000000 1.749050 
# 
# From -- ./inp_files/48460.got.cif
#   From: 2010.03.12/outbox.cif.g09.slc.cpg/sg64_25_cif.got.tgz:48460.got - 2010.04.10 20:19:32.
