data_PCOD8262168
_publ_section_title
;
Structure prediction by ZEFSAII (Michael W. Deem and Ramdas Pophale) SiO2 
 PCOD8262168
Probable space group: C M C A
;
_chemical_formula_sum "Si O2"
_cell_formula_units_Z 96
_cell_length_a 9.047138
_cell_length_b 31.423225
_cell_length_c 19.132764
_cell_angle_alpha 90.000000
_cell_angle_beta 90.000000
_cell_angle_gamma 90.000000
_cell_volume 5439.258318
_symmetry_space_group_name_H-M "C M C A"
_symmetry_group_IT_number 64
_symmetry_cell_setting 'orthorhombic'
loop_
_space_group_symop_operation_xyz
x,y,z
-x,1/2-y,1/2+z
x,-y,-z
-x,1/2+y,1/2-z
-x,-y,-z
x,1/2+y,1/2-z
-x,y,z
x,1/2-y,1/2+z
1/2+x,1/2+y,z
1/2-x,-y,1/2+z
1/2+x,1/2-y,-z
1/2-x,y,1/2-z
1/2-x,1/2-y,-z
1/2+x,y,1/2-z
1/2-x,1/2+y,z
1/2+x,-y,1/2+z
loop_
_atom_site_type_symbol
_atom_site_label
_atom_site_fract_x
_atom_site_fract_y
_atom_site_fract_z
Si Si1 0.166788 0.499560 0.916931
Si Si2 0.326974 0.085007 0.417186
Si Si3 0.173642 0.339847 0.324570
Si Si4 0.172354 0.416453 0.419989
Si Si5 0.825532 0.155570 0.325482
Si Si6 0.830367 0.252052 0.821968
O O1 0.260705 0.459504 0.889325
O O2 0.240822 0.542917 0.889397
O O3 0.000000 0.496338 0.888008
O O4 0.169219 0.500000 0.000000
O O5 0.500000 0.085802 0.400313
O O6 0.293667 0.091039 0.498836
O O7 0.245842 0.122970 0.378559
O O8 0.250000 0.346162 0.250000
O O9 0.231009 0.375186 0.378654
O O10 0.211047 0.293019 0.359255
O O11 0.000000 0.345115 0.312605
O O12 0.000000 0.425039 0.408024
O O13 0.750000 0.150966 0.250000
O O14 0.794705 0.202862 0.359737
O O15 0.000000 0.146675 0.317745
O O16 0.750000 0.252703 0.750000
O O17 0.000000 0.251133 0.802268
#
# Coordination Sequence:
#
# PCOD8262168 Si02
#       6
#    16  16  16  16  16  16
#     4   9  17  30  49  71  94 122 159 200 239 283
#     4  10  19  32  50  71  96 127 161 196 237 286
#     4   9  17  31  50  72  97 126 160 196 235 279
#     4   9  18  32  50  71  97 128 160 195 238 288
#     4  10  19  32  50  72  97 125 159 198 239 282
#     4   8  15  28  47  68  92 124 159 193 230 277
#
# _framework density 17.649464999999999
#
# number of rings (size 3 to 8) (size 9 to 14) (size 15 to 20)
#    0.000    2.833    0.000    1.500    0.000    4.000 
#    0.000    1.667    0.000    2.000    0.000    0.000 
#    0.000    0.000    0.000    0.000    0.000    0.000 
#
# Total GULP energy -594701.347731 kJ/mol
# GULP energy per Si atom -12389.611411 kJ/mol
# Density = 1.760929 g / cm^3
# Si number density = 17.649465 Si / 1000 Ang^3
#
#
#
# Elastic Constant Matrix: (Units=GPa)
#
#
# Indices 1 2 3 4 5 6 
#
# 1 85.7035 78.0502 34.5111 0.0000 0.0000 0.0000
# 2 78.0502 208.0849 60.4599 0.0000 0.0000 0.0000
# 3 34.5111 60.4599 46.1177 0.0000 0.0000 0.0000
# 4 0.0000 0.0000 0.0000 94.6194 0.0000 0.0000
# 5 0.0000 0.0000 0.0000 0.0000 21.5290 0.0000
# 6 0.0000 0.0000 0.0000 0.0000 0.0000 30.9765
#
#
#
# Elastic Compliance Matrix: (Units=1/GPa)
#
#
# Indices 1 2 3 4 5 6 
#
# 1 0.019409 -0.004943 -0.008044 0.000000 0.000000 0.000000
# 2 -0.004943 0.009021 -0.008128 0.000000 0.000000 0.000000
# 3 -0.008044 -0.008128 0.038359 0.000000 0.000000 0.000000
# 4 0.000000 0.000000 0.000000 0.010569 0.000000 0.000000
# 5 0.000000 0.000000 0.000000 0.000000 0.046449 0.000000
# 6 0.000000 0.000000 0.000000 0.000000 0.000000 0.032283
#
#
# Mechanical properties :
#
#
# Convention : Reuss Voigt Hill
#
# Bulk Modulus (GPa) = 40.71794 76.21652 58.46723
# Shear Modulus (GPa) = 24.21235 40.55064 32.38149
#
# Velocity S-wave (km/s) = 3.70786 4.79848 4.28799
# Velocity P-wave (km/s) = 6.43828 8.60104 7.59701
#
# Compressibility (1/GPa) = 0.02455920
#
# Stress axis : x y z
#
# Youngs Moduli (GPa) = 51.52326 110.84820 26.06928
#
# Poissons Ratio (x) = 0.54789 0.20971
# Poissons Ratio (y) = 0.25466 0.21190
# Poissons Ratio (z) = 0.41447 0.90099
#
# Static dielectric constant tensor:
#      x y z
#    x 3.348820 0.000000 0.000000 
#    y 0.000000 4.062090 0.000000 
#    z 0.000000 0.000000 2.848100 
# 
# 
# High freq. dielectric constant tensor:
#      x y z
#    x 1.691480 0.000000 0.000000 
#    y 0.000000 1.709930 0.000000 
#    z 0.000000 0.000000 1.630540 
# 
# From -- ./inp_files/37043.got.cif
#   From: 2010.03.12/outbox.cif.g09.slc.cpg/sg64_19_cif.got.tgz:37043.got - 2010.04.10 20:19:32.
