data_PCOD8262515
_publ_section_title
;
Structure prediction by ZEFSAII (Michael W. Deem and Ramdas Pophale) SiO2 
 PCOD8262515
Probable space group: C M C A
;
_chemical_formula_sum "Si O2"
_cell_formula_units_Z 96
_cell_length_a 9.345372
_cell_length_b 28.499336
_cell_length_c 20.316160
_cell_angle_alpha 90.000000
_cell_angle_beta 90.000000
_cell_angle_gamma 90.000000
_cell_volume 5410.943007
_symmetry_space_group_name_H-M "C M C A"
_symmetry_group_IT_number 64
_symmetry_cell_setting 'orthorhombic'
loop_
_space_group_symop_operation_xyz
x,y,z
-x,1/2-y,1/2+z
x,-y,-z
-x,1/2+y,1/2-z
-x,-y,-z
x,1/2+y,1/2-z
-x,y,z
x,1/2-y,1/2+z
1/2+x,1/2+y,z
1/2-x,-y,1/2+z
1/2+x,1/2-y,-z
1/2-x,y,1/2-z
1/2-x,1/2-y,-z
1/2+x,y,1/2-z
1/2-x,1/2+y,z
1/2+x,-y,1/2+z
loop_
_atom_site_type_symbol
_atom_site_label
_atom_site_fract_x
_atom_site_fract_y
_atom_site_fract_z
Si Si1 0.666597 0.876015 0.878139
Si Si2 0.166259 0.465681 0.059408
Si Si3 0.664590 0.275512 0.056721
Si Si4 0.166110 0.026941 0.314708
Si Si5 0.166177 0.121375 0.986662
Si Si6 0.165829 0.777422 0.685102
O O1 0.500000 0.879503 0.898661
O O2 0.714688 0.921301 0.836933
O O3 0.698974 0.831058 0.833701
O O4 0.759409 0.872851 0.943371
O O5 0.202992 0.490531 0.127822
O O6 0.261358 0.419305 0.055931
O O7 0.000000 0.451830 0.054165
O O8 0.208757 0.500000 0.000000
O O9 0.500000 0.261135 0.046738
O O10 0.686866 0.331160 0.054729
O O11 0.719181 0.256801 0.127020
O O12 0.750000 0.250000 0.000000
O O13 0.250000 0.011224 0.250000
O O14 0.000000 0.026436 0.297370
O O15 0.000000 0.109731 0.997947
O O16 0.250000 0.763047 0.750000
O O17 0.000000 0.769947 0.699952
#
# Coordination Sequence:
#
# PCOD8262515 Si02
#       6
#    16  16  16  16  16  16
#     4  10  19  35  57  81 113 150 181 221 279 339
#     4  10  20  38  60  79 108 149 190 225 270 336
#     4  10  21  37  57  82 112 147 186 230 276 328
#     4  10  21  36  56  82 111 146 184 226 275 331
#     4  11  22  34  55  88 116 140 183 238 280 319
#     4  10  21  36  56  81 113 149 185 228 278 332
#
# _framework density 17.741824999999999
#
# number of rings (size 3 to 8) (size 9 to 14) (size 15 to 20)
#    0.000    1.833    3.333    1.000    0.000    3.667 
#    0.000    0.833    0.000    4.000    0.000    0.000 
#    0.000    0.000    0.000    0.000    0.000    0.000 
#
# Total GULP energy -595407.636421 kJ/mol
# GULP energy per Si atom -12404.325759 kJ/mol
# Density = 1.770144 g / cm^3
# Si number density = 17.741825 Si / 1000 Ang^3
#
#
#
# Elastic Constant Matrix: (Units=GPa)
#
#
# Indices 1 2 3 4 5 6 
#
# 1 71.6567 51.0107 63.9537 0.0000 0.0000 0.0000
# 2 51.0107 97.6313 59.6774 0.0000 0.0000 0.0000
# 3 63.9537 59.6774 150.6235 0.0000 0.0000 0.0000
# 4 0.0000 0.0000 0.0000 25.0483 0.0000 0.0000
# 5 0.0000 0.0000 0.0000 0.0000 36.4459 0.0000
# 6 0.0000 0.0000 0.0000 0.0000 0.0000 28.4942
#
#
#
# Elastic Compliance Matrix: (Units=1/GPa)
#
#
# Indices 1 2 3 4 5 6 
#
# 1 0.028094 -0.009748 -0.008066 0.000000 0.000000 0.000000
# 2 -0.009748 0.016898 -0.002556 0.000000 0.000000 0.000000
# 3 -0.008066 -0.002556 0.011077 0.000000 0.000000 0.000000
# 4 0.000000 0.000000 0.000000 0.039923 0.000000 0.000000
# 5 0.000000 0.000000 0.000000 0.000000 0.027438 0.000000
# 6 0.000000 0.000000 0.000000 0.000000 0.000000 0.035095
#
#
# Mechanical properties :
#
#
# Convention : Reuss Voigt Hill
#
# Bulk Modulus (GPa) = 65.24049 74.35502 69.79776
# Shear Modulus (GPa) = 24.46479 27.68232 26.07356
#
# Velocity S-wave (km/s) = 3.71743 3.95433 3.83771
# Velocity P-wave (km/s) = 7.43489 7.92776 7.68528
#
# Compressibility (1/GPa) = 0.01532790
#
# Stress axis : x y z
#
# Youngs Moduli (GPa) = 35.59470 59.17753 90.27928
#
# Poissons Ratio (x) = 0.57687 0.72822
# Poissons Ratio (y) = 0.34698 0.23077
# Poissons Ratio (z) = 0.28712 0.15127
#
# Static dielectric constant tensor:
#      x y z
#    x 3.274020 0.000000 0.000000 
#    y 0.000000 3.480760 0.000000 
#    z 0.000000 0.000000 3.204550 
# 
# 
# High freq. dielectric constant tensor:
#      x y z
#    x 1.685040 0.000000 0.000000 
#    y 0.000000 1.690300 0.000000 
#    z 0.000000 0.000000 1.684860 
# 
# From -- ./inp_files/37104.got.cif
#   From: 2010.03.12/outbox.cif.g09.slc.cpg/sg64_19_cif.got.tgz:37104.got - 2010.04.10 20:19:32.
