data_PCOD8262027
_publ_section_title
;
Structure prediction by ZEFSAII (Michael W. Deem and Ramdas Pophale) SiO2 
 PCOD8262027
Probable space group: C M C A
;
_chemical_formula_sum "Si O2"
_cell_formula_units_Z 80
_cell_length_a 9.247685
_cell_length_b 19.137434
_cell_length_c 25.136934
_cell_angle_alpha 90.000000
_cell_angle_beta 90.000000
_cell_angle_gamma 90.000000
_cell_volume 4448.658197
_symmetry_space_group_name_H-M "C M C A"
_symmetry_group_IT_number 64
_symmetry_cell_setting 'orthorhombic'
loop_
_space_group_symop_operation_xyz
x,y,z
-x,1/2-y,1/2+z
x,-y,-z
-x,1/2+y,1/2-z
-x,-y,-z
x,1/2+y,1/2-z
-x,y,z
x,1/2-y,1/2+z
1/2+x,1/2+y,z
1/2-x,-y,1/2+z
1/2+x,1/2-y,-z
1/2-x,y,1/2-z
1/2-x,1/2-y,-z
1/2+x,y,1/2-z
1/2-x,1/2+y,z
1/2+x,-y,1/2+z
loop_
_atom_site_type_symbol
_atom_site_label
_atom_site_fract_x
_atom_site_fract_y
_atom_site_fract_z
Si Si1 0.166028 0.520784 0.399776
Si Si2 0.834570 0.223041 0.373199
Si Si3 0.830357 0.620196 0.304031
Si Si4 0.833533 0.865332 0.076566
Si Si5 0.832834 0.878075 0.530148
O O1 0.206551 0.557073 0.344162
O O2 0.198635 0.438649 0.394365
O O3 0.260195 0.551185 0.448017
O O4 0.000000 0.535621 0.414405
O O5 0.730330 0.192835 0.327673
O O6 0.797406 0.304612 0.381042
O O7 0.805792 0.184729 0.428973
O O8 0.000000 0.211982 0.354794
O O9 0.750000 0.600967 0.250000
O O10 0.000000 0.628564 0.293656
O O11 0.000000 0.859824 0.058249
O O12 0.735807 0.854977 0.025116
O O13 0.000000 0.894062 0.521147
#
# Coordination Sequence:
#
# PCOD8262027 Si02
#       5
#    16  16  16  16  16
#     4   9  19  34  51  72  98 131 168 201 240 292
#     4   9  19  34  51  73 101 132 166 203 242 288
#     4  10  20  36  57  75  93 122 161 204 248 296
#     4  10  19  32  50  72 102 136 166 200 242 288
#     4  10  19  30  47  73 104 137 170 202 238 283
#
# _framework density 17.982949999999999
#
# number of rings (size 3 to 8) (size 9 to 14) (size 15 to 20)
#    0.000    2.400    0.000    2.400    0.000    5.600 
#    0.000    1.000    0.000    2.400    0.000    0.000 
#    0.000    0.000    0.000    0.000    0.000    0.000 
#
# Total GULP energy -496138.929501 kJ/mol
# GULP energy per Si atom -12403.473238 kJ/mol
# Density = 1.794202 g / cm^3
# Si number density = 17.982950 Si / 1000 Ang^3
#
#
#
# Elastic Constant Matrix: (Units=GPa)
#
#
# Indices 1 2 3 4 5 6 
#
# 1 84.8927 34.2291 42.7614 0.0000 0.0000 0.0000
# 2 34.2291 107.3842 19.9944 0.0000 0.0000 0.0000
# 3 42.7614 19.9944 72.3522 0.0000 0.0000 0.0000
# 4 0.0000 0.0000 0.0000 13.3655 0.0000 0.0000
# 5 0.0000 0.0000 0.0000 0.0000 35.2534 0.0000
# 6 0.0000 0.0000 0.0000 0.0000 0.0000 23.4550
#
#
#
# Elastic Compliance Matrix: (Units=1/GPa)
#
#
# Indices 1 2 3 4 5 6 
#
# 1 0.018285 -0.004023 -0.009695 0.000000 0.000000 0.000000
# 2 -0.004023 0.010703 -0.000580 0.000000 0.000000 0.000000
# 3 -0.009695 -0.000580 0.019711 0.000000 0.000000 0.000000
# 4 0.000000 0.000000 0.000000 0.074819 0.000000 0.000000
# 5 0.000000 0.000000 0.000000 0.000000 0.028366 0.000000
# 6 0.000000 0.000000 0.000000 0.000000 0.000000 0.042635
#
#
# Mechanical properties :
#
#
# Convention : Reuss Voigt Hill
#
# Bulk Modulus (GPa) = 49.74369 50.95543 50.34956
# Shear Modulus (GPa) = 21.75639 25.59106 23.67373
#
# Velocity S-wave (km/s) = 3.48204 3.77646 3.63223
# Velocity P-wave (km/s) = 6.62479 6.88567 6.75649
#
# Compressibility (1/GPa) = 0.02010305
#
# Stress axis : x y z
#
# Youngs Moduli (GPa) = 54.68861 93.43374 50.73184
#
# Poissons Ratio (x) = 0.37592 0.49185
# Poissons Ratio (y) = 0.22003 0.02942
# Poissons Ratio (z) = 0.53021 0.05418
#
# Static dielectric constant tensor:
#      x y z
#    x 3.398970 0.000000 0.000000 
#    y 0.000000 3.453430 0.000000 
#    z 0.000000 0.000000 3.119150 
# 
# 
# High freq. dielectric constant tensor:
#      x y z
#    x 1.701870 0.000000 0.000000 
#    y 0.000000 1.699640 0.000000 
#    z 0.000000 0.000000 1.676260 
# 
# From -- ./inp_files/47772.got.cif
#   From: 2010.03.12/outbox.cif.g09.slc.cpg/sg64_24_cif.got.tgz:47772.got - 2010.04.10 20:19:32.
