data_PCOD8262419
_publ_section_title
;
Structure prediction by ZEFSAII (Michael W. Deem and Ramdas Pophale) SiO2 
 PCOD8262419
Probable space group: C M C A
;
_chemical_formula_sum "Si O2"
_cell_formula_units_Z 96
_cell_length_a 16.614950
_cell_length_b 20.480790
_cell_length_c 14.476961
_cell_angle_alpha 90.000000
_cell_angle_beta 90.000000
_cell_angle_gamma 90.000000
_cell_volume 4926.325997
_symmetry_space_group_name_H-M "C M C A"
_symmetry_group_IT_number 64
_symmetry_cell_setting 'orthorhombic'
loop_
_space_group_symop_operation_xyz
x,y,z
-x,1/2-y,1/2+z
x,-y,-z
-x,1/2+y,1/2-z
-x,-y,-z
x,1/2+y,1/2-z
-x,y,z
x,1/2-y,1/2+z
1/2+x,1/2+y,z
1/2-x,-y,1/2+z
1/2+x,1/2-y,-z
1/2-x,y,1/2-z
1/2-x,1/2-y,-z
1/2+x,y,1/2-z
1/2-x,1/2+y,z
1/2+x,-y,1/2+z
loop_
_atom_site_type_symbol
_atom_site_label
_atom_site_fract_x
_atom_site_fract_y
_atom_site_fract_z
Si Si1 0.093527 0.680706 0.667699
Si Si2 0.904307 0.069620 0.701818
Si Si3 0.905405 0.771901 0.974199
Si Si4 0.093666 0.379458 0.010153
Si Si5 0.404737 0.423215 0.686075
Si Si6 0.840112 0.701713 0.278610
O O1 0.132254 0.617645 0.719243
O O2 0.127492 0.688462 0.563682
O O3 0.103482 0.745983 0.728082
O O4 0.000000 0.668834 0.656510
O O5 0.866823 0.090707 0.602837
O O6 0.000000 0.078676 0.698579
O O7 0.880823 0.994983 0.722902
O O8 0.888662 0.696810 0.996579
O O9 0.851778 0.793975 0.888331
O O10 0.000000 0.784037 0.953844
O O11 0.000000 0.394829 0.014225
O O12 0.128227 0.414361 0.918512
O O13 0.500000 0.411411 0.690097
O O14 0.361693 0.371838 0.751852
O O15 0.750000 0.719083 0.250000
#
# Coordination Sequence:
#
# PCOD8262419 Si02
#       6
#    16  16  16  16  16  16
#     4  10  19  36  59  83 109 141 183 234 283 332
#     4   9  17  30  55  86 111 133 177 236 288 331
#     4  10  19  34  59  86 110 139 185 235 278 330
#     4   9  15  27  54  87 109 129 172 237 285 321
#     4  10  19  34  55  80 108 144 183 228 281 331
#     4  12  24  36  53  79 114 151 184 225 273 335
#
# _framework density 19.487138999999999
#
# number of rings (size 3 to 8) (size 9 to 14) (size 15 to 20)
#    0.000    2.000    3.333    2.000    0.000    2.667 
#    0.000    1.667    0.000    6.000    0.000    0.000 
#    0.000    0.000    0.000    0.000    0.000    0.000 
#
# Total GULP energy -595087.798374 kJ/mol
# GULP energy per Si atom -12397.662466 kJ/mol
# Density = 1.944279 g / cm^3
# Si number density = 19.487139 Si / 1000 Ang^3
#
#
#
# Elastic Constant Matrix: (Units=GPa)
#
#
# Indices 1 2 3 4 5 6 
#
# 1 15.7528 16.0512 17.3031 0.0000 0.0000 0.0000
# 2 16.0512 107.1485 66.6652 0.0000 0.0000 0.0000
# 3 17.3031 66.6652 158.5450 0.0000 0.0000 0.0000
# 4 0.0000 0.0000 0.0000 36.1053 0.0000 0.0000
# 5 0.0000 0.0000 0.0000 0.0000 9.5152 0.0000
# 6 0.0000 0.0000 0.0000 0.0000 0.0000 5.7262
#
#
#
# Elastic Compliance Matrix: (Units=1/GPa)
#
#
# Indices 1 2 3 4 5 6 
#
# 1 0.077574 -0.008604 -0.004848 0.000000 0.000000 0.000000
# 2 -0.008604 0.013594 -0.004777 0.000000 0.000000 0.000000
# 3 -0.004848 -0.004777 0.008845 0.000000 0.000000 0.000000
# 4 0.000000 0.000000 0.000000 0.027697 0.000000 0.000000
# 5 0.000000 0.000000 0.000000 0.000000 0.105095 0.000000
# 6 0.000000 0.000000 0.000000 0.000000 0.000000 0.174634
#
#
# Mechanical properties :
#
#
# Convention : Reuss Voigt Hill
#
# Bulk Modulus (GPa) = 15.73474 53.49838 34.61656
# Shear Modulus (GPa) = 10.75079 22.36446 16.55762
#
# Velocity S-wave (km/s) = 2.35135 3.39138 2.91807
# Velocity P-wave (km/s) = 3.93240 6.54584 5.39962
#
# Compressibility (1/GPa) = 0.06355362
#
# Stress axis : x y z
#
# Youngs Moduli (GPa) = 12.89099 73.56234 113.05724
#
# Poissons Ratio (x) = 0.63296 0.54812
# Poissons Ratio (y) = 0.11092 0.54007
# Poissons Ratio (z) = 0.06250 0.35140
#
# Static dielectric constant tensor:
#      x y z
#    x 3.023150 0.000000 0.000000 
#    y 0.000000 3.620240 0.000000 
#    z 0.000000 0.000000 3.901470 
# 
# 
# High freq. dielectric constant tensor:
#      x y z
#    x 1.702720 0.000000 0.000000 
#    y 0.000000 1.758880 0.000000 
#    z 0.000000 0.000000 1.770110 
# 
# From -- ./inp_files/23846.got.cif
#   From: 2010.03.12/outbox.cif.g09.slc.cpg/sg64_12_cif.got.tgz:23846.got - 2010.04.10 20:19:32.
