data_PCOD8262095
_publ_section_title
;
Structure prediction by ZEFSAII (Michael W. Deem and Ramdas Pophale) SiO2 
 PCOD8262095
Probable space group: C M C A
;
_chemical_formula_sum "Si O2"
_cell_formula_units_Z 96
_cell_length_a 9.169433
_cell_length_b 22.907737
_cell_length_c 25.934755
_cell_angle_alpha 90.000000
_cell_angle_beta 90.000000
_cell_angle_gamma 90.000000
_cell_volume 5447.620175
_symmetry_space_group_name_H-M "C M C A"
_symmetry_group_IT_number 64
_symmetry_cell_setting 'orthorhombic'
loop_
_space_group_symop_operation_xyz
x,y,z
-x,1/2-y,1/2+z
x,-y,-z
-x,1/2+y,1/2-z
-x,-y,-z
x,1/2+y,1/2-z
-x,y,z
x,1/2-y,1/2+z
1/2+x,1/2+y,z
1/2-x,-y,1/2+z
1/2+x,1/2-y,-z
1/2-x,y,1/2-z
1/2-x,1/2-y,-z
1/2+x,y,1/2-z
1/2-x,1/2+y,z
1/2+x,-y,1/2+z
loop_
_atom_site_type_symbol
_atom_site_label
_atom_site_fract_x
_atom_site_fract_y
_atom_site_fract_z
Si Si1 0.159275 0.923383 0.622817
Si Si2 0.171935 0.500802 0.695903
Si Si3 0.668730 0.394851 0.119646
Si Si4 0.830026 0.700960 0.931891
Si Si5 0.329858 0.818733 0.951110
Si Si6 0.159999 0.030050 0.550204
O O1 0.272106 0.941143 0.668079
O O2 0.219880 0.874409 0.583266
O O3 0.000000 0.904003 0.645351
O O4 0.133388 0.982698 0.593224
O O5 0.250000 0.506730 0.750000
O O6 0.208967 0.561702 0.666454
O O7 0.000000 0.493916 0.702918
O O8 0.500000 0.378916 0.119241
O O9 0.760660 0.334803 0.116625
O O10 0.715063 0.425408 0.066336
O O11 0.762119 0.764931 0.930012
O O12 0.000000 0.706482 0.920979
O O13 0.797867 0.671057 0.987936
O O14 0.500000 0.805222 0.943192
O O15 0.000000 0.060626 0.539749
O O16 0.223298 0.000000 0.500000
#
# Coordination Sequence:
#
# PCOD8262095 Si02
#       6
#    16  16  16  16  16  16
#     4   9  17  30  49  71  97 129 162 199 243 289
#     4  10  21  36  54  75  97 123 159 204 255 304
#     4  10  20  32  47  70  98 127 161 202 246 292
#     4  10  19  31  49  73 102 138 174 203 235 280
#     4   9  18  32  49  72 103 138 172 202 235 279
#     4   9  16  27  44  67  96 128 160 193 233 286
#
# _framework density 17.622373
#
# number of rings (size 3 to 8) (size 9 to 14) (size 15 to 20)
#    0.000    2.500    0.000    2.500    0.000    6.333 
#    0.000    3.333    0.000    1.000    0.000    4.667 
#    0.000    0.000    0.000    0.000    0.000    0.000 
#
# Total GULP energy -594638.561436 kJ/mol
# GULP energy per Si atom -12388.303363 kJ/mol
# Density = 1.758226 g / cm^3
# Si number density = 17.622373 Si / 1000 Ang^3
#
#
#
# Elastic Constant Matrix: (Units=GPa)
#
#
# Indices 1 2 3 4 5 6 
#
# 1 88.9223 49.8004 45.6228 0.0000 0.0000 0.0000
# 2 49.8004 79.0797 25.6730 0.0000 0.0000 0.0000
# 3 45.6228 25.6730 63.1725 0.0000 0.0000 0.0000
# 4 0.0000 0.0000 0.0000 24.5842 0.0000 0.0000
# 5 0.0000 0.0000 0.0000 0.0000 26.7655 0.0000
# 6 0.0000 0.0000 0.0000 0.0000 0.0000 36.4674
#
#
#
# Elastic Compliance Matrix: (Units=1/GPa)
#
#
# Indices 1 2 3 4 5 6 
#
# 1 0.023958 -0.010910 -0.012869 0.000000 0.000000 0.000000
# 2 -0.010910 0.019535 -0.000060 0.000000 0.000000 0.000000
# 3 -0.012869 -0.000060 0.025148 0.000000 0.000000 0.000000
# 4 0.000000 0.000000 0.000000 0.040676 0.000000 0.000000
# 5 0.000000 0.000000 0.000000 0.000000 0.037362 0.000000
# 6 0.000000 0.000000 0.000000 0.000000 0.000000 0.027422
#
#
# Mechanical properties :
#
#
# Convention : Reuss Voigt Hill
#
# Bulk Modulus (GPa) = 47.70060 52.59631 50.14846
# Shear Modulus (GPa) = 21.85631 24.90198 23.37914
#
# Velocity S-wave (km/s) = 3.52555 3.76319 3.64630
# Velocity P-wave (km/s) = 6.61057 6.98521 6.80047
#
# Compressibility (1/GPa) = 0.02096410
#
# Stress axis : x y z
#
# Youngs Moduli (GPa) = 41.73923 51.18899 39.76482
#
# Poissons Ratio (x) = 0.55847 0.51173
# Poissons Ratio (y) = 0.45537 0.00239
# Poissons Ratio (z) = 0.53713 0.00307
#
# Static dielectric constant tensor:
#      x y z
#    x 3.443200 0.000000 0.000000 
#    y 0.000000 3.168410 0.000000 
#    z 0.000000 0.000000 2.778690 
# 
# 
# High freq. dielectric constant tensor:
#      x y z
#    x 1.685710 0.000000 0.000000 
#    y 0.000000 1.676590 0.000000 
#    z 0.000000 0.000000 1.650450 
# 
# From -- ./inp_files/48144.got.cif
#   From: 2010.03.12/outbox.cif.g09.slc.cpg/sg64_25_cif.got.tgz:48144.got - 2010.04.10 20:19:32.
