data_PCOD8262448
_publ_section_title
;
Structure prediction by ZEFSAII (Michael W. Deem and Ramdas Pophale) SiO2 
 PCOD8262448
Probable space group: C M C A
;
_chemical_formula_sum "Si O2"
_cell_formula_units_Z 80
_cell_length_a 8.981968
_cell_length_b 15.444584
_cell_length_c 29.339502
_cell_angle_alpha 90.000000
_cell_angle_beta 90.000000
_cell_angle_gamma 90.000000
_cell_volume 4070.056673
_symmetry_space_group_name_H-M "C M C A"
_symmetry_group_IT_number 64
_symmetry_cell_setting 'orthorhombic'
loop_
_space_group_symop_operation_xyz
x,y,z
-x,1/2-y,1/2+z
x,-y,-z
-x,1/2+y,1/2-z
-x,-y,-z
x,1/2+y,1/2-z
-x,y,z
x,1/2-y,1/2+z
1/2+x,1/2+y,z
1/2-x,-y,1/2+z
1/2+x,1/2-y,-z
1/2-x,y,1/2-z
1/2-x,1/2-y,-z
1/2+x,y,1/2-z
1/2-x,1/2+y,z
1/2+x,-y,1/2+z
loop_
_atom_site_type_symbol
_atom_site_label
_atom_site_fract_x
_atom_site_fract_y
_atom_site_fract_z
Si Si1 0.828243 0.100019 0.795926
Si Si2 0.825396 0.355530 0.111741
Si Si3 0.330413 0.104670 0.294889
Si Si4 0.825959 0.662020 0.390438
Si Si5 0.323289 0.498072 0.947950
O O1 0.750000 0.134123 0.750000
O O2 0.743681 0.142086 0.838180
O O3 0.000000 0.128804 0.796013
O O4 0.812230 0.997556 0.799985
O O5 0.794464 0.259004 0.092086
O O6 0.748380 0.421496 0.077752
O O7 0.000000 0.375768 0.114983
O O8 0.500000 0.133082 0.289549
O O9 0.250000 0.140509 0.250000
O O10 0.256356 0.146879 0.340051
O O11 0.762820 0.591872 0.426345
O O12 0.000000 0.643642 0.385373
O O13 0.500000 0.507319 0.943806
O O14 0.270099 0.500000 0.000000
#
# Coordination Sequence:
#
# PCOD8262448 Si02
#       5
#    16  16  16  16  16
#     4  10  19  34  57  83 116 155 196 233 276 335
#     4  11  22  36  58  86 119 151 186 235 289 339
#     4   9  17  32  54  77 109 148 187 225 269 326
#     4   9  19  37  57  82 115 151 185 231 287 339
#     4  10  21  41  65  83 108 150 194 237 291 350
#
# _framework density 19.655747999999999
#
# number of rings (size 3 to 8) (size 9 to 14) (size 15 to 20)
#    0.000    2.200    2.000    1.200    0.000    2.800 
#    0.000    6.000    0.000    0.000    0.000    0.000 
#    0.000    0.000    0.000    0.000    0.000    0.000 
#
# Total GULP energy -495978.579162 kJ/mol
# GULP energy per Si atom -12399.464479 kJ/mol
# Density = 1.961101 g / cm^3
# Si number density = 19.655748 Si / 1000 Ang^3
#
#
#
# Elastic Constant Matrix: (Units=GPa)
#
#
# Indices 1 2 3 4 5 6 
#
# 1 52.1936 29.0976 41.8618 0.0000 0.0000 0.0000
# 2 29.0976 104.6935 75.6713 0.0000 0.0000 0.0000
# 3 41.8618 75.6713 166.9272 0.0000 0.0000 0.0000
# 4 0.0000 0.0000 0.0000 8.3748 0.0000 0.0000
# 5 0.0000 0.0000 0.0000 0.0000 29.3214 0.0000
# 6 0.0000 0.0000 0.0000 0.0000 0.0000 23.4110
#
#
#
# Elastic Compliance Matrix: (Units=1/GPa)
#
#
# Indices 1 2 3 4 5 6 
#
# 1 0.024851 -0.003573 -0.004612 0.000000 0.000000 0.000000
# 2 -0.003573 0.014720 -0.005777 0.000000 0.000000 0.000000
# 3 -0.004612 -0.005777 0.009766 0.000000 0.000000 0.000000
# 4 0.000000 0.000000 0.000000 0.119406 0.000000 0.000000
# 5 0.000000 0.000000 0.000000 0.000000 0.034105 0.000000
# 6 0.000000 0.000000 0.000000 0.000000 0.000000 0.042715
#
#
# Mechanical properties :
#
#
# Convention : Reuss Voigt Hill
#
# Bulk Modulus (GPa) = 46.70173 68.56397 57.63285
# Shear Modulus (GPa) = 17.81740 24.03368 20.92554
#
# Velocity S-wave (km/s) = 3.01403 3.50055 3.26636
# Velocity P-wave (km/s) = 5.99366 7.16216 6.60381
#
# Compressibility (1/GPa) = 0.02141248
#
# Stress axis : x y z
#
# Youngs Moduli (GPa) = 40.24032 67.93362 102.39503
#
# Poissons Ratio (x) = 0.24273 0.47228
# Poissons Ratio (y) = 0.14378 0.59153
# Poissons Ratio (z) = 0.18560 0.39245
#
# Static dielectric constant tensor:
#      x y z
#    x 3.424380 0.000000 0.000000 
#    y 0.000000 3.568350 0.000000 
#    z 0.000000 0.000000 3.814870 
# 
# 
# High freq. dielectric constant tensor:
#      x y z
#    x 1.744390 0.000000 0.000000 
#    y 0.000000 1.767920 0.000000 
#    z 0.000000 0.000000 1.770320 
# 
# From -- ./inp_files/47853.got.cif
#   From: 2010.03.12/outbox.cif.g09.slc.cpg/sg64_24_cif.got.tgz:47853.got - 2010.04.10 20:19:32.
