data_PCOD8262320
_publ_section_title
;
Structure prediction by ZEFSAII (Michael W. Deem and Ramdas Pophale) SiO2 
 PCOD8262320
Probable space group: C M C A
;
_chemical_formula_sum "Si O2"
_cell_formula_units_Z 96
_cell_length_a 9.073077
_cell_length_b 20.423770
_cell_length_c 28.114514
_cell_angle_alpha 90.000000
_cell_angle_beta 90.000000
_cell_angle_gamma 90.000000
_cell_volume 5209.800441
_symmetry_space_group_name_H-M "C M C A"
_symmetry_group_IT_number 64
_symmetry_cell_setting 'orthorhombic'
loop_
_space_group_symop_operation_xyz
x,y,z
-x,1/2-y,1/2+z
x,-y,-z
-x,1/2+y,1/2-z
-x,-y,-z
x,1/2+y,1/2-z
-x,y,z
x,1/2-y,1/2+z
1/2+x,1/2+y,z
1/2-x,-y,1/2+z
1/2+x,1/2-y,-z
1/2-x,y,1/2-z
1/2-x,1/2-y,-z
1/2+x,y,1/2-z
1/2-x,1/2+y,z
1/2+x,-y,1/2+z
loop_
_atom_site_type_symbol
_atom_site_label
_atom_site_fract_x
_atom_site_fract_y
_atom_site_fract_z
Si Si1 0.326810 0.364746 0.109620
Si Si2 0.827391 0.237586 0.450656
Si Si3 0.172451 0.622665 0.397264
Si Si4 0.174131 0.825446 0.298146
Si Si5 0.826510 0.989776 0.052641
Si Si6 0.329120 0.325075 0.796709
O O1 0.500000 0.372388 0.120117
O O2 0.289248 0.296777 0.084379
O O3 0.238922 0.368221 0.158956
O O4 0.266121 0.423262 0.076279
O O5 0.750000 0.250000 0.500000
O O6 0.766837 0.170938 0.429169
O O7 0.000000 0.231099 0.459431
O O8 0.214623 0.549645 0.412860
O O9 0.215553 0.631065 0.341982
O O10 0.000000 0.638175 0.405377
O O11 0.250000 0.851002 0.250000
O O12 0.218115 0.749715 0.306775
O O13 0.000000 0.835644 0.294744
O O14 0.000000 0.982866 0.046673
O O15 0.756410 0.000000 0.000000
O O16 0.500000 0.329333 0.785785
O O17 0.250000 0.353469 0.750000
#
# Coordination Sequence:
#
# PCOD8262320 Si02
#       6
#    16  16  16  16  16  16
#     4  10  20  35  55  81 108 143 185 223 267 321
#     4  11  22  34  53  79 108 139 179 228 273 320
#     4  10  19  35  56  79 107 139 179 224 272 321
#     4  10  19  33  54  81 111 142 177 221 273 324
#     4   9  18  34  56  78 106 146 186 221 263 321
#     4   9  18  31  51  78 106 137 171 215 267 318
#
# _framework density 18.42681
#
# number of rings (size 3 to 8) (size 9 to 14) (size 15 to 20)
#    0.000    2.167    1.667    2.000    0.000    4.667 
#    0.000    1.667    0.000    4.000    0.000    0.000 
#    0.000    0.000    0.000    0.000    0.000    0.000 
#
# Total GULP energy -595303.917600 kJ/mol
# GULP energy per Si atom -12402.164950 kJ/mol
# Density = 1.838487 g / cm^3
# Si number density = 18.426810 Si / 1000 Ang^3
#
#
#
# Elastic Constant Matrix: (Units=GPa)
#
#
# Indices 1 2 3 4 5 6 
#
# 1 50.1124 17.5978 42.4075 0.0000 0.0000 0.0000
# 2 17.5978 49.4526 21.1273 0.0000 0.0000 0.0000
# 3 42.4075 21.1273 138.5422 0.0000 0.0000 0.0000
# 4 0.0000 0.0000 0.0000 33.3035 0.0000 0.0000
# 5 0.0000 0.0000 0.0000 0.0000 36.0101 0.0000
# 6 0.0000 0.0000 0.0000 0.0000 0.0000 16.5291
#
#
#
# Elastic Compliance Matrix: (Units=1/GPa)
#
#
# Indices 1 2 3 4 5 6 
#
# 1 0.029026 -0.006989 -0.007819 0.000000 0.000000 0.000000
# 2 -0.006989 0.023313 -0.001416 0.000000 0.000000 0.000000
# 3 -0.007819 -0.001416 0.009827 0.000000 0.000000 0.000000
# 4 0.000000 0.000000 0.000000 0.030027 0.000000 0.000000
# 5 0.000000 0.000000 0.000000 0.000000 0.027770 0.000000
# 6 0.000000 0.000000 0.000000 0.000000 0.000000 0.060499
#
#
# Mechanical properties :
#
#
# Convention : Reuss Voigt Hill
#
# Bulk Modulus (GPa) = 33.64800 44.48581 39.06691
# Shear Modulus (GPa) = 22.43997 27.63352 25.03674
#
# Velocity S-wave (km/s) = 3.49347 3.87672 3.69007
# Velocity P-wave (km/s) = 5.87983 6.65078 6.27715
#
# Compressibility (1/GPa) = 0.02971944
#
# Stress axis : x y z
#
# Youngs Moduli (GPa) = 34.45169 42.89407 101.75664
#
# Poissons Ratio (x) = 0.29977 0.79565
# Poissons Ratio (y) = 0.24077 0.14409
# Poissons Ratio (z) = 0.26938 0.06074
#
# Static dielectric constant tensor:
#      x y z
#    x 3.188250 0.000000 0.000000 
#    y 0.000000 3.304430 0.000000 
#    z 0.000000 0.000000 14.709920 
# 
# 
# High freq. dielectric constant tensor:
#      x y z
#    x 1.696880 0.000000 0.000000 
#    y 0.000000 1.698450 0.000000 
#    z 0.000000 0.000000 1.731710 
# 
# From -- ./inp_files/48040.got.cif
#   From: 2010.03.12/outbox.cif.g09.slc.cpg/sg64_25_cif.got.tgz:48040.got - 2010.04.10 20:19:32.
