data_PCOD8262972
_publ_section_title
;
Structure prediction by ZEFSAII (Michael W. Deem and Ramdas Pophale) SiO2 
 PCOD8262972
Probable space group: C M C A
;
_chemical_formula_sum "Si O2"
_cell_formula_units_Z 88
_cell_length_a 22.304054
_cell_length_b 9.058739
_cell_length_c 20.699147
_cell_angle_alpha 90.000000
_cell_angle_beta 90.000000
_cell_angle_gamma 90.000000
_cell_volume 4182.192353
_symmetry_space_group_name_H-M "C M C A"
_symmetry_group_IT_number 64
_symmetry_cell_setting 'orthorhombic'
loop_
_space_group_symop_operation_xyz
x,y,z
-x,1/2-y,1/2+z
x,-y,-z
-x,1/2+y,1/2-z
-x,-y,-z
x,1/2+y,1/2-z
-x,y,z
x,1/2-y,1/2+z
1/2+x,1/2+y,z
1/2-x,-y,1/2+z
1/2+x,1/2-y,-z
1/2-x,y,1/2-z
1/2-x,1/2-y,-z
1/2+x,y,1/2-z
1/2-x,1/2+y,z
1/2+x,-y,1/2+z
loop_
_atom_site_type_symbol
_atom_site_label
_atom_site_fract_x
_atom_site_fract_y
_atom_site_fract_z
Si Si1 0.067698 0.321335 0.631970
Si Si2 0.932295 0.664118 0.005429
Si Si3 0.760461 0.380257 0.048011
Si Si4 0.817751 0.801556 0.322285
Si Si5 0.250000 0.551056 0.250000
Si Si6 0.372583 0.577393 0.932960
O O1 0.069783 0.239505 0.563993
O O2 0.111362 0.236723 0.683034
O O3 0.091966 0.489584 0.623080
O O4 0.000000 0.324478 0.659938
O O5 0.000000 0.657185 0.031734
O O6 0.905195 0.500000 0.000000
O O7 0.894592 0.753607 0.059757
O O8 0.807279 0.334306 0.102304
O O9 0.698342 0.429644 0.082442
O O10 0.788865 0.500000 0.000000
O O11 0.750000 0.250000 0.000000
O O12 0.801385 0.945973 0.280470
O O13 0.779076 0.657406 0.303516
O O14 0.387637 0.500000 0.000000
#
# Coordination Sequence:
#
# PCOD8262972 Si02
#       6
#    16  16  16  16   8  16
#     4  10  20  35  55  77 107 147 191 239 286 341
#     4   9  17  28  44  73 114 155 188 219 269 342
#     4  11  21  33  56  90 122 148 183 242 303 350
#     4  11  22  41  61  86 115 150 197 239 292 353
#     4  10  24  42  64  82 110 156 198 242 286 350
#     4   9  17  30  48  75 112 153 188 220 279 351
#
# _framework density 21.041595999999998
#
# number of rings (size 3 to 8) (size 9 to 14) (size 15 to 20)
#    0.000    2.000    0.000    6.000    0.000    6.545 
#    0.000    0.909    0.000    0.000    0.000    0.000 
#    0.000    0.000    0.000    0.000    0.000    0.000 
#
# Total GULP energy -545382.565740 kJ/mol
# GULP energy per Si atom -12395.058312 kJ/mol
# Density = 2.099370 g / cm^3
# Si number density = 21.041596 Si / 1000 Ang^3
#
#
#
# Elastic Constant Matrix: (Units=GPa)
#
#
# Indices 1 2 3 4 5 6 
#
# 1 149.4003 37.6116 26.2139 0.0000 0.0000 0.0000
# 2 37.6116 136.5183 28.5561 0.0000 0.0000 0.0000
# 3 26.2139 28.5561 51.5709 0.0000 0.0000 0.0000
# 4 0.0000 0.0000 0.0000 28.3487 0.0000 0.0000
# 5 0.0000 0.0000 0.0000 0.0000 21.2099 0.0000
# 6 0.0000 0.0000 0.0000 0.0000 0.0000 29.5063
#
#
#
# Elastic Compliance Matrix: (Units=1/GPa)
#
#
# Indices 1 2 3 4 5 6 
#
# 1 0.007596 -0.001453 -0.003056 0.000000 0.000000 0.000000
# 2 -0.001453 0.008563 -0.004003 0.000000 0.000000 0.000000
# 3 -0.003056 -0.004003 0.023161 0.000000 0.000000 0.000000
# 4 0.000000 0.000000 0.000000 0.035275 0.000000 0.000000
# 5 0.000000 0.000000 0.000000 0.000000 0.047148 0.000000
# 6 0.000000 0.000000 0.000000 0.000000 0.000000 0.033891
#
#
# Mechanical properties :
#
#
# Convention : Reuss Voigt Hill
#
# Bulk Modulus (GPa) = 44.85389 58.02808 51.44099
# Shear Modulus (GPa) = 27.76415 32.15351 29.95883
#
# Velocity S-wave (km/s) = 3.63642 3.91332 3.77741
# Velocity P-wave (km/s) = 6.24455 6.93228 6.59738
#
# Compressibility (1/GPa) = 0.02229461
#
# Stress axis : x y z
#
# Youngs Moduli (GPa) = 131.65626 116.78596 43.17685
#
# Poissons Ratio (x) = 0.16973 0.13195
# Poissons Ratio (y) = 0.19134 0.17282
# Poissons Ratio (z) = 0.40236 0.46745
#
# Static dielectric constant tensor:
#      x y z
#    x 4.008910 0.000000 0.000000 
#    y 0.000000 4.066000 0.000000 
#    z 0.000000 0.000000 3.291300 
# 
# 
# High freq. dielectric constant tensor:
#      x y z
#    x 1.829550 0.000000 0.000000 
#    y 0.000000 1.842460 0.000000 
#    z 0.000000 0.000000 1.770890 
# 
# From -- ./inp_files/41372.got.cif
#   From: 2010.03.12/outbox.cif.g09.slc.cpg/sg64_21_cif.got.tgz:41372.got - 2010.04.10 20:19:32.
