data_PCOD8262946
_publ_section_title
;
Structure prediction by ZEFSAII (Michael W. Deem and Ramdas Pophale) SiO2 
 PCOD8262946
Probable space group: C M C A
;
_chemical_formula_sum "Si O2"
_cell_formula_units_Z 88
_cell_length_a 20.350814
_cell_length_b 12.667233
_cell_length_c 18.238135
_cell_angle_alpha 90.000000
_cell_angle_beta 90.000000
_cell_angle_gamma 90.000000
_cell_volume 4701.581513
_symmetry_space_group_name_H-M "C M C A"
_symmetry_group_IT_number 64
_symmetry_cell_setting 'orthorhombic'
loop_
_space_group_symop_operation_xyz
x,y,z
-x,1/2-y,1/2+z
x,-y,-z
-x,1/2+y,1/2-z
-x,-y,-z
x,1/2+y,1/2-z
-x,y,z
x,1/2-y,1/2+z
1/2+x,1/2+y,z
1/2-x,-y,1/2+z
1/2+x,1/2-y,-z
1/2-x,y,1/2-z
1/2-x,1/2-y,-z
1/2+x,y,1/2-z
1/2-x,1/2+y,z
1/2+x,-y,1/2+z
loop_
_atom_site_type_symbol
_atom_site_label
_atom_site_fract_x
_atom_site_fract_y
_atom_site_fract_z
Si Si1 0.072938 0.505622 0.125120
Si Si2 0.379911 0.220369 0.829857
Si Si3 0.185570 0.394808 0.297521
Si Si4 0.074474 0.440392 0.713113
Si Si5 0.835879 0.000000 0.500000
Si Si6 0.764988 0.686548 0.927712
O O1 0.081284 0.379186 0.136547
O O2 0.087776 0.567330 0.200002
O O3 0.000000 0.527102 0.097742
O O4 0.118676 0.555339 0.061735
O O5 0.352367 0.191837 0.749923
O O6 0.424601 0.324031 0.822423
O O7 0.319931 0.250772 0.883196
O O8 0.250000 0.434748 0.250000
O O9 0.133959 0.488028 0.318504
O O10 0.204275 0.338022 0.373743
O O11 0.000000 0.486361 0.699076
O O12 0.790254 0.925302 0.453626
O O13 0.750000 0.750000 0.000000
#
# Coordination Sequence:
#
# PCOD8262946 Si02
#       6
#    16  16  16  16   8  16
#     4   9  18  34  54  79 109 141 179 226 273 335
#     4   9  19  35  54  81 110 141 185 225 276 332
#     4   9  20  37  55  82 110 148 189 234 276 327
#     4  10  20  34  60  85 111 149 187 233 288 335
#     4  10  21  34  52  80 109 140 184 226 278 330
#     4  10  22  35  54  80 109 145 182 229 281 328
#
# _framework density 18.717106000000001
#
# number of rings (size 3 to 8) (size 9 to 14) (size 15 to 20)
#    0.000    2.545    0.000    1.909    5.091    2.909 
#    0.000    0.000    0.000    3.273    0.000    0.000 
#    0.000    0.000    0.000    0.000    0.000    0.000 
#
# Total GULP energy -545199.684779 kJ/mol
# GULP energy per Si atom -12390.901927 kJ/mol
# Density = 1.867451 g / cm^3
# Si number density = 18.717106 Si / 1000 Ang^3
#
#
#
# Elastic Constant Matrix: (Units=GPa)
#
#
# Indices 1 2 3 4 5 6 
#
# 1 71.9344 10.6675 13.4503 0.0000 0.0000 0.0000
# 2 10.6675 43.8825 11.2956 0.0000 0.0000 0.0000
# 3 13.4503 11.2956 84.5659 0.0000 0.0000 0.0000
# 4 0.0000 0.0000 0.0000 25.7036 0.0000 0.0000
# 5 0.0000 0.0000 0.0000 0.0000 19.6011 0.0000
# 6 0.0000 0.0000 0.0000 0.0000 0.0000 18.3876
#
#
#
# Elastic Compliance Matrix: (Units=1/GPa)
#
#
# Indices 1 2 3 4 5 6 
#
# 1 0.014719 -0.003081 -0.001930 0.000000 0.000000 0.000000
# 2 -0.003081 0.024245 -0.002748 0.000000 0.000000 0.000000
# 3 -0.001930 -0.002748 0.012499 0.000000 0.000000 0.000000
# 4 0.000000 0.000000 0.000000 0.038905 0.000000 0.000000
# 5 0.000000 0.000000 0.000000 0.000000 0.051017 0.000000
# 6 0.000000 0.000000 0.000000 0.000000 0.000000 0.054384
#
#
# Mechanical properties :
#
#
# Convention : Reuss Voigt Hill
#
# Bulk Modulus (GPa) = 27.82072 30.13441 28.97756
# Shear Modulus (GPa) = 22.39442 23.73644 23.06543
#
# Velocity S-wave (km/s) = 3.46275 3.56500 3.51425
# Velocity P-wave (km/s) = 5.55730 5.75156 5.65527
#
# Compressibility (1/GPa) = 0.03594443
#
# Stress axis : x y z
#
# Youngs Moduli (GPa) = 67.93794 41.24625 80.00592
#
# Poissons Ratio (x) = 0.12710 0.15437
# Poissons Ratio (y) = 0.20935 0.21988
# Poissons Ratio (z) = 0.13109 0.11336
#
# Static dielectric constant tensor:
#      x y z
#    x 3.235280 0.000000 0.000000 
#    y 0.000000 2.968330 0.000000 
#    z 0.000000 0.000000 3.354720 
# 
# 
# High freq. dielectric constant tensor:
#      x y z
#    x 1.734870 0.000000 0.000000 
#    y 0.000000 1.696670 0.000000 
#    z 0.000000 0.000000 1.725910 
# 
# From -- ./inp_files/27291.got.cif
#   From: 2010.03.12/outbox.cif.g09.slc.cpg/sg64_14_cif.got.tgz:27291.got - 2010.04.10 20:19:32.
