data_PCOD8262040
_publ_section_title
;
Structure prediction by ZEFSAII (Michael W. Deem and Ramdas Pophale) SiO2 
 PCOD8262040
Probable space group: C M C A
;
_chemical_formula_sum "Si O2"
_cell_formula_units_Z 128
_cell_length_a 20.115507
_cell_length_b 20.357523
_cell_length_c 18.277472
_cell_angle_alpha 90.000000
_cell_angle_beta 90.000000
_cell_angle_gamma 90.000000
_cell_volume 7484.659446
_symmetry_space_group_name_H-M "C M C A"
_symmetry_group_IT_number 64
_symmetry_cell_setting 'orthorhombic'
loop_
_space_group_symop_operation_xyz
x,y,z
-x,1/2-y,1/2+z
x,-y,-z
-x,1/2+y,1/2-z
-x,-y,-z
x,1/2+y,1/2-z
-x,y,z
x,1/2-y,1/2+z
1/2+x,1/2+y,z
1/2-x,-y,1/2+z
1/2+x,1/2-y,-z
1/2-x,y,1/2-z
1/2-x,1/2-y,-z
1/2+x,y,1/2-z
1/2-x,1/2+y,z
1/2+x,-y,1/2+z
loop_
_atom_site_type_symbol
_atom_site_label
_atom_site_fract_x
_atom_site_fract_y
_atom_site_fract_z
Si Si1 0.569450 0.389638 0.809725
Si Si2 0.307037 0.243098 0.803695
Si Si3 0.072770 0.266142 0.786687
Si Si4 0.573059 0.630778 0.027283
Si Si5 0.714395 0.073008 0.478555
Si Si6 0.576636 0.730192 0.454871
Si Si7 0.705230 0.807301 0.034767
Si Si8 0.792047 0.899554 0.817113
O O1 0.500000 0.431057 0.807967
O O2 0.568637 0.340207 0.742235
O O3 0.573758 0.349738 0.886871
O O4 0.635333 0.434321 0.806089
O O5 0.250000 0.216961 0.750000
O O6 0.376085 0.225172 0.762904
O O7 0.304126 0.205165 0.879597
O O8 0.300408 0.321104 0.815019
O O9 0.097182 0.271062 0.870028
O O10 0.000000 0.232167 0.782574
O O11 0.500000 0.599607 0.007349
O O12 0.634736 0.582408 0.010352
O O13 0.584232 0.695759 0.981243
O O14 0.756478 0.123917 0.526740
O O15 0.738327 0.081230 0.394664
O O16 0.734385 0.000000 0.500000
O O17 0.500000 0.704903 0.467049
O O18 0.631911 0.687381 0.497766
O O19 0.750000 0.750000 0.000000
O O20 0.750000 0.927079 0.750000
#
# Coordination Sequence:
#
# PCOD8262040 Si02
#       8
#    16  16  16  16  16  16  16  16
#     4   8  14  25  42  68 100 128 161 207 257 311
#     4  10  19  30  50  79 104 135 173 220 273 320
#     4   9  17  27  43  74 110 134 162 215 272 322
#     4   9  17  32  53  76 106 139 174 215 271 331
#     4  11  23  36  52  78 111 147 183 223 266 321
#     4  10  19  30  51  83 110 136 174 224 275 321
#     4  12  20  34  55  79 108 143 178 223 272 320
#     4   9  17  30  51  74  98 134 171 218 266 313
#
# _framework density 17.101645999999999
#
# number of rings (size 3 to 8) (size 9 to 14) (size 15 to 20)
#    0.000    2.250    2.500    2.250    3.500    1.750 
#    0.000    0.625    0.000    0.375    0.000    0.000 
#    0.000    0.000    0.000    0.000    0.000    0.000 
#
# Total GULP energy -792868.096417 kJ/mol
# GULP energy per Si atom -12388.564007 kJ/mol
# Density = 1.706272 g / cm^3
# Si number density = 17.101646 Si / 1000 Ang^3
#
#
#
# Elastic Constant Matrix: (Units=GPa)
#
#
# Indices 1 2 3 4 5 6 
#
# 1 132.6768 31.2651 63.1482 0.0000 0.0000 0.0000
# 2 31.2651 56.8303 26.1472 0.0000 0.0000 0.0000
# 3 63.1482 26.1472 130.8557 0.0000 0.0000 0.0000
# 4 0.0000 0.0000 0.0000 7.7822 0.0000 0.0000
# 5 0.0000 0.0000 0.0000 0.0000 31.4141 0.0000
# 6 0.0000 0.0000 0.0000 0.0000 0.0000 12.1821
#
#
#
# Elastic Compliance Matrix: (Units=1/GPa)
#
#
# Indices 1 2 3 4 5 6 
#
# 1 0.010475 -0.003785 -0.004299 0.000000 0.000000 0.000000
# 2 -0.003785 0.020745 -0.002319 0.000000 0.000000 0.000000
# 3 -0.004299 -0.002319 0.010180 0.000000 0.000000 0.000000
# 4 0.000000 0.000000 0.000000 0.128498 0.000000 0.000000
# 5 0.000000 0.000000 0.000000 0.000000 0.031833 0.000000
# 6 0.000000 0.000000 0.000000 0.000000 0.000000 0.082088
#
#
# Mechanical properties :
#
#
# Convention : Reuss Voigt Hill
#
# Bulk Modulus (GPa) = 48.55469 62.38709 55.47089
# Shear Modulus (GPa) = 16.05193 23.59583 19.82388
#
# Velocity S-wave (km/s) = 3.06701 3.71852 3.40837
# Velocity P-wave (km/s) = 6.40278 7.41592 6.92789
#
# Compressibility (1/GPa) = 0.02059533
#
# Stress axis : x y z
#
# Youngs Moduli (GPa) = 95.46490 48.20344 98.23380
#
# Poissons Ratio (x) = 0.18245 0.42228
# Poissons Ratio (y) = 0.36134 0.22778
# Poissons Ratio (z) = 0.41038 0.11177
#
# Static dielectric constant tensor:
#      x y z
#    x 3.959920 0.000000 0.000000 
#    y 0.000000 2.525400 0.000000 
#    z 0.000000 0.000000 3.340360 
# 
# 
# High freq. dielectric constant tensor:
#      x y z
#    x 1.688660 0.000000 0.000000 
#    y 0.000000 1.576120 0.000000 
#    z 0.000000 0.000000 1.673600 
# 
# From -- ./inp_files/34653.got.cif
#   From: 2010.03.12/outbox.cif.g09.slc.cpg/sg64_18_cif.got.tgz:34653.got - 2010.04.10 20:19:32.
