data_PCOD8262299
_publ_section_title
;
Structure prediction by ZEFSAII (Michael W. Deem and Ramdas Pophale) SiO2 
 PCOD8262299
Probable space group: C M C A
;
_chemical_formula_sum "Si O2"
_cell_formula_units_Z 96
_cell_length_a 9.580128
_cell_length_b 19.632680
_cell_length_c 29.018869
_cell_angle_alpha 90.000000
_cell_angle_beta 90.000000
_cell_angle_gamma 90.000000
_cell_volume 5457.972983
_symmetry_space_group_name_H-M "C M C A"
_symmetry_group_IT_number 64
_symmetry_cell_setting 'orthorhombic'
loop_
_space_group_symop_operation_xyz
x,y,z
-x,1/2-y,1/2+z
x,-y,-z
-x,1/2+y,1/2-z
-x,-y,-z
x,1/2+y,1/2-z
-x,y,z
x,1/2-y,1/2+z
1/2+x,1/2+y,z
1/2-x,-y,1/2+z
1/2+x,1/2-y,-z
1/2-x,y,1/2-z
1/2-x,1/2-y,-z
1/2+x,y,1/2-z
1/2-x,1/2+y,z
1/2+x,-y,1/2+z
loop_
_atom_site_type_symbol
_atom_site_label
_atom_site_fract_x
_atom_site_fract_y
_atom_site_fract_z
Si Si1 0.161193 0.857540 0.206361
Si Si2 0.663075 0.933022 0.522687
Si Si3 0.838127 0.986874 0.794781
Si Si4 0.165293 0.886194 0.877481
Si Si5 0.838272 0.749707 0.129467
Si Si6 0.658978 0.200580 0.529328
O O1 0.250000 0.835666 0.250000
O O2 0.204798 0.805258 0.166966
O O3 0.000000 0.850270 0.219473
O O4 0.194827 0.935090 0.191178
O O5 0.500000 0.945978 0.529806
O O6 0.723123 0.913894 0.573285
O O7 0.696180 0.875721 0.485133
O O8 0.733277 0.000000 0.500000
O O9 0.750000 0.964548 0.750000
O O10 0.796079 0.940854 0.838329
O O11 0.000000 0.977038 0.782123
O O12 0.242665 0.816362 0.865053
O O13 0.000000 0.871822 0.879635
O O14 0.807235 0.789151 0.082441
O O15 0.000000 0.727672 0.133488
O O16 0.500000 0.217554 0.517395
O O17 0.750000 0.250000 0.500000
#
# Coordination Sequence:
#
# PCOD8262299 Si02
#       6
#    16  16  16  16  16  16
#     4   9  19  36  55  77 103 133 171 213 257 305
#     4   9  18  31  51  78 103 130 169 212 249 293
#     4   9  19  35  55  76 101 132 169 212 256 302
#     4  10  20  34  53  78 104 133 171 212 252 301
#     4  10  21  34  52  77 106 137 168 209 257 303
#     4  10  19  33  53  76 104 137 169 206 252 301
#
# _framework density 17.588947000000001
#
# number of rings (size 3 to 8) (size 9 to 14) (size 15 to 20)
#    0.000    2.500    1.667    0.000    2.333    2.000 
#    0.000    3.333    0.000    2.000    0.000    0.000 
#    0.000    0.000    0.000    0.000    0.000    0.000 
#
# Total GULP energy -595139.544036 kJ/mol
# GULP energy per Si atom -12398.740501 kJ/mol
# Density = 1.754891 g / cm^3
# Si number density = 17.588947 Si / 1000 Ang^3
#
#
#
# Elastic Constant Matrix: (Units=GPa)
#
#
# Indices 1 2 3 4 5 6 
#
# 1 47.6071 58.0556 57.8804 0.0000 0.0000 0.0000
# 2 58.0556 139.6741 97.6360 0.0000 0.0000 0.0000
# 3 57.8804 97.6360 154.8338 0.0000 0.0000 0.0000
# 4 0.0000 0.0000 0.0000 39.1969 0.0000 0.0000
# 5 0.0000 0.0000 0.0000 0.0000 25.7349 0.0000
# 6 0.0000 0.0000 0.0000 0.0000 0.0000 27.2592
#
#
#
# Elastic Compliance Matrix: (Units=1/GPa)
#
#
# Indices 1 2 3 4 5 6 
#
# 1 0.049949 -0.013786 -0.009979 0.000000 0.000000 0.000000
# 2 -0.013786 0.016608 -0.005319 0.000000 0.000000 0.000000
# 3 -0.009979 -0.005319 0.013543 0.000000 0.000000 0.000000
# 4 0.000000 0.000000 0.000000 0.025512 0.000000 0.000000
# 5 0.000000 0.000000 0.000000 0.000000 0.038858 0.000000
# 6 0.000000 0.000000 0.000000 0.000000 0.000000 0.036685
#
#
# Mechanical properties :
#
#
# Convention : Reuss Voigt Hill
#
# Bulk Modulus (GPa) = 45.59537 85.47326 65.53431
# Shear Modulus (GPa) = 20.27298 27.00773 23.64035
#
# Velocity S-wave (km/s) = 3.39868 3.92279 3.67010
# Velocity P-wave (km/s) = 6.43276 8.31974 7.43634
#
# Compressibility (1/GPa) = 0.02193205
#
# Stress axis : x y z
#
# Youngs Moduli (GPa) = 20.02042 60.21235 73.83795
#
# Poissons Ratio (x) = 0.83007 0.73683
# Poissons Ratio (y) = 0.27600 0.39276
# Poissons Ratio (z) = 0.19978 0.32029
#
# Static dielectric constant tensor:
#      x y z
#    x 3.118090 0.000000 0.000000 
#    y 0.000000 3.291170 0.000000 
#    z 0.000000 0.000000 3.317040 
# 
# 
# High freq. dielectric constant tensor:
#      x y z
#    x 1.657510 0.000000 0.000000 
#    y 0.000000 1.688120 0.000000 
#    z 0.000000 0.000000 1.689860 
# 
# From -- ./inp_files/48092.got.cif
#   From: 2010.03.12/outbox.cif.g09.slc.cpg/sg64_25_cif.got.tgz:48092.got - 2010.04.10 20:19:32.
