data_PCOD8262271
_publ_section_title
;
Structure prediction by ZEFSAII (Michael W. Deem and Ramdas Pophale) SiO2 
 PCOD8262271
Probable space group: C M C A
;
_chemical_formula_sum "Si O2"
_cell_formula_units_Z 128
_cell_length_a 23.461562
_cell_length_b 12.427413
_cell_length_c 24.457283
_cell_angle_alpha 90.000000
_cell_angle_beta 90.000000
_cell_angle_gamma 90.000000
_cell_volume 7130.924908
_symmetry_space_group_name_H-M "C M C A"
_symmetry_group_IT_number 64
_symmetry_cell_setting 'orthorhombic'
loop_
_space_group_symop_operation_xyz
x,y,z
-x,1/2-y,1/2+z
x,-y,-z
-x,1/2+y,1/2-z
-x,-y,-z
x,1/2+y,1/2-z
-x,y,z
x,1/2-y,1/2+z
1/2+x,1/2+y,z
1/2-x,-y,1/2+z
1/2+x,1/2-y,-z
1/2-x,y,1/2-z
1/2-x,1/2-y,-z
1/2+x,y,1/2-z
1/2-x,1/2+y,z
1/2+x,-y,1/2+z
loop_
_atom_site_type_symbol
_atom_site_label
_atom_site_fract_x
_atom_site_fract_y
_atom_site_fract_z
Si Si1 0.934546 0.554340 0.141490
Si Si2 0.625048 0.065701 0.600105
Si Si3 0.067623 0.166287 0.693527
Si Si4 0.566349 0.659120 0.109090
Si Si5 0.724488 0.951162 0.558604
Si Si6 0.652945 0.086779 0.046936
Si Si7 0.868175 0.310774 0.507869
Si Si8 0.565960 0.214719 0.685048
O O1 0.910696 0.449931 0.173044
O O2 0.899746 0.572760 0.086737
O O3 0.928403 0.656883 0.180946
O O4 0.000000 0.537209 0.123868
O O5 0.612504 0.102062 0.537627
O O6 0.608553 0.160206 0.641503
O O7 0.589458 0.961095 0.616351
O O8 0.692843 0.034725 0.600170
O O9 0.092881 0.260503 0.654803
O O10 0.088739 0.182054 0.755416
O O11 0.000000 0.170682 0.692511
O O12 0.500000 0.652823 0.118425
O O13 0.578728 0.707044 0.048684
O O14 0.787259 0.920642 0.581081
O O15 0.682674 0.850442 0.547981
O O16 0.738211 0.000000 0.500000
O O17 0.652070 0.203564 0.020568
O O18 0.645876 0.000000 0.000000
O O19 0.500000 0.179254 0.674727
#
# Coordination Sequence:
#
# PCOD8262271 Si02
#       8
#    16  16  16  16  16  16  16  16
#     4  10  21  36  53  82 112 139 182 221 265 331
#     4  10  19  34  53  81 108 138 185 233 272 318
#     4   9  20  36  53  77 109 142 183 226 264 324
#     4  10  20  32  51  79 113 148 178 220 280 331
#     4   8  18  33  52  76 104 139 183 224 261 313
#     4  11  20  33  54  78 107 151 182 213 273 327
#     4  10  19  33  50  78 113 140 182 229 268 322
#     4  10  20  34  56  80 105 142 182 226 276 321
#
# _framework density 17.949985000000002
#
# number of rings (size 3 to 8) (size 9 to 14) (size 15 to 20)
#    0.000    2.250    1.250    2.625    1.750    2.250 
#    0.000    0.000    0.000    0.750    0.000    0.000 
#    0.000    0.000    0.000    0.000    0.000    0.000 
#
# Total GULP energy -793282.780119 kJ/mol
# GULP energy per Si atom -12395.043439 kJ/mol
# Density = 1.790913 g / cm^3
# Si number density = 17.949985 Si / 1000 Ang^3
#
#
#
# Elastic Constant Matrix: (Units=GPa)
#
#
# Indices 1 2 3 4 5 6 
#
# 1 52.4215 29.5556 22.3908 0.0000 0.0000 0.0000
# 2 29.5556 103.2522 33.0309 0.0000 0.0000 0.0000
# 3 22.3908 33.0309 79.8779 0.0000 0.0000 0.0000
# 4 0.0000 0.0000 0.0000 24.6792 0.0000 0.0000
# 5 0.0000 0.0000 0.0000 0.0000 8.4367 0.0000
# 6 0.0000 0.0000 0.0000 0.0000 0.0000 23.4145
#
#
#
# Elastic Compliance Matrix: (Units=1/GPa)
#
#
# Indices 1 2 3 4 5 6 
#
# 1 0.024069 -0.005453 -0.004492 0.000000 0.000000 0.000000
# 2 -0.005453 0.012397 -0.003598 0.000000 0.000000 0.000000
# 3 -0.004492 -0.003598 0.015266 0.000000 0.000000 0.000000
# 4 0.000000 0.000000 0.000000 0.040520 0.000000 0.000000
# 5 0.000000 0.000000 0.000000 0.000000 0.118529 0.000000
# 6 0.000000 0.000000 0.000000 0.000000 0.000000 0.042709
#
#
# Mechanical properties :
#
#
# Convention : Reuss Voigt Hill
#
# Bulk Modulus (GPa) = 40.57327 45.05624 42.81475
# Shear Modulus (GPa) = 17.31358 21.34437 19.32898
#
# Velocity S-wave (km/s) = 3.10908 3.45208 3.28506
# Velocity P-wave (km/s) = 5.96164 6.40661 6.18812
#
# Compressibility (1/GPa) = 0.02464677
#
# Stress axis : x y z
#
# Youngs Moduli (GPa) = 41.54704 80.66605 65.50476
#
# Poissons Ratio (x) = 0.43984 0.29425
# Poissons Ratio (y) = 0.22654 0.23568
# Poissons Ratio (z) = 0.18663 0.29022
#
# Static dielectric constant tensor:
#      x y z
#    x 3.366960 0.000000 0.000000 
#    y 0.000000 3.563340 0.000000 
#    z 0.000000 0.000000 3.247780 
# 
# 
# High freq. dielectric constant tensor:
#      x y z
#    x 1.674280 0.000000 0.000000 
#    y 0.000000 1.711030 0.000000 
#    z 0.000000 0.000000 1.676770 
# 
# From -- ./inp_files/46765.got.cif
#   From: 2010.03.12/outbox.cif.g09.slc.cpg/sg64_24_cif.got.tgz:46765.got - 2010.04.10 20:19:32.
