data_PCOD8262404
_publ_section_title
;
Structure prediction by ZEFSAII (Michael W. Deem and Ramdas Pophale) SiO2 
 PCOD8262404
Probable space group: C M C A
;
_chemical_formula_sum "Si O2"
_cell_formula_units_Z 72
_cell_length_a 30.444713
_cell_length_b 5.126901
_cell_length_c 24.925747
_cell_angle_alpha 90.000000
_cell_angle_beta 90.000000
_cell_angle_gamma 90.000000
_cell_volume 3890.585808
_symmetry_space_group_name_H-M "C M C A"
_symmetry_group_IT_number 64
_symmetry_cell_setting 'orthorhombic'
loop_
_space_group_symop_operation_xyz
x,y,z
-x,1/2-y,1/2+z
x,-y,-z
-x,1/2+y,1/2-z
-x,-y,-z
x,1/2+y,1/2-z
-x,y,z
x,1/2-y,1/2+z
1/2+x,1/2+y,z
1/2-x,-y,1/2+z
1/2+x,1/2-y,-z
1/2-x,y,1/2-z
1/2-x,1/2-y,-z
1/2+x,y,1/2-z
1/2-x,1/2+y,z
1/2+x,-y,1/2+z
loop_
_atom_site_type_symbol
_atom_site_label
_atom_site_fract_x
_atom_site_fract_y
_atom_site_fract_z
Si Si1 0.230498 0.224475 0.440338
Si Si2 0.948934 0.905612 0.783935
Si Si3 0.085868 0.372691 0.600921
Si Si4 0.000000 0.247738 0.037168
Si Si5 0.628547 0.606631 0.442101
O O1 0.250000 0.250000 0.500000
O O2 0.245038 0.487385 0.409678
O O3 0.178761 0.192226 0.441347
O O4 0.936460 0.630470 0.757866
O O5 0.920657 0.946213 0.837257
O O6 0.000000 0.921461 0.799442
O O7 0.042055 0.252571 0.575495
O O8 0.100171 0.636492 0.570630
O O9 0.121361 0.136860 0.598181
O O10 0.000000 0.500000 0.000000
O O11 0.000000 0.000000 0.000000
O O12 0.613901 0.500000 0.500000
#
# Coordination Sequence:
#
# PCOD8262404 Si02
#       5
#    16  16  16   8  16
#     4  10  19  34  54  76 111 155 190 231 274 324
#     4  10  21  40  64  81 104 146 199 262 306 325
#     4  12  24  38  56  85 117 151 210 235 278 354
#     4  12  24  40  50  74 120 170 192 218 259 330
#     4  12  23  35  56  85 122 162 189 231 279 337
#
# _framework density 18.506209999999999
#
# number of rings (size 3 to 8) (size 9 to 14) (size 15 to 20)
#    0.000    0.889    3.333    6.667    3.111    0.000 
#    0.000    0.000    0.000    0.000    0.000    0.000 
#    0.000   62.222    0.000    0.000    0.000    0.000 
#
# Total GULP energy -446361.255382 kJ/mol
# GULP energy per Si atom -12398.923761 kJ/mol
# Density = 1.846409 g / cm^3
# Si number density = 18.506210 Si / 1000 Ang^3
#
#
#
# Elastic Constant Matrix: (Units=GPa)
#
#
# Indices 1 2 3 4 5 6 
#
# 1 93.0049 45.0925 45.8632 0.0000 0.0000 0.0000
# 2 45.0925 165.5867 34.0011 0.0000 0.0000 0.0000
# 3 45.8632 34.0011 77.2316 0.0000 0.0000 0.0000
# 4 0.0000 0.0000 0.0000 20.1751 0.0000 0.0000
# 5 0.0000 0.0000 0.0000 0.0000 11.2667 0.0000
# 6 0.0000 0.0000 0.0000 0.0000 0.0000 30.6534
#
#
#
# Elastic Compliance Matrix: (Units=1/GPa)
#
#
# Indices 1 2 3 4 5 6 
#
# 1 0.016220 -0.002682 -0.008451 0.000000 0.000000 0.000000
# 2 -0.002682 0.007083 -0.001526 0.000000 0.000000 0.000000
# 3 -0.008451 -0.001526 0.018639 0.000000 0.000000 0.000000
# 4 0.000000 0.000000 0.000000 0.049566 0.000000 0.000000
# 5 0.000000 0.000000 0.000000 0.000000 0.088757 0.000000
# 6 0.000000 0.000000 0.000000 0.000000 0.000000 0.032623
#
#
# Mechanical properties :
#
#
# Convention : Reuss Voigt Hill
#
# Bulk Modulus (GPa) = 60.15529 65.08186 62.61858
# Shear Modulus (GPa) = 20.51320 26.47682 23.49501
#
# Velocity S-wave (km/s) = 3.33295 3.78656 3.56697
# Velocity P-wave (km/s) = 6.88385 7.37301 7.13263
#
# Compressibility (1/GPa) = 0.01662364
#
# Stress axis : x y z
#
# Youngs Moduli (GPa) = 61.65259 141.18983 53.65219
#
# Poissons Ratio (x) = 0.37861 0.45344
# Poissons Ratio (y) = 0.16533 0.08186
# Poissons Ratio (z) = 0.52105 0.21541
#
# Static dielectric constant tensor:
#      x y z
#    x 3.786040 0.000000 0.000000 
#    y 0.000000 4.220540 0.000000 
#    z 0.000000 0.000000 3.094250 
# 
# 
# High freq. dielectric constant tensor:
#      x y z
#    x 1.712230 0.000000 0.000000 
#    y 0.000000 1.756120 0.000000 
#    z 0.000000 0.000000 1.672780 
# 
# From -- ./inp_files/46823.got.cif
#   From: 2010.03.12/outbox.cif.g09.slc.cpg/sg64_24_cif.got.tgz:46823.got - 2010.04.10 20:19:32.
