data_PCOD8262185
_publ_section_title
;
Structure prediction by ZEFSAII (Michael W. Deem and Ramdas Pophale) SiO2 
 PCOD8262185
Probable space group: C M C A
;
_chemical_formula_sum "Si O2"
_cell_formula_units_Z 96
_cell_length_a 16.921660
_cell_length_b 18.356151
_cell_length_c 16.808383
_cell_angle_alpha 90.000000
_cell_angle_beta 90.000000
_cell_angle_gamma 90.000000
_cell_volume 5220.961874
_symmetry_space_group_name_H-M "C M C A"
_symmetry_group_IT_number 64
_symmetry_cell_setting 'orthorhombic'
loop_
_space_group_symop_operation_xyz
x,y,z
-x,1/2-y,1/2+z
x,-y,-z
-x,1/2+y,1/2-z
-x,-y,-z
x,1/2+y,1/2-z
-x,y,z
x,1/2-y,1/2+z
1/2+x,1/2+y,z
1/2-x,-y,1/2+z
1/2+x,1/2-y,-z
1/2-x,y,1/2-z
1/2-x,1/2-y,-z
1/2+x,y,1/2-z
1/2-x,1/2+y,z
1/2+x,-y,1/2+z
loop_
_atom_site_type_symbol
_atom_site_label
_atom_site_fract_x
_atom_site_fract_y
_atom_site_fract_z
Si Si1 0.409026 0.280138 0.793679
Si Si2 0.346270 0.802713 0.349011
Si Si3 0.841795 0.423255 0.240333
Si Si4 0.332012 0.678525 0.600466
Si Si5 0.409694 0.673985 0.437963
Si Si6 0.410724 0.422811 0.712943
O O1 0.500000 0.257435 0.774537
O O2 0.346411 0.243245 0.733089
O O3 0.380925 0.253149 0.880532
O O4 0.401880 0.367361 0.787000
O O5 0.378591 0.882863 0.319565
O O6 0.260882 0.808150 0.389977
O O7 0.401975 0.758644 0.410152
O O8 0.750000 0.409975 0.250000
O O9 0.867348 0.384496 0.158011
O O10 0.858502 0.508239 0.235062
O O11 0.351168 0.656018 0.510326
O O12 0.500000 0.660816 0.463333
O O13 0.384229 0.618710 0.367522
O O14 0.500000 0.450474 0.703436
#
# Coordination Sequence:
#
# PCOD8262185 Si02
#       6
#    16  16  16  16  16  16
#     4   9  17  31  50  73  97 128 169 208 245 293
#     4   9  18  33  50  71  98 129 166 204 240 291
#     4   9  19  33  50  72  97 128 166 200 239 292
#     4  10  19  32  51  74  99 129 165 207 251 295
#     4  10  20  33  50  76 103 129 162 204 252 300
#     4   9  19  32  48  72 101 129 162 201 245 293
#
# _framework density 18.387416000000002
#
# number of rings (size 3 to 8) (size 9 to 14) (size 15 to 20)
#    0.000    2.667    0.000    4.000    0.000    7.333 
#    0.000    1.667    0.000    3.000    0.000    3.500 
#    0.000    0.000    0.000    1.000    0.000    0.000 
#
# Total GULP energy -594638.253789 kJ/mol
# GULP energy per Si atom -12388.296954 kJ/mol
# Density = 1.834557 g / cm^3
# Si number density = 18.387416 Si / 1000 Ang^3
#
#
#
# Elastic Constant Matrix: (Units=GPa)
#
#
# Indices 1 2 3 4 5 6 
#
# 1 43.6344 30.3448 19.6436 0.0000 0.0000 0.0000
# 2 30.3448 111.1579 44.1787 0.0000 0.0000 0.0000
# 3 19.6436 44.1787 68.1877 0.0000 0.0000 0.0000
# 4 0.0000 0.0000 0.0000 20.0164 0.0000 0.0000
# 5 0.0000 0.0000 0.0000 0.0000 23.0603 0.0000
# 6 0.0000 0.0000 0.0000 0.0000 0.0000 28.2289
#
#
#
# Elastic Compliance Matrix: (Units=1/GPa)
#
#
# Indices 1 2 3 4 5 6 
#
# 1 0.029227 -0.006239 -0.004378 0.000000 0.000000 0.000000
# 2 -0.006239 0.013448 -0.006916 0.000000 0.000000 0.000000
# 3 -0.004378 -0.006916 0.020407 0.000000 0.000000 0.000000
# 4 0.000000 0.000000 0.000000 0.049959 0.000000 0.000000
# 5 0.000000 0.000000 0.000000 0.000000 0.043365 0.000000
# 6 0.000000 0.000000 0.000000 0.000000 0.000000 0.035425
#
#
# Mechanical properties :
#
#
# Convention : Reuss Voigt Hill
#
# Bulk Modulus (GPa) = 35.69134 45.70158 40.69646
# Shear Modulus (GPa) = 21.16547 22.84864 22.00705
#
# Velocity S-wave (km/s) = 3.39644 3.52891 3.46331
# Velocity P-wave (km/s) = 5.90203 6.44306 6.17847
#
# Compressibility (1/GPa) = 0.02801800
#
# Stress axis : x y z
#
# Youngs Moduli (GPa) = 34.21482 74.36124 49.00243
#
# Poissons Ratio (x) = 0.46392 0.21452
# Poissons Ratio (y) = 0.21346 0.33888
# Poissons Ratio (z) = 0.14978 0.51425
#
# Static dielectric constant tensor:
#      x y z
#    x 3.254610 0.000000 0.000000 
#    y 0.000000 3.368910 0.000000 
#    z 0.000000 0.000000 3.332780 
# 
# 
# High freq. dielectric constant tensor:
#      x y z
#    x 1.706920 0.000000 0.000000 
#    y 0.000000 1.702910 0.000000 
#    z 0.000000 0.000000 1.694690 
# 
# From -- ./inp_files/33266.got.cif
#   From: 2010.03.12/outbox.cif.g09.slc.cpg/sg64_17_cif.got.tgz:33266.got - 2010.04.10 20:19:32.
