data_PCOD8262114
_publ_section_title
;
Structure prediction by ZEFSAII (Michael W. Deem and Ramdas Pophale) SiO2 
 PCOD8262114
Probable space group: C M C A
;
_chemical_formula_sum "Si O2"
_cell_formula_units_Z 88
_cell_length_a 20.477320
_cell_length_b 10.586964
_cell_length_c 21.193460
_cell_angle_alpha 90.000000
_cell_angle_beta 90.000000
_cell_angle_gamma 90.000000
_cell_volume 4594.586349
_symmetry_space_group_name_H-M "C M C A"
_symmetry_group_IT_number 64
_symmetry_cell_setting 'orthorhombic'
loop_
_space_group_symop_operation_xyz
x,y,z
-x,1/2-y,1/2+z
x,-y,-z
-x,1/2+y,1/2-z
-x,-y,-z
x,1/2+y,1/2-z
-x,y,z
x,1/2-y,1/2+z
1/2+x,1/2+y,z
1/2-x,-y,1/2+z
1/2+x,1/2-y,-z
1/2-x,y,1/2-z
1/2-x,1/2-y,-z
1/2+x,y,1/2-z
1/2-x,1/2+y,z
1/2+x,-y,1/2+z
loop_
_atom_site_type_symbol
_atom_site_label
_atom_site_fract_x
_atom_site_fract_y
_atom_site_fract_z
Si Si1 0.756027 0.943014 0.882437
Si Si2 0.110448 0.563916 0.436197
Si Si3 0.572997 0.172367 0.634807
Si Si4 0.711626 0.198535 0.685541
Si Si5 0.928976 0.798799 0.503660
Si Si6 0.828391 0.500000 0.000000
O O1 0.827365 0.888344 0.897020
O O2 0.725564 0.842829 0.834100
O O3 0.760461 0.088442 0.859489
O O4 0.713965 0.941291 0.945123
O O5 0.137911 0.500000 0.500000
O O6 0.068949 0.469335 0.392735
O O7 0.065371 0.679501 0.457035
O O8 0.500000 0.202100 0.663136
O O9 0.631513 0.186139 0.686821
O O10 0.589659 0.263621 0.575862
O O11 0.750000 0.174116 0.750000
O O12 0.875159 0.890048 0.473796
O O13 0.000000 0.863894 0.503546
#
# Coordination Sequence:
#
# PCOD8262114 Si02
#       6
#    16  16  16  16  16   8
#     4  11  22  36  59  86 115 149 190 240 291 338
#     4   9  17  30  53  83 114 146 182 225 276 343
#     4   9  18  34  57  82 109 148 192 233 281 337
#     4  11  23  40  60  82 113 153 199 243 285 337
#     4  10  19  31  49  81 122 154 178 217 282 352
#     4  12  21  32  54  84 123 146 188 230 294 350
#
# _framework density 19.152975999999999
#
# number of rings (size 3 to 8) (size 9 to 14) (size 15 to 20)
#    0.000    1.818    2.727    2.455    0.000    3.636 
#    0.000    0.000    0.000   15.273    0.000    0.000 
#    0.000    0.000    0.000    0.000    0.000    0.000 
#
# Total GULP energy -545154.120529 kJ/mol
# GULP energy per Si atom -12389.866376 kJ/mol
# Density = 1.910938 g / cm^3
# Si number density = 19.152976 Si / 1000 Ang^3
#
#
#
# Elastic Constant Matrix: (Units=GPa)
#
#
# Indices 1 2 3 4 5 6 
#
# 1 123.5742 23.7538 34.6040 0.0000 0.0000 0.0000
# 2 23.7538 73.6263 2.0184 0.0000 0.0000 0.0000
# 3 34.6040 2.0184 50.2525 0.0000 0.0000 0.0000
# 4 0.0000 0.0000 0.0000 22.0456 0.0000 0.0000
# 5 0.0000 0.0000 0.0000 0.0000 24.6772 0.0000
# 6 0.0000 0.0000 0.0000 0.0000 0.0000 19.7955
#
#
#
# Elastic Compliance Matrix: (Units=1/GPa)
#
#
# Indices 1 2 3 4 5 6 
#
# 1 0.010759 -0.003272 -0.007277 0.000000 0.000000 0.000000
# 2 -0.003272 0.014592 0.001667 0.000000 0.000000 0.000000
# 3 -0.007277 0.001667 0.024844 0.000000 0.000000 0.000000
# 4 0.000000 0.000000 0.000000 0.045361 0.000000 0.000000
# 5 0.000000 0.000000 0.000000 0.000000 0.040523 0.000000
# 6 0.000000 0.000000 0.000000 0.000000 0.000000 0.050516
#
#
# Mechanical properties :
#
#
# Convention : Reuss Voigt Hill
#
# Bulk Modulus (GPa) = 30.83533 40.91173 35.87353
# Shear Modulus (GPa) = 23.23752 25.77545 24.50649
#
# Velocity S-wave (km/s) = 3.48697 3.67245 3.58091
# Velocity P-wave (km/s) = 5.68739 6.27610 5.98898
#
# Compressibility (1/GPa) = 0.03243033
#
# Stress axis : x y z
#
# Youngs Moduli (GPa) = 92.94537 68.53106 40.25170
#
# Poissons Ratio (x) = 0.22421 0.29292
# Poissons Ratio (y) = 0.30408 -0.06709
# Poissons Ratio (z) = 0.67639 -0.11423
#
# Static dielectric constant tensor:
#      x y z
#    x 3.572830 0.000000 0.000000 
#    y 0.000000 3.564230 0.000000 
#    z 0.000000 0.000000 3.200060 
# 
# 
# High freq. dielectric constant tensor:
#      x y z
#    x 1.760570 0.000000 0.000000 
#    y 0.000000 1.747280 0.000000 
#    z 0.000000 0.000000 1.694920 
# 
# From -- ./inp_files/40030.got.cif
#   From: 2010.03.12/outbox.cif.g09.slc.cpg/sg64_21_cif.got.tgz:40030.got - 2010.04.10 20:19:32.
