data_PCOD8262528
_publ_section_title
;
Structure prediction by ZEFSAII (Michael W. Deem and Ramdas Pophale) SiO2 
 PCOD8262528
Probable space group: C M C A
;
_chemical_formula_sum "Si O2"
_cell_formula_units_Z 88
_cell_length_a 13.593763
_cell_length_b 12.559045
_cell_length_c 27.637220
_cell_angle_alpha 90.000000
_cell_angle_beta 90.000000
_cell_angle_gamma 90.000000
_cell_volume 4718.355575
_symmetry_space_group_name_H-M "C M C A"
_symmetry_group_IT_number 64
_symmetry_cell_setting 'orthorhombic'
loop_
_space_group_symop_operation_xyz
x,y,z
-x,1/2-y,1/2+z
x,-y,-z
-x,1/2+y,1/2-z
-x,-y,-z
x,1/2+y,1/2-z
-x,y,z
x,1/2-y,1/2+z
1/2+x,1/2+y,z
1/2-x,-y,1/2+z
1/2+x,1/2-y,-z
1/2-x,y,1/2-z
1/2-x,1/2-y,-z
1/2+x,y,1/2-z
1/2-x,1/2+y,z
1/2+x,-y,1/2+z
loop_
_atom_site_type_symbol
_atom_site_label
_atom_site_fract_x
_atom_site_fract_y
_atom_site_fract_z
Si Si1 0.884885 0.488685 0.324855
Si Si2 0.612665 0.762621 0.679934
Si Si3 0.804492 0.962972 0.070911
Si Si4 0.250000 0.135100 0.750000
Si Si5 0.893797 0.845099 0.420473
Si Si6 0.664861 0.328523 0.984864
O O1 0.864276 0.613302 0.323610
O O2 0.850563 0.443408 0.376677
O O3 0.819176 0.437421 0.283183
O O4 0.000000 0.461736 0.316954
O O5 0.500000 0.742774 0.694618
O O6 0.680397 0.711772 0.720137
O O7 0.638677 0.708510 0.629410
O O8 0.690070 0.929307 0.066147
O O9 0.804337 0.086114 0.056034
O O10 0.869783 0.892028 0.033091
O O11 0.912643 0.750714 0.459860
O O12 0.000000 0.903821 0.415769
O O13 0.750000 0.250000 0.000000
#
# Coordination Sequence:
#
# PCOD8262528 Si02
#       6
#    16  16  16   8  16  16
#     4  11  23  38  59  86 113 148 193 238 285 341
#     4  10  21  37  58  84 112 147 189 231 284 343
#     4  10  19  36  57  85 115 148 189 235 283 334
#     4  12  22  40  60  82 114 150 190 240 288 334
#     4  10  19  35  58  83 113 152 189 225 280 343
#     4   9  19  34  57  83 114 150 186 230 278 336
#
# _framework density 18.650565
#
# number of rings (size 3 to 8) (size 9 to 14) (size 15 to 20)
#    0.000    1.818    3.636    1.091    0.000    0.727 
#    0.000    9.091    0.000    6.545    0.000    0.000 
#    0.000    0.000    0.000    0.000    0.000    0.000 
#
# Total GULP energy -545233.493655 kJ/mol
# GULP energy per Si atom -12391.670310 kJ/mol
# Density = 1.860812 g / cm^3
# Si number density = 18.650565 Si / 1000 Ang^3
#
#
#
# Elastic Constant Matrix: (Units=GPa)
#
#
# Indices 1 2 3 4 5 6 
#
# 1 79.1541 25.2612 35.9972 0.0000 0.0000 0.0000
# 2 25.2612 44.0748 8.0029 0.0000 0.0000 0.0000
# 3 35.9972 8.0029 102.0394 0.0000 0.0000 0.0000
# 4 0.0000 0.0000 0.0000 28.5718 0.0000 0.0000
# 5 0.0000 0.0000 0.0000 0.0000 -127.2419 0.0000
# 6 0.0000 0.0000 0.0000 0.0000 0.0000 28.7955
#
#
#
# Elastic Compliance Matrix: (Units=1/GPa)
#
#
# Indices 1 2 3 4 5 6 
#
# 1 0.018226 -0.009413 -0.005691 0.000000 0.000000 0.000000
# 2 -0.009413 0.027878 0.001134 0.000000 0.000000 0.000000
# 3 -0.005691 0.001134 0.011719 0.000000 0.000000 0.000000
# 4 0.000000 0.000000 0.000000 0.035000 0.000000 0.000000
# 5 0.000000 0.000000 0.000000 0.000000 -0.007859 0.000000
# 6 0.000000 0.000000 0.000000 0.000000 0.000000 0.034728
#
#
# Mechanical properties :
#
#
# Convention : Reuss Voigt Hill
#
# Bulk Modulus (GPa) = 33.46435 40.42122 36.94279
# Shear Modulus (GPa) = 31.72769 -3.57444 14.07662
#
# Velocity S-wave (km/s) = 4.12899 -1.38589 2.75026
# Velocity P-wave (km/s) = 6.38069 4.37710 5.47139
#
# Compressibility (1/GPa) = 0.02988255
#
# Stress axis : x y z
#
# Youngs Moduli (GPa) = 54.86721 35.87120 85.33154
#
# Poissons Ratio (x) = 0.33764 0.48566
# Poissons Ratio (y) = 0.51644 -0.09678
# Poissons Ratio (z) = 0.31227 -0.04068
#
# Static dielectric constant tensor:
#      x y z
#    x 3.276810 0.000000 0.000000 
#    y 0.000000 3.526870 0.000000 
#    z 0.000000 0.000000 3.737560 
# 
# 
# High freq. dielectric constant tensor:
#      x y z
#    x 1.719320 0.000000 0.000000 
#    y 0.000000 1.724020 0.000000 
#    z 0.000000 0.000000 1.737060 
# 
# From -- ./inp_files/52671.got.cif
#   From: 2010.03.12/outbox.cif.g09.slc.cpg/sg64_27_cif.got.tgz:52671.got - 2010.04.10 20:19:32.
