data_PCOD8262831
_publ_section_title
;
Structure prediction by ZEFSAII (Michael W. Deem and Ramdas Pophale) SiO2 
 PCOD8262831
Probable space group: C M C A
;
_chemical_formula_sum "Si O2"
_cell_formula_units_Z 96
_cell_length_a 9.088561
_cell_length_b 20.549870
_cell_length_c 28.235961
_cell_angle_alpha 90.000000
_cell_angle_beta 90.000000
_cell_angle_gamma 90.000000
_cell_volume 5273.595057
_symmetry_space_group_name_H-M "C M C A"
_symmetry_group_IT_number 64
_symmetry_cell_setting 'orthorhombic'
loop_
_space_group_symop_operation_xyz
x,y,z
-x,1/2-y,1/2+z
x,-y,-z
-x,1/2+y,1/2-z
-x,-y,-z
x,1/2+y,1/2-z
-x,y,z
x,1/2-y,1/2+z
1/2+x,1/2+y,z
1/2-x,-y,1/2+z
1/2+x,1/2-y,-z
1/2-x,y,1/2-z
1/2-x,1/2-y,-z
1/2+x,y,1/2-z
1/2-x,1/2+y,z
1/2+x,-y,1/2+z
loop_
_atom_site_type_symbol
_atom_site_label
_atom_site_fract_x
_atom_site_fract_y
_atom_site_fract_z
Si Si1 0.174013 0.767143 0.200820
Si Si2 0.174215 0.633545 0.153694
Si Si3 0.331229 0.375757 0.356407
Si Si4 0.827205 0.314407 0.943302
Si Si5 0.826615 0.497368 0.799498
Si Si6 0.668386 0.681046 0.547448
O O1 0.250000 0.783451 0.250000
O O2 0.226442 0.696376 0.183119
O O3 0.224231 0.821216 0.163850
O O4 0.000000 0.770685 0.206814
O O5 0.232105 0.639628 0.099285
O O6 0.239712 0.569138 0.178406
O O7 0.000000 0.627741 0.153928
O O8 0.500000 0.359066 0.342963
O O9 0.286884 0.446042 0.336618
O O10 0.310384 0.375925 0.413658
O O11 0.762472 0.242806 0.937232
O O12 0.000000 0.306268 0.936752
O O13 0.785121 0.344372 0.994872
O O14 0.750000 0.513152 0.750000
O O15 0.000000 0.492371 0.790561
O O16 0.500000 0.704512 0.545475
#
# Coordination Sequence:
#
# PCOD8262831 Si02
#       6
#    16  16  16  16  16  16
#     4  11  21  33  51  74  99 128 167 213 256 297
#     4   9  18  33  52  74  99 131 168 207 250 298
#     4  10  20  34  51  75 104 133 166 207 252 298
#     4   9  16  30  51  75 102 132 164 201 250 302
#     4  10  21  37  53  70  99 136 172 208 251 302
#     4   9  17  29  49  77 105 130 162 204 249 297
#
# _framework density 18.203900000000001
#
# number of rings (size 3 to 8) (size 9 to 14) (size 15 to 20)
#    0.000    2.333    1.667    1.500    0.000    2.000 
#    0.000    2.500    0.000    5.000    0.000    0.000 
#    0.000    8.000    0.000    0.000    0.000    0.000 
#
# Total GULP energy -595023.042446 kJ/mol
# GULP energy per Si atom -12396.313384 kJ/mol
# Density = 1.816247 g / cm^3
# Si number density = 18.203900 Si / 1000 Ang^3
#
#
#
# Elastic Constant Matrix: (Units=GPa)
#
#
# Indices 1 2 3 4 5 6 
#
# 1 33.9483 20.6598 21.4502 0.0000 0.0000 0.0000
# 2 20.6598 76.2050 23.2032 0.0000 0.0000 0.0000
# 3 21.4502 23.2032 113.3876 0.0000 0.0000 0.0000
# 4 0.0000 0.0000 0.0000 33.5353 0.0000 0.0000
# 5 0.0000 0.0000 0.0000 0.0000 19.2967 0.0000
# 6 0.0000 0.0000 0.0000 0.0000 0.0000 20.8122
#
#
#
# Elastic Compliance Matrix: (Units=1/GPa)
#
#
# Indices 1 2 3 4 5 6 
#
# 1 0.038189 -0.008695 -0.005445 0.000000 0.000000 0.000000
# 2 -0.008695 0.015974 -0.001624 0.000000 0.000000 0.000000
# 3 -0.005445 -0.001624 0.010182 0.000000 0.000000 0.000000
# 4 0.000000 0.000000 0.000000 0.029819 0.000000 0.000000
# 5 0.000000 0.000000 0.000000 0.000000 0.051822 0.000000
# 6 0.000000 0.000000 0.000000 0.000000 0.000000 0.048049
#
#
# Mechanical properties :
#
#
# Convention : Reuss Voigt Hill
#
# Bulk Modulus (GPa) = 30.47288 39.35193 34.91241
# Shear Modulus (GPa) = 21.14142 25.27734 23.20938
#
# Velocity S-wave (km/s) = 3.41158 3.73039 3.57454
# Velocity P-wave (km/s) = 5.68283 6.34182 6.02135
#
# Compressibility (1/GPa) = 0.03281606
#
# Stress axis : x y z
#
# Youngs Moduli (GPa) = 26.18577 62.60031 98.21539
#
# Poissons Ratio (x) = 0.54433 0.53478
# Poissons Ratio (y) = 0.22769 0.15950
# Poissons Ratio (z) = 0.14258 0.10166
#
# Static dielectric constant tensor:
#      x y z
#    x 3.179950 0.000000 0.000000 
#    y 0.000000 3.347000 0.000000 
#    z 0.000000 0.000000 3.766600 
# 
# 
# High freq. dielectric constant tensor:
#      x y z
#    x 1.685310 0.000000 0.000000 
#    y 0.000000 1.682540 0.000000 
#    z 0.000000 0.000000 1.727660 
# 
# From -- ./inp_files/48097.got.cif
#   From: 2010.03.12/outbox.cif.g09.slc.cpg/sg64_25_cif.got.tgz:48097.got - 2010.04.10 20:19:32.
