data_PCOD8262055
_publ_section_title
;
Structure prediction by ZEFSAII (Michael W. Deem and Ramdas Pophale) SiO2 
 PCOD8262055
Probable space group: C M C A
;
_chemical_formula_sum "Si O2"
_cell_formula_units_Z 96
_cell_length_a 9.060701
_cell_length_b 32.735532
_cell_length_c 18.867628
_cell_angle_alpha 90.000000
_cell_angle_beta 90.000000
_cell_angle_gamma 90.000000
_cell_volume 5596.268039
_symmetry_space_group_name_H-M "C M C A"
_symmetry_group_IT_number 64
_symmetry_cell_setting 'orthorhombic'
loop_
_space_group_symop_operation_xyz
x,y,z
-x,1/2-y,1/2+z
x,-y,-z
-x,1/2+y,1/2-z
-x,-y,-z
x,1/2+y,1/2-z
-x,y,z
x,1/2-y,1/2+z
1/2+x,1/2+y,z
1/2-x,-y,1/2+z
1/2+x,1/2-y,-z
1/2-x,y,1/2-z
1/2-x,1/2-y,-z
1/2+x,y,1/2-z
1/2-x,1/2+y,z
1/2+x,-y,1/2+z
loop_
_atom_site_type_symbol
_atom_site_label
_atom_site_fract_x
_atom_site_fract_y
_atom_site_fract_z
Si Si1 0.172785 0.544135 0.527501
Si Si2 0.834266 0.349528 0.139542
Si Si3 0.166752 0.773669 0.100881
Si Si4 0.666556 0.803038 0.560398
Si Si5 0.335028 0.878670 0.979536
Si Si6 0.173551 0.928457 0.182101
O O1 0.221797 0.500000 0.500000
O O2 0.256939 0.577317 0.480037
O O3 0.215812 0.547363 0.610481
O O4 0.000000 0.552135 0.517172
O O5 0.757192 0.305549 0.149345
O O6 0.841490 0.360451 0.057489
O O7 0.735568 0.382525 0.179912
O O8 0.000000 0.348440 0.171279
O O9 0.244306 0.729666 0.107289
O O10 0.000000 0.770133 0.129534
O O11 0.166041 0.788995 0.020561
O O12 0.500000 0.806218 0.589297
O O13 0.743603 0.847222 0.569267
O O14 0.500000 0.883611 0.948641
O O15 0.250000 0.950491 0.250000
O O16 0.000000 0.927045 0.193854
#
# Coordination Sequence:
#
# PCOD8262055 Si02
#       6
#    16  16  16  16  16  16
#     4   9  18  32  48  65  87 117 151 187 231 283
#     4   9  16  26  39  56  80 110 143 176 212 256
#     4   9  15  22  33  51  76 106 140 175 209 245
#     4   9  15  22  33  50  75 108 142 174 209 250
#     4   9  16  25  38  57  81 109 141 178 220 265
#     4  10  19  31  47  66  89 117 149 185 225 271
#
# _framework density 17.15429
#
# number of rings (size 3 to 8) (size 9 to 14) (size 15 to 20)
#    0.000    2.833    0.000    2.500    0.000    9.000 
#    0.000    0.000    0.000    0.000    0.000    0.000 
#    0.000    1.333    0.000   11.333    0.000   17.500 
#
# Total GULP energy -595080.225642 kJ/mol
# GULP energy per Si atom -12397.504701 kJ/mol
# Density = 1.711525 g / cm^3
# Si number density = 17.154290 Si / 1000 Ang^3
#
#
#
# Elastic Constant Matrix: (Units=GPa)
#
#
# Indices 1 2 3 4 5 6 
#
# 1 127.3787 70.3206 23.8846 0.0000 0.0000 0.0000
# 2 70.3206 141.0850 32.9211 0.0000 0.0000 0.0000
# 3 23.8846 32.9211 36.6416 0.0000 0.0000 0.0000
# 4 0.0000 0.0000 0.0000 10.2455 0.0000 0.0000
# 5 0.0000 0.0000 0.0000 0.0000 16.4714 0.0000
# 6 0.0000 0.0000 0.0000 0.0000 0.0000 29.0993
#
#
#
# Elastic Compliance Matrix: (Units=1/GPa)
#
#
# Indices 1 2 3 4 5 6 
#
# 1 0.011062 -0.004847 -0.002856 0.000000 0.000000 0.000000
# 2 -0.004847 0.011092 -0.006806 0.000000 0.000000 0.000000
# 3 -0.002856 -0.006806 0.035268 0.000000 0.000000 0.000000
# 4 0.000000 0.000000 0.000000 0.097603 0.000000 0.000000
# 5 0.000000 0.000000 0.000000 0.000000 0.060711 0.000000
# 6 0.000000 0.000000 0.000000 0.000000 0.000000 0.034365
#
#
# Mechanical properties :
#
#
# Convention : Reuss Voigt Hill
#
# Bulk Modulus (GPa) = 35.20647 62.15087 48.67867
# Shear Modulus (GPa) = 17.32574 23.02852 20.17713
#
# Velocity S-wave (km/s) = 3.18149 3.66790 3.43332
# Velocity P-wave (km/s) = 5.83642 7.36527 6.64496
#
# Compressibility (1/GPa) = 0.02840387
#
# Stress axis : x y z
#
# Youngs Moduli (GPa) = 90.39914 90.15424 28.35443
#
# Poissons Ratio (x) = 0.43700 0.08097
# Poissons Ratio (y) = 0.43819 0.19298
# Poissons Ratio (z) = 0.25815 0.61360
#
# Static dielectric constant tensor:
#      x y z
#    x 3.436130 0.000000 0.000000 
#    y 0.000000 3.171520 0.000000 
#    z 0.000000 0.000000 2.773080 
# 
# 
# High freq. dielectric constant tensor:
#      x y z
#    x 1.681740 0.000000 0.000000 
#    y 0.000000 1.650280 0.000000 
#    z 0.000000 0.000000 1.597480 
# 
# From -- ./inp_files/48368.got.cif
#   From: 2010.03.12/outbox.cif.g09.slc.cpg/sg64_25_cif.got.tgz:48368.got - 2010.04.10 20:19:32.
