data_PCOD8262228
_publ_section_title
;
Structure prediction by ZEFSAII (Michael W. Deem and Ramdas Pophale) SiO2 
 PCOD8262228
Probable space group: C M C A
;
_chemical_formula_sum "Si O2"
_cell_formula_units_Z 96
_cell_length_a 8.981318
_cell_length_b 23.273681
_cell_length_c 25.592697
_cell_angle_alpha 90.000000
_cell_angle_beta 90.000000
_cell_angle_gamma 90.000000
_cell_volume 5349.598716
_symmetry_space_group_name_H-M "C M C A"
_symmetry_group_IT_number 64
_symmetry_cell_setting 'orthorhombic'
loop_
_space_group_symop_operation_xyz
x,y,z
-x,1/2-y,1/2+z
x,-y,-z
-x,1/2+y,1/2-z
-x,-y,-z
x,1/2+y,1/2-z
-x,y,z
x,1/2-y,1/2+z
1/2+x,1/2+y,z
1/2-x,-y,1/2+z
1/2+x,1/2-y,-z
1/2-x,y,1/2-z
1/2-x,1/2-y,-z
1/2+x,y,1/2-z
1/2-x,1/2+y,z
1/2+x,-y,1/2+z
loop_
_atom_site_type_symbol
_atom_site_label
_atom_site_fract_x
_atom_site_fract_y
_atom_site_fract_z
Si Si1 0.824870 0.374238 0.399923
Si Si2 0.174928 0.564629 0.196294
Si Si3 0.169957 0.932532 0.493980
Si Si4 0.824996 0.432524 0.196131
Si Si5 0.674450 0.252176 0.055940
Si Si6 0.324161 0.368702 0.596428
O O1 0.774830 0.415410 0.446486
O O2 0.739602 0.391305 0.347837
O O3 0.778574 0.308990 0.412981
O O4 0.000000 0.380972 0.391169
O O5 0.250000 0.584685 0.250000
O O6 0.214059 0.498638 0.182949
O O7 0.241676 0.603936 0.149603
O O8 0.000000 0.573210 0.203049
O O9 0.235490 0.903184 0.546104
O O10 0.000000 0.912391 0.482953
O O11 0.177201 0.000000 0.500000
O O12 0.750000 0.413689 0.250000
O O13 0.000000 0.422951 0.200475
O O14 0.500000 0.250330 0.045144
O O15 0.724183 0.197766 0.091178
O O16 0.750000 0.250000 0.000000
O O17 0.500000 0.376497 0.598589
#
# Coordination Sequence:
#
# PCOD8262228 Si02
#       6
#    16  16  16  16  16  16
#     4  11  22  34  51  79 111 142 178 221 270 322
#     4   9  18  34  56  80 104 134 173 215 265 318
#     4  10  19  32  53  78 103 137 179 220 269 328
#     4  10  20  36  58  81 107 140 178 220 267 323
#     4  10  20  35  54  75 104 144 184 221 263 315
#     4   9  17  32  53  75 103 138 175 216 261 313
#
# _framework density 17.945271000000002
#
# number of rings (size 3 to 8) (size 9 to 14) (size 15 to 20)
#    0.000    2.167    1.667    2.000    0.000    4.333 
#    0.000    2.500    0.000    2.000    0.000    0.000 
#    0.000    0.000    0.000    0.000    0.000    0.000 
#
# Total GULP energy -595278.405726 kJ/mol
# GULP energy per Si atom -12401.633453 kJ/mol
# Density = 1.790443 g / cm^3
# Si number density = 17.945271 Si / 1000 Ang^3
#
#
#
# Elastic Constant Matrix: (Units=GPa)
#
#
# Indices 1 2 3 4 5 6 
#
# 1 50.4492 38.9028 50.5481 0.0000 0.0000 0.0000
# 2 38.9028 113.8025 79.0449 0.0000 0.0000 0.0000
# 3 50.5481 79.0449 167.9074 0.0000 0.0000 0.0000
# 4 0.0000 0.0000 0.0000 16.1360 0.0000 0.0000
# 5 0.0000 0.0000 0.0000 0.0000 33.0690 0.0000
# 6 0.0000 0.0000 0.0000 0.0000 0.0000 -57.5117
#
#
#
# Elastic Compliance Matrix: (Units=1/GPa)
#
#
# Indices 1 2 3 4 5 6 
#
# 1 0.031006 -0.006115 -0.006455 0.000000 0.000000 0.000000
# 2 -0.006115 0.014263 -0.004873 0.000000 0.000000 0.000000
# 3 -0.006455 -0.004873 0.010193 0.000000 0.000000 0.000000
# 4 0.000000 0.000000 0.000000 0.061973 0.000000 0.000000
# 5 0.000000 0.000000 0.000000 0.000000 0.030240 0.000000
# 6 0.000000 0.000000 0.000000 0.000000 0.000000 -0.017388
#
#
# Mechanical properties :
#
#
# Convention : Reuss Voigt Hill
#
# Bulk Modulus (GPa) = 48.60633 74.35006 61.47819
# Shear Modulus (GPa) = 29.06431 9.24954 19.15693
#
# Velocity S-wave (km/s) = 4.02880 2.27277 3.27084
# Velocity P-wave (km/s) = 6.98472 6.95765 6.97120
#
# Compressibility (1/GPa) = 0.02057345
#
# Stress axis : x y z
#
# Youngs Moduli (GPa) = 32.25223 70.11363 98.10509
#
# Poissons Ratio (x) = 0.42878 0.63329
# Poissons Ratio (y) = 0.19724 0.47809
# Poissons Ratio (z) = 0.20820 0.34168
#
# Static dielectric constant tensor:
#      x y z
#    x 3.237220 0.000000 0.000000 
#    y 0.000000 3.547420 0.000000 
#    z 0.000000 0.000000 3.450740 
# 
# 
# High freq. dielectric constant tensor:
#      x y z
#    x 1.679380 0.000000 0.000000 
#    y 0.000000 1.696570 0.000000 
#    z 0.000000 0.000000 1.699680 
# 
# From -- ./inp_files/42982.got.cif
#   From: 2010.03.12/outbox.cif.g09.slc.cpg/sg64_22_cif.got.tgz:42982.got - 2010.04.10 20:19:32.
