data_PCOD8262354
_publ_section_title
;
Structure prediction by ZEFSAII (Michael W. Deem and Ramdas Pophale) SiO2 
 PCOD8262354
Probable space group: C M C A
;
_chemical_formula_sum "Si O2"
_cell_formula_units_Z 64
_cell_length_a 8.663306
_cell_length_b 20.436931
_cell_length_c 19.186831
_cell_angle_alpha 90.000000
_cell_angle_beta 90.000000
_cell_angle_gamma 90.000000
_cell_volume 3397.055040
_symmetry_space_group_name_H-M "C M C A"
_symmetry_group_IT_number 64
_symmetry_cell_setting 'orthorhombic'
loop_
_space_group_symop_operation_xyz
x,y,z
-x,1/2-y,1/2+z
x,-y,-z
-x,1/2+y,1/2-z
-x,-y,-z
x,1/2+y,1/2-z
-x,y,z
x,1/2-y,1/2+z
1/2+x,1/2+y,z
1/2-x,-y,1/2+z
1/2+x,1/2-y,-z
1/2-x,y,1/2-z
1/2-x,1/2-y,-z
1/2+x,y,1/2-z
1/2-x,1/2+y,z
1/2+x,-y,1/2+z
loop_
_atom_site_type_symbol
_atom_site_label
_atom_site_fract_x
_atom_site_fract_y
_atom_site_fract_z
Si Si1 0.317428 0.760803 0.822916
Si Si2 0.321854 0.069556 0.969117
Si Si3 0.679264 0.619615 0.678841
Si Si4 0.180702 0.690560 0.457268
O O1 0.500000 0.761693 0.820680
O O2 0.250000 0.785766 0.750000
O O3 0.261029 0.687660 0.840152
O O4 0.257028 0.810785 0.881091
O O5 0.500000 0.085661 0.986121
O O6 0.294780 0.069882 0.885421
O O7 0.213908 0.122578 0.005083
O O8 0.272519 0.000000 0.000000
O O9 0.500000 0.634234 0.691698
O O10 0.750000 0.589210 0.750000
O O11 0.250000 0.750000 0.500000
O O12 0.000000 0.701600 0.450225
#
# Coordination Sequence:
#
# PCOD8262354 Si02
#       4
#    16  16  16  16
#     4  11  21  35  57  86 119 152 191 243 295 350
#     4  10  22  40  60  84 117 158 199 243 294 350
#     4  10  19  33  56  83 114 149 192 239 290 350
#     4  12  23  37  59  87 117 152 195 244 294 346
#
# _framework density 18.839846999999999
#
# number of rings (size 3 to 8) (size 9 to 14) (size 15 to 20)
#    0.000    1.250    2.500    6.750    0.000    1.500 
#    0.000    1.250    0.000    3.000    0.000    0.000 
#    0.000    0.000    0.000    0.000    0.000    0.000 
#
# Total GULP energy -396913.997461 kJ/mol
# GULP energy per Si atom -12403.562421 kJ/mol
# Density = 1.879697 g / cm^3
# Si number density = 18.839847 Si / 1000 Ang^3
#
#
#
# Elastic Constant Matrix: (Units=GPa)
#
#
# Indices 1 2 3 4 5 6 
#
# 1 160.8308 40.0850 64.9347 0.0000 0.0000 0.0000
# 2 40.0850 80.8651 58.2451 0.0000 0.0000 0.0000
# 3 64.9347 58.2451 157.6095 0.0000 0.0000 0.0000
# 4 0.0000 0.0000 0.0000 31.7224 0.0000 0.0000
# 5 0.0000 0.0000 0.0000 0.0000 35.2441 0.0000
# 6 0.0000 0.0000 0.0000 0.0000 0.0000 23.5981
#
#
#
# Elastic Compliance Matrix: (Units=1/GPa)
#
#
# Indices 1 2 3 4 5 6 
#
# 1 0.007709 -0.002090 -0.002404 0.000000 0.000000 0.000000
# 2 -0.002090 0.017419 -0.005576 0.000000 0.000000 0.000000
# 3 -0.002404 -0.005576 0.009396 0.000000 0.000000 0.000000
# 4 0.000000 0.000000 0.000000 0.031523 0.000000 0.000000
# 5 0.000000 0.000000 0.000000 0.000000 0.028374 0.000000
# 6 0.000000 0.000000 0.000000 0.000000 0.000000 0.042376
#
#
# Mechanical properties :
#
#
# Convention : Reuss Voigt Hill
#
# Bulk Modulus (GPa) = 69.52242 80.64831 75.08537
# Shear Modulus (GPa) = 30.91556 33.84898 32.38227
#
# Velocity S-wave (km/s) = 4.05528 4.24331 4.15036
# Velocity P-wave (km/s) = 7.67522 8.17972 7.93148
#
# Compressibility (1/GPa) = 0.01438385
#
# Stress axis : x y z
#
# Youngs Moduli (GPa) = 129.71612 57.41002 106.43101
#
# Poissons Ratio (x) = 0.11999 0.25583
# Poissons Ratio (y) = 0.27112 0.59346
# Poissons Ratio (z) = 0.31181 0.32012
#
# Static dielectric constant tensor:
#      x y z
#    x 3.566100 0.000000 0.000000 
#    y 0.000000 3.289670 0.000000 
#    z 0.000000 0.000000 3.742480 
# 
# 
# High freq. dielectric constant tensor:
#      x y z
#    x 1.747950 0.000000 0.000000 
#    y 0.000000 1.691170 0.000000 
#    z 0.000000 0.000000 1.753900 
# 
# From -- ./inp_files/29244.got.cif
#   From: 2010.03.12/outbox.cif.g09.slc.cpg/sg64_15_cif.got.tgz:29244.got - 2010.04.10 20:19:32.
