data_PCOD8262370
_publ_section_title
;
Structure prediction by ZEFSAII (Michael W. Deem and Ramdas Pophale) SiO2 
 PCOD8262370
Probable space group: C M C A
;
_chemical_formula_sum "Si O2"
_cell_formula_units_Z 80
_cell_length_a 16.082222
_cell_length_b 18.090384
_cell_length_c 13.503236
_cell_angle_alpha 90.000000
_cell_angle_beta 90.000000
_cell_angle_gamma 90.000000
_cell_volume 3928.544677
_symmetry_space_group_name_H-M "C M C A"
_symmetry_group_IT_number 64
_symmetry_cell_setting 'orthorhombic'
loop_
_space_group_symop_operation_xyz
x,y,z
-x,1/2-y,1/2+z
x,-y,-z
-x,1/2+y,1/2-z
-x,-y,-z
x,1/2+y,1/2-z
-x,y,z
x,1/2-y,1/2+z
1/2+x,1/2+y,z
1/2-x,-y,1/2+z
1/2+x,1/2-y,-z
1/2-x,y,1/2-z
1/2-x,1/2-y,-z
1/2+x,y,1/2-z
1/2-x,1/2+y,z
1/2+x,-y,1/2+z
loop_
_atom_site_type_symbol
_atom_site_label
_atom_site_fract_x
_atom_site_fract_y
_atom_site_fract_z
Si Si1 0.597508 0.526064 0.694905
Si Si2 0.405825 0.877086 0.890545
Si Si3 0.339413 0.820441 0.699917
Si Si4 0.597888 0.038605 0.399756
Si Si5 0.400818 0.323887 0.402345
O O1 0.500000 0.521616 0.677331
O O2 0.637324 0.456844 0.633327
O O3 0.618334 0.518102 0.810925
O O4 0.630555 0.604212 0.657345
O O5 0.500000 0.892014 0.921645
O O6 0.403712 0.827294 0.791423
O O7 0.367135 0.834867 0.985066
O O8 0.250000 0.826595 0.750000
O O9 0.353225 0.884970 0.618972
O O10 0.351560 0.743885 0.644077
O O11 0.500000 0.057116 0.405737
O O12 0.629630 0.000000 0.500000
O O13 0.500000 0.310291 0.395026
#
# Coordination Sequence:
#
# PCOD8262370 Si02
#       5
#    16  16  16  16  16
#     4   8  15  30  54  83 106 129 176 237 286 327
#     4   9  18  35  57  78 104 140 187 242 287 325
#     4  11  23  37  51  79 122 154 178 221 286 347
#     4   9  18  36  61  83 105 140 191 243 281 323
#     4  10  19  33  57  82 104 140 188 231 276 334
#
# _framework density 20.363775
#
# number of rings (size 3 to 8) (size 9 to 14) (size 15 to 20)
#    0.000    2.600    0.000    3.600    0.000    4.800 
#    0.000   12.000    0.000    0.000    0.000    0.000 
#    0.000    0.000    0.000    0.000    0.000    0.000 
#
# Total GULP energy -495763.747622 kJ/mol
# GULP energy per Si atom -12394.093691 kJ/mol
# Density = 2.031743 g / cm^3
# Si number density = 20.363775 Si / 1000 Ang^3
#
#
#
# Elastic Constant Matrix: (Units=GPa)
#
#
# Indices 1 2 3 4 5 6 
#
# 1 37.5883 31.0866 25.5386 0.0000 0.0000 0.0000
# 2 31.0866 170.5070 110.6790 0.0000 0.0000 0.0000
# 3 25.5386 110.6790 171.4256 0.0000 0.0000 0.0000
# 4 0.0000 0.0000 0.0000 41.7993 0.0000 0.0000
# 5 0.0000 0.0000 0.0000 0.0000 20.0997 0.0000
# 6 0.0000 0.0000 0.0000 0.0000 0.0000 11.7275
#
#
#
# Elastic Compliance Matrix: (Units=1/GPa)
#
#
# Indices 1 2 3 4 5 6 
#
# 1 0.031613 -0.004659 -0.001702 0.000000 0.000000 0.000000
# 2 -0.004659 0.010783 -0.006268 0.000000 0.000000 0.000000
# 3 -0.001702 -0.006268 0.010134 0.000000 0.000000 0.000000
# 4 0.000000 0.000000 0.000000 0.023924 0.000000 0.000000
# 5 0.000000 0.000000 0.000000 0.000000 0.049752 0.000000
# 6 0.000000 0.000000 0.000000 0.000000 0.000000 0.085270
#
#
# Mechanical properties :
#
#
# Convention : Reuss Voigt Hill
#
# Bulk Modulus (GPa) = 36.66638 79.34772 58.00705
# Shear Modulus (GPa) = 20.33983 28.87308 24.60646
#
# Velocity S-wave (km/s) = 3.16385 3.76954 3.47990
# Velocity P-wave (km/s) = 5.60280 7.61549 6.68532
#
# Compressibility (1/GPa) = 0.02727294
#
# Stress axis : x y z
#
# Youngs Moduli (GPa) = 31.63215 92.74055 98.68203
#
# Poissons Ratio (x) = 0.43210 0.16791
# Poissons Ratio (y) = 0.14738 0.61850
# Poissons Ratio (z) = 0.05382 0.58127
#
# Static dielectric constant tensor:
#      x y z
#    x 3.277650 0.000000 0.000000 
#    y 0.000000 3.789140 0.000000 
#    z 0.000000 0.000000 3.982270 
# 
# 
# High freq. dielectric constant tensor:
#      x y z
#    x 1.754300 0.000000 0.000000 
#    y 0.000000 1.791960 0.000000 
#    z 0.000000 0.000000 1.808500 
# 
# From -- ./inp_files/26439.got.cif
#   From: 2010.03.12/outbox.cif.g09.slc.cpg/sg64_14_cif.got.tgz:26439.got - 2010.04.10 20:19:32.
