data_PCOD8262627
_publ_section_title
;
Structure prediction by ZEFSAII (Michael W. Deem and Ramdas Pophale) SiO2 
 PCOD8262627
Probable space group: C M C A
;
_chemical_formula_sum "Si O2"
_cell_formula_units_Z 96
_cell_length_a 25.492032
_cell_length_b 16.617642
_cell_length_c 11.303939
_cell_angle_alpha 90.000000
_cell_angle_beta 90.000000
_cell_angle_gamma 90.000000
_cell_volume 4788.545946
_symmetry_space_group_name_H-M "C M C A"
_symmetry_group_IT_number 64
_symmetry_cell_setting 'orthorhombic'
loop_
_space_group_symop_operation_xyz
x,y,z
-x,1/2-y,1/2+z
x,-y,-z
-x,1/2+y,1/2-z
-x,-y,-z
x,1/2+y,1/2-z
-x,y,z
x,1/2-y,1/2+z
1/2+x,1/2+y,z
1/2-x,-y,1/2+z
1/2+x,1/2-y,-z
1/2-x,y,1/2-z
1/2-x,1/2-y,-z
1/2+x,y,1/2-z
1/2-x,1/2+y,z
1/2+x,-y,1/2+z
loop_
_atom_site_type_symbol
_atom_site_label
_atom_site_fract_x
_atom_site_fract_y
_atom_site_fract_z
Si Si1 0.561731 0.084917 0.444323
Si Si2 0.129254 0.702160 0.598103
Si Si3 0.793516 0.192639 0.103386
Si Si4 0.803586 0.642914 0.789850
Si Si5 0.123561 0.867858 0.728900
Si Si6 0.696049 0.084821 0.033753
O O1 0.500000 0.091043 0.456860
O O2 0.584410 0.160377 0.519777
O O3 0.575127 0.093592 0.302846
O O4 0.581684 0.000000 0.500000
O O5 0.179946 0.724998 0.518224
O O6 0.150482 0.637379 0.693127
O O7 0.108754 0.781750 0.668132
O O8 0.783274 0.266141 0.190208
O O9 0.832902 0.133019 0.168497
O O10 0.739691 0.146492 0.078859
O O11 0.750000 0.595626 0.750000
O O12 0.829427 0.612488 0.910387
O O13 0.147978 0.924703 0.626649
O O14 0.722671 0.000000 0.000000
#
# Coordination Sequence:
#
# PCOD8262627 Si02
#       6
#    16  16  16  16  16  16
#     4  10  24  45  69  91 119 157 201 264 334 383
#     4  10  20  38  65  88 116 159 210 250 301 366
#     4  10  19  37  55  81 121 166 202 241 290 350
#     4  11  20  33  56  80 119 164 201 239 284 354
#     4  10  22  39  62  88 120 156 208 259 302 364
#     4  12  24  34  53  86 128 168 206 244 301 358
#
# _framework density 20.047840000000001
#
# number of rings (size 3 to 8) (size 9 to 14) (size 15 to 20)
#    0.000    1.500    3.333    3.000    2.333    4.667 
#    0.000    0.000    0.000    0.500    0.000    0.000 
#    0.000    0.000    0.000    0.000    0.000    0.000 
#
# Total GULP energy -594643.039394 kJ/mol
# GULP energy per Si atom -12388.396654 kJ/mol
# Density = 2.000221 g / cm^3
# Si number density = 20.047840 Si / 1000 Ang^3
#
#
#
# Elastic Constant Matrix: (Units=GPa)
#
#
# Indices 1 2 3 4 5 6 
#
# 1 66.8959 27.1533 36.4706 0.0000 0.0000 0.0000
# 2 27.1533 63.1904 23.3319 0.0000 0.0000 0.0000
# 3 36.4706 23.3319 122.6800 0.0000 0.0000 0.0000
# 4 0.0000 0.0000 0.0000 21.4649 0.0000 0.0000
# 5 0.0000 0.0000 0.0000 0.0000 32.8129 0.0000
# 6 0.0000 0.0000 0.0000 0.0000 0.0000 11.5741
#
#
#
# Elastic Compliance Matrix: (Units=1/GPa)
#
#
# Indices 1 2 3 4 5 6 
#
# 1 0.020368 -0.007009 -0.004722 0.000000 0.000000 0.000000
# 2 -0.007009 0.019432 -0.001612 0.000000 0.000000 0.000000
# 3 -0.004722 -0.001612 0.009862 0.000000 0.000000 0.000000
# 4 0.000000 0.000000 0.000000 0.046588 0.000000 0.000000
# 5 0.000000 0.000000 0.000000 0.000000 0.030476 0.000000
# 6 0.000000 0.000000 0.000000 0.000000 0.000000 0.086400
#
#
# Mechanical properties :
#
#
# Convention : Reuss Voigt Hill
#
# Bulk Modulus (GPa) = 43.52385 47.40865 45.46625
# Shear Modulus (GPa) = 20.20451 24.22441 22.21446
#
# Velocity S-wave (km/s) = 3.17805 3.47988 3.33238
# Velocity P-wave (km/s) = 5.93497 6.31230 6.12654
#
# Compressibility (1/GPa) = 0.02297591
#
# Stress axis : x y z
#
# Youngs Moduli (GPa) = 49.09700 51.46120 101.40260
#
# Poissons Ratio (x) = 0.36067 0.47883
# Poissons Ratio (y) = 0.34410 0.16348
# Poissons Ratio (z) = 0.23184 0.08296
#
# Static dielectric constant tensor:
#      x y z
#    x 3.278710 0.000000 0.000000 
#    y 0.000000 3.648110 0.000000 
#    z 0.000000 0.000000 4.119550 
# 
# 
# High freq. dielectric constant tensor:
#      x y z
#    x 1.736340 0.000000 0.000000 
#    y 0.000000 1.768800 0.000000 
#    z 0.000000 0.000000 1.813260 
# 
# From -- ./inp_files/18364.got.cif
#   From: 2010.03.12/outbox.cif.g09.slc.cpg/sg64_10_cif.got.tgz:18364.got - 2010.04.10 20:19:32.
