data_PCOD8262573
_publ_section_title
;
Structure prediction by ZEFSAII (Michael W. Deem and Ramdas Pophale) SiO2 
 PCOD8262573
Probable space group: C M C A
;
_chemical_formula_sum "Si O2"
_cell_formula_units_Z 80
_cell_length_a 24.462301
_cell_length_b 10.565193
_cell_length_c 16.315082
_cell_angle_alpha 90.000000
_cell_angle_beta 90.000000
_cell_angle_gamma 90.000000
_cell_volume 4216.615507
_symmetry_space_group_name_H-M "C M C A"
_symmetry_group_IT_number 64
_symmetry_cell_setting 'orthorhombic'
loop_
_space_group_symop_operation_xyz
x,y,z
-x,1/2-y,1/2+z
x,-y,-z
-x,1/2+y,1/2-z
-x,-y,-z
x,1/2+y,1/2-z
-x,y,z
x,1/2-y,1/2+z
1/2+x,1/2+y,z
1/2-x,-y,1/2+z
1/2+x,1/2-y,-z
1/2-x,y,1/2-z
1/2-x,1/2-y,-z
1/2+x,y,1/2-z
1/2-x,1/2+y,z
1/2+x,-y,1/2+z
loop_
_atom_site_type_symbol
_atom_site_label
_atom_site_fract_x
_atom_site_fract_y
_atom_site_fract_z
Si Si1 0.356646 0.163208 0.547221
Si Si2 0.119430 0.949999 0.725450
Si Si3 0.815478 0.930097 0.882693
Si Si4 0.804514 0.078800 0.419671
Si Si5 0.935614 0.184135 0.814197
O O1 0.357575 0.122302 0.452194
O O2 0.338338 0.305042 0.548304
O O3 0.415088 0.151004 0.593606
O O4 0.312905 0.081112 0.600079
O O5 0.159799 0.898579 0.795249
O O6 0.157834 0.989703 0.648529
O O7 0.081024 0.828511 0.708027
O O8 0.086946 0.077070 0.750986
O O9 0.754098 0.876171 0.884457
O O10 0.792305 0.000000 0.500000
O O11 0.000000 0.174487 0.812648
#
# Coordination Sequence:
#
# PCOD8262573 Si02
#       5
#    16  16  16  16  16
#     4   9  20  35  54  82 110 146 191 232 274 342
#     4  10  23  36  59  87 113 147 195 233 279 346
#     4  10  19  36  56  82 115 151 186 224 279 344
#     4  11  21  33  56  84 120 153 176 229 287 338
#     4  10  21  41  60  80 113 148 192 247 288 322
#
# _framework density 18.972562
#
# number of rings (size 3 to 8) (size 9 to 14) (size 15 to 20)
#    0.000    2.000    2.000    1.800    2.800    0.000 
#    0.000   15.000    0.000    3.000    0.000    0.000 
#    0.000    0.000    0.000    0.000    0.000    0.000 
#
# Total GULP energy -495615.252858 kJ/mol
# GULP energy per Si atom -12390.381321 kJ/mol
# Density = 1.892938 g / cm^3
# Si number density = 18.972562 Si / 1000 Ang^3
#
#
#
# Elastic Constant Matrix: (Units=GPa)
#
#
# Indices 1 2 3 4 5 6 
#
# 1 123.5785 18.0559 61.0142 0.0000 0.0000 0.0000
# 2 18.0559 40.3910 16.8794 0.0000 0.0000 0.0000
# 3 61.0142 16.8794 87.9180 0.0000 0.0000 0.0000
# 4 0.0000 0.0000 0.0000 15.5497 0.0000 0.0000
# 5 0.0000 0.0000 0.0000 0.0000 21.7728 0.0000
# 6 0.0000 0.0000 0.0000 0.0000 0.0000 19.0684
#
#
#
# Elastic Compliance Matrix: (Units=1/GPa)
#
#
# Indices 1 2 3 4 5 6 
#
# 1 0.012476 -0.002130 -0.008249 0.000000 0.000000 0.000000
# 2 -0.002130 0.027281 -0.003760 0.000000 0.000000 0.000000
# 3 -0.008249 -0.003760 0.017821 0.000000 0.000000 0.000000
# 4 0.000000 0.000000 0.000000 0.064310 0.000000 0.000000
# 5 0.000000 0.000000 0.000000 0.000000 0.045929 0.000000
# 6 0.000000 0.000000 0.000000 0.000000 0.000000 0.052443
#
#
# Mechanical properties :
#
#
# Convention : Reuss Voigt Hill
#
# Bulk Modulus (GPa) = 34.12887 49.30961 41.71924
# Shear Modulus (GPa) = 19.35696 21.67403 20.51549
#
# Velocity S-wave (km/s) = 3.19762 3.38359 3.29192
# Velocity P-wave (km/s) = 5.62678 6.42739 6.04036
#
# Compressibility (1/GPa) = 0.02930071
#
# Stress axis : x y z
#
# Youngs Moduli (GPa) = 80.15266 36.65520 56.11321
#
# Poissons Ratio (x) = 0.07807 0.46290
# Poissons Ratio (y) = 0.17071 0.21097
# Poissons Ratio (z) = 0.66122 0.13781
#
# Static dielectric constant tensor:
#      x y z
#    x 3.353710 0.000000 0.000000 
#    y 0.000000 3.571310 0.000000 
#    z 0.000000 0.000000 3.758390 
# 
# 
# High freq. dielectric constant tensor:
#      x y z
#    x 1.721330 0.000000 0.000000 
#    y 0.000000 1.742900 0.000000 
#    z 0.000000 0.000000 1.742780 
# 
# From -- ./inp_files/27047.got.cif
#   From: 2010.03.12/outbox.cif.g09.slc.cpg/sg64_14_cif.got.tgz:27047.got - 2010.04.10 20:19:32.
