data_PCOD8262362
_publ_section_title
;
Structure prediction by ZEFSAII (Michael W. Deem and Ramdas Pophale) SiO2 
 PCOD8262362
Probable space group: C M C A
;
_chemical_formula_sum "Si O2"
_cell_formula_units_Z 80
_cell_length_a 9.160518
_cell_length_b 15.264612
_cell_length_c 28.765320
_cell_angle_alpha 90.000000
_cell_angle_beta 90.000000
_cell_angle_gamma 90.000000
_cell_volume 4022.305121
_symmetry_space_group_name_H-M "C M C A"
_symmetry_group_IT_number 64
_symmetry_cell_setting 'orthorhombic'
loop_
_space_group_symop_operation_xyz
x,y,z
-x,1/2-y,1/2+z
x,-y,-z
-x,1/2+y,1/2-z
-x,-y,-z
x,1/2+y,1/2-z
-x,y,z
x,1/2-y,1/2+z
1/2+x,1/2+y,z
1/2-x,-y,1/2+z
1/2+x,1/2-y,-z
1/2-x,y,1/2-z
1/2-x,1/2-y,-z
1/2+x,y,1/2-z
1/2-x,1/2+y,z
1/2+x,-y,1/2+z
loop_
_atom_site_type_symbol
_atom_site_label
_atom_site_fract_x
_atom_site_fract_y
_atom_site_fract_z
Si Si1 0.666766 0.601216 0.385368
Si Si2 0.331746 0.850430 0.205254
Si Si3 0.327413 0.239791 0.548803
Si Si4 0.329367 0.647327 0.204365
Si Si5 0.667209 0.593771 0.604446
O O1 0.500000 0.617495 0.369427
O O2 0.718353 0.676677 0.420411
O O3 0.768974 0.598079 0.340527
O O4 0.681402 0.507433 0.411109
O O5 0.500000 0.863923 0.215911
O O6 0.250000 0.890537 0.250000
O O7 0.290745 0.749177 0.198344
O O8 0.284100 0.899782 0.158360
O O9 0.500000 0.234533 0.541518
O O10 0.250000 0.250000 0.500000
O O11 0.272930 0.150992 0.572752
O O12 0.500000 0.629510 0.209092
O O13 0.250000 0.609411 0.250000
O O14 0.500000 0.627248 0.598894
#
# Coordination Sequence:
#
# PCOD8262362 Si02
#       5
#    16  16  16  16  16
#     4  10  22  39  61  88 119 154 194 240 293 349
#     4   9  18  32  54  82 114 154 192 231 277 331
#     4  11  24  42  64  88 115 151 192 242 299 354
#     4  10  19  33  56  85 119 159 198 238 284 339
#     4  10  21  40  62  87 119 154 194 240 291 347
#
# _framework density 19.889091000000001
#
# number of rings (size 3 to 8) (size 9 to 14) (size 15 to 20)
#    0.000    2.000    2.000    1.200    0.000    4.800 
#    0.000    6.000    0.000    0.000    0.000    0.000 
#    0.000    0.000    0.000    0.000    0.000    0.000 
#
# Total GULP energy -496136.947891 kJ/mol
# GULP energy per Si atom -12403.423697 kJ/mol
# Density = 1.984382 g / cm^3
# Si number density = 19.889091 Si / 1000 Ang^3
#
#
#
# Elastic Constant Matrix: (Units=GPa)
#
#
# Indices 1 2 3 4 5 6 
#
# 1 87.8127 41.6849 60.4052 0.0000 0.0000 0.0000
# 2 41.6849 90.6461 48.7208 0.0000 0.0000 0.0000
# 3 60.4052 48.7208 126.0485 0.0000 0.0000 0.0000
# 4 0.0000 0.0000 0.0000 7.5422 0.0000 0.0000
# 5 0.0000 0.0000 0.0000 0.0000 42.0419 0.0000
# 6 0.0000 0.0000 0.0000 0.0000 0.0000 25.9192
#
#
#
# Elastic Compliance Matrix: (Units=1/GPa)
#
#
# Indices 1 2 3 4 5 6 
#
# 1 0.018456 -0.004712 -0.007023 0.000000 0.000000 0.000000
# 2 -0.004712 0.015128 -0.003589 0.000000 0.000000 0.000000
# 3 -0.007023 -0.003589 0.012686 0.000000 0.000000 0.000000
# 4 0.000000 0.000000 0.000000 0.132588 0.000000 0.000000
# 5 0.000000 0.000000 0.000000 0.000000 0.023786 0.000000
# 6 0.000000 0.000000 0.000000 0.000000 0.000000 0.038581
#
#
# Mechanical properties :
#
#
# Convention : Reuss Voigt Hill
#
# Bulk Modulus (GPa) = 64.01540 67.34768 65.68154
# Shear Modulus (GPa) = 18.04522 25.34708 21.69615
#
# Velocity S-wave (km/s) = 3.01540 3.57378 3.30640
# Velocity P-wave (km/s) = 6.66180 7.13893 6.90449
#
# Compressibility (1/GPa) = 0.01562124
#
# Stress axis : x y z
#
# Youngs Moduli (GPa) = 54.18310 66.10231 78.82533
#
# Poissons Ratio (x) = 0.31151 0.55359
# Poissons Ratio (y) = 0.25534 0.28291
# Poissons Ratio (z) = 0.38053 0.23724
#
# Static dielectric constant tensor:
#      x y z
#    x 3.644820 0.000000 0.000000 
#    y 0.000000 3.636500 0.000000 
#    z 0.000000 0.000000 3.543220 
# 
# 
# High freq. dielectric constant tensor:
#      x y z
#    x 1.773860 0.000000 0.000000 
#    y 0.000000 1.774960 0.000000 
#    z 0.000000 0.000000 1.771950 
# 
# From -- ./inp_files/47815.got.cif
#   From: 2010.03.12/outbox.cif.g09.slc.cpg/sg64_24_cif.got.tgz:47815.got - 2010.04.10 20:19:32.
