data_PCOD8262069
_publ_section_title
;
Structure prediction by ZEFSAII (Michael W. Deem and Ramdas Pophale) SiO2 
 PCOD8262069
Probable space group: C M C A
;
_chemical_formula_sum "Si O2"
_cell_formula_units_Z 96
_cell_length_a 9.010863
_cell_length_b 31.297833
_cell_length_c 19.222230
_cell_angle_alpha 90.000000
_cell_angle_beta 90.000000
_cell_angle_gamma 90.000000
_cell_volume 5421.062634
_symmetry_space_group_name_H-M "C M C A"
_symmetry_group_IT_number 64
_symmetry_cell_setting 'orthorhombic'
loop_
_space_group_symop_operation_xyz
x,y,z
-x,1/2-y,1/2+z
x,-y,-z
-x,1/2+y,1/2-z
-x,-y,-z
x,1/2+y,1/2-z
-x,y,z
x,1/2-y,1/2+z
1/2+x,1/2+y,z
1/2-x,-y,1/2+z
1/2+x,1/2-y,-z
1/2-x,y,1/2-z
1/2-x,1/2-y,-z
1/2+x,y,1/2-z
1/2-x,1/2+y,z
1/2+x,-y,1/2+z
loop_
_atom_site_type_symbol
_atom_site_label
_atom_site_fract_x
_atom_site_fract_y
_atom_site_fract_z
Si Si1 0.167409 0.500788 0.917289
Si Si2 0.326382 0.083563 0.418805
Si Si3 0.172887 0.339477 0.323707
Si Si4 0.174922 0.414554 0.422259
Si Si5 0.676061 0.163366 0.325139
Si Si6 0.826083 0.254586 0.824302
O O1 0.245290 0.458206 0.888017
O O2 0.250711 0.543023 0.890147
O O3 0.000000 0.501898 0.889483
O O4 0.175964 0.500000 0.000000
O O5 0.500000 0.074469 0.414612
O O6 0.276877 0.092883 0.497978
O O7 0.278396 0.123725 0.372894
O O8 0.250000 0.346006 0.250000
O O9 0.233224 0.374015 0.378587
O O10 0.201581 0.292306 0.357572
O O11 0.000000 0.345859 0.309696
O O12 0.000000 0.420255 0.415957
O O13 0.500000 0.167944 0.317637
O O14 0.750000 0.156614 0.250000
O O15 0.743563 0.206002 0.363090
O O16 0.750000 0.252866 0.750000
O O17 0.000000 0.264858 0.817901
#
# Coordination Sequence:
#
# PCOD8262069 Si02
#       6
#    16  16  16  16  16  16
#     4   9  17  29  47  71  95 119 151 190 230 272
#     4   9  18  32  50  69  91 122 157 189 225 274
#     4   9  18  31  49  71  94 122 155 190 227 270
#     4   9  17  32  51  69  92 123 156 188 225 272
#     4  10  19  31  48  70  93 120 155 192 230 272
#     4   9  16  28  46  67  91 121 155 187 224 271
#
# _framework density 17.708704000000001
#
# number of rings (size 3 to 8) (size 9 to 14) (size 15 to 20)
#    0.000    2.833    0.000    2.500    0.000    4.667 
#    0.000    1.667    0.000    0.000    0.000    0.000 
#    0.000    0.000    0.000    0.000    0.000    0.000 
#
# Total GULP energy -594909.737149 kJ/mol
# GULP energy per Si atom -12393.952857 kJ/mol
# Density = 1.766840 g / cm^3
# Si number density = 17.708704 Si / 1000 Ang^3
#
#
#
# Elastic Constant Matrix: (Units=GPa)
#
#
# Indices 1 2 3 4 5 6 
#
# 1 71.6074 69.0290 28.6924 0.0000 0.0000 0.0000
# 2 69.0290 205.7252 63.3493 0.0000 0.0000 0.0000
# 3 28.6924 63.3493 52.2790 0.0000 0.0000 0.0000
# 4 0.0000 0.0000 0.0000 33.1346 0.0000 0.0000
# 5 0.0000 0.0000 0.0000 0.0000 17.0278 0.0000
# 6 0.0000 0.0000 0.0000 0.0000 0.0000 27.7178
#
#
#
# Elastic Compliance Matrix: (Units=1/GPa)
#
#
# Indices 1 2 3 4 5 6 
#
# 1 0.021387 -0.005682 -0.004853 0.000000 0.000000 0.000000
# 2 -0.005682 0.009264 -0.008107 0.000000 0.000000 0.000000
# 3 -0.004853 -0.008107 0.031615 0.000000 0.000000 0.000000
# 4 0.000000 0.000000 0.000000 0.030180 0.000000 0.000000
# 5 0.000000 0.000000 0.000000 0.000000 0.058727 0.000000
# 6 0.000000 0.000000 0.000000 0.000000 0.000000 0.036078
#
#
# Mechanical properties :
#
#
# Convention : Reuss Voigt Hill
#
# Bulk Modulus (GPa) = 40.02806 72.41700 56.22253
# Shear Modulus (GPa) = 21.47199 26.81210 24.14204
#
# Velocity S-wave (km/s) = 3.48589 3.89532 3.69628
# Velocity P-wave (km/s) = 6.23334 7.82391 7.07348
#
# Compressibility (1/GPa) = 0.02498247
#
# Stress axis : x y z
#
# Youngs Moduli (GPa) = 46.75808 107.94805 31.63030
#
# Poissons Ratio (x) = 0.61333 0.15350
# Poissons Ratio (y) = 0.26567 0.25643
# Poissons Ratio (z) = 0.22691 0.87514
#
# Static dielectric constant tensor:
#      x y z
#    x 3.326950 0.000000 0.000000 
#    y 0.000000 4.019650 0.000000 
#    z 0.000000 0.000000 2.919820 
# 
# 
# High freq. dielectric constant tensor:
#      x y z
#    x 1.689480 0.000000 0.000000 
#    y 0.000000 1.708770 0.000000 
#    z 0.000000 0.000000 1.634730 
# 
# From -- ./inp_files/43210.got.cif
#   From: 2010.03.12/outbox.cif.g09.slc.cpg/sg64_22_cif.got.tgz:43210.got - 2010.04.10 20:19:32.
