data_PCOD8262397
_publ_section_title
;
Structure prediction by ZEFSAII (Michael W. Deem and Ramdas Pophale) SiO2 
 PCOD8262397
Probable space group: C M C A
;
_chemical_formula_sum "Si O2"
_cell_formula_units_Z 96
_cell_length_a 19.152493
_cell_length_b 10.277399
_cell_length_c 28.942980
_cell_angle_alpha 90.000000
_cell_angle_beta 90.000000
_cell_angle_gamma 90.000000
_cell_volume 5697.072868
_symmetry_space_group_name_H-M "C M C A"
_symmetry_group_IT_number 64
_symmetry_cell_setting 'orthorhombic'
loop_
_space_group_symop_operation_xyz
x,y,z
-x,1/2-y,1/2+z
x,-y,-z
-x,1/2+y,1/2-z
-x,-y,-z
x,1/2+y,1/2-z
-x,y,z
x,1/2-y,1/2+z
1/2+x,1/2+y,z
1/2-x,-y,1/2+z
1/2+x,1/2-y,-z
1/2-x,y,1/2-z
1/2-x,1/2-y,-z
1/2+x,y,1/2-z
1/2-x,1/2+y,z
1/2+x,-y,1/2+z
loop_
_atom_site_type_symbol
_atom_site_label
_atom_site_fract_x
_atom_site_fract_y
_atom_site_fract_z
Si Si1 0.080825 0.776051 0.109705
Si Si2 0.580814 0.473846 0.389165
Si Si3 0.670353 0.121982 0.969121
Si Si4 0.083128 0.726669 0.713727
Si Si5 0.166988 0.626918 0.527794
Si Si6 0.082770 0.484404 0.215416
O O1 0.095049 0.624634 0.099535
O O2 0.105281 0.810490 0.161673
O O3 0.124433 0.865875 0.075222
O O4 0.000000 0.809519 0.102808
O O5 0.500000 0.439349 0.397780
O O6 0.628287 0.383034 0.421265
O O7 0.602732 0.443003 0.336537
O O8 0.752197 0.121122 0.958129
O O9 0.648522 0.251688 0.995568
O O10 0.647997 0.000000 0.000000
O O11 0.115236 0.620271 0.748893
O O12 0.000000 0.729846 0.716759
O O13 0.111925 0.870780 0.726577
O O14 0.143519 0.500000 0.500000
O O15 0.000000 0.487340 0.220256
#
# Coordination Sequence:
#
# PCOD8262397 Si02
#       6
#    16  16  16  16  16  16
#     4   9  17  31  51  73  98 127 157 194 242 284
#     4   9  17  30  52  77  94 120 165 204 231 272
#     4  10  19  34  53  69  91 129 166 193 232 285
#     4   8  14  26  45  67  93 124 152 185 232 282
#     4  10  21  34  48  70  98 128 161 195 238 291
#     4   8  14  26  44  68  96 121 150 188 232 282
#
# _framework density 16.850759
#
# number of rings (size 3 to 8) (size 9 to 14) (size 15 to 20)
#    0.000    3.000    1.667    2.000    0.000    1.333 
#    3.000    0.000    0.000    1.000    0.000    4.667 
#    0.000    0.000    0.000    0.000    0.000    0.000 
#
# Total GULP energy -595083.627389 kJ/mol
# GULP energy per Si atom -12397.575571 kJ/mol
# Density = 1.681241 g / cm^3
# Si number density = 16.850759 Si / 1000 Ang^3
#
#
#
# Elastic Constant Matrix: (Units=GPa)
#
#
# Indices 1 2 3 4 5 6 
#
# 1 35.2080 33.1627 48.9186 0.0000 0.0000 0.0000
# 2 33.1627 118.4905 86.4884 0.0000 0.0000 0.0000
# 3 48.9186 86.4884 148.4261 0.0000 0.0000 0.0000
# 4 0.0000 0.0000 0.0000 33.5899 0.0000 0.0000
# 5 0.0000 0.0000 0.0000 0.0000 2.8895 0.0000
# 6 0.0000 0.0000 0.0000 0.0000 0.0000 12.0794
#
#
#
# Elastic Compliance Matrix: (Units=1/GPa)
#
#
# Indices 1 2 3 4 5 6 
#
# 1 0.053286 -0.003645 -0.015438 0.000000 0.000000 0.000000
# 2 -0.003645 0.014935 -0.007501 0.000000 0.000000 0.000000
# 3 -0.015438 -0.007501 0.016197 0.000000 0.000000 0.000000
# 4 0.000000 0.000000 0.000000 0.029771 0.000000 0.000000
# 5 0.000000 0.000000 0.000000 0.000000 0.346076 0.000000
# 6 0.000000 0.000000 0.000000 0.000000 0.000000 0.082786
#
#
# Mechanical properties :
#
#
# Convention : Reuss Voigt Hill
#
# Bulk Modulus (GPa) = 32.00150 71.02932 51.51541
# Shear Modulus (GPa) = 8.24219 18.61542 13.42881
#
# Velocity S-wave (km/s) = 2.21403 3.32734 2.82605
# Velocity P-wave (km/s) = 5.05650 7.55017 6.42547
#
# Compressibility (1/GPa) = 0.03124853
#
# Stress axis : x y z
#
# Youngs Moduli (GPa) = 18.76675 66.95679 61.74135
#
# Poissons Ratio (x) = 0.24405 0.95317
# Poissons Ratio (y) = 0.06840 0.46315
# Poissons Ratio (z) = 0.28972 0.50227
#
# Static dielectric constant tensor:
#      x y z
#    x 2.753660 0.000000 0.000000 
#    y 0.000000 3.336240 0.000000 
#    z 0.000000 0.000000 3.239520 
# 
# 
# High freq. dielectric constant tensor:
#      x y z
#    x 1.607840 0.000000 0.000000 
#    y 0.000000 1.645440 0.000000 
#    z 0.000000 0.000000 1.656770 
# 
# From -- ./inp_files/50384.got.cif
#   From: 2010.03.12/outbox.cif.g09.slc.cpg/sg64_26_cif.got.tgz:50384.got - 2010.04.10 20:19:32.
