data_PCOD8262988
_publ_section_title
;
Structure prediction by ZEFSAII (Michael W. Deem and Ramdas Pophale) SiO2 
 PCOD8262988
Probable space group: C M C A
;
_chemical_formula_sum "Si O2"
_cell_formula_units_Z 96
_cell_length_a 16.643161
_cell_length_b 14.861638
_cell_length_c 19.913731
_cell_angle_alpha 90.000000
_cell_angle_beta 90.000000
_cell_angle_gamma 90.000000
_cell_volume 4925.554505
_symmetry_space_group_name_H-M "C M C A"
_symmetry_group_IT_number 64
_symmetry_cell_setting 'orthorhombic'
loop_
_space_group_symop_operation_xyz
x,y,z
-x,1/2-y,1/2+z
x,-y,-z
-x,1/2+y,1/2-z
-x,-y,-z
x,1/2+y,1/2-z
-x,y,z
x,1/2-y,1/2+z
1/2+x,1/2+y,z
1/2-x,-y,1/2+z
1/2+x,1/2-y,-z
1/2-x,y,1/2-z
1/2-x,1/2-y,-z
1/2+x,y,1/2-z
1/2-x,1/2+y,z
1/2+x,-y,1/2+z
loop_
_atom_site_type_symbol
_atom_site_label
_atom_site_fract_x
_atom_site_fract_y
_atom_site_fract_z
Si Si1 0.168846 0.221886 0.463544
Si Si2 0.407265 0.333406 0.776275
Si Si3 0.409941 0.809950 0.574039
Si Si4 0.734585 0.939628 0.563174
Si Si5 0.094841 0.808210 0.164095
Si Si6 0.683303 0.515844 0.801180
O O1 0.250000 0.250000 0.500000
O O2 0.102575 0.224495 0.523843
O O3 0.186562 0.124719 0.431103
O O4 0.142051 0.289378 0.404726
O O5 0.500000 0.358485 0.765463
O O6 0.393606 0.284094 0.848258
O O7 0.377317 0.264841 0.719372
O O8 0.356875 0.425102 0.772736
O O9 0.500000 0.847521 0.566169
O O10 0.349613 0.888383 0.551382
O O11 0.751840 0.000000 0.500000
O O12 0.729620 0.999160 0.629433
O O13 0.116102 0.907715 0.189736
O O14 0.000000 0.802688 0.151042
O O15 0.750000 0.551589 0.750000
#
# Coordination Sequence:
#
# PCOD8262988 Si02
#       6
#    16  16  16  16  16  16
#     4  10  20  35  55  80 112 146 186 236 287 340
#     4   9  20  38  56  80 115 149 187 237 287 340
#     4   9  18  34  57  80 106 145 189 236 288 340
#     4  10  21  35  52  80 115 148 185 237 291 343
#     4  11  23  39  61  86 114 153 197 241 289 342
#     4  11  22  35  57  85 114 152 194 236 288 345
#
# _framework density 19.490190999999999
#
# number of rings (size 3 to 8) (size 9 to 14) (size 15 to 20)
#    0.000    2.000    0.000    4.000    0.000    7.000 
#    0.000    0.000    0.000    2.000    0.000    0.000 
#    0.000    0.000    0.000    0.000    0.000    0.000 
#
# Total GULP energy -595006.918880 kJ/mol
# GULP energy per Si atom -12395.977477 kJ/mol
# Density = 1.944583 g / cm^3
# Si number density = 19.490191 Si / 1000 Ang^3
#
#
#
# Elastic Constant Matrix: (Units=GPa)
#
#
# Indices 1 2 3 4 5 6 
#
# 1 70.3032 40.0512 46.1176 0.0000 0.0000 0.0000
# 2 40.0512 93.6091 54.7339 0.0000 0.0000 0.0000
# 3 46.1176 54.7339 122.3820 0.0000 0.0000 0.0000
# 4 0.0000 0.0000 0.0000 36.7151 0.0000 0.0000
# 5 0.0000 0.0000 0.0000 0.0000 33.3672 0.0000
# 6 0.0000 0.0000 0.0000 0.0000 0.0000 28.6645
#
#
#
# Elastic Compliance Matrix: (Units=1/GPa)
#
#
# Indices 1 2 3 4 5 6 
#
# 1 0.021068 -0.005920 -0.005291 0.000000 0.000000 0.000000
# 2 -0.005920 0.016129 -0.004983 0.000000 0.000000 0.000000
# 3 -0.005291 -0.004983 0.012394 0.000000 0.000000 0.000000
# 4 0.000000 0.000000 0.000000 0.027237 0.000000 0.000000
# 5 0.000000 0.000000 0.000000 0.000000 0.029970 0.000000
# 6 0.000000 0.000000 0.000000 0.000000 0.000000 0.034886
#
#
# Mechanical properties :
#
#
# Convention : Reuss Voigt Hill
#
# Bulk Modulus (GPa) = 58.13213 63.12219 60.62716
# Shear Modulus (GPa) = 27.80786 29.44211 28.62499
#
# Velocity S-wave (km/s) = 3.78135 3.89088 3.83650
# Velocity P-wave (km/s) = 6.99685 7.25549 7.12734
#
# Compressibility (1/GPa) = 0.01720219
#
# Stress axis : x y z
#
# Youngs Moduli (GPa) = 47.46590 61.99992 80.68731
#
# Poissons Ratio (x) = 0.36704 0.42694
# Poissons Ratio (y) = 0.28100 0.40204
# Poissons Ratio (z) = 0.25116 0.30892
#
# Static dielectric constant tensor:
#      x y z
#    x 3.722210 0.000000 0.000000 
#    y 0.000000 3.568180 0.000000 
#    z 0.000000 0.000000 3.976420 
# 
# 
# High freq. dielectric constant tensor:
#      x y z
#    x 1.755340 0.000000 0.000000 
#    y 0.000000 1.738130 0.000000 
#    z 0.000000 0.000000 1.778500 
# 
# From -- ./inp_files/39159.got.cif
#   From: 2010.03.12/outbox.cif.g09.slc.cpg/sg64_20_cif.got.tgz:39159.got - 2010.04.10 20:19:32.
