data_PCOD8262565
_publ_section_title
;
Structure prediction by ZEFSAII (Michael W. Deem and Ramdas Pophale) SiO2 
 PCOD8262565
Probable space group: C M C A
;
_chemical_formula_sum "Si O2"
_cell_formula_units_Z 88
_cell_length_a 22.689796
_cell_length_b 14.079372
_cell_length_c 12.902254
_cell_angle_alpha 90.000000
_cell_angle_beta 90.000000
_cell_angle_gamma 90.000000
_cell_volume 4121.729271
_symmetry_space_group_name_H-M "C M C A"
_symmetry_group_IT_number 64
_symmetry_cell_setting 'orthorhombic'
loop_
_space_group_symop_operation_xyz
x,y,z
-x,1/2-y,1/2+z
x,-y,-z
-x,1/2+y,1/2-z
-x,-y,-z
x,1/2+y,1/2-z
-x,y,z
x,1/2-y,1/2+z
1/2+x,1/2+y,z
1/2-x,-y,1/2+z
1/2+x,1/2-y,-z
1/2-x,y,1/2-z
1/2-x,1/2-y,-z
1/2+x,y,1/2-z
1/2-x,1/2+y,z
1/2+x,-y,1/2+z
loop_
_atom_site_type_symbol
_atom_site_label
_atom_site_fract_x
_atom_site_fract_y
_atom_site_fract_z
Si Si1 0.824623 0.511654 0.377716
Si Si2 0.750000 0.655322 0.250000
Si Si3 0.933409 0.709137 0.078598
Si Si4 0.843327 0.307920 0.309171
Si Si5 0.434558 0.943367 0.748891
Si Si6 0.066058 0.858777 0.354096
O O1 0.818876 0.500000 0.500000
O O2 0.777188 0.588156 0.338604
O O3 0.812028 0.409985 0.322479
O O4 0.889596 0.548864 0.346571
O O5 0.796528 0.723217 0.193149
O O6 0.886981 0.795488 0.090929
O O7 0.920285 0.645743 0.179376
O O8 0.000000 0.748928 0.078764
O O9 0.920475 0.650197 0.975459
O O10 0.884139 0.300736 0.206781
O O11 0.500000 0.936068 0.700444
O O12 0.429487 0.031637 0.826051
O O13 0.000000 0.819456 0.328172
#
# Coordination Sequence:
#
# PCOD8262565 Si02
#       6
#    16   8  16  16  16  16
#     4  11  26  47  67  97 132 167 220 279 335 393
#     4  12  26  50  64  90 126 178 228 272 318 398
#     4  10  19  35  65  98 129 171 215 264 330 399
#     4  11  24  42  67  92 130 171 221 272 330 388
#     4   9  18  38  65  96 133 168 209 269 330 398
#     4   9  19  36  62  96 132 166 211 267 329 393
#
# _framework density 21.350262000000001
#
# number of rings (size 3 to 8) (size 9 to 14) (size 15 to 20)
#    0.000    1.818    1.818    1.636    2.545    4.000 
#    6.545    0.000    0.000    0.000    0.000    0.000 
#    0.000    0.000    0.000    0.000    0.000    0.000 
#
# Total GULP energy -545516.365669 kJ/mol
# GULP energy per Si atom -12398.099220 kJ/mol
# Density = 2.130167 g / cm^3
# Si number density = 21.350262 Si / 1000 Ang^3
#
#
#
# Elastic Constant Matrix: (Units=GPa)
#
#
# Indices 1 2 3 4 5 6 
#
# 1 123.2645 59.9038 49.8029 0.0000 0.0000 0.0000
# 2 59.9038 101.1317 32.3354 0.0000 0.0000 0.0000
# 3 49.8029 32.3354 100.4315 0.0000 0.0000 0.0000
# 4 0.0000 0.0000 0.0000 22.6177 0.0000 0.0000
# 5 0.0000 0.0000 0.0000 0.0000 22.1115 0.0000
# 6 0.0000 0.0000 0.0000 0.0000 0.0000 35.1805
#
#
#
# Elastic Compliance Matrix: (Units=1/GPa)
#
#
# Indices 1 2 3 4 5 6 
#
# 1 0.012928 -0.006251 -0.004398 0.000000 0.000000 0.000000
# 2 -0.006251 0.014046 -0.001422 0.000000 0.000000 0.000000
# 3 -0.004398 -0.001422 0.012596 0.000000 0.000000 0.000000
# 4 0.000000 0.000000 0.000000 0.044213 0.000000 0.000000
# 5 0.000000 0.000000 0.000000 0.000000 0.045225 0.000000
# 6 0.000000 0.000000 0.000000 0.000000 0.000000 0.028425
#
#
# Mechanical properties :
#
#
# Convention : Reuss Voigt Hill
#
# Bulk Modulus (GPa) = 64.82513 67.65686 66.24099
# Shear Modulus (GPa) = 26.77846 28.16766 27.47306
#
# Velocity S-wave (km/s) = 3.54537 3.63617 3.59106
# Velocity P-wave (km/s) = 6.86936 7.02758 6.94892
#
# Compressibility (1/GPa) = 0.01542612
#
# Stress axis : x y z
#
# Youngs Moduli (GPa) = 77.35443 71.19631 79.39123
#
# Poissons Ratio (x) = 0.44506 0.34916
# Poissons Ratio (y) = 0.48356 0.11292
# Poissons Ratio (z) = 0.34020 0.10126
#
# Static dielectric constant tensor:
#      x y z
#    x 4.058140 0.000000 0.000000 
#    y 0.000000 3.968060 0.000000 
#    z 0.000000 0.000000 3.596960 
# 
# 
# High freq. dielectric constant tensor:
#      x y z
#    x 1.839720 0.000000 0.000000 
#    y 0.000000 1.846980 0.000000 
#    z 0.000000 0.000000 1.822410 
# 
# From -- ./inp_files/18205.got.cif
#   From: 2010.03.12/outbox.cif.g09.slc.cpg/sg64_10_cif.got.tgz:18205.got - 2010.04.10 20:19:32.
