data_PCOD8262660
_publ_section_title
;
Structure prediction by ZEFSAII (Michael W. Deem and Ramdas Pophale) SiO2 
 PCOD8262660
Probable space group: C M C A
;
_chemical_formula_sum "Si O2"
_cell_formula_units_Z 72
_cell_length_a 15.949934
_cell_length_b 13.874093
_cell_length_c 14.906946
_cell_angle_alpha 90.000000
_cell_angle_beta 90.000000
_cell_angle_gamma 90.000000
_cell_volume 3298.771014
_symmetry_space_group_name_H-M "C M C A"
_symmetry_group_IT_number 64
_symmetry_cell_setting 'orthorhombic'
loop_
_space_group_symop_operation_xyz
x,y,z
-x,1/2-y,1/2+z
x,-y,-z
-x,1/2+y,1/2-z
-x,-y,-z
x,1/2+y,1/2-z
-x,y,z
x,1/2-y,1/2+z
1/2+x,1/2+y,z
1/2-x,-y,1/2+z
1/2+x,1/2-y,-z
1/2-x,y,1/2-z
1/2-x,1/2-y,-z
1/2+x,y,1/2-z
1/2-x,1/2+y,z
1/2+x,-y,1/2+z
loop_
_atom_site_type_symbol
_atom_site_label
_atom_site_fract_x
_atom_site_fract_y
_atom_site_fract_z
Si Si1 0.000000 0.817750 0.065625
Si Si2 0.159204 0.920065 0.142206
Si Si3 0.500000 0.195764 0.896483
Si Si4 0.167769 0.843065 0.344844
Si Si5 0.500000 0.678525 0.277857
Si Si6 0.334600 0.877193 0.699852
O O1 0.916051 0.877333 0.084484
O O2 0.000000 0.720009 0.122458
O O3 0.000000 0.787510 0.961999
O O4 0.154857 0.884649 0.245252
O O5 0.249977 0.884510 0.105888
O O6 0.152288 0.035424 0.129753
O O7 0.414969 0.131984 0.904844
O O8 0.500000 0.235703 0.794683
O O9 0.175450 0.726608 0.345501
O O10 0.585066 0.617023 0.266348
O O11 0.250000 0.905223 0.750000
#
# Coordination Sequence:
#
# PCOD8262660 Si02
#       6
#     8  16   8  16   8  16
#     4  12  21  39  62  89 117 163 195 235 305 352
#     4  11  20  34  63  88 113 158 198 236 296 353
#     4  10  22  37  63  86 121 156 193 247 295 343
#     4  10  19  38  57  89 120 149 200 246 289 351
#     4  10  21  38  58  84 120 153 196 246 288 354
#     4  11  18  34  59  92 111 155 196 241 292 346
#
# _framework density 21.826309999999999
#
# number of rings (size 3 to 8) (size 9 to 14) (size 15 to 20)
#    0.000    1.333    8.889    0.667    0.000    0.889 
#    0.000    8.889    0.000    2.667    0.000    0.000 
#    0.000    0.000    0.000    0.000    0.000    0.000 
#
# Total GULP energy -446146.374637 kJ/mol
# GULP energy per Si atom -12392.954851 kJ/mol
# Density = 2.177663 g / cm^3
# Si number density = 21.826310 Si / 1000 Ang^3
#
#
#
# Elastic Constant Matrix: (Units=GPa)
#
#
# Indices 1 2 3 4 5 6 
#
# 1 194.3452 26.3896 6.1568 0.0000 0.0000 0.0000
# 2 26.3896 110.2347 0.7634 0.0000 0.0000 0.0000
# 3 6.1568 0.7634 15.9156 0.0000 0.0000 0.0000
# 4 0.0000 0.0000 0.0000 7.5804 0.0000 0.0000
# 5 0.0000 0.0000 0.0000 0.0000 13.1745 0.0000
# 6 0.0000 0.0000 0.0000 0.0000 0.0000 7.7364
#
#
#
# Elastic Compliance Matrix: (Units=1/GPa)
#
#
# Indices 1 2 3 4 5 6 
#
# 1 0.005383 -0.001275 -0.002021 0.000000 0.000000 0.000000
# 2 -0.001275 0.009376 0.000043 0.000000 0.000000 0.000000
# 3 -0.002021 0.000043 0.063611 0.000000 0.000000 0.000000
# 4 0.000000 0.000000 0.000000 0.131919 0.000000 0.000000
# 5 0.000000 0.000000 0.000000 0.000000 0.075904 0.000000
# 6 0.000000 0.000000 0.000000 0.000000 0.000000 0.129259
#
#
# Mechanical properties :
#
#
# Convention : Reuss Voigt Hill
#
# Bulk Modulus (GPa) = 13.91486 43.01278 28.46382
# Shear Modulus (GPa) = 11.21298 24.84397 18.02847
#
# Velocity S-wave (km/s) = 2.26903 3.37747 2.87713
# Velocity P-wave (km/s) = 3.64058 5.91264 4.90984
#
# Compressibility (1/GPa) = 0.07186561
#
# Stress axis : x y z
#
# Youngs Moduli (GPa) = 185.78446 106.65095 15.72049
#
# Poissons Ratio (x) = 0.13593 0.03177
# Poissons Ratio (y) = 0.23679 -0.00068
# Poissons Ratio (z) = 0.37548 -0.00462
#
# Static dielectric constant tensor:
#      x y z
#    x 5.028700 0.000000 0.000000 
#    y 0.000000 3.821420 0.000000 
#    z 0.000000 0.000000 3.295750 
# 
# 
# High freq. dielectric constant tensor:
#      x y z
#    x 1.900680 0.000000 0.000000 
#    y 0.000000 1.847180 0.000000 
#    z 0.000000 0.000000 1.794770 
# 
# From -- ./inp_files/25172.got.cif
#   From: 2010.03.12/outbox.cif.g09.slc.cpg/sg64_13_cif.got.tgz:25172.got - 2010.04.10 20:19:32.
