data_PCOD8262336
_publ_section_title
;
Structure prediction by ZEFSAII (Michael W. Deem and Ramdas Pophale) SiO2 
 PCOD8262336
Probable space group: C M C A
;
_chemical_formula_sum "Si O2"
_cell_formula_units_Z 80
_cell_length_a 16.626903
_cell_length_b 28.607225
_cell_length_c 8.538985
_cell_angle_alpha 90.000000
_cell_angle_beta 90.000000
_cell_angle_gamma 90.000000
_cell_volume 4061.564417
_symmetry_space_group_name_H-M "C M C A"
_symmetry_group_IT_number 64
_symmetry_cell_setting 'orthorhombic'
loop_
_space_group_symop_operation_xyz
x,y,z
-x,1/2-y,1/2+z
x,-y,-z
-x,1/2+y,1/2-z
-x,-y,-z
x,1/2+y,1/2-z
-x,y,z
x,1/2-y,1/2+z
1/2+x,1/2+y,z
1/2-x,-y,1/2+z
1/2+x,1/2-y,-z
1/2-x,y,1/2-z
1/2-x,1/2-y,-z
1/2+x,y,1/2-z
1/2-x,1/2+y,z
1/2+x,-y,1/2+z
loop_
_atom_site_type_symbol
_atom_site_label
_atom_site_fract_x
_atom_site_fract_y
_atom_site_fract_z
Si Si1 0.263524 0.698958 0.933544
Si Si2 0.590557 0.948434 0.064947
Si Si3 0.092198 0.644241 0.439231
Si Si4 0.675460 0.373473 0.640017
Si Si5 0.405038 0.454186 0.085373
O O1 0.250000 0.698443 0.750000
O O2 0.250000 0.750000 0.000000
O O3 0.354134 0.682186 0.970279
O O4 0.198472 0.665755 0.014947
O O5 0.500000 0.927263 0.067113
O O6 0.628947 0.948940 0.238690
O O7 0.646629 0.918676 0.952104
O O8 0.587997 0.000000 0.000000
O O9 0.105496 0.647180 0.252068
O O10 0.118384 0.592009 0.489827
O O11 0.000000 0.655034 0.481078
O O12 0.750000 0.387487 0.750000
O O13 0.500000 0.461136 0.096498
O O14 0.367474 0.500000 0.000000
#
# Coordination Sequence:
#
# PCOD8262336 Si02
#       5
#    16  16  16  16  16
#     4  11  23  43  64  84 115 151 186 233 294 348
#     4  10  19  33  55  83 115 151 192 234 277 329
#     4  10  20  37  61  88 117 150 193 237 280 337
#     4  10  21  37  57  83 114 151 189 231 286 340
#     4   9  17  30  52  83 116 148 183 229 279 325
#
# _framework density 19.696843000000001
#
# number of rings (size 3 to 8) (size 9 to 14) (size 15 to 20)
#    0.000    2.000    0.000    4.800    0.000    3.200 
#    0.000   15.000    0.000    0.000    0.000    0.000 
#    0.000    0.000    0.000    0.000    0.000    0.200 
#
# Total GULP energy -496053.212173 kJ/mol
# GULP energy per Si atom -12401.330304 kJ/mol
# Density = 1.965201 g / cm^3
# Si number density = 19.696843 Si / 1000 Ang^3
#
#
#
# Elastic Constant Matrix: (Units=GPa)
#
#
# Indices 1 2 3 4 5 6 
#
# 1 73.6658 66.4066 49.1520 0.0000 0.0000 0.0000
# 2 66.4066 132.2028 68.7923 0.0000 0.0000 0.0000
# 3 49.1520 68.7923 182.2845 0.0000 0.0000 0.0000
# 4 0.0000 0.0000 0.0000 40.4475 0.0000 0.0000
# 5 0.0000 0.0000 0.0000 0.0000 26.2896 0.0000
# 6 0.0000 0.0000 0.0000 0.0000 0.0000 14.1188
#
#
#
# Elastic Compliance Matrix: (Units=1/GPa)
#
#
# Indices 1 2 3 4 5 6 
#
# 1 0.025737 -0.011593 -0.002565 0.000000 0.000000 0.000000
# 2 -0.011593 0.014635 -0.002397 0.000000 0.000000 0.000000
# 3 -0.002565 -0.002397 0.007082 0.000000 0.000000 0.000000
# 4 0.000000 0.000000 0.000000 0.024723 0.000000 0.000000
# 5 0.000000 0.000000 0.000000 0.000000 0.038038 0.000000
# 6 0.000000 0.000000 0.000000 0.000000 0.000000 0.070827
#
#
# Mechanical properties :
#
#
# Convention : Reuss Voigt Hill
#
# Bulk Modulus (GPa) = 69.71570 84.09502 76.90536
# Shear Modulus (GPa) = 22.83796 29.75799 26.29797
#
# Velocity S-wave (km/s) = 3.40880 3.89112 3.65792
# Velocity P-wave (km/s) = 7.13894 7.93568 7.54783
#
# Compressibility (1/GPa) = 0.01434397
#
# Stress axis : x y z
#
# Youngs Moduli (GPa) = 38.85459 68.32994 141.20207
#
# Poissons Ratio (x) = 0.79218 0.36213
# Poissons Ratio (y) = 0.45046 0.33845
# Poissons Ratio (z) = 0.09965 0.16378
#
# Static dielectric constant tensor:
#      x y z
#    x 3.582370 0.000000 0.000000 
#    y 0.000000 3.527880 0.000000 
#    z 0.000000 0.000000 3.907400 
# 
# 
# High freq. dielectric constant tensor:
#      x y z
#    x 1.752450 0.000000 0.000000 
#    y 0.000000 1.760490 0.000000 
#    z 0.000000 0.000000 1.789610 
# 
# From -- ./inp_files/7105.got.cif
#   From: 2010.03.12/outbox.cif.g09.slc.cpg/sg64_4_cif.got.tgz:7105.got - 2010.04.10 20:19:32.
