data_PCOD8262695
_publ_section_title
;
Structure prediction by ZEFSAII (Michael W. Deem and Ramdas Pophale) SiO2 
 PCOD8262695
Probable space group: C M C A
;
_chemical_formula_sum "Si O2"
_cell_formula_units_Z 72
_cell_length_a 14.010147
_cell_length_b 25.246173
_cell_length_c 10.063016
_cell_angle_alpha 90.000000
_cell_angle_beta 90.000000
_cell_angle_gamma 90.000000
_cell_volume 3559.314872
_symmetry_space_group_name_H-M "C M C A"
_symmetry_group_IT_number 64
_symmetry_cell_setting 'orthorhombic'
loop_
_space_group_symop_operation_xyz
x,y,z
-x,1/2-y,1/2+z
x,-y,-z
-x,1/2+y,1/2-z
-x,-y,-z
x,1/2+y,1/2-z
-x,y,z
x,1/2-y,1/2+z
1/2+x,1/2+y,z
1/2-x,-y,1/2+z
1/2+x,1/2-y,-z
1/2-x,y,1/2-z
1/2-x,1/2-y,-z
1/2+x,y,1/2-z
1/2-x,1/2+y,z
1/2+x,-y,1/2+z
loop_
_atom_site_type_symbol
_atom_site_label
_atom_site_fract_x
_atom_site_fract_y
_atom_site_fract_z
Si Si1 0.250000 0.038835 0.250000
Si Si2 0.607559 0.046191 0.733502
Si Si3 0.667567 0.850275 0.143939
Si Si4 0.000000 0.276997 0.202034
Si Si5 0.000000 0.183883 0.005004
Si Si6 0.678676 0.106129 0.485885
O O1 0.307535 0.075590 0.350278
O O2 0.333846 0.000637 0.192806
O O3 0.500000 0.027252 0.704097
O O4 0.604740 0.098029 0.824656
O O5 0.662819 0.061201 0.597708
O O6 0.750000 0.838709 0.250000
O O7 0.595295 0.801668 0.137837
O O8 0.723706 0.860124 0.006580
O O9 0.000000 0.282589 0.364323
O O10 0.000000 0.218141 0.140719
O O11 0.908748 0.146466 0.011240
#
# Coordination Sequence:
#
# PCOD8262695 Si02
#       6
#     8  16  16   8   8  16
#     4  12  26  36  64 104 132 172 228 268 330 404
#     4  11  20  39  70  93 127 180 218 262 329 409
#     4  10  19  41  69  88 132 168 223 265 332 404
#     4  12  24  46  71 102 121 185 230 277 353 402
#     4  12  26  46  74  94 136 176 234 282 343 406
#     4  11  23  44  63  98 137 176 219 282 333 401
#
# _framework density 20.228612999999999
#
# number of rings (size 3 to 8) (size 9 to 14) (size 15 to 20)
#    0.000    0.889   10.000    0.667    1.556    3.556 
#    4.000    1.111    0.000    0.000    0.000    0.000 
#    0.000    0.000    0.000    0.000    0.000    0.000 
#
# Total GULP energy -446085.084389 kJ/mol
# GULP energy per Si atom -12391.252344 kJ/mol
# Density = 2.018257 g / cm^3
# Si number density = 20.228613 Si / 1000 Ang^3
#
#
#
# Elastic Constant Matrix: (Units=GPa)
#
#
# Indices 1 2 3 4 5 6 
#
# 1 131.5236 36.8572 27.5923 0.0000 0.0000 0.0000
# 2 36.8572 78.4012 42.4085 0.0000 0.0000 0.0000
# 3 27.5923 42.4085 62.9896 0.0000 0.0000 0.0000
# 4 0.0000 0.0000 0.0000 31.5724 0.0000 0.0000
# 5 0.0000 0.0000 0.0000 0.0000 17.4871 0.0000
# 6 0.0000 0.0000 0.0000 0.0000 0.0000 21.3680
#
#
#
# Elastic Compliance Matrix: (Units=1/GPa)
#
#
# Indices 1 2 3 4 5 6 
#
# 1 0.008870 -0.003253 -0.001696 0.000000 0.000000 0.000000
# 2 -0.003253 0.021253 -0.012884 0.000000 0.000000 0.000000
# 3 -0.001696 -0.012884 0.025293 0.000000 0.000000 0.000000
# 4 0.000000 0.000000 0.000000 0.031673 0.000000 0.000000
# 5 0.000000 0.000000 0.000000 0.000000 0.057185 0.000000
# 6 0.000000 0.000000 0.000000 0.000000 0.000000 0.046799
#
#
# Mechanical properties :
#
#
# Convention : Reuss Voigt Hill
#
# Bulk Modulus (GPa) = 50.62963 54.07006 52.34985
# Shear Modulus (GPa) = 21.42951 25.15593 23.29272
#
# Velocity S-wave (km/s) = 3.25832 3.53027 3.39702
# Velocity P-wave (km/s) = 6.26407 6.58822 6.42819
#
# Compressibility (1/GPa) = 0.01975128
#
# Stress axis : x y z
#
# Youngs Moduli (GPa) = 112.73327 47.05125 39.53690
#
# Poissons Ratio (x) = 0.15305 0.06704
# Poissons Ratio (y) = 0.36671 0.50940
# Poissons Ratio (z) = 0.19115 0.60622
#
# Static dielectric constant tensor:
#      x y z
#    x 3.929460 0.000000 0.000000 
#    y 0.000000 3.572260 0.000000 
#    z 0.000000 0.000000 3.487960 
# 
# 
# High freq. dielectric constant tensor:
#      x y z
#    x 1.814120 0.000000 0.000000 
#    y 0.000000 1.779380 0.000000 
#    z 0.000000 0.000000 1.754660 
# 
# From -- ./inp_files/5880.got.cif
#   From: 2010.03.12/outbox.cif.g09.slc.cpg/sg64_3_cif.got.tgz:5880.got - 2010.04.10 20:19:32.
