data_PCOD8262787
_publ_section_title
;
Structure prediction by ZEFSAII (Michael W. Deem and Ramdas Pophale) SiO2 
 PCOD8262787
Probable space group: C M C A
;
_chemical_formula_sum "Si O2"
_cell_formula_units_Z 112
_cell_length_a 26.265654
_cell_length_b 14.681120
_cell_length_c 14.851095
_cell_angle_alpha 90.000000
_cell_angle_beta 90.000000
_cell_angle_gamma 90.000000
_cell_volume 5726.719133
_symmetry_space_group_name_H-M "C M C A"
_symmetry_group_IT_number 64
_symmetry_cell_setting 'orthorhombic'
loop_
_space_group_symop_operation_xyz
x,y,z
-x,1/2-y,1/2+z
x,-y,-z
-x,1/2+y,1/2-z
-x,-y,-z
x,1/2+y,1/2-z
-x,y,z
x,1/2-y,1/2+z
1/2+x,1/2+y,z
1/2-x,-y,1/2+z
1/2+x,1/2-y,-z
1/2-x,y,1/2-z
1/2-x,1/2-y,-z
1/2+x,y,1/2-z
1/2-x,1/2+y,z
1/2+x,-y,1/2+z
loop_
_atom_site_type_symbol
_atom_site_label
_atom_site_fract_x
_atom_site_fract_y
_atom_site_fract_z
Si Si1 0.556940 0.603446 0.276972
Si Si2 0.304363 0.463500 0.209091
Si Si3 0.877909 0.337938 0.195514
Si Si4 0.150691 0.143448 0.160908
Si Si5 0.861787 0.403117 0.465770
Si Si6 0.057648 0.445742 0.084648
Si Si7 0.058525 0.209722 0.858744
O O1 0.500000 0.618189 0.238394
O O2 0.594456 0.608507 0.190954
O O3 0.561219 0.506857 0.325620
O O4 0.568068 0.681238 0.352858
O O5 0.250000 0.436957 0.250000
O O6 0.343509 0.423969 0.280900
O O7 0.309062 0.573632 0.205742
O O8 0.317973 0.418874 0.110844
O O9 0.842871 0.247198 0.194637
O O10 0.905490 0.358625 0.099908
O O11 0.925426 0.330646 0.262866
O O12 0.161100 0.145032 0.054044
O O13 0.884016 0.500000 0.500000
O O14 0.906928 0.337564 0.434050
O O15 0.000000 0.413299 0.064827
O O16 0.079515 0.500000 0.000000
O O17 0.000000 0.185858 0.879156
#
# Coordination Sequence:
#
# PCOD8262787 Si02
#       7
#    16  16  16  16  16  16  16
#     4   9  18  33  53  80 116 161 198 231 281 339
#     4  10  21  41  62  79 109 146 185 239 305 359
#     4  10  20  36  58  84 112 151 194 236 290 346
#     4  10  20  37  60  85 117 150 190 242 292 350
#     4   9  20  36  55  84 115 148 190 241 291 344
#     4  10  20  33  52  80 119 159 199 240 278 330
#     4   9  18  32  52  80 117 157 193 228 274 339
#
# _framework density 19.557445000000001
#
# number of rings (size 3 to 8) (size 9 to 14) (size 15 to 20)
#    0.000    2.429    1.429    0.429    2.000    2.000 
#    0.000    2.857    0.000    0.000    0.000    0.000 
#    0.000    0.000    0.000    0.000    0.000    0.000 
#
# Total GULP energy -693900.464873 kJ/mol
# GULP energy per Si atom -12391.079730 kJ/mol
# Density = 1.951293 g / cm^3
# Si number density = 19.557445 Si / 1000 Ang^3
#
#
#
# Elastic Constant Matrix: (Units=GPa)
#
#
# Indices 1 2 3 4 5 6 
#
# 1 72.2920 20.5499 27.2458 0.0000 0.0000 0.0000
# 2 20.5499 74.9846 19.1944 0.0000 0.0000 0.0000
# 3 27.2458 19.1944 73.5378 0.0000 0.0000 0.0000
# 4 0.0000 0.0000 0.0000 23.6249 0.0000 0.0000
# 5 0.0000 0.0000 0.0000 0.0000 22.0059 0.0000
# 6 0.0000 0.0000 0.0000 0.0000 0.0000 21.9710
#
#
#
# Elastic Compliance Matrix: (Units=1/GPa)
#
#
# Indices 1 2 3 4 5 6 
#
# 1 0.016774 -0.003221 -0.005374 0.000000 0.000000 0.000000
# 2 -0.003221 0.014910 -0.002698 0.000000 0.000000 0.000000
# 3 -0.005374 -0.002698 0.016294 0.000000 0.000000 0.000000
# 4 0.000000 0.000000 0.000000 0.042328 0.000000 0.000000
# 5 0.000000 0.000000 0.000000 0.000000 0.045442 0.000000
# 6 0.000000 0.000000 0.000000 0.000000 0.000000 0.045514
#
#
# Mechanical properties :
#
#
# Convention : Reuss Voigt Hill
#
# Bulk Modulus (GPa) = 39.38491 39.42161 39.40326
# Shear Modulus (GPa) = 23.55019 23.77531 23.66275
#
# Velocity S-wave (km/s) = 3.47386 3.49042 3.48215
# Velocity P-wave (km/s) = 6.02263 6.03694 6.02979
#
# Compressibility (1/GPa) = 0.02539044
#
# Stress axis : x y z
#
# Youngs Moduli (GPa) = 59.61660 67.07112 61.37339
#
# Poissons Ratio (x) = 0.21606 0.32981
# Poissons Ratio (y) = 0.19205 0.16559
# Poissons Ratio (z) = 0.32037 0.18096
#
# Static dielectric constant tensor:
#      x y z
#    x 3.303980 0.000000 0.000000 
#    y 0.000000 3.752210 0.000000 
#    z 0.000000 0.000000 3.523680 
# 
# 
# High freq. dielectric constant tensor:
#      x y z
#    x 1.726300 0.000000 0.000000 
#    y 0.000000 1.773450 0.000000 
#    z 0.000000 0.000000 1.753180 
# 
# From -- ./inp_files/27399.got.cif
#   From: 2010.03.12/outbox.cif.g09.slc.cpg/sg64_14_cif.got.tgz:27399.got - 2010.04.10 20:19:32.
