data_PCOD8262426
_publ_section_title
;
Structure prediction by ZEFSAII (Michael W. Deem and Ramdas Pophale) SiO2 
 PCOD8262426
Probable space group: C M C A
;
_chemical_formula_sum "Si O2"
_cell_formula_units_Z 112
_cell_length_a 24.198553
_cell_length_b 12.289880
_cell_length_c 18.847658
_cell_angle_alpha 90.000000
_cell_angle_beta 90.000000
_cell_angle_gamma 90.000000
_cell_volume 5605.242837
_symmetry_space_group_name_H-M "C M C A"
_symmetry_group_IT_number 64
_symmetry_cell_setting 'orthorhombic'
loop_
_space_group_symop_operation_xyz
x,y,z
-x,1/2-y,1/2+z
x,-y,-z
-x,1/2+y,1/2-z
-x,-y,-z
x,1/2+y,1/2-z
-x,y,z
x,1/2-y,1/2+z
1/2+x,1/2+y,z
1/2-x,-y,1/2+z
1/2+x,1/2-y,-z
1/2-x,y,1/2-z
1/2-x,1/2-y,-z
1/2+x,y,1/2-z
1/2-x,1/2+y,z
1/2+x,-y,1/2+z
loop_
_atom_site_type_symbol
_atom_site_label
_atom_site_fract_x
_atom_site_fract_y
_atom_site_fract_z
Si Si1 0.174644 0.484607 0.915977
Si Si2 0.436799 0.350261 0.216043
Si Si3 0.132907 0.441680 0.693438
Si Si4 0.231281 0.918687 0.173797
Si Si5 0.560117 0.269668 0.864414
Si Si6 0.661225 0.209489 0.175320
Si Si7 0.559710 0.554846 0.575783
O O1 0.219241 0.566820 0.882092
O O2 0.180524 0.358530 0.894014
O O3 0.113901 0.512771 0.883487
O O4 0.177919 0.500000 0.000000
O O5 0.500000 0.348036 0.186854
O O6 0.413715 0.473186 0.219156
O O7 0.433801 0.306291 0.295438
O O8 0.397480 0.273106 0.166847
O O9 0.180844 0.503705 0.650709
O O10 0.106323 0.362102 0.634683
O O11 0.157912 0.372629 0.758377
O O12 0.250000 0.961608 0.250000
O O13 0.211294 0.794825 0.182929
O O14 0.500000 0.326565 0.865494
O O15 0.566226 0.186637 0.930795
O O16 0.558669 0.500000 0.500000
O O17 0.500000 0.529321 0.614038
#
# Coordination Sequence:
#
# PCOD8262426 Si02
#       7
#    16  16  16  16  16  16  16
#     4  11  24  41  61  87 119 158 208 260 313 373
#     4   9  18  32  53  86 123 152 188 248 313 370
#     4  10  19  34  55  86 118 157 200 249 303 374
#     4  11  24  38  60  85 118 164 209 256 310 368
#     4   9  17  29  53  84 116 155 193 242 306 361
#     4  10  22  36  57  87 116 157 206 247 310 370
#     4   9  19  36  57  84 117 153 196 244 300 369
#
# _framework density 19.981293000000001
#
# number of rings (size 3 to 8) (size 9 to 14) (size 15 to 20)
#    0.000    2.143    1.429    1.286    6.000    1.714 
#    0.000    1.429    0.000    0.000    0.000    0.000 
#    0.000   28.000    0.000    0.000    0.000    0.000 
#
# Total GULP energy -693778.738361 kJ/mol
# GULP energy per Si atom -12388.906042 kJ/mol
# Density = 1.993581 g / cm^3
# Si number density = 19.981293 Si / 1000 Ang^3
#
#
#
# Elastic Constant Matrix: (Units=GPa)
#
#
# Indices 1 2 3 4 5 6 
#
# 1 144.5486 52.8120 27.5428 0.0000 0.0000 0.0000
# 2 52.8120 114.6442 28.7629 0.0000 0.0000 0.0000
# 3 27.5428 28.7629 58.5058 0.0000 0.0000 0.0000
# 4 0.0000 0.0000 0.0000 31.6118 0.0000 0.0000
# 5 0.0000 0.0000 0.0000 0.0000 21.6844 0.0000
# 6 0.0000 0.0000 0.0000 0.0000 0.0000 33.7837
#
#
#
# Elastic Compliance Matrix: (Units=1/GPa)
#
#
# Indices 1 2 3 4 5 6 
#
# 1 0.008603 -0.003362 -0.002397 0.000000 0.000000 0.000000
# 2 -0.003362 0.011263 -0.003955 0.000000 0.000000 0.000000
# 3 -0.002397 -0.003955 0.020165 0.000000 0.000000 0.000000
# 4 0.000000 0.000000 0.000000 0.031634 0.000000 0.000000
# 5 0.000000 0.000000 0.000000 0.000000 0.046116 0.000000
# 6 0.000000 0.000000 0.000000 0.000000 0.000000 0.029600
#
#
# Mechanical properties :
#
#
# Convention : Reuss Voigt Hill
#
# Bulk Modulus (GPa) = 48.53418 59.54822 54.04120
# Shear Modulus (GPa) = 28.78898 31.32136 30.05517
#
# Velocity S-wave (km/s) = 3.79990 3.96351 3.88256
# Velocity P-wave (km/s) = 6.60264 7.12829 6.87049
#
# Compressibility (1/GPa) = 0.02060404
#
# Stress axis : x y z
#
# Youngs Moduli (GPa) = 116.23725 88.78298 49.59026
#
# Poissons Ratio (x) = 0.29845 0.11889
# Poissons Ratio (y) = 0.39075 0.19612
# Poissons Ratio (z) = 0.27867 0.35112
#
# Static dielectric constant tensor:
#      x y z
#    x 4.224200 0.000000 0.000000 
#    y 0.000000 3.805070 0.000000 
#    z 0.000000 0.000000 3.131370 
# 
# 
# High freq. dielectric constant tensor:
#      x y z
#    x 1.803890 0.000000 0.000000 
#    y 0.000000 1.787410 0.000000 
#    z 0.000000 0.000000 1.721920 
# 
# From -- ./inp_files/41553.got.cif
#   From: 2010.03.12/outbox.cif.g09.slc.cpg/sg64_21_cif.got.tgz:41553.got - 2010.04.10 20:19:32.
