data_PCOD8262524
_publ_section_title
;
Structure prediction by ZEFSAII (Michael W. Deem and Ramdas Pophale) SiO2 
 PCOD8262524
Probable space group: C M C A
;
_chemical_formula_sum "Si O2"
_cell_formula_units_Z 96
_cell_length_a 8.885595
_cell_length_b 20.442519
_cell_length_c 28.142417
_cell_angle_alpha 90.000000
_cell_angle_beta 90.000000
_cell_angle_gamma 90.000000
_cell_volume 5111.899635
_symmetry_space_group_name_H-M "C M C A"
_symmetry_group_IT_number 64
_symmetry_cell_setting 'orthorhombic'
loop_
_space_group_symop_operation_xyz
x,y,z
-x,1/2-y,1/2+z
x,-y,-z
-x,1/2+y,1/2-z
-x,-y,-z
x,1/2+y,1/2-z
-x,y,z
x,1/2-y,1/2+z
1/2+x,1/2+y,z
1/2-x,-y,1/2+z
1/2+x,1/2-y,-z
1/2-x,y,1/2-z
1/2-x,1/2-y,-z
1/2+x,y,1/2-z
1/2-x,1/2+y,z
1/2+x,-y,1/2+z
loop_
_atom_site_type_symbol
_atom_site_label
_atom_site_fract_x
_atom_site_fract_y
_atom_site_fract_z
Si Si1 0.321884 0.131932 0.951954
Si Si2 0.322210 0.254060 0.890288
Si Si3 0.677102 0.198605 0.701168
Si Si4 0.676472 0.452103 0.201212
Si Si5 0.174992 0.989915 0.392002
Si Si6 0.324567 0.372762 0.559201
O O1 0.500000 0.125968 0.953505
O O2 0.267411 0.198698 0.927302
O O3 0.257684 0.070300 0.922575
O O4 0.260574 0.130681 0.005633
O O5 0.500000 0.251565 0.883206
O O6 0.243692 0.243166 0.840065
O O7 0.272319 0.324131 0.909047
O O8 0.500000 0.208558 0.704066
O O9 0.750000 0.223262 0.750000
O O10 0.721299 0.123248 0.691775
O O11 0.500000 0.462001 0.205555
O O12 0.750000 0.477369 0.250000
O O13 0.738786 0.495202 0.157923
O O14 0.000000 0.978945 0.380829
O O15 0.203455 0.054778 0.421925
O O16 0.500000 0.353224 0.561747
#
# Coordination Sequence:
#
# PCOD8262524 Si02
#       6
#    16  16  16  16  16  16
#     4   9  18  34  57  82 107 145 193 231 269 321
#     4  11  21  35  56  82 114 148 183 229 276 326
#     4  10  20  35  57  84 111 141 180 226 275 328
#     4  10  20  34  56  84 112 141 178 226 275 327
#     4  10  19  35  58  82 111 146 186 229 273 324
#     4  10  21  36  55  80 113 151 188 228 274 326
#
# _framework density 18.779713000000001
#
# number of rings (size 3 to 8) (size 9 to 14) (size 15 to 20)
#    0.000    2.000    1.667    2.500    0.000    4.000 
#    0.000    2.500    0.000    6.000    0.000    0.000 
#    0.000    0.000    0.000    0.000    0.000    0.000 
#
# Total GULP energy -595425.041736 kJ/mol
# GULP energy per Si atom -12404.688369 kJ/mol
# Density = 1.873697 g / cm^3
# Si number density = 18.779713 Si / 1000 Ang^3
#
#
#
# Elastic Constant Matrix: (Units=GPa)
#
#
# Indices 1 2 3 4 5 6 
#
# 1 62.1556 25.2414 42.8909 0.0000 0.0000 0.0000
# 2 25.2414 57.7852 23.6670 0.0000 0.0000 0.0000
# 3 42.8909 23.6670 143.6683 0.0000 0.0000 0.0000
# 4 0.0000 0.0000 0.0000 15.0796 0.0000 0.0000
# 5 0.0000 0.0000 0.0000 0.0000 28.7311 0.0000
# 6 0.0000 0.0000 0.0000 0.0000 0.0000 24.9449
#
#
#
# Elastic Compliance Matrix: (Units=1/GPa)
#
#
# Indices 1 2 3 4 5 6 
#
# 1 0.023137 -0.007804 -0.005622 0.000000 0.000000 0.000000
# 2 -0.007804 0.021190 -0.001161 0.000000 0.000000 0.000000
# 3 -0.005622 -0.001161 0.008830 0.000000 0.000000 0.000000
# 4 0.000000 0.000000 0.000000 0.066315 0.000000 0.000000
# 5 0.000000 0.000000 0.000000 0.000000 0.034806 0.000000
# 6 0.000000 0.000000 0.000000 0.000000 0.000000 0.040088
#
#
# Mechanical properties :
#
#
# Convention : Reuss Voigt Hill
#
# Bulk Modulus (GPa) = 41.69517 49.68973 45.69245
# Shear Modulus (GPa) = 21.59512 25.20512 23.40012
#
# Velocity S-wave (km/s) = 3.39472 3.66751 3.53375
# Velocity P-wave (km/s) = 6.13319 6.66715 6.40573
#
# Compressibility (1/GPa) = 0.02398359
#
# Stress axis : x y z
#
# Youngs Moduli (GPa) = 43.22029 47.19239 113.24963
#
# Poissons Ratio (x) = 0.36830 0.63667
# Poissons Ratio (y) = 0.33730 0.13146
# Poissons Ratio (z) = 0.24298 0.05478
#
# Static dielectric constant tensor:
#      x y z
#    x 3.241470 0.000000 0.000000 
#    y 0.000000 3.281400 0.000000 
#    z 0.000000 0.000000 3.622640 
# 
# 
# High freq. dielectric constant tensor:
#      x y z
#    x 1.715860 0.000000 0.000000 
#    y 0.000000 1.714080 0.000000 
#    z 0.000000 0.000000 1.746080 
# 
# From -- ./inp_files/48027.got.cif
#   From: 2010.03.12/outbox.cif.g09.slc.cpg/sg64_25_cif.got.tgz:48027.got - 2010.04.10 20:19:32.
