data_PCOD8262175
_publ_section_title
;
Structure prediction by ZEFSAII (Michael W. Deem and Ramdas Pophale) SiO2 
 PCOD8262175
Probable space group: C M C A
;
_chemical_formula_sum "Si O2"
_cell_formula_units_Z 96
_cell_length_a 8.625570
_cell_length_b 28.194842
_cell_length_c 21.608260
_cell_angle_alpha 90.000000
_cell_angle_beta 90.000000
_cell_angle_gamma 90.000000
_cell_volume 5255.055003
_symmetry_space_group_name_H-M "C M C A"
_symmetry_group_IT_number 64
_symmetry_cell_setting 'orthorhombic'
loop_
_space_group_symop_operation_xyz
x,y,z
-x,1/2-y,1/2+z
x,-y,-z
-x,1/2+y,1/2-z
-x,-y,-z
x,1/2+y,1/2-z
-x,y,z
x,1/2-y,1/2+z
1/2+x,1/2+y,z
1/2-x,-y,1/2+z
1/2+x,1/2-y,-z
1/2-x,y,1/2-z
1/2-x,1/2-y,-z
1/2+x,y,1/2-z
1/2-x,1/2+y,z
1/2+x,-y,1/2+z
loop_
_atom_site_type_symbol
_atom_site_label
_atom_site_fract_x
_atom_site_fract_y
_atom_site_fract_z
Si Si1 0.682803 0.283196 0.444922
Si Si2 0.675532 0.147397 0.311285
Si Si3 0.321592 0.476676 0.433727
Si Si4 0.817896 0.385279 0.466851
Si Si5 0.325889 0.066194 0.408871
Si Si6 0.817504 0.745659 0.181785
O O1 0.500000 0.274719 0.444484
O O2 0.750000 0.250000 0.500000
O O3 0.721566 0.337794 0.457165
O O4 0.747720 0.274338 0.375931
O O5 0.500000 0.166038 0.301443
O O6 0.750000 0.126551 0.250000
O O7 0.681968 0.103440 0.355215
O O8 0.778769 0.191271 0.334211
O O9 0.279788 0.500000 0.500000
O O10 0.500000 0.464285 0.425647
O O11 0.227611 0.427924 0.419400
O O12 0.270514 0.519408 0.388072
O O13 0.759270 0.405913 0.532082
O O14 0.000000 0.373542 0.463743
O O15 0.500000 0.049428 0.423310
O O16 0.750000 0.759973 0.250000
O O17 0.000000 0.754538 0.183478
#
# Coordination Sequence:
#
# PCOD8262175 Si02
#       6
#    16  16  16  16  16  16
#     4  12  24  38  56  82 113 144 182 228 277 324
#     4  10  19  32  50  74 103 135 173 215 260 311
#     4   9  17  29  47  72 100 130 165 204 250 309
#     4  10  19  33  52  75 104 137 172 212 262 315
#     4   9  18  31  49  72 101 135 169 208 256 311
#     4  11  22  38  58  80 108 145 185 224 270 325
#
# _framework density 18.268125999999999
#
# number of rings (size 3 to 8) (size 9 to 14) (size 15 to 20)
#    0.000    1.833    0.000    6.500    0.000    5.333 
#    0.000    0.000    0.000    1.000    0.000    4.667 
#    0.000    0.000    0.000    0.000    0.000    0.000 
#
# Total GULP energy -594806.472073 kJ/mol
# GULP energy per Si atom -12391.801502 kJ/mol
# Density = 1.822655 g / cm^3
# Si number density = 18.268126 Si / 1000 Ang^3
#
#
#
# Elastic Constant Matrix: (Units=GPa)
#
#
# Indices 1 2 3 4 5 6 
#
# 1 118.6191 50.6626 41.5065 0.0000 0.0000 0.0000
# 2 50.6626 116.6794 48.3749 0.0000 0.0000 0.0000
# 3 41.5065 48.3749 72.3643 0.0000 0.0000 0.0000
# 4 0.0000 0.0000 0.0000 30.9578 0.0000 0.0000
# 5 0.0000 0.0000 0.0000 0.0000 25.8274 0.0000
# 6 0.0000 0.0000 0.0000 0.0000 0.0000 34.7833
#
#
#
# Elastic Compliance Matrix: (Units=1/GPa)
#
#
# Indices 1 2 3 4 5 6 
#
# 1 0.011289 -0.003067 -0.004424 0.000000 0.000000 0.000000
# 2 -0.003067 0.012690 -0.006724 0.000000 0.000000 0.000000
# 3 -0.004424 -0.006724 0.020852 0.000000 0.000000 0.000000
# 4 0.000000 0.000000 0.000000 0.032302 0.000000 0.000000
# 5 0.000000 0.000000 0.000000 0.000000 0.038719 0.000000
# 6 0.000000 0.000000 0.000000 0.000000 0.000000 0.028749
#
#
# Mechanical properties :
#
#
# Convention : Reuss Voigt Hill
#
# Bulk Modulus (GPa) = 60.97904 65.41675 63.19790
# Shear Modulus (GPa) = 28.01160 29.45496 28.73328
#
# Velocity S-wave (km/s) = 3.92006 4.01979 3.97024
# Velocity P-wave (km/s) = 7.34450 7.57838 7.46236
#
# Compressibility (1/GPa) = 0.01639908
#
# Stress axis : x y z
#
# Youngs Moduli (GPa) = 88.58556 78.80247 47.95788
#
# Poissons Ratio (x) = 0.24170 0.21219
# Poissons Ratio (y) = 0.27170 0.32246
# Poissons Ratio (z) = 0.39195 0.52986
#
# Static dielectric constant tensor:
#      x y z
#    x 3.597110 0.000000 0.000000 
#    y 0.000000 3.534030 0.000000 
#    z 0.000000 0.000000 3.335780 
# 
# 
# High freq. dielectric constant tensor:
#      x y z
#    x 1.723240 0.000000 0.000000 
#    y 0.000000 1.715200 0.000000 
#    z 0.000000 0.000000 1.678000 
# 
# From -- ./inp_files/37078.got.cif
#   From: 2010.03.12/outbox.cif.g09.slc.cpg/sg64_19_cif.got.tgz:37078.got - 2010.04.10 20:19:32.
