data_PCOD8262813
_publ_section_title
;
Structure prediction by ZEFSAII (Michael W. Deem and Ramdas Pophale) SiO2 
 PCOD8262813
Probable space group: C M C A
;
_chemical_formula_sum "Si O2"
_cell_formula_units_Z 96
_cell_length_a 22.347121
_cell_length_b 8.944579
_cell_length_c 24.158678
_cell_angle_alpha 90.000000
_cell_angle_beta 90.000000
_cell_angle_gamma 90.000000
_cell_volume 4828.971586
_symmetry_space_group_name_H-M "C M C A"
_symmetry_group_IT_number 64
_symmetry_cell_setting 'orthorhombic'
loop_
_space_group_symop_operation_xyz
x,y,z
-x,1/2-y,1/2+z
x,-y,-z
-x,1/2+y,1/2-z
-x,-y,-z
x,1/2+y,1/2-z
-x,y,z
x,1/2-y,1/2+z
1/2+x,1/2+y,z
1/2-x,-y,1/2+z
1/2+x,1/2-y,-z
1/2-x,y,1/2-z
1/2-x,1/2-y,-z
1/2+x,y,1/2-z
1/2-x,1/2+y,z
1/2+x,-y,1/2+z
loop_
_atom_site_type_symbol
_atom_site_label
_atom_site_fract_x
_atom_site_fract_y
_atom_site_fract_z
Si Si1 0.244947 0.557388 0.369013
Si Si2 0.931156 0.283955 0.321680
Si Si3 0.568553 0.051430 0.788685
Si Si4 0.687810 0.327771 0.484236
Si Si5 0.829205 0.686539 0.853784
Si Si6 0.166378 0.192196 0.913594
O O1 0.197714 0.654516 0.332717
O O2 0.284142 0.443654 0.331828
O O3 0.207139 0.457857 0.413323
O O4 0.290706 0.668700 0.398418
O O5 0.917671 0.406354 0.274630
O O6 0.889720 0.324377 0.373188
O O7 0.000000 0.290536 0.341069
O O8 0.915069 0.121115 0.297602
O O9 0.500000 0.085733 0.803205
O O10 0.605519 0.158834 0.829612
O O11 0.686819 0.500000 0.500000
O O12 0.750000 0.250000 0.500000
O O13 0.668580 0.308318 0.420676
O O14 0.642180 0.234230 0.524780
#
# Coordination Sequence:
#
# PCOD8262813 Si02
#       6
#    16  16  16  16  16  16
#     4  10  20  33  57  80 120 144 181 221 278 326
#     4  10  22  41  61  79 106 146 190 231 271 323
#     4  10  22  41  61  79 106 146 190 231 271 323
#     4  12  18  30  55  81 116 148 179 215 270 335
#     4  11  20  36  55  86 113 147 183 224 272 330
#     4  11  20  36  55  86 113 147 183 224 272 330
#
# _framework density 19.880009000000001
#
# number of rings (size 3 to 8) (size 9 to 14) (size 15 to 20)
#    0.000    1.333    6.667    0.000    2.333    0.000 
#    0.000    5.833    0.000    3.000    0.000    2.333 
#    0.000    0.000    0.000    0.000    0.000    0.000 
#
# Total GULP energy -594690.643496 kJ/mol
# GULP energy per Si atom -12389.388406 kJ/mol
# Density = 1.983476 g / cm^3
# Si number density = 19.880009 Si / 1000 Ang^3
#
#
#
# Elastic Constant Matrix: (Units=GPa)
#
#
# Indices 1 2 3 4 5 6 
#
# 1 74.9460 19.3563 43.9955 0.0000 0.0000 0.0000
# 2 19.3563 74.2477 -2.5009 0.0000 0.0000 0.0000
# 3 43.9955 -2.5009 74.6382 0.0000 0.0000 0.0000
# 4 0.0000 0.0000 0.0000 20.5308 0.0000 0.0000
# 5 0.0000 0.0000 0.0000 0.0000 25.8292 0.0000
# 6 0.0000 0.0000 0.0000 0.0000 0.0000 23.2832
#
#
#
# Elastic Compliance Matrix: (Units=1/GPa)
#
#
# Indices 1 2 3 4 5 6 
#
# 1 0.023168 -0.006507 -0.013875 0.000000 0.000000 0.000000
# 2 -0.006507 0.015311 0.004349 0.000000 0.000000 0.000000
# 3 -0.013875 0.004349 0.021722 0.000000 0.000000 0.000000
# 4 0.000000 0.000000 0.000000 0.048707 0.000000 0.000000
# 5 0.000000 0.000000 0.000000 0.000000 0.038716 0.000000
# 6 0.000000 0.000000 0.000000 0.000000 0.000000 0.042949
#
#
# Mechanical properties :
#
#
# Convention : Reuss Voigt Hill
#
# Bulk Modulus (GPa) = 35.54231 38.39263 36.96747
# Shear Modulus (GPa) = 21.54990 24.79403 23.17197
#
# Velocity S-wave (km/s) = 3.29599 3.53538 3.41778
# Velocity P-wave (km/s) = 5.69227 6.00161 5.84898
#
# Compressibility (1/GPa) = 0.02813548
#
# Stress axis : x y z
#
# Youngs Moduli (GPa) = 43.16212 65.31085 46.03596
#
# Poissons Ratio (x) = 0.42500 0.63874
# Poissons Ratio (y) = 0.28087 -0.20020
# Poissons Ratio (z) = 0.59886 -0.28403
#
# Static dielectric constant tensor:
#      x y z
#    x 3.593540 0.000000 0.000000 
#    y 0.000000 4.134490 0.000000 
#    z 0.000000 0.000000 3.778020 
# 
# 
# High freq. dielectric constant tensor:
#      x y z
#    x 1.749620 0.000000 0.000000 
#    y 0.000000 1.801700 0.000000 
#    z 0.000000 0.000000 1.754050 
# 
# From -- ./inp_files/46600.got.cif
#   From: 2010.03.12/outbox.cif.g09.slc.cpg/sg64_24_cif.got.tgz:46600.got - 2010.04.10 20:19:32.
