data_PCOD8262138
_publ_section_title
;
Structure prediction by ZEFSAII (Michael W. Deem and Ramdas Pophale) SiO2 
 PCOD8262138
Probable space group: C M C A
;
_chemical_formula_sum "Si O2"
_cell_formula_units_Z 112
_cell_length_a 15.916227
_cell_length_b 14.399482
_cell_length_c 27.309347
_cell_angle_alpha 90.000000
_cell_angle_beta 90.000000
_cell_angle_gamma 90.000000
_cell_volume 6258.904277
_symmetry_space_group_name_H-M "C M C A"
_symmetry_group_IT_number 64
_symmetry_cell_setting 'orthorhombic'
loop_
_space_group_symop_operation_xyz
x,y,z
-x,1/2-y,1/2+z
x,-y,-z
-x,1/2+y,1/2-z
-x,-y,-z
x,1/2+y,1/2-z
-x,y,z
x,1/2-y,1/2+z
1/2+x,1/2+y,z
1/2-x,-y,1/2+z
1/2+x,1/2-y,-z
1/2-x,y,1/2-z
1/2-x,1/2-y,-z
1/2+x,y,1/2-z
1/2-x,1/2+y,z
1/2+x,-y,1/2+z
loop_
_atom_site_type_symbol
_atom_site_label
_atom_site_fract_x
_atom_site_fract_y
_atom_site_fract_z
Si Si1 0.594165 0.545353 0.304869
Si Si2 0.905237 0.164246 0.677897
Si Si3 0.248283 0.421967 0.870560
Si Si4 0.333883 0.161563 0.278812
Si Si5 0.273614 0.624059 0.598907
Si Si6 0.091371 0.105119 0.515100
Si Si7 0.796599 0.715329 0.048354
O O1 0.500000 0.569935 0.321885
O O2 0.605665 0.435457 0.296684
O O3 0.654663 0.584144 0.347505
O O4 0.613124 0.588210 0.252188
O O5 0.889607 0.245732 0.716903
O O6 0.832346 0.175912 0.637952
O O7 0.000000 0.173473 0.656116
O O8 0.315799 0.384715 0.831568
O O9 0.268971 0.529483 0.882435
O O10 0.253858 0.363386 0.920839
O O11 0.250000 0.188862 0.250000
O O12 0.335407 0.605541 0.554191
O O13 0.197680 0.694015 0.583734
O O14 0.115009 0.171248 0.468682
O O15 0.000000 0.139304 0.534848
O O16 0.081850 0.000000 0.500000
O O17 0.750000 0.750000 0.000000
#
# Coordination Sequence:
#
# PCOD8262138 Si02
#       7
#    16  16  16  16  16  16  16
#     4   9  20  35  52  76 103 134 173 217 264 308
#     4  10  19  32  54  76 100 133 170 213 258 307
#     4  10  19  34  52  79 104 136 174 212 264 311
#     4  10  20  34  52  75 106 139 173 215 259 311
#     4  10  19  33  53  76 105 133 173 209 257 309
#     4  10  19  31  51  77 105 133 166 215 264 303
#     4  10  20  33  52  79 106 138 173 215 259 314
#
# _framework density 17.894506
#
# number of rings (size 3 to 8) (size 9 to 14) (size 15 to 20)
#    0.000    2.143    2.857    0.857    0.000    4.000 
#    0.000    0.000    0.000    1.714    0.000    2.000 
#    0.000    0.000    0.000    0.000    0.000    0.000 
#
# Total GULP energy -693946.203564 kJ/mol
# GULP energy per Si atom -12391.896492 kJ/mol
# Density = 1.785378 g / cm^3
# Si number density = 17.894506 Si / 1000 Ang^3
#
#
#
# Elastic Constant Matrix: (Units=GPa)
#
#
# Indices 1 2 3 4 5 6 
#
# 1 52.0136 34.6150 16.9338 0.0000 0.0000 0.0000
# 2 34.6150 106.9029 44.6091 0.0000 0.0000 0.0000
# 3 16.9338 44.6091 77.9134 0.0000 0.0000 0.0000
# 4 0.0000 0.0000 0.0000 37.0586 0.0000 0.0000
# 5 0.0000 0.0000 0.0000 0.0000 50.0143 0.0000
# 6 0.0000 0.0000 0.0000 0.0000 0.0000 99.5167
#
#
#
# Elastic Compliance Matrix: (Units=1/GPa)
#
#
# Indices 1 2 3 4 5 6 
#
# 1 0.024570 -0.007525 -0.001031 0.000000 0.000000 0.000000
# 2 -0.007525 0.014596 -0.006721 0.000000 0.000000 0.000000
# 3 -0.001031 -0.006721 0.016907 0.000000 0.000000 0.000000
# 4 0.000000 0.000000 0.000000 0.026984 0.000000 0.000000
# 5 0.000000 0.000000 0.000000 0.000000 0.019994 0.000000
# 6 0.000000 0.000000 0.000000 0.000000 0.000000 0.010049
#
#
# Mechanical properties :
#
#
# Convention : Reuss Voigt Hill
#
# Bulk Modulus (GPa) = 39.19005 47.68288 43.43646
# Shear Modulus (GPa) = 32.86007 46.69604 39.77806
#
# Velocity S-wave (km/s) = 4.28988 5.11389 4.71990
# Velocity P-wave (km/s) = 6.81803 7.84689 7.35048
#
# Compressibility (1/GPa) = 0.02551668
#
# Stress axis : x y z
#
# Youngs Moduli (GPa) = 40.70084 68.51412 59.14676
#
# Poissons Ratio (x) = 0.51558 0.06101
# Poissons Ratio (y) = 0.30628 0.39753
# Poissons Ratio (z) = 0.04198 0.46049
#
# Static dielectric constant tensor:
#      x y z
#    x 3.435500 0.000000 0.000000 
#    y 0.000000 3.629960 0.000000 
#    z 0.000000 0.000000 3.421420 
# 
# 
# High freq. dielectric constant tensor:
#      x y z
#    x 1.666690 0.000000 0.000000 
#    y 0.000000 1.703340 0.000000 
#    z 0.000000 0.000000 1.692900 
# 
# From -- ./inp_files/50052.got.cif
#   From: 2010.03.12/outbox.cif.g09.slc.cpg/sg64_26_cif.got.tgz:50052.got - 2010.04.10 20:19:32.
