data_PCOD8262117
_publ_section_title
;
Structure prediction by ZEFSAII (Michael W. Deem and Ramdas Pophale) SiO2 
 PCOD8262117
Probable space group: C M C A
;
_chemical_formula_sum "Si O2"
_cell_formula_units_Z 104
_cell_length_a 9.645000
_cell_length_b 22.191750
_cell_length_c 26.646676
_cell_angle_alpha 90.000000
_cell_angle_beta 90.000000
_cell_angle_gamma 90.000000
_cell_volume 5703.439309
_symmetry_space_group_name_H-M "C M C A"
_symmetry_group_IT_number 64
_symmetry_cell_setting 'orthorhombic'
loop_
_space_group_symop_operation_xyz
x,y,z
-x,1/2-y,1/2+z
x,-y,-z
-x,1/2+y,1/2-z
-x,-y,-z
x,1/2+y,1/2-z
-x,y,z
x,1/2-y,1/2+z
1/2+x,1/2+y,z
1/2-x,-y,1/2+z
1/2+x,1/2-y,-z
1/2-x,y,1/2-z
1/2-x,1/2-y,-z
1/2+x,y,1/2-z
1/2-x,1/2+y,z
1/2+x,-y,1/2+z
loop_
_atom_site_type_symbol
_atom_site_label
_atom_site_fract_x
_atom_site_fract_y
_atom_site_fract_z
Si Si1 0.155073 0.463193 0.890240
Si Si2 0.663630 0.202283 0.606922
Si Si3 0.344373 0.853407 0.293693
Si Si4 0.343627 0.369142 0.012508
Si Si5 0.752954 0.500000 0.500000
Si Si6 0.660166 0.004075 0.702061
Si Si7 0.842578 0.833210 0.577710
O O1 0.168533 0.484285 0.948807
O O2 0.268598 0.488413 0.851440
O O3 0.171110 0.390817 0.886066
O O4 0.000000 0.482441 0.873013
O O5 0.500000 0.194042 0.608228
O O6 0.726735 0.173746 0.656887
O O7 0.721834 0.161221 0.561914
O O8 0.707134 0.272300 0.605023
O O9 0.500000 0.829279 0.285671
O O10 0.250000 0.827480 0.250000
O O11 0.343382 0.924813 0.295548
O O12 0.500000 0.347468 0.004084
O O13 0.343435 0.441815 0.014442
O O14 0.253844 0.341451 0.969228
O O15 0.500000 0.979389 0.703704
O O16 0.750000 0.979178 0.750000
O O17 0.000000 0.825943 0.558540
#
# Coordination Sequence:
#
# PCOD8262117 Si02
#       7
#    16  16  16  16   8  16  16
#     4  10  20  34  52  75 104 138 173 209 252 303
#     4   9  17  32  52  71  96 132 167 200 244 295
#     4   9  18  33  52  74  98 124 158 201 248 294
#     4  10  19  31  50  74 100 131 168 207 246 294
#     4  10  20  32  50  78 110 138 166 208 260 310
#     4  10  20  35  56  80 105 134 169 211 258 307
#     4   9  19  34  50  70 100 135 167 202 246 294
#
# _framework density 18.234611999999998
#
# number of rings (size 3 to 8) (size 9 to 14) (size 15 to 20)
#    0.000    2.462    0.000    2.308    0.000    5.538 
#    0.000    2.308    0.000    1.846    0.000    0.000 
#    0.000    0.000    0.000    0.000    0.000    0.000 
#
# Total GULP energy -644341.178157 kJ/mol
# GULP energy per Si atom -12391.176503 kJ/mol
# Density = 1.819311 g / cm^3
# Si number density = 18.234612 Si / 1000 Ang^3
#
#
#
# Elastic Constant Matrix: (Units=GPa)
#
#
# Indices 1 2 3 4 5 6 
#
# 1 94.3530 15.4750 54.1884 0.0000 0.0000 0.0000
# 2 15.4750 36.5012 13.4587 0.0000 0.0000 0.0000
# 3 54.1884 13.4587 99.6425 0.0000 0.0000 0.0000
# 4 0.0000 0.0000 0.0000 25.0652 0.0000 0.0000
# 5 0.0000 0.0000 0.0000 0.0000 27.8325 0.0000
# 6 0.0000 0.0000 0.0000 0.0000 0.0000 16.5010
#
#
#
# Elastic Compliance Matrix: (Units=1/GPa)
#
#
# Indices 1 2 3 4 5 6 
#
# 1 0.015882 -0.003735 -0.008132 0.000000 0.000000 0.000000
# 2 -0.003735 0.029710 -0.001982 0.000000 0.000000 0.000000
# 3 -0.008132 -0.001982 0.014726 0.000000 0.000000 0.000000
# 4 0.000000 0.000000 0.000000 0.039896 0.000000 0.000000
# 5 0.000000 0.000000 0.000000 0.000000 0.035929 0.000000
# 6 0.000000 0.000000 0.000000 0.000000 0.000000 0.060602
#
#
# Mechanical properties :
#
#
# Convention : Reuss Voigt Hill
#
# Bulk Modulus (GPa) = 30.65579 44.08230 37.36904
# Shear Modulus (GPa) = 21.24793 23.70473 22.47633
#
# Velocity S-wave (km/s) = 3.41728 3.60944 3.51468
# Velocity P-wave (km/s) = 5.69375 6.44968 6.08347
#
# Compressibility (1/GPa) = 0.03262027
#
# Stress axis : x y z
#
# Youngs Moduli (GPa) = 62.96602 33.65819 67.90604
#
# Poissons Ratio (x) = 0.12570 0.55224
# Poissons Ratio (y) = 0.23515 0.13459
# Poissons Ratio (z) = 0.51207 0.06671
#
# Static dielectric constant tensor:
#      x y z
#    x 3.377400 0.000000 0.000000 
#    y 0.000000 3.494840 0.000000 
#    z 0.000000 0.000000 3.475500 
# 
# 
# High freq. dielectric constant tensor:
#      x y z
#    x 1.696590 0.000000 0.000000 
#    y 0.000000 1.701880 0.000000 
#    z 0.000000 0.000000 1.705120 
# 
# From -- ./inp_files/48450.got.cif
#   From: 2010.03.12/outbox.cif.g09.slc.cpg/sg64_25_cif.got.tgz:48450.got - 2010.04.10 20:19:32.
