data_PCOD8262463
_publ_section_title
;
Structure prediction by ZEFSAII (Michael W. Deem and Ramdas Pophale) SiO2 
 PCOD8262463
Probable space group: C M C A
;
_chemical_formula_sum "Si O2"
_cell_formula_units_Z 112
_cell_length_a 15.414049
_cell_length_b 31.707247
_cell_length_c 11.687081
_cell_angle_alpha 90.000000
_cell_angle_beta 90.000000
_cell_angle_gamma 90.000000
_cell_volume 5711.909595
_symmetry_space_group_name_H-M "C M C A"
_symmetry_group_IT_number 64
_symmetry_cell_setting 'orthorhombic'
loop_
_space_group_symop_operation_xyz
x,y,z
-x,1/2-y,1/2+z
x,-y,-z
-x,1/2+y,1/2-z
-x,-y,-z
x,1/2+y,1/2-z
-x,y,z
x,1/2-y,1/2+z
1/2+x,1/2+y,z
1/2-x,-y,1/2+z
1/2+x,1/2-y,-z
1/2-x,y,1/2-z
1/2-x,1/2-y,-z
1/2+x,y,1/2-z
1/2-x,1/2+y,z
1/2+x,-y,1/2+z
loop_
_atom_site_type_symbol
_atom_site_label
_atom_site_fract_x
_atom_site_fract_y
_atom_site_fract_z
Si Si1 0.715981 0.812476 0.479439
Si Si2 0.250901 0.903904 0.384625
Si Si3 0.099988 0.450499 0.512083
Si Si4 0.602313 0.413678 0.748214
Si Si5 0.097088 0.323138 0.692842
Si Si6 0.819278 0.264867 0.847206
Si Si7 0.601269 0.450371 0.510981
O O1 0.746741 0.857686 0.438982
O O2 0.641832 0.813008 0.573678
O O3 0.799467 0.788537 0.532859
O O4 0.677429 0.785205 0.372148
O O5 0.250000 0.899436 0.250000
O O6 0.337769 0.928667 0.420125
O O7 0.161898 0.927125 0.419304
O O8 0.109297 0.500000 0.500000
O O9 0.133292 0.438037 0.638370
O O10 0.000000 0.436166 0.490785
O O11 0.500000 0.415138 0.740178
O O12 0.638009 0.365655 0.751432
O O13 0.637872 0.436830 0.635447
O O14 0.095938 0.285208 0.787374
O O15 0.000000 0.333110 0.656441
O O16 0.750000 0.276727 0.750000
O O17 0.613919 0.500000 0.500000
O O18 0.500000 0.437901 0.490705
#
# Coordination Sequence:
#
# PCOD8262463 Si02
#       7
#    16  16  16  16  16  16  16
#     4  10  20  37  56  81 116 154 193 240 296 361
#     4  12  25  38  59  90 124 164 207 245 306 383
#     4  10  22  40  62  88 120 160 205 256 307 363
#     4   9  18  36  62  87 114 153 202 252 303 359
#     4  10  19  34  58  88 115 147 196 247 298 357
#     4   9  19  35  58  80 108 149 190 239 296 347
#     4  10  23  42  62  87 120 158 205 265 322 368
#
# _framework density 19.608153999999999
#
# number of rings (size 3 to 8) (size 9 to 14) (size 15 to 20)
#    0.000    2.000    1.429    1.714    2.000    1.714 
#    0.000    0.000    0.000   10.286    0.000    0.000 
#    0.000    0.000    0.000    0.000    0.000    0.000 
#
# Total GULP energy -694144.911404 kJ/mol
# GULP energy per Si atom -12395.444846 kJ/mol
# Density = 1.956353 g / cm^3
# Si number density = 19.608154 Si / 1000 Ang^3
#
#
#
# Elastic Constant Matrix: (Units=GPa)
#
#
# Indices 1 2 3 4 5 6 
#
# 1 75.6322 36.2411 30.0539 0.0000 0.0000 0.0000
# 2 36.2411 117.5921 33.3360 0.0000 0.0000 0.0000
# 3 30.0539 33.3360 97.4486 0.0000 0.0000 0.0000
# 4 0.0000 0.0000 0.0000 44.6788 0.0000 0.0000
# 5 0.0000 0.0000 0.0000 0.0000 21.8582 0.0000
# 6 0.0000 0.0000 0.0000 0.0000 0.0000 28.5874
#
#
#
# Elastic Compliance Matrix: (Units=1/GPa)
#
#
# Indices 1 2 3 4 5 6 
#
# 1 0.016662 -0.004073 -0.003745 0.000000 0.000000 0.000000
# 2 -0.004073 0.010413 -0.002306 0.000000 0.000000 0.000000
# 3 -0.003745 -0.002306 0.012206 0.000000 0.000000 0.000000
# 4 0.000000 0.000000 0.000000 0.022382 0.000000 0.000000
# 5 0.000000 0.000000 0.000000 0.000000 0.045749 0.000000
# 6 0.000000 0.000000 0.000000 0.000000 0.000000 0.034980
#
#
# Mechanical properties :
#
#
# Convention : Reuss Voigt Hill
#
# Bulk Modulus (GPa) = 52.54396 54.43722 53.49059
# Shear Modulus (GPa) = 29.58833 31.76100 30.67467
#
# Velocity S-wave (km/s) = 3.88877 4.02902 3.95952
# Velocity P-wave (km/s) = 6.85701 7.03327 6.94570
#
# Compressibility (1/GPa) = 0.01903168
#
# Stress axis : x y z
#
# Youngs Moduli (GPa) = 60.01683 96.03318 81.92882
#
# Poissons Ratio (x) = 0.39118 0.30684
# Poissons Ratio (y) = 0.24447 0.18892
# Poissons Ratio (z) = 0.22478 0.22145
#
# Static dielectric constant tensor:
#      x y z
#    x 3.487150 0.000000 0.000000 
#    y 0.000000 3.753180 0.000000 
#    z 0.000000 0.000000 3.597670 
# 
# 
# High freq. dielectric constant tensor:
#      x y z
#    x 1.748200 0.000000 0.000000 
#    y 0.000000 1.775190 0.000000 
#    z 0.000000 0.000000 1.766220 
# 
# From -- ./inp_files/15020.got.cif
#   From: 2010.03.12/outbox.cif.g09.slc.cpg/sg64_8_cif.got.tgz:15020.got - 2010.04.10 20:19:32.
