data_PCOD8262866
_publ_section_title
;
Structure prediction by ZEFSAII (Michael W. Deem and Ramdas Pophale) SiO2 
 PCOD8262866
Probable space group: C M C A
;
_chemical_formula_sum "Si O2"
_cell_formula_units_Z 80
_cell_length_a 9.031136
_cell_length_b 14.900060
_cell_length_c 29.566330
_cell_angle_alpha 90.000000
_cell_angle_beta 90.000000
_cell_angle_gamma 90.000000
_cell_volume 3978.577475
_symmetry_space_group_name_H-M "C M C A"
_symmetry_group_IT_number 64
_symmetry_cell_setting 'orthorhombic'
loop_
_space_group_symop_operation_xyz
x,y,z
-x,1/2-y,1/2+z
x,-y,-z
-x,1/2+y,1/2-z
-x,-y,-z
x,1/2+y,1/2-z
-x,y,z
x,1/2-y,1/2+z
1/2+x,1/2+y,z
1/2-x,-y,1/2+z
1/2+x,1/2-y,-z
1/2-x,y,1/2-z
1/2-x,1/2-y,-z
1/2+x,y,1/2-z
1/2-x,1/2+y,z
1/2+x,-y,1/2+z
loop_
_atom_site_type_symbol
_atom_site_label
_atom_site_fract_x
_atom_site_fract_y
_atom_site_fract_z
Si Si1 0.165307 0.733046 0.953800
Si Si2 0.174798 0.373722 0.701826
Si Si3 0.163228 0.023506 0.547847
Si Si4 0.329629 0.529584 0.865471
Si Si5 0.175513 0.763781 0.135998
O O1 0.151118 0.628531 0.946076
O O2 0.259182 0.772093 0.911777
O O3 0.000000 0.776189 0.955134
O O4 0.250000 0.750000 0.000000
O O5 0.250000 0.381096 0.750000
O O6 0.209391 0.467966 0.677239
O O7 0.247541 0.290753 0.675871
O O8 0.000000 0.356557 0.706372
O O9 0.251351 0.985617 0.590684
O O10 0.000000 0.978619 0.547827
O O11 0.242914 0.000000 0.500000
O O12 0.500000 0.526571 0.877974
O O13 0.282379 0.631943 0.855288
O O14 0.000000 0.748038 0.136314
#
# Coordination Sequence:
#
# PCOD8262866 Si02
#       5
#    16  16  16  16  16
#     4  10  20  34  53  82 118 156 196 240 291 350
#     4  11  24  42  63  91 119 152 198 246 299 356
#     4   9  19  34  53  81 114 151 194 236 286 345
#     4   9  21  40  60  85 118 154 195 242 294 351
#     4  10  21  40  62  86 119 158 197 244 297 352
#
# _framework density 20.107688
#
# number of rings (size 3 to 8) (size 9 to 14) (size 15 to 20)
#    0.000    2.200    0.000    1.800    2.800    4.400 
#    0.000    2.000    0.000    0.000    0.000    0.000 
#    0.000    0.000    0.000    0.000    0.000    0.000 
#
# Total GULP energy -495942.136873 kJ/mol
# GULP energy per Si atom -12398.553422 kJ/mol
# Density = 2.006192 g / cm^3
# Si number density = 20.107688 Si / 1000 Ang^3
#
#
#
# Elastic Constant Matrix: (Units=GPa)
#
#
# Indices 1 2 3 4 5 6 
#
# 1 128.6176 53.2389 95.1592 0.0000 0.0000 0.0000
# 2 53.2389 70.3092 59.9626 0.0000 0.0000 0.0000
# 3 95.1592 59.9626 201.3759 0.0000 0.0000 0.0000
# 4 0.0000 0.0000 0.0000 32.3305 0.0000 0.0000
# 5 0.0000 0.0000 0.0000 0.0000 39.5790 0.0000
# 6 0.0000 0.0000 0.0000 0.0000 0.0000 21.7385
#
#
#
# Elastic Compliance Matrix: (Units=1/GPa)
#
#
# Indices 1 2 3 4 5 6 
#
# 1 0.013922 -0.006610 -0.004611 0.000000 0.000000 0.000000
# 2 -0.006610 0.022202 -0.003488 0.000000 0.000000 0.000000
# 3 -0.004611 -0.003488 0.008183 0.000000 0.000000 0.000000
# 4 0.000000 0.000000 0.000000 0.030931 0.000000 0.000000
# 5 0.000000 0.000000 0.000000 0.000000 0.025266 0.000000
# 6 0.000000 0.000000 0.000000 0.000000 0.000000 0.046001
#
#
# Mechanical properties :
#
#
# Convention : Reuss Voigt Hill
#
# Bulk Modulus (GPa) = 67.15327 90.78045 78.96686
# Shear Modulus (GPa) = 27.64172 31.52572 29.58372
#
# Velocity S-wave (km/s) = 3.71170 3.96390 3.83987
# Velocity P-wave (km/s) = 7.19988 8.13604 7.68223
#
# Compressibility (1/GPa) = 0.01489131
#
# Stress axis : x y z
#
# Youngs Moduli (GPa) = 71.82696 45.04022 122.20311
#
# Poissons Ratio (x) = 0.29771 0.56345
# Poissons Ratio (y) = 0.47477 0.42619
# Poissons Ratio (z) = 0.33117 0.15708
#
# Static dielectric constant tensor:
#      x y z
#    x 3.980760 0.000000 0.000000 
#    y 0.000000 3.600540 0.000000 
#    z 0.000000 0.000000 3.727120 
# 
# 
# High freq. dielectric constant tensor:
#      x y z
#    x 1.791190 0.000000 0.000000 
#    y 0.000000 1.780380 0.000000 
#    z 0.000000 0.000000 1.788280 
# 
# From -- ./inp_files/47846.got.cif
#   From: 2010.03.12/outbox.cif.g09.slc.cpg/sg64_24_cif.got.tgz:47846.got - 2010.04.10 20:19:32.
