data_PCOD8262525
_publ_section_title
;
Structure prediction by ZEFSAII (Michael W. Deem and Ramdas Pophale) SiO2 
 PCOD8262525
Probable space group: C M C A
;
_chemical_formula_sum "Si O2"
_cell_formula_units_Z 96
_cell_length_a 15.540249
_cell_length_b 30.975745
_cell_length_c 8.731224
_cell_angle_alpha 90.000000
_cell_angle_beta 90.000000
_cell_angle_gamma 90.000000
_cell_volume 4202.956197
_symmetry_space_group_name_H-M "C M C A"
_symmetry_group_IT_number 64
_symmetry_cell_setting 'orthorhombic'
loop_
_space_group_symop_operation_xyz
x,y,z
-x,1/2-y,1/2+z
x,-y,-z
-x,1/2+y,1/2-z
-x,-y,-z
x,1/2+y,1/2-z
-x,y,z
x,1/2-y,1/2+z
1/2+x,1/2+y,z
1/2-x,-y,1/2+z
1/2+x,1/2-y,-z
1/2-x,y,1/2-z
1/2-x,1/2-y,-z
1/2+x,y,1/2-z
1/2-x,1/2+y,z
1/2+x,-y,1/2+z
loop_
_atom_site_type_symbol
_atom_site_label
_atom_site_fract_x
_atom_site_fract_y
_atom_site_fract_z
Si Si1 0.664298 0.621173 0.353940
Si Si2 0.097247 0.452293 0.062337
Si Si3 0.398814 0.711111 0.881920
Si Si4 0.404509 0.871919 0.544531
Si Si5 0.896984 0.458628 0.407735
Si Si6 0.898104 0.799053 0.471161
O O1 0.750000 0.620851 0.250000
O O2 0.655164 0.577694 0.453262
O O3 0.589088 0.627193 0.228645
O O4 0.658442 0.661231 0.468844
O O5 0.135724 0.455922 0.233185
O O6 0.000000 0.433223 0.065169
O O7 0.096864 0.500000 0.000000
O O8 0.500000 0.712105 0.911872
O O9 0.374804 0.705820 0.706031
O O10 0.357843 0.671031 0.978240
O O11 0.362948 0.756488 0.943396
O O12 0.500000 0.872302 0.474933
O O13 0.358247 0.915758 0.487911
O O14 0.859169 0.500000 0.500000
O O15 0.000000 0.460931 0.414205
O O16 0.000000 0.807099 0.495755
#
# Coordination Sequence:
#
# PCOD8262525 Si02
#       6
#    16  16  16  16  16  16
#     4  12  25  39  54  83 123 163 199 240 297 364
#     4  10  20  38  65  91 114 147 195 247 298 356
#     4   9  18  33  60  92 114 145 200 262 313 356
#     4  10  19  35  58  82 111 149 196 248 298 353
#     4   9  17  31  57  92 119 141 182 243 304 359
#     4  10  19  36  60  85 115 151 198 253 307 363
#
# _framework density 22.841066000000001
#
# number of rings (size 3 to 8) (size 9 to 14) (size 15 to 20)
#    0.000    2.000    0.000    4.500    0.000    8.000 
#    0.000    9.167    0.000    0.000    0.000    0.000 
#    0.000    0.000    0.000    0.000    0.000    0.667 
#
# Total GULP energy -595010.750226 kJ/mol
# GULP energy per Si atom -12396.057296 kJ/mol
# Density = 2.278908 g / cm^3
# Si number density = 22.841066 Si / 1000 Ang^3
#
#
#
# Elastic Constant Matrix: (Units=GPa)
#
#
# Indices 1 2 3 4 5 6 
#
# 1 42.6449 23.5092 18.2056 0.0000 0.0000 0.0000
# 2 23.5092 179.3415 80.2204 0.0000 0.0000 0.0000
# 3 18.2056 80.2204 175.0850 0.0000 0.0000 0.0000
# 4 0.0000 0.0000 0.0000 58.9407 0.0000 0.0000
# 5 0.0000 0.0000 0.0000 0.0000 18.8208 0.0000
# 6 0.0000 0.0000 0.0000 0.0000 0.0000 7.0410
#
#
#
# Elastic Compliance Matrix: (Units=1/GPa)
#
#
# Indices 1 2 3 4 5 6 
#
# 1 0.025550 -0.002718 -0.001411 0.000000 0.000000 0.000000
# 2 -0.002718 0.007302 -0.003063 0.000000 0.000000 0.000000
# 3 -0.001411 -0.003063 0.007262 0.000000 0.000000 0.000000
# 4 0.000000 0.000000 0.000000 0.016966 0.000000 0.000000
# 5 0.000000 0.000000 0.000000 0.000000 0.053133 0.000000
# 6 0.000000 0.000000 0.000000 0.000000 0.000000 0.142026
#
#
# Mechanical properties :
#
#
# Convention : Reuss Voigt Hill
#
# Bulk Modulus (GPa) = 38.86613 71.21575 55.04094
# Shear Modulus (GPa) = 18.16854 35.30291 26.73573
#
# Velocity S-wave (km/s) = 2.82340 3.93566 3.42499
# Velocity P-wave (km/s) = 5.26133 7.20410 6.30796
#
# Compressibility (1/GPa) = 0.02572935
#
# Stress axis : x y z
#
# Youngs Moduli (GPa) = 39.13839 136.94072 137.70735
#
# Poissons Ratio (x) = 0.37220 0.19437
# Poissons Ratio (y) = 0.10638 0.42183
# Poissons Ratio (z) = 0.05524 0.41948
#
# Static dielectric constant tensor:
#      x y z
#    x 3.639020 0.000000 0.000000 
#    y 0.000000 4.366150 0.000000 
#    z 0.000000 0.000000 -13.344570 
# 
# 
# High freq. dielectric constant tensor:
#      x y z
#    x 1.855480 0.000000 0.000000 
#    y 0.000000 1.918860 0.000000 
#    z 0.000000 0.000000 1.916250 
# 
# From -- ./inp_files/8372.got.cif
#   From: 2010.03.12/outbox.cif.g09.slc.cpg/sg64_5_cif.got.tgz:8372.got - 2010.04.10 20:19:32.
