data_PCOD8262656
_publ_section_title
;
Structure prediction by ZEFSAII (Michael W. Deem and Ramdas Pophale) SiO2 
 PCOD8262656
Probable space group: C M C A
;
_chemical_formula_sum "Si O2"
_cell_formula_units_Z 80
_cell_length_a 13.336885
_cell_length_b 17.587038
_cell_length_c 16.256612
_cell_angle_alpha 90.000000
_cell_angle_beta 90.000000
_cell_angle_gamma 90.000000
_cell_volume 3813.090815
_symmetry_space_group_name_H-M "C M C A"
_symmetry_group_IT_number 64
_symmetry_cell_setting 'orthorhombic'
loop_
_space_group_symop_operation_xyz
x,y,z
-x,1/2-y,1/2+z
x,-y,-z
-x,1/2+y,1/2-z
-x,-y,-z
x,1/2+y,1/2-z
-x,y,z
x,1/2-y,1/2+z
1/2+x,1/2+y,z
1/2-x,-y,1/2+z
1/2+x,1/2-y,-z
1/2-x,y,1/2-z
1/2-x,1/2-y,-z
1/2+x,y,1/2-z
1/2-x,1/2+y,z
1/2+x,-y,1/2+z
loop_
_atom_site_type_symbol
_atom_site_label
_atom_site_fract_x
_atom_site_fract_y
_atom_site_fract_z
Si Si1 0.500000 0.341673 0.780677
Si Si2 0.338678 0.773930 0.190137
Si Si3 0.667681 0.628714 0.534274
Si Si4 0.500000 0.645820 0.412519
Si Si5 0.500000 0.528761 0.610204
Si Si6 0.674309 0.500000 0.000000
Si Si7 0.000000 0.116370 0.759382
Si Si8 0.000000 0.507897 0.375362
O O1 0.403532 0.302186 0.822332
O O2 0.500000 0.326066 0.681502
O O3 0.500000 0.430288 0.801814
O O4 0.250000 0.750581 0.250000
O O5 0.303197 0.805625 0.100799
O O6 0.401510 0.836053 0.240398
O O7 0.603675 0.669762 0.459926
O O8 0.598818 0.568308 0.578469
O O9 0.763064 0.578862 0.506630
O O10 0.500000 0.555827 0.419694
O O11 0.500000 0.537646 0.707860
O O12 0.603248 0.481708 0.923467
O O13 0.000000 0.081511 0.850040
#
# Coordination Sequence:
#
# PCOD8262656 Si02
#       8
#     8  16  16   8   8   8   8   8
#     4  11  25  42  58  87 130 159 205 245 301 366
#     4  10  22  42  62  85 120 168 204 241 295 372
#     4  10  19  37  64  93 118 146 201 252 303 358
#     4  11  18  35  62  95 118 152 188 251 309 354
#     4   9  15  31  60  91 116 137 184 242 303 354
#     4  11  22  37  60  92 118 151 204 259 308 364
#     4   9  18  37  62  85 112 155 196 249 307 349
#     4  11  24  39  56  88 124 160 196 261 311 348
#
# _framework density 20.980353999999998
#
# number of rings (size 3 to 8) (size 9 to 14) (size 15 to 20)
#    0.000    1.800    3.000    3.600    0.000    1.600 
#    0.000   17.000    0.000    0.000    0.000    0.000 
#    0.000    0.000    0.000    0.000    0.000    0.000 
#
# Total GULP energy -495567.954366 kJ/mol
# GULP energy per Si atom -12389.198859 kJ/mol
# Density = 2.093260 g / cm^3
# Si number density = 20.980354 Si / 1000 Ang^3
#
#
#
# Elastic Constant Matrix: (Units=GPa)
#
#
# Indices 1 2 3 4 5 6 
#
# 1 107.2205 9.9259 23.5127 0.0000 0.0000 0.0000
# 2 9.9259 56.9843 18.8198 0.0000 0.0000 0.0000
# 3 23.5127 18.8198 68.3276 0.0000 0.0000 0.0000
# 4 0.0000 0.0000 0.0000 35.0742 0.0000 0.0000
# 5 0.0000 0.0000 0.0000 0.0000 -23.1087 0.0000
# 6 0.0000 0.0000 0.0000 0.0000 0.0000 13.7764
#
#
#
# Elastic Compliance Matrix: (Units=1/GPa)
#
#
# Indices 1 2 3 4 5 6 
#
# 1 0.010111 -0.000673 -0.003294 0.000000 0.000000 0.000000
# 2 -0.000673 0.019350 -0.005098 0.000000 0.000000 0.000000
# 3 -0.003294 -0.005098 0.017173 0.000000 0.000000 0.000000
# 4 0.000000 0.000000 0.000000 0.028511 0.000000 0.000000
# 5 0.000000 0.000000 0.000000 0.000000 -0.043274 0.000000
# 6 0.000000 0.000000 0.000000 0.000000 0.000000 0.072588
#
#
# Mechanical properties :
#
#
# Convention : Reuss Voigt Hill
#
# Bulk Modulus (GPa) = 35.08340 37.44989 36.26665
# Shear Modulus (GPa) = 37.85278 17.16664 27.50971
#
# Velocity S-wave (km/s) = 4.25220 2.86357 3.62500
# Velocity P-wave (km/s) = 6.39270 5.36862 5.90291
#
# Compressibility (1/GPa) = 0.02850351
#
# Stress axis : x y z
#
# Youngs Moduli (GPa) = 98.89969 51.68061 58.23085
#
# Poissons Ratio (x) = 0.03480 0.19181
# Poissons Ratio (y) = 0.06659 0.29685
# Poissons Ratio (z) = 0.32577 0.26346
#
# Static dielectric constant tensor:
#      x y z
#    x 3.812360 0.000000 0.000000 
#    y 0.000000 3.606120 0.000000 
#    z 0.000000 0.000000 4.092120 
# 
# 
# High freq. dielectric constant tensor:
#      x y z
#    x 1.819970 0.000000 0.000000 
#    y 0.000000 1.810030 0.000000 
#    z 0.000000 0.000000 1.826300 
# 
# From -- ./inp_files/32124.got.cif
#   From: 2010.03.12/outbox.cif.g09.slc.cpg/sg64_17_cif.got.tgz:32124.got - 2010.04.10 20:19:32.
