data_PCOD8262793
_publ_section_title
;
Structure prediction by ZEFSAII (Michael W. Deem and Ramdas Pophale) SiO2 
 PCOD8262793
Probable space group: C M C A
;
_chemical_formula_sum "Si O2"
_cell_formula_units_Z 80
_cell_length_a 9.294892
_cell_length_b 19.834049
_cell_length_c 23.717681
_cell_angle_alpha 90.000000
_cell_angle_beta 90.000000
_cell_angle_gamma 90.000000
_cell_volume 4372.481225
_symmetry_space_group_name_H-M "C M C A"
_symmetry_group_IT_number 64
_symmetry_cell_setting 'orthorhombic'
loop_
_space_group_symop_operation_xyz
x,y,z
-x,1/2-y,1/2+z
x,-y,-z
-x,1/2+y,1/2-z
-x,-y,-z
x,1/2+y,1/2-z
-x,y,z
x,1/2-y,1/2+z
1/2+x,1/2+y,z
1/2-x,-y,1/2+z
1/2+x,1/2-y,-z
1/2-x,y,1/2-z
1/2-x,1/2-y,-z
1/2+x,y,1/2-z
1/2-x,1/2+y,z
1/2+x,-y,1/2+z
loop_
_atom_site_type_symbol
_atom_site_label
_atom_site_fract_x
_atom_site_fract_y
_atom_site_fract_z
Si Si1 0.162375 0.034905 0.584661
Si Si2 0.168616 0.712892 0.307973
Si Si3 0.666468 0.877201 0.490148
Si Si4 0.335410 0.909677 0.615122
Si Si5 0.337957 0.818250 0.100982
O O1 0.254715 0.052623 0.528258
O O2 0.161385 0.103580 0.622636
O O3 0.000000 0.014197 0.567825
O O4 0.234320 0.974786 0.619916
O O5 0.250000 0.721679 0.250000
O O6 0.204471 0.639890 0.333940
O O7 0.225625 0.770628 0.350463
O O8 0.000000 0.721756 0.297124
O O9 0.500000 0.881481 0.473360
O O10 0.689023 0.868497 0.556914
O O11 0.740340 0.814822 0.456049
O O12 0.500000 0.934076 0.618993
O O13 0.500000 0.794388 0.085194
#
# Coordination Sequence:
#
# PCOD8262793 Si02
#       5
#    16  16  16  16  16
#     4   9  18  32  52  80 111 140 169 207 256 311
#     4  10  22  41  57  73 102 140 181 223 266 309
#     4   9  17  30  52  82 111 140 172 207 259 318
#     4  10  20  33  53  80 112 142 170 214 264 313
#     4   8  18  35  53  75 106 138 171 214 259 307
#
# _framework density 18.296247999999999
#
# number of rings (size 3 to 8) (size 9 to 14) (size 15 to 20)
#    1.200    1.600    0.000    1.200    0.000    6.400 
#    0.000    1.000    0.000    4.800    0.000    0.000 
#    0.000    0.000    0.000    0.000    0.000    0.000 
#
# Total GULP energy -495634.295255 kJ/mol
# GULP energy per Si atom -12390.857381 kJ/mol
# Density = 1.825460 g / cm^3
# Si number density = 18.296248 Si / 1000 Ang^3
#
#
#
# Elastic Constant Matrix: (Units=GPa)
#
#
# Indices 1 2 3 4 5 6 
#
# 1 89.5310 23.1941 27.7512 0.0000 0.0000 0.0000
# 2 23.1941 29.7307 23.6921 0.0000 0.0000 0.0000
# 3 27.7512 23.6921 45.9705 0.0000 0.0000 0.0000
# 4 0.0000 0.0000 0.0000 18.0008 0.0000 0.0000
# 5 0.0000 0.0000 0.0000 0.0000 22.2449 0.0000
# 6 0.0000 0.0000 0.0000 0.0000 0.0000 27.1305
#
#
#
# Elastic Compliance Matrix: (Units=1/GPa)
#
#
# Indices 1 2 3 4 5 6 
#
# 1 0.014649 -0.007434 -0.005011 0.000000 0.000000 0.000000
# 2 -0.007434 0.060850 -0.026873 0.000000 0.000000 0.000000
# 3 -0.005011 -0.026873 0.038628 0.000000 0.000000 0.000000
# 4 0.000000 0.000000 0.000000 0.055553 0.000000 0.000000
# 5 0.000000 0.000000 0.000000 0.000000 0.044954 0.000000
# 6 0.000000 0.000000 0.000000 0.000000 0.000000 0.036859
#
#
# Mechanical properties :
#
#
# Convention : Reuss Voigt Hill
#
# Bulk Modulus (GPa) = 28.17749 34.94524 31.56137
# Shear Modulus (GPa) = 14.62163 19.51487 17.06825
#
# Velocity S-wave (km/s) = 2.83001 3.26943 3.05763
# Velocity P-wave (km/s) = 5.11006 5.77870 5.45464
#
# Compressibility (1/GPa) = 0.03548932
#
# Stress axis : x y z
#
# Youngs Moduli (GPa) = 68.26562 16.43394 25.88807
#
# Poissons Ratio (x) = 0.12218 0.12974
# Poissons Ratio (y) = 0.50752 0.69568
# Poissons Ratio (z) = 0.34211 0.44162
#
# Static dielectric constant tensor:
#      x y z
#    x 3.365260 0.000000 0.000000 
#    y 0.000000 3.263420 0.000000 
#    z 0.000000 0.000000 3.019720 
# 
# 
# High freq. dielectric constant tensor:
#      x y z
#    x 1.712620 0.000000 0.000000 
#    y 0.000000 1.707230 0.000000 
#    z 0.000000 0.000000 1.672120 
# 
# From -- ./inp_files/47825.got.cif
#   From: 2010.03.12/outbox.cif.g09.slc.cpg/sg64_24_cif.got.tgz:47825.got - 2010.04.10 20:19:32.
