data_PCOD8262509
_publ_section_title
;
Structure prediction by ZEFSAII (Michael W. Deem and Ramdas Pophale) SiO2 
 PCOD8262509
Probable space group: C M C A
;
_chemical_formula_sum "Si O2"
_cell_formula_units_Z 104
_cell_length_a 22.891708
_cell_length_b 17.207650
_cell_length_c 14.135114
_cell_angle_alpha 90.000000
_cell_angle_beta 90.000000
_cell_angle_gamma 90.000000
_cell_volume 5567.998082
_symmetry_space_group_name_H-M "C M C A"
_symmetry_group_IT_number 64
_symmetry_cell_setting 'orthorhombic'
loop_
_space_group_symop_operation_xyz
x,y,z
-x,1/2-y,1/2+z
x,-y,-z
-x,1/2+y,1/2-z
-x,-y,-z
x,1/2+y,1/2-z
-x,y,z
x,1/2-y,1/2+z
1/2+x,1/2+y,z
1/2-x,-y,1/2+z
1/2+x,1/2-y,-z
1/2-x,y,1/2-z
1/2-x,1/2-y,-z
1/2+x,y,1/2-z
1/2-x,1/2+y,z
1/2+x,-y,1/2+z
loop_
_atom_site_type_symbol
_atom_site_label
_atom_site_fract_x
_atom_site_fract_y
_atom_site_fract_z
Si Si1 0.643352 0.191859 0.309581
Si Si2 0.068520 0.655740 0.477578
Si Si3 0.760551 0.189093 0.641472
Si Si4 0.139197 0.000000 0.000000
Si Si5 0.359432 0.232261 0.099995
Si Si6 0.282887 0.045771 0.338651
Si Si7 0.189622 0.912653 0.513708
O O1 0.585529 0.184341 0.372924
O O2 0.687369 0.248731 0.364736
O O3 0.622967 0.223715 0.209041
O O4 0.674906 0.109817 0.292230
O O5 0.098968 0.574280 0.496531
O O6 0.089646 0.716553 0.555516
O O7 0.000000 0.645147 0.485435
O O8 0.750000 0.165563 0.750000
O O9 0.703749 0.226396 0.591478
O O10 0.779812 0.111802 0.585203
O O11 0.179528 0.988645 0.094062
O O12 0.359509 0.149297 0.044991
O O13 0.250000 0.003364 0.250000
O O14 0.237321 0.090594 0.404202
O O15 0.163772 0.000000 0.500000
#
# Coordination Sequence:
#
# PCOD8262509 Si02
#       7
#    16  16  16   8  16  16  16
#     4  10  19  36  61  86 114 158 198 249 299 361
#     4  11  24  42  64  84 117 162 210 256 292 348
#     4  10  19  35  56  88 121 152 192 241 307 373
#     4  10  23  40  60  94 124 156 197 246 300 362
#     4  11  21  38  60  87 119 155 201 245 300 363
#     4  11  19  34  55  87 124 157 185 231 301 371
#     4  12  22  33  53  87 128 158 187 231 293 376
#
# _framework density 18.678167999999999
#
# number of rings (size 3 to 8) (size 9 to 14) (size 15 to 20)
#    0.000    1.231    5.385    3.000    0.000    1.231 
#    2.769    0.000    0.000    0.462    0.000    0.000 
#    0.000    0.000    0.000    0.154    0.000    0.000 
#
# Total GULP energy -644792.712042 kJ/mol
# GULP energy per Si atom -12399.859847 kJ/mol
# Density = 1.863566 g / cm^3
# Si number density = 18.678168 Si / 1000 Ang^3
#
#
#
# Elastic Constant Matrix: (Units=GPa)
#
#
# Indices 1 2 3 4 5 6 
#
# 1 102.9472 38.5686 61.0940 0.0000 0.0000 0.0000
# 2 38.5686 99.0110 53.3644 0.0000 0.0000 0.0000
# 3 61.0940 53.3644 124.8099 0.0000 0.0000 0.0000
# 4 0.0000 0.0000 0.0000 30.2510 0.0000 0.0000
# 5 0.0000 0.0000 0.0000 0.0000 19.4100 0.0000
# 6 0.0000 0.0000 0.0000 0.0000 0.0000 13.3835
#
#
#
# Elastic Compliance Matrix: (Units=1/GPa)
#
#
# Indices 1 2 3 4 5 6 
#
# 1 0.014083 -0.002301 -0.005910 0.000000 0.000000 0.000000
# 2 -0.002301 0.013500 -0.004646 0.000000 0.000000 0.000000
# 3 -0.005910 -0.004646 0.012892 0.000000 0.000000 0.000000
# 4 0.000000 0.000000 0.000000 0.033057 0.000000 0.000000
# 5 0.000000 0.000000 0.000000 0.000000 0.051520 0.000000
# 6 0.000000 0.000000 0.000000 0.000000 0.000000 0.074719
#
#
# Mechanical properties :
#
#
# Convention : Reuss Voigt Hill
#
# Bulk Modulus (GPa) = 67.74361 70.31357 69.02859
# Shear Modulus (GPa) = 21.70109 24.19166 22.94637
#
# Velocity S-wave (km/s) = 3.41228 3.60277 3.50882
# Velocity P-wave (km/s) = 7.20225 7.41843 7.31114
#
# Compressibility (1/GPa) = 0.01476154
#
# Stress axis : x y z
#
# Youngs Moduli (GPa) = 71.00858 74.07322 77.57021
#
# Poissons Ratio (x) = 0.17041 0.45843
# Poissons Ratio (y) = 0.16336 0.36040
# Poissons Ratio (z) = 0.41965 0.34415
#
# Static dielectric constant tensor:
#      x y z
#    x 3.027270 0.000000 0.000000 
#    y 0.000000 3.419480 0.000000 
#    z 0.000000 0.000000 3.618880 
# 
# 
# High freq. dielectric constant tensor:
#      x y z
#    x 1.673740 0.000000 0.000000 
#    y 0.000000 1.731520 0.000000 
#    z 0.000000 0.000000 1.746260 
# 
# From -- ./inp_files/27537.got.cif
#   From: 2010.03.12/outbox.cif.g09.slc.cpg/sg64_14_cif.got.tgz:27537.got - 2010.04.10 20:19:32.
