data_PCOD8262838
_publ_section_title
;
Structure prediction by ZEFSAII (Michael W. Deem and Ramdas Pophale) SiO2 
 PCOD8262838
Probable space group: C M C A
;
_chemical_formula_sum "Si O2"
_cell_formula_units_Z 96
_cell_length_a 8.981079
_cell_length_b 19.603539
_cell_length_c 30.143410
_cell_angle_alpha 90.000000
_cell_angle_beta 90.000000
_cell_angle_gamma 90.000000
_cell_volume 5307.076871
_symmetry_space_group_name_H-M "C M C A"
_symmetry_group_IT_number 64
_symmetry_cell_setting 'orthorhombic'
loop_
_space_group_symop_operation_xyz
x,y,z
-x,1/2-y,1/2+z
x,-y,-z
-x,1/2+y,1/2-z
-x,-y,-z
x,1/2+y,1/2-z
-x,y,z
x,1/2-y,1/2+z
1/2+x,1/2+y,z
1/2-x,-y,1/2+z
1/2+x,1/2-y,-z
1/2-x,y,1/2-z
1/2-x,1/2-y,-z
1/2+x,y,1/2-z
1/2-x,1/2+y,z
1/2+x,-y,1/2+z
loop_
_atom_site_type_symbol
_atom_site_label
_atom_site_fract_x
_atom_site_fract_y
_atom_site_fract_z
Si Si1 0.174265 0.540054 0.205075
Si Si2 0.823665 0.799791 0.465128
Si Si3 0.327668 0.059089 0.533551
Si Si4 0.825172 0.195571 0.294876
Si Si5 0.673451 0.793448 0.373107
Si Si6 0.331150 0.550366 0.865302
O O1 0.250000 0.512882 0.250000
O O2 0.223204 0.617830 0.195299
O O3 0.220391 0.494159 0.163764
O O4 0.000000 0.534026 0.211990
O O5 0.750000 0.750000 0.500000
O O6 0.774379 0.876317 0.476928
O O7 0.769490 0.777881 0.416471
O O8 0.000000 0.793948 0.467816
O O9 0.500000 0.080556 0.527502
O O10 0.300288 0.032615 0.583379
O O11 0.280021 0.000000 0.500000
O O12 0.750000 0.222639 0.250000
O O13 0.769643 0.242007 0.335390
O O14 0.000000 0.202705 0.288496
O O15 0.500000 0.782475 0.384863
O O16 0.700790 0.870155 0.356195
O O17 0.500000 0.531787 0.852275
#
# Coordination Sequence:
#
# PCOD8262838 Si02
#       6
#    16  16  16  16  16  16
#     4  10  20  34  52  74 102 134 170 211 255 306
#     4  11  22  36  55  79 108 142 180 220 263 313
#     4   9  19  37  58  80 108 140 174 215 265 317
#     4   9  19  35  54  76 103 135 171 214 260 307
#     4   9  19  37  56  76 104 136 173 217 264 310
#     4   9  18  33  53  76 104 135 166 207 256 306
#
# _framework density 18.089054000000001
#
# number of rings (size 3 to 8) (size 9 to 14) (size 15 to 20)
#    0.000    2.500    0.000    3.000    0.000    6.333 
#    0.000    5.000    0.000    0.000    0.000    0.000 
#    0.000    0.000    0.000    0.000    0.000    0.000 
#
# Total GULP energy -595340.513242 kJ/mol
# GULP energy per Si atom -12402.927359 kJ/mol
# Density = 1.804788 g / cm^3
# Si number density = 18.089054 Si / 1000 Ang^3
#
#
#
# Elastic Constant Matrix: (Units=GPa)
#
#
# Indices 1 2 3 4 5 6 
#
# 1 91.7809 52.9188 65.5948 0.0000 0.0000 0.0000
# 2 52.9188 94.6745 89.7141 0.0000 0.0000 0.0000
# 3 65.5948 89.7141 136.6461 0.0000 0.0000 0.0000
# 4 0.0000 0.0000 0.0000 39.2520 0.0000 0.0000
# 5 0.0000 0.0000 0.0000 0.0000 34.6428 0.0000
# 6 0.0000 0.0000 0.0000 0.0000 0.0000 27.7445
#
#
#
# Elastic Compliance Matrix: (Units=1/GPa)
#
#
# Indices 1 2 3 4 5 6 
#
# 1 0.017367 -0.004783 -0.005196 0.000000 0.000000 0.000000
# 2 -0.004783 0.029271 -0.016922 0.000000 0.000000 0.000000
# 3 -0.005196 -0.016922 0.020922 0.000000 0.000000 0.000000
# 4 0.000000 0.000000 0.000000 0.025476 0.000000 0.000000
# 5 0.000000 0.000000 0.000000 0.000000 0.028866 0.000000
# 6 0.000000 0.000000 0.000000 0.000000 0.000000 0.036043
#
#
# Mechanical properties :
#
#
# Convention : Reuss Voigt Hill
#
# Bulk Modulus (GPa) = 72.68452 82.17298 77.42875
# Shear Modulus (GPa) = 23.11224 27.98614 25.54919
#
# Velocity S-wave (km/s) = 3.57836 3.93763 3.76228
# Velocity P-wave (km/s) = 7.57242 8.13626 7.85940
#
# Compressibility (1/GPa) = 0.01375809
#
# Stress axis : x y z
#
# Youngs Moduli (GPa) = 57.57939 34.16313 47.79567
#
# Poissons Ratio (x) = 0.16342 0.24836
# Poissons Ratio (y) = 0.27543 0.80878
# Poissons Ratio (z) = 0.29920 0.57810
#
# Static dielectric constant tensor:
#      x y z
#    x 3.271270 0.000000 0.000000 
#    y 0.000000 3.401160 0.000000 
#    z 0.000000 0.000000 3.401320 
# 
# 
# High freq. dielectric constant tensor:
#      x y z
#    x 1.698590 0.000000 0.000000 
#    y 0.000000 1.698820 0.000000 
#    z 0.000000 0.000000 1.706030 
# 
# From -- ./inp_files/48060.got.cif
#   From: 2010.03.12/outbox.cif.g09.slc.cpg/sg64_25_cif.got.tgz:48060.got - 2010.04.10 20:19:32.
