data_PCOD8262581
_publ_section_title
;
Structure prediction by ZEFSAII (Michael W. Deem and Ramdas Pophale) SiO2 
 PCOD8262581
Probable space group: C M C A
;
_chemical_formula_sum "Si O2"
_cell_formula_units_Z 88
_cell_length_a 21.857139
_cell_length_b 15.449930
_cell_length_c 13.174778
_cell_angle_alpha 90.000000
_cell_angle_beta 90.000000
_cell_angle_gamma 90.000000
_cell_volume 4449.007483
_symmetry_space_group_name_H-M "C M C A"
_symmetry_group_IT_number 64
_symmetry_cell_setting 'orthorhombic'
loop_
_space_group_symop_operation_xyz
x,y,z
-x,1/2-y,1/2+z
x,-y,-z
-x,1/2+y,1/2-z
-x,-y,-z
x,1/2+y,1/2-z
-x,y,z
x,1/2-y,1/2+z
1/2+x,1/2+y,z
1/2-x,-y,1/2+z
1/2+x,1/2-y,-z
1/2-x,y,1/2-z
1/2-x,1/2-y,-z
1/2+x,y,1/2-z
1/2-x,1/2+y,z
1/2+x,-y,1/2+z
loop_
_atom_site_type_symbol
_atom_site_label
_atom_site_fract_x
_atom_site_fract_y
_atom_site_fract_z
Si Si1 0.570707 0.155966 0.362735
Si Si2 0.709897 0.847196 0.078276
Si Si3 0.366265 0.000000 0.000000
Si Si4 0.658223 0.191933 0.542843
Si Si5 0.928285 0.485701 0.798618
Si Si6 0.618366 0.321495 0.260926
O O1 0.500000 0.138985 0.393579
O O2 0.614321 0.146328 0.460975
O O3 0.595926 0.084549 0.283130
O O4 0.574742 0.253041 0.318088
O O5 0.686129 0.782527 0.991972
O O6 0.686554 0.814957 0.189140
O O7 0.782344 0.865739 0.071911
O O8 0.677063 0.936238 0.059225
O O9 0.407433 0.042952 0.088334
O O10 0.619337 0.206567 0.644161
O O11 0.907922 0.582186 0.769950
O O12 0.000000 0.481355 0.797475
#
# Coordination Sequence:
#
# PCOD8262581 Si02
#       6
#    16  16   8  16  16  16
#     4  10  22  37  54  81 112 143 183 224 267 325
#     4   9  20  35  56  82 106 136 183 224 266 325
#     4  10  19  36  58  80 105 140 182 230 272 314
#     4  10  20  37  56  78 111 146 173 220 279 324
#     4  10  21  36  55  81 110 142 183 225 267 320
#     4  10  20  36  57  80 108 144 182 222 268 321
#
# _framework density 19.779692000000001
#
# number of rings (size 3 to 8) (size 9 to 14) (size 15 to 20)
#    0.000    2.182    0.000    2.455    0.000    3.636 
#    0.000   10.909    0.000    0.000    0.000    0.000 
#    0.000    0.000    0.000    0.000    0.000    0.000 
#
# Total GULP energy -545410.368022 kJ/mol
# GULP energy per Si atom -12395.690182 kJ/mol
# Density = 1.973467 g / cm^3
# Si number density = 19.779692 Si / 1000 Ang^3
#
#
#
# Elastic Constant Matrix: (Units=GPa)
#
#
# Indices 1 2 3 4 5 6 
#
# 1 74.9535 8.7483 28.5431 0.0000 0.0000 0.0000
# 2 8.7483 70.9742 15.3398 0.0000 0.0000 0.0000
# 3 28.5431 15.3398 120.5483 0.0000 0.0000 0.0000
# 4 0.0000 0.0000 0.0000 28.5195 0.0000 0.0000
# 5 0.0000 0.0000 0.0000 0.0000 28.1181 0.0000
# 6 0.0000 0.0000 0.0000 0.0000 0.0000 20.8884
#
#
#
# Elastic Compliance Matrix: (Units=1/GPa)
#
#
# Indices 1 2 3 4 5 6 
#
# 1 0.014746 -0.001093 -0.003352 0.000000 0.000000 0.000000
# 2 -0.001093 0.014569 -0.001595 0.000000 0.000000 0.000000
# 3 -0.003352 -0.001595 0.009292 0.000000 0.000000 0.000000
# 4 0.000000 0.000000 0.000000 0.035064 0.000000 0.000000
# 5 0.000000 0.000000 0.000000 0.000000 0.035564 0.000000
# 6 0.000000 0.000000 0.000000 0.000000 0.000000 0.047874
#
#
# Mechanical properties :
#
#
# Convention : Reuss Voigt Hill
#
# Bulk Modulus (GPa) = 37.69881 41.30428 39.50154
# Shear Modulus (GPa) = 28.08489 29.76151 28.92320
#
# Velocity S-wave (km/s) = 3.77222 3.88319 3.82811
# Velocity P-wave (km/s) = 6.17038 6.40570 6.28914
#
# Compressibility (1/GPa) = 0.02652604
#
# Stress axis : x y z
#
# Youngs Moduli (GPa) = 67.81588 68.63838 107.61738
#
# Poissons Ratio (x) = 0.07502 0.36077
# Poissons Ratio (y) = 0.07412 0.17166
# Poissons Ratio (z) = 0.22734 0.10949
#
# Static dielectric constant tensor:
#      x y z
#    x 3.689420 0.000000 0.000000 
#    y 0.000000 3.700890 0.000000 
#    z 0.000000 0.000000 3.893060 
# 
# 
# High freq. dielectric constant tensor:
#      x y z
#    x 1.771770 0.000000 0.000000 
#    y 0.000000 1.761190 0.000000 
#    z 0.000000 0.000000 1.781110 
# 
# From -- ./inp_files/17127.got.cif
#   From: 2010.03.12/outbox.cif.g09.slc.cpg/sg64_9_cif.got.tgz:17127.got - 2010.04.10 20:19:32.
