data_PCOD8262712
_publ_section_title
;
Structure prediction by ZEFSAII (Michael W. Deem and Ramdas Pophale) SiO2 
 PCOD8262712
Probable space group: C M C A
;
_chemical_formula_sum "Si O2"
_cell_formula_units_Z 80
_cell_length_a 23.511824
_cell_length_b 5.131740
_cell_length_c 34.142612
_cell_angle_alpha 90.000000
_cell_angle_beta 90.000000
_cell_angle_gamma 90.000000
_cell_volume 4119.530376
_symmetry_space_group_name_H-M "C M C A"
_symmetry_group_IT_number 64
_symmetry_cell_setting 'orthorhombic'
loop_
_space_group_symop_operation_xyz
x,y,z
-x,1/2-y,1/2+z
x,-y,-z
-x,1/2+y,1/2-z
-x,-y,-z
x,1/2+y,1/2-z
-x,y,z
x,1/2-y,1/2+z
1/2+x,1/2+y,z
1/2-x,-y,1/2+z
1/2+x,1/2-y,-z
1/2-x,y,1/2-z
1/2-x,1/2-y,-z
1/2+x,y,1/2-z
1/2-x,1/2+y,z
1/2+x,-y,1/2+z
loop_
_atom_site_type_symbol
_atom_site_label
_atom_site_fract_x
_atom_site_fract_y
_atom_site_fract_z
Si Si1 0.785926 0.017133 0.455037
Si Si2 0.563987 0.249258 0.981924
Si Si3 0.605131 0.598359 0.596660
Si Si4 0.432907 0.582179 0.860453
Si Si5 0.567576 0.827047 0.272244
O O1 0.764151 0.308818 0.447158
O O2 0.807472 0.000000 0.500000
O O3 0.834358 0.947613 0.423564
O O4 0.500000 0.257197 0.998513
O O5 0.563582 0.231903 0.935274
O O6 0.596635 0.500000 0.000000
O O7 0.596164 0.000000 0.000000
O O8 0.580689 0.322887 0.610950
O O9 0.603908 0.821301 0.630099
O O10 0.500000 0.516215 0.861889
O O11 0.412893 0.664201 0.817203
O O12 0.592782 0.569996 0.251913
O O13 0.500000 0.827614 0.269761
#
# Coordination Sequence:
#
# PCOD8262712 Si02
#       5
#    16  16  16  16  16
#     4  10  22  40  59  77  99 134 184 237 282 321
#     4  10  20  32  46  66  96 137 176 203 239 303
#     4  12  22  35  54  77 108 139 176 224 278 319
#     4  11  22  34  52  82 117 148 176 211 260 319
#     4   9  17  31  50  72 105 148 183 208 241 297
#
# _framework density 19.419689000000002
#
# number of rings (size 3 to 8) (size 9 to 14) (size 15 to 20)
#    0.000    1.600    0.000    6.000    0.000    7.200 
#    0.000    0.000    0.000    0.000    0.000    0.000 
#    0.000   56.000    0.000    0.000    0.000    0.000 
#
# Total GULP energy -495799.121709 kJ/mol
# GULP energy per Si atom -12394.978043 kJ/mol
# Density = 1.937549 g / cm^3
# Si number density = 19.419689 Si / 1000 Ang^3
#
#
#
# Elastic Constant Matrix: (Units=GPa)
#
#
# Indices 1 2 3 4 5 6 
#
# 1 52.2025 16.2336 26.1162 0.0000 0.0000 0.0000
# 2 16.2336 130.7909 29.0680 0.0000 0.0000 0.0000
# 3 26.1162 29.0680 96.0885 0.0000 0.0000 0.0000
# 4 0.0000 0.0000 0.0000 43.9058 0.0000 0.0000
# 5 0.0000 0.0000 0.0000 0.0000 5.3785 0.0000
# 6 0.0000 0.0000 0.0000 0.0000 0.0000 12.7007
#
#
#
# Elastic Compliance Matrix: (Units=1/GPa)
#
#
# Indices 1 2 3 4 5 6 
#
# 1 0.022454 -0.001534 -0.005639 0.000000 0.000000 0.000000
# 2 -0.001534 0.008302 -0.002094 0.000000 0.000000 0.000000
# 3 -0.005639 -0.002094 0.012573 0.000000 0.000000 0.000000
# 4 0.000000 0.000000 0.000000 0.022776 0.000000 0.000000
# 5 0.000000 0.000000 0.000000 0.000000 0.185925 0.000000
# 6 0.000000 0.000000 0.000000 0.000000 0.000000 0.078736
#
#
# Mechanical properties :
#
#
# Convention : Reuss Voigt Hill
#
# Bulk Modulus (GPa) = 40.33096 46.87971 43.60534
# Shear Modulus (GPa) = 13.98347 26.24127 20.11237
#
# Velocity S-wave (km/s) = 2.68632 3.67995 3.22167
# Velocity P-wave (km/s) = 5.51678 6.49991 6.02842
#
# Compressibility (1/GPa) = 0.02479485
#
# Stress axis : x y z
#
# Youngs Moduli (GPa) = 44.53506 120.45791 79.53356
#
# Poissons Ratio (x) = 0.18475 0.44848
# Poissons Ratio (y) = 0.06831 0.16658
# Poissons Ratio (z) = 0.25113 0.25230
#
# Static dielectric constant tensor:
#      x y z
#    x 3.027590 0.000000 0.000000 
#    y 0.000000 3.296150 0.000000 
#    z 0.000000 0.000000 3.607580 
# 
# 
# High freq. dielectric constant tensor:
#      x y z
#    x 1.705500 0.000000 0.000000 
#    y 0.000000 1.786510 0.000000 
#    z 0.000000 0.000000 1.750730 
# 
# From -- ./inp_files/53849.got.cif
#   From: 2010.03.12/outbox.cif.g09.slc.cpg/sg64_27_cif.got.tgz:53849.got - 2010.04.10 20:19:32.
