data_PCOD8262617
_publ_section_title
;
Structure prediction by ZEFSAII (Michael W. Deem and Ramdas Pophale) SiO2 
 PCOD8262617
Probable space group: C M C A
;
_chemical_formula_sum "Si O2"
_cell_formula_units_Z 96
_cell_length_a 19.115236
_cell_length_b 11.310276
_cell_length_c 22.939644
_cell_angle_alpha 90.000000
_cell_angle_beta 90.000000
_cell_angle_gamma 90.000000
_cell_volume 4959.518802
_symmetry_space_group_name_H-M "C M C A"
_symmetry_group_IT_number 64
_symmetry_cell_setting 'orthorhombic'
loop_
_space_group_symop_operation_xyz
x,y,z
-x,1/2-y,1/2+z
x,-y,-z
-x,1/2+y,1/2-z
-x,-y,-z
x,1/2+y,1/2-z
-x,y,z
x,1/2-y,1/2+z
1/2+x,1/2+y,z
1/2-x,-y,1/2+z
1/2+x,1/2-y,-z
1/2-x,y,1/2-z
1/2-x,1/2-y,-z
1/2+x,y,1/2-z
1/2-x,1/2+y,z
1/2+x,-y,1/2+z
loop_
_atom_site_type_symbol
_atom_site_label
_atom_site_fract_x
_atom_site_fract_y
_atom_site_fract_z
Si Si1 0.080420 0.329230 0.836678
Si Si2 0.323711 0.726526 0.625931
Si Si3 0.707076 0.554155 0.059999
Si Si4 0.177470 0.888248 0.156989
Si Si5 0.369093 0.502081 0.432506
Si Si6 0.673283 0.892955 0.730940
O O1 0.112695 0.199845 0.843146
O O2 0.086060 0.402768 0.896779
O O3 0.120554 0.394783 0.784759
O O4 0.000000 0.315538 0.819547
O O5 0.310872 0.808094 0.568667
O O6 0.250437 0.677565 0.648829
O O7 0.375244 0.624104 0.601671
O O8 0.354713 0.805273 0.679347
O O9 0.663043 0.479437 0.105594
O O10 0.789280 0.541454 0.069393
O O11 0.681602 0.500000 0.000000
O O12 0.178621 0.968672 0.214778
O O13 0.395749 0.500000 0.500000
O O14 0.750000 0.847068 0.750000
#
# Coordination Sequence:
#
# PCOD8262617 Si02
#       6
#    16  16  16  16  16  16
#     4  12  26  41  59  86 121 161 201 244 301 364
#     4  10  19  36  61  94 121 149 196 250 304 351
#     4   9  18  32  62  95 119 147 191 253 304 344
#     4  10  21  36  57  87 121 151 195 244 302 356
#     4  10  22  37  60  90 123 158 199 247 303 360
#     4  11  22  38  63  90 117 156 199 250 304 359
#
# _framework density 19.356715999999999
#
# number of rings (size 3 to 8) (size 9 to 14) (size 15 to 20)
#    0.000    1.667    3.333    2.000    7.000    3.000 
#    0.000    0.000    0.000    1.500    0.000    0.000 
#    0.000    0.000    0.000    0.000    0.000    0.000 
#
# Total GULP energy -594951.977924 kJ/mol
# GULP energy per Si atom -12394.832873 kJ/mol
# Density = 1.931266 g / cm^3
# Si number density = 19.356716 Si / 1000 Ang^3
#
#
#
# Elastic Constant Matrix: (Units=GPa)
#
#
# Indices 1 2 3 4 5 6 
#
# 1 71.8839 21.4932 37.4001 0.0000 0.0000 0.0000
# 2 21.4932 107.6090 36.0460 0.0000 0.0000 0.0000
# 3 37.4001 36.0460 96.1659 0.0000 0.0000 0.0000
# 4 0.0000 0.0000 0.0000 33.9618 0.0000 0.0000
# 5 0.0000 0.0000 0.0000 0.0000 13.8207 0.0000
# 6 0.0000 0.0000 0.0000 0.0000 0.0000 7.2728
#
#
#
# Elastic Compliance Matrix: (Units=1/GPa)
#
#
# Indices 1 2 3 4 5 6 
#
# 1 0.017623 -0.001400 -0.006329 0.000000 0.000000 0.000000
# 2 -0.001400 0.010738 -0.003481 0.000000 0.000000 0.000000
# 3 -0.006329 -0.003481 0.014165 0.000000 0.000000 0.000000
# 4 0.000000 0.000000 0.000000 0.029445 0.000000 0.000000
# 5 0.000000 0.000000 0.000000 0.000000 0.072355 0.000000
# 6 0.000000 0.000000 0.000000 0.000000 0.000000 0.137499
#
#
# Mechanical properties :
#
#
# Convention : Reuss Voigt Hill
#
# Bulk Modulus (GPa) = 49.73410 51.72638 50.73024
# Shear Modulus (GPa) = 16.07996 23.05903 19.56950
#
# Velocity S-wave (km/s) = 2.88534 3.45522 3.18306
# Velocity P-wave (km/s) = 6.07038 6.53443 6.30667
#
# Compressibility (1/GPa) = 0.02010693
#
# Stress axis : x y z
#
# Youngs Moduli (GPa) = 56.74488 93.12345 70.59763
#
# Poissons Ratio (x) = 0.13036 0.44681
# Poissons Ratio (y) = 0.07943 0.24573
# Poissons Ratio (z) = 0.35914 0.32413
#
# Static dielectric constant tensor:
#      x y z
#    x 2.975690 0.000000 0.000000 
#    y 0.000000 4.152690 0.000000 
#    z 0.000000 0.000000 3.833050 
# 
# 
# High freq. dielectric constant tensor:
#      x y z
#    x 1.692540 0.000000 0.000000 
#    y 0.000000 1.774080 0.000000 
#    z 0.000000 0.000000 1.768930 
# 
# From -- ./inp_files/46298.got.cif
#   From: 2010.03.12/outbox.cif.g09.slc.cpg/sg64_24_cif.got.tgz:46298.got - 2010.04.10 20:19:32.
