data_PCOD8262373
_publ_section_title
;
Structure prediction by ZEFSAII (Michael W. Deem and Ramdas Pophale) SiO2 
 PCOD8262373
Probable space group: C M C A
;
_chemical_formula_sum "Si O2"
_cell_formula_units_Z 88
_cell_length_a 23.910224
_cell_length_b 34.944451
_cell_length_c 5.207915
_cell_angle_alpha 90.000000
_cell_angle_beta 90.000000
_cell_angle_gamma 90.000000
_cell_volume 4351.367402
_symmetry_space_group_name_H-M "C M C A"
_symmetry_group_IT_number 64
_symmetry_cell_setting 'orthorhombic'
loop_
_space_group_symop_operation_xyz
x,y,z
-x,1/2-y,1/2+z
x,-y,-z
-x,1/2+y,1/2-z
-x,-y,-z
x,1/2+y,1/2-z
-x,y,z
x,1/2-y,1/2+z
1/2+x,1/2+y,z
1/2-x,-y,1/2+z
1/2+x,1/2-y,-z
1/2-x,y,1/2-z
1/2-x,1/2-y,-z
1/2+x,y,1/2-z
1/2-x,1/2+y,z
1/2+x,-y,1/2+z
loop_
_atom_site_type_symbol
_atom_site_label
_atom_site_fract_x
_atom_site_fract_y
_atom_site_fract_z
Si Si1 0.117152 0.816236 0.251044
Si Si2 0.122841 0.906313 0.249451
Si Si3 0.186753 0.185851 0.251883
Si Si4 0.000000 0.725624 0.780368
Si Si5 0.311336 0.904514 0.753945
Si Si6 0.564411 0.980693 0.250112
O O1 0.106692 0.861798 0.256800
O O2 0.151362 0.800740 0.498565
O O3 0.152746 0.697562 0.504068
O O4 0.055400 0.799231 0.238848
O O5 0.158071 0.919254 0.494498
O O6 0.069521 0.934356 0.248396
O O7 0.157466 0.917444 0.999710
O O8 0.250000 0.203762 0.250000
O O9 0.193051 0.140903 0.265498
O O10 0.000000 0.759188 0.570850
O O11 0.250000 0.922818 0.750000
O O12 0.500000 0.991716 0.250216
O O13 0.593022 0.000000 0.500000
O O14 0.592888 0.000000 0.000000
#
# Coordination Sequence:
#
# PCOD8262373 Si02
#       6
#    16  16  16   8  16  16
#     4  10  21  36  60  89 111 152 195 230 281 331
#     4  10  19  33  57  82 107 140 184 235 261 318
#     4   9  17  33  58  89 118 141 185 244 287 325
#     4  12  26  44  62  82 122 162 184 224 280 352
#     4   9  17  30  51  82 112 140 176 224 282 321
#     4  10  21  36  53  75 106 145 179 223 285 329
#
# _framework density 20.223528999999999
#
# number of rings (size 3 to 8) (size 9 to 14) (size 15 to 20)
#    0.000    2.182    0.000    3.273    1.273    4.364 
#    0.000    0.000    0.000   21.818    0.000    0.000 
#    0.000    0.000    0.000    0.000    0.000    0.000 
#
# Total GULP energy -545393.205376 kJ/mol
# GULP energy per Si atom -12395.300122 kJ/mol
# Density = 2.017750 g / cm^3
# Si number density = 20.223529 Si / 1000 Ang^3
#
#
#
# Elastic Constant Matrix: (Units=GPa)
#
#
# Indices 1 2 3 4 5 6 
#
# 1 123.8799 39.3186 55.9520 0.0000 0.0000 0.0000
# 2 39.3186 53.6233 26.8544 0.0000 0.0000 0.0000
# 3 55.9520 26.8544 181.9479 0.0000 0.0000 0.0000
# 4 0.0000 0.0000 0.0000 26.9172 0.0000 0.0000
# 5 0.0000 0.0000 0.0000 0.0000 14.8333 0.0000
# 6 0.0000 0.0000 0.0000 0.0000 0.0000 12.4181
#
#
#
# Elastic Compliance Matrix: (Units=1/GPa)
#
#
# Indices 1 2 3 4 5 6 
#
# 1 0.011462 -0.007169 -0.002467 0.000000 0.000000 0.000000
# 2 -0.007169 0.024621 -0.001429 0.000000 0.000000 0.000000
# 3 -0.002467 -0.001429 0.006466 0.000000 0.000000 0.000000
# 4 0.000000 0.000000 0.000000 0.037151 0.000000 0.000000
# 5 0.000000 0.000000 0.000000 0.000000 0.067416 0.000000
# 6 0.000000 0.000000 0.000000 0.000000 0.000000 0.080527
#
#
# Mechanical properties :
#
#
# Convention : Reuss Voigt Hill
#
# Bulk Modulus (GPa) = 48.97507 67.07790 58.02649
# Shear Modulus (GPa) = 19.48723 26.65548 23.07135
#
# Velocity S-wave (km/s) = 3.10755 3.63442 3.38126
# Velocity P-wave (km/s) = 6.09469 7.13108 6.63316
#
# Compressibility (1/GPa) = 0.02041855
#
# Stress axis : x y z
#
# Youngs Moduli (GPa) = 87.24651 40.61583 154.66563
#
# Poissons Ratio (x) = 0.29117 0.38150
# Poissons Ratio (y) = 0.62546 0.22107
# Poissons Ratio (z) = 0.21520 0.05805
#
# Static dielectric constant tensor:
#      x y z
#    x 3.655620 0.000000 0.000000 
#    y 0.000000 3.271160 0.000000 
#    z 0.000000 0.000000 4.200880 
# 
# 
# High freq. dielectric constant tensor:
#      x y z
#    x 1.782840 0.000000 0.000000 
#    y 0.000000 1.762470 0.000000 
#    z 0.000000 0.000000 1.814780 
# 
# From -- ./inp_files/2416.got.cif
#   From: 2010.03.12/outbox.cif.g09.slc.cpg/sg64_2_cif.got.tgz:2416.got - 2010.04.10 20:19:32.
