data_PCOD8262317
_publ_section_title
;
Structure prediction by ZEFSAII (Michael W. Deem and Ramdas Pophale) SiO2 
 PCOD8262317
Probable space group: C M C A
;
_chemical_formula_sum "Si O2"
_cell_formula_units_Z 128
_cell_length_a 17.000954
_cell_length_b 23.331766
_cell_length_c 17.188072
_cell_angle_alpha 90.000000
_cell_angle_beta 90.000000
_cell_angle_gamma 90.000000
_cell_volume 6817.859837
_symmetry_space_group_name_H-M "C M C A"
_symmetry_group_IT_number 64
_symmetry_cell_setting 'orthorhombic'
loop_
_space_group_symop_operation_xyz
x,y,z
-x,1/2-y,1/2+z
x,-y,-z
-x,1/2+y,1/2-z
-x,-y,-z
x,1/2+y,1/2-z
-x,y,z
x,1/2-y,1/2+z
1/2+x,1/2+y,z
1/2-x,-y,1/2+z
1/2+x,1/2-y,-z
1/2-x,y,1/2-z
1/2-x,1/2-y,-z
1/2+x,y,1/2-z
1/2-x,1/2+y,z
1/2+x,-y,1/2+z
loop_
_atom_site_type_symbol
_atom_site_label
_atom_site_fract_x
_atom_site_fract_y
_atom_site_fract_z
Si Si1 0.589340 0.747570 0.894846
Si Si2 0.589779 0.491148 0.411384
Si Si3 0.269534 0.555649 0.339291
Si Si4 0.343495 0.128047 0.875200
Si Si5 0.669638 0.745193 0.545389
Si Si6 0.706324 0.556468 0.832530
Si Si7 0.589280 0.859726 0.286245
Si Si8 0.260243 0.817240 0.842054
O O1 0.500000 0.770396 0.881401
O O2 0.603012 0.689350 0.848570
O O3 0.653991 0.792975 0.865717
O O4 0.601014 0.733553 0.987013
O O5 0.617487 0.500000 0.500000
O O6 0.500000 0.510734 0.399291
O O7 0.642716 0.530555 0.354527
O O8 0.596160 0.423593 0.392000
O O9 0.250000 0.566623 0.250000
O O10 0.208871 0.506767 0.372709
O O11 0.258418 0.618092 0.377632
O O12 0.352322 0.179667 0.935332
O O13 0.254955 0.103488 0.881697
O O14 0.359380 0.154340 0.789720
O O15 0.750000 0.750000 0.500000
O O16 0.684454 0.783693 0.622191
O O17 0.750000 0.547908 0.750000
O O18 0.618104 0.579641 0.822847
O O19 0.500000 0.867096 0.261172
O O20 0.250000 0.813883 0.750000
#
# Coordination Sequence:
#
# PCOD8262317 Si02
#       8
#    16  16  16  16  16  16  16  16
#     4  10  22  36  53  80 112 146 182 230 286 331
#     4  10  22  36  55  86 121 146 174 228 297 348
#     4   9  19  35  55  79 113 147 188 222 267 332
#     4  10  19  33  54  78 105 140 184 226 274 329
#     4  10  21  34  53  77 107 146 187 224 274 332
#     4   8  15  30  51  75 103 132 172 226 267 312
#     4  10  19  33  55  80 104 137 184 232 277 322
#     4  10  20  37  59  81 110 149 191 229 270 333
#
# _framework density 18.774218999999999
#
# number of rings (size 3 to 8) (size 9 to 14) (size 15 to 20)
#    0.000    2.375    0.000    3.375    3.500    2.500 
#    0.000    0.625    0.000    2.250    0.000    1.750 
#    0.000    0.000    0.000    0.000    0.000    0.000 
#
# Total GULP energy -792972.680510 kJ/mol
# GULP energy per Si atom -12390.198133 kJ/mol
# Density = 1.873149 g / cm^3
# Si number density = 18.774219 Si / 1000 Ang^3
#
#
#
# Elastic Constant Matrix: (Units=GPa)
#
#
# Indices 1 2 3 4 5 6 
#
# 1 64.3347 39.9363 28.3002 0.0000 0.0000 0.0000
# 2 39.9363 130.1882 39.8450 0.0000 0.0000 0.0000
# 3 28.3002 39.8450 86.0065 0.0000 0.0000 0.0000
# 4 0.0000 0.0000 0.0000 21.8839 0.0000 0.0000
# 5 0.0000 0.0000 0.0000 0.0000 26.3774 0.0000
# 6 0.0000 0.0000 0.0000 0.0000 0.0000 22.6482
#
#
#
# Elastic Compliance Matrix: (Units=1/GPa)
#
#
# Indices 1 2 3 4 5 6 
#
# 1 0.020584 -0.004942 -0.004483 0.000000 0.000000 0.000000
# 2 -0.004942 0.010137 -0.003070 0.000000 0.000000 0.000000
# 3 -0.004483 -0.003070 0.014525 0.000000 0.000000 0.000000
# 4 0.000000 0.000000 0.000000 0.045696 0.000000 0.000000
# 5 0.000000 0.000000 0.000000 0.000000 0.037911 0.000000
# 6 0.000000 0.000000 0.000000 0.000000 0.000000 0.044154
#
#
# Mechanical properties :
#
#
# Convention : Reuss Voigt Hill
#
# Bulk Modulus (GPa) = 49.37277 55.18805 52.28041
# Shear Modulus (GPa) = 24.42026 25.67844 25.04935
#
# Velocity S-wave (km/s) = 3.61048 3.70232 3.65669
# Velocity P-wave (km/s) = 6.61332 6.90910 6.76283
#
# Compressibility (1/GPa) = 0.02025408
#
# Stress axis : x y z
#
# Youngs Moduli (GPa) = 48.58199 98.65051 68.84889
#
# Poissons Ratio (x) = 0.48753 0.30868
# Poissons Ratio (y) = 0.24009 0.21137
# Poissons Ratio (z) = 0.21782 0.30286
#
# Static dielectric constant tensor:
#      x y z
#    x 3.476290 0.000000 0.000000 
#    y 0.000000 3.867160 0.000000 
#    z 0.000000 0.000000 3.731390 
# 
# 
# High freq. dielectric constant tensor:
#      x y z
#    x 1.709420 0.000000 0.000000 
#    y 0.000000 1.735310 0.000000 
#    z 0.000000 0.000000 1.722760 
# 
# From -- ./inp_files/33786.got.cif
#   From: 2010.03.12/outbox.cif.g09.slc.cpg/sg64_17_cif.got.tgz:33786.got - 2010.04.10 20:19:32.
