data_PCOD8262062
_publ_section_title
;
Structure prediction by ZEFSAII (Michael W. Deem and Ramdas Pophale) SiO2 
 PCOD8262062
Probable space group: C M C A
;
_chemical_formula_sum "Si O2"
_cell_formula_units_Z 128
_cell_length_a 19.171342
_cell_length_b 16.138851
_cell_length_c 24.100189
_cell_angle_alpha 90.000000
_cell_angle_beta 90.000000
_cell_angle_gamma 90.000000
_cell_volume 7456.681189
_symmetry_space_group_name_H-M "C M C A"
_symmetry_group_IT_number 64
_symmetry_cell_setting 'orthorhombic'
loop_
_space_group_symop_operation_xyz
x,y,z
-x,1/2-y,1/2+z
x,-y,-z
-x,1/2+y,1/2-z
-x,-y,-z
x,1/2+y,1/2-z
-x,y,z
x,1/2-y,1/2+z
1/2+x,1/2+y,z
1/2-x,-y,1/2+z
1/2+x,1/2-y,-z
1/2-x,y,1/2-z
1/2-x,1/2-y,-z
1/2+x,y,1/2-z
1/2-x,1/2+y,z
1/2+x,-y,1/2+z
loop_
_atom_site_type_symbol
_atom_site_label
_atom_site_fract_x
_atom_site_fract_y
_atom_site_fract_z
Si Si1 0.076476 0.830325 0.650058
Si Si2 0.575332 0.675345 0.639005
Si Si3 0.794819 0.171205 0.432735
Si Si4 0.320398 0.043246 0.282210
Si Si5 0.391963 0.008751 0.819664
Si Si6 0.754485 0.498900 0.111595
Si Si7 0.793836 0.332146 0.061370
Si Si8 0.918766 0.193670 0.229082
O O1 0.134155 0.820870 0.602649
O O2 0.097152 0.780839 0.706537
O O3 0.000000 0.802003 0.627296
O O4 0.066641 0.923834 0.672583
O O5 0.500000 0.706137 0.615380
O O6 0.560065 0.585417 0.665136
O O7 0.631832 0.672114 0.590977
O O8 0.601540 0.730186 0.690108
O O9 0.751278 0.086883 0.420812
O O10 0.813951 0.170905 0.497104
O O11 0.749279 0.252042 0.418753
O O12 0.250000 0.071981 0.250000
O O13 0.304808 0.998769 0.340831
O O14 0.368384 0.122161 0.293243
O O15 0.362836 0.980082 0.242997
O O16 0.329433 0.007017 0.862443
O O17 0.748442 0.415966 0.073630
O O18 0.000000 0.168095 0.222488
#
# Coordination Sequence:
#
# PCOD8262062 Si02
#       8
#    16  16  16  16  16  16  16  16
#     4   9  17  31  50  70  95 128 162 197 245 299
#     4  10  19  31  47  69  98 128 159 198 245 296
#     4  10  20  34  51  71  97 128 163 207 250 286
#     4   9  16  29  48  69  93 126 161 190 232 289
#     4   8  16  28  44  69  96 120 151 194 238 284
#     4   9  17  31  49  69  94 123 159 198 235 283
#     4  10  21  34  49  72  98 127 165 205 247 290
#     4   9  18  30  46  71  99 126 159 200 244 289
#
# _framework density 17.165814000000001
#
# number of rings (size 3 to 8) (size 9 to 14) (size 15 to 20)
#    0.000    2.750    0.000    2.250    0.000    2.000 
#    0.000    3.125    0.000    5.250    0.000    0.000 
#    0.000    9.000    0.000    0.000    0.000    0.000 
#
# Total GULP energy -792929.990262 kJ/mol
# GULP energy per Si atom -12389.531098 kJ/mol
# Density = 1.712674 g / cm^3
# Si number density = 17.165814 Si / 1000 Ang^3
#
#
#
# Elastic Constant Matrix: (Units=GPa)
#
#
# Indices 1 2 3 4 5 6 
#
# 1 76.1336 28.8953 46.5966 0.0000 0.0000 0.0000
# 2 28.8953 91.8957 37.8231 0.0000 0.0000 0.0000
# 3 46.5966 37.8231 95.1544 0.0000 0.0000 0.0000
# 4 0.0000 0.0000 0.0000 23.0960 0.0000 0.0000
# 5 0.0000 0.0000 0.0000 0.0000 25.3233 0.0000
# 6 0.0000 0.0000 0.0000 0.0000 0.0000 16.5158
#
#
#
# Elastic Compliance Matrix: (Units=1/GPa)
#
#
# Indices 1 2 3 4 5 6 
#
# 1 0.019262 -0.002600 -0.008399 0.000000 0.000000 0.000000
# 2 -0.002600 0.013361 -0.004038 0.000000 0.000000 0.000000
# 3 -0.008399 -0.004038 0.016227 0.000000 0.000000 0.000000
# 4 0.000000 0.000000 0.000000 0.043298 0.000000 0.000000
# 5 0.000000 0.000000 0.000000 0.000000 0.039489 0.000000
# 6 0.000000 0.000000 0.000000 0.000000 0.000000 0.060548
#
#
# Mechanical properties :
#
#
# Convention : Reuss Voigt Hill
#
# Bulk Modulus (GPa) = 53.25650 54.42375 53.84013
# Shear Modulus (GPa) = 21.88009 22.97827 22.42918
#
# Velocity S-wave (km/s) = 3.57407 3.66267 3.61864
# Velocity P-wave (km/s) = 6.93715 7.04701 6.99230
#
# Compressibility (1/GPa) = 0.01877705
#
# Stress axis : x y z
#
# Youngs Moduli (GPa) = 51.91542 74.84299 61.62440
#
# Poissons Ratio (x) = 0.19457 0.51760
# Poissons Ratio (y) = 0.13496 0.24884
# Poissons Ratio (z) = 0.43605 0.30221
#
# Static dielectric constant tensor:
#      x y z
#    x 3.067260 0.000000 0.000000 
#    y 0.000000 3.450740 0.000000 
#    z 0.000000 0.000000 3.182630 
# 
# 
# High freq. dielectric constant tensor:
#      x y z
#    x 1.658070 0.000000 0.000000 
#    y 0.000000 1.655010 0.000000 
#    z 0.000000 0.000000 1.657330 
# 
# From -- ./inp_files/46499.got.cif
#   From: 2010.03.12/outbox.cif.g09.slc.cpg/sg64_24_cif.got.tgz:46499.got - 2010.04.10 20:19:32.
