data_PCOD8262762
_publ_section_title
;
Structure prediction by ZEFSAII (Michael W. Deem and Ramdas Pophale) SiO2 
 PCOD8262762
Probable space group: C M C A
;
_chemical_formula_sum "Si O2"
_cell_formula_units_Z 64
_cell_length_a 8.475117
_cell_length_b 23.199765
_cell_length_c 17.723970
_cell_angle_alpha 90.000000
_cell_angle_beta 90.000000
_cell_angle_gamma 90.000000
_cell_volume 3484.899791
_symmetry_space_group_name_H-M "C M C A"
_symmetry_group_IT_number 64
_symmetry_cell_setting 'orthorhombic'
loop_
_space_group_symop_operation_xyz
x,y,z
-x,1/2-y,1/2+z
x,-y,-z
-x,1/2+y,1/2-z
-x,-y,-z
x,1/2+y,1/2-z
-x,y,z
x,1/2-y,1/2+z
1/2+x,1/2+y,z
1/2-x,-y,1/2+z
1/2+x,1/2-y,-z
1/2-x,y,1/2-z
1/2-x,1/2-y,-z
1/2+x,y,1/2-z
1/2-x,1/2+y,z
1/2+x,-y,1/2+z
loop_
_atom_site_type_symbol
_atom_site_label
_atom_site_fract_x
_atom_site_fract_y
_atom_site_fract_z
Si Si1 0.178811 0.281561 0.614473
Si Si2 0.185430 0.063924 0.017189
Si Si3 0.317753 0.388893 0.671586
Si Si4 0.683582 0.673349 0.535654
O O1 0.291628 0.319033 0.668787
O O2 0.200883 0.303372 0.529126
O O3 0.214041 0.212133 0.611503
O O4 0.000000 0.293419 0.640543
O O5 0.227455 0.080854 0.102889
O O6 0.270579 0.106067 0.955771
O O7 0.000000 0.068032 0.005012
O O8 0.248153 0.000000 0.000000
O O9 0.500000 0.403882 0.665528
O O10 0.250000 0.413332 0.750000
O O11 0.500000 0.678976 0.511535
#
# Coordination Sequence:
#
# PCOD8262762 Si02
#       4
#    16  16  16  16
#     4   9  16  27  44  68  96 122 152 190 235 286
#     4  10  20  33  50  73 101 133 171 212 250 293
#     4  11  21  33  51  73  99 130 164 205 254 304
#     4   9  16  26  44  69  95 123 154 192 236 281
#
# _framework density 18.364947999999998
#
# number of rings (size 3 to 8) (size 9 to 14) (size 15 to 20)
#    0.000    2.250    0.000    7.500    0.000    5.000 
#    0.000    0.000    0.000    1.500    0.000   10.500 
#    0.000    0.000    0.000    0.000    0.000    0.000 
#
# Total GULP energy -396438.647763 kJ/mol
# GULP energy per Si atom -12388.707743 kJ/mol
# Density = 1.832315 g / cm^3
# Si number density = 18.364948 Si / 1000 Ang^3
#
#
#
# Elastic Constant Matrix: (Units=GPa)
#
#
# Indices 1 2 3 4 5 6 
#
# 1 59.4415 20.4177 4.1699 0.0000 0.0000 0.0000
# 2 20.4177 131.0706 25.1594 0.0000 0.0000 0.0000
# 3 4.1699 25.1594 45.6415 0.0000 0.0000 0.0000
# 4 0.0000 0.0000 0.0000 14.4726 0.0000 0.0000
# 5 0.0000 0.0000 0.0000 0.0000 21.1190 0.0000
# 6 0.0000 0.0000 0.0000 0.0000 0.0000 28.1792
#
#
#
# Elastic Compliance Matrix: (Units=1/GPa)
#
#
# Indices 1 2 3 4 5 6 
#
# 1 0.017775 -0.002748 -0.000109 0.000000 0.000000 0.000000
# 2 -0.002748 0.008957 -0.004686 0.000000 0.000000 0.000000
# 3 -0.000109 -0.004686 0.024503 0.000000 0.000000 0.000000
# 4 0.000000 0.000000 0.000000 0.069096 0.000000 0.000000
# 5 0.000000 0.000000 0.000000 0.000000 0.047351 0.000000
# 6 0.000000 0.000000 0.000000 0.000000 0.000000 0.035487
#
#
# Mechanical properties :
#
#
# Convention : Reuss Voigt Hill
#
# Bulk Modulus (GPa) = 27.66403 37.29418 32.47910
# Shear Modulus (GPa) = 21.71030 25.18128 23.44579
#
# Velocity S-wave (km/s) = 3.44198 3.70694 3.57691
# Velocity P-wave (km/s) = 5.55811 6.21878 5.89770
#
# Compressibility (1/GPa) = 0.03614803
#
# Stress axis : x y z
#
# Youngs Moduli (GPa) = 56.25937 111.64301 40.81099
#
# Poissons Ratio (x) = 0.30679 0.00445
# Poissons Ratio (y) = 0.15460 0.19126
# Poissons Ratio (z) = 0.00614 0.52321
#
# Static dielectric constant tensor:
#      x y z
#    x 3.358300 0.000000 0.000000 
#    y 0.000000 3.957200 0.000000 
#    z 0.000000 0.000000 3.082730 
# 
# 
# High freq. dielectric constant tensor:
#      x y z
#    x 1.725700 0.000000 0.000000 
#    y 0.000000 1.708990 0.000000 
#    z 0.000000 0.000000 1.658930 
# 
# From -- ./inp_files/29441.got.cif
#   From: 2010.03.12/outbox.cif.g09.slc.cpg/sg64_15_cif.got.tgz:29441.got - 2010.04.10 20:19:32.
