data_PCOD8262467
_publ_section_title
;
Structure prediction by ZEFSAII (Michael W. Deem and Ramdas Pophale) SiO2 
 PCOD8262467
Probable space group: C M C A
;
_chemical_formula_sum "Si O2"
_cell_formula_units_Z 120
_cell_length_a 16.982581
_cell_length_b 19.601273
_cell_length_c 18.935044
_cell_angle_alpha 90.000000
_cell_angle_beta 90.000000
_cell_angle_gamma 90.000000
_cell_volume 6303.101355
_symmetry_space_group_name_H-M "C M C A"
_symmetry_group_IT_number 64
_symmetry_cell_setting 'orthorhombic'
loop_
_space_group_symop_operation_xyz
x,y,z
-x,1/2-y,1/2+z
x,-y,-z
-x,1/2+y,1/2-z
-x,-y,-z
x,1/2+y,1/2-z
-x,y,z
x,1/2-y,1/2+z
1/2+x,1/2+y,z
1/2-x,-y,1/2+z
1/2+x,1/2-y,-z
1/2-x,y,1/2-z
1/2-x,1/2-y,-z
1/2+x,y,1/2-z
1/2-x,1/2+y,z
1/2+x,-y,1/2+z
loop_
_atom_site_type_symbol
_atom_site_label
_atom_site_fract_x
_atom_site_fract_y
_atom_site_fract_z
Si Si1 0.277327 0.796228 0.563905
Si Si2 0.090066 0.962220 0.629229
Si Si3 0.818116 0.726632 0.796176
Si Si4 0.175290 0.500000 0.500000
Si Si5 0.589892 0.615184 0.628454
Si Si6 0.842318 0.126934 0.247120
Si Si7 0.093153 0.897073 0.904007
Si Si8 0.314538 0.590086 0.494048
O O1 0.250000 0.750000 0.500000
O O2 0.272749 0.753325 0.634758
O O3 0.364447 0.831487 0.559046
O O4 0.212562 0.855943 0.565700
O O5 0.117421 0.906398 0.685229
O O6 0.135414 0.962769 0.553792
O O7 0.000000 0.946853 0.611179
O O8 0.101600 0.038918 0.659305
O O9 0.750000 0.691305 0.750000
O O10 0.882632 0.669631 0.813261
O O11 0.856744 0.791027 0.754797
O O12 0.119355 0.468160 0.559824
O O13 0.235907 0.557526 0.529840
O O14 0.500000 0.630710 0.611053
O O15 0.636187 0.626671 0.555287
O O16 0.750000 0.110191 0.250000
O O17 0.881309 0.095126 0.177253
O O18 0.000000 0.886550 0.911363
#
# Coordination Sequence:
#
# PCOD8262467 Si02
#       8
#    16  16  16   8  16  16  16  16
#     4  10  20  37  59  85 116 153 204 242 286 361
#     4  11  22  37  57  88 122 152 195 251 309 363
#     4  10  21  40  59  85 115 157 202 245 295 357
#     4  10  19  34  59  80 118 152 198 236 291 354
#     4  11  23  36  56  88 121 153 197 250 307 363
#     4  10  21  39  63  84 115 156 207 245 295 371
#     4  10  21  36  58  89 119 153 196 249 299 347
#     4  11  19  36  60  86 113 159 196 244 300 359
#
# _framework density 19.038246999999998
#
# number of rings (size 3 to 8) (size 9 to 14) (size 15 to 20)
#    0.000    1.600    2.667    4.200    0.000    4.267 
#    0.000    0.000    0.000    0.800    0.000    0.000 
#    0.000    0.000    0.000    0.000    0.000    0.000 
#
# Total GULP energy -743630.649172 kJ/mol
# GULP energy per Si atom -12393.844153 kJ/mol
# Density = 1.899491 g / cm^3
# Si number density = 19.038247 Si / 1000 Ang^3
#
#
#
# Elastic Constant Matrix: (Units=GPa)
#
#
# Indices 1 2 3 4 5 6 
#
# 1 141.5898 52.2446 54.5975 0.0000 0.0000 0.0000
# 2 52.2446 85.5429 44.4239 0.0000 0.0000 0.0000
# 3 54.5975 44.4239 81.3162 0.0000 0.0000 0.0000
# 4 0.0000 0.0000 0.0000 38.2643 0.0000 0.0000
# 5 0.0000 0.0000 0.0000 0.0000 28.8890 0.0000
# 6 0.0000 0.0000 0.0000 0.0000 0.0000 24.1776
#
#
#
# Elastic Compliance Matrix: (Units=1/GPa)
#
#
# Indices 1 2 3 4 5 6 
#
# 1 0.010338 -0.003782 -0.004875 0.000000 0.000000 0.000000
# 2 -0.003782 0.017704 -0.007132 0.000000 0.000000 0.000000
# 3 -0.004875 -0.007132 0.019467 0.000000 0.000000 0.000000
# 4 0.000000 0.000000 0.000000 0.026134 0.000000 0.000000
# 5 0.000000 0.000000 0.000000 0.000000 0.034615 0.000000
# 6 0.000000 0.000000 0.000000 0.000000 0.000000 0.041361
#
#
# Mechanical properties :
#
#
# Convention : Reuss Voigt Hill
#
# Bulk Modulus (GPa) = 62.77373 67.88677 65.33025
# Shear Modulus (GPa) = 26.80846 28.74504 27.77675
#
# Velocity S-wave (km/s) = 3.75659 3.88990 3.82383
# Velocity P-wave (km/s) = 7.20138 7.47734 7.34066
#
# Compressibility (1/GPa) = 0.01593023
#
# Stress axis : x y z
#
# Youngs Moduli (GPa) = 96.73025 56.48444 51.36815
#
# Poissons Ratio (x) = 0.21364 0.25041
# Poissons Ratio (y) = 0.36586 0.36638
# Poissons Ratio (z) = 0.47155 0.40287
#
# Static dielectric constant tensor:
#      x y z
#    x 3.555870 0.000000 0.000000 
#    y 0.000000 3.687290 0.000000 
#    z 0.000000 0.000000 3.662840 
# 
# 
# High freq. dielectric constant tensor:
#      x y z
#    x 1.740720 0.000000 0.000000 
#    y 0.000000 1.744050 0.000000 
#    z 0.000000 0.000000 1.729020 
# 
# From -- ./inp_files/33670.got.cif
#   From: 2010.03.12/outbox.cif.g09.slc.cpg/sg64_17_cif.got.tgz:33670.got - 2010.04.10 20:19:32.
