data_PCOD8262275
_publ_section_title
;
Structure prediction by ZEFSAII (Michael W. Deem and Ramdas Pophale) SiO2 
 PCOD8262275
Probable space group: C M C A
;
_chemical_formula_sum "Si O2"
_cell_formula_units_Z 96
_cell_length_a 8.626357
_cell_length_b 27.399353
_cell_length_c 23.865743
_cell_angle_alpha 90.000000
_cell_angle_beta 90.000000
_cell_angle_gamma 90.000000
_cell_volume 5640.825885
_symmetry_space_group_name_H-M "C M C A"
_symmetry_group_IT_number 64
_symmetry_cell_setting 'orthorhombic'
loop_
_space_group_symop_operation_xyz
x,y,z
-x,1/2-y,1/2+z
x,-y,-z
-x,1/2+y,1/2-z
-x,-y,-z
x,1/2+y,1/2-z
-x,y,z
x,1/2-y,1/2+z
1/2+x,1/2+y,z
1/2-x,-y,1/2+z
1/2+x,1/2-y,-z
1/2-x,y,1/2-z
1/2-x,1/2-y,-z
1/2+x,y,1/2-z
1/2-x,1/2+y,z
1/2+x,-y,1/2+z
loop_
_atom_site_type_symbol
_atom_site_label
_atom_site_fract_x
_atom_site_fract_y
_atom_site_fract_z
Si Si1 0.183562 0.063487 0.309075
Si Si2 0.683499 0.731527 0.415929
Si Si3 0.817573 0.020398 0.081524
Si Si4 0.317272 0.675354 0.308370
Si Si5 0.183033 0.069740 0.523553
Si Si6 0.317153 0.319564 0.471628
O O1 0.250000 0.045007 0.250000
O O2 0.263998 0.030414 0.355680
O O3 0.233248 0.119555 0.319006
O O4 0.000000 0.056465 0.311102
O O5 0.500000 0.731284 0.413866
O O6 0.750679 0.708170 0.358835
O O7 0.744423 0.699235 0.468129
O O8 0.743355 0.786949 0.422226
O O9 0.000000 0.027952 0.074697
O O10 0.773588 0.964835 0.066617
O O11 0.728484 0.057291 0.040200
O O12 0.500000 0.679484 0.305248
O O13 0.250000 0.695234 0.250000
O O14 0.234860 0.124792 0.537019
O O15 0.000000 0.062294 0.530583
O O16 0.500000 0.314328 0.468632
#
# Coordination Sequence:
#
# PCOD8262275 Si02
#       6
#    16  16  16  16  16  16
#     4  10  19  33  51  72  99 129 161 196 237 283
#     4   9  17  30  47  69  97 125 153 190 235 279
#     4  11  21  32  48  73 100 126 160 198 239 287
#     4   9  18  31  48  70  96 126 158 192 231 278
#     4  10  19  33  51  70  96 129 161 197 242 286
#     4   9  18  31  48  70  94 123 158 193 233 282
#
# _framework density 17.018784
#
# number of rings (size 3 to 8) (size 9 to 14) (size 15 to 20)
#    0.000    2.333    0.000    4.500    0.000    5.333 
#    0.000    3.333    0.000    1.000    0.000    2.333 
#    0.000    0.000    0.000    0.000    0.000    0.000 
#
# Total GULP energy -595271.960719 kJ/mol
# GULP energy per Si atom -12401.499182 kJ/mol
# Density = 1.698005 g / cm^3
# Si number density = 17.018784 Si / 1000 Ang^3
#
#
#
# Elastic Constant Matrix: (Units=GPa)
#
#
# Indices 1 2 3 4 5 6 
#
# 1 37.0839 23.6179 19.5453 0.0000 0.0000 0.0000
# 2 23.6179 100.1677 59.3181 0.0000 0.0000 0.0000
# 3 19.5453 59.3181 128.7696 0.0000 0.0000 0.0000
# 4 0.0000 0.0000 0.0000 27.8109 0.0000 0.0000
# 5 0.0000 0.0000 0.0000 0.0000 29.5692 0.0000
# 6 0.0000 0.0000 0.0000 0.0000 0.0000 26.0083
#
#
#
# Elastic Compliance Matrix: (Units=1/GPa)
#
#
# Indices 1 2 3 4 5 6 
#
# 1 0.032066 -0.006433 -0.001904 0.000000 0.000000 0.000000
# 2 -0.006433 0.015019 -0.005942 0.000000 0.000000 0.000000
# 3 -0.001904 -0.005942 0.010792 0.000000 0.000000 0.000000
# 4 0.000000 0.000000 0.000000 0.035957 0.000000 0.000000
# 5 0.000000 0.000000 0.000000 0.000000 0.033819 0.000000
# 6 0.000000 0.000000 0.000000 0.000000 0.000000 0.038449
#
#
# Mechanical properties :
#
#
# Convention : Reuss Voigt Hill
#
# Bulk Modulus (GPa) = 34.10734 52.33155 43.21945
# Shear Modulus (GPa) = 24.45777 27.58035 26.01906
#
# Velocity S-wave (km/s) = 3.79503 4.03001 3.91428
# Velocity P-wave (km/s) = 6.26797 7.24367 6.77341
#
# Compressibility (1/GPa) = 0.02931920
#
# Stress axis : x y z
#
# Youngs Moduli (GPa) = 31.18520 66.58252 92.66158
#
# Poissons Ratio (x) = 0.42836 0.17639
# Poissons Ratio (y) = 0.20063 0.55060
# Poissons Ratio (z) = 0.05936 0.39564
#
# Static dielectric constant tensor:
#      x y z
#    x 3.123620 0.000000 0.000000 
#    y 0.000000 3.207080 0.000000 
#    z 0.000000 0.000000 3.251080 
# 
# 
# High freq. dielectric constant tensor:
#      x y z
#    x 1.659570 0.000000 0.000000 
#    y 0.000000 1.645910 0.000000 
#    z 0.000000 0.000000 1.648410 
# 
# From -- ./inp_files/43193.got.cif
#   From: 2010.03.12/outbox.cif.g09.slc.cpg/sg64_22_cif.got.tgz:43193.got - 2010.04.10 20:19:32.
