data_PCOD8262015
_publ_section_title
;
Structure prediction by ZEFSAII (Michael W. Deem and Ramdas Pophale) SiO2 
 PCOD8262015
Probable space group: C M C A
;
_chemical_formula_sum "Si O2"
_cell_formula_units_Z 96
_cell_length_a 9.397857
_cell_length_b 29.389022
_cell_length_c 20.482450
_cell_angle_alpha 90.000000
_cell_angle_beta 90.000000
_cell_angle_gamma 90.000000
_cell_volume 5657.126234
_symmetry_space_group_name_H-M "C M C A"
_symmetry_group_IT_number 64
_symmetry_cell_setting 'orthorhombic'
loop_
_space_group_symop_operation_xyz
x,y,z
-x,1/2-y,1/2+z
x,-y,-z
-x,1/2+y,1/2-z
-x,-y,-z
x,1/2+y,1/2-z
-x,y,z
x,1/2-y,1/2+z
1/2+x,1/2+y,z
1/2-x,-y,1/2+z
1/2+x,1/2-y,-z
1/2-x,y,1/2-z
1/2-x,1/2-y,-z
1/2+x,y,1/2-z
1/2-x,1/2+y,z
1/2+x,-y,1/2+z
loop_
_atom_site_type_symbol
_atom_site_label
_atom_site_fract_x
_atom_site_fract_y
_atom_site_fract_z
Si Si1 0.340920 0.651976 0.851148
Si Si2 0.661453 0.362670 0.470624
Si Si3 0.669861 0.948227 0.314486
Si Si4 0.664934 0.779545 0.948632
Si Si5 0.160866 0.250357 0.809005
Si Si6 0.832479 0.463741 0.054655
O O1 0.500000 0.646088 0.877640
O O2 0.247091 0.662284 0.913998
O O3 0.295781 0.605728 0.814720
O O4 0.328142 0.695481 0.804348
O O5 0.500000 0.360364 0.447281
O O6 0.684674 0.333568 0.536715
O O7 0.706380 0.415239 0.478509
O O8 0.500000 0.958542 0.311774
O O9 0.750000 0.967881 0.250000
O O10 0.739761 0.970802 0.379380
O O11 0.500000 0.764772 0.952661
O O12 0.724445 0.769731 0.876491
O O13 0.750000 0.750000 0.000000
O O14 0.250000 0.271780 0.750000
O O15 0.000000 0.267033 0.800502
O O16 0.000000 0.467904 0.072152
O O17 0.786935 0.500000 0.000000
#
# Coordination Sequence:
#
# PCOD8262015 Si02
#       6
#    16  16  16  16  16  16
#     4   9  17  29  44  66  96 126 154 189 233 282
#     4   9  17  29  48  72  93 121 159 196 237 285
#     4  10  19  30  47  71 100 130 159 195 240 292
#     4  10  19  31  48  69  94 124 161 199 233 280
#     4  10  20  31  43  63  93 126 160 195 234 277
#     4   9  18  33  52  73  98 127 161 201 249 296
#
# _framework density 16.969746000000001
#
# number of rings (size 3 to 8) (size 9 to 14) (size 15 to 20)
#    0.000    2.500    1.667    1.000    0.000    2.333 
#    0.000    0.000    0.000    1.000    0.000    2.333 
#    0.000    0.000    0.000    0.000    0.000    0.000 
#
# Total GULP energy -594931.622132 kJ/mol
# GULP energy per Si atom -12394.408794 kJ/mol
# Density = 1.693112 g / cm^3
# Si number density = 16.969746 Si / 1000 Ang^3
#
#
#
# Elastic Constant Matrix: (Units=GPa)
#
#
# Indices 1 2 3 4 5 6 
#
# 1 65.3000 24.8630 64.2035 0.0000 0.0000 0.0000
# 2 24.8630 50.3475 45.2925 0.0000 0.0000 0.0000
# 3 64.2035 45.2925 145.9071 0.0000 0.0000 0.0000
# 4 0.0000 0.0000 0.0000 19.6767 0.0000 0.0000
# 5 0.0000 0.0000 0.0000 0.0000 32.2474 0.0000
# 6 0.0000 0.0000 0.0000 0.0000 0.0000 15.9311
#
#
#
# Elastic Compliance Matrix: (Units=1/GPa)
#
#
# Indices 1 2 3 4 5 6 
#
# 1 0.027489 -0.003737 -0.010936 0.000000 0.000000 0.000000
# 2 -0.003737 0.028065 -0.007068 0.000000 0.000000 0.000000
# 3 -0.010936 -0.007068 0.013860 0.000000 0.000000 0.000000
# 4 0.000000 0.000000 0.000000 0.050822 0.000000 0.000000
# 5 0.000000 0.000000 0.000000 0.000000 0.031010 0.000000
# 6 0.000000 0.000000 0.000000 0.000000 0.000000 0.062770
#
#
# Mechanical properties :
#
#
# Convention : Reuss Voigt Hill
#
# Bulk Modulus (GPa) = 38.56074 58.91919 48.73996
# Shear Modulus (GPa) = 18.78695 22.05075 20.41885
#
# Velocity S-wave (km/s) = 3.33090 3.60865 3.47255
# Velocity P-wave (km/s) = 6.12909 7.22210 6.69792
#
# Compressibility (1/GPa) = 0.02593311
#
# Stress axis : x y z
#
# Youngs Moduli (GPa) = 36.37799 35.63099 72.15090
#
# Poissons Ratio (x) = 0.13315 0.78905
# Poissons Ratio (y) = 0.13594 0.50994
# Poissons Ratio (z) = 0.39783 0.25183
#
# Static dielectric constant tensor:
#      x y z
#    x 3.285040 0.000000 0.000000 
#    y 0.000000 3.088940 0.000000 
#    z 0.000000 0.000000 3.122150 
# 
# 
# High freq. dielectric constant tensor:
#      x y z
#    x 1.657860 0.000000 0.000000 
#    y 0.000000 1.624410 0.000000 
#    z 0.000000 0.000000 1.645780 
# 
# From -- ./inp_files/36957.got.cif
#   From: 2010.03.12/outbox.cif.g09.slc.cpg/sg64_19_cif.got.tgz:36957.got - 2010.04.10 20:19:32.
