data_PCOD8262252
_publ_section_title
;
Structure prediction by ZEFSAII (Michael W. Deem and Ramdas Pophale) SiO2 
 PCOD8262252
Probable space group: C M C A
;
_chemical_formula_sum "Si O2"
_cell_formula_units_Z 96
_cell_length_a 9.205231
_cell_length_b 20.340861
_cell_length_c 27.674710
_cell_angle_alpha 90.000000
_cell_angle_beta 90.000000
_cell_angle_gamma 90.000000
_cell_volume 5181.877023
_symmetry_space_group_name_H-M "C M C A"
_symmetry_group_IT_number 64
_symmetry_cell_setting 'orthorhombic'
loop_
_space_group_symop_operation_xyz
x,y,z
-x,1/2-y,1/2+z
x,-y,-z
-x,1/2+y,1/2-z
-x,-y,-z
x,1/2+y,1/2-z
-x,y,z
x,1/2-y,1/2+z
1/2+x,1/2+y,z
1/2-x,-y,1/2+z
1/2+x,1/2-y,-z
1/2-x,y,1/2-z
1/2-x,1/2-y,-z
1/2+x,y,1/2-z
1/2-x,1/2+y,z
1/2+x,-y,1/2+z
loop_
_atom_site_type_symbol
_atom_site_label
_atom_site_fract_x
_atom_site_fract_y
_atom_site_fract_z
Si Si1 0.165926 0.877689 0.141419
Si Si2 0.665110 0.328156 0.039516
Si Si3 0.331002 0.505899 0.200485
Si Si4 0.670307 0.728476 0.700247
Si Si5 0.329662 0.637576 0.148272
Si Si6 0.669393 0.322023 0.554553
O O1 0.186672 0.879117 0.083473
O O2 0.276938 0.824976 0.162187
O O3 0.000000 0.857333 0.154224
O O4 0.203755 0.949180 0.161882
O O5 0.500000 0.328600 0.020244
O O6 0.705073 0.255312 0.058695
O O7 0.769522 0.349841 0.996060
O O8 0.500000 0.509944 0.212818
O O9 0.250000 0.490013 0.250000
O O10 0.275760 0.573951 0.177586
O O11 0.500000 0.720249 0.708404
O O12 0.750000 0.714804 0.750000
O O13 0.711377 0.800328 0.681074
O O14 0.500000 0.634580 0.136744
O O15 0.245938 0.639676 0.097876
O O16 0.500000 0.337096 0.557094
#
# Coordination Sequence:
#
# PCOD8262252 Si02
#       6
#    16  16  16  16  16  16
#     4  10  20  37  58  81 109 142 183 226 272 324
#     4   9  18  33  54  81 112 143 177 222 274 327
#     4  10  22  39  58  79 108 147 186 224 271 326
#     4  11  22  34  53  79 108 139 178 227 274 321
#     4  10  21  37  55  79 109 144 183 223 270 324
#     4  10  19  32  55  84 111 142 180 225 274 322
#
# _framework density 18.526105999999999
#
# number of rings (size 3 to 8) (size 9 to 14) (size 15 to 20)
#    0.000    2.000    1.667    2.000    0.000    4.667 
#    0.000    0.833    0.000    5.000    0.000    0.000 
#    0.000    0.000    0.000    0.000    0.000    0.000 
#
# Total GULP energy -595408.672914 kJ/mol
# GULP energy per Si atom -12404.347352 kJ/mol
# Density = 1.848394 g / cm^3
# Si number density = 18.526106 Si / 1000 Ang^3
#
#
#
# Elastic Constant Matrix: (Units=GPa)
#
#
# Indices 1 2 3 4 5 6 
#
# 1 57.6197 25.6157 38.1465 0.0000 0.0000 0.0000
# 2 25.6157 62.0877 9.0320 0.0000 0.0000 0.0000
# 3 38.1465 9.0320 90.3940 0.0000 0.0000 0.0000
# 4 0.0000 0.0000 0.0000 32.2315 0.0000 0.0000
# 5 0.0000 0.0000 0.0000 0.0000 32.2916 0.0000
# 6 0.0000 0.0000 0.0000 0.0000 0.0000 22.7903
#
#
#
# Elastic Compliance Matrix: (Units=1/GPa)
#
#
# Indices 1 2 3 4 5 6 
#
# 1 0.029628 -0.010558 -0.011448 0.000000 0.000000 0.000000
# 2 -0.010558 0.020106 0.002447 0.000000 0.000000 0.000000
# 3 -0.011448 0.002447 0.015649 0.000000 0.000000 0.000000
# 4 0.000000 0.000000 0.000000 0.031026 0.000000 0.000000
# 5 0.000000 0.000000 0.000000 0.000000 0.030968 0.000000
# 6 0.000000 0.000000 0.000000 0.000000 0.000000 0.043878
#
#
# Mechanical properties :
#
#
# Convention : Reuss Voigt Hill
#
# Bulk Modulus (GPa) = 38.07468 39.52109 38.79788
# Shear Modulus (GPa) = 22.81744 26.61647 24.71696
#
# Velocity S-wave (km/s) = 3.51328 3.79450 3.65659
# Velocity P-wave (km/s) = 6.08720 6.36997 6.23019
#
# Compressibility (1/GPa) = 0.02626418
#
# Stress axis : x y z
#
# Youngs Moduli (GPa) = 33.75152 49.73526 63.90016
#
# Poissons Ratio (x) = 0.52513 0.73155
# Poissons Ratio (y) = 0.35636 -0.15634
# Poissons Ratio (z) = 0.38640 -0.12169
#
# Static dielectric constant tensor:
#      x y z
#    x 3.396640 0.000000 0.000000 
#    y 0.000000 3.344910 0.000000 
#    z 0.000000 0.000000 3.417260 
# 
# 
# High freq. dielectric constant tensor:
#      x y z
#    x 1.719500 0.000000 0.000000 
#    y 0.000000 1.701800 0.000000 
#    z 0.000000 0.000000 1.728650 
# 
# From -- ./inp_files/48045.got.cif
#   From: 2010.03.12/outbox.cif.g09.slc.cpg/sg64_25_cif.got.tgz:48045.got - 2010.04.10 20:19:32.
