data_PCOD8262103
_publ_section_title
;
Structure prediction by ZEFSAII (Michael W. Deem and Ramdas Pophale) SiO2 
 PCOD8262103
Probable space group: C M C A
;
_chemical_formula_sum "Si O2"
_cell_formula_units_Z 96
_cell_length_a 9.042264
_cell_length_b 18.892886
_cell_length_c 31.013100
_cell_angle_alpha 90.000000
_cell_angle_beta 90.000000
_cell_angle_gamma 90.000000
_cell_volume 5298.106282
_symmetry_space_group_name_H-M "C M C A"
_symmetry_group_IT_number 64
_symmetry_cell_setting 'orthorhombic'
loop_
_space_group_symop_operation_xyz
x,y,z
-x,1/2-y,1/2+z
x,-y,-z
-x,1/2+y,1/2-z
-x,-y,-z
x,1/2+y,1/2-z
-x,y,z
x,1/2-y,1/2+z
1/2+x,1/2+y,z
1/2-x,-y,1/2+z
1/2+x,1/2-y,-z
1/2-x,y,1/2-z
1/2-x,1/2-y,-z
1/2+x,y,1/2-z
1/2-x,1/2+y,z
1/2+x,-y,1/2+z
loop_
_atom_site_type_symbol
_atom_site_label
_atom_site_fract_x
_atom_site_fract_y
_atom_site_fract_z
Si Si1 0.172067 0.828213 0.129586
Si Si2 0.826197 0.409886 0.206020
Si Si3 0.827557 0.573268 0.206612
Si Si4 0.828722 0.837489 0.625746
Si Si5 0.333030 0.667892 0.543462
Si Si6 0.333680 0.163689 0.459703
O O1 0.259725 0.864919 0.167628
O O2 0.198032 0.744843 0.134527
O O3 0.238161 0.856504 0.084608
O O4 0.000000 0.848221 0.131533
O O5 0.750000 0.384184 0.250000
O O6 0.789278 0.491797 0.197273
O O7 0.000000 0.395866 0.209493
O O8 0.750000 0.600398 0.250000
O O9 0.767785 0.619326 0.166708
O O10 0.000000 0.585653 0.213238
O O11 0.740558 0.864675 0.583997
O O12 0.000000 0.853836 0.617173
O O13 0.500000 0.638687 0.547570
O O14 0.333642 0.751990 0.540183
O O15 0.258225 0.635179 0.500698
O O16 0.500000 0.134089 0.462626
#
# Coordination Sequence:
#
# PCOD8262103 Si02
#       6
#    16  16  16  16  16  16
#     4  10  19  31  49  74 102 128 158 199 242 284
#     4  10  20  35  53  71  94 126 163 199 238 287
#     4   9  19  35  53  71  93 125 163 199 237 285
#     4   9  18  32  49  72 100 128 159 197 241 285
#     4   9  16  27  44  67  97 131 163 195 234 282
#     4   9  16  26  43  69  98 128 161 196 236 282
#
# _framework density 18.119682000000001
#
# number of rings (size 3 to 8) (size 9 to 14) (size 15 to 20)
#    0.000    2.667    0.000    2.000    0.000    6.667 
#    0.000    1.667    0.000    1.000    0.000    7.000 
#    0.000    0.000    0.000    0.000    0.000    0.000 
#
# Total GULP energy -595263.463382 kJ/mol
# GULP energy per Si atom -12401.322154 kJ/mol
# Density = 1.807844 g / cm^3
# Si number density = 18.119682 Si / 1000 Ang^3
#
#
#
# Elastic Constant Matrix: (Units=GPa)
#
#
# Indices 1 2 3 4 5 6 
#
# 1 115.7816 30.6045 81.0116 0.0000 0.0000 0.0000
# 2 30.6045 28.4878 45.7498 0.0000 0.0000 0.0000
# 3 81.0116 45.7498 182.8545 0.0000 0.0000 0.0000
# 4 0.0000 0.0000 0.0000 -7.5919 0.0000 0.0000
# 5 0.0000 0.0000 0.0000 0.0000 43.6593 0.0000
# 6 0.0000 0.0000 0.0000 0.0000 0.0000 16.8315
#
#
#
# Elastic Compliance Matrix: (Units=1/GPa)
#
#
# Indices 1 2 3 4 5 6 
#
# 1 0.013583 -0.008238 -0.003957 0.000000 0.000000 0.000000
# 2 -0.008238 0.063677 -0.012282 0.000000 0.000000 0.000000
# 3 -0.003957 -0.012282 0.010295 0.000000 0.000000 0.000000
# 4 0.000000 0.000000 0.000000 -0.131719 0.000000 0.000000
# 5 0.000000 0.000000 0.000000 0.000000 0.022905 0.000000
# 6 0.000000 0.000000 0.000000 0.000000 0.000000 0.059412
#
#
# Mechanical properties :
#
#
# Convention : Reuss Voigt Hill
#
# Bulk Modulus (GPa) = 25.90588 71.31730 48.61159
# Shear Modulus (GPa) = 50.01321 21.89699 35.95510
#
# Velocity S-wave (km/s) = 5.25942 3.48007 4.45939
# Velocity P-wave (km/s) = 7.15613 7.45602 7.30761
#
# Compressibility (1/GPa) = 0.03860128
#
# Stress axis : x y z
#
# Youngs Moduli (GPa) = 73.62179 15.70421 97.13723
#
# Poissons Ratio (x) = 0.12937 0.38433
# Poissons Ratio (y) = 0.60650 1.19305
# Poissons Ratio (z) = 0.29129 0.19288
#
# Static dielectric constant tensor:
#      x y z
#    x 3.492380 0.000000 0.000000 
#    y 0.000000 2.977430 0.000000 
#    z 0.000000 0.000000 3.594950 
# 
# 
# High freq. dielectric constant tensor:
#      x y z
#    x 1.713600 0.000000 0.000000 
#    y 0.000000 1.653640 0.000000 
#    z 0.000000 0.000000 1.718680 
# 
# From -- ./inp_files/48369.got.cif
#   From: 2010.03.12/outbox.cif.g09.slc.cpg/sg64_25_cif.got.tgz:48369.got - 2010.04.10 20:19:32.
