data_PCOD8262295
_publ_section_title
;
Structure prediction by ZEFSAII (Michael W. Deem and Ramdas Pophale) SiO2 
 PCOD8262295
Probable space group: C M C A
;
_chemical_formula_sum "Si O2"
_cell_formula_units_Z 96
_cell_length_a 8.595657
_cell_length_b 29.963757
_cell_length_c 20.554137
_cell_angle_alpha 90.000000
_cell_angle_beta 90.000000
_cell_angle_gamma 90.000000
_cell_volume 5293.886068
_symmetry_space_group_name_H-M "C M C A"
_symmetry_group_IT_number 64
_symmetry_cell_setting 'orthorhombic'
loop_
_space_group_symop_operation_xyz
x,y,z
-x,1/2-y,1/2+z
x,-y,-z
-x,1/2+y,1/2-z
-x,-y,-z
x,1/2+y,1/2-z
-x,y,z
x,1/2-y,1/2+z
1/2+x,1/2+y,z
1/2-x,-y,1/2+z
1/2+x,1/2-y,-z
1/2-x,y,1/2-z
1/2-x,1/2-y,-z
1/2+x,y,1/2-z
1/2-x,1/2+y,z
1/2+x,-y,1/2+z
loop_
_atom_site_type_symbol
_atom_site_label
_atom_site_fract_x
_atom_site_fract_y
_atom_site_fract_z
Si Si1 0.314755 0.498219 0.683842
Si Si2 0.825737 0.097600 0.343840
Si Si3 0.185860 0.305685 0.817106
Si Si4 0.323564 0.119045 0.010149
Si Si5 0.816188 0.712246 0.453719
Si Si6 0.816122 0.464335 0.446708
O O1 0.500000 0.498319 0.681848
O O2 0.250000 0.520485 0.750000
O O3 0.244421 0.447498 0.681702
O O4 0.252613 0.525763 0.623551
O O5 0.745345 0.143478 0.319851
O O6 0.823194 0.094290 0.421232
O O7 0.000000 0.098845 0.316889
O O8 0.250000 0.283761 0.750000
O O9 0.248398 0.280276 0.880870
O O10 0.000000 0.304225 0.819558
O O11 0.500000 0.128418 0.986845
O O12 0.232454 0.165378 0.014835
O O13 0.237387 0.085986 0.961099
O O14 0.750000 0.750000 0.500000
O O15 0.000000 0.715595 0.449923
O O16 0.752794 0.500000 0.500000
O O17 0.000000 0.466525 0.443945
#
# Coordination Sequence:
#
# PCOD8262295 Si02
#       6
#    16  16  16  16  16  16
#     4  11  21  34  50  73 106 148 189 233 280 327
#     4   8  16  29  48  74 106 142 179 217 267 325
#     4  10  19  33  52  80 113 149 184 224 275 336
#     4  10  19  35  57  82 109 143 184 229 278 330
#     4  11  22  38  59  85 114 147 185 232 282 335
#     4  11  22  35  53  80 110 145 189 231 271 325
#
# _framework density 18.134125999999998
#
# number of rings (size 3 to 8) (size 9 to 14) (size 15 to 20)
#    0.000    1.833    1.667    5.000    0.000    0.667 
#    0.000    1.667    0.000    1.000    0.000    7.000 
#    0.000    0.000    0.000    0.000    0.000    0.000 
#
# Total GULP energy -595039.064680 kJ/mol
# GULP energy per Si atom -12396.647181 kJ/mol
# Density = 1.809285 g / cm^3
# Si number density = 18.134126 Si / 1000 Ang^3
#
#
#
# Elastic Constant Matrix: (Units=GPa)
#
#
# Indices 1 2 3 4 5 6 
#
# 1 107.7033 37.0622 53.4248 0.0000 0.0000 0.0000
# 2 37.0622 78.8474 64.0017 0.0000 0.0000 0.0000
# 3 53.4248 64.0017 149.2075 0.0000 0.0000 0.0000
# 4 0.0000 0.0000 0.0000 24.4652 0.0000 0.0000
# 5 0.0000 0.0000 0.0000 0.0000 31.6784 0.0000
# 6 0.0000 0.0000 0.0000 0.0000 0.0000 25.1358
#
#
#
# Elastic Compliance Matrix: (Units=1/GPa)
#
#
# Indices 1 2 3 4 5 6 
#
# 1 0.011809 -0.003250 -0.002834 0.000000 0.000000 0.000000
# 2 -0.003250 0.020352 -0.007566 0.000000 0.000000 0.000000
# 3 -0.002834 -0.007566 0.010962 0.000000 0.000000 0.000000
# 4 0.000000 0.000000 0.000000 0.040874 0.000000 0.000000
# 5 0.000000 0.000000 0.000000 0.000000 0.031567 0.000000
# 6 0.000000 0.000000 0.000000 0.000000 0.000000 0.039784
#
#
# Mechanical properties :
#
#
# Convention : Reuss Voigt Hill
#
# Bulk Modulus (GPa) = 63.20185 71.63729 67.41957
# Shear Modulus (GPa) = 26.60647 28.34051 27.47349
#
# Velocity S-wave (km/s) = 3.83457 3.95755 3.89654
# Velocity P-wave (km/s) = 7.38467 7.77643 7.58308
#
# Compressibility (1/GPa) = 0.01582232
#
# Stress axis : x y z
#
# Youngs Moduli (GPa) = 84.68055 49.13500 91.22185
#
# Poissons Ratio (x) = 0.15971 0.25853
# Poissons Ratio (y) = 0.27524 0.69019
# Poissons Ratio (z) = 0.23999 0.37176
#
# Static dielectric constant tensor:
#      x y z
#    x 3.315140 0.000000 0.000000 
#    y 0.000000 3.191740 0.000000 
#    z 0.000000 0.000000 3.481830 
# 
# 
# High freq. dielectric constant tensor:
#      x y z
#    x 1.705720 0.000000 0.000000 
#    y 0.000000 1.673360 0.000000 
#    z 0.000000 0.000000 1.704400 
# 
# From -- ./inp_files/37126.got.cif
#   From: 2010.03.12/outbox.cif.g09.slc.cpg/sg64_19_cif.got.tgz:37126.got - 2010.04.10 20:19:32.
