data_PCOD8262728
_publ_section_title
;
Structure prediction by ZEFSAII (Michael W. Deem and Ramdas Pophale) SiO2 
 PCOD8262728
Probable space group: C M C A
;
_chemical_formula_sum "Si O2"
_cell_formula_units_Z 96
_cell_length_a 9.300152
_cell_length_b 23.423357
_cell_length_c 25.094268
_cell_angle_alpha 90.000000
_cell_angle_beta 90.000000
_cell_angle_gamma 90.000000
_cell_volume 5466.554926
_symmetry_space_group_name_H-M "C M C A"
_symmetry_group_IT_number 64
_symmetry_cell_setting 'orthorhombic'
loop_
_space_group_symop_operation_xyz
x,y,z
-x,1/2-y,1/2+z
x,-y,-z
-x,1/2+y,1/2-z
-x,-y,-z
x,1/2+y,1/2-z
-x,y,z
x,1/2-y,1/2+z
1/2+x,1/2+y,z
1/2-x,-y,1/2+z
1/2+x,1/2-y,-z
1/2-x,y,1/2-z
1/2-x,1/2-y,-z
1/2+x,y,1/2-z
1/2-x,1/2+y,z
1/2+x,-y,1/2+z
loop_
_atom_site_type_symbol
_atom_site_label
_atom_site_fract_x
_atom_site_fract_y
_atom_site_fract_z
Si Si1 0.164731 0.936044 0.497554
Si Si2 0.332581 0.436707 0.196985
Si Si3 0.333064 0.871641 0.407038
Si Si4 0.835202 0.130714 0.394267
Si Si5 0.331353 0.568146 0.196389
Si Si6 0.166419 0.748311 0.055146
O O1 0.253879 0.900153 0.455916
O O2 0.183469 0.909519 0.555246
O O3 0.000000 0.935737 0.478507
O O4 0.225966 0.000000 0.500000
O O5 0.500000 0.427331 0.208152
O O6 0.250000 0.417767 0.250000
O O7 0.276390 0.396892 0.148883
O O8 0.299058 0.502274 0.181827
O O9 0.500000 0.886216 0.413425
O O10 0.303257 0.804034 0.409033
O O11 0.728203 0.108697 0.349426
O O12 0.785620 0.194520 0.409475
O O13 0.000000 0.129559 0.373766
O O14 0.500000 0.579198 0.203795
O O15 0.250000 0.585409 0.250000
O O16 0.000000 0.742552 0.039525
O O17 0.250000 0.750000 0.000000
#
# Coordination Sequence:
#
# PCOD8262728 Si02
#       6
#    16  16  16  16  16  16
#     4  10  20  32  49  76 108 139 172 214 264 316
#     4   9  19  35  54  78 105 134 171 214 263 314
#     4  10  20  34  53  77 105 137 175 219 263 310
#     4  10  20  34  51  75 107 139 175 218 261 309
#     4  10  20  35  56  79 104 136 173 214 262 317
#     4  10  20  35  54  75 104 143 180 218 261 310
#
# _framework density 17.561333999999999
#
# number of rings (size 3 to 8) (size 9 to 14) (size 15 to 20)
#    0.000    2.167    1.667    1.500    0.000    3.000 
#    0.000    0.833    0.000    2.000    0.000    0.000 
#    0.000    0.000    0.000    0.000    0.000    0.000 
#
# Total GULP energy -595336.183792 kJ/mol
# GULP energy per Si atom -12402.837162 kJ/mol
# Density = 1.752136 g / cm^3
# Si number density = 17.561334 Si / 1000 Ang^3
#
#
#
# Elastic Constant Matrix: (Units=GPa)
#
#
# Indices 1 2 3 4 5 6 
#
# 1 64.1391 40.7508 51.2861 0.0000 0.0000 0.0000
# 2 40.7508 121.3273 53.5446 0.0000 0.0000 0.0000
# 3 51.2861 53.5446 101.8600 0.0000 0.0000 0.0000
# 4 0.0000 0.0000 0.0000 -49.1096 0.0000 0.0000
# 5 0.0000 0.0000 0.0000 0.0000 -370.7235 0.0000
# 6 0.0000 0.0000 0.0000 0.0000 0.0000 38.6243
#
#
#
# Elastic Compliance Matrix: (Units=1/GPa)
#
#
# Indices 1 2 3 4 5 6 
#
# 1 0.027567 -0.004080 -0.011735 0.000000 0.000000 0.000000
# 2 -0.004080 0.011336 -0.003905 0.000000 0.000000 0.000000
# 3 -0.011735 -0.003905 0.017778 0.000000 0.000000 0.000000
# 4 0.000000 0.000000 0.000000 -0.020363 0.000000 0.000000
# 5 0.000000 0.000000 0.000000 0.000000 -0.002697 0.000000
# 6 0.000000 0.000000 0.000000 0.000000 0.000000 0.025890
#
#
# Mechanical properties :
#
#
# Convention : Reuss Voigt Hill
#
# Bulk Modulus (GPa) = 57.99883 64.27658 61.13771
# Shear Modulus (GPa) = 47.75652 -66.79210 -9.51779
#
# Velocity S-wave (km/s) = 5.22046 -6.17383 -2.33056
# Velocity P-wave (km/s) = 8.33281 3.76044 5.25808
#
# Compressibility (1/GPa) = 0.01724173
#
# Stress axis : x y z
#
# Youngs Moduli (GPa) = 36.27555 88.21673 56.24796
#
# Poissons Ratio (x) = 0.35993 0.66007
# Poissons Ratio (y) = 0.14801 0.21962
# Poissons Ratio (z) = 0.42569 0.34445
#
# Static dielectric constant tensor:
#      x y z
#    x 3.264820 0.000000 0.000000 
#    y 0.000000 3.504220 0.000000 
#    z 0.000000 0.000000 3.305630 
# 
# 
# High freq. dielectric constant tensor:
#      x y z
#    x 1.677780 0.000000 0.000000 
#    y 0.000000 1.684740 0.000000 
#    z 0.000000 0.000000 1.675640 
# 
# From -- ./inp_files/42990.got.cif
#   From: 2010.03.12/outbox.cif.g09.slc.cpg/sg64_22_cif.got.tgz:42990.got - 2010.04.10 20:19:32.
