data_PCOD8262153
_publ_section_title
;
Structure prediction by ZEFSAII (Michael W. Deem and Ramdas Pophale) SiO2 
 PCOD8262153
Probable space group: C M C A
;
_chemical_formula_sum "Si O2"
_cell_formula_units_Z 128
_cell_length_a 18.949957
_cell_length_b 21.725156
_cell_length_c 16.332060
_cell_angle_alpha 90.000000
_cell_angle_beta 90.000000
_cell_angle_gamma 90.000000
_cell_volume 6723.758390
_symmetry_space_group_name_H-M "C M C A"
_symmetry_group_IT_number 64
_symmetry_cell_setting 'orthorhombic'
loop_
_space_group_symop_operation_xyz
x,y,z
-x,1/2-y,1/2+z
x,-y,-z
-x,1/2+y,1/2-z
-x,-y,-z
x,1/2+y,1/2-z
-x,y,z
x,1/2-y,1/2+z
1/2+x,1/2+y,z
1/2-x,-y,1/2+z
1/2+x,1/2-y,-z
1/2-x,y,1/2-z
1/2-x,1/2-y,-z
1/2+x,y,1/2-z
1/2-x,1/2+y,z
1/2+x,-y,1/2+z
loop_
_atom_site_type_symbol
_atom_site_label
_atom_site_fract_x
_atom_site_fract_y
_atom_site_fract_z
Si Si1 0.159571 0.529565 0.085357
Si Si2 0.180599 0.173708 0.013437
Si Si3 0.920730 0.848170 0.572055
Si Si4 0.172623 0.305991 0.064566
Si Si5 0.419527 0.782128 0.369626
Si Si6 0.174000 0.459588 0.576006
Si Si7 0.328720 0.843810 0.240941
Si Si8 0.329848 0.015963 0.742336
O O1 0.132659 0.598640 0.096896
O O2 0.243263 0.527368 0.081651
O O3 0.132516 0.496156 0.169333
O O4 0.129215 0.500000 0.000000
O O5 0.184311 0.232296 0.075071
O O6 0.157626 0.112568 0.062042
O O7 0.257905 0.162832 0.974852
O O8 0.124999 0.187496 0.942368
O O9 0.897345 0.818094 0.486995
O O10 0.916044 0.791954 0.635852
O O11 0.000000 0.874257 0.564953
O O12 0.154164 0.342333 0.145932
O O13 0.500000 0.805001 0.378474
O O14 0.386660 0.802387 0.284258
O O15 0.143389 0.500000 0.500000
O O16 0.137655 0.480431 0.662626
O O17 0.250000 0.816199 0.250000
O O18 0.333320 0.911975 0.278090
O O19 0.250000 0.992691 0.750000
#
# Coordination Sequence:
#
# PCOD8262153 Si02
#       8
#    16  16  16  16  16  16  16  16
#     4  10  19  33  53  78 112 149 186 231 283 339
#     4  10  19  35  56  81 109 141 188 232 277 331
#     4  10  21  37  54  76 112 148 180 224 285 342
#     4  10  20  33  56  85 105 138 188 236 274 329
#     4  10  22  38  56  81 113 148 182 229 287 340
#     4  10  19  31  55  81 112 148 183 239 288 329
#     4  11  20  34  58  83 112 144 186 232 281 329
#     4   9  20  32  50  84 113 142 190 238 281 333
#
# _framework density 19.036971999999999
#
# number of rings (size 3 to 8) (size 9 to 14) (size 15 to 20)
#    0.000    2.000    2.500    1.500    3.500    1.750 
#    0.000    1.875    0.000    4.125    0.000    0.000 
#    0.000    0.000    0.000    0.000    0.000    0.000 
#
# Total GULP energy -793272.177268 kJ/mol
# GULP energy per Si atom -12394.877770 kJ/mol
# Density = 1.899364 g / cm^3
# Si number density = 19.036972 Si / 1000 Ang^3
#
#
#
# Elastic Constant Matrix: (Units=GPa)
#
#
# Indices 1 2 3 4 5 6 
#
# 1 35.0723 11.0345 14.1582 0.0000 0.0000 0.0000
# 2 11.0345 87.5226 39.3858 0.0000 0.0000 0.0000
# 3 14.1582 39.3858 112.6876 0.0000 0.0000 0.0000
# 4 0.0000 0.0000 0.0000 29.8040 0.0000 0.0000
# 5 0.0000 0.0000 0.0000 0.0000 15.7785 0.0000
# 6 0.0000 0.0000 0.0000 0.0000 0.0000 15.1492
#
#
#
# Elastic Compliance Matrix: (Units=1/GPa)
#
#
# Indices 1 2 3 4 5 6 
#
# 1 0.030496 -0.002516 -0.002952 0.000000 0.000000 0.000000
# 2 -0.002516 0.013766 -0.004495 0.000000 0.000000 0.000000
# 3 -0.002952 -0.004495 0.010816 0.000000 0.000000 0.000000
# 4 0.000000 0.000000 0.000000 0.033553 0.000000 0.000000
# 5 0.000000 0.000000 0.000000 0.000000 0.063377 0.000000
# 6 0.000000 0.000000 0.000000 0.000000 0.000000 0.066010
#
#
# Mechanical properties :
#
#
# Convention : Reuss Voigt Hill
#
# Bulk Modulus (GPa) = 28.44899 40.49328 34.47114
# Shear Modulus (GPa) = 20.02711 23.52661 21.77686
#
# Velocity S-wave (km/s) = 3.24699 3.51926 3.38586
# Velocity P-wave (km/s) = 5.38830 6.15066 5.78206
#
# Compressibility (1/GPa) = 0.03515064
#
# Stress axis : x y z
#
# Youngs Moduli (GPa) = 32.79130 72.64421 92.45476
#
# Poissons Ratio (x) = 0.18280 0.27293
# Poissons Ratio (y) = 0.08251 0.41560
# Poissons Ratio (z) = 0.09680 0.32655
#
# Static dielectric constant tensor:
#      x y z
#    x 3.201790 0.000000 0.000000 
#    y 0.000000 3.523720 0.000000 
#    z 0.000000 0.000000 3.647220 
# 
# 
# High freq. dielectric constant tensor:
#      x y z
#    x 1.700490 0.000000 0.000000 
#    y 0.000000 1.746130 0.000000 
#    z 0.000000 0.000000 1.738900 
# 
# From -- ./inp_files/34681.got.cif
#   From: 2010.03.12/outbox.cif.g09.slc.cpg/sg64_18_cif.got.tgz:34681.got - 2010.04.10 20:19:32.
