data_PCOD8262861
_publ_section_title
;
Structure prediction by ZEFSAII (Michael W. Deem and Ramdas Pophale) SiO2 
 PCOD8262861
Probable space group: C M C A
;
_chemical_formula_sum "Si O2"
_cell_formula_units_Z 96
_cell_length_a 14.468267
_cell_length_b 22.806823
_cell_length_c 14.933666
_cell_angle_alpha 90.000000
_cell_angle_beta 90.000000
_cell_angle_gamma 90.000000
_cell_volume 4927.739494
_symmetry_space_group_name_H-M "C M C A"
_symmetry_group_IT_number 64
_symmetry_cell_setting 'orthorhombic'
loop_
_space_group_symop_operation_xyz
x,y,z
-x,1/2-y,1/2+z
x,-y,-z
-x,1/2+y,1/2-z
-x,-y,-z
x,1/2+y,1/2-z
-x,y,z
x,1/2-y,1/2+z
1/2+x,1/2+y,z
1/2-x,-y,1/2+z
1/2+x,1/2-y,-z
1/2-x,y,1/2-z
1/2-x,1/2-y,-z
1/2+x,y,1/2-z
1/2-x,1/2+y,z
1/2+x,-y,1/2+z
loop_
_atom_site_type_symbol
_atom_site_label
_atom_site_fract_x
_atom_site_fract_y
_atom_site_fract_z
Si Si1 0.105412 0.261321 0.130243
Si Si2 0.104899 0.195888 0.436259
Si Si3 0.608748 0.945657 0.612197
Si Si4 0.772886 0.344120 0.653940
Si Si5 0.608769 0.924505 0.409199
Si Si6 0.390858 0.808181 0.319043
O O1 0.160561 0.202510 0.105605
O O2 0.145698 0.294715 0.218146
O O3 0.000000 0.242302 0.148496
O O4 0.112245 0.302433 0.043439
O O5 0.177710 0.147072 0.402271
O O6 0.135759 0.256955 0.388982
O O7 0.000000 0.179323 0.407594
O O8 0.500000 0.935208 0.629091
O O9 0.672512 0.904571 0.673316
O O10 0.638946 0.926085 0.512434
O O11 0.636089 0.012853 0.634164
O O12 0.750000 0.317050 0.750000
O O13 0.500000 0.917998 0.406732
O O14 0.653520 0.869462 0.355629
O O15 0.500000 0.815428 0.315049
#
# Coordination Sequence:
#
# PCOD8262861 Si02
#       6
#    16  16  16  16  16  16
#     4  10  20  34  53  79 111 145 177 218 272 327
#     4  10  21  36  53  78 112 146 181 220 265 321
#     4   9  18  33  56  83 107 138 177 224 278 323
#     4  12  22  33  53  77 115 144 180 216 273 322
#     4   8  15  31  57  83 105 132 174 227 278 320
#     4   9  16  30  53  80 106 135 174 219 267 321
#
# _framework density 19.481548
#
# number of rings (size 3 to 8) (size 9 to 14) (size 15 to 20)
#    0.000    2.333    1.667    3.000    0.000    3.333 
#    0.000    0.000   11.000    0.000    0.000    2.333 
#    0.000    0.000    0.000    0.000    0.000    0.000 
#
# Total GULP energy -594897.440664 kJ/mol
# GULP energy per Si atom -12393.696681 kJ/mol
# Density = 1.943721 g / cm^3
# Si number density = 19.481548 Si / 1000 Ang^3
#
#
#
# Elastic Constant Matrix: (Units=GPa)
#
#
# Indices 1 2 3 4 5 6 
#
# 1 67.9117 36.4811 19.4786 0.0000 0.0000 0.0000
# 2 36.4811 79.2109 19.4742 0.0000 0.0000 0.0000
# 3 19.4786 19.4742 88.0315 0.0000 0.0000 0.0000
# 4 0.0000 0.0000 0.0000 22.5977 0.0000 0.0000
# 5 0.0000 0.0000 0.0000 0.0000 21.4701 0.0000
# 6 0.0000 0.0000 0.0000 0.0000 0.0000 19.1056
#
#
#
# Elastic Compliance Matrix: (Units=1/GPa)
#
#
# Indices 1 2 3 4 5 6 
#
# 1 0.020087 -0.008628 -0.002536 0.000000 0.000000 0.000000
# 2 -0.008628 0.017056 -0.001864 0.000000 0.000000 0.000000
# 3 -0.002536 -0.001864 0.012333 0.000000 0.000000 0.000000
# 4 0.000000 0.000000 0.000000 0.044252 0.000000 0.000000
# 5 0.000000 0.000000 0.000000 0.000000 0.046576 0.000000
# 6 0.000000 0.000000 0.000000 0.000000 0.000000 0.052341
#
#
# Mechanical properties :
#
#
# Convention : Reuss Voigt Hill
#
# Bulk Modulus (GPa) = 42.69720 42.89134 42.79427
# Shear Modulus (GPa) = 22.07420 23.28268 22.67844
#
# Velocity S-wave (km/s) = 3.36978 3.46079 3.41559
# Velocity P-wave (km/s) = 6.09138 6.16714 6.12938
#
# Compressibility (1/GPa) = 0.02342074
#
# Stress axis : x y z
#
# Youngs Moduli (GPa) = 49.78323 58.62902 81.08264
#
# Poissons Ratio (x) = 0.50584 0.20563
# Poissons Ratio (y) = 0.42952 0.15115
# Poissons Ratio (z) = 0.12625 0.10929
#
# Static dielectric constant tensor:
#      x y z
#    x 3.445060 0.000000 0.000000 
#    y 0.000000 3.562980 0.000000 
#    z 0.000000 0.000000 3.562030 
# 
# 
# High freq. dielectric constant tensor:
#      x y z
#    x 1.746060 0.000000 0.000000 
#    y 0.000000 1.731860 0.000000 
#    z 0.000000 0.000000 1.752080 
# 
# From -- ./inp_files/23888.got.cif
#   From: 2010.03.12/outbox.cif.g09.slc.cpg/sg64_12_cif.got.tgz:23888.got - 2010.04.10 20:19:32.
