data_PCOD8262589
_publ_section_title
;
Structure prediction by ZEFSAII (Michael W. Deem and Ramdas Pophale) SiO2 
 PCOD8262589
Probable space group: C M C A
;
_chemical_formula_sum "Si O2"
_cell_formula_units_Z 80
_cell_length_a 16.282029
_cell_length_b 17.307339
_cell_length_c 15.010741
_cell_angle_alpha 90.000000
_cell_angle_beta 90.000000
_cell_angle_gamma 90.000000
_cell_volume 4230.005731
_symmetry_space_group_name_H-M "C M C A"
_symmetry_group_IT_number 64
_symmetry_cell_setting 'orthorhombic'
loop_
_space_group_symop_operation_xyz
x,y,z
-x,1/2-y,1/2+z
x,-y,-z
-x,1/2+y,1/2-z
-x,-y,-z
x,1/2+y,1/2-z
-x,y,z
x,1/2-y,1/2+z
1/2+x,1/2+y,z
1/2-x,-y,1/2+z
1/2+x,1/2-y,-z
1/2-x,y,1/2-z
1/2-x,1/2-y,-z
1/2+x,y,1/2-z
1/2-x,1/2+y,z
1/2+x,-y,1/2+z
loop_
_atom_site_type_symbol
_atom_site_label
_atom_site_fract_x
_atom_site_fract_y
_atom_site_fract_z
Si Si1 0.090996 0.750927 0.887948
Si Si2 0.902156 0.442012 0.887038
Si Si3 0.840506 0.705221 0.210359
Si Si4 0.814239 0.308027 0.456808
Si Si5 0.170247 0.404444 0.074439
O O1 0.094579 0.786912 0.789987
O O2 0.146147 0.674726 0.878320
O O3 0.000000 0.724677 0.911098
O O4 0.116421 0.811944 0.966130
O O5 0.861366 0.378704 0.825501
O O6 0.851670 0.521280 0.865030
O O7 0.000000 0.451906 0.871931
O O8 0.884854 0.415117 0.987081
O O9 0.750000 0.707119 0.250000
O O10 0.850213 0.772061 0.135029
O O11 0.750000 0.250000 0.500000
O O12 0.768976 0.391954 0.443498
#
# Coordination Sequence:
#
# PCOD8262589 Si02
#       5
#    16  16  16  16  16
#     4  11  21  35  60  87 117 155 196 246 296 343
#     4  11  21  34  57  89 116 142 192 252 302 342
#     4  12  21  37  56  85 117 155 201 240 288 355
#     4  10  19  37  59  79 118 152 195 236 280 359
#     4  10  19  36  58  82 115 150 185 242 298 350
#
# _framework density 18.912503999999998
#
# number of rings (size 3 to 8) (size 9 to 14) (size 15 to 20)
#    0.000    1.200    8.000    3.000    0.000    0.800 
#    3.600    0.000    0.000    0.000    0.000    4.200 
#    0.000    0.000    0.000    0.000    0.000    0.000 
#
# Total GULP energy -495549.181129 kJ/mol
# GULP energy per Si atom -12388.729528 kJ/mol
# Density = 1.886946 g / cm^3
# Si number density = 18.912504 Si / 1000 Ang^3
#
#
#
# Elastic Constant Matrix: (Units=GPa)
#
#
# Indices 1 2 3 4 5 6 
#
# 1 60.5426 18.1810 25.4274 0.0000 0.0000 0.0000
# 2 18.1810 63.7281 9.1938 0.0000 0.0000 0.0000
# 3 25.4274 9.1938 88.4774 0.0000 0.0000 0.0000
# 4 0.0000 0.0000 0.0000 28.3783 0.0000 0.0000
# 5 0.0000 0.0000 0.0000 0.0000 10.6573 0.0000
# 6 0.0000 0.0000 0.0000 0.0000 0.0000 25.8454
#
#
#
# Elastic Compliance Matrix: (Units=1/GPa)
#
#
# Indices 1 2 3 4 5 6 
#
# 1 0.020248 -0.005012 -0.005298 0.000000 0.000000 0.000000
# 2 -0.005012 0.017171 -0.000344 0.000000 0.000000 0.000000
# 3 -0.005298 -0.000344 0.012861 0.000000 0.000000 0.000000
# 4 0.000000 0.000000 0.000000 0.035238 0.000000 0.000000
# 5 0.000000 0.000000 0.000000 0.000000 0.093832 0.000000
# 6 0.000000 0.000000 0.000000 0.000000 0.000000 0.038692
#
#
# Mechanical properties :
#
#
# Convention : Reuss Voigt Hill
#
# Bulk Modulus (GPa) = 34.51693 35.37250 34.94471
# Shear Modulus (GPa) = 20.07978 23.63927 21.85952
#
# Velocity S-wave (km/s) = 3.26194 3.53927 3.40343
# Velocity P-wave (km/s) = 5.69890 5.95363 5.82766
#
# Compressibility (1/GPa) = 0.02897129
#
# Stress axis : x y z
#
# Youngs Moduli (GPa) = 49.38858 58.23720 77.75640
#
# Poissons Ratio (x) = 0.29189 0.41196
# Poissons Ratio (y) = 0.24754 0.02674
# Poissons Ratio (z) = 0.26167 0.02003
#
# Static dielectric constant tensor:
#      x y z
#    x 3.724940 0.000000 0.000000 
#    y 0.000000 3.785310 0.000000 
#    z 0.000000 0.000000 3.855350 
# 
# 
# High freq. dielectric constant tensor:
#      x y z
#    x 1.730140 0.000000 0.000000 
#    y 0.000000 1.715230 0.000000 
#    z 0.000000 0.000000 1.731710 
# 
# From -- ./inp_files/25286.got.cif
#   From: 2010.03.12/outbox.cif.g09.slc.cpg/sg64_13_cif.got.tgz:25286.got - 2010.04.10 20:19:32.
