data_PCOD8262873
_publ_section_title
;
Structure prediction by ZEFSAII (Michael W. Deem and Ramdas Pophale) SiO2 
 PCOD8262873
Probable space group: C M C A
;
_chemical_formula_sum "Si O2"
_cell_formula_units_Z 80
_cell_length_a 10.360105
_cell_length_b 22.487289
_cell_length_c 16.667952
_cell_angle_alpha 90.000000
_cell_angle_beta 90.000000
_cell_angle_gamma 90.000000
_cell_volume 3883.144032
_symmetry_space_group_name_H-M "C M C A"
_symmetry_group_IT_number 64
_symmetry_cell_setting 'orthorhombic'
loop_
_space_group_symop_operation_xyz
x,y,z
-x,1/2-y,1/2+z
x,-y,-z
-x,1/2+y,1/2-z
-x,-y,-z
x,1/2+y,1/2-z
-x,y,z
x,1/2-y,1/2+z
1/2+x,1/2+y,z
1/2-x,-y,1/2+z
1/2+x,1/2-y,-z
1/2-x,y,1/2-z
1/2-x,1/2-y,-z
1/2+x,y,1/2-z
1/2-x,1/2+y,z
1/2+x,-y,1/2+z
loop_
_atom_site_type_symbol
_atom_site_label
_atom_site_fract_x
_atom_site_fract_y
_atom_site_fract_z
Si Si1 0.639971 0.369445 0.811367
Si Si2 0.645332 0.626671 0.578360
Si Si3 0.851080 0.265259 0.181665
Si Si4 0.145107 0.483077 0.182521
Si Si5 0.279417 0.053284 0.448003
O O1 0.500000 0.369462 0.767503
O O2 0.750000 0.391472 0.750000
O O3 0.672335 0.303285 0.842999
O O4 0.625734 0.414806 0.885558
O O5 0.500000 0.622574 0.546502
O O6 0.679956 0.693911 0.604454
O O7 0.663396 0.585316 0.656874
O O8 0.733955 0.606162 0.505531
O O9 0.750000 0.283585 0.250000
O O10 0.000000 0.275905 0.210031
O O11 0.250000 0.499357 0.250000
O O12 0.163090 0.523452 0.102808
O O13 0.000000 0.494258 0.216197
O O14 0.346645 0.000000 0.500000
#
# Coordination Sequence:
#
# PCOD8262873 Si02
#       5
#    16  16  16  16  16
#     4  10  22  39  59  83 109 140 179 221 266 317
#     4   9  18  34  55  79 109 143 177 218 270 324
#     4   9  18  35  58  82 108 139 178 222 267 318
#     4  10  20  34  54  79 106 140 183 225 266 317
#     4  10  21  35  52  78 111 144 179 220 265 314
#
# _framework density 20.601861
#
# number of rings (size 3 to 8) (size 9 to 14) (size 15 to 20)
#    0.000    2.400    0.000    1.800    0.000    7.600 
#    0.000    4.000    0.000    0.000    0.000    0.000 
#    0.000    0.000    0.000    0.000    0.000    0.000 
#
# Total GULP energy -495711.164582 kJ/mol
# GULP energy per Si atom -12392.779115 kJ/mol
# Density = 2.055497 g / cm^3
# Si number density = 20.601861 Si / 1000 Ang^3
#
#
#
# Elastic Constant Matrix: (Units=GPa)
#
#
# Indices 1 2 3 4 5 6 
#
# 1 107.1942 28.0947 45.7957 0.0000 0.0000 0.0000
# 2 28.0947 105.3247 48.6808 0.0000 0.0000 0.0000
# 3 45.7957 48.6808 93.1155 0.0000 0.0000 0.0000
# 4 0.0000 0.0000 0.0000 41.6982 0.0000 0.0000
# 5 0.0000 0.0000 0.0000 0.0000 22.7756 0.0000
# 6 0.0000 0.0000 0.0000 0.0000 0.0000 3.6845
#
#
#
# Elastic Compliance Matrix: (Units=1/GPa)
#
#
# Indices 1 2 3 4 5 6 
#
# 1 0.011841 -0.000616 -0.005502 0.000000 0.000000 0.000000
# 2 -0.000616 0.012552 -0.006259 0.000000 0.000000 0.000000
# 3 -0.005502 -0.006259 0.016717 0.000000 0.000000 0.000000
# 4 0.000000 0.000000 0.000000 0.023982 0.000000 0.000000
# 5 0.000000 0.000000 0.000000 0.000000 0.043907 0.000000
# 6 0.000000 0.000000 0.000000 0.000000 0.000000 0.271405
#
#
# Mechanical properties :
#
#
# Convention : Reuss Voigt Hill
#
# Bulk Modulus (GPa) = 61.13633 61.19741 61.16687
# Shear Modulus (GPa) = 12.17705 25.83589 19.00647
#
# Velocity S-wave (km/s) = 2.43382 3.54511 3.04066
# Velocity P-wave (km/s) = 6.13495 6.82102 6.48706
#
# Compressibility (1/GPa) = 0.01635689
#
# Stress axis : x y z
#
# Youngs Moduli (GPa) = 84.45528 79.67076 59.81787
#
# Poissons Ratio (x) = 0.04905 0.32909
# Poissons Ratio (y) = 0.05199 0.37441
# Poissons Ratio (z) = 0.46463 0.49868
#
# Static dielectric constant tensor:
#      x y z
#    x 3.534510 0.000000 0.000000 
#    y 0.000000 3.996530 0.000000 
#    z 0.000000 0.000000 3.456130 
# 
# 
# High freq. dielectric constant tensor:
#      x y z
#    x 1.790210 0.000000 0.000000 
#    y 0.000000 1.827420 0.000000 
#    z 0.000000 0.000000 1.782240 
# 
# From -- ./inp_files/22327.got.cif
#   From: 2010.03.12/outbox.cif.g09.slc.cpg/sg64_12_cif.got.tgz:22327.got - 2010.04.10 20:19:32.
