data_PCOD8262609
_publ_section_title
;
Structure prediction by ZEFSAII (Michael W. Deem and Ramdas Pophale) SiO2 
 PCOD8262609
Probable space group: C M C A
;
_chemical_formula_sum "Si O2"
_cell_formula_units_Z 120
_cell_length_a 22.539224
_cell_length_b 15.384579
_cell_length_c 18.469994
_cell_angle_alpha 90.000000
_cell_angle_beta 90.000000
_cell_angle_gamma 90.000000
_cell_volume 6404.589961
_symmetry_space_group_name_H-M "C M C A"
_symmetry_group_IT_number 64
_symmetry_cell_setting 'orthorhombic'
loop_
_space_group_symop_operation_xyz
x,y,z
-x,1/2-y,1/2+z
x,-y,-z
-x,1/2+y,1/2-z
-x,-y,-z
x,1/2+y,1/2-z
-x,y,z
x,1/2-y,1/2+z
1/2+x,1/2+y,z
1/2-x,-y,1/2+z
1/2+x,1/2-y,-z
1/2-x,y,1/2-z
1/2-x,1/2-y,-z
1/2+x,y,1/2-z
1/2-x,1/2+y,z
1/2+x,-y,1/2+z
loop_
_atom_site_type_symbol
_atom_site_label
_atom_site_fract_x
_atom_site_fract_y
_atom_site_fract_z
Si Si1 0.568656 0.246142 0.465203
Si Si2 0.740695 0.598032 0.023387
Si Si3 0.627109 0.904579 0.966321
Si Si4 0.151838 0.662103 0.578136
Si Si5 0.356357 0.326054 0.675885
Si Si6 0.159787 0.474760 0.640099
Si Si7 0.250000 0.922833 0.750000
Si Si8 0.930790 0.841200 0.815130
O O1 0.500000 0.237431 0.483796
O O2 0.589558 0.344554 0.480003
O O3 0.601275 0.179803 0.518835
O O4 0.580711 0.225683 0.380958
O O5 0.805844 0.634311 0.040946
O O6 0.691760 0.594368 0.086636
O O7 0.752523 0.500000 0.000000
O O8 0.716228 0.659770 0.960011
O O9 0.609432 0.891931 0.881228
O O10 0.620542 0.000000 0.000000
O O11 0.153588 0.731701 0.641357
O O12 0.140108 0.565773 0.607607
O O13 0.292408 0.362926 0.700271
O O14 0.399582 0.306131 0.742887
O O15 0.207609 0.486937 0.704402
O O16 0.098308 0.433883 0.666735
O O17 0.000000 0.855452 0.800724
#
# Coordination Sequence:
#
# PCOD8262609 Si02
#       8
#    16  16  16  16  16  16   8  16
#     4  10  22  39  60  85 115 155 202 252 294 343
#     4   9  17  32  57  88 117 142 181 233 288 348
#     4  10  21  39  63  88 118 156 197 244 300 350
#     4  10  21  36  59  91 117 148 192 243 295 344
#     4  10  22  37  57  83 117 159 191 239 292 348
#     4  10  19  36  60  87 119 152 189 237 289 354
#     4  10  20  36  54  82 126 160 188 226 288 356
#     4  10  22  41  58  79 117 159 199 244 296 348
#
# _framework density 18.736563
#
# number of rings (size 3 to 8) (size 9 to 14) (size 15 to 20)
#    0.000    2.133    2.667    0.000    0.000    7.733 
#    4.800    1.333    0.000    0.000    0.000    0.000 
#    0.000    0.000    0.000    0.000    0.000    0.000 
#
# Total GULP energy -743568.447776 kJ/mol
# GULP energy per Si atom -12392.807463 kJ/mol
# Density = 1.869392 g / cm^3
# Si number density = 18.736563 Si / 1000 Ang^3
#
#
#
# Elastic Constant Matrix: (Units=GPa)
#
#
# Indices 1 2 3 4 5 6 
#
# 1 95.5265 39.3372 50.0435 0.0000 0.0000 0.0000
# 2 39.3372 81.8860 59.3639 0.0000 0.0000 0.0000
# 3 50.0435 59.3639 127.9037 0.0000 0.0000 0.0000
# 4 0.0000 0.0000 0.0000 32.3186 0.0000 0.0000
# 5 0.0000 0.0000 0.0000 0.0000 28.4226 0.0000
# 6 0.0000 0.0000 0.0000 0.0000 0.0000 12.3735
#
#
#
# Elastic Compliance Matrix: (Units=1/GPa)
#
#
# Indices 1 2 3 4 5 6 
#
# 1 0.014051 -0.004166 -0.003564 0.000000 0.000000 0.000000
# 2 -0.004166 0.019640 -0.007486 0.000000 0.000000 0.000000
# 3 -0.003564 -0.007486 0.012687 0.000000 0.000000 0.000000
# 4 0.000000 0.000000 0.000000 0.030942 0.000000 0.000000
# 5 0.000000 0.000000 0.000000 0.000000 0.035183 0.000000
# 6 0.000000 0.000000 0.000000 0.000000 0.000000 0.080818
#
#
# Mechanical properties :
#
#
# Convention : Reuss Voigt Hill
#
# Bulk Modulus (GPa) = 62.70821 66.97836 64.84329
# Shear Modulus (GPa) = 21.82759 25.06106 23.44432
#
# Velocity S-wave (km/s) = 3.41687 3.66122 3.54115
# Velocity P-wave (km/s) = 7.00769 7.32787 7.16957
#
# Compressibility (1/GPa) = 0.01594688
#
# Stress axis : x y z
#
# Youngs Moduli (GPa) = 71.16953 50.91593 78.82072
#
# Poissons Ratio (x) = 0.21213 0.28091
# Poissons Ratio (y) = 0.29651 0.59001
# Poissons Ratio (z) = 0.25364 0.38113
#
# Static dielectric constant tensor:
#      x y z
#    x 3.476430 0.000000 0.000000 
#    y 0.000000 3.185520 0.000000 
#    z 0.000000 0.000000 3.687180 
# 
# 
# High freq. dielectric constant tensor:
#      x y z
#    x 1.727120 0.000000 0.000000 
#    y 0.000000 1.713010 0.000000 
#    z 0.000000 0.000000 1.740530 
# 
# From -- ./inp_files/41051.got.cif
#   From: 2010.03.12/outbox.cif.g09.slc.cpg/sg64_21_cif.got.tgz:41051.got - 2010.04.10 20:19:32.
