data_PCOD8262654
_publ_section_title
;
Structure prediction by ZEFSAII (Michael W. Deem and Ramdas Pophale) SiO2 
 PCOD8262654
Probable space group: C M C A
;
_chemical_formula_sum "Si O2"
_cell_formula_units_Z 112
_cell_length_a 15.307553
_cell_length_b 10.889361
_cell_length_c 32.278816
_cell_angle_alpha 90.000000
_cell_angle_beta 90.000000
_cell_angle_gamma 90.000000
_cell_volume 5380.538752
_symmetry_space_group_name_H-M "C M C A"
_symmetry_group_IT_number 64
_symmetry_cell_setting 'orthorhombic'
loop_
_space_group_symop_operation_xyz
x,y,z
-x,1/2-y,1/2+z
x,-y,-z
-x,1/2+y,1/2-z
-x,-y,-z
x,1/2+y,1/2-z
-x,y,z
x,1/2-y,1/2+z
1/2+x,1/2+y,z
1/2-x,-y,1/2+z
1/2+x,1/2-y,-z
1/2-x,y,1/2-z
1/2-x,1/2-y,-z
1/2+x,y,1/2-z
1/2-x,1/2+y,z
1/2+x,-y,1/2+z
loop_
_atom_site_type_symbol
_atom_site_label
_atom_site_fract_x
_atom_site_fract_y
_atom_site_fract_z
Si Si1 0.148007 0.779784 0.154313
Si Si2 0.769683 0.984966 0.202791
Si Si3 0.248732 0.624207 0.525593
Si Si4 0.406741 0.478384 0.664222
Si Si5 0.595538 0.629647 0.590222
Si Si6 0.322409 0.837116 0.634049
Si Si7 0.900512 0.447489 0.416097
O O1 0.175407 0.861816 0.194286
O O2 0.094335 0.667103 0.172984
O O3 0.229123 0.727732 0.127304
O O4 0.089295 0.856693 0.122765
O O5 0.750000 0.018130 0.250000
O O6 0.674567 0.953948 0.184582
O O7 0.818582 0.099044 0.179740
O O8 0.266969 0.500000 0.500000
O O9 0.250000 0.750000 0.500000
O O10 0.327581 0.639033 0.557678
O O11 0.152768 0.613757 0.546266
O O12 0.500000 0.527827 0.681610
O O13 0.400933 0.500224 0.614513
O O14 0.500000 0.646130 0.568880
O O15 0.604660 0.732525 0.627119
O O16 0.341762 0.937209 0.598385
O O17 0.000000 0.482774 0.429923
#
# Coordination Sequence:
#
# PCOD8262654 Si02
#       7
#    16  16  16  16  16  16  16
#     4  10  19  37  64  87 121 164 215 252 310 373
#     4  10  21  37  63  89 130 170 205 256 327 385
#     4  12  27  43  65  96 138 172 210 273 344 406
#     4  10  21  38  61  90 120 161 215 263 303 364
#     4  11  22  42  68  91 123 169 222 268 314 389
#     4  10  19  39  65  93 120 166 221 260 313 374
#     4  11  23  40  66  94 124 167 216 265 317 385
#
# _framework density 20.815759
#
# number of rings (size 3 to 8) (size 9 to 14) (size 15 to 20)
#    0.000    1.429    2.857    3.429    2.000    3.429 
#    0.000    4.286    0.000    0.000    0.000    0.000 
#    0.000    0.000    0.000    0.000    0.000    0.000 
#
# Total GULP energy -693789.346948 kJ/mol
# GULP energy per Si atom -12389.095481 kJ/mol
# Density = 2.076838 g / cm^3
# Si number density = 20.815759 Si / 1000 Ang^3
#
#
#
# Elastic Constant Matrix: (Units=GPa)
#
#
# Indices 1 2 3 4 5 6 
#
# 1 125.2064 16.9785 48.1288 0.0000 0.0000 0.0000
# 2 16.9785 101.4028 40.3779 0.0000 0.0000 0.0000
# 3 48.1288 40.3779 100.8118 0.0000 0.0000 0.0000
# 4 0.0000 0.0000 0.0000 26.5437 0.0000 0.0000
# 5 0.0000 0.0000 0.0000 0.0000 16.3385 0.0000
# 6 0.0000 0.0000 0.0000 0.0000 0.0000 18.1299
#
#
#
# Elastic Compliance Matrix: (Units=1/GPa)
#
#
# Indices 1 2 3 4 5 6 
#
# 1 0.009788 0.000264 -0.004779 0.000000 0.000000 0.000000
# 2 0.000264 0.011740 -0.004828 0.000000 0.000000 0.000000
# 3 -0.004779 -0.004828 0.014135 0.000000 0.000000 0.000000
# 4 0.000000 0.000000 0.000000 0.037674 0.000000 0.000000
# 5 0.000000 0.000000 0.000000 0.000000 0.061205 0.000000
# 6 0.000000 0.000000 0.000000 0.000000 0.000000 0.055158
#
#
# Mechanical properties :
#
#
# Convention : Reuss Voigt Hill
#
# Bulk Modulus (GPa) = 58.90361 59.82125 59.36243
# Shear Modulus (GPa) = 23.35974 26.99814 25.17894
#
# Velocity S-wave (km/s) = 3.35358 3.60530 3.48172
# Velocity P-wave (km/s) = 6.58440 6.79204 6.68903
#
# Compressibility (1/GPa) = 0.01697689
#
# Stress axis : x y z
#
# Youngs Moduli (GPa) = 102.16720 85.17865 70.74810
#
# Poissons Ratio (x) = -0.02248 0.33807
# Poissons Ratio (y) = -0.02697 0.34159
# Poissons Ratio (z) = 0.48821 0.41126
#
# Static dielectric constant tensor:
#      x y z
#    x 3.912960 0.000000 0.000000 
#    y 0.000000 4.072400 0.000000 
#    z 0.000000 0.000000 3.506230 
# 
# 
# High freq. dielectric constant tensor:
#      x y z
#    x 1.820150 0.000000 0.000000 
#    y 0.000000 1.830220 0.000000 
#    z 0.000000 0.000000 1.777390 
# 
# From -- ./inp_files/53274.got.cif
#   From: 2010.03.12/outbox.cif.g09.slc.cpg/sg64_27_cif.got.tgz:53274.got - 2010.04.10 20:19:32.
