data_PCOD8262608
_publ_section_title
;
Structure prediction by ZEFSAII (Michael W. Deem and Ramdas Pophale) SiO2 
 PCOD8262608
Probable space group: C M C A
;
_chemical_formula_sum "Si O2"
_cell_formula_units_Z 112
_cell_length_a 15.715503
_cell_length_b 24.076157
_cell_length_c 14.401542
_cell_angle_alpha 90.000000
_cell_angle_beta 90.000000
_cell_angle_gamma 90.000000
_cell_volume 5449.095858
_symmetry_space_group_name_H-M "C M C A"
_symmetry_group_IT_number 64
_symmetry_cell_setting 'orthorhombic'
loop_
_space_group_symop_operation_xyz
x,y,z
-x,1/2-y,1/2+z
x,-y,-z
-x,1/2+y,1/2-z
-x,-y,-z
x,1/2+y,1/2-z
-x,y,z
x,1/2-y,1/2+z
1/2+x,1/2+y,z
1/2-x,-y,1/2+z
1/2+x,1/2-y,-z
1/2-x,y,1/2-z
1/2-x,1/2-y,-z
1/2+x,y,1/2-z
1/2-x,1/2+y,z
1/2+x,-y,1/2+z
loop_
_atom_site_type_symbol
_atom_site_label
_atom_site_fract_x
_atom_site_fract_y
_atom_site_fract_z
Si Si1 0.333950 0.001678 0.691879
Si Si2 0.700524 0.344581 0.034837
Si Si3 0.596073 0.595399 0.301885
Si Si4 0.816767 0.705996 0.824899
Si Si5 0.221966 0.446714 0.953300
Si Si6 0.402093 0.816099 0.647217
Si Si7 0.597496 0.877888 0.299857
O O1 0.250000 0.014019 0.750000
O O2 0.384841 0.058075 0.679322
O O3 0.398944 0.960629 0.742778
O O4 0.305129 0.972014 0.597248
O O5 0.772948 0.302575 0.073890
O O6 0.623786 0.343915 0.108390
O O7 0.743309 0.405604 0.032091
O O8 0.664573 0.329287 0.934294
O O9 0.500000 0.603334 0.339001
O O10 0.659888 0.589780 0.388464
O O11 0.622998 0.647537 0.237476
O O12 0.750000 0.729611 0.750000
O O13 0.892296 0.750895 0.830923
O O14 0.851920 0.646409 0.788955
O O15 0.173738 0.500000 0.000000
O O16 0.500000 0.828305 0.618572
O O17 0.500000 0.867799 0.279333
#
# Coordination Sequence:
#
# PCOD8262608 Si02
#       7
#    16  16  16  16  16  16  16
#     4  10  19  36  60  86 116 160 204 245 308 376
#     4  11  22  40  62  93 120 162 210 257 312 380
#     4  10  23  39  61  91 123 165 207 263 325 372
#     4  10  24  40  65  88 120 167 213 251 317 382
#     4  11  22  38  64  89 129 165 208 258 309 386
#     4  11  23  42  64  91 124 159 212 271 319 368
#     4  11  22  39  60  89 126 160 203 259 316 375
#
# _framework density 20.55387
#
# number of rings (size 3 to 8) (size 9 to 14) (size 15 to 20)
#    0.000    1.429    2.857    3.000    4.000    0.286 
#    0.000    2.143    0.000    0.000    0.000    0.000 
#    0.000    0.000    0.000    0.000    0.000    0.000 
#
# Total GULP energy -694296.155208 kJ/mol
# GULP energy per Si atom -12398.145629 kJ/mol
# Density = 2.050709 g / cm^3
# Si number density = 20.553870 Si / 1000 Ang^3
#
#
#
# Elastic Constant Matrix: (Units=GPa)
#
#
# Indices 1 2 3 4 5 6 
#
# 1 96.5645 35.5604 40.0162 0.0000 0.0000 0.0000
# 2 35.5604 91.9743 28.4498 0.0000 0.0000 0.0000
# 3 40.0162 28.4498 91.6515 0.0000 0.0000 0.0000
# 4 0.0000 0.0000 0.0000 26.9624 0.0000 0.0000
# 5 0.0000 0.0000 0.0000 0.0000 22.7077 0.0000
# 6 0.0000 0.0000 0.0000 0.0000 0.0000 29.9167
#
#
#
# Elastic Compliance Matrix: (Units=1/GPa)
#
#
# Indices 1 2 3 4 5 6 
#
# 1 0.013764 -0.003831 -0.004820 0.000000 0.000000 0.000000
# 2 -0.003831 0.013094 -0.002392 0.000000 0.000000 0.000000
# 3 -0.004820 -0.002392 0.013758 0.000000 0.000000 0.000000
# 4 0.000000 0.000000 0.000000 0.037089 0.000000 0.000000
# 5 0.000000 0.000000 0.000000 0.000000 0.044038 0.000000
# 6 0.000000 0.000000 0.000000 0.000000 0.000000 0.033426
#
#
# Mechanical properties :
#
#
# Convention : Reuss Voigt Hill
#
# Bulk Modulus (GPa) = 53.96755 54.24923 54.10839
# Shear Modulus (GPa) = 27.25824 27.66162 27.45993
#
# Velocity S-wave (km/s) = 3.64563 3.67251 3.65910
# Velocity P-wave (km/s) = 6.63585 6.66589 6.65089
#
# Compressibility (1/GPa) = 0.01852965
#
# Stress axis : x y z
#
# Youngs Moduli (GPa) = 72.65337 76.37377 72.68467
#
# Poissons Ratio (x) = 0.29255 0.35037
# Poissons Ratio (y) = 0.27830 0.17386
# Poissons Ratio (z) = 0.35022 0.18268
#
# Static dielectric constant tensor:
#      x y z
#    x 3.660210 0.000000 0.000000 
#    y 0.000000 3.748850 0.000000 
#    z 0.000000 0.000000 3.649710 
# 
# 
# High freq. dielectric constant tensor:
#      x y z
#    x 1.792890 0.000000 0.000000 
#    y 0.000000 1.810560 0.000000 
#    z 0.000000 0.000000 1.799090 
# 
# From -- ./inp_files/24271.got.cif
#   From: 2010.03.12/outbox.cif.g09.slc.cpg/sg64_13_cif.got.tgz:24271.got - 2010.04.10 20:19:32.
