data_PCOD8262042
_publ_section_title
;
Structure prediction by ZEFSAII (Michael W. Deem and Ramdas Pophale) SiO2 
 PCOD8262042
Probable space group: C M C A
;
_chemical_formula_sum "Si O2"
_cell_formula_units_Z 80
_cell_length_a 9.094300
_cell_length_b 25.050296
_cell_length_c 19.812365
_cell_angle_alpha 90.000000
_cell_angle_beta 90.000000
_cell_angle_gamma 90.000000
_cell_volume 4513.552088
_symmetry_space_group_name_H-M "C M C A"
_symmetry_group_IT_number 64
_symmetry_cell_setting 'orthorhombic'
loop_
_space_group_symop_operation_xyz
x,y,z
-x,1/2-y,1/2+z
x,-y,-z
-x,1/2+y,1/2-z
-x,-y,-z
x,1/2+y,1/2-z
-x,y,z
x,1/2-y,1/2+z
1/2+x,1/2+y,z
1/2-x,-y,1/2+z
1/2+x,1/2-y,-z
1/2-x,y,1/2-z
1/2-x,1/2-y,-z
1/2+x,y,1/2-z
1/2-x,1/2+y,z
1/2+x,-y,1/2+z
loop_
_atom_site_type_symbol
_atom_site_label
_atom_site_fract_x
_atom_site_fract_y
_atom_site_fract_z
Si Si1 0.667387 0.150166 0.600537
Si Si2 0.671209 0.474626 0.570514
Si Si3 0.170029 0.765362 0.567992
Si Si4 0.828503 0.063121 0.680734
Si Si5 0.172460 0.367275 0.555648
O O1 0.500000 0.131872 0.613037
O O2 0.684801 0.213572 0.616498
O O3 0.772340 0.119204 0.651502
O O4 0.712129 0.136858 0.523530
O O5 0.722418 0.500000 0.500000
O O6 0.500000 0.459311 0.568119
O O7 0.708535 0.516133 0.628984
O O8 0.765266 0.422033 0.585566
O O9 0.250000 0.750000 0.500000
O O10 0.249499 0.818500 0.596476
O O11 0.000000 0.778070 0.553273
O O12 0.750000 0.048495 0.750000
O O13 0.000000 0.068961 0.694142
O O14 0.000000 0.363730 0.568912
#
# Coordination Sequence:
#
# PCOD8262042 Si02
#       5
#    16  16  16  16  16
#     4   9  18  32  50  75 106 138 174 215 264 314
#     4  10  20  35  54  78 106 140 182 225 273 321
#     4   9  17  29  47  74 107 139 170 211 259 312
#     4  11  23  37  55  77 106 143 179 222 271 325
#     4  10  19  30  50  80 109 140 174 219 269 314
#
# _framework density 17.724398999999998
#
# number of rings (size 3 to 8) (size 9 to 14) (size 15 to 20)
#    0.000    2.200    2.000    3.000    0.000    6.000 
#    0.000    0.000    0.000    1.200    0.000    5.600 
#    0.000    0.000    0.000    0.000    0.000    0.000 
#
# Total GULP energy -495962.419417 kJ/mol
# GULP energy per Si atom -12399.060485 kJ/mol
# Density = 1.768406 g / cm^3
# Si number density = 17.724399 Si / 1000 Ang^3
#
#
#
# Elastic Constant Matrix: (Units=GPa)
#
#
# Indices 1 2 3 4 5 6 
#
# 1 112.6415 77.7926 47.1818 0.0000 0.0000 0.0000
# 2 77.7926 145.8103 43.1365 0.0000 0.0000 0.0000
# 3 47.1818 43.1365 75.1460 0.0000 0.0000 0.0000
# 4 0.0000 0.0000 0.0000 15.3128 0.0000 0.0000
# 5 0.0000 0.0000 0.0000 0.0000 24.5266 0.0000
# 6 0.0000 0.0000 0.0000 0.0000 0.0000 35.9315
#
#
#
# Elastic Compliance Matrix: (Units=1/GPa)
#
#
# Indices 1 2 3 4 5 6 
#
# 1 0.016188 -0.006781 -0.006271 0.000000 0.000000 0.000000
# 2 -0.006781 0.011102 -0.002115 0.000000 0.000000 0.000000
# 3 -0.006271 -0.002115 0.018459 0.000000 0.000000 0.000000
# 4 0.000000 0.000000 0.000000 0.065305 0.000000 0.000000
# 5 0.000000 0.000000 0.000000 0.000000 0.040772 0.000000
# 6 0.000000 0.000000 0.000000 0.000000 0.000000 0.027831
#
#
# Mechanical properties :
#
#
# Convention : Reuss Voigt Hill
#
# Bulk Modulus (GPa) = 64.87745 74.42441 69.65093
# Shear Modulus (GPa) = 23.24185 26.18663 24.71424
#
# Velocity S-wave (km/s) = 3.62510 3.84791 3.73817
# Velocity P-wave (km/s) = 7.36239 7.86275 7.61668
#
# Compressibility (1/GPa) = 0.01541368
#
# Stress axis : x y z
#
# Youngs Moduli (GPa) = 61.77509 90.07465 54.17398
#
# Poissons Ratio (x) = 0.61082 0.33973
# Poissons Ratio (y) = 0.41891 0.11459
# Poissons Ratio (z) = 0.38740 0.19052
#
# Static dielectric constant tensor:
#      x y z
#    x 3.406290 0.000000 0.000000 
#    y 0.000000 2.075740 0.000000 
#    z 0.000000 0.000000 2.818910 
# 
# 
# High freq. dielectric constant tensor:
#      x y z
#    x 1.698450 0.000000 0.000000 
#    y 0.000000 1.702770 0.000000 
#    z 0.000000 0.000000 1.631000 
# 
# From -- ./inp_files/29738.got.cif
#   From: 2010.03.12/outbox.cif.g09.slc.cpg/sg64_15_cif.got.tgz:29738.got - 2010.04.10 20:19:32.
