data_PCOD8262115
_publ_section_title
;
Structure prediction by ZEFSAII (Michael W. Deem and Ramdas Pophale) SiO2 
 PCOD8262115
Probable space group: C M C A
;
_chemical_formula_sum "Si O2"
_cell_formula_units_Z 96
_cell_length_a 23.735842
_cell_length_b 28.159110
_cell_length_c 8.310633
_cell_angle_alpha 90.000000
_cell_angle_beta 90.000000
_cell_angle_gamma 90.000000
_cell_volume 5554.662429
_symmetry_space_group_name_H-M "C M C A"
_symmetry_group_IT_number 64
_symmetry_cell_setting 'orthorhombic'
loop_
_space_group_symop_operation_xyz
x,y,z
-x,1/2-y,1/2+z
x,-y,-z
-x,1/2+y,1/2-z
-x,-y,-z
x,1/2+y,1/2-z
-x,y,z
x,1/2-y,1/2+z
1/2+x,1/2+y,z
1/2-x,-y,1/2+z
1/2+x,1/2-y,-z
1/2-x,y,1/2-z
1/2-x,1/2-y,-z
1/2+x,y,1/2-z
1/2-x,1/2+y,z
1/2+x,-y,1/2+z
loop_
_atom_site_type_symbol
_atom_site_label
_atom_site_fract_x
_atom_site_fract_y
_atom_site_fract_z
Si Si1 0.500000 0.045449 0.704158
Si Si2 0.813961 0.812924 0.700530
Si Si3 0.709315 0.222917 0.880140
Si Si4 0.000000 0.566807 0.340099
Si Si5 0.608455 0.454218 0.397045
Si Si6 0.382755 0.403387 0.711378
Si Si7 0.188969 0.010877 0.184136
O O1 0.500000 0.070662 0.531938
O O2 0.444192 0.063669 0.793071
O O3 0.500000 0.988554 0.703049
O O4 0.750000 0.827327 0.750000
O O5 0.823902 0.811222 0.503902
O O6 0.828950 0.762154 0.785498
O O7 0.857285 0.852580 0.761648
O O8 0.750000 0.195815 0.750000
O O9 0.750000 0.250000 0.000000
O O10 0.052595 0.594249 0.263950
O O11 0.589645 0.500000 0.500000
O O12 0.625255 0.412346 0.519914
O O13 0.661443 0.467045 0.282848
O O14 0.350250 0.443487 0.809161
O O15 0.250000 0.023326 0.250000
O O16 0.195444 0.000000 0.000000
#
# Coordination Sequence:
#
# PCOD8262115 Si02
#       7
#     8  16  16   8  16  16  16
#     4  11  18  35  52  71  91 136 186 218 250 281
#     4   9  17  32  54  79 104 129 161 203 252 307
#     4   7  13  29  52  75  97 128 158 191 241 303
#     4  11  21  32  55  72  97 132 180 222 248 291
#     4  10  19  31  50  71  96 133 171 210 251 290
#     4  11  21  33  51  76 100 132 169 215 255 291
#     4  11  21  34  47  67 102 140 171 201 251 304
#
# _framework density 17.282779000000001
#
# number of rings (size 3 to 8) (size 9 to 14) (size 15 to 20)
#    0.000    2.500    3.333    3.750    0.000    0.000 
#    0.000   12.500    0.000    2.000    0.000    0.000 
#    0.000    0.000    0.000    0.000    0.000    0.000 
#
# Total GULP energy -594752.299796 kJ/mol
# GULP energy per Si atom -12390.672912 kJ/mol
# Density = 1.724344 g / cm^3
# Si number density = 17.282779 Si / 1000 Ang^3
#
#
#
# Elastic Constant Matrix: (Units=GPa)
#
#
# Indices 1 2 3 4 5 6 
#
# 1 96.7053 30.4568 24.6697 0.0000 0.0000 0.0000
# 2 30.4568 57.4786 23.8843 0.0000 0.0000 0.0000
# 3 24.6697 23.8843 113.8571 0.0000 0.0000 0.0000
# 4 0.0000 0.0000 0.0000 73.1538 0.0000 0.0000
# 5 0.0000 0.0000 0.0000 0.0000 23.0409 0.0000
# 6 0.0000 0.0000 0.0000 0.0000 0.0000 -25.0957
#
#
#
# Elastic Compliance Matrix: (Units=1/GPa)
#
#
# Indices 1 2 3 4 5 6 
#
# 1 0.012630 -0.006086 -0.001460 0.000000 0.000000 0.000000
# 2 -0.006086 0.021991 -0.003295 0.000000 0.000000 0.000000
# 3 -0.001460 -0.003295 0.009790 0.000000 0.000000 0.000000
# 4 0.000000 0.000000 0.000000 0.013670 0.000000 0.000000
# 5 0.000000 0.000000 0.000000 0.000000 0.043401 0.000000
# 6 0.000000 0.000000 0.000000 0.000000 0.000000 -0.039847
#
#
# Mechanical properties :
#
#
# Convention : Reuss Voigt Hill
#
# Bulk Modulus (GPa) = 43.99233 47.34028 45.66630
# Shear Modulus (GPa) = 55.01003 26.82182 40.91593
#
# Velocity S-wave (km/s) = 5.64787 3.94374 4.87091
# Velocity P-wave (km/s) = 8.24870 6.94179 7.62330
#
# Compressibility (1/GPa) = 0.02273124
#
# Stress axis : x y z
#
# Youngs Moduli (GPa) = 79.17809 45.47221 102.14091
#
# Poissons Ratio (x) = 0.27673 0.14912
# Poissons Ratio (y) = 0.48185 0.33652
# Poissons Ratio (z) = 0.11559 0.14982
#
# Static dielectric constant tensor:
#      x y z
#    x 3.176880 0.000000 0.000000 
#    y 0.000000 3.244000 0.000000 
#    z 0.000000 0.000000 4.404650 
# 
# 
# High freq. dielectric constant tensor:
#      x y z
#    x 1.650120 0.000000 0.000000 
#    y 0.000000 1.620450 0.000000 
#    z 0.000000 0.000000 1.691180 
# 
# From -- ./inp_files/9633.got.cif
#   From: 2010.03.12/outbox.cif.g09.slc.cpg/sg64_5_cif.got.tgz:9633.got - 2010.04.10 20:19:32.
