data_PCOD8262163
_publ_section_title
;
Structure prediction by ZEFSAII (Michael W. Deem and Ramdas Pophale) SiO2 
 PCOD8262163
Probable space group: C M C A
;
_chemical_formula_sum "Si O2"
_cell_formula_units_Z 96
_cell_length_a 8.715087
_cell_length_b 23.514118
_cell_length_c 26.027086
_cell_angle_alpha 90.000000
_cell_angle_beta 90.000000
_cell_angle_gamma 90.000000
_cell_volume 5333.667855
_symmetry_space_group_name_H-M "C M C A"
_symmetry_group_IT_number 64
_symmetry_cell_setting 'orthorhombic'
loop_
_space_group_symop_operation_xyz
x,y,z
-x,1/2-y,1/2+z
x,-y,-z
-x,1/2+y,1/2-z
-x,-y,-z
x,1/2+y,1/2-z
-x,y,z
x,1/2-y,1/2+z
1/2+x,1/2+y,z
1/2-x,-y,1/2+z
1/2+x,1/2-y,-z
1/2-x,y,1/2-z
1/2-x,1/2-y,-z
1/2+x,y,1/2-z
1/2-x,1/2+y,z
1/2+x,-y,1/2+z
loop_
_atom_site_type_symbol
_atom_site_label
_atom_site_fract_x
_atom_site_fract_y
_atom_site_fract_z
Si Si1 0.326380 0.922667 0.608949
Si Si2 0.182381 0.835409 0.805255
Si Si3 0.681040 0.254047 0.123848
Si Si4 0.317791 0.850979 0.068635
Si Si5 0.323439 0.820950 0.536468
Si Si6 0.319152 0.978372 0.054460
O O1 0.500000 0.941695 0.619416
O O2 0.263808 0.886695 0.657457
O O3 0.314368 0.885008 0.557619
O O4 0.226862 0.979223 0.600488
O O5 0.250000 0.849336 0.750000
O O6 0.248146 0.775534 0.825672
O O7 0.000000 0.830789 0.804065
O O8 0.500000 0.256430 0.130001
O O9 0.748500 0.318061 0.118089
O O10 0.728494 0.219642 0.073450
O O11 0.500000 0.848150 0.069786
O O12 0.256419 0.915744 0.068440
O O13 0.255567 0.818263 0.018637
O O14 0.500000 0.800252 0.533742
O O15 0.500000 0.976078 0.049998
O O16 0.249365 0.000000 0.000000
#
# Coordination Sequence:
#
# PCOD8262163 Si02
#       6
#    16  16  16  16  16  16
#     4   9  19  33  52  78 108 139 177 221 263 313
#     4  10  21  39  61  86 108 134 172 219 275 325
#     4  11  22  35  52  76 105 139 177 221 269 318
#     4  11  21  33  49  72 107 146 182 221 263 316
#     4  10  19  32  49  73 105 142 180 219 262 315
#     4  10  20  33  50  75 107 146 187 222 261 312
#
# _framework density 17.998871000000001
#
# number of rings (size 3 to 8) (size 9 to 14) (size 15 to 20)
#    0.000    1.833    1.667    4.500    0.000    5.000 
#    0.000    0.000    0.000    1.000    0.000    2.333 
#    0.000    0.000    0.000    0.000    0.000    0.000 
#
# Total GULP energy -595224.393977 kJ/mol
# GULP energy per Si atom -12400.508208 kJ/mol
# Density = 1.795791 g / cm^3
# Si number density = 17.998871 Si / 1000 Ang^3
#
#
#
# Elastic Constant Matrix: (Units=GPa)
#
#
# Indices 1 2 3 4 5 6 
#
# 1 70.9035 25.6623 25.1219 0.0000 0.0000 0.0000
# 2 25.6623 100.4863 35.3260 0.0000 0.0000 0.0000
# 3 25.1219 35.3260 84.2836 0.0000 0.0000 0.0000
# 4 0.0000 0.0000 0.0000 17.8154 0.0000 0.0000
# 5 0.0000 0.0000 0.0000 0.0000 28.4861 0.0000
# 6 0.0000 0.0000 0.0000 0.0000 0.0000 29.5959
#
#
#
# Elastic Compliance Matrix: (Units=1/GPa)
#
#
# Indices 1 2 3 4 5 6 
#
# 1 0.016463 -0.002908 -0.003688 0.000000 0.000000 0.000000
# 2 -0.002908 0.012185 -0.004240 0.000000 0.000000 0.000000
# 3 -0.003688 -0.004240 0.014741 0.000000 0.000000 0.000000
# 4 0.000000 0.000000 0.000000 0.056131 0.000000 0.000000
# 5 0.000000 0.000000 0.000000 0.000000 0.035105 0.000000
# 6 0.000000 0.000000 0.000000 0.000000 0.000000 0.033788
#
#
# Mechanical properties :
#
#
# Convention : Reuss Voigt Hill
#
# Bulk Modulus (GPa) = 46.04826 47.54376 46.79601
# Shear Modulus (GPa) = 25.33887 26.48368 25.91127
#
# Velocity S-wave (km/s) = 3.75614 3.84005 3.79833
# Velocity P-wave (km/s) = 6.66716 6.79217 6.72995
#
# Compressibility (1/GPa) = 0.02171635
#
# Stress axis : x y z
#
# Youngs Moduli (GPa) = 60.74281 82.06884 67.83641
#
# Poissons Ratio (x) = 0.23863 0.25020
# Poissons Ratio (y) = 0.17662 0.28765
# Poissons Ratio (z) = 0.22404 0.34801
#
# Static dielectric constant tensor:
#      x y z
#    x 3.268000 0.000000 0.000000 
#    y 0.000000 3.526210 0.000000 
#    z 0.000000 0.000000 3.100640 
# 
# 
# High freq. dielectric constant tensor:
#      x y z
#    x 1.702750 0.000000 0.000000 
#    y 0.000000 1.700310 0.000000 
#    z 0.000000 0.000000 1.662980 
# 
# From -- ./inp_files/48374.got.cif
#   From: 2010.03.12/outbox.cif.g09.slc.cpg/sg64_25_cif.got.tgz:48374.got - 2010.04.10 20:19:32.
