data_PCOD8262394
_publ_section_title
;
Structure prediction by ZEFSAII (Michael W. Deem and Ramdas Pophale) SiO2 
 PCOD8262394
Probable space group: C M C A
;
_chemical_formula_sum "Si O2"
_cell_formula_units_Z 88
_cell_length_a 23.141575
_cell_length_b 14.645070
_cell_length_c 13.908710
_cell_angle_alpha 90.000000
_cell_angle_beta 90.000000
_cell_angle_gamma 90.000000
_cell_volume 4713.800708
_symmetry_space_group_name_H-M "C M C A"
_symmetry_group_IT_number 64
_symmetry_cell_setting 'orthorhombic'
loop_
_space_group_symop_operation_xyz
x,y,z
-x,1/2-y,1/2+z
x,-y,-z
-x,1/2+y,1/2-z
-x,-y,-z
x,1/2+y,1/2-z
-x,y,z
x,1/2-y,1/2+z
1/2+x,1/2+y,z
1/2-x,-y,1/2+z
1/2+x,1/2-y,-z
1/2-x,y,1/2-z
1/2-x,1/2-y,-z
1/2+x,y,1/2-z
1/2-x,1/2+y,z
1/2+x,-y,1/2+z
loop_
_atom_site_type_symbol
_atom_site_label
_atom_site_fract_x
_atom_site_fract_y
_atom_site_fract_z
Si Si1 0.750000 0.913779 0.750000
Si Si2 0.779375 0.947716 0.087228
Si Si3 0.641844 0.302295 0.804571
Si Si4 0.066258 0.899163 0.963545
Si Si5 0.629090 0.208783 0.617688
Si Si6 0.695636 0.191482 0.971473
O O1 0.692714 0.852102 0.754768
O O2 0.757686 0.977213 0.840510
O O3 0.820542 0.868738 0.130329
O O4 0.718777 0.910004 0.044500
O O5 0.812756 0.000000 0.000000
O O6 0.603346 0.372422 0.867975
O O7 0.607063 0.245541 0.721546
O O8 0.668503 0.226663 0.872981
O O9 0.000000 0.889948 0.932220
O O10 0.077339 0.833509 0.054921
O O11 0.081302 0.000000 0.000000
O O12 0.650655 0.297838 0.558583
O O13 0.750000 0.250000 0.000000
#
# Coordination Sequence:
#
# PCOD8262394 Si02
#       6
#     8  16  16  16  16  16
#     4  12  20  28  48  78 110 138 172 210 260 320
#     4  11  19  29  47  74 109 144 176 209 254 314
#     4  11  21  34  53  78 108 142 177 217 266 321
#     4  10  22  40  59  78 102 135 180 231 275 316
#     4  10  19  34  52  73 103 137 177 220 266 316
#     4   9  18  31  45  68 105 143 172 204 251 310
#
# _framework density 18.668588
#
# number of rings (size 3 to 8) (size 9 to 14) (size 15 to 20)
#    0.000    1.636    0.000    9.273    0.000    0.727 
#    0.000    0.000    0.000    0.000    0.000    0.000 
#    0.000   16.727    0.000    0.000    0.000    0.000 
#
# Total GULP energy -545111.273410 kJ/mol
# GULP energy per Si atom -12388.892578 kJ/mol
# Density = 1.862610 g / cm^3
# Si number density = 18.668588 Si / 1000 Ang^3
#
#
#
# Elastic Constant Matrix: (Units=GPa)
#
#
# Indices 1 2 3 4 5 6 
#
# 1 72.2002 20.8642 27.0844 0.0000 0.0000 0.0000
# 2 20.8642 66.6014 41.8345 0.0000 0.0000 0.0000
# 3 27.0844 41.8345 132.0641 0.0000 0.0000 0.0000
# 4 0.0000 0.0000 0.0000 43.8577 0.0000 0.0000
# 5 0.0000 0.0000 0.0000 0.0000 10.6862 0.0000
# 6 0.0000 0.0000 0.0000 0.0000 0.0000 23.3352
#
#
#
# Elastic Compliance Matrix: (Units=1/GPa)
#
#
# Indices 1 2 3 4 5 6 
#
# 1 0.015670 -0.003608 -0.002071 0.000000 0.000000 0.000000
# 2 -0.003608 0.019575 -0.005461 0.000000 0.000000 0.000000
# 3 -0.002071 -0.005461 0.009727 0.000000 0.000000 0.000000
# 4 0.000000 0.000000 0.000000 0.022801 0.000000 0.000000
# 5 0.000000 0.000000 0.000000 0.000000 0.093579 0.000000
# 6 0.000000 0.000000 0.000000 0.000000 0.000000 0.042854
#
#
# Mechanical properties :
#
#
# Convention : Reuss Voigt Hill
#
# Bulk Modulus (GPa) = 44.06830 50.04799 47.05814
# Shear Modulus (GPa) = 21.36306 27.64799 24.50552
#
# Velocity S-wave (km/s) = 3.38647 3.85254 3.62700
# Velocity P-wave (km/s) = 6.24081 6.83054 6.54232
#
# Compressibility (1/GPa) = 0.02269205
#
# Stress axis : x y z
#
# Youngs Moduli (GPa) = 63.81686 51.08496 102.81061
#
# Poissons Ratio (x) = 0.18433 0.21289
# Poissons Ratio (y) = 0.23027 0.56144
# Poissons Ratio (z) = 0.13214 0.27897
#
# Static dielectric constant tensor:
#      x y z
#    x 3.751530 0.000000 0.000000 
#    y 0.000000 -44.769550 0.000000 
#    z 0.000000 0.000000 3.654630 
# 
# 
# High freq. dielectric constant tensor:
#      x y z
#    x 1.686370 0.000000 0.000000 
#    y 0.000000 1.728320 0.000000 
#    z 0.000000 0.000000 1.738690 
# 
# From -- ./inp_files/18209.got.cif
#   From: 2010.03.12/outbox.cif.g09.slc.cpg/sg64_10_cif.got.tgz:18209.got - 2010.04.10 20:19:32.
