data_PCOD8262143
_publ_section_title
;
Structure prediction by ZEFSAII (Michael W. Deem and Ramdas Pophale) SiO2 
 PCOD8262143
Probable space group: C M C A
;
_chemical_formula_sum "Si O2"
_cell_formula_units_Z 80
_cell_length_a 8.794931
_cell_length_b 25.177869
_cell_length_c 19.935710
_cell_angle_alpha 90.000000
_cell_angle_beta 90.000000
_cell_angle_gamma 90.000000
_cell_volume 4414.516187
_symmetry_space_group_name_H-M "C M C A"
_symmetry_group_IT_number 64
_symmetry_cell_setting 'orthorhombic'
loop_
_space_group_symop_operation_xyz
x,y,z
-x,1/2-y,1/2+z
x,-y,-z
-x,1/2+y,1/2-z
-x,-y,-z
x,1/2+y,1/2-z
-x,y,z
x,1/2-y,1/2+z
1/2+x,1/2+y,z
1/2-x,-y,1/2+z
1/2+x,1/2-y,-z
1/2-x,y,1/2-z
1/2-x,1/2-y,-z
1/2+x,y,1/2-z
1/2-x,1/2+y,z
1/2+x,-y,1/2+z
loop_
_atom_site_type_symbol
_atom_site_label
_atom_site_fract_x
_atom_site_fract_y
_atom_site_fract_z
Si Si1 0.179349 0.878056 0.549603
Si Si2 0.173337 0.095783 0.911497
Si Si3 0.831952 0.492326 0.920797
Si Si4 0.824083 0.694112 0.677943
Si Si5 0.320249 0.230362 0.430731
O O1 0.222611 0.882790 0.471461
O O2 0.224000 0.931663 0.590882
O O3 0.269344 0.829968 0.583802
O O4 0.000000 0.867570 0.553088
O O5 0.194841 0.133968 0.848028
O O6 0.000000 0.095225 0.936801
O O7 0.220454 0.036133 0.888520
O O8 0.000000 0.500554 0.889957
O O9 0.838404 0.500000 0.000000
O O10 0.750000 0.698263 0.750000
O O11 0.737026 0.734091 0.629757
O O12 0.000000 0.710701 0.681221
O O13 0.500000 0.233774 0.436450
O O14 0.250000 0.250000 0.500000
#
# Coordination Sequence:
#
# PCOD8262143 Si02
#       5
#    16  16  16  16  16
#     4  10  19  32  52  79 111 145 181 226 279 332
#     4  10  19  31  51  78 109 142 180 226 276 331
#     4   8  16  29  47  74 107 141 175 215 268 323
#     4  11  24  40  57  81 112 149 190 232 283 341
#     4  12  23  36  57  83 112 148 188 236 285 337
#
# _framework density 18.122032000000001
#
# number of rings (size 3 to 8) (size 9 to 14) (size 15 to 20)
#    0.000    1.800    2.000    4.800    0.000    6.800 
#    0.000    0.000    0.000    1.200    0.000    2.800 
#    0.000    0.000    0.000    0.000    0.000    0.000 
#
# Total GULP energy -495955.775387 kJ/mol
# GULP energy per Si atom -12398.894385 kJ/mol
# Density = 1.808079 g / cm^3
# Si number density = 18.122032 Si / 1000 Ang^3
#
#
#
# Elastic Constant Matrix: (Units=GPa)
#
#
# Indices 1 2 3 4 5 6 
#
# 1 137.9390 74.8682 49.4609 0.0000 0.0000 0.0000
# 2 74.8682 156.5976 50.8796 0.0000 0.0000 0.0000
# 3 49.4609 50.8796 80.7797 0.0000 0.0000 0.0000
# 4 0.0000 0.0000 0.0000 29.2524 0.0000 0.0000
# 5 0.0000 0.0000 0.0000 0.0000 25.0261 0.0000
# 6 0.0000 0.0000 0.0000 0.0000 0.0000 36.8892
#
#
#
# Elastic Compliance Matrix: (Units=1/GPa)
#
#
# Indices 1 2 3 4 5 6 
#
# 1 0.010833 -0.003802 -0.004238 0.000000 0.000000 0.000000
# 2 -0.003802 0.009363 -0.003570 0.000000 0.000000 0.000000
# 3 -0.004238 -0.003570 0.017223 0.000000 0.000000 0.000000
# 4 0.000000 0.000000 0.000000 0.034185 0.000000 0.000000
# 5 0.000000 0.000000 0.000000 0.000000 0.039958 0.000000
# 6 0.000000 0.000000 0.000000 0.000000 0.000000 0.027108
#
#
# Mechanical properties :
#
#
# Convention : Reuss Voigt Hill
#
# Bulk Modulus (GPa) = 70.42611 80.63706 75.53159
# Shear Modulus (GPa) = 30.00782 31.57405 30.79094
#
# Velocity S-wave (km/s) = 4.07366 4.17862 4.12647
# Velocity P-wave (km/s) = 7.81491 8.23859 8.02955
#
# Compressibility (1/GPa) = 0.01419928
#
# Stress axis : x y z
#
# Youngs Moduli (GPa) = 92.31133 106.79952 58.06319
#
# Poissons Ratio (x) = 0.40607 0.24608
# Poissons Ratio (y) = 0.35098 0.20726
# Poissons Ratio (z) = 0.39123 0.38122
#
# Static dielectric constant tensor:
#      x y z
#    x 3.526630 0.000000 0.000000 
#    y 0.000000 4.166090 0.000000 
#    z 0.000000 0.000000 2.977530 
# 
# 
# High freq. dielectric constant tensor:
#      x y z
#    x 1.717030 0.000000 0.000000 
#    y 0.000000 1.724730 0.000000 
#    z 0.000000 0.000000 1.644090 
# 
# From -- ./inp_files/29722.got.cif
#   From: 2010.03.12/outbox.cif.g09.slc.cpg/sg64_15_cif.got.tgz:29722.got - 2010.04.10 20:19:32.
