data_PCOD8262219
_publ_section_title
;
Structure prediction by ZEFSAII (Michael W. Deem and Ramdas Pophale) SiO2 
 PCOD8262219
Probable space group: C M C A
;
_chemical_formula_sum "Si O2"
_cell_formula_units_Z 80
_cell_length_a 11.499710
_cell_length_b 13.183451
_cell_length_c 25.902012
_cell_angle_alpha 90.000000
_cell_angle_beta 90.000000
_cell_angle_gamma 90.000000
_cell_volume 3926.896890
_symmetry_space_group_name_H-M "C M C A"
_symmetry_group_IT_number 64
_symmetry_cell_setting 'orthorhombic'
loop_
_space_group_symop_operation_xyz
x,y,z
-x,1/2-y,1/2+z
x,-y,-z
-x,1/2+y,1/2-z
-x,-y,-z
x,1/2+y,1/2-z
-x,y,z
x,1/2-y,1/2+z
1/2+x,1/2+y,z
1/2-x,-y,1/2+z
1/2+x,1/2-y,-z
1/2-x,y,1/2-z
1/2-x,1/2-y,-z
1/2+x,y,1/2-z
1/2-x,1/2+y,z
1/2+x,-y,1/2+z
loop_
_atom_site_type_symbol
_atom_site_label
_atom_site_fract_x
_atom_site_fract_y
_atom_site_fract_z
Si Si1 0.626247 0.356779 0.465719
Si Si2 0.265290 0.336357 0.934885
Si Si3 0.369179 0.209698 0.644578
Si Si4 0.133036 0.606229 0.216050
Si Si5 0.778901 0.520993 0.873130
O O1 0.500000 0.377639 0.489216
O O2 0.628409 0.239962 0.445387
O O3 0.719351 0.378070 0.510382
O O4 0.643735 0.432820 0.418426
O O5 0.166528 0.268305 0.907342
O O6 0.300622 0.430599 0.898130
O O7 0.500000 0.175112 0.637050
O O8 0.352794 0.279838 0.694804
O O9 0.298875 0.106366 0.653699
O O10 0.250000 0.585180 0.250000
O O11 0.135236 0.525416 0.169581
O O12 0.000000 0.596072 0.241156
#
# Coordination Sequence:
#
# PCOD8262219 Si02
#       5
#    16  16  16  16  16
#     4  10  19  32  52  78 110 148 185 220 261 317
#     4   9  19  33  50  78 113 146 182 221 266 320
#     4   9  19  36  56  79 110 145 181 226 279 333
#     4  10  22  41  61  82 110 144 183 231 288 344
#     4  10  20  35  56  83 110 140 182 229 274 325
#
# _framework density 20.372320999999999
#
# number of rings (size 3 to 8) (size 9 to 14) (size 15 to 20)
#    0.000    2.400    0.000    1.800    0.000    5.600 
#    0.000   11.000    0.000    7.200    0.000    0.000 
#    0.000    0.000    0.000    0.000    0.000    0.000 
#
# Total GULP energy -495574.501854 kJ/mol
# GULP energy per Si atom -12389.362546 kJ/mol
# Density = 2.032595 g / cm^3
# Si number density = 20.372321 Si / 1000 Ang^3
#
#
#
# Elastic Constant Matrix: (Units=GPa)
#
#
# Indices 1 2 3 4 5 6 
#
# 1 96.6682 34.0889 29.6483 0.0000 0.0000 0.0000
# 2 34.0889 115.3480 25.6717 0.0000 0.0000 0.0000
# 3 29.6483 25.6717 66.2358 0.0000 0.0000 0.0000
# 4 0.0000 0.0000 0.0000 28.8410 0.0000 0.0000
# 5 0.0000 0.0000 0.0000 0.0000 20.2097 0.0000
# 6 0.0000 0.0000 0.0000 0.0000 0.0000 13.7544
#
#
#
# Elastic Compliance Matrix: (Units=1/GPa)
#
#
# Indices 1 2 3 4 5 6 
#
# 1 0.012730 -0.002729 -0.004640 0.000000 0.000000 0.000000
# 2 -0.002729 0.010073 -0.002682 0.000000 0.000000 0.000000
# 3 -0.004640 -0.002682 0.018214 0.000000 0.000000 0.000000
# 4 0.000000 0.000000 0.000000 0.034673 0.000000 0.000000
# 5 0.000000 0.000000 0.000000 0.000000 0.049481 0.000000
# 6 0.000000 0.000000 0.000000 0.000000 0.000000 0.072704
#
#
# Mechanical properties :
#
#
# Convention : Reuss Voigt Hill
#
# Bulk Modulus (GPa) = 47.81661 50.78553 49.30107
# Shear Modulus (GPa) = 22.22702 25.15055 23.68879
#
# Velocity S-wave (km/s) = 3.30667 3.51742 3.41367
# Velocity P-wave (km/s) = 6.17261 6.44043 6.30794
#
# Compressibility (1/GPa) = 0.02091324
#
# Stress axis : x y z
#
# Youngs Moduli (GPa) = 78.55202 99.27491 54.90174
#
# Poissons Ratio (x) = 0.27097 0.25477
# Poissons Ratio (y) = 0.21440 0.14727
# Poissons Ratio (z) = 0.36452 0.26629
#
# Static dielectric constant tensor:
#      x y z
#    x 3.496760 0.000000 0.000000 
#    y 0.000000 3.962160 0.000000 
#    z 0.000000 0.000000 3.576610 
# 
# 
# High freq. dielectric constant tensor:
#      x y z
#    x 1.773280 0.000000 0.000000 
#    y 0.000000 1.811180 0.000000 
#    z 0.000000 0.000000 1.782930 
# 
# From -- ./inp_files/49161.got.cif
#   From: 2010.03.12/outbox.cif.g09.slc.cpg/sg64_25_cif.got.tgz:49161.got - 2010.04.10 20:19:32.
