data_PCOD8262294
_publ_section_title
;
Structure prediction by ZEFSAII (Michael W. Deem and Ramdas Pophale) SiO2 
 PCOD8262294
Probable space group: C M C A
;
_chemical_formula_sum "Si O2"
_cell_formula_units_Z 96
_cell_length_a 8.886514
_cell_length_b 23.002400
_cell_length_c 25.420037
_cell_angle_alpha 90.000000
_cell_angle_beta 90.000000
_cell_angle_gamma 90.000000
_cell_volume 5196.138987
_symmetry_space_group_name_H-M "C M C A"
_symmetry_group_IT_number 64
_symmetry_cell_setting 'orthorhombic'
loop_
_space_group_symop_operation_xyz
x,y,z
-x,1/2-y,1/2+z
x,-y,-z
-x,1/2+y,1/2-z
-x,-y,-z
x,1/2+y,1/2-z
-x,y,z
x,1/2-y,1/2+z
1/2+x,1/2+y,z
1/2-x,-y,1/2+z
1/2+x,1/2-y,-z
1/2-x,y,1/2-z
1/2-x,1/2-y,-z
1/2+x,y,1/2-z
1/2-x,1/2+y,z
1/2+x,-y,1/2+z
loop_
_atom_site_type_symbol
_atom_site_label
_atom_site_fract_x
_atom_site_fract_y
_atom_site_fract_z
Si Si1 0.332987 0.367903 0.599020
Si Si2 0.178677 0.685104 0.305134
Si Si3 0.676266 0.932785 0.502530
Si Si4 0.833709 0.757759 0.053331
Si Si5 0.826461 0.864744 0.409431
Si Si6 0.674268 0.317176 0.302931
O O1 0.500000 0.394247 0.610055
O O2 0.236027 0.362570 0.652202
O O3 0.254226 0.405693 0.553667
O O4 0.353488 0.303166 0.579992
O O5 0.250000 0.665568 0.250000
O O6 0.232808 0.751682 0.317917
O O7 0.000000 0.680180 0.302683
O O8 0.500000 0.922271 0.508310
O O9 0.728819 0.905851 0.446816
O O10 0.719224 0.000000 0.500000
O O11 0.721439 0.798108 0.085260
O O12 0.000000 0.786336 0.045786
O O13 0.750000 0.750000 0.000000
O O14 0.798126 0.868738 0.346413
O O15 0.000000 0.874038 0.424883
O O16 0.500000 0.310429 0.291355
O O17 0.750000 0.340435 0.250000
#
# Coordination Sequence:
#
# PCOD8262294 Si02
#       6
#    16  16  16  16  16  16
#     4  11  22  35  55  82 112 148 185 225 277 333
#     4  10  19  33  52  79 117 153 186 223 266 325
#     4  11  25  42  59  80 106 142 187 236 287 334
#     4  11  21  31  49  79 113 146 180 219 272 335
#     4  11  21  35  55  81 112 147 183 224 276 330
#     4   9  19  32  50  78 113 149 182 216 261 319
#
# _framework density 18.475256999999999
#
# number of rings (size 3 to 8) (size 9 to 14) (size 15 to 20)
#    0.000    1.500    3.333    2.500    0.000    4.667 
#    0.000    0.000    0.000    1.000    0.000    2.333 
#    0.000    0.000    0.000    0.000    0.000    0.000 
#
# Total GULP energy -594687.253058 kJ/mol
# GULP energy per Si atom -12389.317772 kJ/mol
# Density = 1.843321 g / cm^3
# Si number density = 18.475257 Si / 1000 Ang^3
#
#
#
# Elastic Constant Matrix: (Units=GPa)
#
#
# Indices 1 2 3 4 5 6 
#
# 1 77.7400 34.8410 64.9214 0.0000 0.0000 0.0000
# 2 34.8410 73.6203 47.8779 0.0000 0.0000 0.0000
# 3 64.9214 47.8779 140.8944 0.0000 0.0000 0.0000
# 4 0.0000 0.0000 0.0000 5.4992 0.0000 0.0000
# 5 0.0000 0.0000 0.0000 0.0000 33.6245 0.0000
# 6 0.0000 0.0000 0.0000 0.0000 0.0000 20.5032
#
#
#
# Elastic Compliance Matrix: (Units=1/GPa)
#
#
# Indices 1 2 3 4 5 6 
#
# 1 0.022233 -0.004954 -0.008561 0.000000 0.000000 0.000000
# 2 -0.004954 0.018541 -0.004017 0.000000 0.000000 0.000000
# 3 -0.008561 -0.004017 0.012407 0.000000 0.000000 0.000000
# 4 0.000000 0.000000 0.000000 0.181844 0.000000 0.000000
# 5 0.000000 0.000000 0.000000 0.000000 0.029740 0.000000
# 6 0.000000 0.000000 0.000000 0.000000 0.000000 0.048773
#
#
# Mechanical properties :
#
#
# Convention : Reuss Voigt Hill
#
# Bulk Modulus (GPa) = 55.20142 65.28169 60.24155
# Shear Modulus (GPa) = 14.09869 21.56634 17.83252
#
# Velocity S-wave (km/s) = 2.76545 3.42030 3.11015
# Velocity P-wave (km/s) = 6.33564 7.14208 6.75091
#
# Compressibility (1/GPa) = 0.01811548
#
# Stress axis : x y z
#
# Youngs Moduli (GPa) = 44.97776 53.93576 80.59655
#
# Poissons Ratio (x) = 0.26722 0.68999
# Poissons Ratio (y) = 0.22284 0.32380
# Poissons Ratio (z) = 0.38506 0.21669
#
# Static dielectric constant tensor:
#      x y z
#    x 3.656860 0.000000 0.000000 
#    y 0.000000 3.100450 0.000000 
#    z 0.000000 0.000000 3.556950 
# 
# 
# High freq. dielectric constant tensor:
#      x y z
#    x 1.733840 0.000000 0.000000 
#    y 0.000000 1.667920 0.000000 
#    z 0.000000 0.000000 1.729980 
# 
# From -- ./inp_files/43032.got.cif
#   From: 2010.03.12/outbox.cif.g09.slc.cpg/sg64_22_cif.got.tgz:43032.got - 2010.04.10 20:19:32.
