data_PCOD8262585
_publ_section_title
;
Structure prediction by ZEFSAII (Michael W. Deem and Ramdas Pophale) SiO2 
 PCOD8262585
Probable space group: C M C A
;
_chemical_formula_sum "Si O2"
_cell_formula_units_Z 96
_cell_length_a 8.639270
_cell_length_b 23.494289
_cell_length_c 25.623409
_cell_angle_alpha 90.000000
_cell_angle_beta 90.000000
_cell_angle_gamma 90.000000
_cell_volume 5200.873164
_symmetry_space_group_name_H-M "C M C A"
_symmetry_group_IT_number 64
_symmetry_cell_setting 'orthorhombic'
loop_
_space_group_symop_operation_xyz
x,y,z
-x,1/2-y,1/2+z
x,-y,-z
-x,1/2+y,1/2-z
-x,-y,-z
x,1/2+y,1/2-z
-x,y,z
x,1/2-y,1/2+z
1/2+x,1/2+y,z
1/2-x,-y,1/2+z
1/2+x,1/2-y,-z
1/2-x,y,1/2-z
1/2-x,1/2-y,-z
1/2+x,y,1/2-z
1/2-x,1/2+y,z
1/2+x,-y,1/2+z
loop_
_atom_site_type_symbol
_atom_site_label
_atom_site_fract_x
_atom_site_fract_y
_atom_site_fract_z
Si Si1 0.181951 0.186729 0.804184
Si Si2 0.817857 0.499065 0.558266
Si Si3 0.682975 0.119891 0.400967
Si Si4 0.317633 0.687635 0.496934
Si Si5 0.682632 0.184652 0.195433
Si Si6 0.317642 0.622595 0.907243
O O1 0.250000 0.163146 0.750000
O O2 0.241856 0.250887 0.815719
O O3 0.234801 0.145360 0.850777
O O4 0.000000 0.186698 0.798557
O O5 0.744000 0.500000 0.500000
O O6 0.755917 0.444573 0.590100
O O7 0.774697 0.555993 0.589837
O O8 0.000000 0.492537 0.551960
O O9 0.500000 0.122904 0.394551
O O10 0.732174 0.157014 0.449923
O O11 0.760418 0.142585 0.348911
O O12 0.500000 0.689484 0.486267
O O13 0.250000 0.750000 0.500000
O O14 0.282353 0.655508 0.550374
O O15 0.500000 0.182804 0.197959
O O16 0.750000 0.162433 0.250000
O O17 0.500000 0.633095 0.917655
#
# Coordination Sequence:
#
# PCOD8262585 Si02
#       6
#    16  16  16  16  16  16
#     4   9  19  34  56  80 107 141 178 225 277 332
#     4   9  17  33  57  81 109 151 191 222 269 336
#     4  11  21  36  58  83 112 149 189 230 278 336
#     4  12  24  36  53  81 113 145 181 230 285 339
#     4  10  20  36  56  82 112 146 188 234 287 340
#     4  10  19  36  58  81 110 146 187 228 275 332
#
# _framework density 18.458438999999998
#
# number of rings (size 3 to 8) (size 9 to 14) (size 15 to 20)
#    0.000    1.833    1.667    3.500    0.000    2.667 
#    0.000    3.333    0.000    2.000    0.000    0.000 
#    0.000    0.000    0.000    0.000    0.000    0.000 
#
# Total GULP energy -595272.745994 kJ/mol
# GULP energy per Si atom -12401.515542 kJ/mol
# Density = 1.841643 g / cm^3
# Si number density = 18.458439 Si / 1000 Ang^3
#
#
#
# Elastic Constant Matrix: (Units=GPa)
#
#
# Indices 1 2 3 4 5 6 
#
# 1 28.0787 9.1030 14.2408 0.0000 0.0000 0.0000
# 2 9.1030 133.0458 73.2265 0.0000 0.0000 0.0000
# 3 14.2408 73.2265 155.7569 0.0000 0.0000 0.0000
# 4 0.0000 0.0000 0.0000 58.3900 0.0000 0.0000
# 5 0.0000 0.0000 0.0000 0.0000 34.0935 0.0000
# 6 0.0000 0.0000 0.0000 0.0000 0.0000 18.7012
#
#
#
# Elastic Compliance Matrix: (Units=1/GPa)
#
#
# Indices 1 2 3 4 5 6 
#
# 1 0.037428 -0.000914 -0.002992 0.000000 0.000000 0.000000
# 2 -0.000914 0.010162 -0.004694 0.000000 0.000000 0.000000
# 3 -0.002992 -0.004694 0.008901 0.000000 0.000000 0.000000
# 4 0.000000 0.000000 0.000000 0.017126 0.000000 0.000000
# 5 0.000000 0.000000 0.000000 0.000000 0.029331 0.000000
# 6 0.000000 0.000000 0.000000 0.000000 0.000000 0.053473
#
#
# Mechanical properties :
#
#
# Convention : Reuss Voigt Hill
#
# Bulk Modulus (GPa) = 25.45153 56.66912 41.06032
# Shear Modulus (GPa) = 26.77829 36.92433 31.85131
#
# Velocity S-wave (km/s) = 3.81298 4.47744 4.15850
# Velocity P-wave (km/s) = 5.76226 7.58271 6.73428
#
# Compressibility (1/GPa) = 0.03929038
#
# Stress axis : x y z
#
# Youngs Moduli (GPa) = 26.71791 98.40308 112.35074
#
# Poissons Ratio (x) = 0.08993 0.33620
# Poissons Ratio (y) = 0.02442 0.52738
# Poissons Ratio (z) = 0.07995 0.46191
#
# Static dielectric constant tensor:
#      x y z
#    x 3.276610 0.000000 0.000000 
#    y 0.000000 3.671660 0.000000 
#    z 0.000000 0.000000 3.065400 
# 
# 
# High freq. dielectric constant tensor:
#      x y z
#    x 1.704250 0.000000 0.000000 
#    y 0.000000 1.719050 0.000000 
#    z 0.000000 0.000000 1.720470 
# 
# From -- ./inp_files/43001.got.cif
#   From: 2010.03.12/outbox.cif.g09.slc.cpg/sg64_22_cif.got.tgz:43001.got - 2010.04.10 20:19:32.
