data_PCOD8262724
_publ_section_title
;
Structure prediction by ZEFSAII (Michael W. Deem and Ramdas Pophale) SiO2 
 PCOD8262724
Probable space group: C M C A
;
_chemical_formula_sum "Si O2"
_cell_formula_units_Z 72
_cell_length_a 9.184263
_cell_length_b 21.616022
_cell_length_c 21.618892
_cell_angle_alpha 90.000000
_cell_angle_beta 90.000000
_cell_angle_gamma 90.000000
_cell_volume 4291.938767
_symmetry_space_group_name_H-M "C M C A"
_symmetry_group_IT_number 64
_symmetry_cell_setting 'orthorhombic'
loop_
_space_group_symop_operation_xyz
x,y,z
-x,1/2-y,1/2+z
x,-y,-z
-x,1/2+y,1/2-z
-x,-y,-z
x,1/2+y,1/2-z
-x,y,z
x,1/2-y,1/2+z
1/2+x,1/2+y,z
1/2-x,-y,1/2+z
1/2+x,1/2-y,-z
1/2-x,y,1/2-z
1/2-x,1/2-y,-z
1/2+x,y,1/2-z
1/2-x,1/2+y,z
1/2+x,-y,1/2+z
loop_
_atom_site_type_symbol
_atom_site_label
_atom_site_fract_x
_atom_site_fract_y
_atom_site_fract_z
Si Si1 0.672160 0.503597 0.685010
Si Si2 0.672184 0.815053 0.503604
Si Si3 0.250249 0.000000 0.000000
Si Si4 0.340007 0.097766 0.088079
Si Si5 0.660119 0.911851 0.402198
O O1 0.500000 0.510151 0.693101
O O2 0.750000 0.498353 0.750000
O O3 0.713167 0.440117 0.648708
O O4 0.727417 0.566277 0.650639
O O5 0.500000 0.806989 0.509781
O O6 0.750000 0.750000 0.500000
O O7 0.726885 0.849703 0.566172
O O8 0.713559 0.851145 0.439995
O O9 0.143695 0.966789 0.048238
O O10 0.356893 0.048207 0.033165
O O11 0.500000 0.127357 0.099439
O O12 0.500000 0.900431 0.372830
#
# Coordination Sequence:
#
# PCOD8262724 Si02
#       5
#    16  16   8  16  16
#     4  10  20  32  49  72  98 129 160 195 238 282
#     4  10  20  32  49  72  98 129 160 195 238 282
#     4   8  14  24  44  70  94 120 148 186 238 288
#     4   9  17  29  46  69  96 124 156 194 236 282
#     4   9  17  29  46  69  96 124 156 194 236 282
#
# _framework density 16.775635000000001
#
# number of rings (size 3 to 8) (size 9 to 14) (size 15 to 20)
#    0.000    2.667    0.000    2.000    0.000   12.444 
#    0.000    0.000    0.000    1.333    0.000    6.222 
#    0.000    0.000    0.000    0.000    0.000    0.000 
#
# Total GULP energy -446015.222286 kJ/mol
# GULP energy per Si atom -12389.311730 kJ/mol
# Density = 1.673745 g / cm^3
# Si number density = 16.775635 Si / 1000 Ang^3
#
#
#
# Elastic Constant Matrix: (Units=GPa)
#
#
# Indices 1 2 3 4 5 6 
#
# 1 108.7672 58.7452 58.9906 0.0000 0.0000 0.0000
# 2 58.7452 107.6785 50.0601 0.0000 0.0000 0.0000
# 3 58.9906 50.0601 108.0918 0.0000 0.0000 0.0000
# 4 0.0000 0.0000 0.0000 18.8053 0.0000 0.0000
# 5 0.0000 0.0000 0.0000 0.0000 24.4763 0.0000
# 6 0.0000 0.0000 0.0000 0.0000 0.0000 23.8876
#
#
#
# Elastic Compliance Matrix: (Units=1/GPa)
#
#
# Indices 1 2 3 4 5 6 
#
# 1 0.015412 -0.005732 -0.005756 0.000000 0.000000 0.000000
# 2 -0.005732 0.013967 -0.003340 0.000000 0.000000 0.000000
# 3 -0.005756 -0.003340 0.013940 0.000000 0.000000 0.000000
# 4 0.000000 0.000000 0.000000 0.053177 0.000000 0.000000
# 5 0.000000 0.000000 0.000000 0.000000 0.040856 0.000000
# 6 0.000000 0.000000 0.000000 0.000000 0.000000 0.041863
#
#
# Mechanical properties :
#
#
# Convention : Reuss Voigt Hill
#
# Bulk Modulus (GPa) = 73.19828 73.34771 73.27299
# Shear Modulus (GPa) = 23.42750 23.88327 23.65538
#
# Velocity S-wave (km/s) = 3.74106 3.77727 3.75921
# Velocity P-wave (km/s) = 7.89868 7.92726 7.91298
#
# Compressibility (1/GPa) = 0.01366152
#
# Stress axis : x y z
#
# Youngs Moduli (GPa) = 64.88569 71.59771 71.73699
#
# Poissons Ratio (x) = 0.41039 0.41294
# Poissons Ratio (y) = 0.37192 0.23962
# Poissons Ratio (z) = 0.37350 0.23916
#
# Static dielectric constant tensor:
#      x y z
#    x 3.115210 0.000000 0.000000 
#    y 0.000000 3.069960 0.000000 
#    z 0.000000 0.000000 3.074460 
# 
# 
# High freq. dielectric constant tensor:
#      x y z
#    x 1.654870 0.000000 0.000000 
#    y 0.000000 1.624640 0.000000 
#    z 0.000000 0.000000 1.624610 
# 
# From -- ./inp_files/36510.got.cif
#   From: 2010.03.12/outbox.cif.g09.slc.cpg/sg64_19_cif.got.tgz:36510.got - 2010.04.10 20:19:32.
