data_PCOD8262248
_publ_section_title
;
Structure prediction by ZEFSAII (Michael W. Deem and Ramdas Pophale) SiO2 
 PCOD8262248
Probable space group: C M C A
;
_chemical_formula_sum "Si O2"
_cell_formula_units_Z 96
_cell_length_a 9.489310
_cell_length_b 24.155880
_cell_length_c 20.971511
_cell_angle_alpha 90.000000
_cell_angle_beta 90.000000
_cell_angle_gamma 90.000000
_cell_volume 4807.144983
_symmetry_space_group_name_H-M "C M C A"
_symmetry_group_IT_number 64
_symmetry_cell_setting 'orthorhombic'
loop_
_space_group_symop_operation_xyz
x,y,z
-x,1/2-y,1/2+z
x,-y,-z
-x,1/2+y,1/2-z
-x,-y,-z
x,1/2+y,1/2-z
-x,y,z
x,1/2-y,1/2+z
1/2+x,1/2+y,z
1/2-x,-y,1/2+z
1/2+x,1/2-y,-z
1/2-x,y,1/2-z
1/2-x,1/2-y,-z
1/2+x,y,1/2-z
1/2-x,1/2+y,z
1/2+x,-y,1/2+z
loop_
_atom_site_type_symbol
_atom_site_label
_atom_site_fract_x
_atom_site_fract_y
_atom_site_fract_z
Si Si1 0.665414 0.448464 0.310427
Si Si2 0.341230 0.930548 0.853463
Si Si3 0.164580 0.744740 0.565991
Si Si4 0.843224 0.878566 0.096156
Si Si5 0.838789 0.689005 0.189976
Si Si6 0.342477 0.943645 0.528102
O O1 0.500000 0.437144 0.302633
O O2 0.750000 0.425379 0.250000
O O3 0.701007 0.513433 0.316970
O O4 0.723421 0.414567 0.370240
O O5 0.500000 0.935783 0.878965
O O6 0.324095 0.877589 0.807998
O O7 0.244198 0.920541 0.913615
O O8 0.250000 0.750000 0.500000
O O9 0.194156 0.685851 0.599226
O O10 0.213420 0.788390 0.620770
O O11 0.000000 0.752560 0.549050
O O12 0.000000 0.890096 0.125097
O O13 0.842745 0.894602 0.022342
O O14 0.750000 0.712828 0.250000
O O15 0.000000 0.707714 0.200391
O O16 0.500000 0.957899 0.552143
O O17 0.274160 0.000000 0.500000
#
# Coordination Sequence:
#
# PCOD8262248 Si02
#       6
#    16  16  16  16  16  16
#     4  11  23  37  55  80 110 148 187 228 280 337
#     4  10  21  36  56  83 115 148 187 235 286 342
#     4  10  22  40  63  89 119 154 196 246 297 350
#     4  10  21  38  57  82 115 148 185 230 281 339
#     4  10  22  40  60  86 117 153 199 248 297 353
#     4  10  19  32  54  83 114 149 185 225 278 340
#
# _framework density 19.970274
#
# number of rings (size 3 to 8) (size 9 to 14) (size 15 to 20)
#    0.000    1.833    1.667    2.000    0.000    4.333 
#    0.000    1.667    0.000    0.000    0.000    0.000 
#    0.000    0.000    0.000    0.000    0.000    0.000 
#
# Total GULP energy -595183.173959 kJ/mol
# GULP energy per Si atom -12399.649457 kJ/mol
# Density = 1.992482 g / cm^3
# Si number density = 19.970274 Si / 1000 Ang^3
#
#
#
# Elastic Constant Matrix: (Units=GPa)
#
#
# Indices 1 2 3 4 5 6 
#
# 1 95.9971 35.9107 70.2463 0.0000 0.0000 0.0000
# 2 35.9107 77.6218 19.0807 0.0000 0.0000 0.0000
# 3 70.2463 19.0807 113.9195 0.0000 0.0000 0.0000
# 4 0.0000 0.0000 0.0000 21.5199 0.0000 0.0000
# 5 0.0000 0.0000 0.0000 0.0000 41.9913 0.0000
# 6 0.0000 0.0000 0.0000 0.0000 0.0000 24.4895
#
#
#
# Elastic Compliance Matrix: (Units=1/GPa)
#
#
# Indices 1 2 3 4 5 6 
#
# 1 0.022297 -0.007234 -0.012538 0.000000 0.000000 0.000000
# 2 -0.007234 0.015783 0.001817 0.000000 0.000000 0.000000
# 3 -0.012538 0.001817 0.016205 0.000000 0.000000 0.000000
# 4 0.000000 0.000000 0.000000 0.046469 0.000000 0.000000
# 5 0.000000 0.000000 0.000000 0.000000 0.023814 0.000000
# 6 0.000000 0.000000 0.000000 0.000000 0.000000 0.040834
#
#
# Mechanical properties :
#
#
# Convention : Reuss Voigt Hill
#
# Bulk Modulus (GPa) = 54.41730 59.77929 57.09830
# Shear Modulus (GPa) = 24.10375 28.42019 26.26197
#
# Velocity S-wave (km/s) = 3.47793 3.77653 3.63030
# Velocity P-wave (km/s) = 6.59062 7.00109 6.79896
#
# Compressibility (1/GPa) = 0.01837651
#
# Stress axis : x y z
#
# Youngs Moduli (GPa) = 44.84812 63.35976 61.70954
#
# Poissons Ratio (x) = 0.45832 0.77370
# Poissons Ratio (y) = 0.32442 -0.11212
# Poissons Ratio (z) = 0.56229 -0.11512
#
# Static dielectric constant tensor:
#      x y z
#    x 3.619640 0.000000 0.000000 
#    y 0.000000 3.638060 0.000000 
#    z 0.000000 0.000000 3.390650 
# 
# 
# High freq. dielectric constant tensor:
#      x y z
#    x 1.774560 0.000000 0.000000 
#    y 0.000000 1.782520 0.000000 
#    z 0.000000 0.000000 1.772090 
# 
# From -- ./inp_files/37009.got.cif
#   From: 2010.03.12/outbox.cif.g09.slc.cpg/sg64_19_cif.got.tgz:37009.got - 2010.04.10 20:19:32.
