data_PCOD8262715
_publ_section_title
;
Structure prediction by ZEFSAII (Michael W. Deem and Ramdas Pophale) SiO2 
 PCOD8262715
Probable space group: C M C A
;
_chemical_formula_sum "Si O2"
_cell_formula_units_Z 96
_cell_length_a 9.374219
_cell_length_b 27.163135
_cell_length_c 21.081337
_cell_angle_alpha 90.000000
_cell_angle_beta 90.000000
_cell_angle_gamma 90.000000
_cell_volume 5368.007799
_symmetry_space_group_name_H-M "C M C A"
_symmetry_group_IT_number 64
_symmetry_cell_setting 'orthorhombic'
loop_
_space_group_symop_operation_xyz
x,y,z
-x,1/2-y,1/2+z
x,-y,-z
-x,1/2+y,1/2-z
-x,-y,-z
x,1/2+y,1/2-z
-x,y,z
x,1/2-y,1/2+z
1/2+x,1/2+y,z
1/2-x,-y,1/2+z
1/2+x,1/2-y,-z
1/2-x,y,1/2-z
1/2-x,1/2-y,-z
1/2+x,y,1/2-z
1/2-x,1/2+y,z
1/2+x,-y,1/2+z
loop_
_atom_site_type_symbol
_atom_site_label
_atom_site_fract_x
_atom_site_fract_y
_atom_site_fract_z
Si Si1 0.155158 0.334215 0.903298
Si Si2 0.164108 0.769286 0.059890
Si Si3 0.340552 0.858305 0.050321
Si Si4 0.331658 0.528822 0.564483
Si Si5 0.662075 0.001108 0.310481
Si Si6 0.656771 0.117146 0.306406
O O1 0.173053 0.275540 0.889437
O O2 0.278161 0.366266 0.872708
O O3 0.000000 0.351518 0.877555
O O4 0.162943 0.344818 0.977172
O O5 0.235826 0.819743 0.086569
O O6 0.000000 0.780139 0.041361
O O7 0.250000 0.750000 0.000000
O O8 0.500000 0.852157 0.078050
O O9 0.288426 0.914136 0.058330
O O10 0.287832 0.500000 0.500000
O O11 0.500000 0.521577 0.577207
O O12 0.243668 0.508739 0.623992
O O13 0.500000 0.979216 0.311657
O O14 0.750000 0.979021 0.250000
O O15 0.651889 0.059010 0.302113
O O16 0.500000 0.139871 0.300844
O O17 0.750000 0.140144 0.250000
#
# Coordination Sequence:
#
# PCOD8262715 Si02
#       6
#    16  16  16  16  16  16
#     4   9  17  30  48  70  97 127 159 195 238 290
#     4   9  17  29  46  68  95 127 159 193 236 288
#     4   9  18  31  48  72 100 130 163 199 242 291
#     4  10  20  34  53  77 106 138 170 209 258 305
#     4  10  21  36  53  74 101 135 174 211 251 303
#     4  10  20  32  48  70  95 125 160 199 243 291
#
# _framework density 17.88373
#
# number of rings (size 3 to 8) (size 9 to 14) (size 15 to 20)
#    0.000    2.500    0.000    3.500    0.000    7.667 
#    0.000    0.000    0.000    1.000    0.000    7.000 
#    0.000    0.000    0.000    0.000    0.000    0.000 
#
# Total GULP energy -594827.890424 kJ/mol
# GULP energy per Si atom -12392.247717 kJ/mol
# Density = 1.784303 g / cm^3
# Si number density = 17.883730 Si / 1000 Ang^3
#
#
#
# Elastic Constant Matrix: (Units=GPa)
#
#
# Indices 1 2 3 4 5 6 
#
# 1 123.3605 25.0023 41.1797 0.0000 0.0000 0.0000
# 2 25.0023 30.7840 5.0737 0.0000 0.0000 0.0000
# 3 41.1797 5.0737 69.0143 0.0000 0.0000 0.0000
# 4 0.0000 0.0000 0.0000 16.5046 0.0000 0.0000
# 5 0.0000 0.0000 0.0000 0.0000 23.5028 0.0000
# 6 0.0000 0.0000 0.0000 0.0000 0.0000 30.2672
#
#
#
# Elastic Compliance Matrix: (Units=1/GPa)
#
#
# Indices 1 2 3 4 5 6 
#
# 1 0.012061 -0.008715 -0.006556 0.000000 0.000000 0.000000
# 2 -0.008715 0.039181 0.002320 0.000000 0.000000 0.000000
# 3 -0.006556 0.002320 0.018231 0.000000 0.000000 0.000000
# 4 0.000000 0.000000 0.000000 0.060589 0.000000 0.000000
# 5 0.000000 0.000000 0.000000 0.000000 0.042548 0.000000
# 6 0.000000 0.000000 0.000000 0.000000 0.000000 0.033039
#
#
# Mechanical properties :
#
#
# Convention : Reuss Voigt Hill
#
# Bulk Modulus (GPa) = 22.95167 40.63001 31.79084
# Shear Modulus (GPa) = 20.31897 24.18179 22.25038
#
# Velocity S-wave (km/s) = 3.37437 3.68117 3.53110
# Velocity P-wave (km/s) = 5.29561 6.39033 5.86855
#
# Compressibility (1/GPa) = 0.04356981
#
# Stress axis : x y z
#
# Youngs Moduli (GPa) = 82.91031 25.52289 54.85149
#
# Poissons Ratio (x) = 0.22244 0.35961
# Poissons Ratio (y) = 0.72260 -0.12725
# Poissons Ratio (z) = 0.54356 -0.05921
#
# Static dielectric constant tensor:
#      x y z
#    x 3.746740 0.000000 0.000000 
#    y 0.000000 3.731000 0.000000 
#    z 0.000000 0.000000 3.016590 
# 
# 
# High freq. dielectric constant tensor:
#      x y z
#    x 1.706330 0.000000 0.000000 
#    y 0.000000 1.686840 0.000000 
#    z 0.000000 0.000000 1.655300 
# 
# From -- ./inp_files/36979.got.cif
#   From: 2010.03.12/outbox.cif.g09.slc.cpg/sg64_19_cif.got.tgz:36979.got - 2010.04.10 20:19:32.
