data_PCOD8262223
_publ_section_title
;
Structure prediction by ZEFSAII (Michael W. Deem and Ramdas Pophale) SiO2 
 PCOD8262223
Probable space group: C M C A
;
_chemical_formula_sum "Si O2"
_cell_formula_units_Z 128
_cell_length_a 26.324978
_cell_length_b 21.087441
_cell_length_c 11.802184
_cell_angle_alpha 90.000000
_cell_angle_beta 90.000000
_cell_angle_gamma 90.000000
_cell_volume 6551.704157
_symmetry_space_group_name_H-M "C M C A"
_symmetry_group_IT_number 64
_symmetry_cell_setting 'orthorhombic'
loop_
_space_group_symop_operation_xyz
x,y,z
-x,1/2-y,1/2+z
x,-y,-z
-x,1/2+y,1/2-z
-x,-y,-z
x,1/2+y,1/2-z
-x,y,z
x,1/2-y,1/2+z
1/2+x,1/2+y,z
1/2-x,-y,1/2+z
1/2+x,1/2-y,-z
1/2-x,y,1/2-z
1/2-x,1/2-y,-z
1/2+x,y,1/2-z
1/2-x,1/2+y,z
1/2+x,-y,1/2+z
loop_
_atom_site_type_symbol
_atom_site_label
_atom_site_fract_x
_atom_site_fract_y
_atom_site_fract_z
Si Si1 0.557636 0.626938 0.656764
Si Si2 0.896504 0.996104 0.631409
Si Si3 0.302911 0.563912 0.703155
Si Si4 0.290948 0.162470 0.993800
Si Si5 0.858238 0.328374 0.320837
Si Si6 0.940651 0.362561 0.893887
Si Si7 0.347193 0.189762 0.208510
Si Si8 0.822108 0.198709 0.046975
O O1 0.500000 0.644505 0.682721
O O2 0.565899 0.551878 0.672480
O O3 0.590304 0.665995 0.747952
O O4 0.572168 0.644572 0.527326
O O5 0.842094 0.005220 0.693785
O O6 0.885843 0.000000 0.500000
O O7 0.923644 0.930070 0.659061
O O8 0.250000 0.536258 0.750000
O O9 0.301609 0.601148 0.583308
O O10 0.320883 0.613754 0.796946
O O11 0.314599 0.148610 0.118586
O O12 0.231270 0.172669 0.002273
O O13 0.319347 0.224542 0.942673
O O14 0.829289 0.262823 0.291566
O O15 0.865664 0.324084 0.457520
O O16 0.907110 0.311854 0.824821
O O17 0.000000 0.351496 0.870440
O O18 0.336825 0.165109 0.335075
#
# Coordination Sequence:
#
# PCOD8262223 Si02
#       8
#    16  16  16  16  16  16  16  16
#     4   9  18  34  58  82 105 137 185 241 290 338
#     4   9  18  34  58  82 105 137 184 239 287 328
#     4  11  19  34  57  83 115 147 184 232 281 336
#     4  10  19  32  52  79 113 151 186 222 263 328
#     4  10  20  32  52  81 115 145 181 224 278 332
#     4  10  21  38  58  81 108 142 188 242 292 333
#     4  11  21  33  54  79 113 153 190 227 271 336
#     4  10  20  31  50  79 116 154 184 214 265 338
#
# _framework density 19.536902000000001
#
# number of rings (size 3 to 8) (size 9 to 14) (size 15 to 20)
#    0.000    2.000    2.500    3.000    1.750    2.000 
#    0.000    3.125    0.000    2.250    0.000    4.375 
#    0.000    0.000    0.000    0.000    0.000    0.000 
#
# Total GULP energy -793240.413078 kJ/mol
# GULP energy per Si atom -12394.381454 kJ/mol
# Density = 1.949244 g / cm^3
# Si number density = 19.536902 Si / 1000 Ang^3
#
#
#
# Elastic Constant Matrix: (Units=GPa)
#
#
# Indices 1 2 3 4 5 6 
#
# 1 91.5215 9.7322 40.4839 0.0000 0.0000 0.0000
# 2 9.7322 25.9406 18.2333 0.0000 0.0000 0.0000
# 3 40.4839 18.2333 128.6855 0.0000 0.0000 0.0000
# 4 0.0000 0.0000 0.0000 18.3037 0.0000 0.0000
# 5 0.0000 0.0000 0.0000 0.0000 31.4276 0.0000
# 6 0.0000 0.0000 0.0000 0.0000 0.0000 23.0954
#
#
#
# Elastic Compliance Matrix: (Units=1/GPa)
#
#
# Indices 1 2 3 4 5 6 
#
# 1 0.012804 -0.002191 -0.003718 0.000000 0.000000 0.000000
# 2 -0.002191 0.043188 -0.005430 0.000000 0.000000 0.000000
# 3 -0.003718 -0.005430 0.009710 0.000000 0.000000 0.000000
# 4 0.000000 0.000000 0.000000 0.054634 0.000000 0.000000
# 5 0.000000 0.000000 0.000000 0.000000 0.031819 0.000000
# 6 0.000000 0.000000 0.000000 0.000000 0.000000 0.043299
#
#
# Mechanical properties :
#
#
# Convention : Reuss Voigt Hill
#
# Bulk Modulus (GPa) = 23.24222 42.56071 32.90147
# Shear Modulus (GPa) = 21.50797 26.41188 23.95993
#
# Velocity S-wave (km/s) = 3.32157 3.68080 3.50579
# Velocity P-wave (km/s) = 5.16070 6.31637 5.76755
#
# Compressibility (1/GPa) = 0.04302515
#
# Stress axis : x y z
#
# Youngs Moduli (GPa) = 78.10176 23.15446 102.98849
#
# Poissons Ratio (x) = 0.05072 0.38287
# Poissons Ratio (y) = 0.17109 0.55924
# Poissons Ratio (z) = 0.29035 0.12573
#
# Static dielectric constant tensor:
#      x y z
#    x 3.515950 0.000000 0.000000 
#    y 0.000000 3.449760 0.000000 
#    z 0.000000 0.000000 3.620080 
# 
# 
# High freq. dielectric constant tensor:
#      x y z
#    x 1.755540 0.000000 0.000000 
#    y 0.000000 1.737370 0.000000 
#    z 0.000000 0.000000 1.752830 
# 
# From -- ./inp_files/19417.got.cif
#   From: 2010.03.12/outbox.cif.g09.slc.cpg/sg64_10_cif.got.tgz:19417.got - 2010.04.10 20:19:32.
