data_PCOD8262321
_publ_section_title
;
Structure prediction by ZEFSAII (Michael W. Deem and Ramdas Pophale) SiO2 
 PCOD8262321
Probable space group: C M C A
;
_chemical_formula_sum "Si O2"
_cell_formula_units_Z 96
_cell_length_a 20.110297
_cell_length_b 16.022639
_cell_length_c 14.848735
_cell_angle_alpha 90.000000
_cell_angle_beta 90.000000
_cell_angle_gamma 90.000000
_cell_volume 4784.559823
_symmetry_space_group_name_H-M "C M C A"
_symmetry_group_IT_number 64
_symmetry_cell_setting 'orthorhombic'
loop_
_space_group_symop_operation_xyz
x,y,z
-x,1/2-y,1/2+z
x,-y,-z
-x,1/2+y,1/2-z
-x,-y,-z
x,1/2+y,1/2-z
-x,y,z
x,1/2-y,1/2+z
1/2+x,1/2+y,z
1/2-x,-y,1/2+z
1/2+x,1/2-y,-z
1/2-x,y,1/2-z
1/2-x,1/2-y,-z
1/2+x,y,1/2-z
1/2-x,1/2+y,z
1/2+x,-y,1/2+z
loop_
_atom_site_type_symbol
_atom_site_label
_atom_site_fract_x
_atom_site_fract_y
_atom_site_fract_z
Si Si1 0.572397 0.298215 0.727369
Si Si2 0.214318 0.370482 0.159613
Si Si3 0.699219 0.327650 0.823081
Si Si4 0.927260 0.655129 0.862366
Si Si5 0.424002 0.267704 0.037108
Si Si6 0.682414 0.906221 0.491752
O O1 0.500000 0.342674 0.734098
O O2 0.626053 0.350166 0.784122
O O3 0.567459 0.206057 0.769778
O O4 0.594697 0.289449 0.623198
O O5 0.250000 0.403709 0.250000
O O6 0.209751 0.270418 0.160600
O O7 0.137565 0.405124 0.148549
O O8 0.256499 0.402892 0.076602
O O9 0.750000 0.362696 0.750000
O O10 0.712370 0.376859 0.913851
O O11 0.000000 0.609968 0.877761
O O12 0.911919 0.716781 0.945913
O O13 0.500000 0.297856 0.044450
O O14 0.378290 0.349032 0.039676
O O15 0.655390 0.000000 0.500000
#
# Coordination Sequence:
#
# PCOD8262321 Si02
#       6
#    16  16  16  16  16  16
#     4   9  17  31  54  83 107 131 173 229 282 327
#     4  10  20  36  59  81 110 141 189 241 282 325
#     4  10  20  34  56  80 104 142 183 238 278 319
#     4   9  17  31  55  83 107 133 174 237 283 317
#     4  10  19  33  54  81 111 142 181 227 278 334
#     4  12  24  35  52  80 117 156 183 223 285 351
#
# _framework density 20.064540999999998
#
# number of rings (size 3 to 8) (size 9 to 14) (size 15 to 20)
#    0.000    2.000    3.333    3.500    2.333    1.000 
#    0.000    0.000    0.000    0.500    0.000    2.333 
#    0.000    0.000    0.000    0.000    0.000    0.000 
#
# Total GULP energy -594876.208354 kJ/mol
# GULP energy per Si atom -12393.254341 kJ/mol
# Density = 2.001887 g / cm^3
# Si number density = 20.064541 Si / 1000 Ang^3
#
#
#
# Elastic Constant Matrix: (Units=GPa)
#
#
# Indices 1 2 3 4 5 6 
#
# 1 166.3860 21.4035 56.5293 0.0000 0.0000 0.0000
# 2 21.4035 20.8738 14.1870 0.0000 0.0000 0.0000
# 3 56.5293 14.1870 127.6996 0.0000 0.0000 0.0000
# 4 0.0000 0.0000 0.0000 4.7243 0.0000 0.0000
# 5 0.0000 0.0000 0.0000 0.0000 29.0644 0.0000
# 6 0.0000 0.0000 0.0000 0.0000 0.0000 3.7105
#
#
#
# Elastic Compliance Matrix: (Units=1/GPa)
#
#
# Indices 1 2 3 4 5 6 
#
# 1 0.007721 -0.006051 -0.002746 0.000000 0.000000 0.000000
# 2 -0.006051 0.056562 -0.003605 0.000000 0.000000 0.000000
# 3 -0.002746 -0.003605 0.009447 0.000000 0.000000 0.000000
# 4 0.000000 0.000000 0.000000 0.211671 0.000000 0.000000
# 5 0.000000 0.000000 0.000000 0.000000 0.034406 0.000000
# 6 0.000000 0.000000 0.000000 0.000000 0.000000 0.269504
#
#
# Mechanical properties :
#
#
# Convention : Reuss Voigt Hill
#
# Bulk Modulus (GPa) = 20.43902 55.46655 37.95278
# Shear Modulus (GPa) = 7.93116 22.35581 15.14348
#
# Velocity S-wave (km/s) = 1.99033 3.34158 2.75023
# Velocity P-wave (km/s) = 3.93581 6.52627 5.38901
#
# Compressibility (1/GPa) = 0.04892603
#
# Stress axis : x y z
#
# Youngs Moduli (GPa) = 129.51003 17.67973 105.85482
#
# Poissons Ratio (x) = 0.10698 0.29066
# Poissons Ratio (y) = 0.78368 0.38162
# Poissons Ratio (z) = 0.35561 0.06374
#
# Static dielectric constant tensor:
#      x y z
#    x 4.319830 0.000000 0.000000 
#    y 0.000000 2.875500 0.000000 
#    z 0.000000 0.000000 3.909970 
# 
# 
# High freq. dielectric constant tensor:
#      x y z
#    x 1.810390 0.000000 0.000000 
#    y 0.000000 1.695530 0.000000 
#    z 0.000000 0.000000 1.808420 
# 
# From -- ./inp_files/26306.got.cif
#   From: 2010.03.12/outbox.cif.g09.slc.cpg/sg64_14_cif.got.tgz:26306.got - 2010.04.10 20:19:32.
