data_PCOD8262624
_publ_section_title
;
Structure prediction by ZEFSAII (Michael W. Deem and Ramdas Pophale) SiO2 
 PCOD8262624
Probable space group: C M C A
;
_chemical_formula_sum "Si O2"
_cell_formula_units_Z 96
_cell_length_a 17.303182
_cell_length_b 27.771698
_cell_length_c 10.009072
_cell_angle_alpha 90.000000
_cell_angle_beta 90.000000
_cell_angle_gamma 90.000000
_cell_volume 4809.746897
_symmetry_space_group_name_H-M "C M C A"
_symmetry_group_IT_number 64
_symmetry_cell_setting 'orthorhombic'
loop_
_space_group_symop_operation_xyz
x,y,z
-x,1/2-y,1/2+z
x,-y,-z
-x,1/2+y,1/2-z
-x,-y,-z
x,1/2+y,1/2-z
-x,y,z
x,1/2-y,1/2+z
1/2+x,1/2+y,z
1/2-x,-y,1/2+z
1/2+x,1/2-y,-z
1/2-x,y,1/2-z
1/2-x,1/2-y,-z
1/2+x,y,1/2-z
1/2-x,1/2+y,z
1/2+x,-y,1/2+z
loop_
_atom_site_type_symbol
_atom_site_label
_atom_site_fract_x
_atom_site_fract_y
_atom_site_fract_z
Si Si1 0.408257 0.443907 0.494022
Si Si2 0.908034 0.212278 0.849874
Si Si3 0.591445 0.705441 0.153554
Si Si4 0.660525 0.392976 0.745010
Si Si5 0.408433 0.608118 0.771769
Si Si6 0.413244 0.055432 0.470790
O O1 0.383612 0.500000 0.500000
O O2 0.500000 0.438955 0.514801
O O3 0.365022 0.410976 0.600755
O O4 0.378092 0.421054 0.355827
O O5 0.874575 0.255515 0.758736
O O6 0.880769 0.163464 0.775212
O O7 0.000000 0.214378 0.855791
O O8 0.875929 0.214524 0.002795
O O9 0.500000 0.709868 0.149189
O O10 0.613203 0.653338 0.207800
O O11 0.750000 0.379976 0.750000
O O12 0.641631 0.436562 0.844814
O O13 0.500000 0.604258 0.773183
O O14 0.375640 0.582909 0.904158
O O15 0.500000 0.074693 0.439856
O O16 0.416475 0.000000 0.500000
#
# Coordination Sequence:
#
# PCOD8262624 Si02
#       6
#    16  16  16  16  16  16
#     4  10  21  38  62  90 117 149 195 249 298 344
#     4   9  18  32  58  89 111 141 189 252 308 345
#     4  10  20  37  61  86 112 146 198 253 300 349
#     4  12  25  39  56  84 125 166 197 231 289 359
#     4   9  17  32  57  88 115 138 184 249 303 349
#     4  10  19  36  64  89 111 148 197 249 296 341
#
# _framework density 19.95947
#
# number of rings (size 3 to 8) (size 9 to 14) (size 15 to 20)
#    0.000    2.000    1.667    2.500    2.333    3.333 
#    0.000    1.667    0.000    0.000    0.000    0.000 
#    0.000    0.000    0.000    0.000    0.000    0.000 
#
# Total GULP energy -595106.810399 kJ/mol
# GULP energy per Si atom -12398.058550 kJ/mol
# Density = 1.991404 g / cm^3
# Si number density = 19.959470 Si / 1000 Ang^3
#
#
#
# Elastic Constant Matrix: (Units=GPa)
#
#
# Indices 1 2 3 4 5 6 
#
# 1 18.3921 7.9310 15.0495 0.0000 0.0000 0.0000
# 2 7.9310 101.0189 41.7399 0.0000 0.0000 0.0000
# 3 15.0495 41.7399 124.2878 0.0000 0.0000 0.0000
# 4 0.0000 0.0000 0.0000 44.9164 0.0000 0.0000
# 5 0.0000 0.0000 0.0000 0.0000 41.7560 0.0000
# 6 0.0000 0.0000 0.0000 0.0000 0.0000 2.5000
#
#
#
# Elastic Compliance Matrix: (Units=1/GPa)
#
#
# Indices 1 2 3 4 5 6 
#
# 1 0.060699 -0.002007 -0.006676 0.000000 0.000000 0.000000
# 2 -0.002007 0.011560 -0.003639 0.000000 0.000000 0.000000
# 3 -0.006676 -0.003639 0.010076 0.000000 0.000000 0.000000
# 4 0.000000 0.000000 0.000000 0.022264 0.000000 0.000000
# 5 0.000000 0.000000 0.000000 0.000000 0.023949 0.000000
# 6 0.000000 0.000000 0.000000 0.000000 0.000000 0.400003
#
#
# Mechanical properties :
#
#
# Convention : Reuss Voigt Hill
#
# Bulk Modulus (GPa) = 17.33359 41.45993 29.39676
# Shear Modulus (GPa) = 8.73476 29.76638 19.25057
#
# Velocity S-wave (km/s) = 2.09422 3.86598 3.10898
# Velocity P-wave (km/s) = 3.81457 6.38317 5.25813
#
# Compressibility (1/GPa) = 0.05769146
#
# Stress axis : x y z
#
# Youngs Moduli (GPa) = 16.47474 86.50179 99.24194
#
# Poissons Ratio (x) = 0.17362 0.66251
# Poissons Ratio (y) = 0.03307 0.36118
# Poissons Ratio (z) = 0.10998 0.31481
#
# Static dielectric constant tensor:
#      x y z
#    x 2.435820 0.000000 0.000000 
#    y 0.000000 3.794860 0.000000 
#    z 0.000000 0.000000 5.697720 
# 
# 
# High freq. dielectric constant tensor:
#      x y z
#    x 1.720020 0.000000 0.000000 
#    y 0.000000 1.792820 0.000000 
#    z 0.000000 0.000000 1.797070 
# 
# From -- ./inp_files/8392.got.cif
#   From: 2010.03.12/outbox.cif.g09.slc.cpg/sg64_5_cif.got.tgz:8392.got - 2010.04.10 20:19:32.
