data_PCOD8262338
_publ_section_title
;
Structure prediction by ZEFSAII (Michael W. Deem and Ramdas Pophale) SiO2 
 PCOD8262338
Probable space group: C M C A
;
_chemical_formula_sum "Si O2"
_cell_formula_units_Z 80
_cell_length_a 7.640592
_cell_length_b 25.317394
_cell_length_c 22.866240
_cell_angle_alpha 90.000000
_cell_angle_beta 90.000000
_cell_angle_gamma 90.000000
_cell_volume 4423.242677
_symmetry_space_group_name_H-M "C M C A"
_symmetry_group_IT_number 64
_symmetry_cell_setting 'orthorhombic'
loop_
_space_group_symop_operation_xyz
x,y,z
-x,1/2-y,1/2+z
x,-y,-z
-x,1/2+y,1/2-z
-x,-y,-z
x,1/2+y,1/2-z
-x,y,z
x,1/2-y,1/2+z
1/2+x,1/2+y,z
1/2-x,-y,1/2+z
1/2+x,1/2-y,-z
1/2-x,y,1/2-z
1/2-x,1/2-y,-z
1/2+x,y,1/2-z
1/2-x,1/2+y,z
1/2+x,-y,1/2+z
loop_
_atom_site_type_symbol
_atom_site_label
_atom_site_fract_x
_atom_site_fract_y
_atom_site_fract_z
Si Si1 0.500000 0.980029 0.902329
Si Si2 0.797081 0.262240 0.582868
Si Si3 0.196667 0.448615 0.682961
Si Si4 0.798184 0.332758 0.813799
Si Si5 0.197465 0.163903 0.978772
Si Si6 0.000000 0.917182 0.480923
O O1 0.672181 0.977091 0.861782
O O2 0.500000 0.034980 0.935897
O O3 0.500000 0.933932 0.950980
O O4 0.754231 0.283710 0.646463
O O5 0.732298 0.305900 0.536381
O O6 0.699516 0.206407 0.574143
O O7 0.000000 0.251312 0.573642
O O8 0.250000 0.459935 0.750000
O O9 0.193257 0.385848 0.670623
O O10 0.000000 0.470058 0.671924
O O11 0.750000 0.312256 0.750000
O O12 0.000000 0.348001 0.819469
O O13 0.324861 0.115284 0.966781
O O14 0.000000 0.142055 0.986426
#
# Coordination Sequence:
#
# PCOD8262338 Si02
#       6
#     8  16  16  16  16   8
#     4  11  24  40  60  89 114 159 190 239 304 341
#     4  10  19  33  55  84 113 151 191 225 279 340
#     4  11  20  37  61  89 118 148 193 243 295 352
#     4  11  20  31  50  83 120 148 180 229 289 345
#     4  10  21  36  57  83 112 152 195 232 273 336
#     4  11  24  40  58  83 126 154 192 240 292 344
#
# _framework density 18.086278
#
# number of rings (size 3 to 8) (size 9 to 14) (size 15 to 20)
#    0.000    1.400    3.000    4.800    2.800    3.200 
#    0.000    2.000    0.000    1.200    0.000    0.000 
#    0.000    0.000    0.000    0.000    0.000    0.000 
#
# Total GULP energy -496079.309830 kJ/mol
# GULP energy per Si atom -12401.982746 kJ/mol
# Density = 1.804511 g / cm^3
# Si number density = 18.086278 Si / 1000 Ang^3
#
#
#
# Elastic Constant Matrix: (Units=GPa)
#
#
# Indices 1 2 3 4 5 6 
#
# 1 132.1415 40.4970 39.5406 0.0000 0.0000 0.0000
# 2 40.4970 81.9423 47.3516 0.0000 0.0000 0.0000
# 3 39.5406 47.3516 105.2429 0.0000 0.0000 0.0000
# 4 0.0000 0.0000 0.0000 28.3689 0.0000 0.0000
# 5 0.0000 0.0000 0.0000 0.0000 27.5649 0.0000
# 6 0.0000 0.0000 0.0000 0.0000 0.0000 22.8510
#
#
#
# Elastic Compliance Matrix: (Units=1/GPa)
#
#
# Indices 1 2 3 4 5 6 
#
# 1 0.009193 -0.003442 -0.001905 0.000000 0.000000 0.000000
# 2 -0.003442 0.017780 -0.006707 0.000000 0.000000 0.000000
# 3 -0.001905 -0.006707 0.013235 0.000000 0.000000 0.000000
# 4 0.000000 0.000000 0.000000 0.035250 0.000000 0.000000
# 5 0.000000 0.000000 0.000000 0.000000 0.036278 0.000000
# 6 0.000000 0.000000 0.000000 0.000000 0.000000 0.043762
#
#
# Mechanical properties :
#
#
# Convention : Reuss Voigt Hill
#
# Bulk Modulus (GPa) = 62.11042 63.78946 62.94994
# Shear Modulus (GPa) = 27.03106 28.55278 27.79192
#
# Velocity S-wave (km/s) = 3.87015 3.97759 3.92424
# Velocity P-wave (km/s) = 7.37472 7.51273 7.44404
#
# Compressibility (1/GPa) = 0.01610036
#
# Stress axis : x y z
#
# Youngs Moduli (GPa) = 108.78304 56.24154 75.55719
#
# Poissons Ratio (x) = 0.19360 0.14393
# Poissons Ratio (y) = 0.37446 0.50673
# Poissons Ratio (z) = 0.20723 0.37719
#
# Static dielectric constant tensor:
#      x y z
#    x 3.534100 0.000000 0.000000 
#    y 0.000000 3.040390 0.000000 
#    z 0.000000 0.000000 3.379980 
# 
# 
# High freq. dielectric constant tensor:
#      x y z
#    x 1.721080 0.000000 0.000000 
#    y 0.000000 1.668090 0.000000 
#    z 0.000000 0.000000 1.696170 
# 
# From -- ./inp_files/42775.got.cif
#   From: 2010.03.12/outbox.cif.g09.slc.cpg/sg64_22_cif.got.tgz:42775.got - 2010.04.10 20:19:32.
