data_PCOD8262889
_publ_section_title
;
Structure prediction by ZEFSAII (Michael W. Deem and Ramdas Pophale) SiO2 
 PCOD8262889
Probable space group: C M C A
;
_chemical_formula_sum "Si O2"
_cell_formula_units_Z 80
_cell_length_a 8.751514
_cell_length_b 27.770992
_cell_length_c 17.353829
_cell_angle_alpha 90.000000
_cell_angle_beta 90.000000
_cell_angle_gamma 90.000000
_cell_volume 4217.643802
_symmetry_space_group_name_H-M "C M C A"
_symmetry_group_IT_number 64
_symmetry_cell_setting 'orthorhombic'
loop_
_space_group_symop_operation_xyz
x,y,z
-x,1/2-y,1/2+z
x,-y,-z
-x,1/2+y,1/2-z
-x,-y,-z
x,1/2+y,1/2-z
-x,y,z
x,1/2-y,1/2+z
1/2+x,1/2+y,z
1/2-x,-y,1/2+z
1/2+x,1/2-y,-z
1/2-x,y,1/2-z
1/2-x,1/2-y,-z
1/2+x,y,1/2-z
1/2-x,1/2+y,z
1/2+x,-y,1/2+z
loop_
_atom_site_type_symbol
_atom_site_label
_atom_site_fract_x
_atom_site_fract_y
_atom_site_fract_z
Si Si1 0.180460 0.035148 0.333366
Si Si2 0.322246 0.108689 0.440919
Si Si3 0.679371 0.647843 0.672296
Si Si4 0.677898 0.557254 0.899544
Si Si5 0.679243 0.301467 0.485091
O O1 0.250000 0.026093 0.250000
O O2 0.239734 0.085689 0.367207
O O3 0.000000 0.036272 0.327449
O O4 0.233437 0.992526 0.389660
O O5 0.500000 0.114337 0.422856
O O6 0.291846 0.074691 0.513971
O O7 0.252717 0.161259 0.455041
O O8 0.500000 0.639990 0.681044
O O9 0.750000 0.670781 0.750000
O O10 0.758121 0.596265 0.660144
O O11 0.718860 0.683518 0.602308
O O12 0.500000 0.548891 0.882896
O O13 0.500000 0.300165 0.499831
O O14 0.750000 0.250000 0.500000
#
# Coordination Sequence:
#
# PCOD8262889 Si02
#       5
#    16  16  16  16  16
#     4  12  24  37  54  78 112 150 187 226 268 319
#     4  10  21  38  59  82 109 142 182 226 273 327
#     4  10  20  34  54  82 113 142 177 223 273 323
#     4  10  20  35  56  81 111 146 182 222 269 322
#     4  10  21  38  60  84 109 141 182 227 276 329
#
# _framework density 18.967935000000001
#
# number of rings (size 3 to 8) (size 9 to 14) (size 15 to 20)
#    0.000    1.600    0.000    5.400    0.000    7.200 
#    0.000    1.000    0.000    2.400    0.000    0.000 
#    0.000    0.000    0.000    0.000    0.000    0.000 
#
# Total GULP energy -496241.504465 kJ/mol
# GULP energy per Si atom -12406.037612 kJ/mol
# Density = 1.892476 g / cm^3
# Si number density = 18.967935 Si / 1000 Ang^3
#
#
#
# Elastic Constant Matrix: (Units=GPa)
#
#
# Indices 1 2 3 4 5 6 
#
# 1 127.3951 59.2963 33.1618 0.0000 0.0000 0.0000
# 2 59.2963 132.4127 34.4560 0.0000 0.0000 0.0000
# 3 33.1618 34.4560 47.9058 0.0000 0.0000 0.0000
# 4 0.0000 0.0000 0.0000 18.7158 0.0000 0.0000
# 5 0.0000 0.0000 0.0000 0.0000 33.1117 0.0000
# 6 0.0000 0.0000 0.0000 0.0000 0.0000 37.6310
#
#
#
# Elastic Compliance Matrix: (Units=1/GPa)
#
#
# Indices 1 2 3 4 5 6 
#
# 1 0.010780 -0.003550 -0.004909 0.000000 0.000000 0.000000
# 2 -0.003550 0.010460 -0.005066 0.000000 0.000000 0.000000
# 3 -0.004909 -0.005066 0.027916 0.000000 0.000000 0.000000
# 4 0.000000 0.000000 0.000000 0.053431 0.000000 0.000000
# 5 0.000000 0.000000 0.000000 0.000000 0.030201 0.000000
# 6 0.000000 0.000000 0.000000 0.000000 0.000000 0.026574
#
#
# Mechanical properties :
#
#
# Convention : Reuss Voigt Hill
#
# Bulk Modulus (GPa) = 45.23579 62.39354 53.81467
# Shear Modulus (GPa) = 25.80255 29.94502 27.87378
#
# Velocity S-wave (km/s) = 3.69226 3.97762 3.83759
# Velocity P-wave (km/s) = 6.48671 7.35261 6.93319
#
# Compressibility (1/GPa) = 0.02210639
#
# Stress axis : x y z
#
# Youngs Moduli (GPa) = 92.76682 95.60109 35.82180
#
# Poissons Ratio (x) = 0.33938 0.17584
# Poissons Ratio (y) = 0.32932 0.18147
# Poissons Ratio (z) = 0.45537 0.48431
#
# Static dielectric constant tensor:
#      x y z
#    x 3.609360 0.000000 0.000000 
#    y 0.000000 3.387270 0.000000 
#    z 0.000000 0.000000 3.488510 
# 
# 
# High freq. dielectric constant tensor:
#      x y z
#    x 1.756910 0.000000 0.000000 
#    y 0.000000 1.727080 0.000000 
#    z 0.000000 0.000000 1.735620 
# 
# From -- ./inp_files/29704.got.cif
#   From: 2010.03.12/outbox.cif.g09.slc.cpg/sg64_15_cif.got.tgz:29704.got - 2010.04.10 20:19:32.
