data_PCOD8262409
_publ_section_title
;
Structure prediction by ZEFSAII (Michael W. Deem and Ramdas Pophale) SiO2 
 PCOD8262409
Probable space group: C M C A
;
_chemical_formula_sum "Si O2"
_cell_formula_units_Z 112
_cell_length_a 11.452540
_cell_length_b 17.229046
_cell_length_c 28.564678
_cell_angle_alpha 90.000000
_cell_angle_beta 90.000000
_cell_angle_gamma 90.000000
_cell_volume 5636.277673
_symmetry_space_group_name_H-M "C M C A"
_symmetry_group_IT_number 64
_symmetry_cell_setting 'orthorhombic'
loop_
_space_group_symop_operation_xyz
x,y,z
-x,1/2-y,1/2+z
x,-y,-z
-x,1/2+y,1/2-z
-x,-y,-z
x,1/2+y,1/2-z
-x,y,z
x,1/2-y,1/2+z
1/2+x,1/2+y,z
1/2-x,-y,1/2+z
1/2+x,1/2-y,-z
1/2-x,y,1/2-z
1/2-x,1/2-y,-z
1/2+x,y,1/2-z
1/2-x,1/2+y,z
1/2+x,-y,1/2+z
loop_
_atom_site_type_symbol
_atom_site_label
_atom_site_fract_x
_atom_site_fract_y
_atom_site_fract_z
Si Si1 0.794351 0.876317 0.201074
Si Si2 0.865387 0.947102 0.375336
Si Si3 0.222658 0.670690 0.946760
Si Si4 0.870157 0.245464 0.868683
Si Si5 0.869493 0.543098 0.279591
Si Si6 0.370486 0.165581 0.465472
Si Si7 0.276417 0.896936 0.628252
O O1 0.750000 0.841013 0.250000
O O2 0.685059 0.899157 0.168351
O O3 0.870091 0.810146 0.176430
O O4 0.873140 0.951348 0.211222
O O5 0.847476 0.899816 0.423439
O O6 0.000000 0.959811 0.365176
O O7 0.808308 0.030940 0.379886
O O8 0.328046 0.698313 0.913863
O O9 0.136007 0.742378 0.955501
O O10 0.276628 0.640424 0.995516
O O11 0.794364 0.320582 0.858235
O O12 0.000000 0.273864 0.879142
O O13 0.750000 0.563859 0.250000
O O14 0.863874 0.587650 0.328864
O O15 0.000000 0.563731 0.257432
O O16 0.500000 0.146367 0.483531
O O17 0.349175 0.116076 0.418815
#
# Coordination Sequence:
#
# PCOD8262409 Si02
#       7
#    16  16  16  16  16  16  16
#     4   9  20  35  56  83 106 139 187 231 273 326
#     4  10  20  37  56  77 112 150 186 228 276 333
#     4   9  20  35  55  82 103 138 188 225 271 331
#     4  10  19  34  54  78 111 143 177 225 276 326
#     4  10  21  38  59  82 111 147 187 230 278 334
#     4  10  19  36  58  78 107 139 176 229 281 330
#     4  10  22  35  53  83 112 144 184 222 275 337
#
# _framework density 19.871271
#
# number of rings (size 3 to 8) (size 9 to 14) (size 15 to 20)
#    0.000    2.286    0.000    2.143    0.000    7.429 
#    0.000    6.429    0.000    0.000    0.000    0.000 
#    0.000    0.000    0.000    0.000    0.000    0.000 
#
# Total GULP energy -694252.301205 kJ/mol
# GULP energy per Si atom -12397.362522 kJ/mol
# Density = 1.982604 g / cm^3
# Si number density = 19.871271 Si / 1000 Ang^3
#
#
#
# Elastic Constant Matrix: (Units=GPa)
#
#
# Indices 1 2 3 4 5 6 
#
# 1 120.4107 12.9626 23.3114 0.0000 0.0000 0.0000
# 2 12.9626 59.0875 22.9696 0.0000 0.0000 0.0000
# 3 23.3114 22.9696 103.8218 0.0000 0.0000 0.0000
# 4 0.0000 0.0000 0.0000 30.1534 0.0000 0.0000
# 5 0.0000 0.0000 0.0000 0.0000 15.3388 0.0000
# 6 0.0000 0.0000 0.0000 0.0000 0.0000 6.8389
#
#
#
# Elastic Compliance Matrix: (Units=1/GPa)
#
#
# Indices 1 2 3 4 5 6 
#
# 1 0.008768 -0.001267 -0.001688 0.000000 0.000000 0.000000
# 2 -0.001267 0.018700 -0.003853 0.000000 0.000000 0.000000
# 3 -0.001688 -0.003853 0.010863 0.000000 0.000000 0.000000
# 4 0.000000 0.000000 0.000000 0.033164 0.000000 0.000000
# 5 0.000000 0.000000 0.000000 0.000000 0.065194 0.000000
# 6 0.000000 0.000000 0.000000 0.000000 0.000000 0.146223
#
#
# Mechanical properties :
#
#
# Convention : Reuss Voigt Hill
#
# Bulk Modulus (GPa) = 40.46154 44.64523 42.55339
# Shear Modulus (GPa) = 16.40600 25.40464 20.90532
#
# Velocity S-wave (km/s) = 2.87647 3.57944 3.24703
# Velocity P-wave (km/s) = 5.60697 6.29279 5.95975
#
# Compressibility (1/GPa) = 0.02471483
#
# Stress axis : x y z
#
# Youngs Moduli (GPa) = 114.04846 53.47676 92.05269
#
# Poissons Ratio (x) = 0.06777 0.15542
# Poissons Ratio (y) = 0.14452 0.35464
# Poissons Ratio (z) = 0.19256 0.20602
#
# Static dielectric constant tensor:
#      x y z
#    x 3.480650 0.000000 0.000000 
#    y 0.000000 3.550520 0.000000 
#    z 0.000000 0.000000 3.720580 
# 
# 
# High freq. dielectric constant tensor:
#      x y z
#    x 1.773290 0.000000 0.000000 
#    y 0.000000 1.764550 0.000000 
#    z 0.000000 0.000000 1.779600 
# 
# From -- ./inp_files/52825.got.cif
#   From: 2010.03.12/outbox.cif.g09.slc.cpg/sg64_27_cif.got.tgz:52825.got - 2010.04.10 20:19:32.
