data_PCOD8262756
_publ_section_title
;
Structure prediction by ZEFSAII (Michael W. Deem and Ramdas Pophale) SiO2 
 PCOD8262756
Probable space group: C M C A
;
_chemical_formula_sum "Si O2"
_cell_formula_units_Z 96
_cell_length_a 9.058975
_cell_length_b 19.899367
_cell_length_c 30.454573
_cell_angle_alpha 90.000000
_cell_angle_beta 90.000000
_cell_angle_gamma 90.000000
_cell_volume 5489.980951
_symmetry_space_group_name_H-M "C M C A"
_symmetry_group_IT_number 64
_symmetry_cell_setting 'orthorhombic'
loop_
_space_group_symop_operation_xyz
x,y,z
-x,1/2-y,1/2+z
x,-y,-z
-x,1/2+y,1/2-z
-x,-y,-z
x,1/2+y,1/2-z
-x,y,z
x,1/2-y,1/2+z
1/2+x,1/2+y,z
1/2-x,-y,1/2+z
1/2+x,1/2-y,-z
1/2-x,y,1/2-z
1/2-x,1/2-y,-z
1/2+x,y,1/2-z
1/2-x,1/2+y,z
1/2+x,-y,1/2+z
loop_
_atom_site_type_symbol
_atom_site_label
_atom_site_fract_x
_atom_site_fract_y
_atom_site_fract_z
Si Si1 0.825246 0.448946 0.535412
Si Si2 0.174893 0.701658 0.465784
Si Si3 0.673400 0.955916 0.204944
Si Si4 0.826604 0.301582 0.205336
Si Si5 0.825343 0.700973 0.367898
Si Si6 0.825839 0.451322 0.634687
O O1 0.753745 0.500000 0.500000
O O2 0.772227 0.374005 0.523637
O O3 0.778863 0.469004 0.584788
O O4 0.000000 0.451136 0.532575
O O5 0.250000 0.750000 0.500000
O O6 0.230597 0.719982 0.416675
O O7 0.000000 0.708692 0.469608
O O8 0.500000 0.967416 0.210038
O O9 0.750000 0.978830 0.250000
O O10 0.712052 0.878577 0.194204
O O11 0.734344 0.999965 0.165521
O O12 0.750000 0.278224 0.250000
O O13 0.761045 0.254699 0.166665
O O14 0.000000 0.290980 0.211143
O O15 0.778400 0.625375 0.354786
O O16 0.000000 0.704407 0.368492
O O17 0.000000 0.462002 0.642158
#
# Coordination Sequence:
#
# PCOD8262756 Si02
#       6
#    16  16  16  16  16  16
#     4   8  15  29  48  69  94 126 161 192 226 275
#     4   9  17  30  48  69  94 124 156 191 231 274
#     4  10  20  33  49  69  94 122 152 189 232 278
#     4   9  18  33  50  67  90 120 153 188 227 274
#     4   8  16  32  50  67  92 126 157 186 230 281
#     4   9  17  31  51  71  93 123 158 195 232 273
#
# _framework density 17.4864
#
# number of rings (size 3 to 8) (size 9 to 14) (size 15 to 20)
#    0.000    3.167    0.000    2.500    0.000    2.667 
#    0.000    6.667    0.000    1.000    0.000    0.000 
#    0.000    0.000    0.000    0.000    0.000    0.000 
#
# Total GULP energy -595019.887072 kJ/mol
# GULP energy per Si atom -12396.247647 kJ/mol
# Density = 1.744660 g / cm^3
# Si number density = 17.486400 Si / 1000 Ang^3
#
#
#
# Elastic Constant Matrix: (Units=GPa)
#
#
# Indices 1 2 3 4 5 6 
#
# 1 37.9051 35.2981 42.7509 0.0000 0.0000 0.0000
# 2 35.2981 121.4424 112.5952 0.0000 0.0000 0.0000
# 3 42.7509 112.5952 166.2990 0.0000 0.0000 0.0000
# 4 0.0000 0.0000 0.0000 42.7512 0.0000 0.0000
# 5 0.0000 0.0000 0.0000 0.0000 28.0346 0.0000
# 6 0.0000 0.0000 0.0000 0.0000 0.0000 17.6393
#
#
#
# Elastic Compliance Matrix: (Units=1/GPa)
#
#
# Indices 1 2 3 4 5 6 
#
# 1 0.038429 -0.005400 -0.006223 0.000000 0.000000 0.000000
# 2 -0.005400 0.022879 -0.014102 0.000000 0.000000 0.000000
# 3 -0.006223 -0.014102 0.017161 0.000000 0.000000 0.000000
# 4 0.000000 0.000000 0.000000 0.023391 0.000000 0.000000
# 5 0.000000 0.000000 0.000000 0.000000 0.035670 0.000000
# 6 0.000000 0.000000 0.000000 0.000000 0.000000 0.056692
#
#
# Mechanical properties :
#
#
# Convention : Reuss Voigt Hill
#
# Bulk Modulus (GPa) = 37.01193 78.54833 57.78013
# Shear Modulus (GPa) = 19.63266 26.68517 23.15892
#
# Velocity S-wave (km/s) = 3.35436 3.91071 3.64317
# Velocity P-wave (km/s) = 6.01784 8.08757 7.12822
#
# Compressibility (1/GPa) = 0.02701831
#
# Stress axis : x y z
#
# Youngs Moduli (GPa) = 26.02228 43.70857 58.27168
#
# Poissons Ratio (x) = 0.23604 0.36260
# Poissons Ratio (y) = 0.14053 0.82176
# Poissons Ratio (z) = 0.16193 0.61639
#
# Static dielectric constant tensor:
#      x y z
#    x 2.885320 0.000000 0.000000 
#    y 0.000000 3.495700 0.000000 
#    z 0.000000 0.000000 3.630850 
# 
# 
# High freq. dielectric constant tensor:
#      x y z
#    x 1.641130 0.000000 0.000000 
#    y 0.000000 1.679170 0.000000 
#    z 0.000000 0.000000 1.684690 
# 
# From -- ./inp_files/48117.got.cif
#   From: 2010.03.12/outbox.cif.g09.slc.cpg/sg64_25_cif.got.tgz:48117.got - 2010.04.10 20:19:32.
