data_PCOD8262390
_publ_section_title
;
Structure prediction by ZEFSAII (Michael W. Deem and Ramdas Pophale) SiO2 
 PCOD8262390
Probable space group: C M C A
;
_chemical_formula_sum "Si O2"
_cell_formula_units_Z 112
_cell_length_a 23.510161
_cell_length_b 12.984805
_cell_length_c 18.378444
_cell_angle_alpha 90.000000
_cell_angle_beta 90.000000
_cell_angle_gamma 90.000000
_cell_volume 5610.476848
_symmetry_space_group_name_H-M "C M C A"
_symmetry_group_IT_number 64
_symmetry_cell_setting 'orthorhombic'
loop_
_space_group_symop_operation_xyz
x,y,z
-x,1/2-y,1/2+z
x,-y,-z
-x,1/2+y,1/2-z
-x,-y,-z
x,1/2+y,1/2-z
-x,y,z
x,1/2-y,1/2+z
1/2+x,1/2+y,z
1/2-x,-y,1/2+z
1/2+x,1/2-y,-z
1/2-x,y,1/2-z
1/2-x,1/2-y,-z
1/2+x,y,1/2-z
1/2-x,1/2+y,z
1/2+x,-y,1/2+z
loop_
_atom_site_type_symbol
_atom_site_label
_atom_site_fract_x
_atom_site_fract_y
_atom_site_fract_z
Si Si1 0.936635 0.586712 0.311663
Si Si2 0.236059 0.394438 0.168460
Si Si3 0.656186 0.776298 0.379986
Si Si4 0.566027 0.572725 0.931987
Si Si5 0.936356 0.473789 0.165423
Si Si6 0.370443 0.221002 0.787158
Si Si7 0.166269 0.953992 0.578155
O O1 0.918719 0.488245 0.358514
O O2 0.934752 0.561266 0.226684
O O3 0.893203 0.678268 0.328230
O O4 0.000000 0.621530 0.335079
O O5 0.250000 0.429612 0.250000
O O6 0.289032 0.350965 0.122756
O O7 0.188648 0.305062 0.173310
O O8 0.212610 0.498071 0.132439
O O9 0.606691 0.827532 0.429556
O O10 0.635682 0.755123 0.298141
O O11 0.672111 0.669339 0.419474
O O12 0.500000 0.608268 0.934408
O O13 0.580585 0.500000 0.000000
O O14 0.915976 0.368818 0.202464
O O15 0.897189 0.510294 0.099227
O O16 0.000000 0.458763 0.135052
O O17 0.180432 0.000000 0.500000
#
# Coordination Sequence:
#
# PCOD8262390 Si02
#       7
#    16  16  16  16  16  16  16
#     4  10  19  33  60  89 116 156 205 251 296 357
#     4   9  23  41  63  90 121 160 212 259 301 361
#     4  11  22  40  63  87 119 164 202 249 317 365
#     4  10  23  40  60  92 127 159 201 254 308 366
#     4  10  20  36  59  89 123 160 205 251 296 358
#     4  10  19  36  60  92 120 159 208 257 302 358
#     4  11  25  42  61  92 128 160 203 252 312 382
#
# _framework density 19.962651999999999
#
# number of rings (size 3 to 8) (size 9 to 14) (size 15 to 20)
#    0.000    1.857    2.857    0.429    0.000    7.714 
#    0.000    1.429    0.000    0.000    0.000    0.000 
#    0.000    0.000    0.000    0.000    0.000    0.000 
#
# Total GULP energy -694518.656595 kJ/mol
# GULP energy per Si atom -12402.118868 kJ/mol
# Density = 1.991722 g / cm^3
# Si number density = 19.962652 Si / 1000 Ang^3
#
#
#
# Elastic Constant Matrix: (Units=GPa)
#
#
# Indices 1 2 3 4 5 6 
#
# 1 124.3156 63.7284 33.4581 0.0000 0.0000 0.0000
# 2 63.7284 124.6909 37.4964 0.0000 0.0000 0.0000
# 3 33.4581 37.4964 68.9382 0.0000 0.0000 0.0000
# 4 0.0000 0.0000 0.0000 21.9484 0.0000 0.0000
# 5 0.0000 0.0000 0.0000 0.0000 26.2797 0.0000
# 6 0.0000 0.0000 0.0000 0.0000 0.0000 32.4834
#
#
#
# Elastic Compliance Matrix: (Units=1/GPa)
#
#
# Indices 1 2 3 4 5 6 
#
# 1 0.011338 -0.004949 -0.002811 0.000000 0.000000 0.000000
# 2 -0.004949 0.011749 -0.003988 0.000000 0.000000 0.000000
# 3 -0.002811 -0.003988 0.018039 0.000000 0.000000 0.000000
# 4 0.000000 0.000000 0.000000 0.045561 0.000000 0.000000
# 5 0.000000 0.000000 0.000000 0.000000 0.038052 0.000000
# 6 0.000000 0.000000 0.000000 0.000000 0.000000 0.030785
#
#
# Mechanical properties :
#
#
# Convention : Reuss Voigt Hill
#
# Bulk Modulus (GPa) = 56.72403 65.25672 60.99037
# Shear Modulus (GPa) = 27.04216 28.35978 27.70097
#
# Velocity S-wave (km/s) = 3.68453 3.77323 3.72914
# Velocity P-wave (km/s) = 6.82479 7.19329 7.01146
#
# Compressibility (1/GPa) = 0.01762921
#
# Stress axis : x y z
#
# Youngs Moduli (GPa) = 88.20122 85.11556 55.43549
#
# Poissons Ratio (x) = 0.42127 0.15580
# Poissons Ratio (y) = 0.43655 0.22109
# Poissons Ratio (z) = 0.24789 0.33945
#
# Static dielectric constant tensor:
#      x y z
#    x 3.772530 0.000000 0.000000 
#    y 0.000000 3.477320 0.000000 
#    z 0.000000 0.000000 3.423060 
# 
# 
# High freq. dielectric constant tensor:
#      x y z
#    x 1.787230 0.000000 0.000000 
#    y 0.000000 1.776310 0.000000 
#    z 0.000000 0.000000 1.761870 
# 
# From -- ./inp_files/41545.got.cif
#   From: 2010.03.12/outbox.cif.g09.slc.cpg/sg64_21_cif.got.tgz:41545.got - 2010.04.10 20:19:32.
