data_PCOD8262113
_publ_section_title
;
Structure prediction by ZEFSAII (Michael W. Deem and Ramdas Pophale) SiO2 
 PCOD8262113
Probable space group: C M C A
;
_chemical_formula_sum "Si O2"
_cell_formula_units_Z 104
_cell_length_a 24.647009
_cell_length_b 12.945880
_cell_length_c 18.035775
_cell_angle_alpha 90.000000
_cell_angle_beta 90.000000
_cell_angle_gamma 90.000000
_cell_volume 5754.804963
_symmetry_space_group_name_H-M "C M C A"
_symmetry_group_IT_number 64
_symmetry_cell_setting 'orthorhombic'
loop_
_space_group_symop_operation_xyz
x,y,z
-x,1/2-y,1/2+z
x,-y,-z
-x,1/2+y,1/2-z
-x,-y,-z
x,1/2+y,1/2-z
-x,y,z
x,1/2-y,1/2+z
1/2+x,1/2+y,z
1/2-x,-y,1/2+z
1/2+x,1/2-y,-z
1/2-x,y,1/2-z
1/2-x,1/2-y,-z
1/2+x,y,1/2-z
1/2-x,1/2+y,z
1/2+x,-y,1/2+z
loop_
_atom_site_type_symbol
_atom_site_label
_atom_site_fract_x
_atom_site_fract_y
_atom_site_fract_z
Si Si1 0.147751 0.000000 0.000000
Si Si2 0.628981 0.648776 0.780321
Si Si3 0.939355 0.486422 0.375477
Si Si4 0.885807 0.324436 0.675311
Si Si5 0.810603 0.458424 0.772657
Si Si6 0.315321 0.286307 0.952911
Si Si7 0.698379 0.784854 0.890593
O O1 0.107458 0.031312 0.934738
O O2 0.187337 0.905688 0.979840
O O3 0.575445 0.596977 0.813722
O O4 0.599697 0.738784 0.734741
O O5 0.659165 0.569152 0.724223
O O6 0.671890 0.693851 0.840655
O O7 0.937130 0.602108 0.341133
O O8 0.000000 0.466614 0.406275
O O9 0.835945 0.393281 0.705417
O O10 0.867352 0.269930 0.599010
O O11 0.750000 0.481872 0.750000
O O12 0.812926 0.395214 0.850587
O O13 0.262125 0.259773 0.903787
O O14 0.324902 0.213721 0.025157
#
# Coordination Sequence:
#
# PCOD8262113 Si02
#       7
#     8  16  16  16  16  16  16
#     4  10  19  36  52  80 112 136 181 228 272 322
#     4  10  21  35  54  77 110 141 179 218 273 325
#     4  10  20  36  58  79 101 137 181 233 277 311
#     4   9  20  35  50  77 108 135 176 226 260 321
#     4  10  19  31  49  75 106 144 180 210 258 322
#     4  10  19  33  51  75 112 145 179 221 257 313
#     4  10  20  33  49  76 109 148 180 212 260 321
#
# _framework density 18.071853999999998
#
# number of rings (size 3 to 8) (size 9 to 14) (size 15 to 20)
#    0.000    2.154    3.077    0.231    2.154    0.615 
#    2.769    0.000    0.000    0.000    0.000    0.000 
#    0.000    7.077    0.000    0.000    0.000    0.000 
#
# Total GULP energy -644315.932979 kJ/mol
# GULP energy per Si atom -12390.691019 kJ/mol
# Density = 1.803072 g / cm^3
# Si number density = 18.071854 Si / 1000 Ang^3
#
#
#
# Elastic Constant Matrix: (Units=GPa)
#
#
# Indices 1 2 3 4 5 6 
#
# 1 57.2640 23.4953 14.8606 0.0000 0.0000 0.0000
# 2 23.4953 62.9555 29.1595 0.0000 0.0000 0.0000
# 3 14.8606 29.1595 79.2519 0.0000 0.0000 0.0000
# 4 0.0000 0.0000 0.0000 29.9822 0.0000 0.0000
# 5 0.0000 0.0000 0.0000 0.0000 -9.5905 0.0000
# 6 0.0000 0.0000 0.0000 0.0000 0.0000 10.1663
#
#
#
# Elastic Compliance Matrix: (Units=1/GPa)
#
#
# Indices 1 2 3 4 5 6 
#
# 1 0.020723 -0.007153 -0.001254 0.000000 0.000000 0.000000
# 2 -0.007153 0.021616 -0.006612 0.000000 0.000000 0.000000
# 3 -0.001254 -0.006612 0.015286 0.000000 0.000000 0.000000
# 4 0.000000 0.000000 0.000000 0.033353 0.000000 0.000000
# 5 0.000000 0.000000 0.000000 0.000000 -0.104270 0.000000
# 6 0.000000 0.000000 0.000000 0.000000 0.000000 0.098364
#
#
# Mechanical properties :
#
#
# Convention : Reuss Voigt Hill
#
# Bulk Modulus (GPa) = 36.24880 37.16692 36.70786
# Shear Modulus (GPa) = 40.22281 14.90866 27.56573
#
# Velocity S-wave (km/s) = 4.72287 2.87534 3.90980
# Velocity P-wave (km/s) = 7.05991 5.62443 6.38266
#
# Compressibility (1/GPa) = 0.02758712
#
# Stress axis : x y z
#
# Youngs Moduli (GPa) = 48.25480 46.26108 65.41960
#
# Poissons Ratio (x) = 0.33092 0.08203
# Poissons Ratio (y) = 0.34518 0.43256
# Poissons Ratio (z) = 0.06051 0.30588
#
# Static dielectric constant tensor:
#      x y z
#    x 2.969580 0.000000 0.000000 
#    y 0.000000 3.405750 0.000000 
#    z 0.000000 0.000000 3.565250 
# 
# 
# High freq. dielectric constant tensor:
#      x y z
#    x 1.667100 0.000000 0.000000 
#    y 0.000000 1.694320 0.000000 
#    z 0.000000 0.000000 1.708340 
# 
# From -- ./inp_files/35784.got.cif
#   From: 2010.03.12/outbox.cif.g09.slc.cpg/sg64_18_cif.got.tgz:35784.got - 2010.04.10 20:19:32.
