data_PCOD8262438
_publ_section_title
;
Structure prediction by ZEFSAII (Michael W. Deem and Ramdas Pophale) SiO2 
 PCOD8262438
Probable space group: C M C A
;
_chemical_formula_sum "Si O2"
_cell_formula_units_Z 112
_cell_length_a 16.685733
_cell_length_b 18.589500
_cell_length_c 19.674336
_cell_angle_alpha 90.000000
_cell_angle_beta 90.000000
_cell_angle_gamma 90.000000
_cell_volume 6102.574397
_symmetry_space_group_name_H-M "C M C A"
_symmetry_group_IT_number 64
_symmetry_cell_setting 'orthorhombic'
loop_
_space_group_symop_operation_xyz
x,y,z
-x,1/2-y,1/2+z
x,-y,-z
-x,1/2+y,1/2-z
-x,-y,-z
x,1/2+y,1/2-z
-x,y,z
x,1/2-y,1/2+z
1/2+x,1/2+y,z
1/2-x,-y,1/2+z
1/2+x,1/2-y,-z
1/2-x,y,1/2-z
1/2-x,1/2-y,-z
1/2+x,y,1/2-z
1/2-x,1/2+y,z
1/2+x,-y,1/2+z
loop_
_atom_site_type_symbol
_atom_site_label
_atom_site_fract_x
_atom_site_fract_y
_atom_site_fract_z
Si Si1 0.658906 0.352277 0.254821
Si Si2 0.832477 0.275054 0.848456
Si Si3 0.905706 0.070295 0.955152
Si Si4 0.854378 0.258348 0.638563
Si Si5 0.159586 0.776925 0.009475
Si Si6 0.408202 0.481361 0.188680
Si Si7 0.091178 0.128981 0.242357
O O1 0.750000 0.379154 0.250000
O O2 0.642451 0.292427 0.197626
O O3 0.637874 0.320796 0.329012
O O4 0.601463 0.420231 0.245570
O O5 0.737550 0.283582 0.855472
O O6 0.873528 0.263414 0.922836
O O7 0.863326 0.346334 0.810739
O O8 0.851607 0.136945 0.981467
O O9 0.870976 0.048852 0.881210
O O10 0.000000 0.092570 0.954527
O O11 0.891264 0.000000 0.000000
O O12 0.885542 0.255364 0.560558
O O13 0.907204 0.314107 0.680993
O O14 0.250000 0.750000 0.000000
O O15 0.500000 0.498945 0.173546
O O16 0.368074 0.555120 0.215345
O O17 0.000000 0.115814 0.264224
#
# Coordination Sequence:
#
# PCOD8262438 Si02
#       7
#    16  16  16  16  16  16  16
#     4   9  17  31  50  74 100 131 172 214 255 311
#     4   9  18  34  53  75 104 136 174 214 264 316
#     4  10  20  34  54  82 115 142 173 224 286 337
#     4   9  19  33  52  75 106 133 170 217 265 312
#     4  10  19  34  57  79 112 143 180 224 270 327
#     4  10  20  33  50  74 104 136 174 217 264 316
#     4  10  20  33  51  77 106 137 176 220 264 319
#
# _framework density 18.352910000000001
#
# number of rings (size 3 to 8) (size 9 to 14) (size 15 to 20)
#    0.000    2.429    1.429    2.143    0.000    5.714 
#    0.000    0.000    0.000    0.000    0.000    2.000 
#    0.000    0.000    0.000    0.000    0.000    0.000 
#
# Total GULP energy -694017.199744 kJ/mol
# GULP energy per Si atom -12393.164281 kJ/mol
# Density = 1.831114 g / cm^3
# Si number density = 18.352910 Si / 1000 Ang^3
#
#
#
# Elastic Constant Matrix: (Units=GPa)
#
#
# Indices 1 2 3 4 5 6 
#
# 1 31.1884 28.6420 16.1332 0.0000 0.0000 0.0000
# 2 28.6420 107.9323 50.1470 0.0000 0.0000 0.0000
# 3 16.1332 50.1470 152.3274 0.0000 0.0000 0.0000
# 4 0.0000 0.0000 0.0000 32.8538 0.0000 0.0000
# 5 0.0000 0.0000 0.0000 0.0000 18.5488 0.0000
# 6 0.0000 0.0000 0.0000 0.0000 0.0000 28.7490
#
#
#
# Elastic Compliance Matrix: (Units=1/GPa)
#
#
# Indices 1 2 3 4 5 6 
#
# 1 0.042507 -0.010847 -0.000931 0.000000 0.000000 0.000000
# 2 -0.010847 0.013706 -0.003363 0.000000 0.000000 0.000000
# 3 -0.000931 -0.003363 0.007771 0.000000 0.000000 0.000000
# 4 0.000000 0.000000 0.000000 0.030438 0.000000 0.000000
# 5 0.000000 0.000000 0.000000 0.000000 0.053912 0.000000
# 6 0.000000 0.000000 0.000000 0.000000 0.000000 0.034784
#
#
# Mechanical properties :
#
#
# Convention : Reuss Voigt Hill
#
# Bulk Modulus (GPa) = 29.67343 53.47693 41.57518
# Shear Modulus (GPa) = 22.25843 29.13203 25.69523
#
# Velocity S-wave (km/s) = 3.48631 3.98845 3.74580
# Velocity P-wave (km/s) = 5.69290 7.10012 6.43509
#
# Compressibility (1/GPa) = 0.03370018
#
# Stress axis : x y z
#
# Youngs Moduli (GPa) = 23.52574 72.95912 128.68985
#
# Poissons Ratio (x) = 0.79142 0.11980
# Poissons Ratio (y) = 0.25519 0.43282
# Poissons Ratio (z) = 0.02190 0.24538
#
# Static dielectric constant tensor:
#      x y z
#    x 3.101720 0.000000 0.000000 
#    y 0.000000 3.359610 0.000000 
#    z 0.000000 0.000000 3.882820 
# 
# 
# High freq. dielectric constant tensor:
#      x y z
#    x 1.681050 0.000000 0.000000 
#    y 0.000000 1.702890 0.000000 
#    z 0.000000 0.000000 1.721050 
# 
# From -- ./inp_files/40379.got.cif
#   From: 2010.03.12/outbox.cif.g09.slc.cpg/sg64_21_cif.got.tgz:40379.got - 2010.04.10 20:19:32.
