data_PCOD8262018
_publ_section_title
;
Structure prediction by ZEFSAII (Michael W. Deem and Ramdas Pophale) SiO2 
 PCOD8262018
Probable space group: C M C A
;
_chemical_formula_sum "Si O2"
_cell_formula_units_Z 96
_cell_length_a 8.922408
_cell_length_b 27.545566
_cell_length_c 23.642494
_cell_angle_alpha 90.000000
_cell_angle_beta 90.000000
_cell_angle_gamma 90.000000
_cell_volume 5810.681440
_symmetry_space_group_name_H-M "C M C A"
_symmetry_group_IT_number 64
_symmetry_cell_setting 'orthorhombic'
loop_
_space_group_symop_operation_xyz
x,y,z
-x,1/2-y,1/2+z
x,-y,-z
-x,1/2+y,1/2-z
-x,-y,-z
x,1/2+y,1/2-z
-x,y,z
x,1/2-y,1/2+z
1/2+x,1/2+y,z
1/2-x,-y,1/2+z
1/2+x,1/2-y,-z
1/2-x,y,1/2-z
1/2-x,1/2-y,-z
1/2+x,y,1/2-z
1/2-x,1/2+y,z
1/2+x,-y,1/2+z
loop_
_atom_site_type_symbol
_atom_site_label
_atom_site_fract_x
_atom_site_fract_y
_atom_site_fract_z
Si Si1 0.823144 0.479983 0.087971
Si Si2 0.323664 0.426709 0.522846
Si Si3 0.175378 0.181359 0.470649
Si Si4 0.823401 0.820075 0.191317
Si Si5 0.824117 0.931104 0.191957
Si Si6 0.174376 0.267740 0.087600
O O1 0.783621 0.535932 0.073030
O O2 0.734971 0.466644 0.143936
O O3 0.000000 0.473046 0.097480
O O4 0.761727 0.446139 0.037108
O O5 0.500000 0.423395 0.515327
O O6 0.261243 0.373274 0.536820
O O7 0.207242 0.196922 0.535032
O O8 0.267747 0.213999 0.426965
O O9 0.000000 0.186052 0.456199
O O10 0.750000 0.802954 0.250000
O O11 0.778279 0.875688 0.178080
O O12 0.763104 0.786666 0.141488
O O13 0.000000 0.813549 0.196503
O O14 0.750000 0.948365 0.250000
O O15 0.000000 0.936945 0.197967
O O16 0.000000 0.265535 0.102429
#
# Coordination Sequence:
#
# PCOD8262018 Si02
#       6
#    16  16  16  16  16  16
#     4   9  16  29  49  71  95 123 156 191 228 272
#     4   8  15  28  48  71  94 125 159 188 225 274
#     4   9  17  30  47  68  96 128 159 190 227 273
#     4  10  20  33  49  69  94 123 154 189 230 278
#     4  10  20  32  47  69  95 123 154 188 230 276
#     4  10  19  30  47  71  96 123 156 193 233 275
#
# _framework density 16.521298999999999
#
# number of rings (size 3 to 8) (size 9 to 14) (size 15 to 20)
#    0.000    2.667    0.000    3.500    0.000    4.000 
#    0.000    3.333    0.000    1.000    0.000    4.667 
#    0.000    0.000    0.000    0.000    0.000    0.000 
#
# Total GULP energy -595197.893218 kJ/mol
# GULP energy per Si atom -12399.956109 kJ/mol
# Density = 1.648370 g / cm^3
# Si number density = 16.521299 Si / 1000 Ang^3
#
#
#
# Elastic Constant Matrix: (Units=GPa)
#
#
# Indices 1 2 3 4 5 6 
#
# 1 58.9291 35.5503 45.8428 0.0000 0.0000 0.0000
# 2 35.5503 124.6371 62.4758 0.0000 0.0000 0.0000
# 3 45.8428 62.4758 118.3346 0.0000 0.0000 0.0000
# 4 0.0000 0.0000 0.0000 22.3527 0.0000 0.0000
# 5 0.0000 0.0000 0.0000 0.0000 28.9981 0.0000
# 6 0.0000 0.0000 0.0000 0.0000 0.0000 21.0331
#
#
#
# Elastic Compliance Matrix: (Units=1/GPa)
#
#
# Indices 1 2 3 4 5 6 
#
# 1 0.025148 -0.003113 -0.008099 0.000000 0.000000 0.000000
# 2 -0.003113 0.011296 -0.004758 0.000000 0.000000 0.000000
# 3 -0.008099 -0.004758 0.014100 0.000000 0.000000 0.000000
# 4 0.000000 0.000000 0.000000 0.044737 0.000000 0.000000
# 5 0.000000 0.000000 0.000000 0.000000 0.034485 0.000000
# 6 0.000000 0.000000 0.000000 0.000000 0.000000 0.047544
#
#
# Mechanical properties :
#
#
# Convention : Reuss Voigt Hill
#
# Bulk Modulus (GPa) = 53.75048 65.51542 59.63295
# Shear Modulus (GPa) = 23.20708 25.01225 24.10967
#
# Velocity S-wave (km/s) = 3.75197 3.89516 3.82423
# Velocity P-wave (km/s) = 7.16759 7.74409 7.46141
#
# Compressibility (1/GPa) = 0.01860449
#
# Stress axis : x y z
#
# Youngs Moduli (GPa) = 39.76478 88.52496 70.92254
#
# Poissons Ratio (x) = 0.27562 0.57437
# Poissons Ratio (y) = 0.12381 0.33744
# Poissons Ratio (z) = 0.32204 0.42118
#
# Static dielectric constant tensor:
#      x y z
#    x 2.987750 0.000000 0.000000 
#    y 0.000000 3.337260 0.000000 
#    z 0.000000 0.000000 2.994300 
# 
# 
# High freq. dielectric constant tensor:
#      x y z
#    x 1.629030 0.000000 0.000000 
#    y 0.000000 1.630040 0.000000 
#    z 0.000000 0.000000 1.627230 
# 
# From -- ./inp_files/36950.got.cif
#   From: 2010.03.12/outbox.cif.g09.slc.cpg/sg64_19_cif.got.tgz:36950.got - 2010.04.10 20:19:32.
