data_PCOD8262452
_publ_section_title
;
Structure prediction by ZEFSAII (Michael W. Deem and Ramdas Pophale) SiO2 
 PCOD8262452
Probable space group: C M C A
;
_chemical_formula_sum "Si O2"
_cell_formula_units_Z 96
_cell_length_a 19.079157
_cell_length_b 17.293541
_cell_length_c 15.440831
_cell_angle_alpha 90.000000
_cell_angle_beta 90.000000
_cell_angle_gamma 90.000000
_cell_volume 5094.643264
_symmetry_space_group_name_H-M "C M C A"
_symmetry_group_IT_number 64
_symmetry_cell_setting 'orthorhombic'
loop_
_space_group_symop_operation_xyz
x,y,z
-x,1/2-y,1/2+z
x,-y,-z
-x,1/2+y,1/2-z
-x,-y,-z
x,1/2+y,1/2-z
-x,y,z
x,1/2-y,1/2+z
1/2+x,1/2+y,z
1/2-x,-y,1/2+z
1/2+x,1/2-y,-z
1/2-x,y,1/2-z
1/2-x,1/2-y,-z
1/2+x,y,1/2-z
1/2-x,1/2+y,z
1/2+x,-y,1/2+z
loop_
_atom_site_type_symbol
_atom_site_label
_atom_site_fract_x
_atom_site_fract_y
_atom_site_fract_z
Si Si1 0.199865 0.601605 0.326580
Si Si2 0.080314 0.781585 0.793969
Si Si3 0.577853 0.796702 0.023042
Si Si4 0.675246 0.450910 0.086475
Si Si5 0.227687 0.839101 0.503613
Si Si6 0.078886 0.183116 0.867329
O O1 0.250000 0.624254 0.250000
O O2 0.124862 0.641489 0.311617
O O3 0.191062 0.509608 0.335486
O O4 0.240563 0.630625 0.409243
O O5 0.111557 0.735793 0.710184
O O6 0.000000 0.807674 0.777595
O O7 0.085933 0.727233 0.877564
O O8 0.500000 0.834881 0.008392
O O9 0.643271 0.852433 0.000243
O O10 0.585443 0.723018 0.960766
O O11 0.611134 0.401098 0.121919
O O12 0.655780 0.500000 0.000000
O O13 0.739800 0.391324 0.073046
O O14 0.250000 0.750000 0.500000
O O15 0.000000 0.168417 0.838641
#
# Coordination Sequence:
#
# PCOD8262452 Si02
#       6
#    16  16  16  16  16  16
#     4  11  23  37  55  85 118 152 193 240 298 350
#     4  10  21  36  57  86 117 152 198 243 287 353
#     4  10  19  34  57  86 115 146 194 243 286 336
#     4  10  22  37  55  83 120 151 188 247 305 354
#     4  11  19  37  61  85 112 151 196 241 284 347
#     4  10  20  35  58  88 117 154 201 239 287 356
#
# _framework density 18.843321
#
# number of rings (size 3 to 8) (size 9 to 14) (size 15 to 20)
#    0.000    1.667    3.333    2.000    0.000    2.333 
#    0.000    0.000    0.000    5.500    0.000    0.000 
#    0.000    0.000    0.000    0.000    0.000    0.000 
#
# Total GULP energy -594920.146110 kJ/mol
# GULP energy per Si atom -12394.169711 kJ/mol
# Density = 1.880043 g / cm^3
# Si number density = 18.843321 Si / 1000 Ang^3
#
#
#
# Elastic Constant Matrix: (Units=GPa)
#
#
# Indices 1 2 3 4 5 6 
#
# 1 126.1854 58.1894 29.8281 0.0000 0.0000 0.0000
# 2 58.1894 102.1628 23.7100 0.0000 0.0000 0.0000
# 3 29.8281 23.7100 65.4953 0.0000 0.0000 0.0000
# 4 0.0000 0.0000 0.0000 -535.2667 0.0000 0.0000
# 5 0.0000 0.0000 0.0000 0.0000 27.6669 0.0000
# 6 0.0000 0.0000 0.0000 0.0000 0.0000 33.9826
#
#
#
# Elastic Compliance Matrix: (Units=1/GPa)
#
#
# Indices 1 2 3 4 5 6 
#
# 1 0.011287 -0.005716 -0.003071 0.000000 0.000000 0.000000
# 2 -0.005716 0.013581 -0.002313 0.000000 0.000000 0.000000
# 3 -0.003071 -0.002313 0.017504 0.000000 0.000000 0.000000
# 4 0.000000 0.000000 0.000000 -0.001868 0.000000 0.000000
# 5 0.000000 0.000000 0.000000 0.000000 0.036144 0.000000
# 6 0.000000 0.000000 0.000000 0.000000 0.000000 0.029427
#
#
# Mechanical properties :
#
#
# Convention : Reuss Voigt Hill
#
# Bulk Modulus (GPa) = 49.57493 57.47761 53.52627
# Shear Modulus (GPa) = 37.03744 -82.58238 -22.77247
#
# Velocity S-wave (km/s) = 4.43826 -6.62729 -3.48014
# Velocity P-wave (km/s) = 7.25468 5.29076 3.50986
#
# Compressibility (1/GPa) = 0.02017149
#
# Stress axis : x y z
#
# Youngs Moduli (GPa) = 88.60070 73.63351 57.12888
#
# Poissons Ratio (x) = 0.42088 0.17544
# Poissons Ratio (y) = 0.50643 0.13215
# Poissons Ratio (z) = 0.27209 0.17033
#
# Static dielectric constant tensor:
#      x y z
#    x 3.070420 0.000000 0.000000 
#    y 0.000000 3.132770 0.000000 
#    z 0.000000 0.000000 5.553640 
# 
# 
# High freq. dielectric constant tensor:
#      x y z
#    x 1.740660 0.000000 0.000000 
#    y 0.000000 1.708210 0.000000 
#    z 0.000000 0.000000 1.740210 
# 
# From -- ./inp_files/26342.got.cif
#   From: 2010.03.12/outbox.cif.g09.slc.cpg/sg64_14_cif.got.tgz:26342.got - 2010.04.10 20:19:32.
