data_PCOD8262668
_publ_section_title
;
Structure prediction by ZEFSAII (Michael W. Deem and Ramdas Pophale) SiO2 
 PCOD8262668
Probable space group: C M C A
;
_chemical_formula_sum "Si O2"
_cell_formula_units_Z 96
_cell_length_a 14.038254
_cell_length_b 18.028838
_cell_length_c 20.384348
_cell_angle_alpha 90.000000
_cell_angle_beta 90.000000
_cell_angle_gamma 90.000000
_cell_volume 5159.144088
_symmetry_space_group_name_H-M "C M C A"
_symmetry_group_IT_number 64
_symmetry_cell_setting 'orthorhombic'
loop_
_space_group_symop_operation_xyz
x,y,z
-x,1/2-y,1/2+z
x,-y,-z
-x,1/2+y,1/2-z
-x,-y,-z
x,1/2+y,1/2-z
-x,y,z
x,1/2-y,1/2+z
1/2+x,1/2+y,z
1/2-x,-y,1/2+z
1/2+x,1/2-y,-z
1/2-x,y,1/2-z
1/2-x,1/2-y,-z
1/2+x,y,1/2-z
1/2-x,1/2+y,z
1/2+x,-y,1/2+z
loop_
_atom_site_type_symbol
_atom_site_label
_atom_site_fract_x
_atom_site_fract_y
_atom_site_fract_z
Si Si1 0.500000 0.546488 0.376614
Si Si2 0.296793 0.214710 0.063327
Si Si3 0.500000 0.721575 0.384765
Si Si4 0.000000 0.708194 0.758018
Si Si5 0.820684 0.039947 0.189533
Si Si6 0.000000 0.465031 0.259888
Si Si7 0.801741 0.040834 0.434619
Si Si8 0.821406 0.790312 0.809555
O O1 0.500000 0.634833 0.367748
O O2 0.500000 0.516207 0.303620
O O3 0.408721 0.517007 0.415773
O O4 0.405494 0.243206 0.073986
O O5 0.232957 0.236639 0.125543
O O6 0.297293 0.127537 0.052777
O O7 0.250000 0.250000 0.000000
O O8 0.500000 0.764738 0.316485
O O9 0.090517 0.736530 0.798264
O O10 0.000000 0.619999 0.760393
O O11 0.750000 0.030113 0.250000
O O12 0.767831 0.015907 0.123362
O O13 0.908085 0.983916 0.196617
O O14 0.856949 0.124779 0.184948
O O15 0.768272 0.000000 0.500000
O O16 0.750000 0.782106 0.750000
#
# Coordination Sequence:
#
# PCOD8262668 Si02
#       8
#     8  16   8   8  16   8  16  16
#     4  10  19  38  62  85 114 154 206 241 290 356
#     4  10  22  38  61  88 118 158 199 247 299 354
#     4  10  20  40  61  81 118 164 203 239 298 366
#     4  12  24  35  58  93 125 153 189 261 308 338
#     4  10  20  39  63  83 115 158 199 238 287 359
#     4  12  24  35  56  95 123 149 193 253 308 338
#     4  10  21  37  61  88 117 156 193 246 296 348
#     4  10  20  39  64  85 111 158 209 238 284 362
#
# _framework density 18.607738000000001
#
# number of rings (size 3 to 8) (size 9 to 14) (size 15 to 20)
#    0.000    1.667    3.333    1.750    0.000    4.000 
#    0.000    1.250    0.000    0.000    0.000    0.000 
#    0.000    0.000    0.000    0.000    0.000    0.000 
#
# Total GULP energy -595362.447644 kJ/mol
# GULP energy per Si atom -12403.384326 kJ/mol
# Density = 1.856539 g / cm^3
# Si number density = 18.607738 Si / 1000 Ang^3
#
#
#
# Elastic Constant Matrix: (Units=GPa)
#
#
# Indices 1 2 3 4 5 6 
#
# 1 152.8129 64.4304 73.8731 0.0000 0.0000 0.0000
# 2 64.4304 61.4647 40.3975 0.0000 0.0000 0.0000
# 3 73.8731 40.3975 157.8651 0.0000 0.0000 0.0000
# 4 0.0000 0.0000 0.0000 29.8700 0.0000 0.0000
# 5 0.0000 0.0000 0.0000 0.0000 25.5687 0.0000
# 6 0.0000 0.0000 0.0000 0.0000 0.0000 11.8663
#
#
#
# Elastic Compliance Matrix: (Units=1/GPa)
#
#
# Indices 1 2 3 4 5 6 
#
# 1 0.012869 -0.011459 -0.003090 0.000000 0.000000 0.000000
# 2 -0.011459 0.029763 -0.002254 0.000000 0.000000 0.000000
# 3 -0.003090 -0.002254 0.008357 0.000000 0.000000 0.000000
# 4 0.000000 0.000000 0.000000 0.033478 0.000000 0.000000
# 5 0.000000 0.000000 0.000000 0.000000 0.039110 0.000000
# 6 0.000000 0.000000 0.000000 0.000000 0.000000 0.084272
#
#
# Mechanical properties :
#
#
# Convention : Reuss Voigt Hill
#
# Bulk Modulus (GPa) = 57.52602 81.06052 69.29327
# Shear Modulus (GPa) = 20.22236 26.35712 23.28974
#
# Velocity S-wave (km/s) = 3.30020 3.76767 3.54166
# Velocity P-wave (km/s) = 6.74566 7.91104 7.35148
#
# Compressibility (1/GPa) = 0.01738344
#
# Stress axis : x y z
#
# Youngs Moduli (GPa) = 77.70470 33.59847 119.65845
#
# Poissons Ratio (x) = 0.38502 0.36971
# Poissons Ratio (y) = 0.89046 0.26970
# Poissons Ratio (z) = 0.24008 0.07573
#
# Static dielectric constant tensor:
#      x y z
#    x 3.648590 0.000000 0.000000 
#    y 0.000000 3.256820 0.000000 
#    z 0.000000 0.000000 3.408560 
# 
# 
# High freq. dielectric constant tensor:
#      x y z
#    x 1.734020 0.000000 0.000000 
#    y 0.000000 1.706810 0.000000 
#    z 0.000000 0.000000 1.725320 
# 
# From -- ./inp_files/39300.got.cif
#   From: 2010.03.12/outbox.cif.g09.slc.cpg/sg64_20_cif.got.tgz:39300.got - 2010.04.10 20:19:32.
