data_PCOD8262909
_publ_section_title
;
Structure prediction by ZEFSAII (Michael W. Deem and Ramdas Pophale) SiO2 
 PCOD8262909
Probable space group: C M C A
;
_chemical_formula_sum "Si O2"
_cell_formula_units_Z 64
_cell_length_a 8.689511
_cell_length_b 20.645748
_cell_length_c 18.998629
_cell_angle_alpha 90.000000
_cell_angle_beta 90.000000
_cell_angle_gamma 90.000000
_cell_volume 3408.381673
_symmetry_space_group_name_H-M "C M C A"
_symmetry_group_IT_number 64
_symmetry_cell_setting 'orthorhombic'
loop_
_space_group_symop_operation_xyz
x,y,z
-x,1/2-y,1/2+z
x,-y,-z
-x,1/2+y,1/2-z
-x,-y,-z
x,1/2+y,1/2-z
-x,y,z
x,1/2-y,1/2+z
1/2+x,1/2+y,z
1/2-x,-y,1/2+z
1/2+x,1/2-y,-z
1/2-x,y,1/2-z
1/2-x,1/2-y,-z
1/2+x,y,1/2-z
1/2-x,1/2+y,z
1/2+x,-y,1/2+z
loop_
_atom_site_type_symbol
_atom_site_label
_atom_site_fract_x
_atom_site_fract_y
_atom_site_fract_z
Si Si1 0.319282 0.565679 0.961785
Si Si2 0.677146 0.312743 0.534356
Si Si3 0.323276 0.752449 0.820951
Si Si4 0.681491 0.885406 0.175671
O O1 0.500000 0.569728 0.949198
O O2 0.237341 0.567135 0.886028
O O3 0.269057 0.500000 0.000000
O O4 0.268983 0.624272 0.011573
O O5 0.500000 0.318813 0.510546
O O6 0.750000 0.250000 0.500000
O O7 0.691800 0.306256 0.618681
O O8 0.500000 0.733500 0.807058
O O9 0.250000 0.781948 0.750000
O O10 0.235737 0.687065 0.843417
O O11 0.500000 0.887439 0.180633
O O12 0.750000 0.908912 0.250000
#
# Coordination Sequence:
#
# PCOD8262909 Si02
#       4
#    16  16  16  16
#     4  11  24  41  60  85 119 157 199 246 295 349
#     4  11  22  36  59  87 117 152 193 242 291 350
#     4  10  20  34  55  85 118 150 191 239 292 348
#     4  11  21  35  59  86 116 152 193 241 291 349
#
# _framework density 18.777239999999999
#
# number of rings (size 3 to 8) (size 9 to 14) (size 15 to 20)
#    0.000    1.250    2.500    6.000    0.000    5.000 
#    0.000    1.250    0.000    3.000    0.000    0.000 
#    0.000    0.000    0.000    0.000    0.000    0.000 
#
# Total GULP energy -396928.495121 kJ/mol
# GULP energy per Si atom -12404.015473 kJ/mol
# Density = 1.873450 g / cm^3
# Si number density = 18.777240 Si / 1000 Ang^3
#
#
#
# Elastic Constant Matrix: (Units=GPa)
#
#
# Indices 1 2 3 4 5 6 
#
# 1 128.3098 44.1640 60.1859 0.0000 0.0000 0.0000
# 2 44.1640 106.1546 60.0276 0.0000 0.0000 0.0000
# 3 60.1859 60.0276 139.7053 0.0000 0.0000 0.0000
# 4 0.0000 0.0000 0.0000 25.1651 0.0000 0.0000
# 5 0.0000 0.0000 0.0000 0.0000 37.1243 0.0000
# 6 0.0000 0.0000 0.0000 0.0000 0.0000 25.9658
#
#
#
# Elastic Compliance Matrix: (Units=1/GPa)
#
#
# Indices 1 2 3 4 5 6 
#
# 1 0.010182 -0.002319 -0.003390 0.000000 0.000000 0.000000
# 2 -0.002319 0.012972 -0.004575 0.000000 0.000000 0.000000
# 3 -0.003390 -0.004575 0.010584 0.000000 0.000000 0.000000
# 4 0.000000 0.000000 0.000000 0.039738 0.000000 0.000000
# 5 0.000000 0.000000 0.000000 0.000000 0.026937 0.000000
# 6 0.000000 0.000000 0.000000 0.000000 0.000000 0.038512
#
#
# Mechanical properties :
#
#
# Convention : Reuss Voigt Hill
#
# Bulk Modulus (GPa) = 75.92777 78.10275 77.01526
# Shear Modulus (GPa) = 30.50983 31.63719 31.07351
#
# Velocity S-wave (km/s) = 4.03529 4.10917 4.07240
# Velocity P-wave (km/s) = 7.88893 8.01239 7.95090
#
# Compressibility (1/GPa) = 0.01317041
#
# Stress axis : x y z
#
# Youngs Moduli (GPa) = 98.21241 77.08999 94.48285
#
# Poissons Ratio (x) = 0.17878 0.32030
# Poissons Ratio (y) = 0.22777 0.43222
# Poissons Ratio (z) = 0.33294 0.35265
#
# Static dielectric constant tensor:
#      x y z
#    x 3.645800 0.000000 0.000000 
#    y 0.000000 3.150850 0.000000 
#    z 0.000000 0.000000 3.865520 
# 
# 
# High freq. dielectric constant tensor:
#      x y z
#    x 1.752200 0.000000 0.000000 
#    y 0.000000 1.692900 0.000000 
#    z 0.000000 0.000000 1.749620 
# 
# From -- ./inp_files/29247.got.cif
#   From: 2010.03.12/outbox.cif.g09.slc.cpg/sg64_15_cif.got.tgz:29247.got - 2010.04.10 20:19:32.
