data_PCOD8262250
_publ_section_title
;
Structure prediction by ZEFSAII (Michael W. Deem and Ramdas Pophale) SiO2 
 PCOD8262250
Probable space group: C M C A
;
_chemical_formula_sum "Si O2"
_cell_formula_units_Z 120
_cell_length_a 17.130245
_cell_length_b 19.765204
_cell_length_c 18.757035
_cell_angle_alpha 90.000000
_cell_angle_beta 90.000000
_cell_angle_gamma 90.000000
_cell_volume 6350.809186
_symmetry_space_group_name_H-M "C M C A"
_symmetry_group_IT_number 64
_symmetry_cell_setting 'orthorhombic'
loop_
_space_group_symop_operation_xyz
x,y,z
-x,1/2-y,1/2+z
x,-y,-z
-x,1/2+y,1/2-z
-x,-y,-z
x,1/2+y,1/2-z
-x,y,z
x,1/2-y,1/2+z
1/2+x,1/2+y,z
1/2-x,-y,1/2+z
1/2+x,1/2-y,-z
1/2-x,y,1/2-z
1/2-x,1/2-y,-z
1/2+x,y,1/2-z
1/2-x,1/2+y,z
1/2+x,-y,1/2+z
loop_
_atom_site_type_symbol
_atom_site_label
_atom_site_fract_x
_atom_site_fract_y
_atom_site_fract_z
Si Si1 0.278262 0.797766 0.562267
Si Si2 0.090110 0.962918 0.633161
Si Si3 0.820157 0.728988 0.795476
Si Si4 0.181078 0.500000 0.500000
Si Si5 0.589627 0.615278 0.630328
Si Si6 0.910002 0.141033 0.246863
Si Si7 0.090208 0.896270 0.913807
Si Si8 0.317411 0.409358 0.506742
O O1 0.250000 0.750000 0.500000
O O2 0.278946 0.756139 0.634067
O O3 0.363772 0.832717 0.550878
O O4 0.212218 0.855379 0.565165
O O5 0.121991 0.910458 0.692567
O O6 0.133398 0.960777 0.556506
O O7 0.000000 0.947180 0.617993
O O8 0.101485 0.039623 0.661186
O O9 0.750000 0.697645 0.750000
O O10 0.879947 0.668778 0.811955
O O11 0.862230 0.789102 0.751773
O O12 0.125830 0.467963 0.560583
O O13 0.240927 0.443205 0.469268
O O14 0.500000 0.631919 0.616158
O O15 0.632001 0.625813 0.554500
O O16 0.899676 0.104168 0.171147
O O17 0.000000 0.159024 0.260656
O O18 0.000000 0.890152 0.936966
#
# Coordination Sequence:
#
# PCOD8262250 Si02
#       8
#    16  16  16   8  16  16  16  16
#     4  10  20  36  56  82 118 146 196 244 282 345
#     4  10  20  36  58  87 117 148 191 243 298 357
#     4  11  22  39  57  85 115 158 194 239 292 348
#     4  10  19  32  55  80 118 144 190 238 281 344
#     4  11  22  37  58  85 118 153 194 241 298 359
#     4   9  19  38  61  83 112 148 195 240 287 355
#     4   9  19  35  57  83 111 152 193 237 291 346
#     4  11  19  35  57  86 113 153 186 241 297 345
#
# _framework density 18.895230000000002
#
# number of rings (size 3 to 8) (size 9 to 14) (size 15 to 20)
#    0.000    1.867    2.667    1.800    0.000    1.600 
#    2.400    0.000    0.000    1.600    0.000    0.000 
#    0.000    0.000    0.000    0.000    0.000    0.000 
#
# Total GULP energy -743699.075880 kJ/mol
# GULP energy per Si atom -12394.984598 kJ/mol
# Density = 1.885222 g / cm^3
# Si number density = 18.895230 Si / 1000 Ang^3
#
#
#
# Elastic Constant Matrix: (Units=GPa)
#
#
# Indices 1 2 3 4 5 6 
#
# 1 118.4962 51.9258 55.4003 0.0000 0.0000 0.0000
# 2 51.9258 96.0708 44.4654 0.0000 0.0000 0.0000
# 3 55.4003 44.4654 72.9787 0.0000 0.0000 0.0000
# 4 0.0000 0.0000 0.0000 36.9264 0.0000 0.0000
# 5 0.0000 0.0000 0.0000 0.0000 31.6535 0.0000
# 6 0.0000 0.0000 0.0000 0.0000 0.0000 31.8105
#
#
#
# Elastic Compliance Matrix: (Units=1/GPa)
#
#
# Indices 1 2 3 4 5 6 
#
# 1 0.013956 -0.003676 -0.008354 0.000000 0.000000 0.000000
# 2 -0.003676 0.015466 -0.006632 0.000000 0.000000 0.000000
# 3 -0.008354 -0.006632 0.024086 0.000000 0.000000 0.000000
# 4 0.000000 0.000000 0.000000 0.027081 0.000000 0.000000
# 5 0.000000 0.000000 0.000000 0.000000 0.031592 0.000000
# 6 0.000000 0.000000 0.000000 0.000000 0.000000 0.031436
#
#
# Mechanical properties :
#
#
# Convention : Reuss Voigt Hill
#
# Bulk Modulus (GPa) = 61.79996 65.68098 63.74047
# Shear Modulus (GPa) = 26.83313 29.12835 27.98074
#
# Velocity S-wave (km/s) = 3.77251 3.93054 3.85234
# Velocity P-wave (km/s) = 7.19399 7.44547 7.32081
#
# Compressibility (1/GPa) = 0.01618124
#
# Stress axis : x y z
#
# Youngs Moduli (GPa) = 71.65351 64.65892 41.51833
#
# Poissons Ratio (x) = 0.23771 0.34686
# Poissons Ratio (y) = 0.26343 0.27536
# Poissons Ratio (z) = 0.59863 0.42884
#
# Static dielectric constant tensor:
#      x y z
#    x 3.650030 0.000000 0.000000 
#    y 0.000000 3.628690 0.000000 
#    z 0.000000 0.000000 3.539060 
# 
# 
# High freq. dielectric constant tensor:
#      x y z
#    x 1.743580 0.000000 0.000000 
#    y 0.000000 1.739140 0.000000 
#    z 0.000000 0.000000 1.713180 
# 
# From -- ./inp_files/33671.got.cif
#   From: 2010.03.12/outbox.cif.g09.slc.cpg/sg64_17_cif.got.tgz:33671.got - 2010.04.10 20:19:32.
