data_PCOD8262369
_publ_section_title
;
Structure prediction by ZEFSAII (Michael W. Deem and Ramdas Pophale) SiO2 
 PCOD8262369
Probable space group: C M C A
;
_chemical_formula_sum "Si O2"
_cell_formula_units_Z 64
_cell_length_a 16.468221
_cell_length_b 14.098742
_cell_length_c 14.415798
_cell_angle_alpha 90.000000
_cell_angle_beta 90.000000
_cell_angle_gamma 90.000000
_cell_volume 3347.077265
_symmetry_space_group_name_H-M "C M C A"
_symmetry_group_IT_number 64
_symmetry_cell_setting 'orthorhombic'
loop_
_space_group_symop_operation_xyz
x,y,z
-x,1/2-y,1/2+z
x,-y,-z
-x,1/2+y,1/2-z
-x,-y,-z
x,1/2+y,1/2-z
-x,y,z
x,1/2-y,1/2+z
1/2+x,1/2+y,z
1/2-x,-y,1/2+z
1/2+x,1/2-y,-z
1/2-x,y,1/2-z
1/2-x,1/2-y,-z
1/2+x,y,1/2-z
1/2-x,1/2+y,z
1/2+x,-y,1/2+z
loop_
_atom_site_type_symbol
_atom_site_label
_atom_site_fract_x
_atom_site_fract_y
_atom_site_fract_z
Si Si1 0.688710 0.400486 0.834178
Si Si2 0.592159 0.915785 0.346624
Si Si3 0.764215 0.142425 0.973458
Si Si4 0.830639 0.311905 0.189626
O O1 0.750000 0.415933 0.750000
O O2 0.617115 0.476139 0.826133
O O3 0.647194 0.296622 0.836850
O O4 0.737566 0.419582 0.931770
O O5 0.500000 0.912422 0.382025
O O6 0.647745 0.869256 0.425780
O O7 0.597776 0.858174 0.249469
O O8 0.691176 0.121470 0.899936
O O9 0.750000 0.250000 0.000000
O O10 0.750000 0.307443 0.250000
#
# Coordination Sequence:
#
# PCOD8262369 Si02
#       4
#    16  16  16  16
#     4  10  19  33  57  80 102 139 185 227 265 316
#     4  11  22  34  52  82 115 141 173 224 279 323
#     4   9  18  35  57  78 102 138 184 223 261 317
#     4   8  17  35  55  76 103 141 185 223 263 318
#
# _framework density 19.121161000000001
#
# number of rings (size 3 to 8) (size 9 to 14) (size 15 to 20)
#    0.000    2.500    0.000    4.500    0.000    3.000 
#    0.000    3.750    0.000    3.000    0.000    0.000 
#    0.000    0.000    0.000    0.000    0.000    0.000 
#
# Total GULP energy -396515.366382 kJ/mol
# GULP energy per Si atom -12391.105199 kJ/mol
# Density = 1.907764 g / cm^3
# Si number density = 19.121161 Si / 1000 Ang^3
#
#
#
# Elastic Constant Matrix: (Units=GPa)
#
#
# Indices 1 2 3 4 5 6 
#
# 1 94.7110 41.3791 44.4180 0.0000 0.0000 0.0000
# 2 41.3791 86.0754 38.4705 0.0000 0.0000 0.0000
# 3 44.4180 38.4705 144.8699 0.0000 0.0000 0.0000
# 4 0.0000 0.0000 0.0000 30.0491 0.0000 0.0000
# 5 0.0000 0.0000 0.0000 0.0000 17.5563 0.0000
# 6 0.0000 0.0000 0.0000 0.0000 0.0000 4.2385
#
#
#
# Elastic Compliance Matrix: (Units=1/GPa)
#
#
# Indices 1 2 3 4 5 6 
#
# 1 0.014377 -0.005607 -0.002919 0.000000 0.000000 0.000000
# 2 -0.005607 0.015369 -0.002362 0.000000 0.000000 0.000000
# 3 -0.002919 -0.002362 0.008425 0.000000 0.000000 0.000000
# 4 0.000000 0.000000 0.000000 0.033279 0.000000 0.000000
# 5 0.000000 0.000000 0.000000 0.000000 0.056960 0.000000
# 6 0.000000 0.000000 0.000000 0.000000 0.000000 0.235931
#
#
# Mechanical properties :
#
#
# Convention : Reuss Voigt Hill
#
# Bulk Modulus (GPa) = 60.99539 63.79902 62.39721
# Shear Modulus (GPa) = 12.76873 23.79471 18.28172
#
# Velocity S-wave (km/s) = 2.58695 3.53146 3.09544
# Velocity P-wave (km/s) = 6.39466 7.07576 6.74382
#
# Compressibility (1/GPa) = 0.01639468
#
# Stress axis : x y z
#
# Youngs Moduli (GPa) = 69.55511 65.06682 118.69347
#
# Poissons Ratio (x) = 0.36482 0.34649
# Poissons Ratio (y) = 0.38998 0.28037
# Poissons Ratio (z) = 0.20305 0.15370
#
# Static dielectric constant tensor:
#      x y z
#    x 2.967850 0.000000 0.000000 
#    y 0.000000 3.774230 0.000000 
#    z 0.000000 0.000000 4.375780 
# 
# 
# High freq. dielectric constant tensor:
#      x y z
#    x 1.685190 0.000000 0.000000 
#    y 0.000000 1.754580 0.000000 
#    z 0.000000 0.000000 1.767310 
# 
# From -- ./inp_files/23221.got.cif
#   From: 2010.03.12/outbox.cif.g09.slc.cpg/sg64_12_cif.got.tgz:23221.got - 2010.04.10 20:19:32.
