data_PCOD8262367
_publ_section_title
;
Structure prediction by ZEFSAII (Michael W. Deem and Ramdas Pophale) SiO2 
 PCOD8262367
Probable space group: C M C A
;
_chemical_formula_sum "Si O2"
_cell_formula_units_Z 112
_cell_length_a 19.442450
_cell_length_b 22.051188
_cell_length_c 12.473856
_cell_angle_alpha 90.000000
_cell_angle_beta 90.000000
_cell_angle_gamma 90.000000
_cell_volume 5347.905308
_symmetry_space_group_name_H-M "C M C A"
_symmetry_group_IT_number 64
_symmetry_cell_setting 'orthorhombic'
loop_
_space_group_symop_operation_xyz
x,y,z
-x,1/2-y,1/2+z
x,-y,-z
-x,1/2+y,1/2-z
-x,-y,-z
x,1/2+y,1/2-z
-x,y,z
x,1/2-y,1/2+z
1/2+x,1/2+y,z
1/2-x,-y,1/2+z
1/2+x,1/2-y,-z
1/2-x,y,1/2-z
1/2-x,1/2-y,-z
1/2+x,y,1/2-z
1/2-x,1/2+y,z
1/2+x,-y,1/2+z
loop_
_atom_site_type_symbol
_atom_site_label
_atom_site_fract_x
_atom_site_fract_y
_atom_site_fract_z
Si Si1 0.078939 0.438977 0.768537
Si Si2 0.856391 0.747361 0.520655
Si Si3 0.418130 0.866927 0.381730
Si Si4 0.837807 0.437385 0.553219
Si Si5 0.921098 0.072185 0.667155
Si Si6 0.921740 0.365356 0.963406
Si Si7 0.735582 0.323354 0.875741
O O1 0.127294 0.447137 0.667450
O O2 0.085878 0.500286 0.836250
O O3 0.108352 0.384981 0.846052
O O4 0.000000 0.427690 0.731595
O O5 0.878910 0.697006 0.606396
O O6 0.919689 0.793793 0.507834
O O7 0.798619 0.792403 0.565330
O O8 0.832574 0.716407 0.408259
O O9 0.500000 0.857838 0.384565
O O10 0.397444 0.911013 0.478087
O O11 0.388964 0.897256 0.273371
O O12 0.809930 0.500000 0.500000
O O13 0.774722 0.390604 0.573475
O O14 0.884541 0.098576 0.560634
O O15 0.000000 0.092900 0.667783
O O16 0.000000 0.387400 0.956321
O O17 0.750000 0.324570 0.750000
#
# Coordination Sequence:
#
# PCOD8262367 Si02
#       7
#    16  16  16  16  16  16  16
#     4  10  19  33  56  88 124 159 188 236 305 366
#     4  10  22  39  60  82 114 157 201 249 298 354
#     4  10  20  35  60  92 121 151 190 239 303 367
#     4  11  21  37  62  86 120 154 201 252 303 358
#     4   9  18  32  53  84 122 155 185 232 291 362
#     4  10  20  35  57  89 122 155 197 240 299 370
#     4  10  23  42  60  80 112 158 205 255 303 347
#
# _framework density 20.942779000000002
#
# number of rings (size 3 to 8) (size 9 to 14) (size 15 to 20)
#    0.000    2.000    1.429    2.143    2.000    2.286 
#    0.000    2.857    0.000    0.000    0.000    0.000 
#    0.000    0.000    0.000    0.000    0.000    0.000 
#
# Total GULP energy -693972.090699 kJ/mol
# GULP energy per Si atom -12392.358762 kJ/mol
# Density = 2.089511 g / cm^3
# Si number density = 20.942779 Si / 1000 Ang^3
#
#
#
# Elastic Constant Matrix: (Units=GPa)
#
#
# Indices 1 2 3 4 5 6 
#
# 1 43.2066 29.1947 23.1517 0.0000 0.0000 0.0000
# 2 29.1947 141.2533 52.1170 0.0000 0.0000 0.0000
# 3 23.1517 52.1170 132.8006 0.0000 0.0000 0.0000
# 4 0.0000 0.0000 0.0000 31.6524 0.0000 0.0000
# 5 0.0000 0.0000 0.0000 0.0000 19.7467 0.0000
# 6 0.0000 0.0000 0.0000 0.0000 0.0000 30.6814
#
#
#
# Elastic Compliance Matrix: (Units=1/GPa)
#
#
# Indices 1 2 3 4 5 6 
#
# 1 0.027915 -0.004647 -0.003043 0.000000 0.000000 0.000000
# 2 -0.004647 0.009052 -0.002742 0.000000 0.000000 0.000000
# 3 -0.003043 -0.002742 0.009137 0.000000 0.000000 0.000000
# 4 0.000000 0.000000 0.000000 0.031593 0.000000 0.000000
# 5 0.000000 0.000000 0.000000 0.000000 0.050641 0.000000
# 6 0.000000 0.000000 0.000000 0.000000 0.000000 0.032593
#
#
# Mechanical properties :
#
#
# Convention : Reuss Voigt Hill
#
# Bulk Modulus (GPa) = 39.62044 58.46528 49.04286
# Shear Modulus (GPa) = 26.28703 30.60259 28.44481
#
# Velocity S-wave (km/s) = 3.54670 3.82677 3.68940
# Velocity P-wave (km/s) = 5.97759 6.89223 6.45114
#
# Compressibility (1/GPa) = 0.02523950
#
# Stress axis : x y z
#
# Youngs Moduli (GPa) = 35.82305 110.47692 109.44837
#
# Poissons Ratio (x) = 0.51337 0.33304
# Poissons Ratio (y) = 0.16646 0.30013
# Poissons Ratio (z) = 0.10901 0.30295
#
# Static dielectric constant tensor:
#      x y z
#    x 3.646580 0.000000 0.000000 
#    y 0.000000 4.013370 0.000000 
#    z 0.000000 0.000000 3.979540 
# 
# 
# High freq. dielectric constant tensor:
#      x y z
#    x 1.791500 0.000000 0.000000 
#    y 0.000000 1.833160 0.000000 
#    z 0.000000 0.000000 1.826670 
# 
# From -- ./inp_files/18514.got.cif
#   From: 2010.03.12/outbox.cif.g09.slc.cpg/sg64_10_cif.got.tgz:18514.got - 2010.04.10 20:19:32.
