data_PCOD8262493
_publ_section_title
;
Structure prediction by ZEFSAII (Michael W. Deem and Ramdas Pophale) SiO2 
 PCOD8262493
Probable space group: C M C A
;
_chemical_formula_sum "Si O2"
_cell_formula_units_Z 96
_cell_length_a 25.253801
_cell_length_b 26.922354
_cell_length_c 8.658236
_cell_angle_alpha 90.000000
_cell_angle_beta 90.000000
_cell_angle_gamma 90.000000
_cell_volume 5886.663402
_symmetry_space_group_name_H-M "C M C A"
_symmetry_group_IT_number 64
_symmetry_cell_setting 'orthorhombic'
loop_
_space_group_symop_operation_xyz
x,y,z
-x,1/2-y,1/2+z
x,-y,-z
-x,1/2+y,1/2-z
-x,-y,-z
x,1/2+y,1/2-z
-x,y,z
x,1/2-y,1/2+z
1/2+x,1/2+y,z
1/2-x,-y,1/2+z
1/2+x,1/2-y,-z
1/2-x,y,1/2-z
1/2-x,1/2-y,-z
1/2+x,y,1/2-z
1/2-x,1/2+y,z
1/2+x,-y,1/2+z
loop_
_atom_site_type_symbol
_atom_site_label
_atom_site_fract_x
_atom_site_fract_y
_atom_site_fract_z
Si Si1 0.500000 0.303769 0.319734
Si Si2 0.000000 0.803773 0.680261
Si Si3 0.307254 0.697040 0.683734
Si Si4 0.598416 0.144335 0.328186
Si Si5 0.098415 0.644336 0.671807
Si Si6 0.436678 0.056487 0.499999
Si Si7 0.692747 0.197040 0.183731
O O1 0.500000 0.298353 0.499998
O O2 0.500000 0.249997 0.250009
O O3 0.448125 0.332613 0.270104
O O4 0.051875 0.832618 0.729882
O O5 0.250000 0.683482 0.750000
O O6 0.346788 0.653789 0.739116
O O7 0.304842 0.699615 0.500002
O O8 0.326953 0.750000 0.750002
O O9 0.600191 0.168999 0.499995
O O10 0.586766 0.085044 0.348551
O O11 0.653213 0.153789 0.239110
O O12 0.086763 0.585046 0.651447
O O13 0.500000 0.060029 0.499994
O O14 0.416696 0.000000 0.500000
O O15 0.750000 0.183482 0.250000
#
# Coordination Sequence:
#
# PCOD8262493 Si02
#       7
#     8   8  16  16  16  16  16
#     4  12  22  32  48  75 115 149 175 210 260 323
#     4  12  22  32  48  75 115 149 175 210 260 323
#     4  11  21  34  52  79 113 151 187 218 261 321
#     4  10  19  35  53  79 105 137 182 219 274 315
#     4  10  19  35  53  79 105 137 182 219 274 315
#     4   9  18  36  64  83 102 136 186 228 273 327
#     4  11  21  34  52  79 113 151 187 218 261 321
#
# _framework density 16.308050000000001
#
# number of rings (size 3 to 8) (size 9 to 14) (size 15 to 20)
#    1.000    0.500    1.667    7.500    0.000    0.000 
#    0.000    0.000    0.000    6.000    0.000    0.000 
#    0.000    0.000    0.000    0.000    0.000    0.000 
#
# Total GULP energy -594950.775280 kJ/mol
# GULP energy per Si atom -12394.807818 kJ/mol
# Density = 1.627093 g / cm^3
# Si number density = 16.308050 Si / 1000 Ang^3
#
#
#
# Elastic Constant Matrix: (Units=GPa)
#
#
# Indices 1 2 3 4 5 6 
#
# 1 109.7635 62.1083 49.1120 0.0000 0.0000 0.0000
# 2 62.1083 135.8957 49.9039 0.0000 0.0000 0.0000
# 3 49.1120 49.9039 150.0932 0.0000 0.0000 0.0000
# 4 0.0000 0.0000 0.0000 20.4609 0.0000 0.0000
# 5 0.0000 0.0000 0.0000 0.0000 32.5005 0.0000
# 6 0.0000 0.0000 0.0000 0.0000 0.0000 25.7322
#
#
#
# Elastic Compliance Matrix: (Units=1/GPa)
#
#
# Indices 1 2 3 4 5 6 
#
# 1 0.013136 -0.005041 -0.002622 0.000000 0.000000 0.000000
# 2 -0.005041 0.010316 -0.001781 0.000000 0.000000 0.000000
# 3 -0.002622 -0.001781 0.008113 0.000000 0.000000 0.000000
# 4 0.000000 0.000000 0.000000 0.048874 0.000000 0.000000
# 5 0.000000 0.000000 0.000000 0.000000 0.030769 0.000000
# 6 0.000000 0.000000 0.000000 0.000000 0.000000 0.038862
#
#
# Mechanical properties :
#
#
# Convention : Reuss Voigt Hill
#
# Bulk Modulus (GPa) = 78.87867 79.77787 79.32827
# Shear Modulus (GPa) = 28.87138 31.38059 30.12599
#
# Velocity S-wave (km/s) = 4.21215 4.39137 4.30269
# Velocity P-wave (km/s) = 8.49289 8.64510 8.56933
#
# Compressibility (1/GPa) = 0.01267770
#
# Stress axis : x y z
#
# Youngs Moduli (GPa) = 76.12707 96.93531 123.26475
#
# Poissons Ratio (x) = 0.48861 0.32324
# Poissons Ratio (y) = 0.38372 0.21949
# Poissons Ratio (z) = 0.19963 0.17261
#
# Static dielectric constant tensor:
#      x y z
#    x -18.264740 0.000000 0.000000 
#    y 0.000000 2.921180 0.000000 
#    z 0.000000 0.000000 3.117230 
# 
# 
# High freq. dielectric constant tensor:
#      x y z
#    x 1.638020 0.000000 0.000000 
#    y 0.000000 1.595530 0.000000 
#    z 0.000000 0.000000 1.633410 
# 
# From -- ./inp_files/9632.got.cif
#   From: 2010.03.12/outbox.cif.g09.slc.cpg/sg64_5_cif.got.tgz:9632.got - 2010.04.10 20:19:32.
