data_PCOD8262242
_publ_section_title
;
Structure prediction by ZEFSAII (Michael W. Deem and Ramdas Pophale) SiO2 
 PCOD8262242
Probable space group: C M C A
;
_chemical_formula_sum "Si O2"
_cell_formula_units_Z 80
_cell_length_a 18.705187
_cell_length_b 13.033603
_cell_length_c 17.818873
_cell_angle_alpha 90.000000
_cell_angle_beta 90.000000
_cell_angle_gamma 90.000000
_cell_volume 4344.169630
_symmetry_space_group_name_H-M "C M C A"
_symmetry_group_IT_number 64
_symmetry_cell_setting 'orthorhombic'
loop_
_space_group_symop_operation_xyz
x,y,z
-x,1/2-y,1/2+z
x,-y,-z
-x,1/2+y,1/2-z
-x,-y,-z
x,1/2+y,1/2-z
-x,y,z
x,1/2-y,1/2+z
1/2+x,1/2+y,z
1/2-x,-y,1/2+z
1/2+x,1/2-y,-z
1/2-x,y,1/2-z
1/2-x,1/2-y,-z
1/2+x,y,1/2-z
1/2-x,1/2+y,z
1/2+x,-y,1/2+z
loop_
_atom_site_type_symbol
_atom_site_label
_atom_site_fract_x
_atom_site_fract_y
_atom_site_fract_z
Si Si1 0.417042 0.154764 0.837376
Si Si2 0.917331 0.623454 0.396822
Si Si3 0.915954 0.088055 0.825079
Si Si4 0.159478 0.190259 0.956281
Si Si5 0.313719 0.109768 0.965727
O O1 0.500000 0.125050 0.849300
O O2 0.405873 0.277013 0.845009
O O3 0.387229 0.117302 0.757190
O O4 0.370330 0.096065 0.899009
O O5 0.890944 0.526123 0.348430
O O6 0.869993 0.627730 0.471880
O O7 0.000000 0.611969 0.421208
O O8 0.888323 0.171420 0.883849
O O9 0.000000 0.096585 0.824224
O O10 0.239502 0.155937 0.935690
O O11 0.155087 0.311855 0.972225
O O12 0.299144 0.000000 0.000000
#
# Coordination Sequence:
#
# PCOD8262242 Si02
#       5
#    16  16  16  16  16
#     4   9  20  35  49  74 106 131 165 209 249 295
#     4   9  17  32  53  75 102 132 164 210 254 286
#     4  10  19  32  54  78 100 132 169 206 251 297
#     4  10  20  34  53  77 101 128 170 211 243 295
#     4  10  21  36  53  73 101 136 167 202 250 298
#
# _framework density 18.415488
#
# number of rings (size 3 to 8) (size 9 to 14) (size 15 to 20)
#    0.000    2.400    0.000    2.400    0.000    5.200 
#    0.000    2.000    0.000    7.200    0.000    0.000 
#    0.000    0.000    0.000    0.000    0.000    0.000 
#
# Total GULP energy -496079.875751 kJ/mol
# GULP energy per Si atom -12401.996894 kJ/mol
# Density = 1.837357 g / cm^3
# Si number density = 18.415488 Si / 1000 Ang^3
#
#
#
# Elastic Constant Matrix: (Units=GPa)
#
#
# Indices 1 2 3 4 5 6 
#
# 1 37.6203 17.7347 36.6139 0.0000 0.0000 0.0000
# 2 17.7347 71.5854 32.7531 0.0000 0.0000 0.0000
# 3 36.6139 32.7531 100.3140 0.0000 0.0000 0.0000
# 4 0.0000 0.0000 0.0000 22.5155 0.0000 0.0000
# 5 0.0000 0.0000 0.0000 0.0000 11.7060 0.0000
# 6 0.0000 0.0000 0.0000 0.0000 0.0000 24.4335
#
#
#
# Elastic Compliance Matrix: (Units=1/GPa)
#
#
# Indices 1 2 3 4 5 6 
#
# 1 0.042180 -0.004004 -0.014088 0.000000 0.000000 0.000000
# 2 -0.004004 0.016803 -0.004025 0.000000 0.000000 0.000000
# 3 -0.014088 -0.004025 0.016425 0.000000 0.000000 0.000000
# 4 0.000000 0.000000 0.000000 0.044414 0.000000 0.000000
# 5 0.000000 0.000000 0.000000 0.000000 0.085427 0.000000
# 6 0.000000 0.000000 0.000000 0.000000 0.000000 0.040927
#
#
# Mechanical properties :
#
#
# Convention : Reuss Voigt Hill
#
# Bulk Modulus (GPa) = 32.07791 42.63589 37.35690
# Shear Modulus (GPa) = 16.62231 19.89221 18.25726
#
# Velocity S-wave (km/s) = 3.00763 3.29019 3.15208
# Velocity P-wave (km/s) = 5.43304 6.13484 5.79457
#
# Compressibility (1/GPa) = 0.03117410
#
# Stress axis : x y z
#
# Youngs Moduli (GPa) = 23.70784 59.51407 60.88328
#
# Poissons Ratio (x) = 0.23829 0.85773
# Poissons Ratio (y) = 0.09492 0.24504
# Poissons Ratio (z) = 0.33400 0.23953
#
# Static dielectric constant tensor:
#      x y z
#    x 3.391970 0.000000 0.000000 
#    y 0.000000 3.460920 0.000000 
#    z 0.000000 0.000000 3.414340 
# 
# 
# High freq. dielectric constant tensor:
#      x y z
#    x 1.714120 0.000000 0.000000 
#    y 0.000000 1.716320 0.000000 
#    z 0.000000 0.000000 1.704480 
# 
# From -- ./inp_files/26131.got.cif
#   From: 2010.03.12/outbox.cif.g09.slc.cpg/sg64_14_cif.got.tgz:26131.got - 2010.04.10 20:19:32.
