data_PCOD8262853
_publ_section_title
;
Structure prediction by ZEFSAII (Michael W. Deem and Ramdas Pophale) SiO2 
 PCOD8262853
Probable space group: C M C A
;
_chemical_formula_sum "Si O2"
_cell_formula_units_Z 96
_cell_length_a 9.503350
_cell_length_b 26.704008
_cell_length_c 18.860854
_cell_angle_alpha 90.000000
_cell_angle_beta 90.000000
_cell_angle_gamma 90.000000
_cell_volume 4786.461025
_symmetry_space_group_name_H-M "C M C A"
_symmetry_group_IT_number 64
_symmetry_cell_setting 'orthorhombic'
loop_
_space_group_symop_operation_xyz
x,y,z
-x,1/2-y,1/2+z
x,-y,-z
-x,1/2+y,1/2-z
-x,-y,-z
x,1/2+y,1/2-z
-x,y,z
x,1/2-y,1/2+z
1/2+x,1/2+y,z
1/2-x,-y,1/2+z
1/2+x,1/2-y,-z
1/2-x,y,1/2-z
1/2-x,1/2-y,-z
1/2+x,y,1/2-z
1/2-x,1/2+y,z
1/2+x,-y,1/2+z
loop_
_atom_site_type_symbol
_atom_site_label
_atom_site_fract_x
_atom_site_fract_y
_atom_site_fract_z
Si Si1 0.159779 0.156854 0.958913
Si Si2 0.159724 0.606254 0.184857
Si Si3 0.836247 0.285867 0.322151
Si Si4 0.665218 0.991591 0.181450
Si Si5 0.662120 0.306575 0.581626
Si Si6 0.339257 0.456456 0.055485
O O1 0.193472 0.167845 0.875898
O O2 0.183768 0.098527 0.977636
O O3 0.000000 0.172681 0.974329
O O4 0.252265 0.193186 0.008338
O O5 0.250000 0.626793 0.250000
O O6 0.198901 0.549526 0.165266
O O7 0.188960 0.639362 0.116273
O O8 0.000000 0.610463 0.210508
O O9 0.750000 0.293528 0.250000
O O10 0.786685 0.235705 0.363314
O O11 0.000000 0.282362 0.301159
O O12 0.500000 0.980981 0.191167
O O13 0.750000 0.973607 0.250000
O O14 0.725793 0.959616 0.117388
O O15 0.500000 0.297552 0.562286
O O16 0.500000 0.462148 0.083495
O O17 0.304810 0.500000 0.000000
#
# Coordination Sequence:
#
# PCOD8262853 Si02
#       6
#    16  16  16  16  16  16
#     4  10  22  38  56  81 111 142 180 224 269 321
#     4   9  18  31  49  77 109 140 178 223 270 322
#     4  10  22  39  58  82 111 142 179 221 264 318
#     4  10  20  34  53  77 107 142 181 226 274 326
#     4  10  20  35  56  82 110 140 177 220 267 321
#     4  10  21  37  56  79 109 145 185 229 275 323
#
# _framework density 20.056571000000002
#
# number of rings (size 3 to 8) (size 9 to 14) (size 15 to 20)
#    0.000    2.167    0.000    2.500    0.000    4.333 
#    0.000    1.667    0.000    0.000    0.000    0.000 
#    0.000    0.000    0.000    0.000    0.000    0.000 
#
# Total GULP energy -595219.117126 kJ/mol
# GULP energy per Si atom -12400.398273 kJ/mol
# Density = 2.001092 g / cm^3
# Si number density = 20.056571 Si / 1000 Ang^3
#
#
#
# Elastic Constant Matrix: (Units=GPa)
#
#
# Indices 1 2 3 4 5 6 
#
# 1 86.5371 30.6661 63.5455 0.0000 0.0000 0.0000
# 2 30.6661 71.3874 37.6121 0.0000 0.0000 0.0000
# 3 63.5455 37.6121 114.2199 0.0000 0.0000 0.0000
# 4 0.0000 0.0000 0.0000 21.9661 0.0000 0.0000
# 5 0.0000 0.0000 0.0000 0.0000 45.0303 0.0000
# 6 0.0000 0.0000 0.0000 0.0000 0.0000 21.6931
#
#
#
# Elastic Compliance Matrix: (Units=1/GPa)
#
#
# Indices 1 2 3 4 5 6 
#
# 1 0.020171 -0.003330 -0.010125 0.000000 0.000000 0.000000
# 2 -0.003330 0.017498 -0.003909 0.000000 0.000000 0.000000
# 3 -0.010125 -0.003909 0.015676 0.000000 0.000000 0.000000
# 4 0.000000 0.000000 0.000000 0.045525 0.000000 0.000000
# 5 0.000000 0.000000 0.000000 0.000000 0.022207 0.000000
# 6 0.000000 0.000000 0.000000 0.000000 0.000000 0.046098
#
#
# Mechanical properties :
#
#
# Convention : Reuss Voigt Hill
#
# Bulk Modulus (GPa) = 53.71996 59.53244 56.62620
# Shear Modulus (GPa) = 24.02576 27.09260 25.55918
#
# Velocity S-wave (km/s) = 3.46482 3.67932 3.57368
# Velocity P-wave (km/s) = 6.54592 6.91351 6.73222
#
# Compressibility (1/GPa) = 0.01861505
#
# Stress axis : x y z
#
# Youngs Moduli (GPa) = 49.57578 57.14808 63.79317
#
# Poissons Ratio (x) = 0.19031 0.64594
# Poissons Ratio (y) = 0.16509 0.24940
# Poissons Ratio (z) = 0.50198 0.22342
#
# Static dielectric constant tensor:
#      x y z
#    x 3.576180 0.000000 0.000000 
#    y 0.000000 3.655200 0.000000 
#    z 0.000000 0.000000 3.500900 
# 
# 
# High freq. dielectric constant tensor:
#      x y z
#    x 1.778850 0.000000 0.000000 
#    y 0.000000 1.787310 0.000000 
#    z 0.000000 0.000000 1.776560 
# 
# From -- ./inp_files/37055.got.cif
#   From: 2010.03.12/outbox.cif.g09.slc.cpg/sg64_19_cif.got.tgz:37055.got - 2010.04.10 20:19:32.
