data_PCOD8262072
_publ_section_title
;
Structure prediction by ZEFSAII (Michael W. Deem and Ramdas Pophale) SiO2 
 PCOD8262072
Probable space group: C M C A
;
_chemical_formula_sum "Si O2"
_cell_formula_units_Z 80
_cell_length_a 8.943566
_cell_length_b 20.535722
_cell_length_c 27.252444
_cell_angle_alpha 90.000000
_cell_angle_beta 90.000000
_cell_angle_gamma 90.000000
_cell_volume 5005.254314
_symmetry_space_group_name_H-M "C M C A"
_symmetry_group_IT_number 64
_symmetry_cell_setting 'orthorhombic'
loop_
_space_group_symop_operation_xyz
x,y,z
-x,1/2-y,1/2+z
x,-y,-z
-x,1/2+y,1/2-z
-x,-y,-z
x,1/2+y,1/2-z
-x,y,z
x,1/2-y,1/2+z
1/2+x,1/2+y,z
1/2-x,-y,1/2+z
1/2+x,1/2-y,-z
1/2-x,y,1/2-z
1/2-x,1/2-y,-z
1/2+x,y,1/2-z
1/2-x,1/2+y,z
1/2+x,-y,1/2+z
loop_
_atom_site_type_symbol
_atom_site_label
_atom_site_fract_x
_atom_site_fract_y
_atom_site_fract_z
Si Si1 0.169277 0.546932 0.101212
Si Si2 0.673454 0.809377 0.063164
Si Si3 0.823344 0.577323 0.620366
Si Si4 0.330844 0.993047 0.200670
Si Si5 0.325765 0.176878 0.050001
O O1 0.267015 0.483318 0.086093
O O2 0.172273 0.552575 0.161029
O O3 0.234548 0.612131 0.077020
O O4 0.000000 0.535259 0.082389
O O5 0.500000 0.813533 0.076963
O O6 0.766769 0.855094 0.098887
O O7 0.730189 0.736146 0.071434
O O8 0.703468 0.831758 0.007603
O O9 0.754717 0.568285 0.675301
O O10 0.000000 0.577594 0.623153
O O11 0.500000 0.972153 0.212908
O O12 0.250000 0.016076 0.250000
O O13 0.500000 0.189546 0.061174
#
# Coordination Sequence:
#
# PCOD8262072 Si02
#       5
#    16  16  16  16  16
#     4   8  17  32  49  70  95 125 159 198 239 284
#     4  10  19  31  48  70  98 130 164 201 239 283
#     4  10  19  31  48  71  97 127 162 199 237 281
#     4   9  17  31  51  73  96 122 154 195 243 288
#     4   9  18  33  50  68  95 132 166 196 239 289
#
# _framework density 15.983203
#
# number of rings (size 3 to 8) (size 9 to 14) (size 15 to 20)
#    1.200    1.600    0.000    2.400    0.000    2.400 
#    0.000    4.000    0.000    1.200    0.000    5.600 
#    0.000    0.000    0.000    0.000    0.000    0.000 
#
# Total GULP energy -495665.525798 kJ/mol
# GULP energy per Si atom -12391.638145 kJ/mol
# Density = 1.594682 g / cm^3
# Si number density = 15.983203 Si / 1000 Ang^3
#
#
#
# Elastic Constant Matrix: (Units=GPa)
#
#
# Indices 1 2 3 4 5 6 
#
# 1 95.9851 23.5827 14.8037 0.0000 0.0000 0.0000
# 2 23.5827 49.9298 11.0963 0.0000 0.0000 0.0000
# 3 14.8037 11.0963 34.4594 0.0000 0.0000 0.0000
# 4 0.0000 0.0000 0.0000 9.1081 0.0000 0.0000
# 5 0.0000 0.0000 0.0000 0.0000 24.6897 0.0000
# 6 0.0000 0.0000 0.0000 0.0000 0.0000 29.2608
#
#
#
# Elastic Compliance Matrix: (Units=1/GPa)
#
#
# Indices 1 2 3 4 5 6 
#
# 1 0.012197 -0.004951 -0.003646 0.000000 0.000000 0.000000
# 2 -0.004951 0.023581 -0.005467 0.000000 0.000000 0.000000
# 3 -0.003646 -0.005467 0.032346 0.000000 0.000000 0.000000
# 4 0.000000 0.000000 0.000000 0.109792 0.000000 0.000000
# 5 0.000000 0.000000 0.000000 0.000000 0.040503 0.000000
# 6 0.000000 0.000000 0.000000 0.000000 0.000000 0.034175
#
#
# Mechanical properties :
#
#
# Convention : Reuss Voigt Hill
#
# Bulk Modulus (GPa) = 25.00093 31.03775 28.01934
# Shear Modulus (GPa) = 17.00372 21.33783 19.17077
#
# Velocity S-wave (km/s) = 3.26521 3.65775 3.46704
# Velocity P-wave (km/s) = 5.46730 6.10737 5.79618
#
# Compressibility (1/GPa) = 0.03999852
#
# Stress axis : x y z
#
# Youngs Moduli (GPa) = 81.98831 42.40657 30.91564
#
# Poissons Ratio (x) = 0.20994 0.11271
# Poissons Ratio (y) = 0.40589 0.16900
# Poissons Ratio (z) = 0.29890 0.23182
#
# Static dielectric constant tensor:
#      x y z
#    x 3.045560 0.000000 0.000000 
#    y 0.000000 2.895200 0.000000 
#    z 0.000000 0.000000 2.842030 
# 
# 
# High freq. dielectric constant tensor:
#      x y z
#    x 1.624790 0.000000 0.000000 
#    y 0.000000 1.596100 0.000000 
#    z 0.000000 0.000000 1.591970 
# 
# From -- ./inp_files/51925.got.cif
#   From: 2010.03.12/outbox.cif.g09.slc.cpg/sg64_26_cif.got.tgz:51925.got - 2010.04.10 20:19:32.
