data_PCOD8262883
_publ_section_title
;
Structure prediction by ZEFSAII (Michael W. Deem and Ramdas Pophale) SiO2 
 PCOD8262883
Probable space group: C M C A
;
_chemical_formula_sum "Si O2"
_cell_formula_units_Z 80
_cell_length_a 15.210956
_cell_length_b 19.551728
_cell_length_c 14.615885
_cell_angle_alpha 90.000000
_cell_angle_beta 90.000000
_cell_angle_gamma 90.000000
_cell_volume 4346.771132
_symmetry_space_group_name_H-M "C M C A"
_symmetry_group_IT_number 64
_symmetry_cell_setting 'orthorhombic'
loop_
_space_group_symop_operation_xyz
x,y,z
-x,1/2-y,1/2+z
x,-y,-z
-x,1/2+y,1/2-z
-x,-y,-z
x,1/2+y,1/2-z
-x,y,z
x,1/2-y,1/2+z
1/2+x,1/2+y,z
1/2-x,-y,1/2+z
1/2+x,1/2-y,-z
1/2-x,y,1/2-z
1/2-x,1/2-y,-z
1/2+x,y,1/2-z
1/2-x,1/2+y,z
1/2+x,-y,1/2+z
loop_
_atom_site_type_symbol
_atom_site_label
_atom_site_fract_x
_atom_site_fract_y
_atom_site_fract_z
Si Si1 0.256556 0.327009 0.024970
Si Si2 0.599798 0.487502 0.601347
Si Si3 0.397253 0.210618 0.657786
Si Si4 0.400354 0.135959 0.846469
Si Si5 0.305466 0.143249 0.159362
O O1 0.343632 0.337654 0.086430
O O2 0.165569 0.344051 0.074168
O O3 0.250000 0.250000 0.000000
O O4 0.260122 0.365909 0.927801
O O5 0.643484 0.500000 0.500000
O O6 0.500000 0.467043 0.582504
O O7 0.608787 0.554167 0.666296
O O8 0.638766 0.425794 0.660553
O O9 0.500000 0.205755 0.633931
O O10 0.375738 0.177821 0.755941
O O11 0.366927 0.289431 0.653158
O O12 0.500000 0.154192 0.877260
O O13 0.250000 0.149424 0.250000
#
# Coordination Sequence:
#
# PCOD8262883 Si02
#       5
#    16  16  16  16  16
#     4  10  20  34  54  80 113 148 189 235 284 344
#     4  10  20  37  60  86 114 152 198 241 290 353
#     4  10  21  37  58  84 117 156 195 242 293 348
#     4  10  20  36  60  86 113 148 194 241 292 346
#     4  11  22  37  55  85 119 153 193 246 296 349
#
# _framework density 18.404465999999999
#
# number of rings (size 3 to 8) (size 9 to 14) (size 15 to 20)
#    0.000    1.800    2.000    3.600    0.000    4.800 
#    0.000    2.000    0.000    0.000    0.000    7.000 
#    0.000    0.000    0.000    0.000    0.000    0.000 
#
# Total GULP energy -495671.785403 kJ/mol
# GULP energy per Si atom -12391.794635 kJ/mol
# Density = 1.836258 g / cm^3
# Si number density = 18.404466 Si / 1000 Ang^3
#
#
#
# Elastic Constant Matrix: (Units=GPa)
#
#
# Indices 1 2 3 4 5 6 
#
# 1 97.7550 34.0655 65.5913 0.0000 0.0000 0.0000
# 2 34.0655 89.3135 29.4357 0.0000 0.0000 0.0000
# 3 65.5913 29.4357 118.5936 0.0000 0.0000 0.0000
# 4 0.0000 0.0000 0.0000 25.3982 0.0000 0.0000
# 5 0.0000 0.0000 0.0000 0.0000 22.6962 0.0000
# 6 0.0000 0.0000 0.0000 0.0000 0.0000 23.7201
#
#
#
# Elastic Compliance Matrix: (Units=1/GPa)
#
#
# Indices 1 2 3 4 5 6 
#
# 1 0.017355 -0.003764 -0.008664 0.000000 0.000000 0.000000
# 2 -0.003764 0.013010 -0.001148 0.000000 0.000000 0.000000
# 3 -0.008664 -0.001148 0.013509 0.000000 0.000000 0.000000
# 4 0.000000 0.000000 0.000000 0.039373 0.000000 0.000000
# 5 0.000000 0.000000 0.000000 0.000000 0.044060 0.000000
# 6 0.000000 0.000000 0.000000 0.000000 0.000000 0.042158
#
#
# Mechanical properties :
#
#
# Convention : Reuss Voigt Hill
#
# Bulk Modulus (GPa) = 59.79889 62.64967 61.22428
# Shear Modulus (GPa) = 24.72905 26.13420 25.43162
#
# Velocity S-wave (km/s) = 3.66955 3.77237 3.72131
# Velocity P-wave (km/s) = 7.10747 7.28620 7.19739
#
# Compressibility (1/GPa) = 0.01672272
#
# Stress axis : x y z
#
# Youngs Moduli (GPa) = 57.62080 76.86212 74.02453
#
# Poissons Ratio (x) = 0.28930 0.64137
# Poissons Ratio (y) = 0.21688 0.08495
# Poissons Ratio (z) = 0.49925 0.08820
#
# Static dielectric constant tensor:
#      x y z
#    x 4.013090 0.000000 0.000000 
#    y 0.000000 4.093730 0.000000 
#    z 0.000000 0.000000 4.068230 
# 
# 
# High freq. dielectric constant tensor:
#      x y z
#    x 1.706090 0.000000 0.000000 
#    y 0.000000 1.714100 0.000000 
#    z 0.000000 0.000000 1.716460 
# 
# From -- ./inp_files/23640.got.cif
#   From: 2010.03.12/outbox.cif.g09.slc.cpg/sg64_12_cif.got.tgz:23640.got - 2010.04.10 20:19:32.
