data_PCOD8262948
_publ_section_title
;
Structure prediction by ZEFSAII (Michael W. Deem and Ramdas Pophale) SiO2 
 PCOD8262948
Probable space group: C M C A
;
_chemical_formula_sum "Si O2"
_cell_formula_units_Z 72
_cell_length_a 20.981212
_cell_length_b 8.483155
_cell_length_c 19.848452
_cell_angle_alpha 90.000000
_cell_angle_beta 90.000000
_cell_angle_gamma 90.000000
_cell_volume 3532.763915
_symmetry_space_group_name_H-M "C M C A"
_symmetry_group_IT_number 64
_symmetry_cell_setting 'orthorhombic'
loop_
_space_group_symop_operation_xyz
x,y,z
-x,1/2-y,1/2+z
x,-y,-z
-x,1/2+y,1/2-z
-x,-y,-z
x,1/2+y,1/2-z
-x,y,z
x,1/2-y,1/2+z
1/2+x,1/2+y,z
1/2-x,-y,1/2+z
1/2+x,1/2-y,-z
1/2-x,y,1/2-z
1/2-x,1/2-y,-z
1/2+x,y,1/2-z
1/2-x,1/2+y,z
1/2+x,-y,1/2+z
loop_
_atom_site_type_symbol
_atom_site_label
_atom_site_fract_x
_atom_site_fract_y
_atom_site_fract_z
Si Si1 0.074291 0.244171 0.684246
Si Si2 0.423524 0.383477 0.676304
Si Si3 0.760157 0.000000 0.000000
Si Si4 0.428350 0.161237 0.458568
Si Si5 0.162304 0.226385 0.442874
O O1 0.102305 0.320599 0.751872
O O2 0.092481 0.353695 0.619895
O O3 0.000000 0.241457 0.696765
O O4 0.097035 0.065705 0.671353
O O5 0.500000 0.357848 0.664552
O O6 0.381965 0.284998 0.622801
O O7 0.717385 0.903098 0.947203
O O8 0.804134 0.102986 0.950178
O O9 0.500000 0.226215 0.461047
O O10 0.384308 0.293749 0.492618
O O11 0.421909 0.000000 0.500000
#
# Coordination Sequence:
#
# PCOD8262948 Si02
#       5
#    16  16   8  16  16
#     4   9  20  35  55  92 130 157 187 238 312 378
#     4  10  21  37  62  91 124 157 192 247 312 370
#     4  10  24  38  60  82 118 156 212 250 296 336
#     4  10  20  34  60  95 124 152 197 251 306 369
#     4  11  21  40  60  86 113 160 202 249 294 357
#
# _framework density 20.380645000000001
#
# number of rings (size 3 to 8) (size 9 to 14) (size 15 to 20)
#    0.000    2.000    1.111    2.000    3.111    0.000 
#    0.000    4.444    0.000   22.667    0.000    0.000 
#    0.000    0.000    0.000    0.000    0.000    0.000 
#
# Total GULP energy -446101.857971 kJ/mol
# GULP energy per Si atom -12391.718277 kJ/mol
# Density = 2.033426 g / cm^3
# Si number density = 20.380645 Si / 1000 Ang^3
#
#
#
# Elastic Constant Matrix: (Units=GPa)
#
#
# Indices 1 2 3 4 5 6 
#
# 1 95.1961 41.8910 68.6013 0.0000 0.0000 0.0000
# 2 41.8910 105.1200 69.0066 0.0000 0.0000 0.0000
# 3 68.6013 69.0066 163.5552 0.0000 0.0000 0.0000
# 4 0.0000 0.0000 0.0000 34.7527 0.0000 0.0000
# 5 0.0000 0.0000 0.0000 0.0000 18.6608 0.0000
# 6 0.0000 0.0000 0.0000 0.0000 0.0000 20.9543
#
#
#
# Elastic Compliance Matrix: (Units=1/GPa)
#
#
# Indices 1 2 3 4 5 6 
#
# 1 0.015572 -0.002653 -0.005412 0.000000 0.000000 0.000000
# 2 -0.002653 0.013609 -0.004629 0.000000 0.000000 0.000000
# 3 -0.005412 -0.004629 0.010337 0.000000 0.000000 0.000000
# 4 0.000000 0.000000 0.000000 0.028775 0.000000 0.000000
# 5 0.000000 0.000000 0.000000 0.000000 0.053588 0.000000
# 6 0.000000 0.000000 0.000000 0.000000 0.000000 0.047723
#
#
# Mechanical properties :
#
#
# Convention : Reuss Voigt Hill
#
# Bulk Modulus (GPa) = 70.77081 80.31879 75.54480
# Shear Modulus (GPa) = 25.03714 27.16503 26.10109
#
# Velocity S-wave (km/s) = 3.50876 3.65483 3.58254
# Velocity P-wave (km/s) = 7.15648 7.57002 7.36615
#
# Compressibility (1/GPa) = 0.01413012
#
# Stress axis : x y z
#
# Youngs Moduli (GPa) = 64.21659 73.48130 96.73556
#
# Poissons Ratio (x) = 0.19492 0.52357
# Poissons Ratio (y) = 0.17034 0.44781
# Poissons Ratio (z) = 0.34757 0.34016
#
# Static dielectric constant tensor:
#      x y z
#    x 3.784970 0.000000 0.000000 
#    y 0.000000 3.792540 0.000000 
#    z 0.000000 0.000000 3.743990 
# 
# 
# High freq. dielectric constant tensor:
#      x y z
#    x 1.782610 0.000000 0.000000 
#    y 0.000000 1.795670 0.000000 
#    z 0.000000 0.000000 1.794010 
# 
# From -- ./inp_files/34843.got.cif
#   From: 2010.03.12/outbox.cif.g09.slc.cpg/sg64_18_cif.got.tgz:34843.got - 2010.04.10 20:19:32.
