data_PCOD8262653
_publ_section_title
;
Structure prediction by ZEFSAII (Michael W. Deem and Ramdas Pophale) SiO2 
 PCOD8262653
Probable space group: C M C A
;
_chemical_formula_sum "Si O2"
_cell_formula_units_Z 88
_cell_length_a 23.287083
_cell_length_b 13.727909
_cell_length_c 13.054628
_cell_angle_alpha 90.000000
_cell_angle_beta 90.000000
_cell_angle_gamma 90.000000
_cell_volume 4173.342072
_symmetry_space_group_name_H-M "C M C A"
_symmetry_group_IT_number 64
_symmetry_cell_setting 'orthorhombic'
loop_
_space_group_symop_operation_xyz
x,y,z
-x,1/2-y,1/2+z
x,-y,-z
-x,1/2+y,1/2-z
-x,-y,-z
x,1/2+y,1/2-z
-x,y,z
x,1/2-y,1/2+z
1/2+x,1/2+y,z
1/2-x,-y,1/2+z
1/2+x,1/2-y,-z
1/2-x,y,1/2-z
1/2-x,1/2-y,-z
1/2+x,y,1/2-z
1/2-x,1/2+y,z
1/2+x,-y,1/2+z
loop_
_atom_site_type_symbol
_atom_site_label
_atom_site_fract_x
_atom_site_fract_y
_atom_site_fract_z
Si Si1 0.394470 0.473875 0.117066
Si Si2 0.228087 0.034725 0.118083
Si Si3 0.750000 0.788043 0.750000
Si Si4 0.629555 0.192868 0.747277
Si Si5 0.935985 0.615245 0.231758
Si Si6 0.350358 0.984213 0.119520
O O1 0.332317 0.501558 0.167461
O O2 0.398724 0.359560 0.146092
O O3 0.441406 0.539390 0.174222
O O4 0.400590 0.500000 0.000000
O O5 0.234237 0.149803 0.146720
O O6 0.285875 0.990380 0.168498
O O7 0.223539 0.000000 0.000000
O O8 0.695200 0.721608 0.776902
O O9 0.589525 0.283814 0.773779
O O10 0.624585 0.119819 0.845007
O O11 0.893002 0.572239 0.147443
O O12 0.000000 0.630484 0.186579
O O13 0.342101 0.000000 0.000000
#
# Coordination Sequence:
#
# PCOD8262653 Si02
#       6
#    16  16   8  16  16  16
#     4  10  22  42  63  91 127 160 198 254 315 368
#     4  10  19  37  63  94 129 156 192 245 310 378
#     4  12  18  38  64  92 130 168 198 246 308 368
#     4  11  22  37  64  90 118 163 204 251 308 370
#     4  11  24  42  61  88 120 163 217 257 297 363
#     4  10  22  42  63  91 127 160 198 254 315 368
#
# _framework density 21.086217999999999
#
# number of rings (size 3 to 8) (size 9 to 14) (size 15 to 20)
#    0.000    1.455    3.636    2.182    0.000    5.091 
#    0.000    5.455    0.000    0.000    0.000    0.000 
#    0.000    0.000    0.000    0.000    0.000    0.000 
#
# Total GULP energy -545081.762531 kJ/mol
# GULP energy per Si atom -12388.221876 kJ/mol
# Density = 2.103822 g / cm^3
# Si number density = 21.086218 Si / 1000 Ang^3
#
#
#
# Elastic Constant Matrix: (Units=GPa)
#
#
# Indices 1 2 3 4 5 6 
#
# 1 114.8876 25.1449 -6.6390 0.0000 0.0000 0.0000
# 2 25.1449 124.4178 12.9621 0.0000 0.0000 0.0000
# 3 -6.6390 12.9621 45.0112 0.0000 0.0000 0.0000
# 4 0.0000 0.0000 0.0000 21.5503 0.0000 0.0000
# 5 0.0000 0.0000 0.0000 0.0000 16.8768 0.0000
# 6 0.0000 0.0000 0.0000 0.0000 0.0000 1.8228
#
#
#
# Elastic Compliance Matrix: (Units=1/GPa)
#
#
# Indices 1 2 3 4 5 6 
#
# 1 0.009273 -0.002079 0.001966 0.000000 0.000000 0.000000
# 2 -0.002079 0.008752 -0.002827 0.000000 0.000000 0.000000
# 3 0.001966 -0.002827 0.023321 0.000000 0.000000 0.000000
# 4 0.000000 0.000000 0.000000 0.046403 0.000000 0.000000
# 5 0.000000 0.000000 0.000000 0.000000 0.059253 0.000000
# 6 0.000000 0.000000 0.000000 0.000000 0.000000 0.548621
#
#
# Mechanical properties :
#
#
# Convention : Reuss Voigt Hill
#
# Bulk Modulus (GPa) = 28.19552 38.58364 33.38958
# Shear Modulus (GPa) = 7.00944 24.90655 15.95800
#
# Velocity S-wave (km/s) = 1.82521 3.44055 2.75398
# Velocity P-wave (km/s) = 4.22403 5.84132 5.09723
#
# Compressibility (1/GPa) = 0.03546662
#
# Stress axis : x y z
#
# Youngs Moduli (GPa) = 107.84242 114.25824 42.88016
#
# Poissons Ratio (x) = 0.23753 -0.08432
# Poissons Ratio (y) = 0.22419 0.12122
# Poissons Ratio (z) = -0.21206 0.32301
#
# Static dielectric constant tensor:
#      x y z
#    x 3.941730 0.000000 0.000000 
#    y 0.000000 3.873690 0.000000 
#    z 0.000000 0.000000 3.590870 
# 
# 
# High freq. dielectric constant tensor:
#      x y z
#    x 1.828520 0.000000 0.000000 
#    y 0.000000 1.825630 0.000000 
#    z 0.000000 0.000000 1.816260 
# 
# From -- ./inp_files/27205.got.cif
#   From: 2010.03.12/outbox.cif.g09.slc.cpg/sg64_14_cif.got.tgz:27205.got - 2010.04.10 20:19:32.
