data_PCOD8262099
_publ_section_title
;
Structure prediction by ZEFSAII (Michael W. Deem and Ramdas Pophale) SiO2 
 PCOD8262099
Probable space group: C M C A
;
_chemical_formula_sum "Si O2"
_cell_formula_units_Z 80
_cell_length_a 9.034934
_cell_length_b 20.287062
_cell_length_c 27.556857
_cell_angle_alpha 90.000000
_cell_angle_beta 90.000000
_cell_angle_gamma 90.000000
_cell_volume 5050.958770
_symmetry_space_group_name_H-M "C M C A"
_symmetry_group_IT_number 64
_symmetry_cell_setting 'orthorhombic'
loop_
_space_group_symop_operation_xyz
x,y,z
-x,1/2-y,1/2+z
x,-y,-z
-x,1/2+y,1/2-z
-x,-y,-z
x,1/2+y,1/2-z
-x,y,z
x,1/2-y,1/2+z
1/2+x,1/2+y,z
1/2-x,-y,1/2+z
1/2+x,1/2-y,-z
1/2-x,y,1/2-z
1/2-x,1/2-y,-z
1/2+x,y,1/2-z
1/2-x,1/2+y,z
1/2+x,-y,1/2+z
loop_
_atom_site_type_symbol
_atom_site_label
_atom_site_fract_x
_atom_site_fract_y
_atom_site_fract_z
Si Si1 0.833259 0.808954 0.393805
Si Si2 0.829956 0.922829 0.054464
Si Si3 0.675067 0.682633 0.382355
Si Si4 0.170821 0.074571 0.057055
Si Si5 0.667489 0.242630 0.299140
O O1 0.769327 0.877924 0.411235
O O2 0.736664 0.746170 0.412731
O O3 0.831864 0.806896 0.334619
O O4 0.000000 0.800975 0.413715
O O5 0.000000 0.906334 0.064843
O O6 0.795797 0.998260 0.067519
O O7 0.791690 0.908575 0.998553
O O8 0.500000 0.686410 0.378479
O O9 0.722139 0.615910 0.408677
O O10 0.746630 0.683927 0.328048
O O11 0.000000 0.091270 0.068324
O O12 0.500000 0.219835 0.287788
O O13 0.750000 0.261486 0.250000
#
# Coordination Sequence:
#
# PCOD8262099 Si02
#       5
#    16  16  16  16  16
#     4   9  19  32  48  72  99 125 159 204 242 282
#     4   9  18  32  51  70  96 133 166 198 241 289
#     4  10  19  31  49  73  97 128 164 200 240 285
#     4   9  18  33  49  70  99 131 165 201 241 285
#     4   9  18  32  51  74  97 124 155 198 246 289
#
# _framework density 15.838578
#
# number of rings (size 3 to 8) (size 9 to 14) (size 15 to 20)
#    1.200    1.600    0.000    3.600    0.000    2.400 
#    0.000    2.000    0.000    1.200    0.000    2.800 
#    0.000    0.000    0.000    0.000    0.000    0.000 
#
# Total GULP energy -495653.701137 kJ/mol
# GULP energy per Si atom -12391.342528 kJ/mol
# Density = 1.580253 g / cm^3
# Si number density = 15.838578 Si / 1000 Ang^3
#
#
#
# Elastic Constant Matrix: (Units=GPa)
#
#
# Indices 1 2 3 4 5 6 
#
# 1 133.8143 49.5967 50.1895 0.0000 0.0000 0.0000
# 2 49.5967 68.9746 39.1135 0.0000 0.0000 0.0000
# 3 50.1895 39.1135 69.8733 0.0000 0.0000 0.0000
# 4 0.0000 0.0000 0.0000 6.9477 0.0000 0.0000
# 5 0.0000 0.0000 0.0000 0.0000 21.8724 0.0000
# 6 0.0000 0.0000 0.0000 0.0000 0.0000 31.3381
#
#
#
# Elastic Compliance Matrix: (Units=1/GPa)
#
#
# Indices 1 2 3 4 5 6 
#
# 1 0.011371 -0.005193 -0.005261 0.000000 0.000000 0.000000
# 2 -0.005193 0.023612 -0.009487 0.000000 0.000000 0.000000
# 3 -0.005261 -0.009487 0.023401 0.000000 0.000000 0.000000
# 4 0.000000 0.000000 0.000000 0.143932 0.000000 0.000000
# 5 0.000000 0.000000 0.000000 0.000000 0.045720 0.000000
# 6 0.000000 0.000000 0.000000 0.000000 0.000000 0.031910
#
#
# Mechanical properties :
#
#
# Convention : Reuss Voigt Hill
#
# Bulk Modulus (GPa) = 54.04846 61.16239 57.60542
# Shear Modulus (GPa) = 15.33759 20.94915 18.14337
#
# Velocity S-wave (km/s) = 3.11524 3.64079 3.38822
# Velocity P-wave (km/s) = 6.86573 7.50825 7.19416
#
# Compressibility (1/GPa) = 0.01850191
#
# Stress axis : x y z
#
# Youngs Moduli (GPa) = 87.94357 42.35076 42.73297
#
# Poissons Ratio (x) = 0.21994 0.22480
# Poissons Ratio (y) = 0.45671 0.40543
# Poissons Ratio (z) = 0.46264 0.40180
#
# Static dielectric constant tensor:
#      x y z
#    x 3.006270 0.000000 0.000000 
#    y 0.000000 2.779530 0.000000 
#    z 0.000000 0.000000 2.792980 
# 
# 
# High freq. dielectric constant tensor:
#      x y z
#    x 1.621250 0.000000 0.000000 
#    y 0.000000 1.588330 0.000000 
#    z 0.000000 0.000000 1.588160 
# 
# From -- ./inp_files/51930.got.cif
#   From: 2010.03.12/outbox.cif.g09.slc.cpg/sg64_26_cif.got.tgz:51930.got - 2010.04.10 20:19:32.
