data_PCOD8262430
_publ_section_title
;
Structure prediction by ZEFSAII (Michael W. Deem and Ramdas Pophale) SiO2 
 PCOD8262430
Probable space group: C M C A
;
_chemical_formula_sum "Si O2"
_cell_formula_units_Z 80
_cell_length_a 8.711728
_cell_length_b 18.461629
_cell_length_c 25.627822
_cell_angle_alpha 90.000000
_cell_angle_beta 90.000000
_cell_angle_gamma 90.000000
_cell_volume 4121.791558
_symmetry_space_group_name_H-M "C M C A"
_symmetry_group_IT_number 64
_symmetry_cell_setting 'orthorhombic'
loop_
_space_group_symop_operation_xyz
x,y,z
-x,1/2-y,1/2+z
x,-y,-z
-x,1/2+y,1/2-z
-x,-y,-z
x,1/2+y,1/2-z
-x,y,z
x,1/2-y,1/2+z
1/2+x,1/2+y,z
1/2-x,-y,1/2+z
1/2+x,1/2-y,-z
1/2-x,y,1/2-z
1/2-x,1/2-y,-z
1/2+x,y,1/2-z
1/2-x,1/2+y,z
1/2+x,-y,1/2+z
loop_
_atom_site_type_symbol
_atom_site_label
_atom_site_fract_x
_atom_site_fract_y
_atom_site_fract_z
Si Si1 0.681753 0.418580 0.501403
Si Si2 0.321510 0.166469 0.404527
Si Si3 0.182176 0.578462 0.805142
Si Si4 0.321246 0.575614 0.196404
Si Si5 0.317437 0.169863 0.902770
O O1 0.749019 0.500000 0.500000
O O2 0.500000 0.420735 0.497978
O O3 0.728865 0.381227 0.554828
O O4 0.749096 0.374081 0.452260
O O5 0.500000 0.163658 0.419475
O O6 0.291646 0.135936 0.346986
O O7 0.256546 0.248076 0.405847
O O8 0.250000 0.604573 0.750000
O O9 0.239183 0.498584 0.820217
O O10 0.242404 0.633070 0.849603
O O11 0.000000 0.577827 0.801643
O O12 0.500000 0.559246 0.204678
O O13 0.250000 0.605990 0.250000
O O14 0.500000 0.169142 0.903240
#
# Coordination Sequence:
#
# PCOD8262430 Si02
#       5
#    16  16  16  16  16
#     4  10  20  35  56  79 102 134 175 212 253 309
#     4  10  21  36  53  76 106 137 170 212 260 304
#     4  10  19  34  56  78 104 137 173 214 256 301
#     4  10  20  34  53  76 103 135 172 212 254 302
#     4   9  19  35  53  75 106 139 169 208 258 307
#
# _framework density 19.409036
#
# number of rings (size 3 to 8) (size 9 to 14) (size 15 to 20)
#    0.000    2.200    0.000    4.200    0.000    4.400 
#    0.000    4.000    0.000    0.000    0.000    0.000 
#    0.000    0.000    0.000    0.000    0.000    0.000 
#
# Total GULP energy -496088.443392 kJ/mol
# GULP energy per Si atom -12402.211085 kJ/mol
# Density = 1.936486 g / cm^3
# Si number density = 19.409036 Si / 1000 Ang^3
#
#
#
# Elastic Constant Matrix: (Units=GPa)
#
#
# Indices 1 2 3 4 5 6 
#
# 1 45.3907 24.0293 27.7233 0.0000 0.0000 0.0000
# 2 24.0293 159.1693 81.9874 0.0000 0.0000 0.0000
# 3 27.7233 81.9874 127.8897 0.0000 0.0000 0.0000
# 4 0.0000 0.0000 0.0000 35.9484 0.0000 0.0000
# 5 0.0000 0.0000 0.0000 0.0000 22.9491 0.0000
# 6 0.0000 0.0000 0.0000 0.0000 0.0000 11.2513
#
#
#
# Elastic Compliance Matrix: (Units=1/GPa)
#
#
# Indices 1 2 3 4 5 6 
#
# 1 0.025632 -0.001504 -0.004592 0.000000 0.000000 0.000000
# 2 -0.001504 0.009468 -0.005744 0.000000 0.000000 0.000000
# 3 -0.004592 -0.005744 0.012497 0.000000 0.000000 0.000000
# 4 0.000000 0.000000 0.000000 0.027818 0.000000 0.000000
# 5 0.000000 0.000000 0.000000 0.000000 0.043575 0.000000
# 6 0.000000 0.000000 0.000000 0.000000 0.000000 0.088879
#
#
# Mechanical properties :
#
#
# Convention : Reuss Voigt Hill
#
# Bulk Modulus (GPa) = 41.81132 66.65886 54.23509
# Shear Modulus (GPa) = 20.87500 27.27706 24.07603
#
# Velocity S-wave (km/s) = 3.28309 3.75291 3.52583
# Velocity P-wave (km/s) = 5.99671 7.29369 6.67676
#
# Compressibility (1/GPa) = 0.02391697
#
# Stress axis : x y z
#
# Youngs Moduli (GPa) = 39.01375 105.61496 80.01943
#
# Poissons Ratio (x) = 0.15887 0.36745
# Poissons Ratio (y) = 0.05869 0.45962
# Poissons Ratio (z) = 0.17915 0.60664
#
# Static dielectric constant tensor:
#      x y z
#    x 3.336800 0.000000 0.000000 
#    y 0.000000 3.716600 0.000000 
#    z 0.000000 0.000000 3.656670 
# 
# 
# High freq. dielectric constant tensor:
#      x y z
#    x 1.734700 0.000000 0.000000 
#    y 0.000000 1.761090 0.000000 
#    z 0.000000 0.000000 1.770680 
# 
# From -- ./inp_files/47823.got.cif
#   From: 2010.03.12/outbox.cif.g09.slc.cpg/sg64_24_cif.got.tgz:47823.got - 2010.04.10 20:19:32.
