data_PCOD8262835
_publ_section_title
;
Structure prediction by ZEFSAII (Michael W. Deem and Ramdas Pophale) SiO2 
 PCOD8262835
Probable space group: C M C A
;
_chemical_formula_sum "Si O2"
_cell_formula_units_Z 56
_cell_length_a 22.967145
_cell_length_b 12.538780
_cell_length_c 8.197350
_cell_angle_alpha 90.000000
_cell_angle_beta 90.000000
_cell_angle_gamma 90.000000
_cell_volume 2360.672676
_symmetry_space_group_name_H-M "C M C A"
_symmetry_group_IT_number 64
_symmetry_cell_setting 'orthorhombic'
loop_
_space_group_symop_operation_xyz
x,y,z
-x,1/2-y,1/2+z
x,-y,-z
-x,1/2+y,1/2-z
-x,-y,-z
x,1/2+y,1/2-z
-x,y,z
x,1/2-y,1/2+z
1/2+x,1/2+y,z
1/2-x,-y,1/2+z
1/2+x,1/2-y,-z
1/2-x,y,1/2-z
1/2-x,1/2-y,-z
1/2+x,y,1/2-z
1/2-x,1/2+y,z
1/2+x,-y,1/2+z
loop_
_atom_site_type_symbol
_atom_site_label
_atom_site_fract_x
_atom_site_fract_y
_atom_site_fract_z
Si Si1 0.346347 0.090897 0.308673
Si Si2 0.935750 0.945258 0.326084
Si Si3 0.250000 0.426094 0.250000
Si Si4 0.161071 0.195408 0.541660
O O1 0.342300 0.175602 0.456478
O O2 0.408135 0.028844 0.303668
O O3 0.297216 0.002436 0.334762
O O4 0.338799 0.157668 0.143114
O O5 0.893779 0.844048 0.350308
O O6 0.000000 0.910045 0.264019
O O7 0.940907 0.000000 0.500000
O O8 0.221073 0.350033 0.115021
#
# Coordination Sequence:
#
# PCOD8262835 Si02
#       4
#    16  16   8  16
#     4  10  21  35  54  80 106 137 176 217 264 314
#     4   8  16  34  56  76 103 139 176 213 256 311
#     4  10  20  34  52  72 102 138 178 214 250 304
#     4  10  21  35  54  80 106 137 176 217 264 314
#
# _framework density 23.722051
#
# number of rings (size 3 to 8) (size 9 to 14) (size 15 to 20)
#    0.000    2.571    0.000    3.429    0.000    8.000 
#    0.000    4.286    0.000    1.714    0.000    0.000 
#    0.000    0.000    0.000    0.000    0.000    0.000 
#
# Total GULP energy -347135.407542 kJ/mol
# GULP energy per Si atom -12397.693127 kJ/mol
# Density = 2.366806 g / cm^3
# Si number density = 23.722051 Si / 1000 Ang^3
#
#
#
# Elastic Constant Matrix: (Units=GPa)
#
#
# Indices 1 2 3 4 5 6 
#
# 1 146.5853 23.9542 6.4603 0.0000 0.0000 0.0000
# 2 23.9542 101.4793 9.9318 0.0000 0.0000 0.0000
# 3 6.4603 9.9318 39.8504 0.0000 0.0000 0.0000
# 4 0.0000 0.0000 0.0000 33.0982 0.0000 0.0000
# 5 0.0000 0.0000 0.0000 0.0000 14.8560 0.0000
# 6 0.0000 0.0000 0.0000 0.0000 0.0000 28.4946
#
#
#
# Elastic Compliance Matrix: (Units=1/GPa)
#
#
# Indices 1 2 3 4 5 6 
#
# 1 0.007118 -0.001606 -0.000754 0.000000 0.000000 0.000000
# 2 -0.001606 0.010463 -0.002347 0.000000 0.000000 0.000000
# 3 -0.000754 -0.002347 0.025801 0.000000 0.000000 0.000000
# 4 0.000000 0.000000 0.000000 0.030213 0.000000 0.000000
# 5 0.000000 0.000000 0.000000 0.000000 0.067313 0.000000
# 6 0.000000 0.000000 0.000000 0.000000 0.000000 0.035094
#
#
# Mechanical properties :
#
#
# Convention : Reuss Voigt Hill
#
# Bulk Modulus (GPa) = 29.43993 40.95641 35.19817
# Shear Modulus (GPa) = 25.41434 31.79432 28.60433
#
# Velocity S-wave (km/s) = 3.27668 3.66496 3.47625
# Velocity P-wave (km/s) = 5.17231 5.93396 5.56618
#
# Compressibility (1/GPa) = 0.03396747
#
# Stress axis : x y z
#
# Youngs Moduli (GPa) = 140.49516 95.57359 38.75815
#
# Poissons Ratio (x) = 0.15353 0.02921
# Poissons Ratio (y) = 0.22569 0.09098
# Poissons Ratio (z) = 0.10587 0.22434
#
# Static dielectric constant tensor:
#      x y z
#    x 4.988250 0.000000 0.000000 
#    y 0.000000 4.384070 0.000000 
#    z 0.000000 0.000000 3.906680 
# 
# 
# High freq. dielectric constant tensor:
#      x y z
#    x 1.938470 0.000000 0.000000 
#    y 0.000000 1.944330 0.000000 
#    z 0.000000 0.000000 1.921820 
# 
# From -- ./inp_files/7638.got.cif
#   From: 2010.03.12/outbox.cif.g09.slc.cpg/sg64_4_cif.got.tgz:7638.got - 2010.04.10 20:19:32.
