data_PCOD8262155
_publ_section_title
;
Structure prediction by ZEFSAII (Michael W. Deem and Ramdas Pophale) SiO2 
 PCOD8262155
Probable space group: C M C A
;
_chemical_formula_sum "Si O2"
_cell_formula_units_Z 96
_cell_length_a 9.191048
_cell_length_b 20.311740
_cell_length_c 27.655339
_cell_angle_alpha 90.000000
_cell_angle_beta 90.000000
_cell_angle_gamma 90.000000
_cell_volume 5162.869520
_symmetry_space_group_name_H-M "C M C A"
_symmetry_group_IT_number 64
_symmetry_cell_setting 'orthorhombic'
loop_
_space_group_symop_operation_xyz
x,y,z
-x,1/2-y,1/2+z
x,-y,-z
-x,1/2+y,1/2-z
-x,-y,-z
x,1/2+y,1/2-z
-x,y,z
x,1/2-y,1/2+z
1/2+x,1/2+y,z
1/2-x,-y,1/2+z
1/2+x,1/2-y,-z
1/2-x,y,1/2-z
1/2-x,1/2-y,-z
1/2+x,y,1/2-z
1/2-x,1/2+y,z
1/2+x,-y,1/2+z
loop_
_atom_site_type_symbol
_atom_site_label
_atom_site_fract_x
_atom_site_fract_y
_atom_site_fract_z
Si Si1 0.169895 0.887902 0.132159
Si Si2 0.831417 0.326802 0.050746
Si Si3 0.327738 0.508497 0.199575
Si Si4 0.668564 0.729154 0.798770
Si Si5 0.167717 0.630865 0.156233
Si Si6 0.666703 0.307047 0.557546
O O1 0.254416 0.884938 0.081074
O O2 0.218395 0.823330 0.161447
O O3 0.000000 0.888776 0.120827
O O4 0.217073 0.952318 0.161641
O O5 0.767590 0.255932 0.064867
O O6 0.000000 0.326173 0.063816
O O7 0.804339 0.341475 0.994021
O O8 0.500000 0.511118 0.208316
O O9 0.250000 0.492888 0.250000
O O10 0.274994 0.577305 0.178008
O O11 0.500000 0.720596 0.787825
O O12 0.750000 0.712433 0.750000
O O13 0.706803 0.801529 0.817142
O O14 0.198944 0.639285 0.099051
O O15 0.000000 0.610711 0.165528
O O16 0.500000 0.282080 0.561979
#
# Coordination Sequence:
#
# PCOD8262155 Si02
#       6
#    16  16  16  16  16  16
#     4  10  21  39  57  77 111 151 185 225 281 335
#     4  10  19  31  56  89 114 143 185 231 276 328
#     4  11  24  40  59  81 111 151 190 231 281 335
#     4  10  20  34  54  78 104 139 180 227 278 325
#     4  10  20  37  59  80 110 149 185 228 277 331
#     4   9  18  35  56  82 117 151 181 222 282 335
#
# _framework density 18.594311000000001
#
# number of rings (size 3 to 8) (size 9 to 14) (size 15 to 20)
#    0.000    2.000    1.667    2.000    0.000    5.333 
#    0.000    0.833    0.000    5.000    0.000    0.000 
#    0.000    0.000    0.000    0.000    0.000    0.000 
#
# Total GULP energy -595321.374009 kJ/mol
# GULP energy per Si atom -12402.528625 kJ/mol
# Density = 1.855199 g / cm^3
# Si number density = 18.594311 Si / 1000 Ang^3
#
#
#
# Elastic Constant Matrix: (Units=GPa)
#
#
# Indices 1 2 3 4 5 6 
#
# 1 53.4512 15.6337 23.0750 0.0000 0.0000 0.0000
# 2 15.6337 48.4925 -5.0088 0.0000 0.0000 0.0000
# 3 23.0750 -5.0088 69.7155 0.0000 0.0000 0.0000
# 4 0.0000 0.0000 0.0000 49.4143 0.0000 0.0000
# 5 0.0000 0.0000 0.0000 0.0000 35.5918 0.0000
# 6 0.0000 0.0000 0.0000 0.0000 0.0000 26.4054
#
#
#
# Elastic Compliance Matrix: (Units=1/GPa)
#
#
# Indices 1 2 3 4 5 6 
#
# 1 0.025251 -0.009072 -0.009010 0.000000 0.000000 0.000000
# 2 -0.009072 0.024035 0.004729 0.000000 0.000000 0.000000
# 3 -0.009010 0.004729 0.017666 0.000000 0.000000 0.000000
# 4 0.000000 0.000000 0.000000 0.020237 0.000000 0.000000
# 5 0.000000 0.000000 0.000000 0.000000 0.028096 0.000000
# 6 0.000000 0.000000 0.000000 0.000000 0.000000 0.037871
#
#
# Mechanical properties :
#
#
# Convention : Reuss Voigt Hill
#
# Bulk Modulus (GPa) = 24.84560 26.56210 25.70385
# Shear Modulus (GPa) = 25.86966 31.47959 28.67463
#
# Velocity S-wave (km/s) = 3.73402 4.11903 3.93124
# Velocity P-wave (km/s) = 5.65521 6.07766 5.87024
#
# Compressibility (1/GPa) = 0.04024857
#
# Stress axis : x y z
#
# Youngs Moduli (GPa) = 39.60168 41.60620 56.60626
#
# Poissons Ratio (x) = 0.37743 0.51000
# Poissons Ratio (y) = 0.35925 -0.26771
# Poissons Ratio (z) = 0.35680 -0.19677
#
# Static dielectric constant tensor:
#      x y z
#    x 3.402870 0.000000 0.000000 
#    y 0.000000 3.250590 0.000000 
#    z 0.000000 0.000000 3.544610 
# 
# 
# High freq. dielectric constant tensor:
#      x y z
#    x 1.722150 0.000000 0.000000 
#    y 0.000000 1.702400 0.000000 
#    z 0.000000 0.000000 1.737950 
# 
# From -- ./inp_files/48048.got.cif
#   From: 2010.03.12/outbox.cif.g09.slc.cpg/sg64_25_cif.got.tgz:48048.got - 2010.04.10 20:19:32.
