data_PCOD8262759
_publ_section_title
;
Structure prediction by ZEFSAII (Michael W. Deem and Ramdas Pophale) SiO2 
 PCOD8262759
Probable space group: C M C A
;
_chemical_formula_sum "Si O2"
_cell_formula_units_Z 104
_cell_length_a 19.108452
_cell_length_b 31.571387
_cell_length_c 9.092643
_cell_angle_alpha 90.000000
_cell_angle_beta 90.000000
_cell_angle_gamma 90.000000
_cell_volume 5485.412697
_symmetry_space_group_name_H-M "C M C A"
_symmetry_group_IT_number 64
_symmetry_cell_setting 'orthorhombic'
loop_
_space_group_symop_operation_xyz
x,y,z
-x,1/2-y,1/2+z
x,-y,-z
-x,1/2+y,1/2-z
-x,-y,-z
x,1/2+y,1/2-z
-x,y,z
x,1/2-y,1/2+z
1/2+x,1/2+y,z
1/2-x,-y,1/2+z
1/2+x,1/2-y,-z
1/2-x,y,1/2-z
1/2-x,1/2-y,-z
1/2+x,y,1/2-z
1/2-x,1/2+y,z
1/2+x,-y,1/2+z
loop_
_atom_site_type_symbol
_atom_site_label
_atom_site_fract_x
_atom_site_fract_y
_atom_site_fract_z
Si Si1 0.277199 0.000000 0.000000
Si Si2 0.173081 0.067728 0.704788
Si Si3 0.857381 0.545830 0.485138
Si Si4 0.582303 0.284156 0.310832
Si Si5 0.918805 0.368913 0.022162
Si Si6 0.916195 0.203221 0.016680
Si Si7 0.081167 0.878910 0.818042
O O1 0.323038 0.979946 0.132742
O O2 0.225395 0.961776 0.947530
O O3 0.250000 0.084620 0.750000
O O4 0.129565 0.066907 0.855541
O O5 0.132886 0.097225 0.591987
O O6 0.895850 0.500000 0.500000
O O7 0.886018 0.575821 0.357820
O O8 0.500000 0.278839 0.295133
O O9 0.601263 0.323188 0.415472
O O10 0.613390 0.241597 0.383522
O O11 0.613945 0.291524 0.148284
O O12 0.000000 0.380331 0.055495
O O13 0.903390 0.368036 0.849954
O O14 0.000000 0.203627 0.017706
O O15 0.887437 0.159040 0.082632
O O16 0.000000 0.882956 0.850292
#
# Coordination Sequence:
#
# PCOD8262759 Si02
#       7
#     8  16  16  16  16  16  16
#     4   8  20  36  58  74  96 130 184 234 266 320
#     4  10  20  37  58  80 103 138 184 223 270 324
#     4   9  20  34  53  76  99 136 181 224 273 309
#     4   9  16  28  47  75 107 143 178 220 264 315
#     4  10  21  34  53  80 113 143 179 222 272 319
#     4   9  16  27  47  72 107 144 180 215 261 319
#     4  10  20  33  49  78 114 148 179 221 271 322
#
# _framework density 18.959377
#
# number of rings (size 3 to 8) (size 9 to 14) (size 15 to 20)
#    0.462    2.154    0.000    1.846    2.154    5.846 
#    0.000    0.385    0.000    0.000    0.000   17.231 
#    0.000    0.000    0.000    0.000    0.000    0.000 
#
# Total GULP energy -644389.111084 kJ/mol
# GULP energy per Si atom -12392.098290 kJ/mol
# Density = 1.891622 g / cm^3
# Si number density = 18.959377 Si / 1000 Ang^3
#
#
#
# Elastic Constant Matrix: (Units=GPa)
#
#
# Indices 1 2 3 4 5 6 
#
# 1 29.0675 31.5298 34.4964 0.0000 0.0000 0.0000
# 2 31.5298 133.6585 65.9952 0.0000 0.0000 0.0000
# 3 34.4964 65.9952 121.2849 0.0000 0.0000 0.0000
# 4 0.0000 0.0000 0.0000 41.5312 0.0000 0.0000
# 5 0.0000 0.0000 0.0000 0.0000 23.3488 0.0000
# 6 0.0000 0.0000 0.0000 0.0000 0.0000 -2.3430
#
#
#
# Elastic Compliance Matrix: (Units=1/GPa)
#
#
# Indices 1 2 3 4 5 6 
#
# 1 0.056849 -0.007421 -0.012131 0.000000 0.000000 0.000000
# 2 -0.007421 0.011199 -0.003983 0.000000 0.000000 0.000000
# 3 -0.012131 -0.003983 0.013863 0.000000 0.000000 0.000000
# 4 0.000000 0.000000 0.000000 0.024078 0.000000 0.000000
# 5 0.000000 0.000000 0.000000 0.000000 0.042829 0.000000
# 6 0.000000 0.000000 0.000000 0.000000 0.000000 -0.426800
#
#
# Mechanical properties :
#
#
# Convention : Reuss Voigt Hill
#
# Bulk Modulus (GPa) = 28.70220 60.89487 44.79853
# Shear Modulus (GPa) = -22.80001 22.64003 -0.07999
#
# Velocity S-wave (km/s) = -3.47157 3.45937 -0.20563
# Velocity P-wave (km/s) = 0.94734 6.93864 4.86041
#
# Compressibility (1/GPa) = 0.03484054
#
# Stress axis : x y z
#
# Youngs Moduli (GPa) = 17.59043 89.29391 72.13497
#
# Poissons Ratio (x) = 0.66261 0.87511
# Poissons Ratio (y) = 0.13053 0.28732
# Poissons Ratio (z) = 0.21340 0.35567
#
# Static dielectric constant tensor:
#      x y z
#    x 2.940020 0.000000 0.000000 
#    y 0.000000 3.528060 0.000000 
#    z 0.000000 0.000000 3.652240 
# 
# 
# High freq. dielectric constant tensor:
#      x y z
#    x 1.674270 0.000000 0.000000 
#    y 0.000000 1.740950 0.000000 
#    z 0.000000 0.000000 1.754830 
# 
# From -- ./inp_files/9770.got.cif
#   From: 2010.03.12/outbox.cif.g09.slc.cpg/sg64_5_cif.got.tgz:9770.got - 2010.04.10 20:19:32.
