data_PCOD8262548
_publ_section_title
;
Structure prediction by ZEFSAII (Michael W. Deem and Ramdas Pophale) SiO2 
 PCOD8262548
Probable space group: C M C A
;
_chemical_formula_sum "Si O2"
_cell_formula_units_Z 96
_cell_length_a 8.843088
_cell_length_b 19.722242
_cell_length_c 27.771854
_cell_angle_alpha 90.000000
_cell_angle_beta 90.000000
_cell_angle_gamma 90.000000
_cell_volume 4843.564682
_symmetry_space_group_name_H-M "C M C A"
_symmetry_group_IT_number 64
_symmetry_cell_setting 'orthorhombic'
loop_
_space_group_symop_operation_xyz
x,y,z
-x,1/2-y,1/2+z
x,-y,-z
-x,1/2+y,1/2-z
-x,-y,-z
x,1/2+y,1/2-z
-x,y,z
x,1/2-y,1/2+z
1/2+x,1/2+y,z
1/2-x,-y,1/2+z
1/2+x,1/2-y,-z
1/2-x,y,1/2-z
1/2-x,1/2-y,-z
1/2+x,y,1/2-z
1/2-x,1/2+y,z
1/2+x,-y,1/2+z
loop_
_atom_site_type_symbol
_atom_site_label
_atom_site_fract_x
_atom_site_fract_y
_atom_site_fract_z
Si Si1 0.177303 0.670126 0.701512
Si Si2 0.325932 0.225264 0.951777
Si Si3 0.178772 0.519275 0.053941
Si Si4 0.679453 0.105017 0.602935
Si Si5 0.321099 0.673948 0.299394
Si Si6 0.825643 0.640043 0.395253
O O1 0.250000 0.639857 0.750000
O O2 0.234147 0.626373 0.656222
O O3 0.227419 0.747834 0.693948
O O4 0.000000 0.665038 0.707450
O O5 0.500000 0.207535 0.961763
O O6 0.242056 0.157512 0.935900
O O7 0.308039 0.282238 0.911106
O O8 0.250000 0.250000 0.000000
O O9 0.253463 0.468467 0.092157
O O10 0.240479 0.593905 0.065607
O O11 0.000000 0.517391 0.059862
O O12 0.228820 0.500000 0.000000
O O13 0.500000 0.103858 0.599015
O O14 0.500000 0.664075 0.298617
O O15 0.250000 0.645454 0.250000
O O16 0.251264 0.631033 0.343187
O O17 0.000000 0.617972 0.392266
#
# Coordination Sequence:
#
# PCOD8262548 Si02
#       6
#    16  16  16  16  16  16
#     4   9  19  34  57  88 120 155 191 237 292 349
#     4  11  23  37  58  87 118 152 196 248 300 353
#     4  11  25  43  62  85 117 160 204 249 304 362
#     4  11  22  39  61  88 120 155 198 245 297 356
#     4  10  19  35  59  89 123 157 195 242 297 353
#     4  11  23  39  60  88 119 157 201 247 298 355
#
# _framework density 19.820112999999999
#
# number of rings (size 3 to 8) (size 9 to 14) (size 15 to 20)
#    0.000    1.500    1.667    3.500    0.000    8.000 
#    0.000    0.833    0.000    2.000    0.000    0.000 
#    0.000    0.000    0.000    0.000    0.000    0.000 
#
# Total GULP energy -595484.733488 kJ/mol
# GULP energy per Si atom -12405.931948 kJ/mol
# Density = 1.977500 g / cm^3
# Si number density = 19.820113 Si / 1000 Ang^3
#
#
#
# Elastic Constant Matrix: (Units=GPa)
#
#
# Indices 1 2 3 4 5 6 
#
# 1 88.2320 18.2622 42.9006 0.0000 0.0000 0.0000
# 2 18.2622 47.1486 4.4395 0.0000 0.0000 0.0000
# 3 42.9006 4.4395 112.1464 0.0000 0.0000 0.0000
# 4 0.0000 0.0000 0.0000 34.7623 0.0000 0.0000
# 5 0.0000 0.0000 0.0000 0.0000 38.3494 0.0000
# 6 0.0000 0.0000 0.0000 0.0000 0.0000 33.6129
#
#
#
# Elastic Compliance Matrix: (Units=1/GPa)
#
#
# Indices 1 2 3 4 5 6 
#
# 1 0.015156 -0.005344 -0.005586 0.000000 0.000000 0.000000
# 2 -0.005344 0.023174 0.001127 0.000000 0.000000 0.000000
# 3 -0.005586 0.001127 0.011009 0.000000 0.000000 0.000000
# 4 0.000000 0.000000 0.000000 0.028767 0.000000 0.000000
# 5 0.000000 0.000000 0.000000 0.000000 0.026076 0.000000
# 6 0.000000 0.000000 0.000000 0.000000 0.000000 0.029750
#
#
# Mechanical properties :
#
#
# Convention : Reuss Voigt Hill
#
# Bulk Modulus (GPa) = 33.63417 42.08128 37.85772
# Shear Modulus (GPa) = 30.59039 33.47323 32.03181
#
# Velocity S-wave (km/s) = 3.93288 4.11402 4.02447
# Velocity P-wave (km/s) = 6.13432 6.62153 6.38257
#
# Compressibility (1/GPa) = 0.02973167
#
# Stress axis : x y z
#
# Youngs Moduli (GPa) = 65.97992 43.15273 90.83253
#
# Poissons Ratio (x) = 0.23063 0.50741
# Poissons Ratio (y) = 0.35263 -0.10238
# Poissons Ratio (z) = 0.36858 -0.04864
#
# Static dielectric constant tensor:
#      x y z
#    x 3.677190 0.000000 0.000000 
#    y 0.000000 3.473850 0.000000 
#    z 0.000000 0.000000 3.756190 
# 
# 
# High freq. dielectric constant tensor:
#      x y z
#    x 1.783630 0.000000 0.000000 
#    y 0.000000 1.753670 0.000000 
#    z 0.000000 0.000000 1.785870 
# 
# From -- ./inp_files/48107.got.cif
#   From: 2010.03.12/outbox.cif.g09.slc.cpg/sg64_25_cif.got.tgz:48107.got - 2010.04.10 20:19:32.
