data_PCOD8262285
_publ_section_title
;
Structure prediction by ZEFSAII (Michael W. Deem and Ramdas Pophale) SiO2 
 PCOD8262285
Probable space group: C M C A
;
_chemical_formula_sum "Si O2"
_cell_formula_units_Z 128
_cell_length_a 17.287392
_cell_length_b 18.953009
_cell_length_c 23.374199
_cell_angle_alpha 90.000000
_cell_angle_beta 90.000000
_cell_angle_gamma 90.000000
_cell_volume 7658.511802
_symmetry_space_group_name_H-M "C M C A"
_symmetry_group_IT_number 64
_symmetry_cell_setting 'orthorhombic'
loop_
_space_group_symop_operation_xyz
x,y,z
-x,1/2-y,1/2+z
x,-y,-z
-x,1/2+y,1/2-z
-x,-y,-z
x,1/2+y,1/2-z
-x,y,z
x,1/2-y,1/2+z
1/2+x,1/2+y,z
1/2-x,-y,1/2+z
1/2+x,1/2-y,-z
1/2-x,y,1/2-z
1/2-x,1/2-y,-z
1/2+x,y,1/2-z
1/2-x,1/2+y,z
1/2+x,-y,1/2+z
loop_
_atom_site_type_symbol
_atom_site_label
_atom_site_fract_x
_atom_site_fract_y
_atom_site_fract_z
Si Si1 0.910271 0.856889 0.933603
Si Si2 0.340797 0.000994 0.257133
Si Si3 0.150603 0.251422 0.341857
Si Si4 0.590999 0.652348 0.936160
Si Si5 0.588301 0.859184 0.766590
Si Si6 0.090045 0.005528 0.879791
Si Si7 0.669730 0.777819 0.666218
Si Si8 0.840482 0.847285 0.260475
O O1 0.863565 0.802672 0.893994
O O2 0.000000 0.839945 0.924781
O O3 0.893248 0.938666 0.920283
O O4 0.883334 0.842620 0.998134
O O5 0.250000 0.012310 0.250000
O O6 0.358313 0.004569 0.324198
O O7 0.371752 0.926473 0.231769
O O8 0.387864 0.060026 0.222426
O O9 0.133130 0.282866 0.404160
O O10 0.098923 0.183030 0.326126
O O11 0.238167 0.225181 0.337025
O O12 0.124619 0.311237 0.296255
O O13 0.500000 0.661689 0.929020
O O14 0.617011 0.576229 0.912214
O O15 0.500000 0.854734 0.745338
O O16 0.644409 0.830589 0.716646
O O17 0.000000 0.009198 0.862713
O O18 0.639112 0.699339 0.683363
O O19 0.750000 0.851525 0.250000
#
# Coordination Sequence:
#
# PCOD8262285 Si02
#       8
#    16  16  16  16  16  16  16  16
#     4  10  20  34  52  76 104 136 171 210 258 307
#     4  11  19  31  52  77 102 137 166 202 253 303
#     4  10  19  34  51  73 101 133 172 210 252 300
#     4  10  20  34  53  76 103 137 172 210 259 307
#     4  11  21  33  49  75 105 135 168 207 255 309
#     4  10  19  33  52  77 107 135 167 208 253 313
#     4  10  19  33  52  73 102 133 170 211 252 303
#     4   8  17  31  48  72  99 130 162 203 250 299
#
# _framework density 16.713429999999999
#
# number of rings (size 3 to 8) (size 9 to 14) (size 15 to 20)
#    0.000    2.000    2.500    3.375    0.000    2.000 
#    0.000    1.875    0.000    0.000    0.000    0.875 
#    0.000    3.000    0.000    0.000    0.000    0.000 
#
# Total GULP energy -793462.341258 kJ/mol
# GULP energy per Si atom -12397.849082 kJ/mol
# Density = 1.667539 g / cm^3
# Si number density = 16.713430 Si / 1000 Ang^3
#
#
#
# Elastic Constant Matrix: (Units=GPa)
#
#
# Indices 1 2 3 4 5 6 
#
# 1 63.4195 38.7403 35.1118 0.0000 0.0000 0.0000
# 2 38.7403 136.0720 59.0149 0.0000 0.0000 0.0000
# 3 35.1118 59.0149 101.0206 0.0000 0.0000 0.0000
# 4 0.0000 0.0000 0.0000 29.1089 0.0000 0.0000
# 5 0.0000 0.0000 0.0000 0.0000 20.9508 0.0000
# 6 0.0000 0.0000 0.0000 0.0000 0.0000 18.8421
#
#
#
# Elastic Compliance Matrix: (Units=1/GPa)
#
#
# Indices 1 2 3 4 5 6 
#
# 1 0.020857 -0.003742 -0.005063 0.000000 0.000000 0.000000
# 2 -0.003742 0.010514 -0.004842 0.000000 0.000000 0.000000
# 3 -0.005063 -0.004842 0.014487 0.000000 0.000000 0.000000
# 4 0.000000 0.000000 0.000000 0.034354 0.000000 0.000000
# 5 0.000000 0.000000 0.000000 0.000000 0.047731 0.000000
# 6 0.000000 0.000000 0.000000 0.000000 0.000000 0.053073
#
#
# Mechanical properties :
#
#
# Convention : Reuss Voigt Hill
#
# Bulk Modulus (GPa) = 53.86594 62.91626 58.39110
# Shear Modulus (GPa) = 23.31022 24.95671 24.13346
#
# Velocity S-wave (km/s) = 3.73862 3.86840 3.80406
# Velocity P-wave (km/s) = 7.13691 7.59464 7.36933
#
# Compressibility (1/GPa) = 0.01856461
#
# Stress axis : x y z
#
# Youngs Moduli (GPa) = 47.94510 95.10850 69.02639
#
# Poissons Ratio (x) = 0.35592 0.34949
# Poissons Ratio (y) = 0.17942 0.33420
# Poissons Ratio (z) = 0.24276 0.46048
#
# Static dielectric constant tensor:
#      x y z
#    x 2.980340 0.000000 0.000000 
#    y 0.000000 3.542120 0.000000 
#    z 0.000000 0.000000 3.036070 
# 
# 
# High freq. dielectric constant tensor:
#      x y z
#    x 1.630180 0.000000 0.000000 
#    y 0.000000 1.655300 0.000000 
#    z 0.000000 0.000000 1.622130 
# 
# From -- ./inp_files/46025.got.cif
#   From: 2010.03.12/outbox.cif.g09.slc.cpg/sg64_24_cif.got.tgz:46025.got - 2010.04.10 20:19:32.
