data_PCOD8262382
_publ_section_title
;
Structure prediction by ZEFSAII (Michael W. Deem and Ramdas Pophale) SiO2 
 PCOD8262382
Probable space group: C M C A
;
_chemical_formula_sum "Si O2"
_cell_formula_units_Z 80
_cell_length_a 16.508717
_cell_length_b 13.384136
_cell_length_c 18.282862
_cell_angle_alpha 90.000000
_cell_angle_beta 90.000000
_cell_angle_gamma 90.000000
_cell_volume 4039.688192
_symmetry_space_group_name_H-M "C M C A"
_symmetry_group_IT_number 64
_symmetry_cell_setting 'orthorhombic'
loop_
_space_group_symop_operation_xyz
x,y,z
-x,1/2-y,1/2+z
x,-y,-z
-x,1/2+y,1/2-z
-x,-y,-z
x,1/2+y,1/2-z
-x,y,z
x,1/2-y,1/2+z
1/2+x,1/2+y,z
1/2-x,-y,1/2+z
1/2+x,1/2-y,-z
1/2-x,y,1/2-z
1/2-x,1/2-y,-z
1/2+x,y,1/2-z
1/2-x,1/2+y,z
1/2+x,-y,1/2+z
loop_
_atom_site_type_symbol
_atom_site_label
_atom_site_fract_x
_atom_site_fract_y
_atom_site_fract_z
Si Si1 0.404035 0.111115 0.655991
Si Si2 0.906840 0.906476 0.458324
Si Si3 0.904081 0.685137 0.811960
Si Si4 0.905557 0.888283 0.881745
Si Si5 0.839700 0.212863 0.984197
O O1 0.500000 0.130394 0.644449
O O2 0.371001 0.149712 0.733934
O O3 0.351406 0.170490 0.596809
O O4 0.383006 0.994059 0.653196
O O5 0.868243 0.884419 0.377833
O O6 0.899609 0.806872 0.506824
O O7 0.000000 0.934101 0.447368
O O8 0.863644 0.000000 0.500000
O O9 0.879060 0.800498 0.825712
O O10 0.000000 0.674159 0.812647
O O11 0.000000 0.880857 0.899262
O O12 0.860544 0.875335 0.959042
O O13 0.750000 0.250000 0.000000
#
# Coordination Sequence:
#
# PCOD8262382 Si02
#       5
#    16  16  16  16  16
#     4  10  19  33  58  84 104 135 179 225 272 318
#     4   9  18  34  54  73 100 139 178 217 265 320
#     4   8  16  31  52  82 110 131 169 225 274 317
#     4   9  18  35  57  79 106 137 173 221 269 316
#     4  11  22  34  50  74 107 141 177 218 262 319
#
# _framework density 19.803508999999998
#
# number of rings (size 3 to 8) (size 9 to 14) (size 15 to 20)
#    0.000    2.600    0.000    3.600    0.000    4.800 
#    0.000   10.000    0.000    4.800    0.000    0.000 
#    0.000    0.000    0.000    0.000    0.000    0.000 
#
# Total GULP energy -495840.443968 kJ/mol
# GULP energy per Si atom -12396.011099 kJ/mol
# Density = 1.975844 g / cm^3
# Si number density = 19.803509 Si / 1000 Ang^3
#
#
#
# Elastic Constant Matrix: (Units=GPa)
#
#
# Indices 1 2 3 4 5 6 
#
# 1 34.2645 23.6664 32.8634 0.0000 0.0000 0.0000
# 2 23.6664 132.4271 108.9764 0.0000 0.0000 0.0000
# 3 32.8634 108.9764 198.6194 0.0000 0.0000 0.0000
# 4 0.0000 0.0000 0.0000 35.8488 0.0000 0.0000
# 5 0.0000 0.0000 0.0000 0.0000 11.5988 0.0000
# 6 0.0000 0.0000 0.0000 0.0000 0.0000 16.5550
#
#
#
# Elastic Compliance Matrix: (Units=1/GPa)
#
#
# Indices 1 2 3 4 5 6 
#
# 1 0.035224 -0.002733 -0.004329 0.000000 0.000000 0.000000
# 2 -0.002733 0.013979 -0.007218 0.000000 0.000000 0.000000
# 3 -0.004329 -0.007218 0.009711 0.000000 0.000000 0.000000
# 4 0.000000 0.000000 0.000000 0.027895 0.000000 0.000000
# 5 0.000000 0.000000 0.000000 0.000000 0.086216 0.000000
# 6 0.000000 0.000000 0.000000 0.000000 0.000000 0.060405
#
#
# Mechanical properties :
#
#
# Convention : Reuss Voigt Hill
#
# Bulk Modulus (GPa) = 32.94265 77.36928 55.15597
# Shear Modulus (GPa) = 18.37505 26.12082 22.24794
#
# Velocity S-wave (km/s) = 3.04940 3.63574 3.35540
# Velocity P-wave (km/s) = 5.39160 7.53513 6.55162
#
# Compressibility (1/GPa) = 0.03035578
#
# Stress axis : x y z
#
# Youngs Moduli (GPa) = 28.38972 71.53341 102.97326
#
# Poissons Ratio (x) = 0.19549 0.44574
# Poissons Ratio (y) = 0.07758 0.74326
# Poissons Ratio (z) = 0.12289 0.51632
#
# Static dielectric constant tensor:
#      x y z
#    x 3.180920 0.000000 0.000000 
#    y 0.000000 3.849960 0.000000 
#    z 0.000000 0.000000 3.881860 
# 
# 
# High freq. dielectric constant tensor:
#      x y z
#    x 1.733180 0.000000 0.000000 
#    y 0.000000 1.778470 0.000000 
#    z 0.000000 0.000000 1.773430 
# 
# From -- ./inp_files/26137.got.cif
#   From: 2010.03.12/outbox.cif.g09.slc.cpg/sg64_14_cif.got.tgz:26137.got - 2010.04.10 20:19:32.
