data_PCOD8262672
_publ_section_title
;
Structure prediction by ZEFSAII (Michael W. Deem and Ramdas Pophale) SiO2 
 PCOD8262672
Probable space group: C M C A
;
_chemical_formula_sum "Si O2"
_cell_formula_units_Z 112
_cell_length_a 17.547771
_cell_length_b 15.316337
_cell_length_c 21.555091
_cell_angle_alpha 90.000000
_cell_angle_beta 90.000000
_cell_angle_gamma 90.000000
_cell_volume 5793.309520
_symmetry_space_group_name_H-M "C M C A"
_symmetry_group_IT_number 64
_symmetry_cell_setting 'orthorhombic'
loop_
_space_group_symop_operation_xyz
x,y,z
-x,1/2-y,1/2+z
x,-y,-z
-x,1/2+y,1/2-z
-x,-y,-z
x,1/2+y,1/2-z
-x,y,z
x,1/2-y,1/2+z
1/2+x,1/2+y,z
1/2-x,-y,1/2+z
1/2+x,1/2-y,-z
1/2-x,y,1/2-z
1/2-x,1/2-y,-z
1/2+x,y,1/2-z
1/2-x,1/2+y,z
1/2+x,-y,1/2+z
loop_
_atom_site_type_symbol
_atom_site_label
_atom_site_fract_x
_atom_site_fract_y
_atom_site_fract_z
Si Si1 0.589241 0.440890 0.176303
Si Si2 0.910176 0.377398 0.102805
Si Si3 0.910144 0.201784 0.729591
Si Si4 0.589733 0.603801 0.263703
Si Si5 0.693634 0.531613 0.935266
Si Si6 0.305049 0.330673 0.494135
Si Si7 0.667306 0.059700 0.108963
O O1 0.500000 0.435727 0.164421
O O2 0.620494 0.356431 0.213291
O O3 0.609374 0.529167 0.213821
O O4 0.627127 0.434799 0.108848
O O5 0.876052 0.341034 0.167442
O O6 0.878000 0.312787 0.049596
O O7 0.885650 0.477449 0.091466
O O8 0.000000 0.371436 0.101517
O O9 0.887002 0.302900 0.734882
O O10 0.000000 0.191606 0.727441
O O11 0.500000 0.600100 0.282116
O O12 0.642621 0.592962 0.323697
O O13 0.756356 0.600072 0.956050
O O14 0.742064 0.461341 0.894953
O O15 0.655264 0.500000 0.000000
O O16 0.250000 0.250000 0.500000
O O17 0.341950 0.363058 0.558676
#
# Coordination Sequence:
#
# PCOD8262672 Si02
#       7
#    16  16  16  16  16  16  16
#     4  10  20  37  60  84 117 155 195 248 293 347
#     4  10  19  38  63  88 117 155 205 256 305 358
#     4   9  19  34  55  87 120 145 187 251 303 348
#     4  10  20  35  60  90 118 153 193 242 304 361
#     4   9  21  39  56  77 114 157 196 239 289 349
#     4  10  23  39  56  83 123 157 195 249 302 355
#     4  10  20  37  60  83 115 158 197 247 302 356
#
# _framework density 19.332646
#
# number of rings (size 3 to 8) (size 9 to 14) (size 15 to 20)
#    0.000    2.286    1.429    1.714    2.000    4.857 
#    0.000    0.714    0.000    0.000    0.000    0.000 
#    0.000    0.000    0.000    0.000    0.000    0.000 
#
# Total GULP energy -693963.826855 kJ/mol
# GULP energy per Si atom -12392.211194 kJ/mol
# Density = 1.928864 g / cm^3
# Si number density = 19.332646 Si / 1000 Ang^3
#
#
#
# Elastic Constant Matrix: (Units=GPa)
#
#
# Indices 1 2 3 4 5 6 
#
# 1 37.2937 3.0184 23.8998 0.0000 0.0000 0.0000
# 2 3.0184 73.3664 4.1363 0.0000 0.0000 0.0000
# 3 23.8998 4.1363 77.8115 0.0000 0.0000 0.0000
# 4 0.0000 0.0000 0.0000 26.6112 0.0000 0.0000
# 5 0.0000 0.0000 0.0000 0.0000 44.0054 0.0000
# 6 0.0000 0.0000 0.0000 0.0000 0.0000 23.0766
#
#
#
# Elastic Compliance Matrix: (Units=1/GPa)
#
#
# Indices 1 2 3 4 5 6 
#
# 1 0.033432 -0.000799 -0.010226 0.000000 0.000000 0.000000
# 2 -0.000799 0.013690 -0.000482 0.000000 0.000000 0.000000
# 3 -0.010226 -0.000482 0.016018 0.000000 0.000000 0.000000
# 4 0.000000 0.000000 0.000000 0.037578 0.000000 0.000000
# 5 0.000000 0.000000 0.000000 0.000000 0.022724 0.000000
# 6 0.000000 0.000000 0.000000 0.000000 0.000000 0.043334
#
#
# Mechanical properties :
#
#
# Convention : Reuss Voigt Hill
#
# Bulk Modulus (GPa) = 24.92163 27.84228 26.38195
# Shear Modulus (GPa) = 24.61018 29.23311 26.92165
#
# Velocity S-wave (km/s) = 3.57176 3.89281 3.73573
# Velocity P-wave (km/s) = 5.47073 5.88542 5.68186
#
# Compressibility (1/GPa) = 0.04012579
#
# Stress axis : x y z
#
# Youngs Moduli (GPa) = 29.91109 73.04449 62.42895
#
# Poissons Ratio (x) = 0.05836 0.63842
# Poissons Ratio (y) = 0.02390 0.03011
# Poissons Ratio (z) = 0.30588 0.03523
#
# Static dielectric constant tensor:
#      x y z
#    x 2.436220 0.000000 0.000000 
#    y 0.000000 2.744230 0.000000 
#    z 0.000000 0.000000 3.789230 
# 
# 
# High freq. dielectric constant tensor:
#      x y z
#    x 1.734410 0.000000 0.000000 
#    y 0.000000 1.746120 0.000000 
#    z 0.000000 0.000000 1.761510 
# 
# From -- ./inp_files/45266.got.cif
#   From: 2010.03.12/outbox.cif.g09.slc.cpg/sg64_23_cif.got.tgz:45266.got - 2010.04.10 20:19:32.
