data_PCOD8262084
_publ_section_title
;
Structure prediction by ZEFSAII (Michael W. Deem and Ramdas Pophale) SiO2 
 PCOD8262084
Probable space group: C M C A
;
_chemical_formula_sum "Si O2"
_cell_formula_units_Z 96
_cell_length_a 8.705811
_cell_length_b 27.399258
_cell_length_c 23.662540
_cell_angle_alpha 90.000000
_cell_angle_beta 90.000000
_cell_angle_gamma 90.000000
_cell_volume 5644.291015
_symmetry_space_group_name_H-M "C M C A"
_symmetry_group_IT_number 64
_symmetry_cell_setting 'orthorhombic'
loop_
_space_group_symop_operation_xyz
x,y,z
-x,1/2-y,1/2+z
x,-y,-z
-x,1/2+y,1/2-z
-x,-y,-z
x,1/2+y,1/2-z
-x,y,z
x,1/2-y,1/2+z
1/2+x,1/2+y,z
1/2-x,-y,1/2+z
1/2+x,1/2-y,-z
1/2-x,y,1/2-z
1/2-x,1/2-y,-z
1/2+x,y,1/2-z
1/2-x,1/2+y,z
1/2+x,-y,1/2+z
loop_
_atom_site_type_symbol
_atom_site_label
_atom_site_fract_x
_atom_site_fract_y
_atom_site_fract_z
Si Si1 0.321019 0.568834 0.977729
Si Si2 0.680721 0.180958 0.309198
Si Si3 0.680404 0.016729 0.082393
Si Si4 0.177665 0.270855 0.912650
Si Si5 0.677238 0.820857 0.484460
Si Si6 0.318705 0.576662 0.309161
O O1 0.500000 0.559517 0.987748
O O2 0.262742 0.535476 0.925937
O O3 0.285946 0.624918 0.962501
O O4 0.233250 0.554876 0.034917
O O5 0.500000 0.176167 0.302957
O O6 0.750000 0.199162 0.250000
O O7 0.722821 0.220260 0.356809
O O8 0.748567 0.128589 0.326641
O O9 0.500000 0.009007 0.076829
O O10 0.726675 0.037264 0.143562
O O11 0.216679 0.216278 0.933823
O O12 0.000000 0.277289 0.897363
O O13 0.219767 0.309714 0.961069
O O14 0.500000 0.815163 0.502849
O O15 0.500000 0.583052 0.303490
O O16 0.250000 0.557929 0.250000
#
# Coordination Sequence:
#
# PCOD8262084 Si02
#       6
#    16  16  16  16  16  16
#     4  10  19  31  49  71  95 126 160 194 234 278
#     4  11  21  33  50  72  98 127 160 196 237 284
#     4  10  20  32  47  70  98 126 157 194 236 281
#     4  10  19  32  50  72  99 128 159 196 238 283
#     4   9  19  33  49  72  99 127 160 196 236 283
#     4  10  20  33  50  72  97 126 158 194 237 282
#
# _framework density 17.008337000000001
#
# number of rings (size 3 to 8) (size 9 to 14) (size 15 to 20)
#    0.000    2.000    0.000    6.500    0.000    7.333 
#    0.000    0.000    0.000    1.000    0.000    2.333 
#    0.000    0.000    0.000    0.000    0.000    0.000 
#
# Total GULP energy -595323.128437 kJ/mol
# GULP energy per Si atom -12402.565176 kJ/mol
# Density = 1.696962 g / cm^3
# Si number density = 17.008337 Si / 1000 Ang^3
#
#
#
# Elastic Constant Matrix: (Units=GPa)
#
#
# Indices 1 2 3 4 5 6 
#
# 1 49.5919 26.4804 32.4981 0.0000 0.0000 0.0000
# 2 26.4804 115.9273 59.4494 0.0000 0.0000 0.0000
# 3 32.4981 59.4494 109.9880 0.0000 0.0000 0.0000
# 4 0.0000 0.0000 0.0000 26.1023 0.0000 0.0000
# 5 0.0000 0.0000 0.0000 0.0000 30.8900 0.0000
# 6 0.0000 0.0000 0.0000 0.0000 0.0000 24.7102
#
#
#
# Elastic Compliance Matrix: (Units=1/GPa)
#
#
# Indices 1 2 3 4 5 6 
#
# 1 0.025614 -0.002725 -0.006095 0.000000 0.000000 0.000000
# 2 -0.002725 0.012224 -0.005802 0.000000 0.000000 0.000000
# 3 -0.006095 -0.005802 0.014029 0.000000 0.000000 0.000000
# 4 0.000000 0.000000 0.000000 0.038311 0.000000 0.000000
# 5 0.000000 0.000000 0.000000 0.000000 0.032373 0.000000
# 6 0.000000 0.000000 0.000000 0.000000 0.000000 0.040469
#
#
# Mechanical properties :
#
#
# Convention : Reuss Voigt Hill
#
# Bulk Modulus (GPa) = 44.20432 56.92921 50.56677
# Shear Modulus (GPa) = 25.02444 26.81246 25.91845
#
# Velocity S-wave (km/s) = 3.83992 3.97474 3.90791
# Velocity P-wave (km/s) = 6.76064 7.38977 7.08219
#
# Compressibility (1/GPa) = 0.02262222
#
# Stress axis : x y z
#
# Youngs Moduli (GPa) = 39.04127 81.80698 71.28174
#
# Poissons Ratio (x) = 0.22293 0.43448
# Poissons Ratio (y) = 0.10639 0.41357
# Poissons Ratio (z) = 0.23796 0.47464
#
# Static dielectric constant tensor:
#      x y z
#    x 3.313860 0.000000 0.000000 
#    y 0.000000 3.187960 0.000000 
#    z 0.000000 0.000000 3.153420 
# 
# 
# High freq. dielectric constant tensor:
#      x y z
#    x 1.674350 0.000000 0.000000 
#    y 0.000000 1.645750 0.000000 
#    z 0.000000 0.000000 1.644860 
# 
# From -- ./inp_files/43213.got.cif
#   From: 2010.03.12/outbox.cif.g09.slc.cpg/sg64_22_cif.got.tgz:43213.got - 2010.04.10 20:19:32.
