data_PCOD8262085
_publ_section_title
;
Structure prediction by ZEFSAII (Michael W. Deem and Ramdas Pophale) SiO2 
 PCOD8262085
Probable space group: C M C A
;
_chemical_formula_sum "Si O2"
_cell_formula_units_Z 96
_cell_length_a 9.247346
_cell_length_b 27.669024
_cell_length_c 21.296999
_cell_angle_alpha 90.000000
_cell_angle_beta 90.000000
_cell_angle_gamma 90.000000
_cell_volume 5449.157467
_symmetry_space_group_name_H-M "C M C A"
_symmetry_group_IT_number 64
_symmetry_cell_setting 'orthorhombic'
loop_
_space_group_symop_operation_xyz
x,y,z
-x,1/2-y,1/2+z
x,-y,-z
-x,1/2+y,1/2-z
-x,-y,-z
x,1/2+y,1/2-z
-x,y,z
x,1/2-y,1/2+z
1/2+x,1/2+y,z
1/2-x,-y,1/2+z
1/2+x,1/2-y,-z
1/2-x,y,1/2-z
1/2-x,1/2-y,-z
1/2+x,y,1/2-z
1/2-x,1/2+y,z
1/2+x,-y,1/2+z
loop_
_atom_site_type_symbol
_atom_site_label
_atom_site_fract_x
_atom_site_fract_y
_atom_site_fract_z
Si Si1 0.832863 0.387910 0.309457
Si Si2 0.829611 0.039722 0.052718
Si Si3 0.337157 0.638953 0.459272
Si Si4 0.156746 0.327786 0.101223
Si Si5 0.668586 0.498838 0.188214
Si Si6 0.332885 0.727843 0.058489
O O1 0.750000 0.366324 0.250000
O O2 0.788294 0.356639 0.368978
O O3 0.788620 0.443127 0.321158
O O4 0.000000 0.381797 0.297294
O O5 0.741306 0.087719 0.038846
O O6 0.784860 0.023901 0.123198
O O7 0.000000 0.050227 0.048467
O O8 0.786536 0.000000 0.000000
O O9 0.500000 0.633435 0.431963
O O10 0.342257 0.660127 0.528378
O O11 0.245479 0.678240 0.418382
O O12 0.175731 0.269856 0.111569
O O13 0.000000 0.343515 0.129393
O O14 0.500000 0.505740 0.201116
O O15 0.750000 0.520129 0.250000
O O16 0.500000 0.716390 0.041313
O O17 0.250000 0.750000 0.000000
#
# Coordination Sequence:
#
# PCOD8262085 Si02
#       6
#    16  16  16  16  16  16
#     4  10  19  31  49  71  96 127 162 200 243 293
#     4  10  20  34  52  75 103 133 169 213 258 302
#     4  10  20  32  48  73 102 131 164 203 248 295
#     4   9  18  31  47  70  99 127 158 197 241 291
#     4   9  19  34  51  72  98 132 170 205 246 299
#     4   9  17  30  48  70  97 128 160 196 239 291
#
# _framework density 17.617402999999999
#
# number of rings (size 3 to 8) (size 9 to 14) (size 15 to 20)
#    0.000    2.500    0.000    3.500    0.000    7.000 
#    0.000    0.000    0.000    1.000    0.000    4.667 
#    0.000    0.000    0.000    0.000    0.000    0.000 
#
# Total GULP energy -594858.402888 kJ/mol
# GULP energy per Si atom -12392.883393 kJ/mol
# Density = 1.757731 g / cm^3
# Si number density = 17.617403 Si / 1000 Ang^3
#
#
#
# Elastic Constant Matrix: (Units=GPa)
#
#
# Indices 1 2 3 4 5 6 
#
# 1 93.0587 60.2417 25.0153 0.0000 0.0000 0.0000
# 2 60.2417 113.1646 27.5598 0.0000 0.0000 0.0000
# 3 25.0153 27.5598 59.5332 0.0000 0.0000 0.0000
# 4 0.0000 0.0000 0.0000 15.8467 0.0000 0.0000
# 5 0.0000 0.0000 0.0000 0.0000 27.3454 0.0000
# 6 0.0000 0.0000 0.0000 0.0000 0.0000 29.1196
#
#
#
# Elastic Compliance Matrix: (Units=1/GPa)
#
#
# Indices 1 2 3 4 5 6 
#
# 1 0.016959 -0.008219 -0.003321 0.000000 0.000000 0.000000
# 2 -0.008219 0.013943 -0.003001 0.000000 0.000000 0.000000
# 3 -0.003321 -0.003001 0.019582 0.000000 0.000000 0.000000
# 4 0.000000 0.000000 0.000000 0.063105 0.000000 0.000000
# 5 0.000000 0.000000 0.000000 0.000000 0.036569 0.000000
# 6 0.000000 0.000000 0.000000 0.000000 0.000000 0.034341
#
#
# Mechanical properties :
#
#
# Convention : Reuss Voigt Hill
#
# Bulk Modulus (GPa) = 46.72553 54.59891 50.66222
# Shear Modulus (GPa) = 22.65347 24.65830 23.65589
#
# Velocity S-wave (km/s) = 3.58978 3.74526 3.66834
# Velocity P-wave (km/s) = 6.61528 7.05417 6.83825
#
# Compressibility (1/GPa) = 0.02140157
#
# Stress axis : x y z
#
# Youngs Moduli (GPa) = 58.96413 71.72074 51.06689
#
# Poissons Ratio (x) = 0.58949 0.16961
# Poissons Ratio (y) = 0.48464 0.15325
# Poissons Ratio (z) = 0.19583 0.21523
#
# Static dielectric constant tensor:
#      x y z
#    x 3.558430 0.000000 0.000000 
#    y 0.000000 3.529850 0.000000 
#    z 0.000000 0.000000 3.184480 
# 
# 
# High freq. dielectric constant tensor:
#      x y z
#    x 1.693950 0.000000 0.000000 
#    y 0.000000 1.681380 0.000000 
#    z 0.000000 0.000000 1.645720 
# 
# From -- ./inp_files/37046.got.cif
#   From: 2010.03.12/outbox.cif.g09.slc.cpg/sg64_19_cif.got.tgz:37046.got - 2010.04.10 20:19:32.
