data_PCOD8262745
_publ_section_title
;
Structure prediction by ZEFSAII (Michael W. Deem and Ramdas Pophale) SiO2 
 PCOD8262745
Probable space group: C M C A
;
_chemical_formula_sum "Si O2"
_cell_formula_units_Z 104
_cell_length_a 9.059478
_cell_length_b 27.656408
_cell_length_c 20.706378
_cell_angle_alpha 90.000000
_cell_angle_beta 90.000000
_cell_angle_gamma 90.000000
_cell_volume 5188.037255
_symmetry_space_group_name_H-M "C M C A"
_symmetry_group_IT_number 64
_symmetry_cell_setting 'orthorhombic'
loop_
_space_group_symop_operation_xyz
x,y,z
-x,1/2-y,1/2+z
x,-y,-z
-x,1/2+y,1/2-z
-x,-y,-z
x,1/2+y,1/2-z
-x,y,z
x,1/2-y,1/2+z
1/2+x,1/2+y,z
1/2-x,-y,1/2+z
1/2+x,1/2-y,-z
1/2-x,y,1/2-z
1/2-x,1/2-y,-z
1/2+x,y,1/2-z
1/2-x,1/2+y,z
1/2+x,-y,1/2+z
loop_
_atom_site_type_symbol
_atom_site_label
_atom_site_fract_x
_atom_site_fract_y
_atom_site_fract_z
Si Si1 0.831667 0.204225 0.027951
Si Si2 0.656519 0.844889 0.870086
Si Si3 0.165628 0.513632 0.339555
Si Si4 0.677215 0.083463 0.813434
Si Si5 0.827651 0.889682 0.058458
Si Si6 0.334937 0.060056 0.048139
Si Si7 0.250000 0.402802 0.750000
O O1 0.805878 0.160632 0.978335
O O2 0.000000 0.218361 0.034954
O O3 0.750000 0.250000 0.000000
O O4 0.779476 0.191342 0.101424
O O5 0.500000 0.816962 0.872205
O O6 0.650043 0.888879 0.918712
O O7 0.670269 0.865600 0.797837
O O8 0.272629 0.472667 0.311482
O O9 0.233321 0.525672 0.408974
O O10 0.151316 0.561144 0.293670
O O11 0.000000 0.493158 0.348461
O O12 0.500000 0.086635 0.812397
O O13 0.750000 0.107996 0.750000
O O14 0.744247 0.113027 0.873343
O O15 0.000000 0.901745 0.067684
O O16 0.748933 0.933437 0.019809
O O17 0.500000 0.038056 0.037797
#
# Coordination Sequence:
#
# PCOD8262745 Si02
#       7
#    16  16  16  16  16  16   8
#     4  10  21  38  64  92 117 147 185 234 291 353
#     4   9  18  32  53  83 118 154 190 233 285 345
#     4  11  21  34  54  80 115 157 201 243 285 336
#     4  12  25  40  58  81 112 154 200 242 287 339
#     4  10  21  39  61  86 114 147 189 238 292 345
#     4   9  18  33  53  81 114 149 192 239 290 340
#     4  10  20  32  56  84 120 158 198 238 288 338
#
# _framework density 20.046118
#
# number of rings (size 3 to 8) (size 9 to 14) (size 15 to 20)
#    0.000    1.846    0.769    3.692    0.000    8.000 
#    0.000    3.077    1.692    0.000    0.000    0.000 
#    0.000    0.000    0.000    0.000    0.000    0.000 
#
# Total GULP energy -644295.597264 kJ/mol
# GULP energy per Si atom -12390.299947 kJ/mol
# Density = 2.000049 g / cm^3
# Si number density = 20.046118 Si / 1000 Ang^3
#
#
#
# Elastic Constant Matrix: (Units=GPa)
#
#
# Indices 1 2 3 4 5 6 
#
# 1 180.2018 30.7370 70.0283 0.0000 0.0000 0.0000
# 2 30.7370 49.0891 34.3882 0.0000 0.0000 0.0000
# 3 70.0283 34.3882 116.8611 0.0000 0.0000 0.0000
# 4 0.0000 0.0000 0.0000 25.2301 0.0000 0.0000
# 5 0.0000 0.0000 0.0000 0.0000 18.3977 0.0000
# 6 0.0000 0.0000 0.0000 0.0000 0.0000 51.7920
#
#
#
# Elastic Compliance Matrix: (Units=1/GPa)
#
#
# Indices 1 2 3 4 5 6 
#
# 1 0.007374 -0.001917 -0.003855 0.000000 0.000000 0.000000
# 2 -0.001917 0.026159 -0.006549 0.000000 0.000000 0.000000
# 3 -0.003855 -0.006549 0.012794 0.000000 0.000000 0.000000
# 4 0.000000 0.000000 0.000000 0.039635 0.000000 0.000000
# 5 0.000000 0.000000 0.000000 0.000000 0.054355 0.000000
# 6 0.000000 0.000000 0.000000 0.000000 0.000000 0.019308
#
#
# Mechanical properties :
#
#
# Convention : Reuss Voigt Hill
#
# Bulk Modulus (GPa) = 46.11254 68.49542 57.30398
# Shear Modulus (GPa) = 26.11016 33.15053 29.63034
#
# Velocity S-wave (km/s) = 3.61294 4.07100 3.84879
# Velocity P-wave (km/s) = 6.36063 7.50603 6.95694
#
# Compressibility (1/GPa) = 0.02168607
#
# Stress axis : x y z
#
# Youngs Moduli (GPa) = 135.60448 38.22750 78.15929
#
# Poissons Ratio (x) = 0.07328 0.30130
# Poissons Ratio (y) = 0.25995 0.51187
# Poissons Ratio (z) = 0.52275 0.25035
#
# Static dielectric constant tensor:
#      x y z
#    x 4.002340 0.000000 0.000000 
#    y 0.000000 3.303510 0.000000 
#    z 0.000000 0.000000 4.020100 
# 
# 
# High freq. dielectric constant tensor:
#      x y z
#    x 1.796280 0.000000 0.000000 
#    y 0.000000 1.742030 0.000000 
#    z 0.000000 0.000000 1.794460 
# 
# From -- ./inp_files/37204.got.cif
#   From: 2010.03.12/outbox.cif.g09.slc.cpg/sg64_19_cif.got.tgz:37204.got - 2010.04.10 20:19:32.
