data_PCOD8262928
_publ_section_title
;
Structure prediction by ZEFSAII (Michael W. Deem and Ramdas Pophale) SiO2 
 PCOD8262928
Probable space group: C M C A
;
_chemical_formula_sum "Si O2"
_cell_formula_units_Z 96
_cell_length_a 8.931335
_cell_length_b 29.418722
_cell_length_c 18.803365
_cell_angle_alpha 90.000000
_cell_angle_beta 90.000000
_cell_angle_gamma 90.000000
_cell_volume 4940.555224
_symmetry_space_group_name_H-M "C M C A"
_symmetry_group_IT_number 64
_symmetry_cell_setting 'orthorhombic'
loop_
_space_group_symop_operation_xyz
x,y,z
-x,1/2-y,1/2+z
x,-y,-z
-x,1/2+y,1/2-z
-x,-y,-z
x,1/2+y,1/2-z
-x,y,z
x,1/2-y,1/2+z
1/2+x,1/2+y,z
1/2-x,-y,1/2+z
1/2+x,1/2-y,-z
1/2-x,y,1/2-z
1/2-x,1/2-y,-z
1/2+x,y,1/2-z
1/2-x,1/2+y,z
1/2+x,-y,1/2+z
loop_
_atom_site_type_symbol
_atom_site_label
_atom_site_fract_x
_atom_site_fract_y
_atom_site_fract_z
Si Si1 0.672798 0.927144 0.913875
Si Si2 0.172990 0.404778 0.073265
Si Si3 0.671956 0.217988 0.098135
Si Si4 0.176221 0.985275 0.326496
Si Si5 0.172968 0.185979 0.957208
Si Si6 0.824434 0.854422 0.821691
O O1 0.500000 0.917047 0.895236
O O2 0.774957 0.886011 0.886794
O O3 0.728135 0.973387 0.876902
O O4 0.696848 0.930624 0.998397
O O5 0.225967 0.438649 0.135493
O O6 0.273923 0.359901 0.080985
O O7 0.000000 0.390899 0.082489
O O8 0.500000 0.204319 0.109178
O O9 0.693708 0.272317 0.097869
O O10 0.768137 0.196920 0.162587
O O11 0.724462 0.195267 0.024889
O O12 0.250000 0.989692 0.250000
O O13 0.000000 0.986495 0.316061
O O14 0.000000 0.182078 0.981296
O O15 0.750000 0.873350 0.750000
O O16 0.000000 0.854991 0.812200
#
# Coordination Sequence:
#
# PCOD8262928 Si02
#       6
#    16  16  16  16  16  16
#     4  10  20  37  60  85 114 149 193 242 291 345
#     4  10  20  36  60  86 115 152 194 240 288 344
#     4  10  20  36  56  81 115 152 189 231 283 339
#     4  10  22  39  58  83 114 154 196 236 290 348
#     4  10  20  34  57  87 115 145 186 235 284 337
#     4  12  24  37  56  84 119 155 195 240 294 350
#
# _framework density 19.431014000000001
#
# number of rings (size 3 to 8) (size 9 to 14) (size 15 to 20)
#    0.000    1.667    1.667    3.500    0.000    6.667 
#    0.000    0.833    0.000    5.000    0.000    0.000 
#    0.000    0.000    0.000    0.000    0.000    0.000 
#
# Total GULP energy -595360.263967 kJ/mol
# GULP energy per Si atom -12403.338833 kJ/mol
# Density = 1.938679 g / cm^3
# Si number density = 19.431014 Si / 1000 Ang^3
#
#
#
# Elastic Constant Matrix: (Units=GPa)
#
#
# Indices 1 2 3 4 5 6 
#
# 1 97.0719 42.1809 27.0651 0.0000 0.0000 0.0000
# 2 42.1809 122.7623 29.8473 0.0000 0.0000 0.0000
# 3 27.0651 29.8473 56.7957 0.0000 0.0000 0.0000
# 4 0.0000 0.0000 0.0000 24.5610 0.0000 0.0000
# 5 0.0000 0.0000 0.0000 0.0000 30.5863 0.0000
# 6 0.0000 0.0000 0.0000 0.0000 0.0000 29.8174
#
#
#
# Elastic Compliance Matrix: (Units=1/GPa)
#
#
# Indices 1 2 3 4 5 6 
#
# 1 0.013008 -0.003396 -0.004414 0.000000 0.000000 0.000000
# 2 -0.003396 0.010226 -0.003755 0.000000 0.000000 0.000000
# 3 -0.004414 -0.003755 0.021684 0.000000 0.000000 0.000000
# 4 0.000000 0.000000 0.000000 0.040715 0.000000 0.000000
# 5 0.000000 0.000000 0.000000 0.000000 0.032694 0.000000
# 6 0.000000 0.000000 0.000000 0.000000 0.000000 0.033537
#
#
# Mechanical properties :
#
#
# Convention : Reuss Voigt Hill
#
# Bulk Modulus (GPa) = 45.90015 52.75739 49.32877
# Shear Modulus (GPa) = 27.43359 28.82873 28.13116
#
# Velocity S-wave (km/s) = 3.76153 3.85599 3.80905
# Velocity P-wave (km/s) = 6.52218 6.85820 6.69230
#
# Compressibility (1/GPa) = 0.02178642
#
# Stress axis : x y z
#
# Youngs Moduli (GPa) = 76.87468 97.79114 46.11715
#
# Poissons Ratio (x) = 0.33214 0.20356
# Poissons Ratio (y) = 0.26110 0.17319
# Poissons Ratio (z) = 0.33932 0.36724
#
# Static dielectric constant tensor:
#      x y z
#    x 3.485980 0.000000 0.000000 
#    y 0.000000 3.742210 0.000000 
#    z 0.000000 0.000000 3.436610 
# 
# 
# High freq. dielectric constant tensor:
#      x y z
#    x 1.755320 0.000000 0.000000 
#    y 0.000000 1.765120 0.000000 
#    z 0.000000 0.000000 1.740100 
# 
# From -- ./inp_files/37114.got.cif
#   From: 2010.03.12/outbox.cif.g09.slc.cpg/sg64_19_cif.got.tgz:37114.got - 2010.04.10 20:19:32.
