data_PCOD8262437
_publ_section_title
;
Structure prediction by ZEFSAII (Michael W. Deem and Ramdas Pophale) SiO2 
 PCOD8262437
Probable space group: C M C A
;
_chemical_formula_sum "Si O2"
_cell_formula_units_Z 96
_cell_length_a 15.732989
_cell_length_b 14.458436
_cell_length_c 20.164319
_cell_angle_alpha 90.000000
_cell_angle_beta 90.000000
_cell_angle_gamma 90.000000
_cell_volume 4586.866659
_symmetry_space_group_name_H-M "C M C A"
_symmetry_group_IT_number 64
_symmetry_cell_setting 'orthorhombic'
loop_
_space_group_symop_operation_xyz
x,y,z
-x,1/2-y,1/2+z
x,-y,-z
-x,1/2+y,1/2-z
-x,-y,-z
x,1/2+y,1/2-z
-x,y,z
x,1/2-y,1/2+z
1/2+x,1/2+y,z
1/2-x,-y,1/2+z
1/2+x,1/2-y,-z
1/2-x,y,1/2-z
1/2-x,1/2-y,-z
1/2+x,y,1/2-z
1/2-x,1/2+y,z
1/2+x,-y,1/2+z
loop_
_atom_site_type_symbol
_atom_site_label
_atom_site_fract_x
_atom_site_fract_y
_atom_site_fract_z
Si Si1 0.601440 0.292217 0.056978
Si Si2 0.900637 0.522912 0.621790
Si Si3 0.898670 0.477175 0.229788
Si Si4 0.596063 0.662199 0.331334
Si Si5 0.400553 0.818988 0.589294
Si Si6 0.840990 0.277793 0.216241
O O1 0.500000 0.296410 0.062221
O O2 0.639708 0.390203 0.082597
O O3 0.639085 0.210538 0.104065
O O4 0.627612 0.274010 0.980765
O O5 0.861588 0.516956 0.695693
O O6 0.882611 0.428366 0.582664
O O7 0.000000 0.540270 0.629169
O O8 0.860073 0.564265 0.188204
O O9 0.867130 0.382029 0.197784
O O10 0.000000 0.483390 0.229542
O O11 0.500000 0.640611 0.350865
O O12 0.594506 0.732335 0.268827
O O13 0.500000 0.800429 0.605203
O O14 0.342727 0.777108 0.647157
O O15 0.750000 0.270242 0.250000
#
# Coordination Sequence:
#
# PCOD8262437 Si02
#       6
#    16  16  16  16  16  16
#     4   9  17  30  55  89 119 142 182 241 295 341
#     4   9  15  27  54  87 113 138 179 238 286 325
#     4  10  19  34  58  82 106 142 192 240 278 330
#     4  10  19  36  60  84 109 144 188 236 286 336
#     4  10  19  34  56  87 119 149 188 236 290 342
#     4  12  24  36  53  81 115 153 189 229 281 340
#
# _framework density 20.929320000000001
#
# number of rings (size 3 to 8) (size 9 to 14) (size 15 to 20)
#    0.000    2.000    3.333    2.000    0.000    2.667 
#    0.000    1.667    0.000    4.000    0.000    0.000 
#    0.000    0.000    0.000    0.000    0.000    0.000 
#
# Total GULP energy -595011.665553 kJ/mol
# GULP energy per Si atom -12396.076366 kJ/mol
# Density = 2.088168 g / cm^3
# Si number density = 20.929320 Si / 1000 Ang^3
#
#
#
# Elastic Constant Matrix: (Units=GPa)
#
#
# Indices 1 2 3 4 5 6 
#
# 1 19.2452 19.8390 18.6096 0.0000 0.0000 0.0000
# 2 19.8390 129.8929 59.5473 0.0000 0.0000 0.0000
# 3 18.6096 59.5473 151.9947 0.0000 0.0000 0.0000
# 4 0.0000 0.0000 0.0000 37.1190 0.0000 0.0000
# 5 0.0000 0.0000 0.0000 0.0000 13.6718 0.0000
# 6 0.0000 0.0000 0.0000 0.0000 0.0000 6.0648
#
#
#
# Elastic Compliance Matrix: (Units=1/GPa)
#
#
# Indices 1 2 3 4 5 6 
#
# 1 0.064561 -0.007602 -0.004926 0.000000 0.000000 0.000000
# 2 -0.007602 0.010279 -0.003096 0.000000 0.000000 0.000000
# 3 -0.004926 -0.003096 0.008395 0.000000 0.000000 0.000000
# 4 0.000000 0.000000 0.000000 0.026940 0.000000 0.000000
# 5 0.000000 0.000000 0.000000 0.000000 0.073143 0.000000
# 6 0.000000 0.000000 0.000000 0.000000 0.000000 0.164885
#
#
# Mechanical properties :
#
#
# Convention : Reuss Voigt Hill
#
# Bulk Modulus (GPa) = 19.23588 55.23608 37.23598
# Shear Modulus (GPa) = 12.60132 24.91358 18.75745
#
# Velocity S-wave (km/s) = 2.45641 3.45391 2.99696
# Velocity P-wave (km/s) = 4.15405 6.50807 5.45945
#
# Compressibility (1/GPa) = 0.05198618
#
# Stress axis : x y z
#
# Youngs Moduli (GPa) = 15.48913 97.28349 119.11319
#
# Poissons Ratio (x) = 0.73958 0.58678
# Poissons Ratio (y) = 0.11775 0.36881
# Poissons Ratio (z) = 0.07630 0.30122
#
# Static dielectric constant tensor:
#      x y z
#    x 3.201500 0.000000 0.000000 
#    y 0.000000 4.021100 0.000000 
#    z 0.000000 0.000000 3.893070 
# 
# 
# High freq. dielectric constant tensor:
#      x y z
#    x 1.765810 0.000000 0.000000 
#    y 0.000000 1.825070 0.000000 
#    z 0.000000 0.000000 1.815260 
# 
# From -- ./inp_files/39196.got.cif
#   From: 2010.03.12/outbox.cif.g09.slc.cpg/sg64_20_cif.got.tgz:39196.got - 2010.04.10 20:19:32.
