data_PCOD8262150
_publ_section_title
;
Structure prediction by ZEFSAII (Michael W. Deem and Ramdas Pophale) SiO2 
 PCOD8262150
Probable space group: C M C A
;
_chemical_formula_sum "Si O2"
_cell_formula_units_Z 112
_cell_length_a 20.483717
_cell_length_b 17.570509
_cell_length_c 16.486624
_cell_angle_alpha 90.000000
_cell_angle_beta 90.000000
_cell_angle_gamma 90.000000
_cell_volume 5933.689862
_symmetry_space_group_name_H-M "C M C A"
_symmetry_group_IT_number 64
_symmetry_cell_setting 'orthorhombic'
loop_
_space_group_symop_operation_xyz
x,y,z
-x,1/2-y,1/2+z
x,-y,-z
-x,1/2+y,1/2-z
-x,-y,-z
x,1/2+y,1/2-z
-x,y,z
x,1/2-y,1/2+z
1/2+x,1/2+y,z
1/2-x,-y,1/2+z
1/2+x,1/2-y,-z
1/2-x,y,1/2-z
1/2-x,1/2-y,-z
1/2+x,y,1/2-z
1/2-x,1/2+y,z
1/2+x,-y,1/2+z
loop_
_atom_site_type_symbol
_atom_site_label
_atom_site_fract_x
_atom_site_fract_y
_atom_site_fract_z
Si Si1 0.697151 0.188132 0.469945
Si Si2 0.237908 0.556692 0.571711
Si Si3 0.798215 0.922016 0.824764
Si Si4 0.573367 0.866405 0.742203
Si Si5 0.620866 0.587703 0.586327
Si Si6 0.425810 0.577172 0.412550
Si Si7 0.926760 0.254837 0.113380
O O1 0.750000 0.250000 0.500000
O O2 0.690050 0.123866 0.540306
O O3 0.721352 0.144023 0.388937
O O4 0.626259 0.225119 0.452503
O O5 0.259526 0.500000 0.500000
O O6 0.204393 0.507438 0.641330
O O7 0.303215 0.593408 0.609399
O O8 0.750000 0.909721 0.750000
O O9 0.873870 0.919991 0.799941
O O10 0.500000 0.898950 0.727550
O O11 0.587329 0.864206 0.838854
O O12 0.581019 0.783305 0.702034
O O13 0.590290 0.508544 0.616570
O O14 0.617990 0.599597 0.488806
O O15 0.582926 0.655890 0.630101
O O16 0.500000 0.580789 0.442542
O O17 0.000000 0.239409 0.078961
#
# Coordination Sequence:
#
# PCOD8262150 Si02
#       7
#    16  16  16  16  16  16  16
#     4  10  20  36  56  79 111 148 179 226 284 330
#     4  10  19  33  54  80 109 142 177 230 284 322
#     4  10  21  35  58  83 110 146 193 233 277 332
#     4   9  20  37  55  77 114 155 186 223 276 336
#     4  11  18  30  57  86 113 138 180 235 285 333
#     4  10  19  31  53  85 112 143 182 231 288 335
#     4  10  20  35  55  80 111 150 187 221 271 341
#
# _framework density 18.87527
#
# number of rings (size 3 to 8) (size 9 to 14) (size 15 to 20)
#    0.000    2.000    2.857    2.571    2.000    0.000 
#    0.000    1.429    9.429    4.286    0.000    0.000 
#    0.000    0.000    0.000    0.000    0.000    0.000 
#
# Total GULP energy -694065.006200 kJ/mol
# GULP energy per Si atom -12394.017968 kJ/mol
# Density = 1.883231 g / cm^3
# Si number density = 18.875270 Si / 1000 Ang^3
#
#
#
# Elastic Constant Matrix: (Units=GPa)
#
#
# Indices 1 2 3 4 5 6 
#
# 1 89.8106 38.9484 35.8628 0.0000 0.0000 0.0000
# 2 38.9484 104.1906 48.1061 0.0000 0.0000 0.0000
# 3 35.8628 48.1061 81.2411 0.0000 0.0000 0.0000
# 4 0.0000 0.0000 0.0000 24.4479 0.0000 0.0000
# 5 0.0000 0.0000 0.0000 0.0000 25.5498 0.0000
# 6 0.0000 0.0000 0.0000 0.0000 0.0000 25.5571
#
#
#
# Elastic Compliance Matrix: (Units=1/GPa)
#
#
# Indices 1 2 3 4 5 6 
#
# 1 0.014319 -0.003350 -0.004337 0.000000 0.000000 0.000000
# 2 -0.003350 0.013993 -0.006807 0.000000 0.000000 0.000000
# 3 -0.004337 -0.006807 0.018254 0.000000 0.000000 0.000000
# 4 0.000000 0.000000 0.000000 0.040903 0.000000 0.000000
# 5 0.000000 0.000000 0.000000 0.000000 0.039139 0.000000
# 6 0.000000 0.000000 0.000000 0.000000 0.000000 0.039128
#
#
# Mechanical properties :
#
#
# Convention : Reuss Voigt Hill
#
# Bulk Modulus (GPa) = 56.88980 57.89741 57.39361
# Shear Modulus (GPa) = 24.92705 25.26598 25.09651
#
# Velocity S-wave (km/s) = 3.63798 3.66262 3.65032
# Velocity P-wave (km/s) = 6.91750 6.97328 6.94545
#
# Compressibility (1/GPa) = 0.01757784
#
# Stress axis : x y z
#
# Youngs Moduli (GPa) = 69.83528 71.46430 54.78168
#
# Poissons Ratio (x) = 0.23943 0.23760
# Poissons Ratio (y) = 0.23397 0.37289
# Poissons Ratio (z) = 0.30289 0.48645
#
# Static dielectric constant tensor:
#      x y z
#    x 3.548720 0.000000 0.000000 
#    y 0.000000 3.563000 0.000000 
#    z 0.000000 0.000000 3.380220 
# 
# 
# High freq. dielectric constant tensor:
#      x y z
#    x 1.739640 0.000000 0.000000 
#    y 0.000000 1.727840 0.000000 
#    z 0.000000 0.000000 1.712640 
# 
# From -- ./inp_files/34498.got.cif
#   From: 2010.03.12/outbox.cif.g09.slc.cpg/sg64_18_cif.got.tgz:34498.got - 2010.04.10 20:19:32.
