data_PCOD8262208
_publ_section_title
;
Structure prediction by ZEFSAII (Michael W. Deem and Ramdas Pophale) SiO2 
 PCOD8262208
Probable space group: C M C A
;
_chemical_formula_sum "Si O2"
_cell_formula_units_Z 80
_cell_length_a 8.904262
_cell_length_b 25.835045
_cell_length_c 19.247042
_cell_angle_alpha 90.000000
_cell_angle_beta 90.000000
_cell_angle_gamma 90.000000
_cell_volume 4427.628218
_symmetry_space_group_name_H-M "C M C A"
_symmetry_group_IT_number 64
_symmetry_cell_setting 'orthorhombic'
loop_
_space_group_symop_operation_xyz
x,y,z
-x,1/2-y,1/2+z
x,-y,-z
-x,1/2+y,1/2-z
-x,-y,-z
x,1/2+y,1/2-z
-x,y,z
x,1/2-y,1/2+z
1/2+x,1/2+y,z
1/2-x,-y,1/2+z
1/2+x,1/2-y,-z
1/2-x,y,1/2-z
1/2-x,1/2-y,-z
1/2+x,y,1/2-z
1/2-x,1/2+y,z
1/2+x,-y,1/2+z
loop_
_atom_site_type_symbol
_atom_site_label
_atom_site_fract_x
_atom_site_fract_y
_atom_site_fract_z
Si Si1 0.674654 0.299791 0.580261
Si Si2 0.325177 0.995860 0.675639
Si Si3 0.674845 0.694335 0.579906
Si Si4 0.677665 0.604274 0.325516
Si Si5 0.674710 0.610292 0.824708
O O1 0.500000 0.286759 0.589296
O O2 0.712838 0.313540 0.500914
O O3 0.767874 0.250146 0.605585
O O4 0.725684 0.347733 0.627030
O O5 0.500000 0.982668 0.682266
O O6 0.250000 0.998196 0.750000
O O7 0.299420 0.052653 0.642459
O O8 0.242713 0.947938 0.636848
O O9 0.500000 0.690079 0.595945
O O10 0.759071 0.649756 0.620636
O O11 0.500000 0.599584 0.318612
O O12 0.750000 0.612237 0.250000
O O13 0.500000 0.621342 0.814026
O O14 0.750000 0.617192 0.750000
#
# Coordination Sequence:
#
# PCOD8262208 Si02
#       5
#    16  16  16  16  16
#     4   9  20  37  53  72 101 136 171 207 252 304
#     4   9  17  30  49  73 101 132 164 200 247 297
#     4  10  20  35  55  75  98 133 172 210 254 300
#     4  10  19  32  52  76 102 131 165 206 248 294
#     4  10  20  34  53  77 104 133 166 207 251 298
#
# _framework density 18.068365
#
# number of rings (size 3 to 8) (size 9 to 14) (size 15 to 20)
#    0.000    2.400    0.000    3.600    0.000    5.600 
#    0.000    3.000    0.000    6.000    0.000    0.000 
#    0.000    0.000    0.000    0.000    0.000    0.000 
#
# Total GULP energy -495837.722992 kJ/mol
# GULP energy per Si atom -12395.943075 kJ/mol
# Density = 1.802724 g / cm^3
# Si number density = 18.068365 Si / 1000 Ang^3
#
#
#
# Elastic Constant Matrix: (Units=GPa)
#
#
# Indices 1 2 3 4 5 6 
#
# 1 112.4148 87.6081 42.6042 0.0000 0.0000 0.0000
# 2 87.6081 188.0686 72.4451 0.0000 0.0000 0.0000
# 3 42.6042 72.4451 59.4709 0.0000 0.0000 0.0000
# 4 0.0000 0.0000 0.0000 -23.9083 0.0000 0.0000
# 5 0.0000 0.0000 0.0000 0.0000 26.4074 0.0000
# 6 0.0000 0.0000 0.0000 0.0000 0.0000 36.8512
#
#
#
# Elastic Compliance Matrix: (Units=1/GPa)
#
#
# Indices 1 2 3 4 5 6 
#
# 1 0.014468 -0.005176 -0.004060 0.000000 0.000000 0.000000
# 2 -0.005176 0.011870 -0.010751 0.000000 0.000000 0.000000
# 3 -0.004060 -0.010751 0.032820 0.000000 0.000000 0.000000
# 4 0.000000 0.000000 0.000000 -0.041826 0.000000 0.000000
# 5 0.000000 0.000000 0.000000 0.000000 0.037868 0.000000
# 6 0.000000 0.000000 0.000000 0.000000 0.000000 0.027136
#
#
# Mechanical properties :
#
#
# Convention : Reuss Voigt Hill
#
# Bulk Modulus (GPa) = 52.12649 85.02991 68.57820
# Shear Modulus (GPa) = 38.84879 18.35650 28.60265
#
# Velocity S-wave (km/s) = 4.64195 3.19085 3.98304
# Velocity P-wave (km/s) = 7.59226 7.79344 7.69351
#
# Compressibility (1/GPa) = 0.01918410
#
# Stress axis : x y z
#
# Youngs Moduli (GPa) = 69.11899 84.24789 30.46900
#
# Poissons Ratio (x) = 0.43604 0.12369
# Poissons Ratio (y) = 0.35774 0.32759
# Poissons Ratio (z) = 0.28060 0.90579
#
# Static dielectric constant tensor:
#      x y z
#    x 3.473250 0.000000 0.000000 
#    y 0.000000 4.044440 0.000000 
#    z 0.000000 0.000000 3.054310 
# 
# 
# High freq. dielectric constant tensor:
#      x y z
#    x 1.716020 0.000000 0.000000 
#    y 0.000000 1.721280 0.000000 
#    z 0.000000 0.000000 1.664310 
# 
# From -- ./inp_files/29765.got.cif
#   From: 2010.03.12/outbox.cif.g09.slc.cpg/sg64_15_cif.got.tgz:29765.got - 2010.04.10 20:19:32.
