data_PCOD8262843
_publ_section_title
;
Structure prediction by ZEFSAII (Michael W. Deem and Ramdas Pophale) SiO2 
 PCOD8262843
Probable space group: C M C A
;
_chemical_formula_sum "Si O2"
_cell_formula_units_Z 56
_cell_length_a 9.714949
_cell_length_b 27.054130
_cell_length_c 10.750748
_cell_angle_alpha 90.000000
_cell_angle_beta 90.000000
_cell_angle_gamma 90.000000
_cell_volume 2825.613648
_symmetry_space_group_name_H-M "C M C A"
_symmetry_group_IT_number 64
_symmetry_cell_setting 'orthorhombic'
loop_
_space_group_symop_operation_xyz
x,y,z
-x,1/2-y,1/2+z
x,-y,-z
-x,1/2+y,1/2-z
-x,-y,-z
x,1/2+y,1/2-z
-x,y,z
x,1/2-y,1/2+z
1/2+x,1/2+y,z
1/2-x,-y,1/2+z
1/2+x,1/2-y,-z
1/2-x,y,1/2-z
1/2-x,1/2-y,-z
1/2+x,y,1/2-z
1/2-x,1/2+y,z
1/2+x,-y,1/2+z
loop_
_atom_site_type_symbol
_atom_site_label
_atom_site_fract_x
_atom_site_fract_y
_atom_site_fract_z
Si Si1 0.851126 0.688065 0.577266
Si Si2 0.843893 0.700991 0.140690
Si Si3 0.656928 0.986176 0.138441
Si Si4 0.750000 0.108428 0.750000
O O1 0.838505 0.739802 0.649251
O O2 0.722084 0.681424 0.486684
O O3 0.853868 0.643431 0.674952
O O4 0.000000 0.687401 0.507008
O O5 0.750000 0.678725 0.250000
O O6 0.000000 0.681075 0.150429
O O7 0.500000 0.004730 0.153674
O O8 0.750000 0.010775 0.250000
O O9 0.664639 0.926589 0.154643
O O10 0.712345 0.000000 0.000000
#
# Coordination Sequence:
#
# PCOD8262843 Si02
#       4
#    16  16  16   8
#     4  10  20  34  54  81 111 149 194 234 279 334
#     4  10  20  34  52  77 113 152 190 237 284 329
#     4   9  20  38  61  90 120 150 188 237 295 354
#     4  10  20  36  62  86 112 148 186 238 276 348
#
# _framework density 19.818705999999999
#
# number of rings (size 3 to 8) (size 9 to 14) (size 15 to 20)
#    0.857    1.429    1.429    1.714    0.000    4.000 
#    0.000    1.429    0.000    3.429    0.000    0.000 
#    0.000    0.000    0.000    0.000    0.000    0.000 
#
# Total GULP energy -346920.181153 kJ/mol
# GULP energy per Si atom -12390.006470 kJ/mol
# Density = 1.977360 g / cm^3
# Si number density = 19.818706 Si / 1000 Ang^3
#
#
#
# Elastic Constant Matrix: (Units=GPa)
#
#
# Indices 1 2 3 4 5 6 
#
# 1 155.8843 8.4991 67.8023 0.0000 0.0000 0.0000
# 2 8.4991 60.7490 32.9819 0.0000 0.0000 0.0000
# 3 67.8023 32.9819 125.1807 0.0000 0.0000 0.0000
# 4 0.0000 0.0000 0.0000 33.7046 0.0000 0.0000
# 5 0.0000 0.0000 0.0000 0.0000 39.0938 0.0000
# 6 0.0000 0.0000 0.0000 0.0000 0.0000 2.5707
#
#
#
# Elastic Compliance Matrix: (Units=1/GPa)
#
#
# Indices 1 2 3 4 5 6 
#
# 1 0.008512 0.001531 -0.005014 0.000000 0.000000 0.000000
# 2 0.001531 0.019484 -0.005963 0.000000 0.000000 0.000000
# 3 -0.005014 -0.005963 0.012275 0.000000 0.000000 0.000000
# 4 0.000000 0.000000 0.000000 0.029670 0.000000 0.000000
# 5 0.000000 0.000000 0.000000 0.000000 0.025580 0.000000
# 6 0.000000 0.000000 0.000000 0.000000 0.000000 0.389000
#
#
# Mechanical properties :
#
#
# Convention : Reuss Voigt Hill
#
# Bulk Modulus (GPa) = 46.77151 62.26452 54.51801
# Shear Modulus (GPa) = 9.79356 30.57587 20.18471
#
# Velocity S-wave (km/s) = 2.22538 3.93208 3.19481
# Velocity P-wave (km/s) = 5.50036 7.21805 6.41694
#
# Compressibility (1/GPa) = 0.02138054
#
# Stress axis : x y z
#
# Youngs Moduli (GPa) = 117.47544 51.32314 81.46395
#
# Poissons Ratio (x) = -0.07859 0.40847
# Poissons Ratio (y) = -0.17989 0.48577
# Poissons Ratio (z) = 0.58903 0.30604
#
# Static dielectric constant tensor:
#      x y z
#    x 3.595140 0.000000 0.000000 
#    y 0.000000 3.189560 0.000000 
#    z 0.000000 0.000000 3.475210 
# 
# 
# High freq. dielectric constant tensor:
#      x y z
#    x 1.781820 0.000000 0.000000 
#    y 0.000000 1.730180 0.000000 
#    z 0.000000 0.000000 1.765210 
# 
# From -- ./inp_files/11955.got.cif
#   From: 2010.03.12/outbox.cif.g09.slc.cpg/sg64_6_cif.got.tgz:11955.got - 2010.04.10 20:19:32.
