data_PCOD8262196
_publ_section_title
;
Structure prediction by ZEFSAII (Michael W. Deem and Ramdas Pophale) SiO2 
 PCOD8262196
Probable space group: C M C A
;
_chemical_formula_sum "Si O2"
_cell_formula_units_Z 96
_cell_length_a 8.755965
_cell_length_b 30.796587
_cell_length_c 19.757374
_cell_angle_alpha 90.000000
_cell_angle_beta 90.000000
_cell_angle_gamma 90.000000
_cell_volume 5327.651726
_symmetry_space_group_name_H-M "C M C A"
_symmetry_group_IT_number 64
_symmetry_cell_setting 'orthorhombic'
loop_
_space_group_symop_operation_xyz
x,y,z
-x,1/2-y,1/2+z
x,-y,-z
-x,1/2+y,1/2-z
-x,-y,-z
x,1/2+y,1/2-z
-x,y,z
x,1/2-y,1/2+z
1/2+x,1/2+y,z
1/2-x,-y,1/2+z
1/2+x,1/2-y,-z
1/2-x,y,1/2-z
1/2-x,1/2-y,-z
1/2+x,y,1/2-z
1/2-x,1/2+y,z
1/2+x,-y,1/2+z
loop_
_atom_site_type_symbol
_atom_site_label
_atom_site_fract_x
_atom_site_fract_y
_atom_site_fract_z
Si Si1 0.819623 0.950284 0.175533
Si Si2 0.822783 0.199082 0.433186
Si Si3 0.820229 0.135746 0.675871
Si Si4 0.676854 0.957136 0.677733
Si Si5 0.676431 0.800119 0.426566
Si Si6 0.819490 0.637083 0.324611
O O1 0.750000 0.952078 0.250000
O O2 0.741619 0.908696 0.139644
O O3 0.000000 0.942128 0.178201
O O4 0.779365 0.997223 0.139368
O O5 0.730753 0.184561 0.499566
O O6 0.793448 0.249268 0.416755
O O7 0.762310 0.172506 0.369847
O O8 0.000000 0.189452 0.445729
O O9 0.750000 0.141986 0.750000
O O10 0.774654 0.176393 0.630425
O O11 0.000000 0.133290 0.682792
O O12 0.500000 0.959016 0.692752
O O13 0.750000 0.956565 0.750000
O O14 0.716221 0.910983 0.642157
O O15 0.500000 0.812461 0.418002
O O16 0.750000 0.640562 0.250000
O O17 0.000000 0.646098 0.321575
#
# Coordination Sequence:
#
# PCOD8262196 Si02
#       6
#    16  16  16  16  16  16
#     4   9  15  26  44  68  99 132 166 203 245 292
#     4  10  21  37  56  77 100 130 168 207 251 305
#     4  11  21  33  51  77 106 134 168 209 253 297
#     4   8  15  26  43  68  98 132 167 202 242 291
#     4  10  21  38  57  75  98 131 169 207 251 304
#     4  10  19  32  51  77 107 137 170 209 252 294
#
# _framework density 18.019196000000001
#
# number of rings (size 3 to 8) (size 9 to 14) (size 15 to 20)
#    0.000    2.333    0.000    4.500    0.000    4.000 
#    0.000    0.000    0.000    1.000    0.000    7.000 
#    0.000    0.000    0.000    0.000    0.000    0.000 
#
# Total GULP energy -594658.770874 kJ/mol
# GULP energy per Si atom -12388.724393 kJ/mol
# Density = 1.797818 g / cm^3
# Si number density = 18.019196 Si / 1000 Ang^3
#
#
#
# Elastic Constant Matrix: (Units=GPa)
#
#
# Indices 1 2 3 4 5 6 
#
# 1 94.4816 54.5872 28.2698 0.0000 0.0000 0.0000
# 2 54.5872 108.7167 53.3013 0.0000 0.0000 0.0000
# 3 28.2698 53.3013 60.8070 0.0000 0.0000 0.0000
# 4 0.0000 0.0000 0.0000 1.0235 0.0000 0.0000
# 5 0.0000 0.0000 0.0000 0.0000 27.0339 0.0000
# 6 0.0000 0.0000 0.0000 0.0000 0.0000 29.8896
#
#
#
# Elastic Compliance Matrix: (Units=1/GPa)
#
#
# Indices 1 2 3 4 5 6 
#
# 1 0.014924 -0.007175 -0.000649 0.000000 0.000000 0.000000
# 2 -0.007175 0.019580 -0.013828 0.000000 0.000000 0.000000
# 3 -0.000649 -0.013828 0.028868 0.000000 0.000000 0.000000
# 4 0.000000 0.000000 0.000000 0.977066 0.000000 0.000000
# 5 0.000000 0.000000 0.000000 0.000000 0.036991 0.000000
# 6 0.000000 0.000000 0.000000 0.000000 0.000000 0.033456
#
#
# Mechanical properties :
#
#
# Convention : Reuss Voigt Hill
#
# Bulk Modulus (GPa) = 49.82826 59.59132 54.70979
# Shear Modulus (GPa) = 4.30709 20.11252 12.20980
#
# Velocity S-wave (km/s) = 1.54773 3.34454 2.60590
# Velocity P-wave (km/s) = 5.55939 6.93235 6.28348
#
# Compressibility (1/GPa) = 0.02006893
#
# Stress axis : x y z
#
# Youngs Moduli (GPa) = 67.00757 51.07171 34.64069
#
# Poissons Ratio (x) = 0.36645 0.02247
# Poissons Ratio (y) = 0.48080 0.47900
# Poissons Ratio (z) = 0.04346 0.70620
#
# Static dielectric constant tensor:
#      x y z
#    x 3.388300 0.000000 0.000000 
#    y 0.000000 4.199270 0.000000 
#    z 0.000000 0.000000 2.887930 
# 
# 
# High freq. dielectric constant tensor:
#      x y z
#    x 1.715680 0.000000 0.000000 
#    y 0.000000 1.723540 0.000000 
#    z 0.000000 0.000000 1.644150 
# 
# From -- ./inp_files/37072.got.cif
#   From: 2010.03.12/outbox.cif.g09.slc.cpg/sg64_19_cif.got.tgz:37072.got - 2010.04.10 20:19:32.
