data_PCOD8262466
_publ_section_title
;
Structure prediction by ZEFSAII (Michael W. Deem and Ramdas Pophale) SiO2 
 PCOD8262466
Probable space group: C M C A
;
_chemical_formula_sum "Si O2"
_cell_formula_units_Z 88
_cell_length_a 26.084090
_cell_length_b 10.524596
_cell_length_c 15.169479
_cell_angle_alpha 90.000000
_cell_angle_beta 90.000000
_cell_angle_gamma 90.000000
_cell_volume 4164.393778
_symmetry_space_group_name_H-M "C M C A"
_symmetry_group_IT_number 64
_symmetry_cell_setting 'orthorhombic'
loop_
_space_group_symop_operation_xyz
x,y,z
-x,1/2-y,1/2+z
x,-y,-z
-x,1/2+y,1/2-z
-x,-y,-z
x,1/2+y,1/2-z
-x,y,z
x,1/2-y,1/2+z
1/2+x,1/2+y,z
1/2-x,-y,1/2+z
1/2+x,1/2-y,-z
1/2-x,y,1/2-z
1/2-x,1/2-y,-z
1/2+x,y,1/2-z
1/2-x,1/2+y,z
1/2+x,-y,1/2+z
loop_
_atom_site_type_symbol
_atom_site_label
_atom_site_fract_x
_atom_site_fract_y
_atom_site_fract_z
Si Si1 0.557991 0.263583 0.047505
Si Si2 0.558312 0.433230 0.693587
Si Si3 0.371299 0.598149 0.570883
Si Si4 0.308773 0.308547 0.274158
Si Si5 0.354940 0.548236 0.182891
Si Si6 0.886708 0.000000 0.000000
O O1 0.500000 0.250335 0.011350
O O2 0.561557 0.202216 0.144298
O O3 0.575896 0.408003 0.055219
O O4 0.597896 0.207046 0.978206
O O5 0.500000 0.476340 0.708955
O O6 0.586664 0.535589 0.633588
O O7 0.586332 0.425240 0.787629
O O8 0.348143 0.500000 0.500000
O O9 0.322933 0.651235 0.625710
O O10 0.250000 0.325070 0.250000
O O11 0.337949 0.405270 0.208631
O O12 0.322628 0.158414 0.265716
O O13 0.351269 0.563004 0.076566
#
# Coordination Sequence:
#
# PCOD8262466 Si02
#       6
#    16  16  16  16  16   8
#     4  10  19  34  58  92 131 170 206 252 313 383
#     4   9  19  36  62  90 125 172 212 244 308 391
#     4   9  18  37  64  93 127 162 211 266 316 380
#     4  11  23  45  69  92 124 170 218 273 331 387
#     4  11  24  43  65  94 131 167 215 271 323 385
#     4  12  23  38  58  88 136 166 208 270 321 366
#
# _framework density 21.131526999999998
#
# number of rings (size 3 to 8) (size 9 to 14) (size 15 to 20)
#    0.000    1.818    1.818    2.455    0.000    3.636 
#    1.636    3.636    0.000    0.000    0.000    0.000 
#    0.000    0.000    0.000    0.000    0.000    0.000 
#
# Total GULP energy -545301.706744 kJ/mol
# GULP energy per Si atom -12393.220608 kJ/mol
# Density = 2.108343 g / cm^3
# Si number density = 21.131527 Si / 1000 Ang^3
#
#
#
# Elastic Constant Matrix: (Units=GPa)
#
#
# Indices 1 2 3 4 5 6 
#
# 1 131.4957 29.5917 49.6125 0.0000 0.0000 0.0000
# 2 29.5917 100.7392 24.2569 0.0000 0.0000 0.0000
# 3 49.6125 24.2569 103.5978 0.0000 0.0000 0.0000
# 4 0.0000 0.0000 0.0000 25.7380 0.0000 0.0000
# 5 0.0000 0.0000 0.0000 0.0000 39.2640 0.0000
# 6 0.0000 0.0000 0.0000 0.0000 0.0000 26.5516
#
#
#
# Elastic Compliance Matrix: (Units=1/GPa)
#
#
# Indices 1 2 3 4 5 6 
#
# 1 0.009584 -0.001812 -0.004166 0.000000 0.000000 0.000000
# 2 -0.001812 0.010862 -0.001675 0.000000 0.000000 0.000000
# 3 -0.004166 -0.001675 0.012040 0.000000 0.000000 0.000000
# 4 0.000000 0.000000 0.000000 0.038853 0.000000 0.000000
# 5 0.000000 0.000000 0.000000 0.000000 0.025469 0.000000
# 6 0.000000 0.000000 0.000000 0.000000 0.000000 0.037663
#
#
# Mechanical properties :
#
#
# Convention : Reuss Voigt Hill
#
# Bulk Modulus (GPa) = 58.20742 60.30609 59.25675
# Shear Modulus (GPa) = 32.15349 33.80215 32.97782
#
# Velocity S-wave (km/s) = 3.90499 4.00385 3.95473
# Velocity P-wave (km/s) = 6.92365 7.06929 6.99685
#
# Compressibility (1/GPa) = 0.01717994
#
# Stress axis : x y z
#
# Youngs Moduli (GPa) = 104.33758 92.06050 83.05745
#
# Poissons Ratio (x) = 0.16684 0.34598
# Poissons Ratio (y) = 0.18909 0.13916
# Poissons Ratio (z) = 0.43462 0.15424
#
# Static dielectric constant tensor:
#      x y z
#    x 3.591140 0.000000 0.000000 
#    y 0.000000 4.025430 0.000000 
#    z 0.000000 0.000000 3.832220 
# 
# 
# High freq. dielectric constant tensor:
#      x y z
#    x 1.804030 0.000000 0.000000 
#    y 0.000000 1.842740 0.000000 
#    z 0.000000 0.000000 1.825630 
# 
# From -- ./inp_files/27184.got.cif
#   From: 2010.03.12/outbox.cif.g09.slc.cpg/sg64_14_cif.got.tgz:27184.got - 2010.04.10 20:19:32.
