data_PCOD8262556
_publ_section_title
;
Structure prediction by ZEFSAII (Michael W. Deem and Ramdas Pophale) SiO2 
 PCOD8262556
Probable space group: C M C A
;
_chemical_formula_sum "Si O2"
_cell_formula_units_Z 104
_cell_length_a 27.483367
_cell_length_b 9.573776
_cell_length_c 19.705439
_cell_angle_alpha 90.000000
_cell_angle_beta 90.000000
_cell_angle_gamma 90.000000
_cell_volume 5184.887215
_symmetry_space_group_name_H-M "C M C A"
_symmetry_group_IT_number 64
_symmetry_cell_setting 'orthorhombic'
loop_
_space_group_symop_operation_xyz
x,y,z
-x,1/2-y,1/2+z
x,-y,-z
-x,1/2+y,1/2-z
-x,-y,-z
x,1/2+y,1/2-z
-x,y,z
x,1/2-y,1/2+z
1/2+x,1/2+y,z
1/2-x,-y,1/2+z
1/2+x,1/2-y,-z
1/2-x,y,1/2-z
1/2-x,1/2-y,-z
1/2+x,y,1/2-z
1/2-x,1/2+y,z
1/2+x,-y,1/2+z
loop_
_atom_site_type_symbol
_atom_site_label
_atom_site_fract_x
_atom_site_fract_y
_atom_site_fract_z
Si Si1 0.688873 0.473754 0.700098
Si Si2 0.554340 0.275235 0.055700
Si Si3 0.600822 0.624114 0.223694
Si Si4 0.446543 0.642332 0.802456
Si Si5 0.117798 0.514460 0.074787
Si Si6 0.750000 0.769019 0.250000
Si Si7 0.556923 0.756232 0.592619
O O1 0.654642 0.437894 0.764974
O O2 0.659858 0.493238 0.630502
O O3 0.725307 0.339599 0.695768
O O4 0.712922 0.626007 0.711967
O O5 0.500000 0.209887 0.053392
O O6 0.557243 0.390477 0.116158
O O7 0.592530 0.162642 0.080714
O O8 0.565029 0.334921 0.980122
O O9 0.592230 0.743046 0.279132
O O10 0.562947 0.499559 0.237994
O O11 0.593000 0.676223 0.147290
O O12 0.500000 0.696737 0.782590
O O13 0.074699 0.402375 0.084249
O O14 0.141865 0.500000 0.000000
O O15 0.500000 0.760977 0.615368
#
# Coordination Sequence:
#
# PCOD8262556 Si02
#       7
#    16  16  16  16  16   8  16
#     4  11  22  41  62  89 112 145 192 245 310 370
#     4   9  19  34  53  80 124 171 203 229 275 334
#     4  12  23  36  59  85 117 151 202 247 287 341
#     4  11  22  35  52  83 122 162 197 240 283 327
#     4  10  19  35  61  88 119 159 199 239 281 349
#     4  10  24  42  66  84 112 144 178 250 326 378
#     4  10  20  34  53  85 126 169 205 236 273 326
#
# _framework density 20.058295000000001
#
# number of rings (size 3 to 8) (size 9 to 14) (size 15 to 20)
#    0.000    1.538    1.538    4.615    0.000    2.462 
#    0.000    3.077    0.000    0.000    0.000    0.000 
#    0.000    0.000    0.000    0.000    0.000    0.000 
#
# Total GULP energy -644251.599164 kJ/mol
# GULP energy per Si atom -12389.453830 kJ/mol
# Density = 2.001264 g / cm^3
# Si number density = 20.058295 Si / 1000 Ang^3
#
#
#
# Elastic Constant Matrix: (Units=GPa)
#
#
# Indices 1 2 3 4 5 6 
#
# 1 63.0876 23.4558 28.4252 0.0000 0.0000 0.0000
# 2 23.4558 70.5297 38.5757 0.0000 0.0000 0.0000
# 3 28.4252 38.5757 107.6371 0.0000 0.0000 0.0000
# 4 0.0000 0.0000 0.0000 27.5509 0.0000 0.0000
# 5 0.0000 0.0000 0.0000 0.0000 27.4023 0.0000
# 6 0.0000 0.0000 0.0000 0.0000 0.0000 31.9100
#
#
#
# Elastic Compliance Matrix: (Units=1/GPa)
#
#
# Indices 1 2 3 4 5 6 
#
# 1 0.019056 -0.004459 -0.003434 0.000000 0.000000 0.000000
# 2 -0.004459 0.018679 -0.005517 0.000000 0.000000 0.000000
# 3 -0.003434 -0.005517 0.012175 0.000000 0.000000 0.000000
# 4 0.000000 0.000000 0.000000 0.036297 0.000000 0.000000
# 5 0.000000 0.000000 0.000000 0.000000 0.036493 0.000000
# 6 0.000000 0.000000 0.000000 0.000000 0.000000 0.031338
#
#
# Mechanical properties :
#
#
# Convention : Reuss Voigt Hill
#
# Bulk Modulus (GPa) = 43.31011 46.90755 45.10883
# Shear Modulus (GPa) = 26.51761 27.42580 26.97171
#
# Velocity S-wave (km/s) = 3.63991 3.70172 3.67095
# Velocity P-wave (km/s) = 6.26931 6.45807 6.36439
#
# Compressibility (1/GPa) = 0.02308930
#
# Stress axis : x y z
#
# Youngs Moduli (GPa) = 52.47622 53.53710 82.13872
#
# Poissons Ratio (x) = 0.23873 0.28209
# Poissons Ratio (y) = 0.23400 0.45313
# Poissons Ratio (z) = 0.18022 0.29534
#
# Static dielectric constant tensor:
#      x y z
#    x 3.548870 0.000000 0.000000 
#    y 0.000000 3.671200 0.000000 
#    z 0.000000 0.000000 3.819980 
# 
# 
# High freq. dielectric constant tensor:
#      x y z
#    x 1.760510 0.000000 0.000000 
#    y 0.000000 1.787780 0.000000 
#    z 0.000000 0.000000 1.787440 
# 
# From -- ./inp_files/42088.got.cif
#   From: 2010.03.12/outbox.cif.g09.slc.cpg/sg64_22_cif.got.tgz:42088.got - 2010.04.10 20:19:32.
