data_PCOD8262871
_publ_section_title
;
Structure prediction by ZEFSAII (Michael W. Deem and Ramdas Pophale) SiO2 
 PCOD8262871
Probable space group: C M C A
;
_chemical_formula_sum "Si O2"
_cell_formula_units_Z 96
_cell_length_a 24.657830
_cell_length_b 9.381216
_cell_length_c 21.552048
_cell_angle_alpha 90.000000
_cell_angle_beta 90.000000
_cell_angle_gamma 90.000000
_cell_volume 4985.428996
_symmetry_space_group_name_H-M "C M C A"
_symmetry_group_IT_number 64
_symmetry_cell_setting 'orthorhombic'
loop_
_space_group_symop_operation_xyz
x,y,z
-x,1/2-y,1/2+z
x,-y,-z
-x,1/2+y,1/2-z
-x,-y,-z
x,1/2+y,1/2-z
-x,y,z
x,1/2-y,1/2+z
1/2+x,1/2+y,z
1/2-x,-y,1/2+z
1/2+x,1/2-y,-z
1/2-x,y,1/2-z
1/2-x,1/2-y,-z
1/2+x,y,1/2-z
1/2-x,1/2+y,z
1/2+x,-y,1/2+z
loop_
_atom_site_type_symbol
_atom_site_label
_atom_site_fract_x
_atom_site_fract_y
_atom_site_fract_z
Si Si1 0.646411 0.151626 0.403199
Si Si2 0.562747 0.827169 0.692669
Si Si3 0.176301 0.647718 0.619318
Si Si4 0.621102 0.088694 0.743577
Si Si5 0.780755 0.301637 0.190243
Si Si6 0.806582 0.830327 0.508275
O O1 0.584824 0.165683 0.378167
O O2 0.686748 0.177395 0.344673
O O3 0.652524 0.267678 0.457059
O O4 0.660581 0.989640 0.423363
O O5 0.500000 0.867538 0.691929
O O6 0.572806 0.673714 0.722798
O O7 0.597919 0.932134 0.735424
O O8 0.135165 0.660490 0.676955
O O9 0.238317 0.627071 0.642759
O O10 0.170995 0.789458 0.576637
O O11 0.675364 0.081235 0.786148
O O12 0.750000 0.234336 0.250000
O O13 0.750000 0.750000 0.500000
O O14 0.801187 0.000000 0.500000
#
# Coordination Sequence:
#
# PCOD8262871 Si02
#       6
#    16  16  16  16  16  16
#     4  10  21  35  54  81 110 147 192 226 274 331
#     4  10  20  37  59  82 113 148 186 237 281 325
#     4  10  20  34  54  78 117 148 180 229 272 333
#     4   9  20  34  54  84 111 145 187 225 280 338
#     4   9  18  30  50  80 114 146 176 218 275 332
#     4  12  24  37  55  79 113 152 187 226 273 334
#
# _framework density 19.256117
#
# number of rings (size 3 to 8) (size 9 to 14) (size 15 to 20)
#    0.000    2.000    1.667    2.000    0.000    8.667 
#    0.000    0.000    0.000    9.500    0.000    0.000 
#    0.000    0.000    0.000    0.000    0.000    0.000 
#
# Total GULP energy -594992.726276 kJ/mol
# GULP energy per Si atom -12395.681797 kJ/mol
# Density = 1.921229 g / cm^3
# Si number density = 19.256117 Si / 1000 Ang^3
#
#
#
# Elastic Constant Matrix: (Units=GPa)
#
#
# Indices 1 2 3 4 5 6 
#
# 1 92.0291 19.6943 29.6330 0.0000 0.0000 0.0000
# 2 19.6943 94.2024 33.8636 0.0000 0.0000 0.0000
# 3 29.6330 33.8636 81.6149 0.0000 0.0000 0.0000
# 4 0.0000 0.0000 0.0000 34.3251 0.0000 0.0000
# 5 0.0000 0.0000 0.0000 0.0000 20.7869 0.0000
# 6 0.0000 0.0000 0.0000 0.0000 0.0000 19.0078
#
#
#
# Elastic Compliance Matrix: (Units=1/GPa)
#
#
# Indices 1 2 3 4 5 6 
#
# 1 0.012409 -0.001146 -0.004030 0.000000 0.000000 0.000000
# 2 -0.001146 0.012582 -0.004805 0.000000 0.000000 0.000000
# 3 -0.004030 -0.004805 0.015709 0.000000 0.000000 0.000000
# 4 0.000000 0.000000 0.000000 0.029133 0.000000 0.000000
# 5 0.000000 0.000000 0.000000 0.000000 0.048107 0.000000
# 6 0.000000 0.000000 0.000000 0.000000 0.000000 0.052610
#
#
# Mechanical properties :
#
#
# Convention : Reuss Voigt Hill
#
# Bulk Modulus (GPa) = 48.21630 48.24759 48.23195
# Shear Modulus (GPa) = 25.32610 27.13433 26.23022
#
# Velocity S-wave (km/s) = 3.63054 3.75791 3.69477
# Velocity P-wave (km/s) = 6.53209 6.62867 6.58056
#
# Compressibility (1/GPa) = 0.02073987
#
# Stress axis : x y z
#
# Youngs Moduli (GPa) = 80.58682 79.47812 63.65576
#
# Poissons Ratio (x) = 0.09104 0.25655
# Poissons Ratio (y) = 0.09231 0.30584
# Poissons Ratio (z) = 0.32478 0.38186
#
# Static dielectric constant tensor:
#      x y z
#    x 3.335640 0.000000 0.000000 
#    y 0.000000 3.357070 0.000000 
#    z 0.000000 0.000000 3.703810 
# 
# 
# High freq. dielectric constant tensor:
#      x y z
#    x 1.718470 0.000000 0.000000 
#    y 0.000000 1.742590 0.000000 
#    z 0.000000 0.000000 1.749900 
# 
# From -- ./inp_files/41780.got.cif
#   From: 2010.03.12/outbox.cif.g09.slc.cpg/sg64_21_cif.got.tgz:41780.got - 2010.04.10 20:19:32.
