data_PCOD8262821
_publ_section_title
;
Structure prediction by ZEFSAII (Michael W. Deem and Ramdas Pophale) SiO2 
 PCOD8262821
Probable space group: C M C A
;
_chemical_formula_sum "Si O2"
_cell_formula_units_Z 88
_cell_length_a 34.466545
_cell_length_b 5.259042
_cell_length_c 27.833315
_cell_angle_alpha 90.000000
_cell_angle_beta 90.000000
_cell_angle_gamma 90.000000
_cell_volume 5045.094726
_symmetry_space_group_name_H-M "C M C A"
_symmetry_group_IT_number 64
_symmetry_cell_setting 'orthorhombic'
loop_
_space_group_symop_operation_xyz
x,y,z
-x,1/2-y,1/2+z
x,-y,-z
-x,1/2+y,1/2-z
-x,-y,-z
x,1/2+y,1/2-z
-x,y,z
x,1/2-y,1/2+z
1/2+x,1/2+y,z
1/2-x,-y,1/2+z
1/2+x,1/2-y,-z
1/2-x,y,1/2-z
1/2-x,1/2-y,-z
1/2+x,y,1/2-z
1/2-x,1/2+y,z
1/2+x,-y,1/2+z
loop_
_atom_site_type_symbol
_atom_site_label
_atom_site_fract_x
_atom_site_fract_y
_atom_site_fract_z
Si Si1 0.045091 0.645011 0.719949
Si Si2 0.770660 0.014625 0.943022
Si Si3 0.641967 0.391502 0.053550
Si Si4 0.929362 0.396850 0.383936
Si Si5 0.043285 0.872147 0.431446
Si Si6 0.103622 0.000000 0.500000
O O1 0.055471 0.395228 0.750054
O O2 0.072116 0.648998 0.672941
O O3 0.000000 0.647516 0.704444
O O4 0.745455 0.249122 0.921924
O O5 0.815003 0.056961 0.927327
O O6 0.767294 0.000000 0.000000
O O7 0.613071 0.478402 0.095703
O O8 0.632107 0.096621 0.042598
O O9 0.634241 0.500000 0.000000
O O10 0.956316 0.643185 0.392994
O O11 0.945678 0.144810 0.409042
O O12 0.000000 0.892181 0.452444
O O13 0.073724 0.801926 0.474243
#
# Coordination Sequence:
#
# PCOD8262821 Si02
#       6
#    16  16  16  16  16   8
#     4  10  20  35  54  73  96 125 164 214 259 296
#     4   9  19  30  48  70  94 130 168 199 234 286
#     4  10  20  34  50  70 107 134 166 201 248 293
#     4  11  22  35  53  75  97 133 168 210 259 297
#     4  11  21  33  48  67  97 132 174 209 239 291
#     4  10  21  32  44  68  98 142 170 204 242 284
#
# _framework density 17.442685000000001
#
# number of rings (size 3 to 8) (size 9 to 14) (size 15 to 20)
#    0.000    1.818    1.818    3.000    6.364    1.455 
#    0.000    2.727    0.000    0.000    0.000    0.000 
#    0.000    4.364    0.000    0.000    0.000    0.000 
#
# Total GULP energy -545138.491877 kJ/mol
# GULP energy per Si atom -12389.511179 kJ/mol
# Density = 1.740298 g / cm^3
# Si number density = 17.442685 Si / 1000 Ang^3
#
#
#
# Elastic Constant Matrix: (Units=GPa)
#
#
# Indices 1 2 3 4 5 6 
#
# 1 129.4408 44.8433 39.9293 0.0000 0.0000 0.0000
# 2 44.8433 110.1447 18.5390 0.0000 0.0000 0.0000
# 3 39.9293 18.5390 74.8295 0.0000 0.0000 0.0000
# 4 0.0000 0.0000 0.0000 20.0752 0.0000 0.0000
# 5 0.0000 0.0000 0.0000 0.0000 14.8501 0.0000
# 6 0.0000 0.0000 0.0000 0.0000 0.0000 13.8679
#
#
#
# Elastic Compliance Matrix: (Units=1/GPa)
#
#
# Indices 1 2 3 4 5 6 
#
# 1 0.010356 -0.003429 -0.004676 0.000000 0.000000 0.000000
# 2 -0.003429 0.010610 -0.000799 0.000000 0.000000 0.000000
# 3 -0.004676 -0.000799 0.016057 0.000000 0.000000 0.000000
# 4 0.000000 0.000000 0.000000 0.049813 0.000000 0.000000
# 5 0.000000 0.000000 0.000000 0.000000 0.067340 0.000000
# 6 0.000000 0.000000 0.000000 0.000000 0.000000 0.072109
#
#
# Mechanical properties :
#
#
# Convention : Reuss Voigt Hill
#
# Bulk Modulus (GPa) = 52.04556 57.89312 54.96934
# Shear Modulus (GPa) = 19.96026 23.83217 21.89622
#
# Velocity S-wave (km/s) = 3.38647 3.70038 3.54690
# Velocity P-wave (km/s) = 6.72263 7.17772 6.95390
#
# Compressibility (1/GPa) = 0.01921394
#
# Stress axis : x y z
#
# Youngs Moduli (GPa) = 96.56132 94.25494 62.27821
#
# Poissons Ratio (x) = 0.32322 0.29124
# Poissons Ratio (y) = 0.33113 0.04974
# Poissons Ratio (z) = 0.45157 0.07528
#
# Static dielectric constant tensor:
#      x y z
#    x 3.191330 0.000000 0.000000 
#    y 0.000000 3.566840 0.000000 
#    z 0.000000 0.000000 2.940170 
# 
# 
# High freq. dielectric constant tensor:
#      x y z
#    x 1.660800 0.000000 0.000000 
#    y 0.000000 1.694480 0.000000 
#    z 0.000000 0.000000 1.623650 
# 
# From -- ./inp_files/47080.got.cif
#   From: 2010.03.12/outbox.cif.g09.slc.cpg/sg64_24_cif.got.tgz:47080.got - 2010.04.10 20:19:32.
