data_PCOD8262700
_publ_section_title
;
Structure prediction by ZEFSAII (Michael W. Deem and Ramdas Pophale) SiO2 
 PCOD8262700
Probable space group: C M C A
;
_chemical_formula_sum "Si O2"
_cell_formula_units_Z 96
_cell_length_a 7.836486
_cell_length_b 26.302333
_cell_length_c 26.742610
_cell_angle_alpha 90.000000
_cell_angle_beta 90.000000
_cell_angle_gamma 90.000000
_cell_volume 5512.129660
_symmetry_space_group_name_H-M "C M C A"
_symmetry_group_IT_number 64
_symmetry_cell_setting 'orthorhombic'
loop_
_space_group_symop_operation_xyz
x,y,z
-x,1/2-y,1/2+z
x,-y,-z
-x,1/2+y,1/2-z
-x,-y,-z
x,1/2+y,1/2-z
-x,y,z
x,1/2-y,1/2+z
1/2+x,1/2+y,z
1/2-x,-y,1/2+z
1/2+x,1/2-y,-z
1/2-x,y,1/2-z
1/2-x,1/2-y,-z
1/2+x,y,1/2-z
1/2-x,1/2+y,z
1/2+x,-y,1/2+z
loop_
_atom_site_type_symbol
_atom_site_label
_atom_site_fract_x
_atom_site_fract_y
_atom_site_fract_z
Si Si1 0.690591 0.822444 0.693777
Si Si2 0.298608 0.351449 0.061246
Si Si3 0.195231 0.598438 0.385190
Si Si4 0.310326 0.810675 0.543503
Si Si5 0.000000 0.959121 0.572404
Si Si6 0.688754 0.759470 0.375940
Si Si7 0.500000 0.926041 0.039876
O O1 0.500000 0.840627 0.694986
O O2 0.750000 0.818682 0.750000
O O3 0.775143 0.867288 0.660488
O O4 0.699316 0.767201 0.667010
O O5 0.500000 0.368029 0.060276
O O6 0.256010 0.317202 0.110378
O O7 0.172351 0.399305 0.060292
O O8 0.255968 0.315112 0.014102
O O9 0.193170 0.632630 0.434571
O O10 0.329051 0.553197 0.395563
O O11 0.000000 0.578130 0.375302
O O12 0.500000 0.787732 0.549516
O O13 0.184642 0.773546 0.573118
O O14 0.000000 0.927986 0.520282
O O15 0.000000 0.018610 0.563325
O O16 0.500000 0.760293 0.353463
#
# Coordination Sequence:
#
# PCOD8262700 Si02
#       7
#    16  16  16  16   8  16   8
#     4  10  21  34  52  81 111 138 168 209 265 322
#     4  10  21  34  47  72 106 142 181 218 253 301
#     4   9  19  34  52  75 109 138 171 217 265 316
#     4   9  17  29  45  71 102 142 176 209 249 302
#     4  11  22  36  54  79  96 146 186 217 279 314
#     4  10  20  30  48  73 104 143 174 208 256 306
#     4  11  24  34  54  75 104 140 188 227 262 306
#
# _framework density 17.416136000000002
#
# number of rings (size 3 to 8) (size 9 to 14) (size 15 to 20)
#    0.000    2.167    1.667    2.500    9.333    0.667 
#    0.000    1.667    0.000    0.000    0.000    1.167 
#    0.000    0.000    0.000    0.000    0.000    0.000 
#
# Total GULP energy -594684.226945 kJ/mol
# GULP energy per Si atom -12389.254728 kJ/mol
# Density = 1.737650 g / cm^3
# Si number density = 17.416136 Si / 1000 Ang^3
#
#
#
# Elastic Constant Matrix: (Units=GPa)
#
#
# Indices 1 2 3 4 5 6 
#
# 1 85.8528 45.6477 32.3072 0.0000 0.0000 0.0000
# 2 45.6477 77.1938 41.0216 0.0000 0.0000 0.0000
# 3 32.3072 41.0216 93.0921 0.0000 0.0000 0.0000
# 4 0.0000 0.0000 0.0000 16.3162 0.0000 0.0000
# 5 0.0000 0.0000 0.0000 0.0000 17.3259 0.0000
# 6 0.0000 0.0000 0.0000 0.0000 0.0000 26.6436
#
#
#
# Elastic Compliance Matrix: (Units=1/GPa)
#
#
# Indices 1 2 3 4 5 6 
#
# 1 0.017256 -0.009169 -0.001948 0.000000 0.000000 0.000000
# 2 -0.009169 0.021787 -0.006419 0.000000 0.000000 0.000000
# 3 -0.001948 -0.006419 0.014247 0.000000 0.000000 0.000000
# 4 0.000000 0.000000 0.000000 0.061289 0.000000 0.000000
# 5 0.000000 0.000000 0.000000 0.000000 0.057717 0.000000
# 6 0.000000 0.000000 0.000000 0.000000 0.000000 0.037532
#
#
# Mechanical properties :
#
#
# Convention : Reuss Voigt Hill
#
# Bulk Modulus (GPa) = 54.88996 54.89907 54.89451
# Shear Modulus (GPa) = 19.92248 21.20129 20.56188
#
# Velocity S-wave (km/s) = 3.38584 3.49282 3.43975
# Velocity P-wave (km/s) = 6.84619 6.91786 6.88212
#
# Compressibility (1/GPa) = 0.01821827
#
# Stress axis : x y z
#
# Youngs Moduli (GPa) = 57.95074 45.89845 70.19194
#
# Poissons Ratio (x) = 0.42083 0.13676
# Poissons Ratio (y) = 0.53134 0.45054
# Poissons Ratio (z) = 0.11291 0.29461
#
# Static dielectric constant tensor:
#      x y z
#    x 3.370580 0.000000 0.000000 
#    y 0.000000 2.926960 0.000000 
#    z 0.000000 0.000000 2.971950 
# 
# 
# High freq. dielectric constant tensor:
#      x y z
#    x 1.684490 0.000000 0.000000 
#    y 0.000000 1.638290 0.000000 
#    z 0.000000 0.000000 1.645540 
# 
# From -- ./inp_files/48419.got.cif
#   From: 2010.03.12/outbox.cif.g09.slc.cpg/sg64_25_cif.got.tgz:48419.got - 2010.04.10 20:19:32.
