data_PCOD8262134
_publ_section_title
;
Structure prediction by ZEFSAII (Michael W. Deem and Ramdas Pophale) SiO2 
 PCOD8262134
Probable space group: C M C A
;
_chemical_formula_sum "Si O2"
_cell_formula_units_Z 88
_cell_length_a 9.404876
_cell_length_b 23.047616
_cell_length_c 23.339924
_cell_angle_alpha 90.000000
_cell_angle_beta 90.000000
_cell_angle_gamma 90.000000
_cell_volume 5059.161239
_symmetry_space_group_name_H-M "C M C A"
_symmetry_group_IT_number 64
_symmetry_cell_setting 'orthorhombic'
loop_
_space_group_symop_operation_xyz
x,y,z
-x,1/2-y,1/2+z
x,-y,-z
-x,1/2+y,1/2-z
-x,-y,-z
x,1/2+y,1/2-z
-x,y,z
x,1/2-y,1/2+z
1/2+x,1/2+y,z
1/2-x,-y,1/2+z
1/2+x,1/2-y,-z
1/2-x,y,1/2-z
1/2-x,1/2-y,-z
1/2+x,y,1/2-z
1/2-x,1/2+y,z
1/2+x,-y,1/2+z
loop_
_atom_site_type_symbol
_atom_site_label
_atom_site_fract_x
_atom_site_fract_y
_atom_site_fract_z
Si Si1 0.160963 0.006072 0.934309
Si Si2 0.161422 0.079318 0.650222
Si Si3 0.250000 0.501813 0.250000
Si Si4 0.664895 0.817019 0.308493
Si Si5 0.345642 0.410990 0.844877
Si Si6 0.837284 0.811676 0.692176
O O1 0.277681 0.045656 0.904073
O O2 0.000000 0.031438 0.928162
O O3 0.168394 0.943254 0.905149
O O4 0.205374 0.000000 0.000000
O O5 0.160327 0.040901 0.708572
O O6 0.260516 0.136126 0.651533
O O7 0.000000 0.097942 0.637747
O O8 0.339702 0.543582 0.208335
O O9 0.500000 0.833825 0.297673
O O10 0.750000 0.817227 0.250000
O O11 0.676126 0.752394 0.335986
O O12 0.500000 0.380853 0.840357
O O13 0.225098 0.361738 0.848210
O O14 0.750000 0.815314 0.750000
O O15 0.000000 0.826670 0.705690
#
# Coordination Sequence:
#
# PCOD8262134 Si02
#       6
#    16  16   8  16  16  16
#     4   9  20  38  56  75 102 137 174 213 261 310
#     4  11  21  32  52  78 106 136 170 214 256 305
#     4  10  20  30  46  74 108 136 164 200 256 308
#     4  10  20  33  49  72 104 139 172 206 250 304
#     4  10  19  31  51  75 102 134 168 206 250 304
#     4  10  20  32  48  72 104 138 170 206 249 300
#
# _framework density 17.394188
#
# number of rings (size 3 to 8) (size 9 to 14) (size 15 to 20)
#    0.000    2.000    1.818    2.182    0.000    6.909 
#    0.000    0.000    0.000    1.091    0.000    0.000 
#    0.000    0.000    0.000    0.000    0.000    0.000 
#
# Total GULP energy -545307.753236 kJ/mol
# GULP energy per Si atom -12393.358028 kJ/mol
# Density = 1.735460 g / cm^3
# Si number density = 17.394188 Si / 1000 Ang^3
#
#
#
# Elastic Constant Matrix: (Units=GPa)
#
#
# Indices 1 2 3 4 5 6 
#
# 1 156.1206 67.9217 41.0684 0.0000 0.0000 0.0000
# 2 67.9217 104.3955 35.4228 0.0000 0.0000 0.0000
# 3 41.0684 35.4228 96.4249 0.0000 0.0000 0.0000
# 4 0.0000 0.0000 0.0000 10.8780 0.0000 0.0000
# 5 0.0000 0.0000 0.0000 0.0000 17.3662 0.0000
# 6 0.0000 0.0000 0.0000 0.0000 0.0000 20.7558
#
#
#
# Elastic Compliance Matrix: (Units=1/GPa)
#
#
# Indices 1 2 3 4 5 6 
#
# 1 0.009252 -0.005349 -0.001975 0.000000 0.000000 0.000000
# 2 -0.005349 0.014036 -0.002878 0.000000 0.000000 0.000000
# 3 -0.001975 -0.002878 0.012269 0.000000 0.000000 0.000000
# 4 0.000000 0.000000 0.000000 0.091929 0.000000 0.000000
# 5 0.000000 0.000000 0.000000 0.000000 0.057583 0.000000
# 6 0.000000 0.000000 0.000000 0.000000 0.000000 0.048179
#
#
# Mechanical properties :
#
#
# Convention : Reuss Voigt Hill
#
# Bulk Modulus (GPa) = 65.99786 71.75188 68.87487
# Shear Modulus (GPa) = 19.32703 23.96853 21.64778
#
# Velocity S-wave (km/s) = 3.33696 3.71612 3.53163
# Velocity P-wave (km/s) = 7.27131 7.72999 7.50416
#
# Compressibility (1/GPa) = 0.01515201
#
# Stress axis : x y z
#
# Youngs Moduli (GPa) = 108.08157 71.24599 81.50380
#
# Poissons Ratio (x) = 0.38112 0.16101
# Poissons Ratio (y) = 0.57817 0.23456
# Poissons Ratio (z) = 0.21351 0.20504
#
# Static dielectric constant tensor:
#      x y z
#    x 3.382270 0.000000 0.000000 
#    y 0.000000 3.595010 0.000000 
#    z 0.000000 0.000000 2.904940 
# 
# 
# High freq. dielectric constant tensor:
#      x y z
#    x 1.685830 0.000000 0.000000 
#    y 0.000000 1.675740 0.000000 
#    z 0.000000 0.000000 1.628500 
# 
# From -- ./inp_files/36786.got.cif
#   From: 2010.03.12/outbox.cif.g09.slc.cpg/sg64_19_cif.got.tgz:36786.got - 2010.04.10 20:19:32.
