data_PCOD8262642
_publ_section_title
;
Structure prediction by ZEFSAII (Michael W. Deem and Ramdas Pophale) SiO2 
 PCOD8262642
Probable space group: C M C A
;
_chemical_formula_sum "Si O2"
_cell_formula_units_Z 112
_cell_length_a 24.859643
_cell_length_b 19.441023
_cell_length_c 11.895133
_cell_angle_alpha 90.000000
_cell_angle_beta 90.000000
_cell_angle_gamma 90.000000
_cell_volume 5748.880801
_symmetry_space_group_name_H-M "C M C A"
_symmetry_group_IT_number 64
_symmetry_cell_setting 'orthorhombic'
loop_
_space_group_symop_operation_xyz
x,y,z
-x,1/2-y,1/2+z
x,-y,-z
-x,1/2+y,1/2-z
-x,-y,-z
x,1/2+y,1/2-z
-x,y,z
x,1/2-y,1/2+z
1/2+x,1/2+y,z
1/2-x,-y,1/2+z
1/2+x,1/2-y,-z
1/2-x,y,1/2-z
1/2-x,1/2-y,-z
1/2+x,y,1/2-z
1/2-x,1/2+y,z
1/2+x,-y,1/2+z
loop_
_atom_site_type_symbol
_atom_site_label
_atom_site_fract_x
_atom_site_fract_y
_atom_site_fract_z
Si Si1 0.061422 0.963490 0.804078
Si Si2 0.391381 0.646778 0.337967
Si Si3 0.830439 0.079205 0.531781
Si Si4 0.626426 0.353941 0.906452
Si Si5 0.707145 0.075253 0.551130
Si Si6 0.937093 0.713142 0.595453
Si Si7 0.878696 0.599717 0.733087
O O1 0.072593 0.920932 0.688227
O O2 0.095028 0.927491 0.904606
O O3 0.000000 0.959452 0.838529
O O4 0.077256 0.042011 0.790730
O O5 0.344953 0.627319 0.426133
O O6 0.363359 0.672490 0.220940
O O7 0.430292 0.706091 0.382623
O O8 0.769325 0.093121 0.567678
O O9 0.867862 0.103031 0.634446
O O10 0.840223 0.000000 0.500000
O O11 0.683035 0.367019 0.967440
O O12 0.588668 0.300932 0.973378
O O13 0.676945 0.080386 0.670440
O O14 0.700282 0.000000 0.500000
O O15 0.904553 0.670612 0.690066
O O16 0.000000 0.694280 0.596768
#
# Coordination Sequence:
#
# PCOD8262642 Si02
#       7
#    16  16  16  16  16  16  16
#     4  10  19  37  60  84 125 159 199 259 306 346
#     4  10  23  41  59  90 128 160 204 251 301 379
#     4  11  22  39  65  92 125 163 200 255 315 362
#     4   9  21  39  61  89 118 152 211 253 298 370
#     4  10  19  37  65  94 121 159 201 259 314 355
#     4  11  24  40  65  88 121 170 206 252 308 360
#     4  11  22  40  60  98 124 153 216 257 299 373
#
# _framework density 19.482054000000002
#
# number of rings (size 3 to 8) (size 9 to 14) (size 15 to 20)
#    0.857    0.857    2.857    1.714    2.000    0.571 
#    0.000    7.857    6.286    0.000    0.000    0.000 
#    0.000    0.000    0.000    0.000    0.000    0.000 
#
# Total GULP energy -694213.583531 kJ/mol
# GULP energy per Si atom -12396.671134 kJ/mol
# Density = 1.943771 g / cm^3
# Si number density = 19.482054 Si / 1000 Ang^3
#
#
#
# Elastic Constant Matrix: (Units=GPa)
#
#
# Indices 1 2 3 4 5 6 
#
# 1 61.9775 26.9600 17.0960 0.0000 0.0000 0.0000
# 2 26.9600 68.5190 20.6292 0.0000 0.0000 0.0000
# 3 17.0960 20.6292 114.8255 0.0000 0.0000 0.0000
# 4 0.0000 0.0000 0.0000 26.0403 0.0000 0.0000
# 5 0.0000 0.0000 0.0000 0.0000 7.2052 0.0000
# 6 0.0000 0.0000 0.0000 0.0000 0.0000 25.9307
#
#
#
# Elastic Compliance Matrix: (Units=1/GPa)
#
#
# Indices 1 2 3 4 5 6 
#
# 1 0.019752 -0.007280 -0.001633 0.000000 0.000000 0.000000
# 2 -0.007280 0.018112 -0.002170 0.000000 0.000000 0.000000
# 3 -0.001633 -0.002170 0.009342 0.000000 0.000000 0.000000
# 4 0.000000 0.000000 0.000000 0.038402 0.000000 0.000000
# 5 0.000000 0.000000 0.000000 0.000000 0.138789 0.000000
# 6 0.000000 0.000000 0.000000 0.000000 0.000000 0.038564
#
#
# Mechanical properties :
#
#
# Convention : Reuss Voigt Hill
#
# Bulk Modulus (GPa) = 39.93609 41.63249 40.78429
# Shear Modulus (GPa) = 17.03721 23.87767 20.45744
#
# Velocity S-wave (km/s) = 2.96042 3.50469 3.24399
# Velocity P-wave (km/s) = 5.67704 6.14762 5.91701
#
# Compressibility (1/GPa) = 0.02504001
#
# Stress axis : x y z
#
# Youngs Moduli (GPa) = 50.62734 55.21088 107.04510
#
# Poissons Ratio (x) = 0.40195 0.17479
# Poissons Ratio (y) = 0.36858 0.23230
# Poissons Ratio (z) = 0.08267 0.11981
#
# Static dielectric constant tensor:
#      x y z
#    x 3.349120 0.000000 0.000000 
#    y 0.000000 3.360560 0.000000 
#    z 0.000000 0.000000 3.550390 
# 
# 
# High freq. dielectric constant tensor:
#      x y z
#    x 1.750260 0.000000 0.000000 
#    y 0.000000 1.748230 0.000000 
#    z 0.000000 0.000000 1.760860 
# 
# From -- ./inp_files/19308.got.cif
#   From: 2010.03.12/outbox.cif.g09.slc.cpg/sg64_10_cif.got.tgz:19308.got - 2010.04.10 20:19:32.
