data_PCOD8262679
_publ_section_title
;
Structure prediction by ZEFSAII (Michael W. Deem and Ramdas Pophale) SiO2 
 PCOD8262679
Probable space group: C M C A
;
_chemical_formula_sum "Si O2"
_cell_formula_units_Z 56
_cell_length_a 7.688487
_cell_length_b 15.416173
_cell_length_c 18.964883
_cell_angle_alpha 90.000000
_cell_angle_beta 90.000000
_cell_angle_gamma 90.000000
_cell_volume 2247.851554
_symmetry_space_group_name_H-M "C M C A"
_symmetry_group_IT_number 64
_symmetry_cell_setting 'orthorhombic'
loop_
_space_group_symop_operation_xyz
x,y,z
-x,1/2-y,1/2+z
x,-y,-z
-x,1/2+y,1/2-z
-x,-y,-z
x,1/2+y,1/2-z
-x,y,z
x,1/2-y,1/2+z
1/2+x,1/2+y,z
1/2-x,-y,1/2+z
1/2+x,1/2-y,-z
1/2-x,y,1/2-z
1/2-x,1/2-y,-z
1/2+x,y,1/2-z
1/2-x,1/2+y,z
1/2+x,-y,1/2+z
loop_
_atom_site_type_symbol
_atom_site_label
_atom_site_fract_x
_atom_site_fract_y
_atom_site_fract_z
Si Si1 0.000000 0.819165 0.268507
Si Si2 0.500000 0.006778 0.824555
Si Si3 0.700301 0.446176 0.069421
Si Si4 0.500000 0.180394 0.150972
Si Si5 0.310629 0.736100 0.601710
O O1 0.000000 0.769600 0.195114
O O2 0.831119 0.794956 0.316254
O O3 0.000000 0.925160 0.259024
O O4 0.326643 0.020193 0.869754
O O5 0.500000 0.905702 0.800234
O O6 0.500000 0.458964 0.092257
O O7 0.739811 0.343993 0.054964
O O8 0.744698 0.500000 0.000000
O O9 0.327666 0.184758 0.101514
O O10 0.500000 0.767604 0.572499
#
# Coordination Sequence:
#
# PCOD8262679 Si02
#       5
#     8   8  16   8  16
#     4   8  20  41  57  85 119 163 207 249 309 358
#     4  10  23  38  62  97 123 160 214 257 302 379
#     4  10  19  38  68  90 118 164 212 255 312 369
#     4  12  20  39  60  84 132 161 200 266 308 359
#     4   9  20  35  61  85 115 164 200 249 310 364
#
# _framework density 24.912675
#
# number of rings (size 3 to 8) (size 9 to 14) (size 15 to 20)
#    0.857    1.429    2.857    1.286    0.000    1.143 
#    0.000   12.857    0.000    0.000    0.000    0.000 
#    0.000    0.000    0.000    0.000    0.000    0.000 
#
# Total GULP energy -346875.565864 kJ/mol
# GULP energy per Si atom -12388.413067 kJ/mol
# Density = 2.485597 g / cm^3
# Si number density = 24.912675 Si / 1000 Ang^3
#
#
#
# Elastic Constant Matrix: (Units=GPa)
#
#
# Indices 1 2 3 4 5 6 
#
# 1 172.8271 34.1865 9.4154 0.0000 0.0000 0.0000
# 2 34.1865 115.8401 -15.3877 0.0000 0.0000 0.0000
# 3 9.4154 -15.3877 28.8158 0.0000 0.0000 0.0000
# 4 0.0000 0.0000 0.0000 17.9320 0.0000 0.0000
# 5 0.0000 0.0000 0.0000 0.0000 7.8116 0.0000
# 6 0.0000 0.0000 0.0000 0.0000 0.0000 -2.9696
#
#
#
# Elastic Compliance Matrix: (Units=1/GPa)
#
#
# Indices 1 2 3 4 5 6 
#
# 1 0.006432 -0.002344 -0.003353 0.000000 0.000000 0.000000
# 2 -0.002344 0.010146 0.006184 0.000000 0.000000 0.000000
# 3 -0.003353 0.006184 0.039101 0.000000 0.000000 0.000000
# 4 0.000000 0.000000 0.000000 0.055766 0.000000 0.000000
# 5 0.000000 0.000000 0.000000 0.000000 0.128014 0.000000
# 6 0.000000 0.000000 0.000000 0.000000 0.000000 -0.336746
#
#
# Mechanical properties :
#
#
# Convention : Reuss Voigt Hill
#
# Bulk Modulus (GPa) = 17.65158 41.54569 29.59863
# Shear Modulus (GPa) = -62.99192 23.83940 -19.57626
#
# Velocity S-wave (km/s) = -5.03388 3.09677 -2.80624
# Velocity P-wave (km/s) = 5.16584 5.43133 1.18606
#
# Compressibility (1/GPa) = 0.05665215
#
# Stress axis : x y z
#
# Youngs Moduli (GPa) = 155.46229 98.56405 25.57483
#
# Poissons Ratio (x) = 0.23101 0.08576
# Poissons Ratio (y) = 0.36437 -0.15815
# Poissons Ratio (z) = 0.52132 -0.60949
#
# Static dielectric constant tensor:
#      x y z
#    x 4.853160 0.000000 0.000000 
#    y 0.000000 4.445200 0.000000 
#    z 0.000000 0.000000 3.774220 
# 
# 
# High freq. dielectric constant tensor:
#      x y z
#    x 2.024970 0.000000 0.000000 
#    y 0.000000 1.978640 0.000000 
#    z 0.000000 0.000000 1.946350 
# 
# From -- ./inp_files/42432.got.cif
#   From: 2010.03.12/outbox.cif.g09.slc.cpg/sg64_22_cif.got.tgz:42432.got - 2010.04.10 20:19:32.
