data_PCOD8262092
_publ_section_title
;
Structure prediction by ZEFSAII (Michael W. Deem and Ramdas Pophale) SiO2 
 PCOD8262092
Probable space group: C M C A
;
_chemical_formula_sum "Si O2"
_cell_formula_units_Z 96
_cell_length_a 8.700323
_cell_length_b 27.149433
_cell_length_c 23.787385
_cell_angle_alpha 90.000000
_cell_angle_beta 90.000000
_cell_angle_gamma 90.000000
_cell_volume 5618.790531
_symmetry_space_group_name_H-M "C M C A"
_symmetry_group_IT_number 64
_symmetry_cell_setting 'orthorhombic'
loop_
_space_group_symop_operation_xyz
x,y,z
-x,1/2-y,1/2+z
x,-y,-z
-x,1/2+y,1/2-z
-x,-y,-z
x,1/2+y,1/2-z
-x,y,z
x,1/2-y,1/2+z
1/2+x,1/2+y,z
1/2-x,-y,1/2+z
1/2+x,1/2-y,-z
1/2-x,y,1/2-z
1/2-x,1/2-y,-z
1/2+x,y,1/2-z
1/2-x,1/2+y,z
1/2+x,-y,1/2+z
loop_
_atom_site_type_symbol
_atom_site_label
_atom_site_fract_x
_atom_site_fract_y
_atom_site_fract_z
Si Si1 0.822601 0.678829 0.482716
Si Si2 0.179473 0.932224 0.974679
Si Si3 0.817579 0.431400 0.309461
Si Si4 0.179428 0.319058 0.308089
Si Si5 0.181636 0.977984 0.417717
Si Si6 0.177755 0.272838 0.086064
O O1 0.787843 0.624510 0.459348
O O2 0.780395 0.717614 0.433961
O O3 0.721594 0.688310 0.537837
O O4 0.000000 0.684522 0.500830
O O5 0.000000 0.945163 0.969972
O O6 0.274638 0.965474 0.931119
O O7 0.234164 0.942163 0.038226
O O8 0.750000 0.448916 0.250000
O O9 0.767873 0.374957 0.321184
O O10 0.739648 0.465659 0.355814
O O11 0.000000 0.438325 0.310379
O O12 0.250000 0.299789 0.250000
O O13 0.229234 0.282903 0.357576
O O14 0.000000 0.316674 0.300866
O O15 0.000000 0.970848 0.422549
O O16 0.000000 0.279034 0.099970
#
# Coordination Sequence:
#
# PCOD8262092 Si02
#       6
#    16  16  16  16  16  16
#     4   9  19  33  49  71  98 129 163 198 237 283
#     4  10  19  33  51  70  96 130 165 200 239 282
#     4  10  20  34  51  72  98 128 161 196 237 284
#     4  10  20  33  50  72  98 128 161 196 236 284
#     4  11  21  32  48  73 101 127 159 198 242 289
#     4  10  19  31  49  73 100 128 159 197 240 284
#
# _framework density 17.085528
#
# number of rings (size 3 to 8) (size 9 to 14) (size 15 to 20)
#    0.000    2.000    0.000    5.500    0.000    8.000 
#    0.000    0.000    0.000    1.000    0.000    4.667 
#    0.000    0.000    0.000    0.000    0.000    0.000 
#
# Total GULP energy -595360.293914 kJ/mol
# GULP energy per Si atom -12403.339457 kJ/mol
# Density = 1.704664 g / cm^3
# Si number density = 17.085528 Si / 1000 Ang^3
#
#
#
# Elastic Constant Matrix: (Units=GPa)
#
#
# Indices 1 2 3 4 5 6 
#
# 1 60.6345 22.7255 30.7276 0.0000 0.0000 0.0000
# 2 22.7255 93.5550 49.9809 0.0000 0.0000 0.0000
# 3 30.7276 49.9809 119.6160 0.0000 0.0000 0.0000
# 4 0.0000 0.0000 0.0000 19.0761 0.0000 0.0000
# 5 0.0000 0.0000 0.0000 0.0000 34.4543 0.0000
# 6 0.0000 0.0000 0.0000 0.0000 0.0000 23.6004
#
#
#
# Elastic Compliance Matrix: (Units=1/GPa)
#
#
# Indices 1 2 3 4 5 6 
#
# 1 0.019457 -0.002647 -0.003892 0.000000 0.000000 0.000000
# 2 -0.002647 0.014121 -0.005220 0.000000 0.000000 0.000000
# 3 -0.003892 -0.005220 0.011541 0.000000 0.000000 0.000000
# 4 0.000000 0.000000 0.000000 0.052422 0.000000 0.000000
# 5 0.000000 0.000000 0.000000 0.000000 0.029024 0.000000
# 6 0.000000 0.000000 0.000000 0.000000 0.000000 0.042372
#
#
# Mechanical properties :
#
#
# Convention : Reuss Voigt Hill
#
# Bulk Modulus (GPa) = 46.29644 53.40817 49.85231
# Shear Modulus (GPa) = 25.04318 26.78427 25.91372
#
# Velocity S-wave (km/s) = 3.83267 3.96366 3.89872
# Velocity P-wave (km/s) = 6.83678 7.23012 7.03620
#
# Compressibility (1/GPa) = 0.02159993
#
# Stress axis : x y z
#
# Youngs Moduli (GPa) = 51.39613 70.81766 86.64600
#
# Poissons Ratio (x) = 0.18745 0.33724
# Poissons Ratio (y) = 0.13604 0.45232
# Poissons Ratio (z) = 0.20004 0.36969
#
# Static dielectric constant tensor:
#      x y z
#    x 3.297360 0.000000 0.000000 
#    y 0.000000 3.196990 0.000000 
#    z 0.000000 0.000000 3.119400 
# 
# 
# High freq. dielectric constant tensor:
#      x y z
#    x 1.675800 0.000000 0.000000 
#    y 0.000000 1.647950 0.000000 
#    z 0.000000 0.000000 1.648950 
# 
# From -- ./inp_files/43166.got.cif
#   From: 2010.03.12/outbox.cif.g09.slc.cpg/sg64_22_cif.got.tgz:43166.got - 2010.04.10 20:19:32.
