data_PCOD8262773
_publ_section_title
;
Structure prediction by ZEFSAII (Michael W. Deem and Ramdas Pophale) SiO2 
 PCOD8262773
Probable space group: C M C A
;
_chemical_formula_sum "Si O2"
_cell_formula_units_Z 96
_cell_length_a 9.286799
_cell_length_b 19.728109
_cell_length_c 30.137385
_cell_angle_alpha 90.000000
_cell_angle_beta 90.000000
_cell_angle_gamma 90.000000
_cell_volume 5521.499929
_symmetry_space_group_name_H-M "C M C A"
_symmetry_group_IT_number 64
_symmetry_cell_setting 'orthorhombic'
loop_
_space_group_symop_operation_xyz
x,y,z
-x,1/2-y,1/2+z
x,-y,-z
-x,1/2+y,1/2-z
-x,-y,-z
x,1/2+y,1/2-z
-x,y,z
x,1/2-y,1/2+z
1/2+x,1/2+y,z
1/2-x,-y,1/2+z
1/2+x,1/2-y,-z
1/2-x,y,1/2-z
1/2-x,1/2-y,-z
1/2+x,y,1/2-z
1/2-x,1/2+y,z
1/2+x,-y,1/2+z
loop_
_atom_site_type_symbol
_atom_site_label
_atom_site_fract_x
_atom_site_fract_y
_atom_site_fract_z
Si Si1 0.832573 0.450866 0.539280
Si Si2 0.164214 0.703589 0.466962
Si Si3 0.667398 0.956338 0.206443
Si Si4 0.832153 0.301844 0.206547
Si Si5 0.830923 0.694844 0.366981
Si Si6 0.670531 0.441828 0.628667
O O1 0.782525 0.500000 0.500000
O O2 0.804482 0.374825 0.522452
O O3 0.737418 0.466874 0.582341
O O4 0.000000 0.461388 0.551779
O O5 0.250000 0.750000 0.500000
O O6 0.208974 0.719515 0.416371
O O7 0.000000 0.722162 0.474911
O O8 0.500000 0.962646 0.217246
O O9 0.750000 0.982309 0.250000
O O10 0.710782 0.878984 0.194975
O O11 0.711166 0.001714 0.164732
O O12 0.750000 0.275857 0.250000
O O13 0.785175 0.255005 0.165642
O O14 0.000000 0.294872 0.216375
O O15 0.740233 0.628294 0.354830
O O16 0.000000 0.676499 0.364024
O O17 0.500000 0.432680 0.623231
#
# Coordination Sequence:
#
# PCOD8262773 Si02
#       6
#    16  16  16  16  16  16
#     4   9  19  36  54  72  98 132 167 200 240 294
#     4   9  18  32  50  72  97 127 161 197 239 286
#     4   9  19  34  51  73 100 130 165 204 246 292
#     4   9  18  34  53  72  97 129 164 202 243 288
#     4   9  19  35  52  70  98 134 164 195 242 295
#     4  10  20  33  51  76 102 127 162 207 247 287
#
# _framework density 17.386579999999999
#
# number of rings (size 3 to 8) (size 9 to 14) (size 15 to 20)
#    0.000    2.833    0.000    1.500    0.000    7.000 
#    0.000    5.000    0.000    0.000    0.000    0.000 
#    0.000    0.000    0.000    0.000    0.000    0.000 
#
# Total GULP energy -595249.254017 kJ/mol
# GULP energy per Si atom -12401.026125 kJ/mol
# Density = 1.734701 g / cm^3
# Si number density = 17.386580 Si / 1000 Ang^3
#
#
#
# Elastic Constant Matrix: (Units=GPa)
#
#
# Indices 1 2 3 4 5 6 
#
# 1 60.4584 53.3424 60.8867 0.0000 0.0000 0.0000
# 2 53.3424 109.2624 98.0721 0.0000 0.0000 0.0000
# 3 60.8867 98.0721 138.7549 0.0000 0.0000 0.0000
# 4 0.0000 0.0000 0.0000 41.0424 0.0000 0.0000
# 5 0.0000 0.0000 0.0000 0.0000 34.6156 0.0000
# 6 0.0000 0.0000 0.0000 0.0000 0.0000 26.0281
#
#
#
# Elastic Compliance Matrix: (Units=1/GPa)
#
#
# Indices 1 2 3 4 5 6 
#
# 1 0.032174 -0.008302 -0.008250 0.000000 0.000000 0.000000
# 2 -0.008302 0.027177 -0.015565 0.000000 0.000000 0.000000
# 3 -0.008250 -0.015565 0.021829 0.000000 0.000000 0.000000
# 4 0.000000 0.000000 0.000000 0.024365 0.000000 0.000000
# 5 0.000000 0.000000 0.000000 0.000000 0.028889 0.000000
# 6 0.000000 0.000000 0.000000 0.000000 0.000000 0.038420
#
#
# Mechanical properties :
#
#
# Convention : Reuss Voigt Hill
#
# Bulk Modulus (GPa) = 59.01844 81.45309 70.23577
# Shear Modulus (GPa) = 20.59841 26.74885 23.67363
#
# Velocity S-wave (km/s) = 3.44573 3.92660 3.69399
# Velocity P-wave (km/s) = 7.06040 8.21630 7.66018
#
# Compressibility (1/GPa) = 0.01694386
#
# Stress axis : x y z
#
# Youngs Moduli (GPa) = 31.08100 36.79604 45.81101
#
# Poissons Ratio (x) = 0.30549 0.37794
# Poissons Ratio (y) = 0.25805 0.71307
# Poissons Ratio (z) = 0.25642 0.57275
#
# Static dielectric constant tensor:
#      x y z
#    x 3.200390 0.000000 0.000000 
#    y 0.000000 3.421120 0.000000 
#    z 0.000000 0.000000 2.759510 
# 
# 
# High freq. dielectric constant tensor:
#      x y z
#    x 1.670090 0.000000 0.000000 
#    y 0.000000 1.671960 0.000000 
#    z 0.000000 0.000000 1.674450 
# 
# From -- ./inp_files/48056.got.cif
#   From: 2010.03.12/outbox.cif.g09.slc.cpg/sg64_25_cif.got.tgz:48056.got - 2010.04.10 20:19:32.
