data_PCOD8262080
_publ_section_title
;
Structure prediction by ZEFSAII (Michael W. Deem and Ramdas Pophale) SiO2 
 PCOD8262080
Probable space group: C M C A
;
_chemical_formula_sum "Si O2"
_cell_formula_units_Z 96
_cell_length_a 26.947647
_cell_length_b 13.306078
_cell_length_c 14.214351
_cell_angle_alpha 90.000000
_cell_angle_beta 90.000000
_cell_angle_gamma 90.000000
_cell_volume 5096.804201
_symmetry_space_group_name_H-M "C M C A"
_symmetry_group_IT_number 64
_symmetry_cell_setting 'orthorhombic'
loop_
_space_group_symop_operation_xyz
x,y,z
-x,1/2-y,1/2+z
x,-y,-z
-x,1/2+y,1/2-z
-x,-y,-z
x,1/2+y,1/2-z
-x,y,z
x,1/2-y,1/2+z
1/2+x,1/2+y,z
1/2-x,-y,1/2+z
1/2+x,1/2-y,-z
1/2-x,y,1/2-z
1/2-x,1/2-y,-z
1/2+x,y,1/2-z
1/2-x,1/2+y,z
1/2+x,-y,1/2+z
loop_
_atom_site_type_symbol
_atom_site_label
_atom_site_fract_x
_atom_site_fract_y
_atom_site_fract_z
Si Si1 0.320633 0.729207 0.555656
Si Si2 0.873765 0.611798 0.785491
Si Si3 0.374403 0.719198 0.358106
Si Si4 0.755227 0.599002 0.465491
Si Si5 0.441790 0.035602 0.104643
Si Si6 0.197026 0.435482 0.793927
O O1 0.358975 0.687345 0.630920
O O2 0.347158 0.746044 0.455274
O O3 0.270911 0.660876 0.549468
O O4 0.297851 0.836993 0.588305
O O5 0.889953 0.676987 0.694326
O O6 0.919013 0.542748 0.820602
O O7 0.827938 0.538585 0.757788
O O8 0.421642 0.648329 0.379181
O O9 0.338886 0.660824 0.283774
O O10 0.784082 0.500000 0.500000
O O11 0.708414 0.558239 0.404983
O O12 0.500000 0.037507 0.121239
O O13 0.427366 0.000000 0.000000
O O14 0.250000 0.414713 0.750000
#
# Coordination Sequence:
#
# PCOD8262080 Si02
#       6
#    16  16  16  16  16  16
#     4  10  20  34  52  77 113 151 200 234 282 326
#     4  11  21  36  58  84 116 146 190 247 284 342
#     4  10  22  36  57  87 115 148 191 246 289 345
#     4  10  19  31  48  72 107 163 198 236 263 317
#     4  10  21  41  68  87 107 145 190 245 311 361
#     4  10  21  32  51  76 117 156 198 228 275 334
#
# _framework density 18.835332000000001
#
# number of rings (size 3 to 8) (size 9 to 14) (size 15 to 20)
#    0.000    1.833    3.333    1.000    2.333    2.667 
#    0.000    0.000    0.000    0.000    0.000    1.167 
#    0.000    0.000    0.000    0.000    0.000    0.000 
#
# Total GULP energy -594819.774488 kJ/mol
# GULP energy per Si atom -12392.078635 kJ/mol
# Density = 1.879246 g / cm^3
# Si number density = 18.835332 Si / 1000 Ang^3
#
#
#
# Elastic Constant Matrix: (Units=GPa)
#
#
# Indices 1 2 3 4 5 6 
#
# 1 87.0177 27.3616 15.8070 0.0000 0.0000 0.0000
# 2 27.3616 97.4693 14.7003 0.0000 0.0000 0.0000
# 3 15.8070 14.7003 42.1702 0.0000 0.0000 0.0000
# 4 0.0000 0.0000 0.0000 32.9067 0.0000 0.0000
# 5 0.0000 0.0000 0.0000 0.0000 23.5378 0.0000
# 6 0.0000 0.0000 0.0000 0.0000 0.0000 23.7197
#
#
#
# Elastic Compliance Matrix: (Units=1/GPa)
#
#
# Indices 1 2 3 4 5 6 
#
# 1 0.013171 -0.003117 -0.003851 0.000000 0.000000 0.000000
# 2 -0.003117 0.011566 -0.002864 0.000000 0.000000 0.000000
# 3 -0.003851 -0.002864 0.026155 0.000000 0.000000 0.000000
# 4 0.000000 0.000000 0.000000 0.030389 0.000000 0.000000
# 5 0.000000 0.000000 0.000000 0.000000 0.042485 0.000000
# 6 0.000000 0.000000 0.000000 0.000000 0.000000 0.042159
#
#
# Mechanical properties :
#
#
# Convention : Reuss Voigt Hill
#
# Bulk Modulus (GPa) = 32.01979 38.04388 35.03183
# Shear Modulus (GPa) = 25.51043 27.28540 26.39791
#
# Velocity S-wave (km/s) = 3.68420 3.81021 3.74774
# Velocity P-wave (km/s) = 5.92744 6.29277 6.11283
#
# Compressibility (1/GPa) = 0.03123069
#
# Stress axis : x y z
#
# Youngs Moduli (GPa) = 75.92206 86.45675 38.23352
#
# Poissons Ratio (x) = 0.26946 0.14722
# Poissons Ratio (y) = 0.23663 0.10949
# Poissons Ratio (z) = 0.29235 0.24759
#
# Static dielectric constant tensor:
#      x y z
#    x 3.178890 0.000000 0.000000 
#    y 0.000000 3.593900 0.000000 
#    z 0.000000 0.000000 3.440150 
# 
# 
# High freq. dielectric constant tensor:
#      x y z
#    x 1.700360 0.000000 0.000000 
#    y 0.000000 1.743020 0.000000 
#    z 0.000000 0.000000 1.721560 
# 
# From -- ./inp_files/35449.got.cif
#   From: 2010.03.12/outbox.cif.g09.slc.cpg/sg64_18_cif.got.tgz:35449.got - 2010.04.10 20:19:32.
