data_PCOD8262915
_publ_section_title
;
Structure prediction by ZEFSAII (Michael W. Deem and Ramdas Pophale) SiO2 
 PCOD8262915
Probable space group: C M C A
;
_chemical_formula_sum "Si O2"
_cell_formula_units_Z 72
_cell_length_a 20.307239
_cell_length_b 8.540702
_cell_length_c 20.207399
_cell_angle_alpha 90.000000
_cell_angle_beta 90.000000
_cell_angle_gamma 90.000000
_cell_volume 3504.732419
_symmetry_space_group_name_H-M "C M C A"
_symmetry_group_IT_number 64
_symmetry_cell_setting 'orthorhombic'
loop_
_space_group_symop_operation_xyz
x,y,z
-x,1/2-y,1/2+z
x,-y,-z
-x,1/2+y,1/2-z
-x,-y,-z
x,1/2+y,1/2-z
-x,y,z
x,1/2-y,1/2+z
1/2+x,1/2+y,z
1/2-x,-y,1/2+z
1/2+x,1/2-y,-z
1/2-x,y,1/2-z
1/2-x,1/2-y,-z
1/2+x,y,1/2-z
1/2-x,1/2+y,z
1/2+x,-y,1/2+z
loop_
_atom_site_type_symbol
_atom_site_label
_atom_site_fract_x
_atom_site_fract_y
_atom_site_fract_z
Si Si1 0.243889 0.000000 0.500000
Si Si2 0.500000 0.327080 0.340232
Si Si3 0.000000 0.806836 0.697303
Si Si4 0.773669 0.252549 0.905433
Si Si5 0.130428 0.359324 0.300877
Si Si6 0.634909 0.780209 0.659469
O O1 0.201896 0.909774 0.556697
O O2 0.290010 0.881853 0.458829
O O3 0.500000 0.214063 0.276021
O O4 0.500000 0.510103 0.320969
O O5 0.567402 0.276588 0.378146
O O6 0.935423 0.719715 0.669462
O O7 0.809661 0.227878 0.836812
O O8 0.695259 0.260993 0.890840
O O9 0.130245 0.542888 0.314722
O O10 0.141581 0.334389 0.222909
#
# Coordination Sequence:
#
# PCOD8262915 Si02
#       6
#     8   8   8  16  16  16
#     4  10  24  42  58  84 112 158 198 244 288 334
#     4  10  20  34  56  85 122 155 182 227 293 359
#     4  10  20  34  56  85 122 155 182 227 293 359
#     4  11  23  40  64  84 115 151 202 242 286 341
#     4  11  22  36  60  91 122 151 186 238 294 348
#     4  11  22  36  60  91 122 151 186 238 294 348
#
# _framework density 20.543652000000002
#
# number of rings (size 3 to 8) (size 9 to 14) (size 15 to 20)
#    0.000    1.333    2.222    6.667    6.222    1.778 
#    0.000    0.000    0.000    8.000    0.000    0.000 
#    0.000    0.000    0.000    0.000    0.000    0.000 
#
# Total GULP energy -446057.681939 kJ/mol
# GULP energy per Si atom -12390.491165 kJ/mol
# Density = 2.049689 g / cm^3
# Si number density = 20.543652 Si / 1000 Ang^3
#
#
#
# Elastic Constant Matrix: (Units=GPa)
#
#
# Indices 1 2 3 4 5 6 
#
# 1 130.6660 32.8021 29.8979 0.0000 0.0000 0.0000
# 2 32.8021 118.3167 18.9939 0.0000 0.0000 0.0000
# 3 29.8979 18.9939 54.8418 0.0000 0.0000 0.0000
# 4 0.0000 0.0000 0.0000 30.8934 0.0000 0.0000
# 5 0.0000 0.0000 0.0000 0.0000 5.0622 0.0000
# 6 0.0000 0.0000 0.0000 0.0000 0.0000 20.7968
#
#
#
# Elastic Compliance Matrix: (Units=1/GPa)
#
#
# Indices 1 2 3 4 5 6 
#
# 1 0.009103 -0.001829 -0.004329 0.000000 0.000000 0.000000
# 2 -0.001829 0.009317 -0.002230 0.000000 0.000000 0.000000
# 3 -0.004329 -0.002230 0.021367 0.000000 0.000000 0.000000
# 4 0.000000 0.000000 0.000000 0.032369 0.000000 0.000000
# 5 0.000000 0.000000 0.000000 0.000000 0.197544 0.000000
# 6 0.000000 0.000000 0.000000 0.000000 0.000000 0.048084
#
#
# Mechanical properties :
#
#
# Convention : Reuss Voigt Hill
#
# Bulk Modulus (GPa) = 43.45773 51.91248 47.68510
# Shear Modulus (GPa) = 14.61008 26.15918 20.38463
#
# Velocity S-wave (km/s) = 2.66968 3.57227 3.15343
# Velocity P-wave (km/s) = 5.54100 6.50684 6.04325
#
# Compressibility (1/GPa) = 0.02301087
#
# Stress axis : x y z
#
# Youngs Moduli (GPa) = 109.85717 107.33257 46.80186
#
# Poissons Ratio (x) = 0.19628 0.20261
# Poissons Ratio (y) = 0.20089 0.10436
# Poissons Ratio (z) = 0.47559 0.23934
#
# Static dielectric constant tensor:
#      x y z
#    x 4.141730 0.000000 0.000000 
#    y 0.000000 4.073440 0.000000 
#    z 0.000000 0.000000 3.451880 
# 
# 
# High freq. dielectric constant tensor:
#      x y z
#    x 1.793510 0.000000 0.000000 
#    y 0.000000 1.834070 0.000000 
#    z 0.000000 0.000000 1.764540 
# 
# From -- ./inp_files/40732.got.cif
#   From: 2010.03.12/outbox.cif.g09.slc.cpg/sg64_21_cif.got.tgz:40732.got - 2010.04.10 20:19:32.
