data_PCOD8262993
_publ_section_title
;
Structure prediction by ZEFSAII (Michael W. Deem and Ramdas Pophale) SiO2 
 PCOD8262993
Probable space group: C M C A
;
_chemical_formula_sum "Si O2"
_cell_formula_units_Z 72
_cell_length_a 17.857929
_cell_length_b 17.496305
_cell_length_c 12.066952
_cell_angle_alpha 90.000000
_cell_angle_beta 90.000000
_cell_angle_gamma 90.000000
_cell_volume 3770.292273
_symmetry_space_group_name_H-M "C M C A"
_symmetry_group_IT_number 64
_symmetry_cell_setting 'orthorhombic'
loop_
_space_group_symop_operation_xyz
x,y,z
-x,1/2-y,1/2+z
x,-y,-z
-x,1/2+y,1/2-z
-x,-y,-z
x,1/2+y,1/2-z
-x,y,z
x,1/2-y,1/2+z
1/2+x,1/2+y,z
1/2-x,-y,1/2+z
1/2+x,1/2-y,-z
1/2-x,y,1/2-z
1/2-x,1/2-y,-z
1/2+x,y,1/2-z
1/2-x,1/2+y,z
1/2+x,-y,1/2+z
loop_
_atom_site_type_symbol
_atom_site_label
_atom_site_fract_x
_atom_site_fract_y
_atom_site_fract_z
Si Si1 0.582896 0.427001 0.923335
Si Si2 0.281996 0.641170 0.966475
Si Si3 0.311487 0.500000 0.500000
Si Si4 0.914296 0.411432 0.826910
Si Si5 0.194031 0.716830 0.153967
O O1 0.500000 0.391784 0.941142
O O2 0.592921 0.449332 0.794493
O O3 0.594415 0.500000 0.000000
O O4 0.643890 0.365085 0.958425
O O5 0.243776 0.559800 0.936939
O O6 0.306765 0.690288 0.857451
O O7 0.219535 0.686089 0.035081
O O8 0.363127 0.461231 0.592089
O O9 0.886184 0.322849 0.821636
O O10 0.000000 0.411770 0.868754
O O11 0.250000 0.690701 0.250000
#
# Coordination Sequence:
#
# PCOD8262993 Si02
#       5
#    16  16   8  16  16
#     4  10  20  35  56  82 115 151 190 232 286 347
#     4  10  20  35  55  84 110 149 187 234 286 333
#     4  10  21  36  61  88 114 144 196 244 287 342
#     4  10  21  38  60  84 117 154 188 241 292 338
#     4  10  20  35  56  81 113 144 190 233 281 344
#
# _framework density 19.096664000000001
#
# number of rings (size 3 to 8) (size 9 to 14) (size 15 to 20)
#    0.000    2.000    3.333    0.333    0.000    2.667 
#    0.000    0.000    0.000    1.333    0.000    0.000 
#    0.000    0.000    0.000    0.000    0.000    0.000 
#
# Total GULP energy -446121.370340 kJ/mol
# GULP energy per Si atom -12392.260287 kJ/mol
# Density = 1.905320 g / cm^3
# Si number density = 19.096664 Si / 1000 Ang^3
#
#
#
# Elastic Constant Matrix: (Units=GPa)
#
#
# Indices 1 2 3 4 5 6 
#
# 1 129.4558 51.0875 36.7644 0.0000 0.0000 0.0000
# 2 51.0875 109.6139 37.7441 0.0000 0.0000 0.0000
# 3 36.7644 37.7441 71.3177 0.0000 0.0000 0.0000
# 4 0.0000 0.0000 0.0000 31.3686 0.0000 0.0000
# 5 0.0000 0.0000 0.0000 0.0000 27.6041 0.0000
# 6 0.0000 0.0000 0.0000 0.0000 0.0000 11.4891
#
#
#
# Elastic Compliance Matrix: (Units=1/GPa)
#
#
# Indices 1 2 3 4 5 6 
#
# 1 0.010066 -0.003552 -0.003309 0.000000 0.000000 0.000000
# 2 -0.003552 0.012409 -0.004736 0.000000 0.000000 0.000000
# 3 -0.003309 -0.004736 0.018234 0.000000 0.000000 0.000000
# 4 0.000000 0.000000 0.000000 0.031879 0.000000 0.000000
# 5 0.000000 0.000000 0.000000 0.000000 0.036226 0.000000
# 6 0.000000 0.000000 0.000000 0.000000 0.000000 0.087039
#
#
# Mechanical properties :
#
#
# Convention : Reuss Voigt Hill
#
# Bulk Modulus (GPa) = 57.09561 62.39773 59.74667
# Shear Modulus (GPa) = 22.23329 26.41179 24.32254
#
# Velocity S-wave (km/s) = 3.41581 3.72298 3.57270
# Velocity P-wave (km/s) = 6.74686 7.15726 6.95509
#
# Compressibility (1/GPa) = 0.01751448
#
# Stress axis : x y z
#
# Youngs Moduli (GPa) = 99.34238 80.58438 54.84137
#
# Poissons Ratio (x) = 0.28624 0.18148
# Poissons Ratio (y) = 0.35287 0.25975
# Poissons Ratio (z) = 0.32875 0.38168
#
# Static dielectric constant tensor:
#      x y z
#    x 3.685780 0.000000 0.000000 
#    y 0.000000 3.685090 0.000000 
#    z 0.000000 0.000000 3.387700 
# 
# 
# High freq. dielectric constant tensor:
#      x y z
#    x 1.750530 0.000000 0.000000 
#    y 0.000000 1.730250 0.000000 
#    z 0.000000 0.000000 1.733020 
# 
# From -- ./inp_files/15727.got.cif
#   From: 2010.03.12/outbox.cif.g09.slc.cpg/sg64_8_cif.got.tgz:15727.got - 2010.04.10 20:19:32.
