data_PCOD8262284
_publ_section_title
;
Structure prediction by ZEFSAII (Michael W. Deem and Ramdas Pophale) SiO2 
 PCOD8262284
Probable space group: C M C A
;
_chemical_formula_sum "Si O2"
_cell_formula_units_Z 96
_cell_length_a 8.956463
_cell_length_b 28.345947
_cell_length_c 21.385233
_cell_angle_alpha 90.000000
_cell_angle_beta 90.000000
_cell_angle_gamma 90.000000
_cell_volume 5429.270668
_symmetry_space_group_name_H-M "C M C A"
_symmetry_group_IT_number 64
_symmetry_cell_setting 'orthorhombic'
loop_
_space_group_symop_operation_xyz
x,y,z
-x,1/2-y,1/2+z
x,-y,-z
-x,1/2+y,1/2-z
-x,-y,-z
x,1/2+y,1/2-z
-x,y,z
x,1/2-y,1/2+z
1/2+x,1/2+y,z
1/2-x,-y,1/2+z
1/2+x,1/2-y,-z
1/2-x,y,1/2-z
1/2-x,1/2-y,-z
1/2+x,y,1/2-z
1/2-x,1/2+y,z
1/2+x,-y,1/2+z
loop_
_atom_site_type_symbol
_atom_site_label
_atom_site_fract_x
_atom_site_fract_y
_atom_site_fract_z
Si Si1 0.664348 0.173038 0.398014
Si Si2 0.329461 0.229023 0.940264
Si Si3 0.677079 0.035296 0.553881
Si Si4 0.825516 0.392060 0.811361
Si Si5 0.677649 0.491761 0.814461
Si Si6 0.667849 0.140521 0.539945
O O1 0.500000 0.158145 0.372149
O O2 0.684522 0.229599 0.388149
O O3 0.799012 0.146126 0.364937
O O4 0.672901 0.158905 0.469891
O O5 0.500000 0.218859 0.957500
O O6 0.256893 0.179230 0.918246
O O7 0.250000 0.250000 0.000000
O O8 0.500000 0.034910 0.546914
O O9 0.740168 0.088217 0.543320
O O10 0.742749 0.000000 0.500000
O O11 0.725020 0.021266 0.624308
O O12 0.750000 0.369978 0.750000
O O13 0.740187 0.439978 0.827708
O O14 0.000000 0.401985 0.802415
O O15 0.500000 0.490148 0.806063
O O16 0.750000 0.512398 0.750000
O O17 0.500000 0.138366 0.566315
#
# Coordination Sequence:
#
# PCOD8262284 Si02
#       6
#    16  16  16  16  16  16
#     4   9  17  30  48  69  95 124 154 192 238 287
#     4   9  17  29  46  68  95 126 156 189 232 285
#     4   9  17  30  50  74  98 128 166 205 244 285
#     4  11  21  32  48  69  94 123 157 196 238 287
#     4  10  19  33  52  71  97 131 166 201 239 291
#     4   9  17  30  49  72  97 125 160 200 239 282
#
# _framework density 17.681933000000001
#
# number of rings (size 3 to 8) (size 9 to 14) (size 15 to 20)
#    0.000    2.500    0.000    5.500    0.000    6.000 
#    0.000    1.667    0.000    4.500    0.000    4.667 
#    0.000    0.000    0.000    0.000    0.000    0.000 
#
# Total GULP energy -594746.753199 kJ/mol
# GULP energy per Si atom -12390.557358 kJ/mol
# Density = 1.764169 g / cm^3
# Si number density = 17.681933 Si / 1000 Ang^3
#
#
#
# Elastic Constant Matrix: (Units=GPa)
#
#
# Indices 1 2 3 4 5 6 
#
# 1 82.6869 38.7912 26.8257 0.0000 0.0000 0.0000
# 2 38.7912 133.1588 47.4889 0.0000 0.0000 0.0000
# 3 26.8257 47.4889 68.4552 0.0000 0.0000 0.0000
# 4 0.0000 0.0000 0.0000 20.5160 0.0000 0.0000
# 5 0.0000 0.0000 0.0000 0.0000 24.1801 0.0000
# 6 0.0000 0.0000 0.0000 0.0000 0.0000 26.8181
#
#
#
# Elastic Compliance Matrix: (Units=1/GPa)
#
#
# Indices 1 2 3 4 5 6 
#
# 1 0.014682 -0.002957 -0.003702 0.000000 0.000000 0.000000
# 2 -0.002957 0.010574 -0.006177 0.000000 0.000000 0.000000
# 3 -0.003702 -0.006177 0.020344 0.000000 0.000000 0.000000
# 4 0.000000 0.000000 0.000000 0.048743 0.000000 0.000000
# 5 0.000000 0.000000 0.000000 0.000000 0.041356 0.000000
# 6 0.000000 0.000000 0.000000 0.000000 0.000000 0.037288
#
#
# Mechanical properties :
#
#
# Convention : Reuss Voigt Hill
#
# Bulk Modulus (GPa) = 50.17992 56.72360 53.45176
# Shear Modulus (GPa) = 24.35442 25.71584 25.03513
#
# Velocity S-wave (km/s) = 3.71531 3.81774 3.76687
# Velocity P-wave (km/s) = 6.84438 7.18214 7.01529
#
# Compressibility (1/GPa) = 0.01992829
#
# Stress axis : x y z
#
# Youngs Moduli (GPa) = 68.11037 94.57159 49.15480
#
# Poissons Ratio (x) = 0.27962 0.18199
# Poissons Ratio (y) = 0.20138 0.30362
# Poissons Ratio (z) = 0.25217 0.58415
#
# Static dielectric constant tensor:
#      x y z
#    x 3.304060 0.000000 0.000000 
#    y 0.000000 3.714520 0.000000 
#    z 0.000000 0.000000 3.262730 
# 
# 
# High freq. dielectric constant tensor:
#      x y z
#    x 1.675460 0.000000 0.000000 
#    y 0.000000 1.689420 0.000000 
#    z 0.000000 0.000000 1.650000 
# 
# From -- ./inp_files/43172.got.cif
#   From: 2010.03.12/outbox.cif.g09.slc.cpg/sg64_22_cif.got.tgz:43172.got - 2010.04.10 20:19:32.
