data_PCOD8262019
_publ_section_title
;
Structure prediction by ZEFSAII (Michael W. Deem and Ramdas Pophale) SiO2 
 PCOD8262019
Probable space group: C M C A
;
_chemical_formula_sum "Si O2"
_cell_formula_units_Z 112
_cell_length_a 17.926669
_cell_length_b 19.669305
_cell_length_c 19.072625
_cell_angle_alpha 90.000000
_cell_angle_beta 90.000000
_cell_angle_gamma 90.000000
_cell_volume 6725.105231
_symmetry_space_group_name_H-M "C M C A"
_symmetry_group_IT_number 64
_symmetry_cell_setting 'orthorhombic'
loop_
_space_group_symop_operation_xyz
x,y,z
-x,1/2-y,1/2+z
x,-y,-z
-x,1/2+y,1/2-z
-x,-y,-z
x,1/2+y,1/2-z
-x,y,z
x,1/2-y,1/2+z
1/2+x,1/2+y,z
1/2-x,-y,1/2+z
1/2+x,1/2-y,-z
1/2-x,y,1/2-z
1/2-x,1/2-y,-z
1/2+x,y,1/2-z
1/2-x,1/2+y,z
1/2+x,-y,1/2+z
loop_
_atom_site_type_symbol
_atom_site_label
_atom_site_fract_x
_atom_site_fract_y
_atom_site_fract_z
Si Si1 0.915975 0.696001 0.721741
Si Si2 0.582735 0.239026 0.070887
Si Si3 0.736223 0.192260 0.054186
Si Si4 0.087459 0.935357 0.142709
Si Si5 0.416490 0.087280 0.353177
Si Si6 0.313691 0.294770 0.803448
Si Si7 0.866998 0.377105 0.498198
O O1 0.914755 0.740157 0.651618
O O2 0.888381 0.619485 0.701933
O O3 0.860652 0.728686 0.778954
O O4 0.000000 0.694067 0.752981
O O5 0.500000 0.210572 0.052085
O O6 0.646518 0.180730 0.061137
O O7 0.600090 0.303146 0.021178
O O8 0.772593 0.222487 0.124628
O O9 0.750000 0.250000 0.000000
O O10 0.780812 0.126230 0.026317
O O11 0.131047 0.925104 0.069439
O O12 0.000000 0.925184 0.126018
O O13 0.106464 0.010740 0.169669
O O14 0.500000 0.102098 0.327958
O O15 0.365759 0.139739 0.311484
O O16 0.414511 0.093169 0.437587
O O17 0.250000 0.315855 0.750000
#
# Coordination Sequence:
#
# PCOD8262019 Si02
#       7
#    16  16  16  16  16  16  16
#     4   9  17  30  49  70  94 128 166 200 240 294
#     4   9  15  26  44  67  96 131 166 199 238 290
#     4   9  18  30  45  70  99 128 161 203 243 291
#     4   9  17  30  49  73 101 131 164 197 245 309
#     4  10  19  30  47  72 100 130 161 201 252 303
#     4  11  20  32  48  69 102 128 162 206 250 285
#     4   9  16  26  46  71 101 126 155 201 251 296
#
# _framework density 16.654014
#
# number of rings (size 3 to 8) (size 9 to 14) (size 15 to 20)
#    0.000    2.571    1.429    3.000    0.000    1.143 
#    0.000    1.429    0.000    0.000    0.000    0.000 
#    0.000    9.143    0.000    0.429    0.000    0.000 
#
# Total GULP energy -693948.168343 kJ/mol
# GULP energy per Si atom -12391.931578 kJ/mol
# Density = 1.661611 g / cm^3
# Si number density = 16.654014 Si / 1000 Ang^3
#
#
#
# Elastic Constant Matrix: (Units=GPa)
#
#
# Indices 1 2 3 4 5 6 
#
# 1 122.9269 46.0869 41.0400 0.0000 0.0000 0.0000
# 2 46.0869 78.8070 41.3582 0.0000 0.0000 0.0000
# 3 41.0400 41.3582 75.0448 0.0000 0.0000 0.0000
# 4 0.0000 0.0000 0.0000 17.2957 0.0000 0.0000
# 5 0.0000 0.0000 0.0000 0.0000 18.5740 0.0000
# 6 0.0000 0.0000 0.0000 0.0000 0.0000 12.6618
#
#
#
# Elastic Compliance Matrix: (Units=1/GPa)
#
#
# Indices 1 2 3 4 5 6 
#
# 1 0.011031 -0.004622 -0.003486 0.000000 0.000000 0.000000
# 2 -0.004622 0.019789 -0.008378 0.000000 0.000000 0.000000
# 3 -0.003486 -0.008378 0.019849 0.000000 0.000000 0.000000
# 4 0.000000 0.000000 0.000000 0.057818 0.000000 0.000000
# 5 0.000000 0.000000 0.000000 0.000000 0.053839 0.000000
# 6 0.000000 0.000000 0.000000 0.000000 0.000000 0.078978
#
#
# Mechanical properties :
#
#
# Convention : Reuss Voigt Hill
#
# Bulk Modulus (GPa) = 56.50470 59.30543 57.90507
# Shear Modulus (GPa) = 17.84599 19.59256 18.71927
#
# Velocity S-wave (km/s) = 3.27704 3.43366 3.35626
# Velocity P-wave (km/s) = 6.95132 7.16991 7.06146
#
# Compressibility (1/GPa) = 0.01769764
#
# Stress axis : x y z
#
# Youngs Moduli (GPa) = 90.64996 50.53242 50.38037
#
# Poissons Ratio (x) = 0.23356 0.17560
# Poissons Ratio (y) = 0.41899 0.42211
# Poissons Ratio (z) = 0.31596 0.42338
#
# Static dielectric constant tensor:
#      x y z
#    x 4.123280 0.000000 0.000000 
#    y 0.000000 2.707110 0.000000 
#    z 0.000000 0.000000 3.016190 
# 
# 
# High freq. dielectric constant tensor:
#      x y z
#    x 1.646780 0.000000 0.000000 
#    y 0.000000 1.607830 0.000000 
#    z 0.000000 0.000000 1.631210 
# 
# From -- ./inp_files/33590.got.cif
#   From: 2010.03.12/outbox.cif.g09.slc.cpg/sg64_17_cif.got.tgz:33590.got - 2010.04.10 20:19:32.
