data_PCOD8262075
_publ_section_title
;
Structure prediction by ZEFSAII (Michael W. Deem and Ramdas Pophale) SiO2 
 PCOD8262075
Probable space group: C M C A
;
_chemical_formula_sum "Si O2"
_cell_formula_units_Z 96
_cell_length_a 9.643226
_cell_length_b 29.789397
_cell_length_c 18.877925
_cell_angle_alpha 90.000000
_cell_angle_beta 90.000000
_cell_angle_gamma 90.000000
_cell_volume 5422.983883
_symmetry_space_group_name_H-M "C M C A"
_symmetry_group_IT_number 64
_symmetry_cell_setting 'orthorhombic'
loop_
_space_group_symop_operation_xyz
x,y,z
-x,1/2-y,1/2+z
x,-y,-z
-x,1/2+y,1/2-z
-x,-y,-z
x,1/2+y,1/2-z
-x,y,z
x,1/2-y,1/2+z
1/2+x,1/2+y,z
1/2-x,-y,1/2+z
1/2+x,1/2-y,-z
1/2-x,y,1/2-z
1/2-x,1/2-y,-z
1/2+x,y,1/2-z
1/2-x,1/2+y,z
1/2+x,-y,1/2+z
loop_
_atom_site_type_symbol
_atom_site_label
_atom_site_fract_x
_atom_site_fract_y
_atom_site_fract_z
Si Si1 0.661928 0.063521 0.083462
Si Si2 0.664208 0.018061 0.821993
Si Si3 0.839247 0.192071 0.558417
Si Si4 0.336965 0.908289 0.066015
Si Si5 0.158315 0.770770 0.596160
Si Si6 0.340694 0.644322 0.316573
O O1 0.500000 0.053796 0.077877
O O2 0.696024 0.110632 0.120227
O O3 0.723096 0.022467 0.129374
O O4 0.725434 0.066632 0.003843
O O5 0.500000 0.013290 0.805691
O O6 0.750000 0.018511 0.750000
O O7 0.697428 0.064119 0.863406
O O8 0.779180 0.142346 0.574106
O O9 0.812584 0.203032 0.476529
O O10 0.755264 0.227494 0.606274
O O11 0.000000 0.196260 0.579131
O O12 0.500000 0.904018 0.052575
O O13 0.192557 0.805119 0.659252
O O14 0.000000 0.754398 0.599172
O O15 0.500000 0.639007 0.294407
O O16 0.250000 0.630751 0.250000
#
# Coordination Sequence:
#
# PCOD8262075 Si02
#       6
#    16  16  16  16  16  16
#     4   9  16  30  52  76  98 125 166 209 245 288
#     4  10  20  33  52  75 101 132 164 201 246 296
#     4   9  16  29  51  73  94 121 161 207 242 280
#     4   9  16  30  53  78  97 124 169 211 242 283
#     4   9  17  30  47  69  98 128 157 197 247 291
#     4  10  19  31  48  71 102 134 162 202 251 297
#
# _framework density 17.702431000000001
#
# number of rings (size 3 to 8) (size 9 to 14) (size 15 to 20)
#    0.000    2.667    1.667    1.000    0.000    2.667 
#    0.000    1.667    0.000    8.000    0.000    0.000 
#    0.000    0.000    0.000    0.000    0.000    0.000 
#
# Total GULP energy -595054.796334 kJ/mol
# GULP energy per Si atom -12396.974924 kJ/mol
# Density = 1.766214 g / cm^3
# Si number density = 17.702431 Si / 1000 Ang^3
#
#
#
# Elastic Constant Matrix: (Units=GPa)
#
#
# Indices 1 2 3 4 5 6 
#
# 1 38.6756 37.5939 28.5812 0.0000 0.0000 0.0000
# 2 37.5939 132.5975 43.5461 0.0000 0.0000 0.0000
# 3 28.5812 43.5461 76.6792 0.0000 0.0000 0.0000
# 4 0.0000 0.0000 0.0000 4.8522 0.0000 0.0000
# 5 0.0000 0.0000 0.0000 0.0000 25.2737 0.0000
# 6 0.0000 0.0000 0.0000 0.0000 0.0000 21.2751
#
#
#
# Elastic Compliance Matrix: (Units=1/GPa)
#
#
# Indices 1 2 3 4 5 6 
#
# 1 0.042032 -0.008324 -0.010939 0.000000 0.000000 0.000000
# 2 -0.008324 0.010919 -0.003098 0.000000 0.000000 0.000000
# 3 -0.010939 -0.003098 0.018878 0.000000 0.000000 0.000000
# 4 0.000000 0.000000 0.000000 0.206092 0.000000 0.000000
# 5 0.000000 0.000000 0.000000 0.000000 0.039567 0.000000
# 6 0.000000 0.000000 0.000000 0.000000 0.000000 0.047003
#
#
# Mechanical properties :
#
#
# Convention : Reuss Voigt Hill
#
# Bulk Modulus (GPa) = 36.89300 51.93273 44.41287
# Shear Modulus (GPa) = 11.95458 19.49563 15.72510
#
# Velocity S-wave (km/s) = 2.60149 3.32218 2.98367
# Velocity P-wave (km/s) = 5.46896 6.64199 6.08381
#
# Compressibility (1/GPa) = 0.02710541
#
# Stress axis : x y z
#
# Youngs Moduli (GPa) = 23.79163 91.58207 52.97054
#
# Poissons Ratio (x) = 0.76234 0.57947
# Poissons Ratio (y) = 0.19804 0.16412
# Poissons Ratio (z) = 0.26027 0.28375
#
# Static dielectric constant tensor:
#      x y z
#    x 2.932470 0.000000 0.000000 
#    y 0.000000 3.488980 0.000000 
#    z 0.000000 0.000000 3.250310 
# 
# 
# High freq. dielectric constant tensor:
#      x y z
#    x 1.639870 0.000000 0.000000 
#    y 0.000000 1.699100 0.000000 
#    z 0.000000 0.000000 1.673220 
# 
# From -- ./inp_files/31081.got.cif
#   From: 2010.03.12/outbox.cif.g09.slc.cpg/sg64_16_cif.got.tgz:31081.got - 2010.04.10 20:19:32.
