data_PCOD8262126
_publ_section_title
;
Structure prediction by ZEFSAII (Michael W. Deem and Ramdas Pophale) SiO2 
 PCOD8262126
Probable space group: C M C A
;
_chemical_formula_sum "Si O2"
_cell_formula_units_Z 96
_cell_length_a 8.751911
_cell_length_b 23.736467
_cell_length_c 25.458325
_cell_angle_alpha 90.000000
_cell_angle_beta 90.000000
_cell_angle_gamma 90.000000
_cell_volume 5288.698348
_symmetry_space_group_name_H-M "C M C A"
_symmetry_group_IT_number 64
_symmetry_cell_setting 'orthorhombic'
loop_
_space_group_symop_operation_xyz
x,y,z
-x,1/2-y,1/2+z
x,-y,-z
-x,1/2+y,1/2-z
-x,-y,-z
x,1/2+y,1/2-z
-x,y,z
x,1/2-y,1/2+z
1/2+x,1/2+y,z
1/2-x,-y,1/2+z
1/2+x,1/2-y,-z
1/2-x,y,1/2-z
1/2-x,1/2-y,-z
1/2+x,y,1/2-z
1/2-x,1/2+y,z
1/2+x,-y,1/2+z
loop_
_atom_site_type_symbol
_atom_site_label
_atom_site_fract_x
_atom_site_fract_y
_atom_site_fract_z
Si Si1 0.819323 0.437244 0.498927
Si Si2 0.676914 0.371362 0.405680
Si Si3 0.181430 0.867683 0.902917
Si Si4 0.681853 0.439912 0.805706
Si Si5 0.821192 0.940581 0.304446
Si Si6 0.179621 0.249703 0.557471
O O1 0.749910 0.500000 0.500000
O O2 0.776036 0.408189 0.444814
O O3 0.750586 0.402898 0.548119
O O4 0.000000 0.439439 0.503174
O O5 0.500000 0.379254 0.420346
O O6 0.711224 0.392035 0.346847
O O7 0.726635 0.306146 0.410506
O O8 0.240520 0.894649 0.848558
O O9 0.238955 0.803247 0.908776
O O10 0.000000 0.870644 0.904035
O O11 0.500000 0.442132 0.802257
O O12 0.750000 0.420967 0.750000
O O13 0.742215 0.501351 0.822422
O O14 0.750000 0.918813 0.250000
O O15 0.000000 0.952237 0.296831
O O16 0.250000 0.250000 0.500000
O O17 0.000000 0.253976 0.549494
#
# Coordination Sequence:
#
# PCOD8262126 Si02
#       6
#    16  16  16  16  16  16
#     4  10  19  31  50  76 103 133 171 209 251 311
#     4  10  21  34  51  76 105 134 169 214 262 303
#     4   9  18  32  51  74 102 135 170 208 253 304
#     4  10  19  34  55  78 103 135 171 211 258 306
#     4  10  20  35  53  76 104 135 170 210 257 307
#     4  10  19  35  54  74 101 138 176 211 254 305
#
# _framework density 18.151914000000001
#
# number of rings (size 3 to 8) (size 9 to 14) (size 15 to 20)
#    0.000    2.167    1.667    3.000    0.000    3.000 
#    0.000    4.167    0.000    0.000    0.000    0.000 
#    0.000    0.000    0.000    0.000    0.000    0.000 
#
# Total GULP energy -595188.326921 kJ/mol
# GULP energy per Si atom -12399.756811 kJ/mol
# Density = 1.811060 g / cm^3
# Si number density = 18.151914 Si / 1000 Ang^3
#
#
#
# Elastic Constant Matrix: (Units=GPa)
#
#
# Indices 1 2 3 4 5 6 
#
# 1 42.8782 30.9078 31.0947 0.0000 0.0000 0.0000
# 2 30.9078 171.2514 90.9631 0.0000 0.0000 0.0000
# 3 31.0947 90.9631 136.4419 0.0000 0.0000 0.0000
# 4 0.0000 0.0000 0.0000 34.2394 0.0000 0.0000
# 5 0.0000 0.0000 0.0000 0.0000 27.1924 0.0000
# 6 0.0000 0.0000 0.0000 0.0000 0.0000 10.6988
#
#
#
# Elastic Compliance Matrix: (Units=1/GPa)
#
#
# Indices 1 2 3 4 5 6 
#
# 1 0.028690 -0.002640 -0.004778 0.000000 0.000000 0.000000
# 2 -0.002640 0.009284 -0.005588 0.000000 0.000000 0.000000
# 3 -0.004778 -0.005588 0.012143 0.000000 0.000000 0.000000
# 4 0.000000 0.000000 0.000000 0.029206 0.000000 0.000000
# 5 0.000000 0.000000 0.000000 0.000000 0.036775 0.000000
# 6 0.000000 0.000000 0.000000 0.000000 0.000000 0.093469
#
#
# Mechanical properties :
#
#
# Convention : Reuss Voigt Hill
#
# Bulk Modulus (GPa) = 41.48493 72.94474 57.21483
# Shear Modulus (GPa) = 20.52426 27.59984 24.06205
#
# Velocity S-wave (km/s) = 3.36623 3.90358 3.64482
# Velocity P-wave (km/s) = 6.16543 7.78397 7.02149
#
# Compressibility (1/GPa) = 0.02410514
#
# Stress axis : x y z
#
# Youngs Moduli (GPa) = 34.85532 107.71409 82.34977
#
# Poissons Ratio (x) = 0.28436 0.39350
# Poissons Ratio (y) = 0.09202 0.46015
# Poissons Ratio (z) = 0.16655 0.60188
#
# Static dielectric constant tensor:
#      x y z
#    x 3.201460 0.000000 0.000000 
#    y 0.000000 3.774360 0.000000 
#    z 0.000000 0.000000 1.875600 
# 
# 
# High freq. dielectric constant tensor:
#      x y z
#    x 1.687600 0.000000 0.000000 
#    y 0.000000 1.708000 0.000000 
#    z 0.000000 0.000000 1.704300 
# 
# From -- ./inp_files/42952.got.cif
#   From: 2010.03.12/outbox.cif.g09.slc.cpg/sg64_22_cif.got.tgz:42952.got - 2010.04.10 20:19:32.
