data_PCOD8262427
_publ_section_title
;
Structure prediction by ZEFSAII (Michael W. Deem and Ramdas Pophale) SiO2 
 PCOD8262427
Probable space group: C M C A
;
_chemical_formula_sum "Si O2"
_cell_formula_units_Z 64
_cell_length_a 24.920543
_cell_length_b 5.177254
_cell_length_c 26.562667
_cell_angle_alpha 90.000000
_cell_angle_beta 90.000000
_cell_angle_gamma 90.000000
_cell_volume 3427.114790
_symmetry_space_group_name_H-M "C M C A"
_symmetry_group_IT_number 64
_symmetry_cell_setting 'orthorhombic'
loop_
_space_group_symop_operation_xyz
x,y,z
-x,1/2-y,1/2+z
x,-y,-z
-x,1/2+y,1/2-z
-x,-y,-z
x,1/2+y,1/2-z
-x,y,z
x,1/2-y,1/2+z
1/2+x,1/2+y,z
1/2-x,-y,1/2+z
1/2+x,1/2-y,-z
1/2-x,y,1/2-z
1/2-x,1/2-y,-z
1/2+x,y,1/2-z
1/2-x,1/2+y,z
1/2+x,-y,1/2+z
loop_
_atom_site_type_symbol
_atom_site_label
_atom_site_fract_x
_atom_site_fract_y
_atom_site_fract_z
Si Si1 0.936150 0.000984 0.721583
Si Si2 0.102966 0.427704 0.444408
Si Si3 0.437823 0.927842 0.108186
Si Si4 0.773090 0.289192 0.444027
O O1 0.912906 0.245521 0.751931
O O2 0.916609 0.007989 0.664016
O O3 0.000000 0.999656 0.723696
O O4 0.082668 0.500000 0.500000
O O5 0.095593 0.680930 0.410398
O O6 0.164391 0.343211 0.444990
O O7 0.069063 0.182688 0.425683
O O8 0.500000 0.847504 0.108321
O O9 0.750000 0.250000 0.500000
O O10 0.740984 0.520883 0.415818
#
# Coordination Sequence:
#
# PCOD8262427 Si02
#       4
#    16  16  16  16
#     4   9  17  33  56  75  98 137 181 231 277 299
#     4  12  23  35  55  77 112 156 184 218 265 321
#     4  11  24  37  51  80 117 149 188 219 251 331
#     4  10  19  34  56  76  96 135 178 243 277 293
#
# _framework density 18.674602
#
# number of rings (size 3 to 8) (size 9 to 14) (size 15 to 20)
#    0.000    1.500    2.500    4.500    3.500    7.000 
#    0.000    0.000    0.000    0.000    0.000    0.000 
#    0.000   70.000    0.000    0.000    0.000    0.000 
#
# Total GULP energy -396705.427487 kJ/mol
# GULP energy per Si atom -12397.044609 kJ/mol
# Density = 1.863210 g / cm^3
# Si number density = 18.674602 Si / 1000 Ang^3
#
#
#
# Elastic Constant Matrix: (Units=GPa)
#
#
# Indices 1 2 3 4 5 6 
#
# 1 49.4936 21.6043 32.8496 0.0000 0.0000 0.0000
# 2 21.6043 165.1303 37.8513 0.0000 0.0000 0.0000
# 3 32.8496 37.8513 83.5069 0.0000 0.0000 0.0000
# 4 0.0000 0.0000 0.0000 35.4138 0.0000 0.0000
# 5 0.0000 0.0000 0.0000 0.0000 1.3176 0.0000
# 6 0.0000 0.0000 0.0000 0.0000 0.0000 33.4977
#
#
#
# Elastic Compliance Matrix: (Units=1/GPa)
#
#
# Indices 1 2 3 4 5 6 
#
# 1 0.027574 -0.001251 -0.010280 0.000000 0.000000 0.000000
# 2 -0.001251 0.006815 -0.002597 0.000000 0.000000 0.000000
# 3 -0.010280 -0.002597 0.017196 0.000000 0.000000 0.000000
# 4 0.000000 0.000000 0.000000 0.028238 0.000000 0.000000
# 5 0.000000 0.000000 0.000000 0.000000 0.758953 0.000000
# 6 0.000000 0.000000 0.000000 0.000000 0.000000 0.029853
#
#
# Mechanical properties :
#
#
# Convention : Reuss Voigt Hill
#
# Bulk Modulus (GPa) = 42.86514 53.63792 48.25153
# Shear Modulus (GPa) = 5.52694 27.76754 16.64724
#
# Velocity S-wave (km/s) = 1.72222 3.86024 2.98893
# Velocity P-wave (km/s) = 5.19213 6.97519 6.14864
#
# Compressibility (1/GPa) = 0.02332898
#
# Stress axis : x y z
#
# Youngs Moduli (GPa) = 36.26668 146.74060 58.15353
#
# Poissons Ratio (x) = 0.18360 0.59780
# Poissons Ratio (y) = 0.04538 0.15101
# Poissons Ratio (z) = 0.37281 0.38105
#
# Static dielectric constant tensor:
#      x y z
#    x 3.172940 0.000000 0.000000 
#    y 0.000000 3.508450 0.000000 
#    z 0.000000 0.000000 3.374610 
# 
# 
# High freq. dielectric constant tensor:
#      x y z
#    x 1.691710 0.000000 0.000000 
#    y 0.000000 1.762800 0.000000 
#    z 0.000000 0.000000 1.696620 
# 
# From -- ./inp_files/41248.got.cif
#   From: 2010.03.12/outbox.cif.g09.slc.cpg/sg64_21_cif.got.tgz:41248.got - 2010.04.10 20:19:32.
