data_PCOD8262011
_publ_section_title
;
Structure prediction by ZEFSAII (Michael W. Deem and Ramdas Pophale) SiO2 
 PCOD8262011
Probable space group: C M C A
;
_chemical_formula_sum "Si O2"
_cell_formula_units_Z 104
_cell_length_a 21.827355
_cell_length_b 8.847301
_cell_length_c 27.471819
_cell_angle_alpha 90.000000
_cell_angle_beta 90.000000
_cell_angle_gamma 90.000000
_cell_volume 5305.170320
_symmetry_space_group_name_H-M "C M C A"
_symmetry_group_IT_number 64
_symmetry_cell_setting 'orthorhombic'
loop_
_space_group_symop_operation_xyz
x,y,z
-x,1/2-y,1/2+z
x,-y,-z
-x,1/2+y,1/2-z
-x,-y,-z
x,1/2+y,1/2-z
-x,y,z
x,1/2-y,1/2+z
1/2+x,1/2+y,z
1/2-x,-y,1/2+z
1/2+x,1/2-y,-z
1/2-x,y,1/2-z
1/2-x,1/2-y,-z
1/2+x,y,1/2-z
1/2-x,1/2+y,z
1/2+x,-y,1/2+z
loop_
_atom_site_type_symbol
_atom_site_label
_atom_site_fract_x
_atom_site_fract_y
_atom_site_fract_z
Si Si1 0.069315 0.329630 0.084343
Si Si2 0.750000 0.050650 0.750000
Si Si3 0.808867 0.696829 0.391474
Si Si4 0.743095 0.972461 0.054385
Si Si5 0.206769 0.296971 0.815982
Si Si6 0.128906 0.358670 0.907001
Si Si7 0.570492 0.663458 0.985129
O O1 0.119255 0.235383 0.115881
O O2 0.078199 0.508143 0.093672
O O3 0.000000 0.285293 0.100087
O O4 0.080025 0.287415 0.027678
O O5 0.798278 0.152599 0.780631
O O6 0.792716 0.950359 0.715091
O O7 0.798948 0.524567 0.410021
O O8 0.778297 0.803868 0.433231
O O9 0.773404 0.721951 0.341298
O O10 0.687378 0.085033 0.063992
O O11 0.765796 0.000000 0.000000
O O12 0.149397 0.306705 0.852900
O O13 0.104019 0.214971 0.936086
O O14 0.500000 0.644227 0.971526
O O15 0.597757 0.500000 0.000000
#
# Coordination Sequence:
#
# PCOD8262011 Si02
#       7
#    16   8  16  16  16  16  16
#     4  10  20  34  53  77 112 159 197 221 250 300
#     4  10  20  38  58  80 112 134 164 222 296 362
#     4  10  20  33  50  77 108 137 185 226 260 320
#     4  10  19  30  46  73 108 145 177 219 269 309
#     4  10  21  36  57  85 107 136 174 223 290 346
#     4  10  19  34  54  78 106 141 190 229 266 326
#     4  10  21  34  49  76 114 156 196 228 257 295
#
# _framework density 19.603518999999999
#
# number of rings (size 3 to 8) (size 9 to 14) (size 15 to 20)
#    0.000    2.000    0.000    6.000    0.000    6.769 
#    0.000    0.000    0.000    0.000    0.000   29.077 
#    0.000    0.000    0.000    0.000    0.000    0.000 
#
# Total GULP energy -644640.101941 kJ/mol
# GULP energy per Si atom -12396.925037 kJ/mol
# Density = 1.955890 g / cm^3
# Si number density = 19.603519 Si / 1000 Ang^3
#
#
#
# Elastic Constant Matrix: (Units=GPa)
#
#
# Indices 1 2 3 4 5 6 
#
# 1 96.4603 37.4429 35.2723 0.0000 0.0000 0.0000
# 2 37.4429 80.1626 39.2463 0.0000 0.0000 0.0000
# 3 35.2723 39.2463 103.7819 0.0000 0.0000 0.0000
# 4 0.0000 0.0000 0.0000 29.4961 0.0000 0.0000
# 5 0.0000 0.0000 0.0000 0.0000 24.6595 0.0000
# 6 0.0000 0.0000 0.0000 0.0000 0.0000 28.4944
#
#
#
# Elastic Compliance Matrix: (Units=1/GPa)
#
#
# Indices 1 2 3 4 5 6 
#
# 1 0.013231 -0.004883 -0.002651 0.000000 0.000000 0.000000
# 2 -0.004883 0.017111 -0.004811 0.000000 0.000000 0.000000
# 3 -0.002651 -0.004811 0.012356 0.000000 0.000000 0.000000
# 4 0.000000 0.000000 0.000000 0.033903 0.000000 0.000000
# 5 0.000000 0.000000 0.000000 0.000000 0.040552 0.000000
# 6 0.000000 0.000000 0.000000 0.000000 0.000000 0.035095
#
#
# Mechanical properties :
#
#
# Convention : Reuss Voigt Hill
#
# Bulk Modulus (GPa) = 55.52663 56.03643 55.78153
# Shear Modulus (GPa) = 27.33146 27.75956 27.54551
#
# Velocity S-wave (km/s) = 3.73797 3.76713 3.75257
# Velocity P-wave (km/s) = 6.85683 6.89700 6.87695
#
# Compressibility (1/GPa) = 0.01800938
#
# Stress axis : x y z
#
# Youngs Moduli (GPa) = 75.57760 58.44293 80.93334
#
# Poissons Ratio (x) = 0.28535 0.21452
# Poissons Ratio (y) = 0.36901 0.38939
# Poissons Ratio (z) = 0.20032 0.28118
#
# Static dielectric constant tensor:
#      x y z
#    x 3.580540 0.000000 0.000000 
#    y 0.000000 4.085330 0.000000 
#    z 0.000000 0.000000 3.434060 
# 
# 
# High freq. dielectric constant tensor:
#      x y z
#    x 1.741220 0.000000 0.000000 
#    y 0.000000 1.781440 0.000000 
#    z 0.000000 0.000000 1.737010 
# 
# From -- ./inp_files/53931.got.cif
#   From: 2010.03.12/outbox.cif.g09.slc.cpg/sg64_27_cif.got.tgz:53931.got - 2010.04.10 20:19:32.
