data_PCOD8262235
_publ_section_title
;
Structure prediction by ZEFSAII (Michael W. Deem and Ramdas Pophale) SiO2 
 PCOD8262235
Probable space group: C M C A
;
_chemical_formula_sum "Si O2"
_cell_formula_units_Z 80
_cell_length_a 9.076622
_cell_length_b 15.097933
_cell_length_c 29.766505
_cell_angle_alpha 90.000000
_cell_angle_beta 90.000000
_cell_angle_gamma 90.000000
_cell_volume 4079.149183
_symmetry_space_group_name_H-M "C M C A"
_symmetry_group_IT_number 64
_symmetry_cell_setting 'orthorhombic'
loop_
_space_group_symop_operation_xyz
x,y,z
-x,1/2-y,1/2+z
x,-y,-z
-x,1/2+y,1/2-z
-x,-y,-z
x,1/2+y,1/2-z
-x,y,z
x,1/2-y,1/2+z
1/2+x,1/2+y,z
1/2-x,-y,1/2+z
1/2+x,1/2-y,-z
1/2-x,y,1/2-z
1/2-x,1/2-y,-z
1/2+x,y,1/2-z
1/2-x,1/2+y,z
1/2+x,-y,1/2+z
loop_
_atom_site_type_symbol
_atom_site_label
_atom_site_fract_x
_atom_site_fract_y
_atom_site_fract_z
Si Si1 0.165203 0.360907 0.207115
Si Si2 0.160845 0.651079 0.291414
Si Si3 0.824618 0.149640 0.884177
Si Si4 0.825589 0.505347 0.449982
Si Si5 0.823800 0.334010 0.610408
O O1 0.250000 0.402420 0.250000
O O2 0.154303 0.256238 0.213203
O O3 0.257421 0.384218 0.162673
O O4 0.000000 0.400767 0.203746
O O5 0.250000 0.608677 0.250000
O O6 0.227269 0.628796 0.340604
O O7 0.000000 0.608613 0.287632
O O8 0.775392 0.079802 0.921925
O O9 0.757994 0.242685 0.900275
O O10 0.000000 0.157213 0.878974
O O11 0.757176 0.500000 0.500000
O O12 0.770738 0.595559 0.426482
O O13 0.000000 0.508301 0.452450
O O14 0.000000 0.317628 0.610867
#
# Coordination Sequence:
#
# PCOD8262235 Si02
#       5
#    16  16  16  16  16
#     4   9  16  28  48  75 107 142 176 210 254 308
#     4   8  14  24  42  68  96 128 163 198 239 292
#     4  10  19  32  53  80 107 137 176 219 263 314
#     4   9  19  36  56  76 101 137 180 224 271 322
#     4   9  18  34  54  75 103 138 174 215 265 317
#
# _framework density 19.611934000000002
#
# number of rings (size 3 to 8) (size 9 to 14) (size 15 to 20)
#    0.000    3.000    0.000    2.400    0.000    5.600 
#    0.000    3.000    0.000    6.600    0.000    0.000 
#    0.000    0.000    0.000    0.000    0.000    0.000 
#
# Total GULP energy -495804.868830 kJ/mol
# GULP energy per Si atom -12395.121721 kJ/mol
# Density = 1.956730 g / cm^3
# Si number density = 19.611934 Si / 1000 Ang^3
#
#
#
# Elastic Constant Matrix: (Units=GPa)
#
#
# Indices 1 2 3 4 5 6 
#
# 1 81.0316 40.4843 56.6837 0.0000 0.0000 0.0000
# 2 40.4843 86.9894 81.2979 0.0000 0.0000 0.0000
# 3 56.6837 81.2979 195.8493 0.0000 0.0000 0.0000
# 4 0.0000 0.0000 0.0000 -25.8816 0.0000 0.0000
# 5 0.0000 0.0000 0.0000 0.0000 23.9933 0.0000
# 6 0.0000 0.0000 0.0000 0.0000 0.0000 12.6699
#
#
#
# Elastic Compliance Matrix: (Units=1/GPa)
#
#
# Indices 1 2 3 4 5 6 
#
# 1 0.016884 -0.005377 -0.002655 0.000000 0.000000 0.000000
# 2 -0.005377 0.020494 -0.006951 0.000000 0.000000 0.000000
# 3 -0.002655 -0.006951 0.008760 0.000000 0.000000 0.000000
# 4 0.000000 0.000000 0.000000 -0.038637 0.000000 0.000000
# 5 0.000000 0.000000 0.000000 0.000000 0.041678 0.000000
# 6 0.000000 0.000000 0.000000 0.000000 0.000000 0.078927
#
#
# Mechanical properties :
#
#
# Convention : Reuss Voigt Hill
#
# Bulk Modulus (GPa) = 61.83135 80.08910 70.96023
# Shear Modulus (GPa) = 30.58805 14.51662 22.55234
#
# Velocity S-wave (km/s) = 3.95354 2.72360 3.39474
# Velocity P-wave (km/s) = 7.24131 7.12855 7.18515
#
# Compressibility (1/GPa) = 0.01617302
#
# Stress axis : x y z
#
# Youngs Moduli (GPa) = 59.22684 48.79425 114.15821
#
# Poissons Ratio (x) = 0.26235 0.30307
# Poissons Ratio (y) = 0.31844 0.79352
# Poissons Ratio (z) = 0.15724 0.33917
#
# Static dielectric constant tensor:
#      x y z
#    x 3.516680 0.000000 0.000000 
#    y 0.000000 3.263640 0.000000 
#    z 0.000000 0.000000 3.921210 
# 
# 
# High freq. dielectric constant tensor:
#      x y z
#    x 1.744010 0.000000 0.000000 
#    y 0.000000 1.741910 0.000000 
#    z 0.000000 0.000000 1.771180 
# 
# From -- ./inp_files/51750.got.cif
#   From: 2010.03.12/outbox.cif.g09.slc.cpg/sg64_26_cif.got.tgz:51750.got - 2010.04.10 20:19:32.
