data_PCOD8262815
_publ_section_title
;
Structure prediction by ZEFSAII (Michael W. Deem and Ramdas Pophale) SiO2 
 PCOD8262815
Probable space group: C M C A
;
_chemical_formula_sum "Si O2"
_cell_formula_units_Z 80
_cell_length_a 13.525452
_cell_length_b 12.349344
_cell_length_c 23.410949
_cell_angle_alpha 90.000000
_cell_angle_beta 90.000000
_cell_angle_gamma 90.000000
_cell_volume 3910.341569
_symmetry_space_group_name_H-M "C M C A"
_symmetry_group_IT_number 64
_symmetry_cell_setting 'orthorhombic'
loop_
_space_group_symop_operation_xyz
x,y,z
-x,1/2-y,1/2+z
x,-y,-z
-x,1/2+y,1/2-z
-x,-y,-z
x,1/2+y,1/2-z
-x,y,z
x,1/2-y,1/2+z
1/2+x,1/2+y,z
1/2-x,-y,1/2+z
1/2+x,1/2-y,-z
1/2-x,y,1/2-z
1/2-x,1/2-y,-z
1/2+x,y,1/2-z
1/2-x,1/2+y,z
1/2+x,-y,1/2+z
loop_
_atom_site_type_symbol
_atom_site_label
_atom_site_fract_x
_atom_site_fract_y
_atom_site_fract_z
Si Si1 0.725766 0.270265 0.684029
Si Si2 0.887087 0.813630 0.397248
Si Si3 0.613100 0.107311 0.613573
Si Si4 0.114021 0.204069 0.473880
Si Si5 0.294811 0.460460 0.608940
O O1 0.750000 0.265946 0.750000
O O2 0.825193 0.255345 0.647517
O O3 0.646443 0.176491 0.669218
O O4 0.685510 0.388466 0.665875
O O5 0.851737 0.780585 0.460869
O O6 0.000000 0.783664 0.386986
O O7 0.870595 0.940698 0.387160
O O8 0.500000 0.069575 0.621119
O O9 0.627992 0.182128 0.558061
O O10 0.681270 0.001762 0.606112
O O11 0.181757 0.110692 0.446791
O O12 0.000000 0.165826 0.470980
#
# Coordination Sequence:
#
# PCOD8262815 Si02
#       5
#    16  16  16  16  16
#     4  10  23  40  55  76 109 147 189 235 279 322
#     4  10  21  37  59  85 111 144 187 229 274 332
#     4   9  20  38  59  83 114 149 182 223 278 336
#     4   9  18  35  58  86 117 145 177 222 278 338
#     4  10  20  33  58  86 113 144 182 227 278 332
#
# _framework density 20.458570999999999
#
# number of rings (size 3 to 8) (size 9 to 14) (size 15 to 20)
#    0.000    2.400    0.000    1.200    0.000   16.000 
#    0.000    0.000    0.000   13.200    0.000    0.000 
#    0.000    0.000    0.000    0.000    0.000    0.000 
#
# Total GULP energy -496057.128855 kJ/mol
# GULP energy per Si atom -12401.428221 kJ/mol
# Density = 2.041201 g / cm^3
# Si number density = 20.458571 Si / 1000 Ang^3
#
#
#
# Elastic Constant Matrix: (Units=GPa)
#
#
# Indices 1 2 3 4 5 6 
#
# 1 77.6271 10.7880 36.9325 0.0000 0.0000 0.0000
# 2 10.7880 63.4473 33.4919 0.0000 0.0000 0.0000
# 3 36.9325 33.4919 166.7481 0.0000 0.0000 0.0000
# 4 0.0000 0.0000 0.0000 4.1915 0.0000 0.0000
# 5 0.0000 0.0000 0.0000 0.0000 23.9595 0.0000
# 6 0.0000 0.0000 0.0000 0.0000 0.0000 29.7850
#
#
#
# Elastic Compliance Matrix: (Units=1/GPa)
#
#
# Indices 1 2 3 4 5 6 
#
# 1 0.014441 -0.000858 -0.003026 0.000000 0.000000 0.000000
# 2 -0.000858 0.017681 -0.003361 0.000000 0.000000 0.000000
# 3 -0.003026 -0.003361 0.007342 0.000000 0.000000 0.000000
# 4 0.000000 0.000000 0.000000 0.238578 0.000000 0.000000
# 5 0.000000 0.000000 0.000000 0.000000 0.041737 0.000000
# 6 0.000000 0.000000 0.000000 0.000000 0.000000 0.033574
#
#
# Mechanical properties :
#
#
# Convention : Reuss Voigt Hill
#
# Bulk Modulus (GPa) = 40.04183 52.24971 46.14577
# Shear Modulus (GPa) = 13.29187 26.69454 19.99320
#
# Velocity S-wave (km/s) = 2.55168 3.61613 3.12950
# Velocity P-wave (km/s) = 5.31941 6.55972 5.97185
#
# Compressibility (1/GPa) = 0.02497389
#
# Stress axis : x y z
#
# Youngs Moduli (GPa) = 69.24682 56.55679 136.19412
#
# Poissons Ratio (x) = 0.04853 0.41215
# Poissons Ratio (y) = 0.05941 0.45779
# Poissons Ratio (z) = 0.20955 0.19011
#
# Static dielectric constant tensor:
#      x y z
#    x 3.849030 0.000000 0.000000 
#    y 0.000000 3.714990 0.000000 
#    z 0.000000 0.000000 3.525350 
# 
# 
# High freq. dielectric constant tensor:
#      x y z
#    x 1.808950 0.000000 0.000000 
#    y 0.000000 1.801050 0.000000 
#    z 0.000000 0.000000 1.779860 
# 
# From -- ./inp_files/44928.got.cif
#   From: 2010.03.12/outbox.cif.g09.slc.cpg/sg64_23_cif.got.tgz:44928.got - 2010.04.10 20:19:32.
