data_PCOD8262973
_publ_section_title
;
Structure prediction by ZEFSAII (Michael W. Deem and Ramdas Pophale) SiO2 
 PCOD8262973
Probable space group: C M C A
;
_chemical_formula_sum "Si O2"
_cell_formula_units_Z 112
_cell_length_a 13.163698
_cell_length_b 15.410557
_cell_length_c 28.732707
_cell_angle_alpha 90.000000
_cell_angle_beta 90.000000
_cell_angle_gamma 90.000000
_cell_volume 5828.714596
_symmetry_space_group_name_H-M "C M C A"
_symmetry_group_IT_number 64
_symmetry_cell_setting 'orthorhombic'
loop_
_space_group_symop_operation_xyz
x,y,z
-x,1/2-y,1/2+z
x,-y,-z
-x,1/2+y,1/2-z
-x,-y,-z
x,1/2+y,1/2-z
-x,y,z
x,1/2-y,1/2+z
1/2+x,1/2+y,z
1/2-x,-y,1/2+z
1/2+x,1/2-y,-z
1/2-x,y,1/2-z
1/2-x,1/2-y,-z
1/2+x,y,1/2-z
1/2-x,1/2+y,z
1/2+x,-y,1/2+z
loop_
_atom_site_type_symbol
_atom_site_label
_atom_site_fract_x
_atom_site_fract_y
_atom_site_fract_z
Si Si1 0.615816 0.301376 0.721483
Si Si2 0.760294 0.369990 0.644710
Si Si3 0.120861 0.702385 0.869538
Si Si4 0.886012 0.885704 0.459385
Si Si5 0.883721 0.912891 0.560108
Si Si6 0.880215 0.630040 0.773482
Si Si7 0.117246 0.466204 0.714149
O O1 0.500000 0.294584 0.705460
O O2 0.678822 0.322923 0.676536
O O3 0.655535 0.210937 0.742316
O O4 0.629938 0.374623 0.760306
O O5 0.850390 0.302841 0.634558
O O6 0.699487 0.392880 0.598562
O O7 0.811664 0.455946 0.668211
O O8 0.170319 0.666304 0.917722
O O9 0.162032 0.643741 0.826055
O O10 0.000000 0.696035 0.869957
O O11 0.842117 0.870597 0.511515
O O12 0.000000 0.850397 0.461621
O O13 0.886065 0.985214 0.445893
O O14 0.000000 0.882011 0.572258
O O15 0.840880 0.542301 0.748192
O O16 0.000000 0.626023 0.776693
O O17 0.000000 0.484041 0.700081
#
# Coordination Sequence:
#
# PCOD8262973 Si02
#       7
#    16  16  16  16  16  16  16
#     4  10  21  38  51  72 111 145 183 222 260 321
#     4  12  22  32  52  84 111 142 179 227 276 323
#     4  10  20  35  55  78 105 141 182 225 273 327
#     4   8  17  36  58  78 105 139 180 230 279 328
#     4   9  19  36  56  81 109 138 179 229 279 330
#     4   9  19  36  55  72 105 149 181 220 267 316
#     4  10  21  37  54  75 108 148 185 224 267 319
#
# _framework density 19.215214
#
# number of rings (size 3 to 8) (size 9 to 14) (size 15 to 20)
#    0.000    2.286    1.429    2.143    2.000    1.714 
#    2.571    0.000    0.000    0.000    0.000    8.000 
#    0.000    0.000    0.000    0.000    0.000    0.000 
#
# Total GULP energy -693887.945101 kJ/mol
# GULP energy per Si atom -12390.856163 kJ/mol
# Density = 1.917148 g / cm^3
# Si number density = 19.215214 Si / 1000 Ang^3
#
#
#
# Elastic Constant Matrix: (Units=GPa)
#
#
# Indices 1 2 3 4 5 6 
#
# 1 50.4056 5.9767 40.7283 0.0000 0.0000 0.0000
# 2 5.9767 62.3708 23.9004 0.0000 0.0000 0.0000
# 3 40.7283 23.9004 138.3660 0.0000 0.0000 0.0000
# 4 0.0000 0.0000 0.0000 -185.3878 0.0000 0.0000
# 5 0.0000 0.0000 0.0000 0.0000 26.0582 0.0000
# 6 0.0000 0.0000 0.0000 0.0000 0.0000 -114.6664
#
#
#
# Elastic Compliance Matrix: (Units=1/GPa)
#
#
# Indices 1 2 3 4 5 6 
#
# 1 0.026043 0.000473 -0.007748 0.000000 0.000000 0.000000
# 2 0.000473 0.017178 -0.003107 0.000000 0.000000 0.000000
# 3 -0.007748 -0.003107 0.010044 0.000000 0.000000 0.000000
# 4 0.000000 0.000000 0.000000 -0.005394 0.000000 0.000000
# 5 0.000000 0.000000 0.000000 0.000000 0.038376 0.000000
# 6 0.000000 0.000000 0.000000 0.000000 0.000000 -0.008721
#
#
# Mechanical properties :
#
#
# Convention : Reuss Voigt Hill
#
# Bulk Modulus (GPa) = 30.76552 43.59480 37.18016
# Shear Modulus (GPa) = 45.82001 -42.76340 1.52830
#
# Velocity S-wave (km/s) = 4.88850 -4.72264 0.89280
# Velocity P-wave (km/s) = 6.92164 2.64590 4.52262
#
# Compressibility (1/GPa) = 0.03250392
#
# Stress axis : x y z
#
# Youngs Moduli (GPa) = 38.39790 58.21320 99.55862
#
# Poissons Ratio (x) = -0.02755 0.77134
# Poissons Ratio (y) = -0.01817 0.30929
# Poissons Ratio (z) = 0.29749 0.18084
#
# Static dielectric constant tensor:
#      x y z
#    x 3.601300 0.000000 0.000000 
#    y 0.000000 3.525580 0.000000 
#    z 0.000000 0.000000 3.671590 
# 
# 
# High freq. dielectric constant tensor:
#      x y z
#    x 1.739150 0.000000 0.000000 
#    y 0.000000 1.734670 0.000000 
#    z 0.000000 0.000000 1.747970 
# 
# From -- ./inp_files/53359.got.cif
#   From: 2010.03.12/outbox.cif.g09.slc.cpg/sg64_27_cif.got.tgz:53359.got - 2010.04.10 20:19:32.
