data_PCOD8262508
_publ_section_title
;
Structure prediction by ZEFSAII (Michael W. Deem and Ramdas Pophale) SiO2 
 PCOD8262508
Probable space group: C M C A
;
_chemical_formula_sum "Si O2"
_cell_formula_units_Z 120
_cell_length_a 19.631416
_cell_length_b 18.465072
_cell_length_c 17.135435
_cell_angle_alpha 90.000000
_cell_angle_beta 90.000000
_cell_angle_gamma 90.000000
_cell_volume 6211.518248
_symmetry_space_group_name_H-M "C M C A"
_symmetry_group_IT_number 64
_symmetry_cell_setting 'orthorhombic'
loop_
_space_group_symop_operation_xyz
x,y,z
-x,1/2-y,1/2+z
x,-y,-z
-x,1/2+y,1/2-z
-x,-y,-z
x,1/2+y,1/2-z
-x,y,z
x,1/2-y,1/2+z
1/2+x,1/2+y,z
1/2-x,-y,1/2+z
1/2+x,1/2-y,-z
1/2-x,y,1/2-z
1/2-x,1/2-y,-z
1/2+x,y,1/2-z
1/2-x,1/2+y,z
1/2+x,-y,1/2+z
loop_
_atom_site_type_symbol
_atom_site_label
_atom_site_fract_x
_atom_site_fract_y
_atom_site_fract_z
Si Si1 0.079822 0.096947 0.636627
Si Si2 0.671816 0.675976 0.520504
Si Si3 0.889845 0.442405 0.792437
Si Si4 0.422155 0.302758 0.616432
Si Si5 0.706639 0.326147 0.912008
Si Si6 0.577885 0.730077 0.734090
Si Si7 0.250000 0.615039 0.250000
Si Si8 0.074411 0.627971 0.363152
O O1 0.130667 0.111023 0.563560
O O2 0.104244 0.153843 0.702281
O O3 0.000000 0.108756 0.612500
O O4 0.089600 0.019150 0.673422
O O5 0.620220 0.713637 0.460446
O O6 0.696206 0.740047 0.577184
O O7 0.736531 0.643708 0.472523
O O8 0.917251 0.385846 0.855961
O O9 0.809066 0.437643 0.780834
O O10 0.924406 0.429456 0.707843
O O11 0.500000 0.283270 0.598024
O O12 0.386900 0.253770 0.684603
O O13 0.727844 0.333981 0.821495
O O14 0.637876 0.376436 0.924047
O O15 0.500000 0.723422 0.757749
O O16 0.586655 0.791159 0.668959
O O17 0.000000 0.620922 0.404233
#
# Coordination Sequence:
#
# PCOD8262508 Si02
#       8
#    16  16  16  16  16  16   8  16
#     4  11  21  35  56  89 127 155 189 247 306 351
#     4  11  22  34  52  87 121 151 190 235 303 362
#     4  10  20  35  58  85 116 154 200 236 286 358
#     4  10  19  35  56  82 117 156 194 234 286 356
#     4  10  21  36  56  80 110 152 197 244 284 348
#     4   8  16  31  53  79 110 146 192 241 281 331
#     4  10  20  42  62  76 108 162 204 246 280 336
#     4   9  16  32  59  83 105 145 201 242 277 333
#
# _framework density 19.318949
#
# number of rings (size 3 to 8) (size 9 to 14) (size 15 to 20)
#    0.000    2.133    2.667    2.400    0.000    1.067 
#    0.000    4.667    0.000    1.600    0.000    0.000 
#    0.000   10.667    0.000    0.000    0.000    0.000 
#
# Total GULP energy -743457.228238 kJ/mol
# GULP energy per Si atom -12390.953804 kJ/mol
# Density = 1.927498 g / cm^3
# Si number density = 19.318949 Si / 1000 Ang^3
#
#
#
# Elastic Constant Matrix: (Units=GPa)
#
#
# Indices 1 2 3 4 5 6 
#
# 1 145.6891 26.1060 48.6634 0.0000 0.0000 0.0000
# 2 26.1060 70.9512 45.0498 0.0000 0.0000 0.0000
# 3 48.6634 45.0498 80.4018 0.0000 0.0000 0.0000
# 4 0.0000 0.0000 0.0000 19.1292 0.0000 0.0000
# 5 0.0000 0.0000 0.0000 0.0000 27.0895 0.0000
# 6 0.0000 0.0000 0.0000 0.0000 0.0000 21.4733
#
#
#
# Elastic Compliance Matrix: (Units=1/GPa)
#
#
# Indices 1 2 3 4 5 6 
#
# 1 0.008605 0.000218 -0.005331 0.000000 0.000000 0.000000
# 2 0.000218 0.021883 -0.012393 0.000000 0.000000 0.000000
# 3 -0.005331 -0.012393 0.022608 0.000000 0.000000 0.000000
# 4 0.000000 0.000000 0.000000 0.052276 0.000000 0.000000
# 5 0.000000 0.000000 0.000000 0.000000 0.036915 0.000000
# 6 0.000000 0.000000 0.000000 0.000000 0.000000 0.046569
#
#
# Mechanical properties :
#
#
# Convention : Reuss Voigt Hill
#
# Bulk Modulus (GPa) = 55.29470 59.63114 57.46292
# Shear Modulus (GPa) = 21.74893 25.35327 23.55110
#
# Velocity S-wave (km/s) = 3.35891 3.62657 3.49530
# Velocity P-wave (km/s) = 6.61265 6.96202 6.78958
#
# Compressibility (1/GPa) = 0.01808492
#
# Stress axis : x y z
#
# Youngs Moduli (GPa) = 116.20602 45.69783 44.23184
#
# Poissons Ratio (x) = -0.00998 0.23579
# Poissons Ratio (y) = -0.02539 0.54818
# Poissons Ratio (z) = 0.61948 0.56635
#
# Static dielectric constant tensor:
#      x y z
#    x 4.055700 0.000000 0.000000 
#    y 0.000000 3.146490 0.000000 
#    z 0.000000 0.000000 3.534520 
# 
# 
# High freq. dielectric constant tensor:
#      x y z
#    x 1.772190 0.000000 0.000000 
#    y 0.000000 1.710880 0.000000 
#    z 0.000000 0.000000 1.737650 
# 
# From -- ./inp_files/34542.got.cif
#   From: 2010.03.12/outbox.cif.g09.slc.cpg/sg64_18_cif.got.tgz:34542.got - 2010.04.10 20:19:32.
