data_PCOD8262996
_publ_section_title
;
Structure prediction by ZEFSAII (Michael W. Deem and Ramdas Pophale) SiO2 
 PCOD8262996
Probable space group: C M C A
;
_chemical_formula_sum "Si O2"
_cell_formula_units_Z 96
_cell_length_a 14.596435
_cell_length_b 19.537378
_cell_length_c 15.881313
_cell_angle_alpha 90.000000
_cell_angle_beta 90.000000
_cell_angle_gamma 90.000000
_cell_volume 4528.970397
_symmetry_space_group_name_H-M "C M C A"
_symmetry_group_IT_number 64
_symmetry_cell_setting 'orthorhombic'
loop_
_space_group_symop_operation_xyz
x,y,z
-x,1/2-y,1/2+z
x,-y,-z
-x,1/2+y,1/2-z
-x,-y,-z
x,1/2+y,1/2-z
-x,y,z
x,1/2-y,1/2+z
1/2+x,1/2+y,z
1/2-x,-y,1/2+z
1/2+x,1/2-y,-z
1/2-x,y,1/2-z
1/2-x,1/2-y,-z
1/2+x,y,1/2-z
1/2-x,1/2+y,z
1/2+x,-y,1/2+z
loop_
_atom_site_type_symbol
_atom_site_label
_atom_site_fract_x
_atom_site_fract_y
_atom_site_fract_z
Si Si1 0.602923 0.695864 0.846542
Si Si2 0.893728 0.703935 0.290347
Si Si3 0.735635 0.046815 0.427463
Si Si4 0.157466 0.448929 0.290429
Si Si5 0.602022 0.572399 0.312196
Si Si6 0.390314 0.169083 0.470748
O O1 0.500000 0.722967 0.850951
O O2 0.654579 0.743447 0.776411
O O3 0.600287 0.616369 0.819930
O O4 0.641940 0.705652 0.941920
O O5 0.874003 0.625699 0.262769
O O6 0.860178 0.712819 0.387523
O O7 0.000000 0.721311 0.290746
O O8 0.821810 0.084316 0.383572
O O9 0.663725 0.098248 0.468634
O O10 0.779331 0.000000 0.500000
O O11 0.677994 0.999329 0.366107
O O12 0.250000 0.419440 0.250000
O O13 0.103490 0.494541 0.221713
O O14 0.500000 0.587464 0.348139
O O15 0.500000 0.154730 0.470801
#
# Coordination Sequence:
#
# PCOD8262996 Si02
#       6
#    16  16  16  16  16  16
#     4  10  20  36  59  88 121 154 194 249 304 354
#     4   9  19  37  59  86 119 158 201 240 291 367
#     4  11  21  36  59  89 125 149 202 257 298 358
#     4  10  20  35  55  86 120 152 195 251 302 356
#     4  10  21  38  60  82 116 168 209 240 294 360
#     4  10  20  35  60  91 120 156 197 245 309 361
#
# _framework density 21.196870000000001
#
# number of rings (size 3 to 8) (size 9 to 14) (size 15 to 20)
#    0.000    2.000    3.333    0.500    0.000    1.333 
#    3.000    4.167    0.000    6.000    0.000    0.000 
#    0.000    0.000    0.000    0.000    0.000    0.000 
#
# Total GULP energy -594766.957914 kJ/mol
# GULP energy per Si atom -12390.978290 kJ/mol
# Density = 2.114863 g / cm^3
# Si number density = 21.196870 Si / 1000 Ang^3
#
#
#
# Elastic Constant Matrix: (Units=GPa)
#
#
# Indices 1 2 3 4 5 6 
#
# 1 52.1159 13.4861 26.1594 0.0000 0.0000 0.0000
# 2 13.4861 87.8752 63.7590 0.0000 0.0000 0.0000
# 3 26.1594 63.7590 158.2459 0.0000 0.0000 0.0000
# 4 0.0000 0.0000 0.0000 34.8050 0.0000 0.0000
# 5 0.0000 0.0000 0.0000 0.0000 24.9884 0.0000
# 6 0.0000 0.0000 0.0000 0.0000 0.0000 7.7779
#
#
#
# Elastic Compliance Matrix: (Units=1/GPa)
#
#
# Indices 1 2 3 4 5 6 
#
# 1 0.020985 -0.000994 -0.003069 0.000000 0.000000 0.000000
# 2 -0.000994 0.016128 -0.006334 0.000000 0.000000 0.000000
# 3 -0.003069 -0.006334 0.009378 0.000000 0.000000 0.000000
# 4 0.000000 0.000000 0.000000 0.028732 0.000000 0.000000
# 5 0.000000 0.000000 0.000000 0.000000 0.040019 0.000000
# 6 0.000000 0.000000 0.000000 0.000000 0.000000 0.128569
#
#
# Mechanical properties :
#
#
# Convention : Reuss Voigt Hill
#
# Bulk Modulus (GPa) = 38.91216 56.11624 47.51420
# Shear Modulus (GPa) = 18.30359 26.50308 22.40333
#
# Velocity S-wave (km/s) = 2.94173 3.53984 3.25455
# Velocity P-wave (km/s) = 5.47136 6.57560 6.04873
#
# Compressibility (1/GPa) = 0.02569891
#
# Stress axis : x y z
#
# Youngs Moduli (GPa) = 47.65196 62.00431 106.62717
#
# Poissons Ratio (x) = 0.06165 0.32719
# Poissons Ratio (y) = 0.04738 0.67535
# Poissons Ratio (z) = 0.14622 0.39272
#
# Static dielectric constant tensor:
#      x y z
#    x 3.575420 0.000000 0.000000 
#    y 0.000000 3.721980 0.000000 
#    z 0.000000 0.000000 4.253790 
# 
# 
# High freq. dielectric constant tensor:
#      x y z
#    x 1.813690 0.000000 0.000000 
#    y 0.000000 1.812960 0.000000 
#    z 0.000000 0.000000 1.840910 
# 
# From -- ./inp_files/23860.got.cif
#   From: 2010.03.12/outbox.cif.g09.slc.cpg/sg64_12_cif.got.tgz:23860.got - 2010.04.10 20:19:32.
