data_PCOD8262986
_publ_section_title
;
Structure prediction by ZEFSAII (Michael W. Deem and Ramdas Pophale) SiO2 
 PCOD8262986
Probable space group: C M C A
;
_chemical_formula_sum "Si O2"
_cell_formula_units_Z 96
_cell_length_a 18.432293
_cell_length_b 17.811281
_cell_length_c 15.464723
_cell_angle_alpha 90.000000
_cell_angle_beta 90.000000
_cell_angle_gamma 90.000000
_cell_volume 5077.111090
_symmetry_space_group_name_H-M "C M C A"
_symmetry_group_IT_number 64
_symmetry_cell_setting 'orthorhombic'
loop_
_space_group_symop_operation_xyz
x,y,z
-x,1/2-y,1/2+z
x,-y,-z
-x,1/2+y,1/2-z
-x,-y,-z
x,1/2+y,1/2-z
-x,y,z
x,1/2-y,1/2+z
1/2+x,1/2+y,z
1/2-x,-y,1/2+z
1/2+x,1/2-y,-z
1/2-x,y,1/2-z
1/2-x,1/2-y,-z
1/2+x,y,1/2-z
1/2-x,1/2+y,z
1/2+x,-y,1/2+z
loop_
_atom_site_type_symbol
_atom_site_label
_atom_site_fract_x
_atom_site_fract_y
_atom_site_fract_z
Si Si1 0.167682 0.538573 0.253532
Si Si2 0.084717 0.703708 0.930280
Si Si3 0.917123 0.315729 0.713476
Si Si4 0.703446 0.391773 0.164913
Si Si5 0.339523 0.049652 0.916227
Si Si6 0.915991 0.771563 0.113140
O O1 0.250000 0.568188 0.250000
O O2 0.120096 0.603974 0.293849
O O3 0.160371 0.468164 0.317171
O O4 0.142188 0.508651 0.160219
O O5 0.118870 0.756225 0.854092
O O6 0.103110 0.616947 0.916736
O O7 0.000000 0.709858 0.920837
O O8 0.109336 0.732997 0.024199
O O9 0.908698 0.289046 0.811588
O O10 0.000000 0.328318 0.687915
O O11 0.750000 0.365545 0.250000
O O12 0.761050 0.409855 0.089535
O O13 0.642159 0.335546 0.133123
O O14 0.345505 0.000000 0.000000
O O15 0.000000 0.801298 0.108647
#
# Coordination Sequence:
#
# PCOD8262986 Si02
#       6
#    16  16  16  16  16  16
#     4   9  20  35  52  76 107 141 179 224 273 328
#     4  10  22  37  55  84 114 142 186 233 271 326
#     4  10  20  35  55  80 110 143 183 227 271 323
#     4   9  20  37  54  78 110 143 185 229 272 329
#     4  10  20  35  55  80 108 141 182 229 278 326
#     4  10  21  37  57  81 111 147 184 226 277 330
#
# _framework density 18.908391000000002
#
# number of rings (size 3 to 8) (size 9 to 14) (size 15 to 20)
#    0.000    2.667    0.000    3.000    0.000    7.000 
#    0.000    0.000    0.000    3.500    0.000    0.000 
#    0.000    0.000    0.000    0.000    0.000    0.000 
#
# Total GULP energy -594902.756091 kJ/mol
# GULP energy per Si atom -12393.807419 kJ/mol
# Density = 1.886535 g / cm^3
# Si number density = 18.908391 Si / 1000 Ang^3
#
#
#
# Elastic Constant Matrix: (Units=GPa)
#
#
# Indices 1 2 3 4 5 6 
#
# 1 35.0794 42.4328 27.4914 0.0000 0.0000 0.0000
# 2 42.4328 108.6341 54.1561 0.0000 0.0000 0.0000
# 3 27.4914 54.1561 109.2844 0.0000 0.0000 0.0000
# 4 0.0000 0.0000 0.0000 133.2779 0.0000 0.0000
# 5 0.0000 0.0000 0.0000 0.0000 12.8907 0.0000
# 6 0.0000 0.0000 0.0000 0.0000 0.0000 44.3958
#
#
#
# Elastic Compliance Matrix: (Units=1/GPa)
#
#
# Indices 1 2 3 4 5 6 
#
# 1 0.055503 -0.019549 -0.004275 0.000000 0.000000 0.000000
# 2 -0.019549 0.019111 -0.004553 0.000000 0.000000 0.000000
# 3 -0.004275 -0.004553 0.012482 0.000000 0.000000 0.000000
# 4 0.000000 0.000000 0.000000 0.007503 0.000000 0.000000
# 5 0.000000 0.000000 0.000000 0.000000 0.077575 0.000000
# 6 0.000000 0.000000 0.000000 0.000000 0.000000 0.022525
#
#
# Mechanical properties :
#
#
# Convention : Reuss Voigt Hill
#
# Bulk Modulus (GPa) = 32.95617 55.68430 44.32024
# Shear Modulus (GPa) = 19.11564 46.70740 32.91152
#
# Velocity S-wave (km/s) = 3.18301 4.97550 4.17655
# Velocity P-wave (km/s) = 5.56561 7.90701 6.83728
#
# Compressibility (1/GPa) = 0.03034333
#
# Stress axis : x y z
#
# Youngs Moduli (GPa) = 18.01692 52.32713 80.11590
#
# Poissons Ratio (x) = 1.02292 0.34249
# Poissons Ratio (y) = 0.35221 0.36474
# Poissons Ratio (z) = 0.07702 0.23823
#
# Static dielectric constant tensor:
#      x y z
#    x 3.562690 0.000000 0.000000 
#    y 0.000000 3.361660 0.000000 
#    z 0.000000 0.000000 3.835750 
# 
# 
# High freq. dielectric constant tensor:
#      x y z
#    x 1.725430 0.000000 0.000000 
#    y 0.000000 1.736050 0.000000 
#    z 0.000000 0.000000 1.739660 
# 
# From -- ./inp_files/33251.got.cif
#   From: 2010.03.12/outbox.cif.g09.slc.cpg/sg64_17_cif.got.tgz:33251.got - 2010.04.10 20:19:32.
