data_PCOD8262378
_publ_section_title
;
Structure prediction by ZEFSAII (Michael W. Deem and Ramdas Pophale) SiO2 
 PCOD8262378
Probable space group: C M C A
;
_chemical_formula_sum "Si O2"
_cell_formula_units_Z 96
_cell_length_a 8.918538
_cell_length_b 20.323274
_cell_length_c 27.903636
_cell_angle_alpha 90.000000
_cell_angle_beta 90.000000
_cell_angle_gamma 90.000000
_cell_volume 5057.642611
_symmetry_space_group_name_H-M "C M C A"
_symmetry_group_IT_number 64
_symmetry_cell_setting 'orthorhombic'
loop_
_space_group_symop_operation_xyz
x,y,z
-x,1/2-y,1/2+z
x,-y,-z
-x,1/2+y,1/2-z
-x,-y,-z
x,1/2+y,1/2-z
-x,y,z
x,1/2-y,1/2+z
1/2+x,1/2+y,z
1/2-x,-y,1/2+z
1/2+x,1/2-y,-z
1/2-x,y,1/2-z
1/2-x,1/2-y,-z
1/2+x,y,1/2-z
1/2-x,1/2+y,z
1/2+x,-y,1/2+z
loop_
_atom_site_type_symbol
_atom_site_label
_atom_site_fract_x
_atom_site_fract_y
_atom_site_fract_z
Si Si1 0.324254 0.991428 0.896646
Si Si2 0.175850 0.367848 0.560368
Si Si3 0.175342 0.891681 0.048565
Si Si4 0.674369 0.803976 0.297009
Si Si5 0.172694 0.258251 0.399824
Si Si6 0.676812 0.944036 0.202088
O O1 0.500000 0.988875 0.904500
O O2 0.259834 0.043845 0.933868
O O3 0.281714 0.009524 0.842282
O O4 0.257362 0.919845 0.905779
O O5 0.225098 0.378315 0.505687
O O6 0.222086 0.295051 0.575862
O O7 0.000000 0.376200 0.566824
O O8 0.222087 0.829413 0.080606
O O9 0.000000 0.906137 0.052777
O O10 0.500000 0.817333 0.287053
O O11 0.750000 0.770783 0.250000
O O12 0.696320 0.756369 0.342466
O O13 0.753810 0.872830 0.307926
O O14 0.000000 0.244051 0.413421
O O15 0.500000 0.936880 0.209000
O O16 0.750000 0.975119 0.250000
#
# Coordination Sequence:
#
# PCOD8262378 Si02
#       6
#    16  16  16  16  16  16
#     4  11  23  38  58  85 116 150 189 233 281 336
#     4  11  24  38  57  83 115 153 191 234 282 336
#     4  10  21  39  60  84 113 149 192 235 282 332
#     4  10  19  33  57  85 113 146 182 229 281 331
#     4  10  21  38  59  83 115 151 186 231 284 334
#     4  10  20  34  56  85 112 143 184 231 279 331
#
# _framework density 18.981175
#
# number of rings (size 3 to 8) (size 9 to 14) (size 15 to 20)
#    0.000    1.667    1.667    4.000    0.000    7.333 
#    0.000    0.833    0.000    0.000    0.000    0.000 
#    0.000    0.000    0.000    0.000    0.000    0.000 
#
# Total GULP energy -595380.228167 kJ/mol
# GULP energy per Si atom -12403.754753 kJ/mol
# Density = 1.893797 g / cm^3
# Si number density = 18.981175 Si / 1000 Ang^3
#
#
#
# Elastic Constant Matrix: (Units=GPa)
#
#
# Indices 1 2 3 4 5 6 
#
# 1 68.5800 12.7173 43.1493 0.0000 0.0000 0.0000
# 2 12.7173 47.0603 14.8447 0.0000 0.0000 0.0000
# 3 43.1493 14.8447 107.7248 0.0000 0.0000 0.0000
# 4 0.0000 0.0000 0.0000 16.8022 0.0000 0.0000
# 5 0.0000 0.0000 0.0000 0.0000 32.9804 0.0000
# 6 0.0000 0.0000 0.0000 0.0000 0.0000 34.4041
#
#
#
# Elastic Compliance Matrix: (Units=1/GPa)
#
#
# Indices 1 2 3 4 5 6 
#
# 1 0.019889 -0.002992 -0.007554 0.000000 0.000000 0.000000
# 2 -0.002992 0.022665 -0.001925 0.000000 0.000000 0.000000
# 3 -0.007554 -0.001925 0.012574 0.000000 0.000000 0.000000
# 4 0.000000 0.000000 0.000000 0.059516 0.000000 0.000000
# 5 0.000000 0.000000 0.000000 0.000000 0.030321 0.000000
# 6 0.000000 0.000000 0.000000 0.000000 0.000000 0.029066
#
#
# Mechanical properties :
#
#
# Convention : Reuss Voigt Hill
#
# Bulk Modulus (GPa) = 33.12776 40.53199 36.82988
# Shear Modulus (GPa) = 23.91928 27.01427 25.46678
#
# Velocity S-wave (km/s) = 3.55372 3.77664 3.66688
# Velocity P-wave (km/s) = 5.85913 6.35748 6.11338
#
# Compressibility (1/GPa) = 0.03018616
#
# Stress axis : x y z
#
# Youngs Moduli (GPa) = 50.27794 44.12085 79.52839
#
# Poissons Ratio (x) = 0.13200 0.60079
# Poissons Ratio (y) = 0.15042 0.15308
# Poissons Ratio (z) = 0.37982 0.08493
#
# Static dielectric constant tensor:
#      x y z
#    x 3.511800 0.000000 0.000000 
#    y 0.000000 3.244740 0.000000 
#    z 0.000000 0.000000 1.509650 
# 
# 
# High freq. dielectric constant tensor:
#      x y z
#    x 1.746320 0.000000 0.000000 
#    y 0.000000 1.718380 0.000000 
#    z 0.000000 0.000000 1.755630 
# 
# From -- ./inp_files/48118.got.cif
#   From: 2010.03.12/outbox.cif.g09.slc.cpg/sg64_25_cif.got.tgz:48118.got - 2010.04.10 20:19:32.
