data_PCOD8262088
_publ_section_title
;
Structure prediction by ZEFSAII (Michael W. Deem and Ramdas Pophale) SiO2 
 PCOD8262088
Probable space group: C M C A
;
_chemical_formula_sum "Si O2"
_cell_formula_units_Z 96
_cell_length_a 8.850493
_cell_length_b 27.242044
_cell_length_c 23.934727
_cell_angle_alpha 90.000000
_cell_angle_beta 90.000000
_cell_angle_gamma 90.000000
_cell_volume 5770.794793
_symmetry_space_group_name_H-M "C M C A"
_symmetry_group_IT_number 64
_symmetry_cell_setting 'orthorhombic'
loop_
_space_group_symop_operation_xyz
x,y,z
-x,1/2-y,1/2+z
x,-y,-z
-x,1/2+y,1/2-z
-x,-y,-z
x,1/2+y,1/2-z
-x,y,z
x,1/2-y,1/2+z
1/2+x,1/2+y,z
1/2-x,-y,1/2+z
1/2+x,1/2-y,-z
1/2-x,y,1/2-z
1/2-x,1/2-y,-z
1/2+x,y,1/2-z
1/2-x,1/2+y,z
1/2+x,-y,1/2+z
loop_
_atom_site_type_symbol
_atom_site_label
_atom_site_fract_x
_atom_site_fract_y
_atom_site_fract_z
Si Si1 0.176666 0.820146 0.472287
Si Si2 0.323331 0.768553 0.913855
Si Si3 0.678404 0.076699 0.525393
Si Si4 0.321803 0.071105 0.306808
Si Si5 0.821968 0.979209 0.916730
Si Si6 0.322041 0.183663 0.307452
O O1 0.267538 0.785458 0.430191
O O2 0.215891 0.806305 0.536232
O O3 0.228598 0.875114 0.459737
O O4 0.000000 0.814006 0.460288
O O5 0.500000 0.766912 0.901230
O O6 0.237202 0.784572 0.858577
O O7 0.500000 0.088264 0.523971
O O8 0.738251 0.055662 0.466309
O O9 0.718322 0.036119 0.572578
O O10 0.500000 0.065716 0.301968
O O11 0.250000 0.050542 0.250000
O O12 0.254559 0.038768 0.357705
O O13 0.273450 0.127296 0.317152
O O14 0.000000 0.972570 0.916618
O O15 0.500000 0.189587 0.303231
O O16 0.250000 0.203504 0.250000
#
# Coordination Sequence:
#
# PCOD8262088 Si02
#       6
#    16  16  16  16  16  16
#     4  10  20  32  47  70  98 124 153 194 241 284
#     4  10  20  33  49  69  94 125 159 193 233 282
#     4   9  16  29  49  69  90 120 156 191 230 278
#     4   9  17  29  45  67  94 123 153 185 224 270
#     4   8  15  28  47  69  92 120 154 190 228 273
#     4  10  19  31  49  72  98 126 156 192 233 277
#
# _framework density 16.635490000000001
#
# number of rings (size 3 to 8) (size 9 to 14) (size 15 to 20)
#    0.000    2.667    0.000    3.500    0.000    4.000 
#    0.000    3.333    0.000    1.000    0.000    4.667 
#    0.000    0.000    0.000    0.000    0.000    0.000 
#
# Total GULP energy -595189.948384 kJ/mol
# GULP energy per Si atom -12399.790591 kJ/mol
# Density = 1.659763 g / cm^3
# Si number density = 16.635490 Si / 1000 Ang^3
#
#
#
# Elastic Constant Matrix: (Units=GPa)
#
#
# Indices 1 2 3 4 5 6 
#
# 1 45.1128 26.0617 32.9487 0.0000 0.0000 0.0000
# 2 26.0617 95.9571 53.9496 0.0000 0.0000 0.0000
# 3 32.9487 53.9496 131.4799 0.0000 0.0000 0.0000
# 4 0.0000 0.0000 0.0000 22.6769 0.0000 0.0000
# 5 0.0000 0.0000 0.0000 0.0000 27.6451 0.0000
# 6 0.0000 0.0000 0.0000 0.0000 0.0000 25.5428
#
#
#
# Elastic Compliance Matrix: (Units=1/GPa)
#
#
# Indices 1 2 3 4 5 6 
#
# 1 0.028798 -0.004893 -0.005209 0.000000 0.000000 0.000000
# 2 -0.004893 0.014378 -0.004673 0.000000 0.000000 0.000000
# 3 -0.005209 -0.004673 0.010829 0.000000 0.000000 0.000000
# 4 0.000000 0.000000 0.000000 0.044098 0.000000 0.000000
# 5 0.000000 0.000000 0.000000 0.000000 0.036173 0.000000
# 6 0.000000 0.000000 0.000000 0.000000 0.000000 0.039150
#
#
# Mechanical properties :
#
#
# Convention : Reuss Voigt Hill
#
# Bulk Modulus (GPa) = 40.89355 55.38552 48.13954
# Shear Modulus (GPa) = 23.68251 25.81228 24.74740
#
# Velocity S-wave (km/s) = 3.77717 3.94336 3.86116
# Velocity P-wave (km/s) = 6.60744 7.35522 6.99133
#
# Compressibility (1/GPa) = 0.02445373
#
# Stress axis : x y z
#
# Youngs Moduli (GPa) = 34.72503 69.55213 92.34679
#
# Poissons Ratio (x) = 0.34030 0.48104
# Poissons Ratio (y) = 0.16990 0.43158
# Poissons Ratio (z) = 0.18088 0.32505
#
# Static dielectric constant tensor:
#      x y z
#    x 2.985240 0.000000 0.000000 
#    y 0.000000 3.065590 0.000000 
#    z 0.000000 0.000000 3.304450 
# 
# 
# High freq. dielectric constant tensor:
#      x y z
#    x 1.632980 0.000000 0.000000 
#    y 0.000000 1.630160 0.000000 
#    z 0.000000 0.000000 1.635510 
# 
# From -- ./inp_files/37065.got.cif
#   From: 2010.03.12/outbox.cif.g09.slc.cpg/sg64_19_cif.got.tgz:37065.got - 2010.04.10 20:19:32.
