data_PCOD8262999
_publ_section_title
;
Structure prediction by ZEFSAII (Michael W. Deem and Ramdas Pophale) SiO2 
 PCOD8262999
Probable space group: C M C A
;
_chemical_formula_sum "Si O2"
_cell_formula_units_Z 88
_cell_length_a 15.048055
_cell_length_b 15.675853
_cell_length_c 19.617430
_cell_angle_alpha 90.000000
_cell_angle_beta 90.000000
_cell_angle_gamma 90.000000
_cell_volume 4627.577105
_symmetry_space_group_name_H-M "C M C A"
_symmetry_group_IT_number 64
_symmetry_cell_setting 'orthorhombic'
loop_
_space_group_symop_operation_xyz
x,y,z
-x,1/2-y,1/2+z
x,-y,-z
-x,1/2+y,1/2-z
-x,-y,-z
x,1/2+y,1/2-z
-x,y,z
x,1/2-y,1/2+z
1/2+x,1/2+y,z
1/2-x,-y,1/2+z
1/2+x,1/2-y,-z
1/2-x,y,1/2-z
1/2-x,1/2-y,-z
1/2+x,y,1/2-z
1/2-x,1/2+y,z
1/2+x,-y,1/2+z
loop_
_atom_site_type_symbol
_atom_site_label
_atom_site_fract_x
_atom_site_fract_y
_atom_site_fract_z
Si Si1 0.401485 0.322146 0.106671
Si Si2 0.167410 0.361209 0.881602
Si Si3 0.398542 0.165433 0.758240
Si Si4 0.250000 0.200354 0.250000
Si Si5 0.399503 0.548705 0.617278
Si Si6 0.746582 0.905490 0.483681
O O1 0.500000 0.345571 0.080583
O O2 0.396750 0.220239 0.116420
O O3 0.382770 0.365634 0.180310
O O4 0.331113 0.354506 0.052665
O O5 0.225637 0.359988 0.813045
O O6 0.110072 0.447039 0.881758
O O7 0.232628 0.356773 0.946432
O O8 0.500000 0.198105 0.767175
O O9 0.332167 0.242148 0.775864
O O10 0.378265 0.086128 0.807924
O O11 0.500000 0.571042 0.595141
O O12 0.335061 0.591794 0.562285
O O13 0.711624 0.000000 0.500000
#
# Coordination Sequence:
#
# PCOD8262999 Si02
#       6
#    16  16  16   8  16  16
#     4  10  20  36  57  79 109 143 175 219 265 311
#     4  10  21  35  54  81 106 138 180 218 265 318
#     4   9  19  35  56  80 103 138 180 211 257 317
#     4  10  20  36  56  74 110 144 166 222 272 306
#     4  10  20  35  56  80 107 137 175 223 264 308
#     4  10  22  36  53  79 108 140 181 216 259 322
#
# _framework density 19.01643
#
# number of rings (size 3 to 8) (size 9 to 14) (size 15 to 20)
#    0.000    2.182    0.000    3.273    0.000    8.727 
#    0.000    2.727    0.000    1.091    0.000    0.000 
#    0.000    0.000    0.000    0.000    0.000    0.000 
#
# Total GULP energy -545635.225019 kJ/mol
# GULP energy per Si atom -12400.800569 kJ/mol
# Density = 1.897315 g / cm^3
# Si number density = 19.016430 Si / 1000 Ang^3
#
#
#
# Elastic Constant Matrix: (Units=GPa)
#
#
# Indices 1 2 3 4 5 6 
#
# 1 106.9679 33.6090 56.0943 0.0000 0.0000 0.0000
# 2 33.6090 57.5309 45.6111 0.0000 0.0000 0.0000
# 3 56.0943 45.6111 132.0420 0.0000 0.0000 0.0000
# 4 0.0000 0.0000 0.0000 37.6159 0.0000 0.0000
# 5 0.0000 0.0000 0.0000 0.0000 20.6492 0.0000
# 6 0.0000 0.0000 0.0000 0.0000 0.0000 21.2944
#
#
#
# Elastic Compliance Matrix: (Units=1/GPa)
#
#
# Indices 1 2 3 4 5 6 
#
# 1 0.012773 -0.004352 -0.003923 0.000000 0.000000 0.000000
# 2 -0.004352 0.025420 -0.006932 0.000000 0.000000 0.000000
# 3 -0.003923 -0.006932 0.011635 0.000000 0.000000 0.000000
# 4 0.000000 0.000000 0.000000 0.026585 0.000000 0.000000
# 5 0.000000 0.000000 0.000000 0.000000 0.048428 0.000000
# 6 0.000000 0.000000 0.000000 0.000000 0.000000 0.046961
#
#
# Mechanical properties :
#
#
# Convention : Reuss Voigt Hill
#
# Bulk Modulus (GPa) = 51.50953 63.01887 57.26420
# Shear Modulus (GPa) = 23.95944 26.66033 25.30988
#
# Velocity S-wave (km/s) = 3.55341 3.74834 3.65217
# Velocity P-wave (km/s) = 6.63184 7.20726 6.92552
#
# Compressibility (1/GPa) = 0.01941388
#
# Stress axis : x y z
#
# Youngs Moduli (GPa) = 78.28900 39.33908 85.95102
#
# Poissons Ratio (x) = 0.17119 0.33720
# Poissons Ratio (y) = 0.34069 0.59582
# Poissons Ratio (z) = 0.30714 0.27270
#
# Static dielectric constant tensor:
#      x y z
#    x 3.451880 0.000000 0.000000 
#    y 0.000000 3.333760 0.000000 
#    z 0.000000 0.000000 3.688530 
# 
# 
# High freq. dielectric constant tensor:
#      x y z
#    x 1.742230 0.000000 0.000000 
#    y 0.000000 1.724950 0.000000 
#    z 0.000000 0.000000 1.750660 
# 
# From -- ./inp_files/32172.got.cif
#   From: 2010.03.12/outbox.cif.g09.slc.cpg/sg64_17_cif.got.tgz:32172.got - 2010.04.10 20:19:32.
