data_PCOD8262380
_publ_section_title
;
Structure prediction by ZEFSAII (Michael W. Deem and Ramdas Pophale) SiO2 
 PCOD8262380
Probable space group: C M C A
;
_chemical_formula_sum "Si O2"
_cell_formula_units_Z 88
_cell_length_a 13.973279
_cell_length_b 19.212760
_cell_length_c 16.597803
_cell_angle_alpha 90.000000
_cell_angle_beta 90.000000
_cell_angle_gamma 90.000000
_cell_volume 4455.933429
_symmetry_space_group_name_H-M "C M C A"
_symmetry_group_IT_number 64
_symmetry_cell_setting 'orthorhombic'
loop_
_space_group_symop_operation_xyz
x,y,z
-x,1/2-y,1/2+z
x,-y,-z
-x,1/2+y,1/2-z
-x,-y,-z
x,1/2+y,1/2-z
-x,y,z
x,1/2-y,1/2+z
1/2+x,1/2+y,z
1/2-x,-y,1/2+z
1/2+x,1/2-y,-z
1/2-x,y,1/2-z
1/2-x,1/2-y,-z
1/2+x,y,1/2-z
1/2-x,1/2+y,z
1/2+x,-y,1/2+z
loop_
_atom_site_type_symbol
_atom_site_label
_atom_site_fract_x
_atom_site_fract_y
_atom_site_fract_z
Si Si1 0.500000 0.236687 0.169485
Si Si2 0.000000 0.437714 0.252566
Si Si3 0.345703 0.072545 0.034623
Si Si4 0.500000 0.367353 0.419186
Si Si5 0.838277 0.154935 0.810965
Si Si6 0.000000 0.726354 0.486110
Si Si7 0.500000 0.922170 0.831258
Si Si8 0.299220 0.323970 0.008456
O O1 0.404858 0.276407 0.199855
O O2 0.500000 0.233046 0.072059
O O3 0.500000 0.157108 0.202038
O O4 0.000000 0.397630 0.168730
O O5 0.096117 0.413919 0.299166
O O6 0.000000 0.521607 0.241376
O O7 0.405318 0.063185 0.116234
O O8 0.406357 0.108611 0.965140
O O9 0.254140 0.121415 0.049862
O O10 0.308819 0.000000 0.000000
O O11 0.500000 0.283403 0.415122
O O12 0.750000 0.158041 0.750000
O O13 0.793676 0.150687 0.899521
O O14 0.908104 0.677496 0.478088
O O15 0.250000 0.250000 0.000000
#
# Coordination Sequence:
#
# PCOD8262380 Si02
#       8
#     8   8  16   8  16   8   8  16
#     4   9  18  37  56  80 114 154 195 253 297 347
#     4  11  22  36  59  85 124 163 190 242 307 377
#     4  11  19  31  57  92 116 140 198 265 299 346
#     4  11  16  32  56  89 117 141 198 255 305 346
#     4  10  22  37  57  86 122 155 198 244 309 377
#     4  10  19  33  57  87 116 154 204 254 301 350
#     4  11  19  35  61  87 116 149 197 255 310 345
#     4  11  21  37  62  88 118 160 204 256 305 361
#
# _framework density 19.748949
#
# number of rings (size 3 to 8) (size 9 to 14) (size 15 to 20)
#    0.000    1.455    5.455    3.273    0.000    0.000 
#    0.000    1.364    4.000    0.000    0.000    0.000 
#    0.000    0.000    0.000    0.000    0.000    0.000 
#
# Total GULP energy -545624.271047 kJ/mol
# GULP energy per Si atom -12400.551615 kJ/mol
# Density = 1.970400 g / cm^3
# Si number density = 19.748949 Si / 1000 Ang^3
#
#
#
# Elastic Constant Matrix: (Units=GPa)
#
#
# Indices 1 2 3 4 5 6 
#
# 1 132.5544 55.6431 16.2710 0.0000 0.0000 0.0000
# 2 55.6431 145.1639 12.9095 0.0000 0.0000 0.0000
# 3 16.2710 12.9095 37.9614 0.0000 0.0000 0.0000
# 4 0.0000 0.0000 0.0000 29.8995 0.0000 0.0000
# 5 0.0000 0.0000 0.0000 0.0000 89.1425 0.0000
# 6 0.0000 0.0000 0.0000 0.0000 0.0000 32.4920
#
#
#
# Elastic Compliance Matrix: (Units=1/GPa)
#
#
# Indices 1 2 3 4 5 6 
#
# 1 0.009281 -0.003304 -0.002855 0.000000 0.000000 0.000000
# 2 -0.003304 0.008280 -0.001400 0.000000 0.000000 0.000000
# 3 -0.002855 -0.001400 0.028042 0.000000 0.000000 0.000000
# 4 0.000000 0.000000 0.000000 0.033445 0.000000 0.000000
# 5 0.000000 0.000000 0.000000 0.000000 0.011218 0.000000
# 6 0.000000 0.000000 0.000000 0.000000 0.000000 0.030777
#
#
# Mechanical properties :
#
#
# Convention : Reuss Voigt Hill
#
# Bulk Modulus (GPa) = 32.80087 53.92521 43.36304
# Shear Modulus (GPa) = 34.17134 45.69723 39.93428
#
# Velocity S-wave (km/s) = 4.16418 4.81553 4.50165
# Velocity P-wave (km/s) = 6.30599 7.63438 7.00176
#
# Compressibility (1/GPa) = 0.03048700
#
# Stress axis : x y z
#
# Youngs Moduli (GPa) = 107.74327 120.77867 35.66073
#
# Poissons Ratio (x) = 0.39903 0.10180
# Poissons Ratio (y) = 0.35596 0.04991
# Poissons Ratio (z) = 0.30757 0.16904
#
# Static dielectric constant tensor:
#      x y z
#    x 3.525790 0.000000 0.000000 
#    y 0.000000 3.649470 0.000000 
#    z 0.000000 0.000000 3.400440 
# 
# 
# High freq. dielectric constant tensor:
#      x y z
#    x 1.779480 0.000000 0.000000 
#    y 0.000000 1.765660 0.000000 
#    z 0.000000 0.000000 1.736890 
# 
# From -- ./inp_files/32223.got.cif
#   From: 2010.03.12/outbox.cif.g09.slc.cpg/sg64_17_cif.got.tgz:32223.got - 2010.04.10 20:19:32.
