data_PCOD8262277
_publ_section_title
;
Structure prediction by ZEFSAII (Michael W. Deem and Ramdas Pophale) SiO2 
 PCOD8262277
Probable space group: C M C A
;
_chemical_formula_sum "Si O2"
_cell_formula_units_Z 96
_cell_length_a 8.762496
_cell_length_b 27.998797
_cell_length_c 21.733411
_cell_angle_alpha 90.000000
_cell_angle_beta 90.000000
_cell_angle_gamma 90.000000
_cell_volume 5332.060857
_symmetry_space_group_name_H-M "C M C A"
_symmetry_group_IT_number 64
_symmetry_cell_setting 'orthorhombic'
loop_
_space_group_symop_operation_xyz
x,y,z
-x,1/2-y,1/2+z
x,-y,-z
-x,1/2+y,1/2-z
-x,-y,-z
x,1/2+y,1/2-z
-x,y,z
x,1/2-y,1/2+z
1/2+x,1/2+y,z
1/2-x,-y,1/2+z
1/2+x,1/2-y,-z
1/2-x,y,1/2-z
1/2-x,1/2-y,-z
1/2+x,y,1/2-z
1/2-x,1/2+y,z
1/2+x,-y,1/2+z
loop_
_atom_site_type_symbol
_atom_site_label
_atom_site_fract_x
_atom_site_fract_y
_atom_site_fract_z
Si Si1 0.180012 0.246372 0.186669
Si Si2 0.682811 0.285014 0.447113
Si Si3 0.676482 0.360737 0.809614
Si Si4 0.333866 0.514460 0.928878
Si Si5 0.174149 0.424376 0.906148
Si Si6 0.179165 0.112623 0.973581
O O1 0.250000 0.269368 0.250000
O O2 0.231030 0.270188 0.122195
O O3 0.242768 0.192407 0.180550
O O4 0.000000 0.249767 0.193429
O O5 0.500000 0.286536 0.454898
O O6 0.750000 0.250000 0.500000
O O7 0.758057 0.336788 0.452502
O O8 0.500000 0.356829 0.798812
O O9 0.750000 0.385084 0.750000
O O10 0.711629 0.393436 0.866568
O O11 0.500000 0.502888 0.900032
O O12 0.208323 0.480919 0.896072
O O13 0.301879 0.571417 0.921008
O O14 0.337443 0.500000 0.000000
O O15 0.000000 0.414376 0.888546
O O16 0.209664 0.406629 0.973967
O O17 0.000000 0.116624 0.993224
#
# Coordination Sequence:
#
# PCOD8262277 Si02
#       6
#    16  16  16  16  16  16
#     4   9  20  36  54  75 101 136 175 212 253 307
#     4  11  22  35  53  80 110 139 174 218 266 314
#     4  10  19  33  51  72 100 132 168 208 252 305
#     4   8  16  31  49  69  96 130 164 200 247 303
#     4  11  20  30  49  76 103 132 166 206 255 308
#     4  10  20  34  51  73 102 136 171 209 256 304
#
# _framework density 18.004296
#
# number of rings (size 3 to 8) (size 9 to 14) (size 15 to 20)
#    0.000    2.167    0.000    5.000    0.000    7.000 
#    0.000    0.000    0.000    1.000    0.000    2.333 
#    0.000    0.000    0.000    0.000    0.000    0.000 
#
# Total GULP energy -594675.705655 kJ/mol
# GULP energy per Si atom -12389.077201 kJ/mol
# Density = 1.796332 g / cm^3
# Si number density = 18.004296 Si / 1000 Ang^3
#
#
#
# Elastic Constant Matrix: (Units=GPa)
#
#
# Indices 1 2 3 4 5 6 
#
# 1 66.0298 38.1045 26.0047 0.0000 0.0000 0.0000
# 2 38.1045 125.5145 42.8060 0.0000 0.0000 0.0000
# 3 26.0047 42.8060 78.8060 0.0000 0.0000 0.0000
# 4 0.0000 0.0000 0.0000 7.2270 0.0000 0.0000
# 5 0.0000 0.0000 0.0000 0.0000 28.2136 0.0000
# 6 0.0000 0.0000 0.0000 0.0000 0.0000 22.3934
#
#
#
# Elastic Compliance Matrix: (Units=1/GPa)
#
#
# Indices 1 2 3 4 5 6 
#
# 1 0.019295 -0.004524 -0.003910 0.000000 0.000000 0.000000
# 2 -0.004524 0.010840 -0.004395 0.000000 0.000000 0.000000
# 3 -0.003910 -0.004395 0.016367 0.000000 0.000000 0.000000
# 4 0.000000 0.000000 0.000000 0.138370 0.000000 0.000000
# 5 0.000000 0.000000 0.000000 0.000000 0.035444 0.000000
# 6 0.000000 0.000000 0.000000 0.000000 0.000000 0.044656
#
#
# Mechanical properties :
#
#
# Convention : Reuss Voigt Hill
#
# Bulk Modulus (GPa) = 47.97572 53.79787 50.88679
# Shear Modulus (GPa) = 16.80238 22.46249 19.63243
#
# Velocity S-wave (km/s) = 3.05822 3.53600 3.30575
# Velocity P-wave (km/s) = 6.25899 6.82762 6.54948
#
# Compressibility (1/GPa) = 0.02084388
#
# Stress axis : x y z
#
# Youngs Moduli (GPa) = 51.82592 92.25407 61.09970
#
# Poissons Ratio (x) = 0.41740 0.23887
# Poissons Ratio (y) = 0.23449 0.26853
# Poissons Ratio (z) = 0.20261 0.40545
#
# Static dielectric constant tensor:
#      x y z
#    x 3.337860 0.000000 0.000000 
#    y 0.000000 3.643780 0.000000 
#    z 0.000000 0.000000 4.143650 
# 
# 
# High freq. dielectric constant tensor:
#      x y z
#    x 1.705460 0.000000 0.000000 
#    y 0.000000 1.698690 0.000000 
#    z 0.000000 0.000000 1.666260 
# 
# From -- ./inp_files/36936.got.cif
#   From: 2010.03.12/outbox.cif.g09.slc.cpg/sg64_19_cif.got.tgz:36936.got - 2010.04.10 20:19:32.
