data_PCOD8262841
_publ_section_title
;
Structure prediction by ZEFSAII (Michael W. Deem and Ramdas Pophale) SiO2 
 PCOD8262841
Probable space group: C M C A
;
_chemical_formula_sum "Si O2"
_cell_formula_units_Z 96
_cell_length_a 15.507832
_cell_length_b 26.226519
_cell_length_c 13.052356
_cell_angle_alpha 90.000000
_cell_angle_beta 90.000000
_cell_angle_gamma 90.000000
_cell_volume 5308.607904
_symmetry_space_group_name_H-M "C M C A"
_symmetry_group_IT_number 64
_symmetry_cell_setting 'orthorhombic'
loop_
_space_group_symop_operation_xyz
x,y,z
-x,1/2-y,1/2+z
x,-y,-z
-x,1/2+y,1/2-z
-x,-y,-z
x,1/2+y,1/2-z
-x,y,z
x,1/2-y,1/2+z
1/2+x,1/2+y,z
1/2-x,-y,1/2+z
1/2+x,1/2-y,-z
1/2-x,y,1/2-z
1/2-x,1/2-y,-z
1/2+x,y,1/2-z
1/2-x,1/2+y,z
1/2+x,-y,1/2+z
loop_
_atom_site_type_symbol
_atom_site_label
_atom_site_fract_x
_atom_site_fract_y
_atom_site_fract_z
Si Si1 0.599637 0.308569 0.498228
Si Si2 0.750125 0.056722 0.025285
Si Si3 0.402574 0.808769 0.474529
Si Si4 0.333158 0.870643 0.820058
Si Si5 0.748495 0.856778 0.130620
Si Si6 0.406312 0.900239 0.621038
O O1 0.500000 0.326533 0.484891
O O2 0.607285 0.248247 0.484776
O O3 0.634244 0.322917 0.612279
O O4 0.658663 0.332880 0.409412
O O5 0.761029 0.088060 0.920648
O O6 0.682305 0.083341 0.100691
O O7 0.841345 0.055658 0.085157
O O8 0.718834 0.000000 0.000000
O O9 0.500000 0.817536 0.431166
O O10 0.330004 0.819780 0.389966
O O11 0.382236 0.846179 0.569187
O O12 0.250000 0.856130 0.750000
O O13 0.406035 0.890518 0.742864
O O14 0.750000 0.866540 0.250000
O O15 0.500000 0.919415 0.587968
#
# Coordination Sequence:
#
# PCOD8262841 Si02
#       6
#    16  16  16  16  16  16
#     4  10  20  34  52  76 108 142 173 205 248 301
#     4   9  19  35  53  71  95 128 165 207 256 305
#     4   9  19  34  51  75 106 138 171 208 248 295
#     4   9  18  32  52  76 100 131 168 207 249 298
#     4  10  21  34  51  74 103 137 172 212 254 300
#     4   9  17  31  51  75 100 125 161 207 250 294
#
# _framework density 18.083838
#
# number of rings (size 3 to 8) (size 9 to 14) (size 15 to 20)
#    0.000    2.667    0.000    2.000    0.000    5.000 
#    0.000    3.333    0.000   16.500    0.000    0.000 
#    0.000    0.000    0.000    0.000    0.000    0.000 
#
# Total GULP energy -594975.757356 kJ/mol
# GULP energy per Si atom -12395.328278 kJ/mol
# Density = 1.804268 g / cm^3
# Si number density = 18.083838 Si / 1000 Ang^3
#
#
#
# Elastic Constant Matrix: (Units=GPa)
#
#
# Indices 1 2 3 4 5 6 
#
# 1 91.5273 26.8493 32.2103 0.0000 0.0000 0.0000
# 2 26.8493 73.4366 20.7432 0.0000 0.0000 0.0000
# 3 32.2103 20.7432 115.8714 0.0000 0.0000 0.0000
# 4 0.0000 0.0000 0.0000 12.6720 0.0000 0.0000
# 5 0.0000 0.0000 0.0000 0.0000 14.5713 0.0000
# 6 0.0000 0.0000 0.0000 0.0000 0.0000 17.9199
#
#
#
# Elastic Compliance Matrix: (Units=1/GPa)
#
#
# Indices 1 2 3 4 5 6 
#
# 1 0.013124 -0.003968 -0.002938 0.000000 0.000000 0.000000
# 2 -0.003968 0.015542 -0.001679 0.000000 0.000000 0.000000
# 3 -0.002938 -0.001679 0.009748 0.000000 0.000000 0.000000
# 4 0.000000 0.000000 0.000000 0.078914 0.000000 0.000000
# 5 0.000000 0.000000 0.000000 0.000000 0.068628 0.000000
# 6 0.000000 0.000000 0.000000 0.000000 0.000000 0.055804
#
#
# Mechanical properties :
#
#
# Convention : Reuss Voigt Hill
#
# Bulk Modulus (GPa) = 47.07462 48.93787 48.00625
# Shear Modulus (GPa) = 18.79621 22.43482 20.61551
#
# Velocity S-wave (km/s) = 3.22746 3.52604 3.38005
# Velocity P-wave (km/s) = 6.32270 6.61042 6.46816
#
# Compressibility (1/GPa) = 0.02124287
#
# Stress axis : x y z
#
# Youngs Moduli (GPa) = 76.19823 64.34019 102.59028
#
# Poissons Ratio (x) = 0.25533 0.30138
# Poissons Ratio (y) = 0.30238 0.17227
# Poissons Ratio (z) = 0.22385 0.10804
#
# Static dielectric constant tensor:
#      x y z
#    x 3.573710 0.000000 0.000000 
#    y 0.000000 3.066280 0.000000 
#    z 0.000000 0.000000 3.293040 
# 
# 
# High freq. dielectric constant tensor:
#      x y z
#    x 1.710440 0.000000 0.000000 
#    y 0.000000 1.678140 0.000000 
#    z 0.000000 0.000000 1.695080 
# 
# From -- ./inp_files/16226.got.cif
#   From: 2010.03.12/outbox.cif.g09.slc.cpg/sg64_9_cif.got.tgz:16226.got - 2010.04.10 20:19:32.
