data_PCOD8262435
_publ_section_title
;
Structure prediction by ZEFSAII (Michael W. Deem and Ramdas Pophale) SiO2 
 PCOD8262435
Probable space group: C M C A
;
_chemical_formula_sum "Si O2"
_cell_formula_units_Z 88
_cell_length_a 10.615775
_cell_length_b 13.682965
_cell_length_c 33.563057
_cell_angle_alpha 90.000000
_cell_angle_beta 90.000000
_cell_angle_gamma 90.000000
_cell_volume 4875.211167
_symmetry_space_group_name_H-M "C M C A"
_symmetry_group_IT_number 64
_symmetry_cell_setting 'orthorhombic'
loop_
_space_group_symop_operation_xyz
x,y,z
-x,1/2-y,1/2+z
x,-y,-z
-x,1/2+y,1/2-z
-x,-y,-z
x,1/2+y,1/2-z
-x,y,z
x,1/2-y,1/2+z
1/2+x,1/2+y,z
1/2-x,-y,1/2+z
1/2+x,1/2-y,-z
1/2-x,y,1/2-z
1/2-x,1/2-y,-z
1/2+x,y,1/2-z
1/2-x,1/2+y,z
1/2+x,-y,1/2+z
loop_
_atom_site_type_symbol
_atom_site_label
_atom_site_fract_x
_atom_site_fract_y
_atom_site_fract_z
Si Si1 0.857864 0.470196 0.958575
Si Si2 0.500000 0.619544 0.205908
Si Si3 0.753346 0.068644 0.160471
Si Si4 0.000000 0.968382 0.706872
Si Si5 0.000000 0.330495 0.170582
Si Si6 0.288390 0.611033 0.609992
Si Si7 0.349940 0.799900 0.903638
O O1 0.857176 0.558713 0.926937
O O2 0.804252 0.368327 0.940533
O O3 0.000000 0.446157 0.970003
O O4 0.786608 0.500000 0.000000
O O5 0.373923 0.575766 0.187925
O O6 0.500000 0.585381 0.251171
O O7 0.500000 0.735024 0.198134
O O8 0.625796 0.063891 0.185133
O O9 0.731859 0.163868 0.133739
O O10 0.782981 0.973042 0.134273
O O11 0.000000 0.086408 0.704963
O O12 0.882140 0.335759 0.140629
O O13 0.188815 0.687142 0.590823
O O14 0.500000 0.810506 0.896469
#
# Coordination Sequence:
#
# PCOD8262435 Si02
#       7
#    16   8  16   8   8  16  16
#     4   9  18  33  55  83 112 146 188 227 275 335
#     4  12  22  38  58  87 107 140 187 244 279 325
#     4  10  21  37  57  80 111 145 186 228 275 335
#     4  10  22  42  54  75 117 148 175 225 287 337
#     4  10  20  38  59  80 104 146 188 217 274 342
#     4  10  19  35  58  80 110 146 183 229 272 330
#     4  10  19  34  56  81 109 150 185 225 278 332
#
# _framework density 18.050501000000001
#
# number of rings (size 3 to 8) (size 9 to 14) (size 15 to 20)
#    0.000    2.000    3.636    0.545    1.273    0.727 
#    3.273    1.818    0.000    0.545    0.000    0.000 
#    0.000    0.000    0.000    0.000    0.000    0.000 
#
# Total GULP energy -545096.824989 kJ/mol
# GULP energy per Si atom -12388.564204 kJ/mol
# Density = 1.800942 g / cm^3
# Si number density = 18.050501 Si / 1000 Ang^3
#
#
#
# Elastic Constant Matrix: (Units=GPa)
#
#
# Indices 1 2 3 4 5 6 
#
# 1 64.0175 24.9749 13.9647 0.0000 0.0000 0.0000
# 2 24.9749 107.3653 45.4367 0.0000 0.0000 0.0000
# 3 13.9647 45.4367 104.1949 0.0000 0.0000 0.0000
# 4 0.0000 0.0000 0.0000 19.9723 0.0000 0.0000
# 5 0.0000 0.0000 0.0000 0.0000 -84.0861 0.0000
# 6 0.0000 0.0000 0.0000 0.0000 0.0000 30.3721
#
#
#
# Elastic Compliance Matrix: (Units=1/GPa)
#
#
# Indices 1 2 3 4 5 6 
#
# 1 0.017220 -0.003714 -0.000688 0.000000 0.000000 0.000000
# 2 -0.003714 0.012223 -0.004832 0.000000 0.000000 0.000000
# 3 -0.000688 -0.004832 0.011797 0.000000 0.000000 0.000000
# 4 0.000000 0.000000 0.000000 0.050069 0.000000 0.000000
# 5 0.000000 0.000000 0.000000 0.000000 -0.011893 0.000000
# 6 0.000000 0.000000 0.000000 0.000000 0.000000 0.032925
#
#
# Mechanical properties :
#
#
# Convention : Reuss Voigt Hill
#
# Bulk Modulus (GPa) = 43.91726 49.37005 46.64365
# Shear Modulus (GPa) = 36.12677 5.99841 21.06259
#
# Velocity S-wave (km/s) = 4.47859 1.82492 3.41965
# Velocity P-wave (km/s) = 7.15029 5.64366 6.44118
#
# Compressibility (1/GPa) = 0.02277009
#
# Stress axis : x y z
#
# Youngs Moduli (GPa) = 58.07222 81.81258 84.76810
#
# Poissons Ratio (x) = 0.30389 0.05833
# Poissons Ratio (y) = 0.21570 0.40963
# Poissons Ratio (z) = 0.03996 0.39535
#
# Static dielectric constant tensor:
#      x y z
#    x 3.132850 0.000000 0.000000 
#    y 0.000000 3.393800 0.000000 
#    z 0.000000 0.000000 3.425050 
# 
# 
# High freq. dielectric constant tensor:
#      x y z
#    x 1.684090 0.000000 0.000000 
#    y 0.000000 1.707000 0.000000 
#    z 0.000000 0.000000 1.695580 
# 
# From -- ./inp_files/52683.got.cif
#   From: 2010.03.12/outbox.cif.g09.slc.cpg/sg64_27_cif.got.tgz:52683.got - 2010.04.10 20:19:32.
