data_PCOD8262158
_publ_section_title
;
Structure prediction by ZEFSAII (Michael W. Deem and Ramdas Pophale) SiO2 
 PCOD8262158
Probable space group: C M C A
;
_chemical_formula_sum "Si O2"
_cell_formula_units_Z 128
_cell_length_a 17.977099
_cell_length_b 26.188736
_cell_length_c 16.794592
_cell_angle_alpha 90.000000
_cell_angle_beta 90.000000
_cell_angle_gamma 90.000000
_cell_volume 7906.851923
_symmetry_space_group_name_H-M "C M C A"
_symmetry_group_IT_number 64
_symmetry_cell_setting 'orthorhombic'
loop_
_space_group_symop_operation_xyz
x,y,z
-x,1/2-y,1/2+z
x,-y,-z
-x,1/2+y,1/2-z
-x,-y,-z
x,1/2+y,1/2-z
-x,y,z
x,1/2-y,1/2+z
1/2+x,1/2+y,z
1/2-x,-y,1/2+z
1/2+x,1/2-y,-z
1/2-x,y,1/2-z
1/2-x,1/2-y,-z
1/2+x,y,1/2-z
1/2-x,1/2+y,z
1/2+x,-y,1/2+z
loop_
_atom_site_type_symbol
_atom_site_label
_atom_site_fract_x
_atom_site_fract_y
_atom_site_fract_z
Si Si1 0.917624 0.197781 0.152755
Si Si2 0.652584 0.121341 0.459695
Si Si3 0.826258 0.264501 0.788365
Si Si4 0.582705 0.522686 0.087013
Si Si5 0.415002 0.307959 0.418931
Si Si6 0.412767 0.585597 0.877302
Si Si7 0.286433 0.199003 0.038140
Si Si8 0.086374 0.333593 0.252232
O O1 0.907230 0.154933 0.086756
O O2 0.862956 0.193660 0.228779
O O3 0.903425 0.249899 0.106244
O O4 0.000000 0.194761 0.187951
O O5 0.646358 0.066696 0.413021
O O6 0.630869 0.112885 0.551048
O O7 0.731437 0.150323 0.456753
O O8 0.750000 0.245974 0.750000
O O9 0.814930 0.289301 0.873934
O O10 0.875536 0.214021 0.795894
O O11 0.500000 0.542615 0.114393
O O12 0.609464 0.473700 0.138933
O O13 0.573258 0.500000 0.000000
O O14 0.500000 0.318647 0.447140
O O15 0.357642 0.320628 0.488925
O O16 0.393319 0.341147 0.340813
O O17 0.500000 0.589624 0.897539
O O18 0.390984 0.614645 0.796648
O O19 0.250000 0.250000 0.000000
O O20 0.000000 0.320988 0.259649
#
# Coordination Sequence:
#
# PCOD8262158 Si02
#       8
#    16  16  16  16  16  16  16  16
#     4  10  19  32  48  68  96 133 170 202 242 289
#     4  11  18  29  47  73 102 133 161 200 248 302
#     4  11  20  33  44  66 100 134 167 201 242 289
#     4   8  15  28  46  73 103 124 156 206 255 302
#     4   9  19  33  46  67 102 134 170 210 239 288
#     4   9  17  29  49  77 102 128 162 203 257 311
#     4  12  21  32  47  73  99 135 174 202 245 295
#     4   9  18  32  49  69  97 134 167 205 251 290
#
# _framework density 16.188490999999999
#
# number of rings (size 3 to 8) (size 9 to 14) (size 15 to 20)
#    0.000    2.125    2.500    4.500    0.000    1.000 
#    0.000    0.000    0.000    0.000   22.750    0.000 
#    0.000    4.500    0.000    0.500    0.000    0.000 
#
# Total GULP energy -793024.815114 kJ/mol
# GULP energy per Si atom -12391.012736 kJ/mol
# Density = 1.615165 g / cm^3
# Si number density = 16.188491 Si / 1000 Ang^3
#
#
#
# Elastic Constant Matrix: (Units=GPa)
#
#
# Indices 1 2 3 4 5 6 
#
# 1 83.5210 48.6043 48.7691 0.0000 0.0000 0.0000
# 2 48.6043 95.8220 50.0691 0.0000 0.0000 0.0000
# 3 48.7691 50.0691 90.2175 0.0000 0.0000 0.0000
# 4 0.0000 0.0000 0.0000 21.9401 0.0000 0.0000
# 5 0.0000 0.0000 0.0000 0.0000 29.1392 0.0000
# 6 0.0000 0.0000 0.0000 0.0000 0.0000 18.7071
#
#
#
# Elastic Compliance Matrix: (Units=1/GPa)
#
#
# Indices 1 2 3 4 5 6 
#
# 1 0.019865 -0.006289 -0.007248 0.000000 0.000000 0.000000
# 2 -0.006289 0.016689 -0.005863 0.000000 0.000000 0.000000
# 3 -0.007248 -0.005863 0.018256 0.000000 0.000000 0.000000
# 4 0.000000 0.000000 0.000000 0.045579 0.000000 0.000000
# 5 0.000000 0.000000 0.000000 0.000000 0.034318 0.000000
# 6 0.000000 0.000000 0.000000 0.000000 0.000000 0.053456
#
#
# Mechanical properties :
#
#
# Convention : Reuss Voigt Hill
#
# Bulk Modulus (GPa) = 62.45728 62.71617 62.58672
# Shear Modulus (GPa) = 21.52389 22.09849 21.81119
#
# Velocity S-wave (km/s) = 3.65030 3.69870 3.67458
# Velocity P-wave (km/s) = 7.51207 7.55419 7.53316
#
# Compressibility (1/GPa) = 0.01601094
#
# Stress axis : x y z
#
# Youngs Moduli (GPa) = 50.33917 59.91832 54.77572
#
# Poissons Ratio (x) = 0.37682 0.39703
# Poissons Ratio (y) = 0.31658 0.32113
# Poissons Ratio (z) = 0.36488 0.35128
#
# Static dielectric constant tensor:
#      x y z
#    x 3.119800 0.000000 0.000000 
#    y 0.000000 3.639320 0.000000 
#    z 0.000000 0.000000 3.181680 
# 
# 
# High freq. dielectric constant tensor:
#      x y z
#    x 1.618310 0.000000 0.000000 
#    y 0.000000 1.602830 0.000000 
#    z 0.000000 0.000000 1.613000 
# 
# From -- ./inp_files/33768.got.cif
#   From: 2010.03.12/outbox.cif.g09.slc.cpg/sg64_17_cif.got.tgz:33768.got - 2010.04.10 20:19:32.
