data_PCOD8262921
_publ_section_title
;
Structure prediction by ZEFSAII (Michael W. Deem and Ramdas Pophale) SiO2 
 PCOD8262921
Probable space group: C M C A
;
_chemical_formula_sum "Si O2"
_cell_formula_units_Z 104
_cell_length_a 14.793867
_cell_length_b 18.541668
_cell_length_c 20.644795
_cell_angle_alpha 90.000000
_cell_angle_beta 90.000000
_cell_angle_gamma 90.000000
_cell_volume 5662.928591
_symmetry_space_group_name_H-M "C M C A"
_symmetry_group_IT_number 64
_symmetry_cell_setting 'orthorhombic'
loop_
_space_group_symop_operation_xyz
x,y,z
-x,1/2-y,1/2+z
x,-y,-z
-x,1/2+y,1/2-z
-x,-y,-z
x,1/2+y,1/2-z
-x,y,z
x,1/2-y,1/2+z
1/2+x,1/2+y,z
1/2-x,-y,1/2+z
1/2+x,1/2-y,-z
1/2-x,y,1/2-z
1/2-x,1/2-y,-z
1/2+x,y,1/2-z
1/2-x,1/2+y,z
1/2+x,-y,1/2+z
loop_
_atom_site_type_symbol
_atom_site_label
_atom_site_fract_x
_atom_site_fract_y
_atom_site_fract_z
Si Si1 0.215029 0.115590 0.360222
Si Si2 0.347370 0.758718 0.777037
Si Si3 0.898811 0.417287 0.984679
Si Si4 0.895098 0.342202 0.111119
Si Si5 0.603354 0.893003 0.250820
Si Si6 0.099815 0.683665 0.354464
Si Si7 0.250000 0.995231 0.750000
O O1 0.163840 0.189170 0.338817
O O2 0.168235 0.090751 0.425149
O O3 0.322240 0.127044 0.372489
O O4 0.206274 0.054343 0.305673
O O5 0.250000 0.739945 0.750000
O O6 0.392343 0.681092 0.793576
O O7 0.404574 0.800593 0.722464
O O8 0.000000 0.386770 0.968972
O O9 0.907742 0.500000 0.000000
O O10 0.852927 0.377674 0.046631
O O11 0.858365 0.375743 0.178315
O O12 0.876605 0.257185 0.107723
O O13 0.000000 0.360375 0.110824
O O14 0.500000 0.920756 0.251333
O O15 0.668457 0.955448 0.278593
O O16 0.000000 0.654547 0.374692
#
# Coordination Sequence:
#
# PCOD8262921 Si02
#       7
#    16  16  16  16  16  16   8
#     4  11  22  35  54  84 113 149 188 232 279 327
#     4   9  16  34  53  80 112 141 181 230 276 325
#     4  10  21  37  55  80 112 141 181 237 289 334
#     4   8  16  33  56  79 100 137 186 225 274 328
#     4  10  20  34  57  81 110 149 181 228 284 332
#     4   9  17  32  55  78 108 142 183 226 270 332
#     4  12  22  34  48  80 118 146 184 222 272 350
#
# _framework density 18.365055999999999
#
# number of rings (size 3 to 8) (size 9 to 14) (size 15 to 20)
#    0.000    2.308    3.077    2.308    0.000    4.308 
#    0.000    0.000    0.000    0.462    0.000    0.000 
#    0.000    0.000    0.000    0.000    0.000    0.000 
#
# Total GULP energy -644471.529983 kJ/mol
# GULP energy per Si atom -12393.683269 kJ/mol
# Density = 1.832326 g / cm^3
# Si number density = 18.365056 Si / 1000 Ang^3
#
#
#
# Elastic Constant Matrix: (Units=GPa)
#
#
# Indices 1 2 3 4 5 6 
#
# 1 82.7612 38.0853 18.2808 0.0000 0.0000 0.0000
# 2 38.0853 77.4736 30.4654 0.0000 0.0000 0.0000
# 3 18.2808 30.4654 71.9685 0.0000 0.0000 0.0000
# 4 0.0000 0.0000 0.0000 21.6787 0.0000 0.0000
# 5 0.0000 0.0000 0.0000 0.0000 19.5098 0.0000
# 6 0.0000 0.0000 0.0000 0.0000 0.0000 -63.1514
#
#
#
# Elastic Compliance Matrix: (Units=1/GPa)
#
#
# Indices 1 2 3 4 5 6 
#
# 1 0.015660 -0.007359 -0.000863 0.000000 0.000000 0.000000
# 2 -0.007359 0.018944 -0.006150 0.000000 0.000000 0.000000
# 3 -0.000863 -0.006150 0.016717 0.000000 0.000000 0.000000
# 4 0.000000 0.000000 0.000000 0.046128 0.000000 0.000000
# 5 0.000000 0.000000 0.000000 0.000000 0.051256 0.000000
# 6 0.000000 0.000000 0.000000 0.000000 0.000000 -0.015835
#
#
# Mechanical properties :
#
#
# Convention : Reuss Voigt Hill
#
# Bulk Modulus (GPa) = 44.29098 45.09625 44.69361
# Shear Modulus (GPa) = 29.56138 5.29888 17.43013
#
# Velocity S-wave (km/s) = 4.01640 1.70046 3.08408
# Velocity P-wave (km/s) = 6.75855 5.33518 6.08860
#
# Compressibility (1/GPa) = 0.02257796
#
# Stress axis : x y z
#
# Youngs Moduli (GPa) = 63.85681 52.78816 59.81792
#
# Poissons Ratio (x) = 0.38847 0.05160
# Poissons Ratio (y) = 0.46993 0.36787
# Poissons Ratio (z) = 0.05508 0.32464
#
# Static dielectric constant tensor:
#      x y z
#    x 3.543390 0.000000 0.000000 
#    y 0.000000 3.391860 0.000000 
#    z 0.000000 0.000000 3.362920 
# 
# 
# High freq. dielectric constant tensor:
#      x y z
#    x 1.708880 0.000000 0.000000 
#    y 0.000000 1.709830 0.000000 
#    z 0.000000 0.000000 1.671690 
# 
# From -- ./inp_files/39467.got.cif
#   From: 2010.03.12/outbox.cif.g09.slc.cpg/sg64_20_cif.got.tgz:39467.got - 2010.04.10 20:19:32.
