data_PCOD8262534
_publ_section_title
;
Structure prediction by ZEFSAII (Michael W. Deem and Ramdas Pophale) SiO2 
 PCOD8262534
Probable space group: C M C A
;
_chemical_formula_sum "Si O2"
_cell_formula_units_Z 96
_cell_length_a 23.114884
_cell_length_b 23.257160
_cell_length_c 8.532409
_cell_angle_alpha 90.000000
_cell_angle_beta 90.000000
_cell_angle_gamma 90.000000
_cell_volume 4586.908365
_symmetry_space_group_name_H-M "C M C A"
_symmetry_group_IT_number 64
_symmetry_cell_setting 'orthorhombic'
loop_
_space_group_symop_operation_xyz
x,y,z
-x,1/2-y,1/2+z
x,-y,-z
-x,1/2+y,1/2-z
-x,-y,-z
x,1/2+y,1/2-z
-x,y,z
x,1/2-y,1/2+z
1/2+x,1/2+y,z
1/2-x,-y,1/2+z
1/2+x,1/2-y,-z
1/2-x,y,1/2-z
1/2-x,1/2-y,-z
1/2+x,y,1/2-z
1/2-x,1/2+y,z
1/2+x,-y,1/2+z
loop_
_atom_site_type_symbol
_atom_site_label
_atom_site_fract_x
_atom_site_fract_y
_atom_site_fract_z
Si Si1 0.065589 0.356935 0.514084
Si Si2 0.564614 0.075188 0.182560
Si Si3 0.707945 0.180900 0.965516
Si Si4 0.605534 0.966714 0.352690
Si Si5 0.330919 0.715411 0.876126
Si Si6 0.664720 0.560970 0.554490
O O1 0.082747 0.375830 0.691061
O O2 0.066219 0.413834 0.407180
O O3 0.109875 0.309175 0.449352
O O4 0.000000 0.332015 0.508928
O O5 0.500000 0.087269 0.123741
O O6 0.566221 0.011810 0.258664
O O7 0.604462 0.076010 0.030261
O O8 0.676328 0.198599 0.803849
O O9 0.775953 0.193503 0.975717
O O10 0.707372 0.112405 0.989446
O O11 0.672276 0.215039 0.100925
O O12 0.656188 0.941831 0.241886
O O13 0.634631 0.000000 0.500000
O O14 0.691201 0.500000 0.500000
#
# Coordination Sequence:
#
# PCOD8262534 Si02
#       6
#    16  16  16  16  16  16
#     4  10  19  35  58  87 119 155 199 251 303 352
#     4   9  19  32  52  84 125 164 202 242 295 366
#     4  10  22  42  65  87 115 161 205 244 298 359
#     4   9  17  32  55  83 118 165 202 239 296 366
#     4  10  22  41  66  85 116 157 204 247 294 367
#     4  10  20  36  59  89 125 154 201 255 304 353
#
# _framework density 20.929129
#
# number of rings (size 3 to 8) (size 9 to 14) (size 15 to 20)
#    0.000    2.333    1.667    0.500    2.333    5.667 
#    0.000    4.167    0.000    0.000    0.000    0.000 
#    0.000    0.000    0.000    0.000    0.000    0.000 
#
# Total GULP energy -594888.799499 kJ/mol
# GULP energy per Si atom -12393.516656 kJ/mol
# Density = 2.088149 g / cm^3
# Si number density = 20.929129 Si / 1000 Ang^3
#
#
#
# Elastic Constant Matrix: (Units=GPa)
#
#
# Indices 1 2 3 4 5 6 
#
# 1 76.4302 41.6985 15.9021 0.0000 0.0000 0.0000
# 2 41.6985 109.1332 22.7507 0.0000 0.0000 0.0000
# 3 15.9021 22.7507 67.9089 0.0000 0.0000 0.0000
# 4 0.0000 0.0000 0.0000 24.7369 0.0000 0.0000
# 5 0.0000 0.0000 0.0000 0.0000 21.0593 0.0000
# 6 0.0000 0.0000 0.0000 0.0000 0.0000 23.7218
#
#
#
# Elastic Compliance Matrix: (Units=1/GPa)
#
#
# Indices 1 2 3 4 5 6 
#
# 1 0.016757 -0.006004 -0.001913 0.000000 0.000000 0.000000
# 2 -0.006004 0.012002 -0.002615 0.000000 0.000000 0.000000
# 3 -0.001913 -0.002615 0.016050 0.000000 0.000000 0.000000
# 4 0.000000 0.000000 0.000000 0.040426 0.000000 0.000000
# 5 0.000000 0.000000 0.000000 0.000000 0.047485 0.000000
# 6 0.000000 0.000000 0.000000 0.000000 0.000000 0.042155
#
#
# Mechanical properties :
#
#
# Convention : Reuss Voigt Hill
#
# Bulk Modulus (GPa) = 42.11246 46.01944 44.06595
# Shear Modulus (GPa) = 24.52735 25.44498 24.98616
#
# Velocity S-wave (km/s) = 3.42705 3.49057 3.45896
# Velocity P-wave (km/s) = 5.98538 6.18720 6.08712
#
# Compressibility (1/GPa) = 0.02374594
#
# Stress axis : x y z
#
# Youngs Moduli (GPa) = 59.67483 83.31686 62.30697
#
# Poissons Ratio (x) = 0.50025 0.11917
# Poissons Ratio (y) = 0.35830 0.16294
# Poissons Ratio (z) = 0.11413 0.21788
#
# Static dielectric constant tensor:
#      x y z
#    x 3.413680 0.000000 0.000000 
#    y 0.000000 3.877550 0.000000 
#    z 0.000000 0.000000 3.886900 
# 
# 
# High freq. dielectric constant tensor:
#      x y z
#    x 1.788990 0.000000 0.000000 
#    y 0.000000 1.817320 0.000000 
#    z 0.000000 0.000000 1.821080 
# 
# From -- ./inp_files/9475.got.cif
#   From: 2010.03.12/outbox.cif.g09.slc.cpg/sg64_5_cif.got.tgz:9475.got - 2010.04.10 20:19:32.
