data_PCOD8262071
_publ_section_title
;
Structure prediction by ZEFSAII (Michael W. Deem and Ramdas Pophale) SiO2 
 PCOD8262071
Probable space group: C M C A
;
_chemical_formula_sum "Si O2"
_cell_formula_units_Z 96
_cell_length_a 8.704860
_cell_length_b 27.158486
_cell_length_c 23.870917
_cell_angle_alpha 90.000000
_cell_angle_beta 90.000000
_cell_angle_gamma 90.000000
_cell_volume 5643.343025
_symmetry_space_group_name_H-M "C M C A"
_symmetry_group_IT_number 64
_symmetry_cell_setting 'orthorhombic'
loop_
_space_group_symop_operation_xyz
x,y,z
-x,1/2-y,1/2+z
x,-y,-z
-x,1/2+y,1/2-z
-x,-y,-z
x,1/2+y,1/2-z
-x,y,z
x,1/2-y,1/2+z
1/2+x,1/2+y,z
1/2-x,-y,1/2+z
1/2+x,1/2-y,-z
1/2-x,y,1/2-z
1/2-x,1/2-y,-z
1/2+x,y,1/2-z
1/2-x,1/2+y,z
1/2+x,-y,1/2+z
loop_
_atom_site_type_symbol
_atom_site_label
_atom_site_fract_x
_atom_site_fract_y
_atom_site_fract_z
Si Si1 0.819166 0.572998 0.692016
Si Si2 0.822423 0.226981 0.578573
Si Si3 0.680908 0.017508 0.581038
Si Si4 0.679438 0.321421 0.307265
Si Si5 0.180343 0.928945 0.521694
Si Si6 0.177760 0.826769 0.978640
O O1 0.750000 0.552360 0.750000
O O2 0.773875 0.535379 0.642931
O O3 0.751904 0.626238 0.677230
O O4 0.000000 0.578341 0.698283
O O5 0.784079 0.217106 0.643392
O O6 0.783064 0.283744 0.565700
O O7 0.720017 0.190936 0.540964
O O8 0.000000 0.215653 0.564619
O O9 0.500000 0.010096 0.574221
O O10 0.735750 0.058067 0.536379
O O11 0.765139 0.965710 0.570635
O O12 0.500000 0.329363 0.298591
O O13 0.750000 0.299758 0.250000
O O14 0.222815 0.873712 0.539479
O O15 0.000000 0.934385 0.512875
O O16 0.000000 0.841412 0.977499
#
# Coordination Sequence:
#
# PCOD8262071 Si02
#       6
#    16  16  16  16  16  16
#     4  10  20  32  49  72  97 126 158 193 235 282
#     4   9  19  33  49  71  97 126 159 196 238 281
#     4  10  20  34  51  72  97 127 161 196 238 284
#     4  10  19  31  48  70  97 126 157 193 233 279
#     4  11  21  32  49  73  99 128 160 196 239 284
#     4  10  19  32  50  71  97 127 159 196 238 285
#
# _framework density 17.011192999999999
#
# number of rings (size 3 to 8) (size 9 to 14) (size 15 to 20)
#    0.000    2.000    0.000    6.500    0.000    7.333 
#    0.000    0.000    0.000    1.000    0.000    2.333 
#    0.000    0.000    0.000    0.000    0.000    0.000 
#
# Total GULP energy -595324.050454 kJ/mol
# GULP energy per Si atom -12402.584384 kJ/mol
# Density = 1.697248 g / cm^3
# Si number density = 17.011193 Si / 1000 Ang^3
#
#
#
# Elastic Constant Matrix: (Units=GPa)
#
#
# Indices 1 2 3 4 5 6 
#
# 1 55.9347 30.3008 35.0440 0.0000 0.0000 0.0000
# 2 30.3008 103.4033 59.8360 0.0000 0.0000 0.0000
# 3 35.0440 59.8360 127.5747 0.0000 0.0000 0.0000
# 4 0.0000 0.0000 0.0000 24.7637 0.0000 0.0000
# 5 0.0000 0.0000 0.0000 0.0000 24.9963 0.0000
# 6 0.0000 0.0000 0.0000 0.0000 0.0000 26.8392
#
#
#
# Elastic Compliance Matrix: (Units=1/GPa)
#
#
# Indices 1 2 3 4 5 6 
#
# 1 0.022854 -0.004206 -0.004305 0.000000 0.000000 0.000000
# 2 -0.004206 0.014047 -0.005433 0.000000 0.000000 0.000000
# 3 -0.004305 -0.005433 0.011570 0.000000 0.000000 0.000000
# 4 0.000000 0.000000 0.000000 0.040382 0.000000 0.000000
# 5 0.000000 0.000000 0.000000 0.000000 0.040006 0.000000
# 6 0.000000 0.000000 0.000000 0.000000 0.000000 0.037259
#
#
# Mechanical properties :
#
#
# Convention : Reuss Voigt Hill
#
# Bulk Modulus (GPa) = 48.58580 59.69714 54.14147
# Shear Modulus (GPa) = 24.89221 26.10195 25.49708
#
# Velocity S-wave (km/s) = 3.82944 3.92139 3.87569
# Velocity P-wave (km/s) = 6.94089 7.46137 7.20583
#
# Compressibility (1/GPa) = 0.02058215
#
# Stress axis : x y z
#
# Youngs Moduli (GPa) = 43.75696 71.18779 86.43390
#
# Poissons Ratio (x) = 0.29939 0.37211
# Poissons Ratio (y) = 0.18402 0.46962
# Poissons Ratio (z) = 0.18838 0.38679
#
# Static dielectric constant tensor:
#      x y z
#    x 3.305820 0.000000 0.000000 
#    y 0.000000 3.123890 0.000000 
#    z 0.000000 0.000000 3.212840 
# 
# 
# High freq. dielectric constant tensor:
#      x y z
#    x 1.674120 0.000000 0.000000 
#    y 0.000000 1.644530 0.000000 
#    z 0.000000 0.000000 1.646460 
# 
# From -- ./inp_files/43222.got.cif
#   From: 2010.03.12/outbox.cif.g09.slc.cpg/sg64_22_cif.got.tgz:43222.got - 2010.04.10 20:19:32.
