data_PCOD8262723
_publ_section_title
;
Structure prediction by ZEFSAII (Michael W. Deem and Ramdas Pophale) SiO2 
 PCOD8262723
Probable space group: C M C A
;
_chemical_formula_sum "Si O2"
_cell_formula_units_Z 80
_cell_length_a 9.102735
_cell_length_b 25.656533
_cell_length_c 20.182393
_cell_angle_alpha 90.000000
_cell_angle_beta 90.000000
_cell_angle_gamma 90.000000
_cell_volume 4713.489322
_symmetry_space_group_name_H-M "C M C A"
_symmetry_group_IT_number 64
_symmetry_cell_setting 'orthorhombic'
loop_
_space_group_symop_operation_xyz
x,y,z
-x,1/2-y,1/2+z
x,-y,-z
-x,1/2+y,1/2-z
-x,-y,-z
x,1/2+y,1/2-z
-x,y,z
x,1/2-y,1/2+z
1/2+x,1/2+y,z
1/2-x,-y,1/2+z
1/2+x,1/2-y,-z
1/2-x,y,1/2-z
1/2-x,1/2-y,-z
1/2+x,y,1/2-z
1/2-x,1/2+y,z
1/2+x,-y,1/2+z
loop_
_atom_site_type_symbol
_atom_site_label
_atom_site_fract_x
_atom_site_fract_y
_atom_site_fract_z
Si Si1 0.827249 0.158994 0.600921
Si Si2 0.673258 0.941906 0.180897
Si Si3 0.671323 0.367229 0.545256
Si Si4 0.325223 0.479411 0.570396
Si Si5 0.672376 0.755588 0.929950
O O1 0.786181 0.115779 0.655066
O O2 0.766244 0.140188 0.529293
O O3 0.745252 0.213527 0.619993
O O4 0.000000 0.170145 0.598782
O O5 0.500000 0.947675 0.189853
O O6 0.750000 0.952334 0.250000
O O7 0.736494 0.984735 0.129486
O O8 0.500000 0.376510 0.535253
O O9 0.734152 0.419820 0.579280
O O10 0.701192 0.316169 0.591365
O O11 0.266135 0.500000 0.500000
O O12 0.500000 0.483156 0.571996
O O13 0.500000 0.744481 0.936508
O O14 0.750000 0.750000 0.000000
#
# Coordination Sequence:
#
# PCOD8262723 Si02
#       5
#    16  16  16  16  16
#     4   9  16  28  45  66  92 121 154 192 235 282
#     4  10  20  32  49  71  96 126 158 198 244 293
#     4   8  13  23  42  69  93 113 149 195 233 272
#     4   9  14  25  48  72  91 118 160 202 234 274
#     4   9  16  25  41  67  96 122 148 187 233 279
#
# _framework density 16.972563999999998
#
# number of rings (size 3 to 8) (size 9 to 14) (size 15 to 20)
#    0.000    3.000    2.000    1.800    0.000    0.800 
#    0.000    0.000    0.000    7.800    0.000    5.600 
#    0.000    0.000    0.000    0.000    0.000    0.000 
#
# Total GULP energy -495535.804287 kJ/mol
# GULP energy per Si atom -12388.395107 kJ/mol
# Density = 1.693393 g / cm^3
# Si number density = 16.972564 Si / 1000 Ang^3
#
#
#
# Elastic Constant Matrix: (Units=GPa)
#
#
# Indices 1 2 3 4 5 6 
#
# 1 35.9506 42.8674 22.3924 0.0000 0.0000 0.0000
# 2 42.8674 175.7655 64.4965 0.0000 0.0000 0.0000
# 3 22.3924 64.4965 91.1036 0.0000 0.0000 0.0000
# 4 0.0000 0.0000 0.0000 20.0601 0.0000 0.0000
# 5 0.0000 0.0000 0.0000 0.0000 20.1900 0.0000
# 6 0.0000 0.0000 0.0000 0.0000 0.0000 20.3967
#
#
#
# Elastic Compliance Matrix: (Units=1/GPa)
#
#
# Indices 1 2 3 4 5 6 
#
# 1 0.040262 -0.008360 -0.003978 0.000000 0.000000 0.000000
# 2 -0.008360 0.009422 -0.004615 0.000000 0.000000 0.000000
# 3 -0.003978 -0.004615 0.015222 0.000000 0.000000 0.000000
# 4 0.000000 0.000000 0.000000 0.049850 0.000000 0.000000
# 5 0.000000 0.000000 0.000000 0.000000 0.049529 0.000000
# 6 0.000000 0.000000 0.000000 0.000000 0.000000 0.049027
#
#
# Mechanical properties :
#
#
# Convention : Reuss Voigt Hill
#
# Bulk Modulus (GPa) = 32.25860 62.48135 47.36998
# Shear Modulus (GPa) = 19.41361 23.66694 21.54027
#
# Velocity S-wave (km/s) = 3.38571 3.73825 3.56634
# Velocity P-wave (km/s) = 5.85932 7.45156 6.70289
#
# Compressibility (1/GPa) = 0.03099948
#
# Stress axis : x y z
#
# Youngs Moduli (GPa) = 24.83747 106.13582 65.69585
#
# Poissons Ratio (x) = 0.88728 0.26131
# Poissons Ratio (y) = 0.20764 0.30321
# Poissons Ratio (z) = 0.09879 0.48986
#
# Static dielectric constant tensor:
#      x y z
#    x 2.899060 0.000000 0.000000 
#    y 0.000000 3.971390 0.000000 
#    z 0.000000 0.000000 2.853890 
# 
# 
# High freq. dielectric constant tensor:
#      x y z
#    x 1.615800 0.000000 0.000000 
#    y 0.000000 1.681790 0.000000 
#    z 0.000000 0.000000 1.602410 
# 
# From -- ./inp_files/29993.got.cif
#   From: 2010.03.12/outbox.cif.g09.slc.cpg/sg64_15_cif.got.tgz:29993.got - 2010.04.10 20:19:32.
