data_PCOD8262287
_publ_section_title
;
Structure prediction by ZEFSAII (Michael W. Deem and Ramdas Pophale) SiO2 
 PCOD8262287
Probable space group: C M C A
;
_chemical_formula_sum "Si O2"
_cell_formula_units_Z 96
_cell_length_a 8.803516
_cell_length_b 30.767224
_cell_length_c 19.436918
_cell_angle_alpha 90.000000
_cell_angle_beta 90.000000
_cell_angle_gamma 90.000000
_cell_volume 5264.678726
_symmetry_space_group_name_H-M "C M C A"
_symmetry_group_IT_number 64
_symmetry_cell_setting 'orthorhombic'
loop_
_space_group_symop_operation_xyz
x,y,z
-x,1/2-y,1/2+z
x,-y,-z
-x,1/2+y,1/2-z
-x,-y,-z
x,1/2+y,1/2-z
-x,y,z
x,1/2-y,1/2+z
1/2+x,1/2+y,z
1/2-x,-y,1/2+z
1/2+x,1/2-y,-z
1/2-x,y,1/2-z
1/2-x,1/2-y,-z
1/2+x,y,1/2-z
1/2-x,1/2+y,z
1/2+x,-y,1/2+z
loop_
_atom_site_type_symbol
_atom_site_label
_atom_site_fract_x
_atom_site_fract_y
_atom_site_fract_z
Si Si1 0.329375 0.293685 0.581081
Si Si2 0.323585 0.379471 0.078231
Si Si3 0.679979 0.951743 0.822870
Si Si4 0.177332 0.118278 0.080766
Si Si5 0.169901 0.707960 0.917369
Si Si6 0.180195 0.956848 0.177474
O O1 0.500000 0.300580 0.608693
O O2 0.224620 0.333598 0.605750
O O3 0.264435 0.248780 0.612220
O O4 0.327109 0.290974 0.499298
O O5 0.500000 0.369540 0.086098
O O6 0.239106 0.337390 0.108767
O O7 0.272901 0.421360 0.121140
O O8 0.281628 0.388186 0.999125
O O9 0.500000 0.955684 0.815738
O O10 0.750000 0.937556 0.750000
O O11 0.722531 0.916400 0.879222
O O12 0.748670 0.997705 0.846862
O O13 0.000000 0.111089 0.095762
O O14 0.000000 0.711861 0.888706
O O15 0.250000 0.942146 0.250000
O O16 0.000000 0.962017 0.184421
#
# Coordination Sequence:
#
# PCOD8262287 Si02
#       6
#    16  16  16  16  16  16
#     4   9  16  27  44  69 101 134 167 203 246 297
#     4   9  19  33  51  75 104 135 167 206 253 301
#     4  11  22  37  55  75  99 131 169 207 250 301
#     4  10  19  33  52  76 104 133 167 208 252 297
#     4   9  16  26  44  70 100 133 168 205 246 294
#     4  10  20  36  55  75  99 132 171 208 250 300
#
# _framework density 18.234732000000001
#
# number of rings (size 3 to 8) (size 9 to 14) (size 15 to 20)
#    0.000    2.333    0.000    4.500    0.000    6.667 
#    0.000    3.333    0.000    1.000    0.000    4.667 
#    0.000    0.000    0.000    0.000    0.000    0.000 
#
# Total GULP energy -595244.096061 kJ/mol
# GULP energy per Si atom -12400.918668 kJ/mol
# Density = 1.819323 g / cm^3
# Si number density = 18.234732 Si / 1000 Ang^3
#
#
#
# Elastic Constant Matrix: (Units=GPa)
#
#
# Indices 1 2 3 4 5 6 
#
# 1 109.4814 62.1348 32.6166 0.0000 0.0000 0.0000
# 2 62.1348 146.1842 57.9895 0.0000 0.0000 0.0000
# 3 32.6166 57.9895 47.7426 0.0000 0.0000 0.0000
# 4 0.0000 0.0000 0.0000 -2.3690 0.0000 0.0000
# 5 0.0000 0.0000 0.0000 0.0000 22.5985 0.0000
# 6 0.0000 0.0000 0.0000 0.0000 0.0000 38.1755
#
#
#
# Elastic Compliance Matrix: (Units=1/GPa)
#
#
# Indices 1 2 3 4 5 6 
#
# 1 0.012422 -0.003693 -0.004001 0.000000 0.000000 0.000000
# 2 -0.003693 0.014299 -0.014846 0.000000 0.000000 0.000000
# 3 -0.004001 -0.014846 0.041711 0.000000 0.000000 0.000000
# 4 0.000000 0.000000 0.000000 -0.422124 0.000000 0.000000
# 5 0.000000 0.000000 0.000000 0.000000 0.044251 0.000000
# 6 0.000000 0.000000 0.000000 0.000000 0.000000 0.026195
#
#
# Mechanical properties :
#
#
# Convention : Reuss Voigt Hill
#
# Bulk Modulus (GPa) = 42.82036 67.65445 55.23741
# Shear Modulus (GPa) = -21.70293 21.72548 0.01128
#
# Velocity S-wave (km/s) = -3.45367 3.45546 0.07872
# Velocity P-wave (km/s) = 2.76226 7.28717 5.51058
#
# Compressibility (1/GPa) = 0.02335338
#
# Stress axis : x y z
#
# Youngs Moduli (GPa) = 80.50468 69.93367 23.97456
#
# Poissons Ratio (x) = 0.25824 0.09592
# Poissons Ratio (y) = 0.29727 0.35592
# Poissons Ratio (z) = 0.32210 1.03821
#
# Static dielectric constant tensor:
#      x y z
#    x 3.501110 0.000000 0.000000 
#    y 0.000000 3.544800 0.000000 
#    z 0.000000 0.000000 3.019630 
# 
# 
# High freq. dielectric constant tensor:
#      x y z
#    x 1.722640 0.000000 0.000000 
#    y 0.000000 1.721310 0.000000 
#    z 0.000000 0.000000 1.660000 
# 
# From -- ./inp_files/37044.got.cif
#   From: 2010.03.12/outbox.cif.g09.slc.cpg/sg64_19_cif.got.tgz:37044.got - 2010.04.10 20:19:32.
