data_PCOD8262159
_publ_section_title
;
Structure prediction by ZEFSAII (Michael W. Deem and Ramdas Pophale) SiO2 
 PCOD8262159
Probable space group: C M C A
;
_chemical_formula_sum "Si O2"
_cell_formula_units_Z 112
_cell_length_a 28.115713
_cell_length_b 16.422758
_cell_length_c 12.403046
_cell_angle_alpha 90.000000
_cell_angle_beta 90.000000
_cell_angle_gamma 90.000000
_cell_volume 5726.952080
_symmetry_space_group_name_H-M "C M C A"
_symmetry_group_IT_number 64
_symmetry_cell_setting 'orthorhombic'
loop_
_space_group_symop_operation_xyz
x,y,z
-x,1/2-y,1/2+z
x,-y,-z
-x,1/2+y,1/2-z
-x,-y,-z
x,1/2+y,1/2-z
-x,y,z
x,1/2-y,1/2+z
1/2+x,1/2+y,z
1/2-x,-y,1/2+z
1/2+x,1/2-y,-z
1/2-x,y,1/2-z
1/2-x,1/2-y,-z
1/2+x,y,1/2-z
1/2-x,1/2+y,z
1/2+x,-y,1/2+z
loop_
_atom_site_type_symbol
_atom_site_label
_atom_site_fract_x
_atom_site_fract_y
_atom_site_fract_z
Si Si1 0.697611 0.132203 0.296713
Si Si2 0.680697 0.727988 0.553756
Si Si3 0.678282 0.044821 0.714046
Si Si4 0.605099 0.156917 0.788929
Si Si5 0.736801 0.574399 0.580427
Si Si6 0.380932 0.294965 0.640491
Si Si7 0.055193 0.405916 0.005695
O O1 0.750000 0.121423 0.250000
O O2 0.703749 0.189254 0.401650
O O3 0.659121 0.163137 0.211811
O O4 0.677673 0.045458 0.336423
O O5 0.651161 0.690385 0.651494
O O6 0.719421 0.658339 0.523066
O O7 0.646874 0.751427 0.454694
O O8 0.624743 0.081591 0.716455
O O9 0.697961 0.040215 0.835877
O O10 0.713881 0.098539 0.640168
O O11 0.587641 0.229286 0.708614
O O12 0.565141 0.129453 0.874278
O O13 0.744830 0.500000 0.500000
O O14 0.416118 0.361038 0.588591
O O15 0.000000 0.394153 0.980957
O O16 0.070474 0.500000 0.000000
#
# Coordination Sequence:
#
# PCOD8262159 Si02
#       7
#    16  16  16  16  16  16  16
#     4  11  21  33  50  77 111 157 206 246 287 343
#     4   9  21  32  52  73 108 150 200 242 283 337
#     4  10  20  34  46  72 108 144 197 237 279 341
#     4   9  20  37  56  82 116 150 182 242 301 353
#     4  10  19  32  48  69  98 148 200 245 278 321
#     4  10  21  38  56  82 117 155 191 244 308 352
#     4  10  21  40  68  96 114 142 194 250 313 377
#
# _framework density 19.556650999999999
#
# number of rings (size 3 to 8) (size 9 to 14) (size 15 to 20)
#    0.000    2.143    1.429    1.714    6.000    6.286 
#    0.000    0.000    0.000    0.000    0.000    0.000 
#    0.000   13.143    0.000    0.000    0.000    0.000 
#
# Total GULP energy -694088.575825 kJ/mol
# GULP energy per Si atom -12394.438854 kJ/mol
# Density = 1.951214 g / cm^3
# Si number density = 19.556651 Si / 1000 Ang^3
#
#
#
# Elastic Constant Matrix: (Units=GPa)
#
#
# Indices 1 2 3 4 5 6 
#
# 1 69.3466 41.1644 32.3829 0.0000 0.0000 0.0000
# 2 41.1644 116.1675 48.1191 0.0000 0.0000 0.0000
# 3 32.3829 48.1191 83.6451 0.0000 0.0000 0.0000
# 4 0.0000 0.0000 0.0000 31.0407 0.0000 0.0000
# 5 0.0000 0.0000 0.0000 0.0000 24.8787 0.0000
# 6 0.0000 0.0000 0.0000 0.0000 0.0000 13.1073
#
#
#
# Elastic Compliance Matrix: (Units=1/GPa)
#
#
# Indices 1 2 3 4 5 6 
#
# 1 0.019581 -0.004987 -0.004712 0.000000 0.000000 0.000000
# 2 -0.004987 0.012571 -0.005301 0.000000 0.000000 0.000000
# 3 -0.004712 -0.005301 0.016829 0.000000 0.000000 0.000000
# 4 0.000000 0.000000 0.000000 0.032216 0.000000 0.000000
# 5 0.000000 0.000000 0.000000 0.000000 0.040195 0.000000
# 6 0.000000 0.000000 0.000000 0.000000 0.000000 0.076293
#
#
# Mechanical properties :
#
#
# Convention : Reuss Voigt Hill
#
# Bulk Modulus (GPa) = 52.68341 56.94353 54.81347
# Shear Modulus (GPa) = 21.36638 23.63820 22.50229
#
# Velocity S-wave (km/s) = 3.30894 3.48041 3.39576
# Velocity P-wave (km/s) = 6.44951 6.73286 6.59271
#
# Compressibility (1/GPa) = 0.01898131
#
# Stress axis : x y z
#
# Youngs Moduli (GPa) = 51.07047 79.54639 59.42051
#
# Poissons Ratio (x) = 0.39668 0.27998
# Poissons Ratio (y) = 0.25468 0.31501
# Poissons Ratio (z) = 0.24064 0.42170
#
# Static dielectric constant tensor:
#      x y z
#    x 3.187640 0.000000 0.000000 
#    y 0.000000 3.865560 0.000000 
#    z 0.000000 0.000000 3.693760 
# 
# 
# High freq. dielectric constant tensor:
#      x y z
#    x 1.719740 0.000000 0.000000 
#    y 0.000000 1.772940 0.000000 
#    z 0.000000 0.000000 1.764050 
# 
# From -- ./inp_files/19861.got.cif
#   From: 2010.03.12/outbox.cif.g09.slc.cpg/sg64_10_cif.got.tgz:19861.got - 2010.04.10 20:19:32.
