data_PCOD8262458
_publ_section_title
;
Structure prediction by ZEFSAII (Michael W. Deem and Ramdas Pophale) SiO2 
 PCOD8262458
Probable space group: C M C A
;
_chemical_formula_sum "Si O2"
_cell_formula_units_Z 80
_cell_length_a 18.707745
_cell_length_b 13.242821
_cell_length_c 17.237041
_cell_angle_alpha 90.000000
_cell_angle_beta 90.000000
_cell_angle_gamma 90.000000
_cell_volume 4270.361736
_symmetry_space_group_name_H-M "C M C A"
_symmetry_group_IT_number 64
_symmetry_cell_setting 'orthorhombic'
loop_
_space_group_symop_operation_xyz
x,y,z
-x,1/2-y,1/2+z
x,-y,-z
-x,1/2+y,1/2-z
-x,-y,-z
x,1/2+y,1/2-z
-x,y,z
x,1/2-y,1/2+z
1/2+x,1/2+y,z
1/2-x,-y,1/2+z
1/2+x,1/2-y,-z
1/2-x,y,1/2-z
1/2-x,1/2-y,-z
1/2+x,y,1/2-z
1/2-x,1/2+y,z
1/2+x,-y,1/2+z
loop_
_atom_site_type_symbol
_atom_site_label
_atom_site_fract_x
_atom_site_fract_y
_atom_site_fract_z
Si Si1 0.188598 0.830668 0.849479
Si Si2 0.417522 0.212305 0.645431
Si Si3 0.919594 0.882651 0.984765
Si Si4 0.840447 0.597367 0.179645
Si Si5 0.174313 0.618152 0.782496
O O1 0.135099 0.859403 0.916945
O O2 0.163630 0.883270 0.771135
O O3 0.268950 0.868576 0.866565
O O4 0.187898 0.709482 0.841672
O O5 0.500000 0.188951 0.659729
O O6 0.392441 0.172868 0.561946
O O7 0.404121 0.333021 0.646925
O O8 0.375504 0.152976 0.712159
O O9 0.000000 0.846509 0.961909
O O10 0.919982 0.000000 0.000000
O O11 0.857975 0.477944 0.170163
O O12 0.250000 0.579753 0.750000
#
# Coordination Sequence:
#
# PCOD8262458 Si02
#       5
#    16  16  16  16  16
#     4  10  19  34  58  85 112 153 191 244 286 347
#     4  10  22  39  57  85 120 154 197 244 289 345
#     4  10  22  38  58  85 120 159 198 240 288 351
#     4  10  20  35  59  85 117 148 191 247 294 346
#     4  11  19  37  62  86 117 149 194 245 294 346
#
# _framework density 18.733775000000001
#
# number of rings (size 3 to 8) (size 9 to 14) (size 15 to 20)
#    0.000    1.800    6.000    1.200    0.000    4.800 
#    0.000    1.000    0.000    2.400    0.000    0.000 
#    0.000    0.000    0.000    0.000    0.000    0.000 
#
# Total GULP energy -495911.430986 kJ/mol
# GULP energy per Si atom -12397.785775 kJ/mol
# Density = 1.869114 g / cm^3
# Si number density = 18.733775 Si / 1000 Ang^3
#
#
#
# Elastic Constant Matrix: (Units=GPa)
#
#
# Indices 1 2 3 4 5 6 
#
# 1 83.1481 24.0649 54.2809 0.0000 0.0000 0.0000
# 2 24.0649 134.8301 32.2422 0.0000 0.0000 0.0000
# 3 54.2809 32.2422 71.1723 0.0000 0.0000 0.0000
# 4 0.0000 0.0000 0.0000 20.8602 0.0000 0.0000
# 5 0.0000 0.0000 0.0000 0.0000 -46.9920 0.0000
# 6 0.0000 0.0000 0.0000 0.0000 0.0000 29.7123
#
#
#
# Elastic Compliance Matrix: (Units=1/GPa)
#
#
# Indices 1 2 3 4 5 6 
#
# 1 0.023953 0.000105 -0.018316 0.000000 0.000000 0.000000
# 2 0.000105 0.008318 -0.003848 0.000000 0.000000 0.000000
# 3 -0.018316 -0.003848 0.029763 0.000000 0.000000 0.000000
# 4 0.000000 0.000000 0.000000 0.047938 0.000000 0.000000
# 5 0.000000 0.000000 0.000000 0.000000 -0.021280 0.000000
# 6 0.000000 0.000000 0.000000 0.000000 0.000000 0.033656
#
#
# Mechanical properties :
#
#
# Convention : Reuss Voigt Hill
#
# Bulk Modulus (GPa) = 55.81745 56.70295 56.26020
# Shear Modulus (GPa) = 28.99574 12.62027 20.80800
#
# Velocity S-wave (km/s) = 3.93845 2.59832 3.33636
# Velocity P-wave (km/s) = 7.10926 6.27177 6.70361
#
# Compressibility (1/GPa) = 0.01791554
#
# Stress axis : x y z
#
# Youngs Moduli (GPa) = 41.74760 120.21726 33.59918
#
# Poissons Ratio (x) = -0.01258 0.61540
# Poissons Ratio (y) = -0.00437 0.12929
# Poissons Ratio (z) = 0.76465 0.46261
#
# Static dielectric constant tensor:
#      x y z
#    x 3.506890 0.000000 0.000000 
#    y 0.000000 3.843780 0.000000 
#    z 0.000000 0.000000 3.244780 
# 
# 
# High freq. dielectric constant tensor:
#      x y z
#    x 1.723820 0.000000 0.000000 
#    y 0.000000 1.743180 0.000000 
#    z 0.000000 0.000000 1.700280 
# 
# From -- ./inp_files/32994.got.cif
#   From: 2010.03.12/outbox.cif.g09.slc.cpg/sg64_17_cif.got.tgz:32994.got - 2010.04.10 20:19:32.
