data_PCOD8262798
_publ_section_title
;
Structure prediction by ZEFSAII (Michael W. Deem and Ramdas Pophale) SiO2 
 PCOD8262798
Probable space group: C M C A
;
_chemical_formula_sum "Si O2"
_cell_formula_units_Z 80
_cell_length_a 9.126446
_cell_length_b 14.811491
_cell_length_c 29.375283
_cell_angle_alpha 90.000000
_cell_angle_beta 90.000000
_cell_angle_gamma 90.000000
_cell_volume 3970.841268
_symmetry_space_group_name_H-M "C M C A"
_symmetry_group_IT_number 64
_symmetry_cell_setting 'orthorhombic'
loop_
_space_group_symop_operation_xyz
x,y,z
-x,1/2-y,1/2+z
x,-y,-z
-x,1/2+y,1/2-z
-x,-y,-z
x,1/2+y,1/2-z
-x,y,z
x,1/2-y,1/2+z
1/2+x,1/2+y,z
1/2-x,-y,1/2+z
1/2+x,1/2-y,-z
1/2-x,y,1/2-z
1/2-x,1/2-y,-z
1/2+x,y,1/2-z
1/2-x,1/2+y,z
1/2+x,-y,1/2+z
loop_
_atom_site_type_symbol
_atom_site_label
_atom_site_fract_x
_atom_site_fract_y
_atom_site_fract_z
Si Si1 0.832188 0.263706 0.368144
Si Si2 0.328140 0.472884 0.137854
Si Si3 0.172238 0.109507 0.297730
Si Si4 0.339003 0.234330 0.954638
Si Si5 0.662711 0.023868 0.950633
O O1 0.792951 0.366891 0.355777
O O2 0.796960 0.201544 0.325078
O O3 0.741539 0.223837 0.410820
O O4 0.000000 0.257183 0.383190
O O5 0.500000 0.493564 0.141050
O O6 0.242419 0.523321 0.177707
O O7 0.269293 0.510775 0.089286
O O8 0.250000 0.123069 0.250000
O O9 0.000000 0.091690 0.291317
O O10 0.500000 0.278518 0.959452
O O11 0.353133 0.129491 0.945577
O O12 0.250000 0.250000 0.000000
O O13 0.500000 0.979119 0.945882
O O14 0.731212 0.000000 0.000000
#
# Coordination Sequence:
#
# PCOD8262798 Si02
#       5
#    16  16  16  16  16
#     4   9  21  41  61  83 118 158 195 241 294 350
#     4  10  21  39  61  88 120 153 195 245 296 349
#     4  11  24  42  64  89 117 153 197 244 299 356
#     4  10  20  33  53  82 116 154 194 238 289 347
#     4   9  19  35  54  79 113 156 197 234 287 348
#
# _framework density 20.146864000000001
#
# number of rings (size 3 to 8) (size 9 to 14) (size 15 to 20)
#    0.000    2.200    0.000    1.800    2.800    4.400 
#    0.000    2.000    0.000    0.000    0.000    0.000 
#    0.000    0.000    0.000    0.000    0.000    0.000 
#
# Total GULP energy -496000.548381 kJ/mol
# GULP energy per Si atom -12400.013710 kJ/mol
# Density = 2.010101 g / cm^3
# Si number density = 20.146864 Si / 1000 Ang^3
#
#
#
# Elastic Constant Matrix: (Units=GPa)
#
#
# Indices 1 2 3 4 5 6 
#
# 1 153.0329 53.3498 104.7566 0.0000 0.0000 0.0000
# 2 53.3498 63.2533 51.8661 0.0000 0.0000 0.0000
# 3 104.7566 51.8661 183.6820 0.0000 0.0000 0.0000
# 4 0.0000 0.0000 0.0000 30.8269 0.0000 0.0000
# 5 0.0000 0.0000 0.0000 0.0000 42.5796 0.0000
# 6 0.0000 0.0000 0.0000 0.0000 0.0000 25.4133
#
#
#
# Elastic Compliance Matrix: (Units=1/GPa)
#
#
# Indices 1 2 3 4 5 6 
#
# 1 0.012245 -0.005988 -0.005293 0.000000 0.000000 0.000000
# 2 -0.005988 0.023501 -0.003221 0.000000 0.000000 0.000000
# 3 -0.005293 -0.003221 0.009372 0.000000 0.000000 0.000000
# 4 0.000000 0.000000 0.000000 0.032439 0.000000 0.000000
# 5 0.000000 0.000000 0.000000 0.000000 0.023485 0.000000
# 6 0.000000 0.000000 0.000000 0.000000 0.000000 0.039349
#
#
# Mechanical properties :
#
#
# Convention : Reuss Voigt Hill
#
# Bulk Modulus (GPa) = 62.05394 91.10147 76.57770
# Shear Modulus (GPa) = 28.60945 32.43035 30.51990
#
# Velocity S-wave (km/s) = 3.77244 4.01646 3.89636
# Velocity P-wave (km/s) = 7.05994 8.17472 7.63769
#
# Compressibility (1/GPa) = 0.01611501
#
# Stress axis : x y z
#
# Youngs Moduli (GPa) = 81.66499 42.55138 106.69826
#
# Poissons Ratio (x) = 0.25480 0.56473
# Poissons Ratio (y) = 0.48901 0.34367
# Poissons Ratio (z) = 0.43223 0.13705
#
# Static dielectric constant tensor:
#      x y z
#    x 2.972960 0.000000 0.000000 
#    y 0.000000 3.500730 0.000000 
#    z 0.000000 0.000000 3.634870 
# 
# 
# High freq. dielectric constant tensor:
#      x y z
#    x 1.795060 0.000000 0.000000 
#    y 0.000000 1.781440 0.000000 
#    z 0.000000 0.000000 1.786750 
# 
# From -- ./inp_files/47811.got.cif
#   From: 2010.03.12/outbox.cif.g09.slc.cpg/sg64_24_cif.got.tgz:47811.got - 2010.04.10 20:19:32.
