data_PCOD8262333
_publ_section_title
;
Structure prediction by ZEFSAII (Michael W. Deem and Ramdas Pophale) SiO2 
 PCOD8262333
Probable space group: C M C A
;
_chemical_formula_sum "Si O2"
_cell_formula_units_Z 96
_cell_length_a 9.335495
_cell_length_b 20.058346
_cell_length_c 27.808108
_cell_angle_alpha 90.000000
_cell_angle_beta 90.000000
_cell_angle_gamma 90.000000
_cell_volume 5207.195829
_symmetry_space_group_name_H-M "C M C A"
_symmetry_group_IT_number 64
_symmetry_cell_setting 'orthorhombic'
loop_
_space_group_symop_operation_xyz
x,y,z
-x,1/2-y,1/2+z
x,-y,-z
-x,1/2+y,1/2-z
-x,-y,-z
x,1/2+y,1/2-z
-x,y,z
x,1/2-y,1/2+z
1/2+x,1/2+y,z
1/2-x,-y,1/2+z
1/2+x,1/2-y,-z
1/2-x,y,1/2-z
1/2-x,1/2-y,-z
1/2+x,y,1/2-z
1/2-x,1/2+y,z
1/2+x,-y,1/2+z
loop_
_atom_site_type_symbol
_atom_site_label
_atom_site_fract_x
_atom_site_fract_y
_atom_site_fract_z
Si Si1 0.665340 0.735647 0.451595
Si Si2 0.834049 0.979649 0.447947
Si Si3 0.333371 0.388868 0.610944
Si Si4 0.834735 0.577893 0.703705
Si Si5 0.331799 0.077483 0.297801
Si Si6 0.834393 0.867883 0.103225
O O1 0.500000 0.732727 0.466365
O O2 0.750000 0.750000 0.500000
O O3 0.714798 0.666076 0.428082
O O4 0.693723 0.791882 0.411449
O O5 0.804753 0.038729 0.410854
O O6 0.000000 0.960668 0.450816
O O7 0.775595 0.000000 0.500000
O O8 0.751221 0.913875 0.433167
O O9 0.500000 0.379074 0.624848
O O10 0.235713 0.381258 0.658120
O O11 0.750000 0.604026 0.750000
O O12 0.802624 0.500540 0.693318
O O13 0.781878 0.620638 0.657919
O O14 0.000000 0.589984 0.714916
O O15 0.500000 0.093419 0.293240
O O16 0.250000 0.101317 0.250000
O O17 0.000000 0.888271 0.099308
#
# Coordination Sequence:
#
# PCOD8262333 Si02
#       6
#    16  16  16  16  16  16
#     4  10  22  39  58  78 109 149 186 226 272 325
#     4  10  20  33  52  78 107 138 178 227 271 317
#     4  10  20  35  54  79 110 145 183 223 272 324
#     4   9  18  32  52  79 108 136 173 217 267 319
#     4  10  19  33  55  82 111 142 179 223 272 326
#     4  10  20  36  55  79 108 141 179 222 270 319
#
# _framework density 18.436025999999998
#
# number of rings (size 3 to 8) (size 9 to 14) (size 15 to 20)
#    0.000    2.167    1.667    1.500    0.000    4.333 
#    0.000    0.833    0.000    2.000    0.000    0.000 
#    0.000    0.000    0.000    0.000    0.000    0.000 
#
# Total GULP energy -595349.576002 kJ/mol
# GULP energy per Si atom -12403.116167 kJ/mol
# Density = 1.839406 g / cm^3
# Si number density = 18.436026 Si / 1000 Ang^3
#
#
#
# Elastic Constant Matrix: (Units=GPa)
#
#
# Indices 1 2 3 4 5 6 
#
# 1 63.6563 18.2427 49.9304 0.0000 0.0000 0.0000
# 2 18.2427 38.4359 5.2239 0.0000 0.0000 0.0000
# 3 49.9304 5.2239 119.0782 0.0000 0.0000 0.0000
# 4 0.0000 0.0000 0.0000 30.4984 0.0000 0.0000
# 5 0.0000 0.0000 0.0000 0.0000 39.1988 0.0000
# 6 0.0000 0.0000 0.0000 0.0000 0.0000 22.6296
#
#
#
# Elastic Compliance Matrix: (Units=1/GPa)
#
#
# Indices 1 2 3 4 5 6 
#
# 1 0.027796 -0.011678 -0.011143 0.000000 0.000000 0.000000
# 2 -0.011678 0.031080 0.003533 0.000000 0.000000 0.000000
# 3 -0.011143 0.003533 0.012915 0.000000 0.000000 0.000000
# 4 0.000000 0.000000 0.000000 0.032789 0.000000 0.000000
# 5 0.000000 0.000000 0.000000 0.000000 0.025511 0.000000
# 6 0.000000 0.000000 0.000000 0.000000 0.000000 0.044190
#
#
# Mechanical properties :
#
#
# Convention : Reuss Voigt Hill
#
# Bulk Modulus (GPa) = 30.10633 40.88493 35.49563
# Shear Modulus (GPa) = 22.32851 28.31691 25.32271
#
# Velocity S-wave (km/s) = 3.48391 3.92338 3.71016
# Velocity P-wave (km/s) = 5.70518 6.53825 6.13587
#
# Compressibility (1/GPa) = 0.03321560
#
# Stress axis : x y z
#
# Youngs Moduli (GPa) = 35.97584 32.17505 77.42842
#
# Poissons Ratio (x) = 0.37576 0.86278
# Poissons Ratio (y) = 0.42014 -0.27359
# Poissons Ratio (z) = 0.40088 -0.11369
#
# Static dielectric constant tensor:
#      x y z
#    x 3.332320 0.000000 0.000000 
#    y 0.000000 3.280570 0.000000 
#    z 0.000000 0.000000 3.513940 
# 
# 
# High freq. dielectric constant tensor:
#      x y z
#    x 1.710630 0.000000 0.000000 
#    y 0.000000 1.697510 0.000000 
#    z 0.000000 0.000000 1.727260 
# 
# From -- ./inp_files/48018.got.cif
#   From: 2010.03.12/outbox.cif.g09.slc.cpg/sg64_25_cif.got.tgz:48018.got - 2010.04.10 20:19:32.
