data_PCOD8262381
_publ_section_title
;
Structure prediction by ZEFSAII (Michael W. Deem and Ramdas Pophale) SiO2 
 PCOD8262381
Probable space group: C M C A
;
_chemical_formula_sum "Si O2"
_cell_formula_units_Z 112
_cell_length_a 13.987606
_cell_length_b 23.201069
_cell_length_c 15.282402
_cell_angle_alpha 90.000000
_cell_angle_beta 90.000000
_cell_angle_gamma 90.000000
_cell_volume 4959.558369
_symmetry_space_group_name_H-M "C M C A"
_symmetry_group_IT_number 64
_symmetry_cell_setting 'orthorhombic'
loop_
_space_group_symop_operation_xyz
x,y,z
-x,1/2-y,1/2+z
x,-y,-z
-x,1/2+y,1/2-z
-x,-y,-z
x,1/2+y,1/2-z
-x,y,z
x,1/2-y,1/2+z
1/2+x,1/2+y,z
1/2-x,-y,1/2+z
1/2+x,1/2-y,-z
1/2-x,y,1/2-z
1/2-x,1/2-y,-z
1/2+x,y,1/2-z
1/2-x,1/2+y,z
1/2+x,-y,1/2+z
loop_
_atom_site_type_symbol
_atom_site_label
_atom_site_fract_x
_atom_site_fract_y
_atom_site_fract_z
Si Si1 0.607990 0.149390 0.207122
Si Si2 0.295286 0.062554 0.539723
Si Si3 0.103452 0.885080 0.396022
Si Si4 0.611364 0.243963 0.947127
Si Si5 0.653102 0.389214 0.209694
Si Si6 0.298436 0.643755 0.116335
Si Si7 0.892769 0.228855 0.856258
O O1 0.500000 0.128978 0.181514
O O2 0.638668 0.123299 0.300454
O O3 0.685775 0.130513 0.134060
O O4 0.612480 0.218985 0.213233
O O5 0.184327 0.072644 0.566374
O O6 0.365884 0.070593 0.624063
O O7 0.330985 0.108210 0.467832
O O8 0.307833 0.000000 0.500000
O O9 0.137077 0.819683 0.413672
O O10 0.081282 0.893117 0.291440
O O11 0.000000 0.897106 0.441542
O O12 0.500000 0.258921 0.929380
O O13 0.680378 0.288597 0.897397
O O14 0.637360 0.246668 0.049435
O O15 0.750000 0.412723 0.250000
O O16 0.671482 0.324175 0.175109
O O17 0.000000 0.203505 0.860185
#
# Coordination Sequence:
#
# PCOD8262381 Si02
#       7
#    16  16  16  16  16  16  16
#     4  10  23  38  57  95 132 164 211 259 317 399
#     4  11  25  44  65  89 122 168 227 273 312 382
#     4  10  22  41  66  98 130 164 211 272 333 393
#     4  10  20  35  64 102 136 166 209 262 321 398
#     4  10  21  37  60  90 121 163 210 260 309 380
#     4  11  22  39  66  89 128 178 207 259 334 377
#     4  10  19  33  57  91 134 167 195 250 314 381
#
# _framework density 22.582656
#
# number of rings (size 3 to 8) (size 9 to 14) (size 15 to 20)
#    0.000    1.714    1.429    2.571    6.000    5.429 
#    7.714    0.000    0.000    6.000    0.000    0.000 
#    0.000    0.000    0.000    0.000    0.000    0.000 
#
# Total GULP energy -693966.760582 kJ/mol
# GULP energy per Si atom -12392.263582 kJ/mol
# Density = 2.253126 g / cm^3
# Si number density = 22.582656 Si / 1000 Ang^3
#
#
#
# Elastic Constant Matrix: (Units=GPa)
#
#
# Indices 1 2 3 4 5 6 
#
# 1 68.8399 -4.6813 12.6219 0.0000 0.0000 0.0000
# 2 -4.6813 72.4522 33.7714 0.0000 0.0000 0.0000
# 3 12.6219 33.7714 126.6719 0.0000 0.0000 0.0000
# 4 0.0000 0.0000 0.0000 25.5573 0.0000 0.0000
# 5 0.0000 0.0000 0.0000 0.0000 21.7765 0.0000
# 6 0.0000 0.0000 0.0000 0.0000 0.0000 11.4151
#
#
#
# Elastic Compliance Matrix: (Units=1/GPa)
#
#
# Indices 1 2 3 4 5 6 
#
# 1 0.015024 0.001905 -0.002005 0.000000 0.000000 0.000000
# 2 0.001905 0.016002 -0.004456 0.000000 0.000000 0.000000
# 3 -0.002005 -0.004456 0.009282 0.000000 0.000000 0.000000
# 4 0.000000 0.000000 0.000000 0.039128 0.000000 0.000000
# 5 0.000000 0.000000 0.000000 0.000000 0.045921 0.000000
# 6 0.000000 0.000000 0.000000 0.000000 0.000000 0.087604
#
#
# Mechanical properties :
#
#
# Convention : Reuss Voigt Hill
#
# Bulk Modulus (GPa) = 32.05479 39.04308 35.54894
# Shear Modulus (GPa) = 21.50803 26.83323 24.17063
#
# Velocity S-wave (km/s) = 3.08947 3.45080 3.27512
# Velocity P-wave (km/s) = 5.19150 5.76228 5.48432
#
# Compressibility (1/GPa) = 0.03119658
#
# Stress axis : x y z
#
# Youngs Moduli (GPa) = 66.56175 62.49056 107.73274
#
# Poissons Ratio (x) = -0.11906 0.21600
# Poissons Ratio (y) = -0.12682 0.48008
# Poissons Ratio (z) = 0.13345 0.27847
#
# Static dielectric constant tensor:
#      x y z
#    x 4.083800 0.000000 0.000000 
#    y 0.000000 3.454710 0.000000 
#    z 0.000000 0.000000 4.422940 
# 
# 
# High freq. dielectric constant tensor:
#      x y z
#    x 1.892900 0.000000 0.000000 
#    y 0.000000 1.828900 0.000000 
#    z 0.000000 0.000000 1.909790 
# 
# From -- ./inp_files/24275.got.cif
#   From: 2010.03.12/outbox.cif.g09.slc.cpg/sg64_13_cif.got.tgz:24275.got - 2010.04.10 20:19:32.
