data_PCOD8262292
_publ_section_title
;
Structure prediction by ZEFSAII (Michael W. Deem and Ramdas Pophale) SiO2 
 PCOD8262292
Probable space group: C M C A
;
_chemical_formula_sum "Si O2"
_cell_formula_units_Z 88
_cell_length_a 28.929875
_cell_length_b 21.163273
_cell_length_c 8.100217
_cell_angle_alpha 90.000000
_cell_angle_beta 90.000000
_cell_angle_gamma 90.000000
_cell_volume 4959.364683
_symmetry_space_group_name_H-M "C M C A"
_symmetry_group_IT_number 64
_symmetry_cell_setting 'orthorhombic'
loop_
_space_group_symop_operation_xyz
x,y,z
-x,1/2-y,1/2+z
x,-y,-z
-x,1/2+y,1/2-z
-x,-y,-z
x,1/2+y,1/2-z
-x,y,z
x,1/2-y,1/2+z
1/2+x,1/2+y,z
1/2-x,-y,1/2+z
1/2+x,1/2-y,-z
1/2-x,y,1/2-z
1/2-x,1/2-y,-z
1/2+x,y,1/2-z
1/2-x,1/2+y,z
1/2+x,-y,1/2+z
loop_
_atom_site_type_symbol
_atom_site_label
_atom_site_fract_x
_atom_site_fract_y
_atom_site_fract_z
Si Si1 0.906065 0.774622 0.032054
Si Si2 0.250000 0.852714 0.750000
Si Si3 0.147825 0.675987 0.240451
Si Si4 0.552462 0.163989 0.833541
Si Si5 0.271520 0.068857 0.929575
Si Si6 0.625848 0.073447 0.988943
O O1 0.877738 0.821240 0.914513
O O2 0.940511 0.727687 0.937826
O O3 0.868451 0.734152 0.129812
O O4 0.937039 0.819959 0.144242
O O5 0.202814 0.812763 0.757967
O O6 0.249877 0.889527 0.575972
O O7 0.133810 0.607373 0.166324
O O8 0.500000 0.140755 0.853376
O O9 0.585294 0.107354 0.889820
O O10 0.250000 0.081303 0.750000
O O11 0.325631 0.081259 0.894767
O O12 0.262466 0.000000 0.000000
O O13 0.612010 0.000000 0.000000
#
# Coordination Sequence:
#
# PCOD8262292 Si02
#       6
#    16   8  16  16  16  16
#     4   9  19  35  54  77 106 136 183 229 267 320
#     4  10  20  32  50  80 110 144 188 220 276 336
#     4   9  19  35  53  77 107 142 177 223 270 322
#     4  10  19  34  57  79 103 141 182 226 277 325
#     4  10  19  33  52  77 108 151 192 224 264 327
#     4   9  20  36  52  80 111 138 180 223 275 329
#
# _framework density 17.744208
#
# number of rings (size 3 to 8) (size 9 to 14) (size 15 to 20)
#    0.000    2.545    0.909    0.545    2.545    1.091 
#    0.000    1.818    0.000    1.091    0.000    0.000 
#    0.000    0.000    0.000    0.000    0.000    0.000 
#
# Total GULP energy -545333.773439 kJ/mol
# GULP energy per Si atom -12393.949396 kJ/mol
# Density = 1.770382 g / cm^3
# Si number density = 17.744208 Si / 1000 Ang^3
#
#
#
# Elastic Constant Matrix: (Units=GPa)
#
#
# Indices 1 2 3 4 5 6 
#
# 1 119.9730 46.5024 57.8432 0.0000 0.0000 0.0000
# 2 46.5024 71.6642 34.0958 0.0000 0.0000 0.0000
# 3 57.8432 34.0958 125.6402 0.0000 0.0000 0.0000
# 4 0.0000 0.0000 0.0000 15.0435 0.0000 0.0000
# 5 0.0000 0.0000 0.0000 0.0000 19.1723 0.0000
# 6 0.0000 0.0000 0.0000 0.0000 0.0000 -23.2752
#
#
#
# Elastic Compliance Matrix: (Units=1/GPa)
#
#
# Indices 1 2 3 4 5 6 
#
# 1 0.012798 -0.006317 -0.004178 0.000000 0.000000 0.000000
# 2 -0.006317 0.019141 -0.002286 0.000000 0.000000 0.000000
# 3 -0.004178 -0.002286 0.010503 0.000000 0.000000 0.000000
# 4 0.000000 0.000000 0.000000 0.066474 0.000000 0.000000
# 5 0.000000 0.000000 0.000000 0.000000 0.052159 0.000000
# 6 0.000000 0.000000 0.000000 0.000000 0.000000 -0.042964
#
#
# Mechanical properties :
#
#
# Convention : Reuss Voigt Hill
#
# Bulk Modulus (GPa) = 59.24128 66.01780 62.62954
# Shear Modulus (GPa) = 33.49005 14.11051 23.80028
#
# Velocity S-wave (km/s) = 4.34911 2.82302 3.66635
# Velocity P-wave (km/s) = 7.66018 6.92185 7.30036
#
# Compressibility (1/GPa) = 0.01688012
#
# Stress axis : x y z
#
# Youngs Moduli (GPa) = 78.13783 52.24497 95.21069
#
# Poissons Ratio (x) = 0.33002 0.39777
# Poissons Ratio (y) = 0.49358 0.21766
# Poissons Ratio (z) = 0.32644 0.11944
#
# Static dielectric constant tensor:
#      x y z
#    x 3.284430 0.000000 0.000000 
#    y 0.000000 3.172070 0.000000 
#    z 0.000000 0.000000 3.521990 
# 
# 
# High freq. dielectric constant tensor:
#      x y z
#    x 1.690850 0.000000 0.000000 
#    y 0.000000 1.670280 0.000000 
#    z 0.000000 0.000000 1.691880 
# 
# From -- ./inp_files/11090.got.cif
#   From: 2010.03.12/outbox.cif.g09.slc.cpg/sg64_6_cif.got.tgz:11090.got - 2010.04.10 20:19:32.
