data_PCOD8262024
_publ_section_title
;
Structure prediction by ZEFSAII (Michael W. Deem and Ramdas Pophale) SiO2 
 PCOD8262024
Probable space group: C M C A
;
_chemical_formula_sum "Si O2"
_cell_formula_units_Z 96
_cell_length_a 8.965797
_cell_length_b 20.426091
_cell_length_c 29.629861
_cell_angle_alpha 90.000000
_cell_angle_beta 90.000000
_cell_angle_gamma 90.000000
_cell_volume 5426.299718
_symmetry_space_group_name_H-M "C M C A"
_symmetry_group_IT_number 64
_symmetry_cell_setting 'orthorhombic'
loop_
_space_group_symop_operation_xyz
x,y,z
-x,1/2-y,1/2+z
x,-y,-z
-x,1/2+y,1/2-z
-x,-y,-z
x,1/2+y,1/2-z
-x,y,z
x,1/2-y,1/2+z
1/2+x,1/2+y,z
1/2-x,-y,1/2+z
1/2+x,1/2-y,-z
1/2-x,y,1/2-z
1/2-x,1/2-y,-z
1/2+x,y,1/2-z
1/2-x,1/2+y,z
1/2+x,-y,1/2+z
loop_
_atom_site_type_symbol
_atom_site_label
_atom_site_fract_x
_atom_site_fract_y
_atom_site_fract_z
Si Si1 0.178485 0.385654 0.891101
Si Si2 0.171195 0.310847 0.023167
Si Si3 0.167407 0.762528 0.206151
Si Si4 0.170821 0.750921 0.383147
Si Si5 0.327390 0.069803 0.477511
Si Si6 0.164216 0.393383 0.792703
O O1 0.240568 0.313025 0.899671
O O2 0.231717 0.412432 0.841800
O O3 0.000000 0.382718 0.893250
O O4 0.244895 0.432835 0.929194
O O5 0.179863 0.304263 0.077226
O O6 0.253759 0.377213 0.010158
O O7 0.000000 0.313893 0.006642
O O8 0.250000 0.250000 0.000000
O O9 0.250000 0.792190 0.250000
O O10 0.256351 0.783245 0.161234
O O11 0.162808 0.684642 0.209849
O O12 0.000000 0.791029 0.203834
O O13 0.000000 0.731397 0.372517
O O14 0.500000 0.087803 0.470179
O O15 0.306090 0.000000 0.500000
O O16 0.250000 0.423944 0.750000
O O17 0.000000 0.422708 0.788737
#
# Coordination Sequence:
#
# PCOD8262024 Si02
#       6
#    16  16  16  16  16  16
#     4  10  19  31  49  72 100 135 172 211 260 312
#     4  11  22  35  55  79 105 137 175 217 261 311
#     4   9  16  26  41  64  97 134 168 206 254 308
#     4  10  19  30  47  73 102 133 170 213 260 311
#     4  11  24  39  54  75 104 139 179 222 268 317
#     4   8  15  25  39  64  94 126 162 200 246 300
#
# _framework density 17.691613
#
# number of rings (size 3 to 8) (size 9 to 14) (size 15 to 20)
#    0.000    2.167    1.667    3.500    0.000    8.000 
#    0.000    0.000    0.000    0.000    0.000    1.167 
#    0.000    5.333    0.000    0.000    0.000    0.000 
#
# Total GULP energy -595090.104433 kJ/mol
# GULP energy per Si atom -12397.710509 kJ/mol
# Density = 1.765135 g / cm^3
# Si number density = 17.691613 Si / 1000 Ang^3
#
#
#
# Elastic Constant Matrix: (Units=GPa)
#
#
# Indices 1 2 3 4 5 6 
#
# 1 136.8130 38.4503 71.7865 0.0000 0.0000 0.0000
# 2 38.4503 48.2726 33.0806 0.0000 0.0000 0.0000
# 3 71.7865 33.0806 154.0801 0.0000 0.0000 0.0000
# 4 0.0000 0.0000 0.0000 13.1551 0.0000 0.0000
# 5 0.0000 0.0000 0.0000 0.0000 36.5654 0.0000
# 6 0.0000 0.0000 0.0000 0.0000 0.0000 18.5025
#
#
#
# Elastic Compliance Matrix: (Units=1/GPa)
#
#
# Indices 1 2 3 4 5 6 
#
# 1 0.011053 -0.006185 -0.003822 0.000000 0.000000 0.000000
# 2 -0.006185 0.027750 -0.003076 0.000000 0.000000 0.000000
# 3 -0.003822 -0.003076 0.008931 0.000000 0.000000 0.000000
# 4 0.000000 0.000000 0.000000 0.076016 0.000000 0.000000
# 5 0.000000 0.000000 0.000000 0.000000 0.027348 0.000000
# 6 0.000000 0.000000 0.000000 0.000000 0.000000 0.054047
#
#
# Mechanical properties :
#
#
# Convention : Reuss Voigt Hill
#
# Bulk Modulus (GPa) = 46.36411 69.53340 57.94875
# Shear Modulus (GPa) = 20.96436 26.70118 23.83277
#
# Velocity S-wave (km/s) = 3.44610 3.88913 3.67430
# Velocity P-wave (km/s) = 6.48829 7.71722 7.12928
#
# Compressibility (1/GPa) = 0.02156841
#
# Stress axis : x y z
#
# Youngs Moduli (GPa) = 90.47590 36.03576 111.96808
#
# Poissons Ratio (x) = 0.22287 0.42790
# Poissons Ratio (y) = 0.55958 0.34445
# Poissons Ratio (z) = 0.34576 0.11086
#
# Static dielectric constant tensor:
#      x y z
#    x 3.559210 0.000000 0.000000 
#    y 0.000000 2.996540 0.000000 
#    z 0.000000 0.000000 3.817290 
# 
# 
# High freq. dielectric constant tensor:
#      x y z
#    x 1.703050 0.000000 0.000000 
#    y 0.000000 1.608540 0.000000 
#    z 0.000000 0.000000 1.708260 
# 
# From -- ./inp_files/48164.got.cif
#   From: 2010.03.12/outbox.cif.g09.slc.cpg/sg64_25_cif.got.tgz:48164.got - 2010.04.10 20:19:32.
