data_PCOD8262640
_publ_section_title
;
Structure prediction by ZEFSAII (Michael W. Deem and Ramdas Pophale) SiO2 
 PCOD8262640
Probable space group: C M C A
;
_chemical_formula_sum "Si O2"
_cell_formula_units_Z 112
_cell_length_a 22.443370
_cell_length_b 15.291243
_cell_length_c 16.542508
_cell_angle_alpha 90.000000
_cell_angle_beta 90.000000
_cell_angle_gamma 90.000000
_cell_volume 5677.174097
_symmetry_space_group_name_H-M "C M C A"
_symmetry_group_IT_number 64
_symmetry_cell_setting 'orthorhombic'
loop_
_space_group_symop_operation_xyz
x,y,z
-x,1/2-y,1/2+z
x,-y,-z
-x,1/2+y,1/2-z
-x,-y,-z
x,1/2+y,1/2-z
-x,y,z
x,1/2-y,1/2+z
1/2+x,1/2+y,z
1/2-x,-y,1/2+z
1/2+x,1/2-y,-z
1/2-x,y,1/2-z
1/2-x,1/2-y,-z
1/2+x,y,1/2-z
1/2-x,1/2+y,z
1/2+x,-y,1/2+z
loop_
_atom_site_type_symbol
_atom_site_label
_atom_site_fract_x
_atom_site_fract_y
_atom_site_fract_z
Si Si1 0.184071 0.913917 0.218180
Si Si2 0.068187 0.757991 0.968405
Si Si3 0.344559 0.091083 0.203024
Si Si4 0.931994 0.575879 0.058489
Si Si5 0.324280 0.162226 0.546461
Si Si6 0.141961 0.246456 0.687777
Si Si7 0.247970 0.322072 0.900677
O O1 0.250000 0.897179 0.250000
O O2 0.179682 0.903135 0.121506
O O3 0.141574 0.843741 0.262388
O O4 0.161915 0.011291 0.235334
O O5 0.088340 0.743810 0.876011
O O6 0.000000 0.790293 0.969480
O O7 0.076281 0.667894 0.015276
O O8 0.108367 0.832250 0.011992
O O9 0.393537 0.067001 0.138150
O O10 0.368631 0.174687 0.250587
O O11 0.279899 0.107536 0.161037
O O12 0.000000 0.559280 0.083592
O O13 0.908638 0.500000 0.000000
O O14 0.279452 0.128410 0.475854
O O15 0.305949 0.261185 0.569511
O O16 0.205160 0.259077 0.643599
#
# Coordination Sequence:
#
# PCOD8262640 Si02
#       7
#    16  16  16  16  16  16  16
#     4  12  22  36  59  92 124 157 195 247 305 367
#     4  10  21  39  63  85 110 160 213 248 293 359
#     4  12  23  37  59  91 123 159 197 244 305 366
#     4  10  21  38  57  82 116 154 205 257 297 349
#     4  10  20  37  63  84 115 157 197 242 295 351
#     4  11  21  38  58  87 126 154 190 247 309 353
#     4  10  19  37  60  82 118 158 188 235 301 352
#
# _framework density 19.728124999999999
#
# number of rings (size 3 to 8) (size 9 to 14) (size 15 to 20)
#    0.000    1.286    4.286    2.143    0.000    1.714 
#    0.000    7.143    0.000    0.857    0.000    0.000 
#    0.000    0.000    0.000    0.000    0.000    0.000 
#
# Total GULP energy -694611.485599 kJ/mol
# GULP energy per Si atom -12403.776529 kJ/mol
# Density = 1.968322 g / cm^3
# Si number density = 19.728125 Si / 1000 Ang^3
#
#
#
# Elastic Constant Matrix: (Units=GPa)
#
#
# Indices 1 2 3 4 5 6 
#
# 1 94.0288 18.5532 31.8630 0.0000 0.0000 0.0000
# 2 18.5532 68.8934 20.2703 0.0000 0.0000 0.0000
# 3 31.8630 20.2703 96.5667 0.0000 0.0000 0.0000
# 4 0.0000 0.0000 0.0000 35.4586 0.0000 0.0000
# 5 0.0000 0.0000 0.0000 0.0000 16.6687 0.0000
# 6 0.0000 0.0000 0.0000 0.0000 0.0000 12.7334
#
#
#
# Elastic Compliance Matrix: (Units=1/GPa)
#
#
# Indices 1 2 3 4 5 6 
#
# 1 0.012294 -0.002257 -0.003583 0.000000 0.000000 0.000000
# 2 -0.002257 0.015885 -0.002590 0.000000 0.000000 0.000000
# 3 -0.003583 -0.002590 0.012081 0.000000 0.000000 0.000000
# 4 0.000000 0.000000 0.000000 0.028202 0.000000 0.000000
# 5 0.000000 0.000000 0.000000 0.000000 0.059993 0.000000
# 6 0.000000 0.000000 0.000000 0.000000 0.000000 0.078534
#
#
# Mechanical properties :
#
#
# Convention : Reuss Voigt Hill
#
# Bulk Modulus (GPa) = 42.73169 44.54021 43.63595
# Shear Modulus (GPa) = 21.58443 25.55897 23.57170
#
# Velocity S-wave (km/s) = 3.31130 3.60329 3.46038
# Velocity P-wave (km/s) = 6.02718 6.31963 6.17513
#
# Compressibility (1/GPa) = 0.02340184
#
# Stress axis : x y z
#
# Youngs Moduli (GPa) = 81.33744 62.95285 82.77201
#
# Poissons Ratio (x) = 0.14207 0.29657
# Poissons Ratio (y) = 0.18356 0.21436
# Poissons Ratio (z) = 0.29143 0.16303
#
# Static dielectric constant tensor:
#      x y z
#    x 3.548650 0.000000 0.000000 
#    y 0.000000 3.355190 0.000000 
#    z 0.000000 0.000000 3.846210 
# 
# 
# High freq. dielectric constant tensor:
#      x y z
#    x 1.756590 0.000000 0.000000 
#    y 0.000000 1.751620 0.000000 
#    z 0.000000 0.000000 1.786240 
# 
# From -- ./inp_files/27430.got.cif
#   From: 2010.03.12/outbox.cif.g09.slc.cpg/sg64_14_cif.got.tgz:27430.got - 2010.04.10 20:19:32.
