data_PCOD8262480
_publ_section_title
;
Structure prediction by ZEFSAII (Michael W. Deem and Ramdas Pophale) SiO2 
 PCOD8262480
Probable space group: C M C A
;
_chemical_formula_sum "Si O2"
_cell_formula_units_Z 72
_cell_length_a 16.143686
_cell_length_b 23.243499
_cell_length_c 8.874790
_cell_angle_alpha 90.000000
_cell_angle_beta 90.000000
_cell_angle_gamma 90.000000
_cell_volume 3330.138476
_symmetry_space_group_name_H-M "C M C A"
_symmetry_group_IT_number 64
_symmetry_cell_setting 'orthorhombic'
loop_
_space_group_symop_operation_xyz
x,y,z
-x,1/2-y,1/2+z
x,-y,-z
-x,1/2+y,1/2-z
-x,-y,-z
x,1/2+y,1/2-z
-x,y,z
x,1/2-y,1/2+z
1/2+x,1/2+y,z
1/2-x,-y,1/2+z
1/2+x,1/2-y,-z
1/2-x,y,1/2-z
1/2-x,1/2-y,-z
1/2+x,y,1/2-z
1/2-x,1/2+y,z
1/2+x,-y,1/2+z
loop_
_atom_site_type_symbol
_atom_site_label
_atom_site_fract_x
_atom_site_fract_y
_atom_site_fract_z
Si Si1 0.353689 0.198778 0.106627
Si Si2 0.673133 0.909637 0.330876
Si Si3 0.591445 0.414842 0.472427
Si Si4 0.727430 0.000000 0.000000
Si Si5 0.659837 0.812853 0.554877
O O1 0.381279 0.190831 0.280457
O O2 0.257235 0.190503 0.078244
O O3 0.403867 0.152217 0.011508
O O4 0.377547 0.262339 0.049234
O O5 0.750000 0.874983 0.250000
O O6 0.602393 0.921954 0.208390
O O7 0.711744 0.971455 0.378492
O O8 0.638354 0.873190 0.471833
O O9 0.500000 0.438088 0.514729
O O10 0.663604 0.450342 0.561716
#
# Coordination Sequence:
#
# PCOD8262480 Si02
#       5
#    16  16  16   8  16
#     4  10  20  33  59  91 122 158 206 258 308 371
#     4  10  20  38  62  92 120 160 213 259 301 371
#     4  11  23  41  62  92 129 166 201 261 329 371
#     4  10  21  38  63  88 120 160 212 256 303 368
#     4  10  19  34  60  91 120 157 212 260 299 358
#
# _framework density 21.620722000000001
#
# number of rings (size 3 to 8) (size 9 to 14) (size 15 to 20)
#    0.000    1.778    4.444    1.667    3.111    5.333 
#    0.000    6.111    0.000    0.000    0.000    0.000 
#    0.000    0.000    0.000    0.000    0.000    0.000 
#
# Total GULP energy -446081.089219 kJ/mol
# GULP energy per Si atom -12391.141367 kJ/mol
# Density = 2.157151 g / cm^3
# Si number density = 21.620722 Si / 1000 Ang^3
#
#
#
# Elastic Constant Matrix: (Units=GPa)
#
#
# Indices 1 2 3 4 5 6 
#
# 1 57.5115 33.8227 27.3870 0.0000 0.0000 0.0000
# 2 33.8227 134.1080 70.3703 0.0000 0.0000 0.0000
# 3 27.3870 70.3703 147.8856 0.0000 0.0000 0.0000
# 4 0.0000 0.0000 0.0000 43.0010 0.0000 0.0000
# 5 0.0000 0.0000 0.0000 0.0000 13.8699 0.0000
# 6 0.0000 0.0000 0.0000 0.0000 0.0000 9.9042
#
#
#
# Elastic Compliance Matrix: (Units=1/GPa)
#
#
# Indices 1 2 3 4 5 6 
#
# 1 0.020771 -0.004292 -0.001804 0.000000 0.000000 0.000000
# 2 -0.004292 0.010825 -0.004356 0.000000 0.000000 0.000000
# 3 -0.001804 -0.004356 0.009169 0.000000 0.000000 0.000000
# 4 0.000000 0.000000 0.000000 0.023255 0.000000 0.000000
# 5 0.000000 0.000000 0.000000 0.000000 0.072098 0.000000
# 6 0.000000 0.000000 0.000000 0.000000 0.000000 0.100968
#
#
# Mechanical properties :
#
#
# Convention : Reuss Voigt Hill
#
# Bulk Modulus (GPa) = 50.35164 66.96281 58.65722
# Shear Modulus (GPa) = 18.89566 27.21668 23.05617
#
# Velocity S-wave (km/s) = 2.95949 3.55184 3.26911
# Velocity P-wave (km/s) = 5.91754 6.91806 6.43727
#
# Compressibility (1/GPa) = 0.01986033
#
# Stress axis : x y z
#
# Youngs Moduli (GPa) = 48.14387 92.37981 109.06327
#
# Poissons Ratio (x) = 0.39647 0.19679
# Poissons Ratio (y) = 0.20662 0.47510
# Poissons Ratio (z) = 0.08687 0.40242
#
# Static dielectric constant tensor:
#      x y z
#    x 3.446120 0.000000 0.000000 
#    y 0.000000 3.991010 0.000000 
#    z 0.000000 0.000000 4.148750 
# 
# 
# High freq. dielectric constant tensor:
#      x y z
#    x 1.804990 0.000000 0.000000 
#    y 0.000000 1.850690 0.000000 
#    z 0.000000 0.000000 1.843810 
# 
# From -- ./inp_files/6877.got.cif
#   From: 2010.03.12/outbox.cif.g09.slc.cpg/sg64_4_cif.got.tgz:6877.got - 2010.04.10 20:19:32.
