data_PCOD8262536
_publ_section_title
;
Structure prediction by ZEFSAII (Michael W. Deem and Ramdas Pophale) SiO2 
 PCOD8262536
Probable space group: C M C A
;
_chemical_formula_sum "Si O2"
_cell_formula_units_Z 112
_cell_length_a 25.526695
_cell_length_b 13.468708
_cell_length_c 15.131401
_cell_angle_alpha 90.000000
_cell_angle_beta 90.000000
_cell_angle_gamma 90.000000
_cell_volume 5202.351206
_symmetry_space_group_name_H-M "C M C A"
_symmetry_group_IT_number 64
_symmetry_cell_setting 'orthorhombic'
loop_
_space_group_symop_operation_xyz
x,y,z
-x,1/2-y,1/2+z
x,-y,-z
-x,1/2+y,1/2-z
-x,-y,-z
x,1/2+y,1/2-z
-x,y,z
x,1/2-y,1/2+z
1/2+x,1/2+y,z
1/2-x,-y,1/2+z
1/2+x,1/2-y,-z
1/2-x,y,1/2-z
1/2-x,1/2-y,-z
1/2+x,y,1/2-z
1/2-x,1/2+y,z
1/2+x,-y,1/2+z
loop_
_atom_site_type_symbol
_atom_site_label
_atom_site_fract_x
_atom_site_fract_y
_atom_site_fract_z
Si Si1 0.870219 0.486744 0.745656
Si Si2 0.166216 0.421750 0.432321
Si Si3 0.295754 0.324684 0.807452
Si Si4 0.560758 0.179377 0.215028
Si Si5 0.872258 0.299340 0.961485
Si Si6 0.885757 0.822509 0.346429
Si Si7 0.740016 0.862178 0.977854
O O1 0.855481 0.555828 0.663791
O O2 0.826112 0.401303 0.757102
O O3 0.924107 0.423253 0.734143
O O4 0.876209 0.561039 0.827735
O O5 0.140092 0.500000 0.500000
O O6 0.147038 0.313038 0.457883
O O7 0.230783 0.425240 0.443747
O O8 0.250000 0.274425 0.750000
O O9 0.330550 0.234239 0.841310
O O10 0.272708 0.387970 0.888691
O O11 0.500000 0.181612 0.192691
O O12 0.592114 0.177844 0.122722
O O13 0.573704 0.274283 0.276836
O O14 0.822559 0.376774 0.966486
O O15 0.905667 0.313872 0.052142
O O16 0.750000 0.750000 0.000000
#
# Coordination Sequence:
#
# PCOD8262536 Si02
#       7
#    16  16  16  16  16  16  16
#     4  11  24  41  63  99 132 177 228 286 332 408
#     4  11  19  39  66  97 135 177 221 280 337 396
#     4  11  22  37  57  94 143 180 222 265 329 412
#     4  11  26  49  70  95 133 175 233 300 354 411
#     4  11  23  44  66  97 138 178 224 280 351 411
#     4  11  23  43  69  95 130 176 227 287 343 408
#     4  10  19  35  58  93 134 177 208 259 335 409
#
# _framework density 21.528728000000001
#
# number of rings (size 3 to 8) (size 9 to 14) (size 15 to 20)
#    0.000    1.143    5.714    2.571    2.000    3.429 
#    2.571    0.714    0.000    1.714    0.000    0.000 
#    0.000    0.000    0.000    0.000    0.000    0.000 
#
# Total GULP energy -693932.122003 kJ/mol
# GULP energy per Si atom -12391.645036 kJ/mol
# Density = 2.147973 g / cm^3
# Si number density = 21.528728 Si / 1000 Ang^3
#
#
#
# Elastic Constant Matrix: (Units=GPa)
#
#
# Indices 1 2 3 4 5 6 
#
# 1 124.0617 26.3505 54.1433 0.0000 0.0000 0.0000
# 2 26.3505 79.4278 8.5792 0.0000 0.0000 0.0000
# 3 54.1433 8.5792 106.1750 0.0000 0.0000 0.0000
# 4 0.0000 0.0000 0.0000 39.7642 0.0000 0.0000
# 5 0.0000 0.0000 0.0000 0.0000 24.1533 0.0000
# 6 0.0000 0.0000 0.0000 0.0000 0.0000 16.1760
#
#
#
# Elastic Compliance Matrix: (Units=1/GPa)
#
#
# Indices 1 2 3 4 5 6 
#
# 1 0.011072 -0.003090 -0.005396 0.000000 0.000000 0.000000
# 2 -0.003090 0.013563 0.000480 0.000000 0.000000 0.000000
# 3 -0.005396 0.000480 0.012131 0.000000 0.000000 0.000000
# 4 0.000000 0.000000 0.000000 0.025148 0.000000 0.000000
# 5 0.000000 0.000000 0.000000 0.000000 0.041402 0.000000
# 6 0.000000 0.000000 0.000000 0.000000 0.000000 0.061820
#
#
# Mechanical properties :
#
#
# Convention : Reuss Voigt Hill
#
# Bulk Modulus (GPa) = 48.18491 54.20115 51.19303
# Shear Modulus (GPa) = 26.58604 30.72480 28.65542
#
# Velocity S-wave (km/s) = 3.51794 3.78187 3.65229
# Velocity P-wave (km/s) = 6.23951 6.65589 6.45106
#
# Compressibility (1/GPa) = 0.02075339
#
# Stress axis : x y z
#
# Youngs Moduli (GPa) = 90.31802 73.72764 82.43011
#
# Poissons Ratio (x) = 0.22784 0.44483
# Poissons Ratio (y) = 0.27911 -0.03956
# Poissons Ratio (z) = 0.48739 -0.03538
#
# Static dielectric constant tensor:
#      x y z
#    x 4.431450 0.000000 0.000000 
#    y 0.000000 3.696530 0.000000 
#    z 0.000000 0.000000 3.969310 
# 
# 
# High freq. dielectric constant tensor:
#      x y z
#    x 1.802110 0.000000 0.000000 
#    y 0.000000 1.855930 0.000000 
#    z 0.000000 0.000000 1.853640 
# 
# From -- ./inp_files/28045.got.cif
#   From: 2010.03.12/outbox.cif.g09.slc.cpg/sg64_15_cif.got.tgz:28045.got - 2010.04.10 20:19:32.
