data_PCOD8262270
_publ_section_title
;
Structure prediction by ZEFSAII (Michael W. Deem and Ramdas Pophale) SiO2 
 PCOD8262270
Probable space group: C M C A
;
_chemical_formula_sum "Si O2"
_cell_formula_units_Z 120
_cell_length_a 19.726885
_cell_length_b 20.044247
_cell_length_c 15.600924
_cell_angle_alpha 90.000000
_cell_angle_beta 90.000000
_cell_angle_gamma 90.000000
_cell_volume 6168.770025
_symmetry_space_group_name_H-M "C M C A"
_symmetry_group_IT_number 64
_symmetry_cell_setting 'orthorhombic'
loop_
_space_group_symop_operation_xyz
x,y,z
-x,1/2-y,1/2+z
x,-y,-z
-x,1/2+y,1/2-z
-x,-y,-z
x,1/2+y,1/2-z
-x,y,z
x,1/2-y,1/2+z
1/2+x,1/2+y,z
1/2-x,-y,1/2+z
1/2+x,1/2-y,-z
1/2-x,y,1/2-z
1/2-x,1/2-y,-z
1/2+x,y,1/2-z
1/2-x,1/2+y,z
1/2+x,-y,1/2+z
loop_
_atom_site_type_symbol
_atom_site_label
_atom_site_fract_x
_atom_site_fract_y
_atom_site_fract_z
Si Si1 0.076814 0.522456 0.092068
Si Si2 0.423672 0.309769 0.199183
Si Si3 0.139455 0.591302 0.819164
Si Si4 0.676887 0.287725 0.427425
Si Si5 0.650085 0.391718 0.727540
Si Si6 0.750000 0.002076 0.750000
Si Si7 0.690148 0.728239 0.379045
Si Si8 0.574218 0.201473 0.345696
O O1 0.079696 0.458796 0.154577
O O2 0.116464 0.582225 0.138979
O O3 0.000000 0.546399 0.078560
O O4 0.108618 0.500000 0.000000
O O5 0.500000 0.325164 0.164042
O O6 0.383657 0.376937 0.228258
O O7 0.378132 0.272530 0.128353
O O8 0.429538 0.262686 0.280746
O O9 0.142941 0.645603 0.893303
O O10 0.211773 0.551238 0.816353
O O11 0.693997 0.301999 0.525791
O O12 0.743221 0.274104 0.368661
O O13 0.626959 0.223340 0.419497
O O14 0.691662 0.449235 0.779611
O O15 0.695006 0.329427 0.693228
O O16 0.595910 0.365948 0.796581
O O17 0.500000 0.188405 0.386131
#
# Coordination Sequence:
#
# PCOD8262270 Si02
#       8
#    16  16  16  16  16   8  16  16
#     4  10  20  32  48  72 101 133 166 201 245 296
#     4   9  18  32  51  74 100 132 168 208 259 317
#     4  10  19  33  50  72 102 133 169 209 250 299
#     4  10  20  33  51  75 101 129 163 209 263 311
#     4  10  19  33  50  72 102 133 169 209 250 299
#     4  10  20  30  50  74  96 136 180 210 244 298
#     4  10  20  33  51  75 101 129 163 209 263 311
#     4   9  18  32  51  74 100 132 168 208 259 317
#
# _framework density 19.452824
#
# number of rings (size 3 to 8) (size 9 to 14) (size 15 to 20)
#    0.000    2.267    0.000    3.200    0.000    5.333 
#    0.000    0.000    0.000    1.600    0.000    2.800 
#    0.000   13.867    0.000    0.000    0.000    0.000 
#
# Total GULP energy -743347.103226 kJ/mol
# GULP energy per Si atom -12389.118387 kJ/mol
# Density = 1.940855 g / cm^3
# Si number density = 19.452824 Si / 1000 Ang^3
#
#
#
# Elastic Constant Matrix: (Units=GPa)
#
#
# Indices 1 2 3 4 5 6 
#
# 1 104.1971 26.1258 9.9880 0.0000 0.0000 0.0000
# 2 26.1258 81.5908 15.5643 0.0000 0.0000 0.0000
# 3 9.9880 15.5643 29.4884 0.0000 0.0000 0.0000
# 4 0.0000 0.0000 0.0000 25.1533 0.0000 0.0000
# 5 0.0000 0.0000 0.0000 0.0000 23.7461 0.0000
# 6 0.0000 0.0000 0.0000 0.0000 0.0000 25.2208
#
#
#
# Elastic Compliance Matrix: (Units=1/GPa)
#
#
# Indices 1 2 3 4 5 6 
#
# 1 0.010539 -0.002995 -0.001989 0.000000 0.000000 0.000000
# 2 -0.002995 0.014480 -0.006628 0.000000 0.000000 0.000000
# 3 -0.001989 -0.006628 0.038084 0.000000 0.000000 0.000000
# 4 0.000000 0.000000 0.000000 0.039756 0.000000 0.000000
# 5 0.000000 0.000000 0.000000 0.000000 0.042112 0.000000
# 6 0.000000 0.000000 0.000000 0.000000 0.000000 0.039650
#
#
# Mechanical properties :
#
#
# Convention : Reuss Voigt Hill
#
# Bulk Modulus (GPa) = 25.07633 35.40361 30.23997
# Shear Modulus (GPa) = 22.61040 25.73058 24.17049
#
# Velocity S-wave (km/s) = 3.41298 3.64086 3.52876
# Velocity P-wave (km/s) = 5.33386 5.99281 5.67291
#
# Compressibility (1/GPa) = 0.03987825
#
# Stress axis : x y z
#
# Youngs Moduli (GPa) = 94.88722 69.06195 26.25799
#
# Poissons Ratio (x) = 0.20686 0.05222
# Poissons Ratio (y) = 0.28421 0.17404
# Poissons Ratio (z) = 0.18870 0.45775
#
# Static dielectric constant tensor:
#      x y z
#    x 3.827170 0.000000 0.000000 
#    y 0.000000 3.619370 0.000000 
#    z 0.000000 0.000000 3.187050 
# 
# 
# High freq. dielectric constant tensor:
#      x y z
#    x 1.764950 0.000000 0.000000 
#    y 0.000000 1.756670 0.000000 
#    z 0.000000 0.000000 1.718880 
# 
# From -- ./inp_files/33686.got.cif
#   From: 2010.03.12/outbox.cif.g09.slc.cpg/sg64_17_cif.got.tgz:33686.got - 2010.04.10 20:19:32.
