data_PCOD8262517
_publ_section_title
;
Structure prediction by ZEFSAII (Michael W. Deem and Ramdas Pophale) SiO2 
 PCOD8262517
Probable space group: C M C A
;
_chemical_formula_sum "Si O2"
_cell_formula_units_Z 80
_cell_length_a 16.407918
_cell_length_b 29.153090
_cell_length_c 7.914041
_cell_angle_alpha 90.000000
_cell_angle_beta 90.000000
_cell_angle_gamma 90.000000
_cell_volume 3785.614323
_symmetry_space_group_name_H-M "C M C A"
_symmetry_group_IT_number 64
_symmetry_cell_setting 'orthorhombic'
loop_
_space_group_symop_operation_xyz
x,y,z
-x,1/2-y,1/2+z
x,-y,-z
-x,1/2+y,1/2-z
-x,-y,-z
x,1/2+y,1/2-z
-x,y,z
x,1/2-y,1/2+z
1/2+x,1/2+y,z
1/2-x,-y,1/2+z
1/2+x,1/2-y,-z
1/2-x,y,1/2-z
1/2-x,1/2-y,-z
1/2+x,y,1/2-z
1/2-x,1/2+y,z
1/2+x,-y,1/2+z
loop_
_atom_site_type_symbol
_atom_site_label
_atom_site_fract_x
_atom_site_fract_y
_atom_site_fract_z
Si Si1 0.096752 0.388124 0.813647
Si Si2 0.659670 0.707477 0.198366
Si Si3 0.595606 0.108583 0.814029
Si Si4 0.402681 0.448235 0.999900
Si Si5 0.907016 0.702868 0.659040
O O1 0.135555 0.338329 0.795172
O O2 0.129076 0.422504 0.668959
O O3 0.000000 0.382765 0.803615
O O4 0.125141 0.406570 0.998516
O O5 0.750000 0.722246 0.250000
O O6 0.599638 0.748981 0.245662
O O7 0.653534 0.699697 0.998811
O O8 0.500000 0.101360 0.804074
O O9 0.634057 0.076983 0.666032
O O10 0.618281 0.161851 0.785048
O O11 0.500000 0.447598 0.000742
O O12 0.369223 0.500000 0.000000
O O13 0.000000 0.695923 0.596325
#
# Coordination Sequence:
#
# PCOD8262517 Si02
#       5
#    16  16  16  16  16
#     4  10  19  35  57  82 116 155 197 242 295 361
#     4  12  24  37  55  86 120 156 197 248 296 352
#     4   9  18  32  54  84 113 148 192 238 290 350
#     4   9  17  31  54  86 118 146 187 250 308 348
#     4  11  21  37  58  81 117 160 201 241 290 358
#
# _framework density 21.132632999999998
#
# number of rings (size 3 to 8) (size 9 to 14) (size 15 to 20)
#    0.000    1.800    2.000    3.600    0.000    2.400 
#    0.000    4.000    0.000    0.000    5.200    0.000 
#    0.000    0.000    0.000    0.000    0.000    0.000 
#
# Total GULP energy -495994.643092 kJ/mol
# GULP energy per Si atom -12399.866077 kJ/mol
# Density = 2.108453 g / cm^3
# Si number density = 21.132633 Si / 1000 Ang^3
#
#
#
# Elastic Constant Matrix: (Units=GPa)
#
#
# Indices 1 2 3 4 5 6 
#
# 1 26.4266 9.0898 10.5042 0.0000 0.0000 0.0000
# 2 9.0898 163.5433 80.2954 0.0000 0.0000 0.0000
# 3 10.5042 80.2954 192.7465 0.0000 0.0000 0.0000
# 4 0.0000 0.0000 0.0000 32.8544 0.0000 0.0000
# 5 0.0000 0.0000 0.0000 0.0000 15.0498 0.0000
# 6 0.0000 0.0000 0.0000 0.0000 0.0000 2.7351
#
#
#
# Elastic Compliance Matrix: (Units=1/GPa)
#
#
# Indices 1 2 3 4 5 6 
#
# 1 0.038936 -0.001411 -0.001534 0.000000 0.000000 0.000000
# 2 -0.001411 0.007738 -0.003147 0.000000 0.000000 0.000000
# 3 -0.001534 -0.003147 0.006583 0.000000 0.000000 0.000000
# 4 0.000000 0.000000 0.000000 0.030437 0.000000 0.000000
# 5 0.000000 0.000000 0.000000 0.000000 0.066446 0.000000
# 6 0.000000 0.000000 0.000000 0.000000 0.000000 0.365621
#
#
# Mechanical properties :
#
#
# Convention : Reuss Voigt Hill
#
# Bulk Modulus (GPa) = 24.34684 64.72167 44.53426
# Shear Modulus (GPa) = 9.23130 28.98298 19.10714
#
# Velocity S-wave (km/s) = 2.09231 3.70737 3.01018
# Velocity P-wave (km/s) = 4.16929 7.00136 5.76203
#
# Compressibility (1/GPa) = 0.04107309
#
# Stress axis : x y z
#
# Youngs Moduli (GPa) = 25.68331 129.23392 151.91562
#
# Poissons Ratio (x) = 0.18233 0.23306
# Poissons Ratio (y) = 0.03623 0.47802
# Poissons Ratio (z) = 0.03940 0.40665
#
# Static dielectric constant tensor:
#      x y z
#    x 3.262660 0.000000 0.000000 
#    y 0.000000 3.902760 0.000000 
#    z 0.000000 0.000000 4.178790 
# 
# 
# High freq. dielectric constant tensor:
#      x y z
#    x 1.777220 0.000000 0.000000 
#    y 0.000000 1.825670 0.000000 
#    z 0.000000 0.000000 1.846390 
# 
# From -- ./inp_files/7042.got.cif
#   From: 2010.03.12/outbox.cif.g09.slc.cpg/sg64_4_cif.got.tgz:7042.got - 2010.04.10 20:19:32.
