data_PCOD8262848
_publ_section_title
;
Structure prediction by ZEFSAII (Michael W. Deem and Ramdas Pophale) SiO2 
 PCOD8262848
Probable space group: C M C A
;
_chemical_formula_sum "Si O2"
_cell_formula_units_Z 96
_cell_length_a 9.085468
_cell_length_b 19.618103
_cell_length_c 29.908394
_cell_angle_alpha 90.000000
_cell_angle_beta 90.000000
_cell_angle_gamma 90.000000
_cell_volume 5330.861590
_symmetry_space_group_name_H-M "C M C A"
_symmetry_group_IT_number 64
_symmetry_cell_setting 'orthorhombic'
loop_
_space_group_symop_operation_xyz
x,y,z
-x,1/2-y,1/2+z
x,-y,-z
-x,1/2+y,1/2-z
-x,-y,-z
x,1/2+y,1/2-z
-x,y,z
x,1/2-y,1/2+z
1/2+x,1/2+y,z
1/2-x,-y,1/2+z
1/2+x,1/2-y,-z
1/2-x,y,1/2-z
1/2-x,1/2-y,-z
1/2+x,y,1/2-z
1/2-x,1/2+y,z
1/2+x,-y,1/2+z
loop_
_atom_site_type_symbol
_atom_site_label
_atom_site_fract_x
_atom_site_fract_y
_atom_site_fract_z
Si Si1 0.672120 0.555233 0.794773
Si Si2 0.667166 0.800718 0.634103
Si Si3 0.671619 0.804309 0.530891
Si Si4 0.328657 0.956729 0.626664
Si Si5 0.172433 0.211293 0.795196
Si Si6 0.169402 0.556927 0.037098
O O1 0.500000 0.546750 0.787122
O O2 0.750000 0.529051 0.750000
O O3 0.726559 0.508625 0.835508
O O4 0.715852 0.633133 0.805314
O O5 0.500000 0.782316 0.647174
O O6 0.696950 0.783729 0.582339
O O7 0.699243 0.880026 0.643610
O O8 0.777282 0.756098 0.663146
O O9 0.500000 0.807607 0.519139
O O10 0.750000 0.750000 0.500000
O O11 0.740642 0.877631 0.520793
O O12 0.500000 0.967132 0.614720
O O13 0.233926 0.973055 0.582968
O O14 0.250000 0.237122 0.750000
O O15 0.000000 0.220321 0.788500
O O16 0.000000 0.577542 0.044311
O O17 0.187789 0.500000 0.000000
#
# Coordination Sequence:
#
# PCOD8262848 Si02
#       6
#    16  16  16  16  16  16
#     4   9  19  35  53  75 102 132 170 212 255 306
#     4   9  19  35  53  75 104 135 168 211 258 305
#     4  10  21  37  57  80 108 141 176 218 267 317
#     4   9  19  36  55  76 103 135 173 215 260 310
#     4  10  20  34  53  76 103 136 172 212 257 308
#     4  10  21  36  54  79 109 140 178 220 261 310
#
# _framework density 18.008344999999998
#
# number of rings (size 3 to 8) (size 9 to 14) (size 15 to 20)
#    0.000    2.500    0.000    2.500    0.000    8.000 
#    0.000    5.000    0.000    0.000    0.000    0.000 
#    0.000    0.000    0.000    0.000    0.000    0.000 
#
# Total GULP energy -595361.507694 kJ/mol
# GULP energy per Si atom -12403.364744 kJ/mol
# Density = 1.796736 g / cm^3
# Si number density = 18.008345 Si / 1000 Ang^3
#
#
#
# Elastic Constant Matrix: (Units=GPa)
#
#
# Indices 1 2 3 4 5 6 
#
# 1 104.5978 58.3027 69.9682 0.0000 0.0000 0.0000
# 2 58.3027 87.1521 75.1605 0.0000 0.0000 0.0000
# 3 69.9682 75.1605 114.7870 0.0000 0.0000 0.0000
# 4 0.0000 0.0000 0.0000 36.2861 0.0000 0.0000
# 5 0.0000 0.0000 0.0000 0.0000 38.5452 0.0000
# 6 0.0000 0.0000 0.0000 0.0000 0.0000 29.0945
#
#
#
# Elastic Compliance Matrix: (Units=1/GPa)
#
#
# Indices 1 2 3 4 5 6 
#
# 1 0.017290 -0.005692 -0.006812 0.000000 0.000000 0.000000
# 2 -0.005692 0.028232 -0.015017 0.000000 0.000000 0.000000
# 3 -0.006812 -0.015017 0.022697 0.000000 0.000000 0.000000
# 4 0.000000 0.000000 0.000000 0.027559 0.000000 0.000000
# 5 0.000000 0.000000 0.000000 0.000000 0.025944 0.000000
# 6 0.000000 0.000000 0.000000 0.000000 0.000000 0.034371
#
#
# Mechanical properties :
#
#
# Convention : Reuss Voigt Hill
#
# Bulk Modulus (GPa) = 75.88464 79.26663 77.57564
# Shear Modulus (GPa) = 23.19914 27.65885 25.42900
#
# Velocity S-wave (km/s) = 3.59311 3.92330 3.76183
# Velocity P-wave (km/s) = 7.70999 8.03960 7.87652
#
# Compressibility (1/GPa) = 0.01317790
#
# Stress axis : x y z
#
# Youngs Moduli (GPa) = 57.83761 35.42064 44.05911
#
# Poissons Ratio (x) = 0.20160 0.30014
# Poissons Ratio (y) = 0.32919 0.66162
# Poissons Ratio (z) = 0.39400 0.53190
#
# Static dielectric constant tensor:
#      x y z
#    x 3.395640 0.000000 0.000000 
#    y 0.000000 3.342830 0.000000 
#    z 0.000000 0.000000 3.344920 
# 
# 
# High freq. dielectric constant tensor:
#      x y z
#    x 1.705070 0.000000 0.000000 
#    y 0.000000 1.696480 0.000000 
#    z 0.000000 0.000000 1.699170 
# 
# From -- ./inp_files/48141.got.cif
#   From: 2010.03.12/outbox.cif.g09.slc.cpg/sg64_25_cif.got.tgz:48141.got - 2010.04.10 20:19:32.
