data_PCOD8262429
_publ_section_title
;
Structure prediction by ZEFSAII (Michael W. Deem and Ramdas Pophale) SiO2 
 PCOD8262429
Probable space group: C M C A
;
_chemical_formula_sum "Si O2"
_cell_formula_units_Z 56
_cell_length_a 13.980114
_cell_length_b 17.619704
_cell_length_c 13.134161
_cell_angle_alpha 90.000000
_cell_angle_beta 90.000000
_cell_angle_gamma 90.000000
_cell_volume 3235.278389
_symmetry_space_group_name_H-M "C M C A"
_symmetry_group_IT_number 64
_symmetry_cell_setting 'orthorhombic'
loop_
_space_group_symop_operation_xyz
x,y,z
-x,1/2-y,1/2+z
x,-y,-z
-x,1/2+y,1/2-z
-x,-y,-z
x,1/2+y,1/2-z
-x,y,z
x,1/2-y,1/2+z
1/2+x,1/2+y,z
1/2-x,-y,1/2+z
1/2+x,1/2-y,-z
1/2-x,y,1/2-z
1/2-x,1/2-y,-z
1/2+x,y,1/2-z
1/2-x,1/2+y,z
1/2+x,-y,1/2+z
loop_
_atom_site_type_symbol
_atom_site_label
_atom_site_fract_x
_atom_site_fract_y
_atom_site_fract_z
Si Si1 0.250000 0.540238 0.750000
Si Si2 0.268354 0.685033 0.641151
Si Si3 0.109417 0.797940 0.977779
Si Si4 0.109583 0.460774 0.603715
O O1 0.293969 0.596043 0.662209
O O2 0.168832 0.487460 0.701659
O O3 0.250000 0.726283 0.750000
O O4 0.169611 0.690798 0.579734
O O5 0.355729 0.723605 0.582344
O O6 0.121450 0.870439 0.904790
O O7 0.000000 0.786195 0.010782
O O8 0.147006 0.500000 0.500000
O O9 0.000000 0.484706 0.622371
#
# Coordination Sequence:
#
# PCOD8262429 Si02
#       4
#     8  16  16  16
#     4  10  20  32  56  78 106 134 170 218 256 306
#     4   9  20  35  51  79 104 138 170 208 264 299
#     4  10  20  35  55  77 104 137 175 213 252 309
#     4  10  19  34  56  78 100 134 176 214 255 304
#
# _framework density 17.309175
#
# number of rings (size 3 to 8) (size 9 to 14) (size 15 to 20)
#    0.857    1.429    2.857    0.000    2.000    2.286 
#    0.000    0.000    0.000    0.857    0.000    0.000 
#    0.000    0.000    0.000    0.000    0.000    0.000 
#
# Total GULP energy -347038.438462 kJ/mol
# GULP energy per Si atom -12394.229945 kJ/mol
# Density = 1.726978 g / cm^3
# Si number density = 17.309175 Si / 1000 Ang^3
#
#
#
# Elastic Constant Matrix: (Units=GPa)
#
#
# Indices 1 2 3 4 5 6 
#
# 1 120.0746 55.1212 67.4958 0.0000 0.0000 0.0000
# 2 55.1212 74.5007 35.3899 0.0000 0.0000 0.0000
# 3 67.4958 35.3899 104.0265 0.0000 0.0000 0.0000
# 4 0.0000 0.0000 0.0000 26.2513 0.0000 0.0000
# 5 0.0000 0.0000 0.0000 0.0000 28.7557 0.0000
# 6 0.0000 0.0000 0.0000 0.0000 0.0000 24.1314
#
#
#
# Elastic Compliance Matrix: (Units=1/GPa)
#
#
# Indices 1 2 3 4 5 6 
#
# 1 0.016744 -0.008621 -0.007931 0.000000 0.000000 0.000000
# 2 -0.008621 0.020449 -0.001363 0.000000 0.000000 0.000000
# 3 -0.007931 -0.001363 0.015223 0.000000 0.000000 0.000000
# 4 0.000000 0.000000 0.000000 0.038093 0.000000 0.000000
# 5 0.000000 0.000000 0.000000 0.000000 0.034776 0.000000
# 6 0.000000 0.000000 0.000000 0.000000 0.000000 0.041440
#
#
# Mechanical properties :
#
#
# Convention : Reuss Voigt Hill
#
# Bulk Modulus (GPa) = 60.29603 68.29062 64.29333
# Shear Modulus (GPa) = 24.02895 25.20068 24.61481
#
# Velocity S-wave (km/s) = 3.72992 3.81978 3.77512
# Velocity P-wave (km/s) = 7.31164 7.68072 7.49845
#
# Compressibility (1/GPa) = 0.01658484
#
# Stress axis : x y z
#
# Youngs Moduli (GPa) = 59.72346 48.90318 65.69159
#
# Poissons Ratio (x) = 0.42159 0.52101
# Poissons Ratio (y) = 0.51487 0.08955
# Poissons Ratio (z) = 0.47367 0.06666
#
# Static dielectric constant tensor:
#      x y z
#    x 3.080690 0.000000 0.000000 
#    y 0.000000 3.241450 0.000000 
#    z 0.000000 0.000000 3.153170 
# 
# 
# High freq. dielectric constant tensor:
#      x y z
#    x 1.655190 0.000000 0.000000 
#    y 0.000000 1.668920 0.000000 
#    z 0.000000 0.000000 1.661900 
# 
# From -- ./inp_files/13964.got.cif
#   From: 2010.03.12/outbox.cif.g09.slc.cpg/sg64_7_cif.got.tgz:13964.got - 2010.04.10 20:19:32.
