data_PCOD8262031
_publ_section_title
;
Structure prediction by ZEFSAII (Michael W. Deem and Ramdas Pophale) SiO2 
 PCOD8262031
Probable space group: C M C A
;
_chemical_formula_sum "Si O2"
_cell_formula_units_Z 96
_cell_length_a 8.774291
_cell_length_b 23.684314
_cell_length_c 25.476985
_cell_angle_alpha 90.000000
_cell_angle_beta 90.000000
_cell_angle_gamma 90.000000
_cell_volume 5294.450293
_symmetry_space_group_name_H-M "C M C A"
_symmetry_group_IT_number 64
_symmetry_cell_setting 'orthorhombic'
loop_
_space_group_symop_operation_xyz
x,y,z
-x,1/2-y,1/2+z
x,-y,-z
-x,1/2+y,1/2-z
-x,-y,-z
x,1/2+y,1/2-z
-x,y,z
x,1/2-y,1/2+z
1/2+x,1/2+y,z
1/2-x,-y,1/2+z
1/2+x,1/2-y,-z
1/2-x,y,1/2-z
1/2-x,1/2-y,-z
1/2+x,y,1/2-z
1/2-x,1/2+y,z
1/2+x,-y,1/2+z
loop_
_atom_site_type_symbol
_atom_site_label
_atom_site_fract_x
_atom_site_fract_y
_atom_site_fract_z
Si Si1 0.326182 0.623026 0.432171
Si Si2 0.670631 0.073320 0.529781
Si Si3 0.678705 0.738638 0.056949
Si Si4 0.324461 0.493838 0.604861
Si Si5 0.828350 0.835363 0.120559
Si Si6 0.320706 0.579451 0.694007
O O1 0.500000 0.644703 0.432228
O O2 0.291780 0.593867 0.487530
O O3 0.215903 0.675751 0.422610
O O4 0.300658 0.573845 0.388338
O O5 0.500000 0.066814 0.506399
O O6 0.723474 0.013999 0.555092
O O7 0.671741 0.119817 0.574574
O O8 0.500000 0.746042 0.050704
O O9 0.739365 0.780179 0.101569
O O10 0.750000 0.750000 0.000000
O O11 0.500000 0.508003 0.592005
O O12 0.274474 0.526068 0.657635
O O13 0.745749 0.862139 0.171064
O O14 0.000000 0.818162 0.136248
O O15 0.500000 0.586322 0.699230
O O16 0.250000 0.566371 0.750000
#
# Coordination Sequence:
#
# PCOD8262031 Si02
#       6
#    16  16  16  16  16  16
#     4  11  21  33  50  72 105 147 184 218 262 318
#     4  10  19  30  48  74 106 141 178 219 262 312
#     4  12  23  35  52  76 108 148 187 225 266 320
#     4   9  20  35  51  74 105 140 177 218 269 323
#     4  10  20  35  54  79 109 142 181 224 270 319
#     4  10  20  37  60  84 108 136 175 224 277 327
#
# _framework density 18.132193999999998
#
# number of rings (size 3 to 8) (size 9 to 14) (size 15 to 20)
#    0.000    1.667    1.667    4.000    0.000    5.333 
#    0.000    0.000    0.000    1.000    0.000    4.667 
#    0.000    0.000    0.000    0.000    0.000    0.000 
#
# Total GULP energy -595241.530228 kJ/mol
# GULP energy per Si atom -12400.865213 kJ/mol
# Density = 1.809092 g / cm^3
# Si number density = 18.132194 Si / 1000 Ang^3
#
#
#
# Elastic Constant Matrix: (Units=GPa)
#
#
# Indices 1 2 3 4 5 6 
#
# 1 110.9858 40.9568 34.0235 0.0000 0.0000 0.0000
# 2 40.9568 112.6230 27.1506 0.0000 0.0000 0.0000
# 3 34.0235 27.1506 66.1363 0.0000 0.0000 0.0000
# 4 0.0000 0.0000 0.0000 11.1946 0.0000 0.0000
# 5 0.0000 0.0000 0.0000 0.0000 27.8647 0.0000
# 6 0.0000 0.0000 0.0000 0.0000 0.0000 30.4905
#
#
#
# Elastic Compliance Matrix: (Units=1/GPa)
#
#
# Indices 1 2 3 4 5 6 
#
# 1 0.011587 -0.003082 -0.004696 0.000000 0.000000 0.000000
# 2 -0.003082 0.010674 -0.002797 0.000000 0.000000 0.000000
# 3 -0.004696 -0.002797 0.018684 0.000000 0.000000 0.000000
# 4 0.000000 0.000000 0.000000 0.089329 0.000000 0.000000
# 5 0.000000 0.000000 0.000000 0.000000 0.035888 0.000000
# 6 0.000000 0.000000 0.000000 0.000000 0.000000 0.032797
#
#
# Mechanical properties :
#
#
# Convention : Reuss Voigt Hill
#
# Bulk Modulus (GPa) = 50.51275 54.88966 52.70120
# Shear Modulus (GPa) = 22.05502 26.41757 24.23630
#
# Velocity S-wave (km/s) = 3.49140 3.82113 3.65998
# Velocity P-wave (km/s) = 6.64618 7.05732 6.85483
#
# Compressibility (1/GPa) = 0.01979698
#
# Stress axis : x y z
#
# Youngs Moduli (GPa) = 86.30435 93.68485 53.52162
#
# Poissons Ratio (x) = 0.28871 0.25132
# Poissons Ratio (y) = 0.26597 0.14968
# Poissons Ratio (z) = 0.40526 0.26200
#
# Static dielectric constant tensor:
#      x y z
#    x 3.561940 0.000000 0.000000 
#    y 0.000000 3.578900 0.000000 
#    z 0.000000 0.000000 2.552140 
# 
# 
# High freq. dielectric constant tensor:
#      x y z
#    x 1.718730 0.000000 0.000000 
#    y 0.000000 1.709340 0.000000 
#    z 0.000000 0.000000 1.661960 
# 
# From -- ./inp_files/42970.got.cif
#   From: 2010.03.12/outbox.cif.g09.slc.cpg/sg64_22_cif.got.tgz:42970.got - 2010.04.10 20:19:32.
