data_PCOD8262938
_publ_section_title
;
Structure prediction by ZEFSAII (Michael W. Deem and Ramdas Pophale) SiO2 
 PCOD8262938
Probable space group: C M C A
;
_chemical_formula_sum "Si O2"
_cell_formula_units_Z 96
_cell_length_a 8.981858
_cell_length_b 20.114346
_cell_length_c 27.639298
_cell_angle_alpha 90.000000
_cell_angle_beta 90.000000
_cell_angle_gamma 90.000000
_cell_volume 4993.431649
_symmetry_space_group_name_H-M "C M C A"
_symmetry_group_IT_number 64
_symmetry_cell_setting 'orthorhombic'
loop_
_space_group_symop_operation_xyz
x,y,z
-x,1/2-y,1/2+z
x,-y,-z
-x,1/2+y,1/2-z
-x,-y,-z
x,1/2+y,1/2-z
-x,y,z
x,1/2-y,1/2+z
1/2+x,1/2+y,z
1/2-x,-y,1/2+z
1/2+x,1/2-y,-z
1/2-x,y,1/2-z
1/2-x,1/2-y,-z
1/2+x,y,1/2-z
1/2-x,1/2+y,z
1/2+x,-y,1/2+z
loop_
_atom_site_type_symbol
_atom_site_label
_atom_site_fract_x
_atom_site_fract_y
_atom_site_fract_z
Si Si1 0.828638 0.360791 0.542937
Si Si2 0.329323 0.741103 0.610529
Si Si3 0.174083 0.296393 0.798738
Si Si4 0.672723 0.511092 0.106231
Si Si5 0.827972 0.892269 0.445073
Si Si6 0.324753 0.550463 0.299316
O O1 0.784725 0.291343 0.567710
O O2 0.797912 0.418383 0.581501
O O3 0.720747 0.368786 0.497810
O O4 0.000000 0.361668 0.525486
O O5 0.500000 0.753897 0.625450
O O6 0.227242 0.751594 0.656991
O O7 0.301753 0.666604 0.592890
O O8 0.250000 0.269708 0.750000
O O9 0.219267 0.372819 0.808140
O O10 0.000000 0.288064 0.792312
O O11 0.500000 0.499551 0.117168
O O12 0.729871 0.454762 0.070144
O O13 0.761822 0.507234 0.156497
O O14 0.000000 0.913349 0.447051
O O15 0.500000 0.539738 0.295554
O O16 0.250000 0.524439 0.250000
#
# Coordination Sequence:
#
# PCOD8262938 Si02
#       6
#    16  16  16  16  16  16
#     4  10  21  38  60  83 110 150 197 238 282 335
#     4  10  21  39  59  83 116 152 190 235 284 336
#     4  10  20  34  58  88 116 147 185 233 282 335
#     4  11  22  38  60  84 115 153 191 235 285 337
#     4  11  24  38  56  83 118 154 190 237 287 338
#     4  10  20  35  58  88 117 146 186 233 283 336
#
# _framework density 19.225255000000001
#
# number of rings (size 3 to 8) (size 9 to 14) (size 15 to 20)
#    0.000    1.667    1.667    3.000    0.000    6.667 
#    0.000    0.833    0.000    4.000    0.000    0.000 
#    0.000    0.000    0.000    0.000    0.000    0.000 
#
# Total GULP energy -595527.416688 kJ/mol
# GULP energy per Si atom -12406.821181 kJ/mol
# Density = 1.918150 g / cm^3
# Si number density = 19.225255 Si / 1000 Ang^3
#
#
#
# Elastic Constant Matrix: (Units=GPa)
#
#
# Indices 1 2 3 4 5 6 
#
# 1 86.4615 22.8675 46.7264 0.0000 0.0000 0.0000
# 2 22.8675 37.8143 -4.7043 0.0000 0.0000 0.0000
# 3 46.7264 -4.7043 95.5956 0.0000 0.0000 0.0000
# 4 0.0000 0.0000 0.0000 5.0153 0.0000 0.0000
# 5 0.0000 0.0000 0.0000 0.0000 43.4635 0.0000
# 6 0.0000 0.0000 0.0000 0.0000 0.0000 26.4912
#
#
#
# Elastic Compliance Matrix: (Units=1/GPa)
#
#
# Indices 1 2 3 4 5 6 
#
# 1 0.021382 -0.014318 -0.011156 0.000000 0.000000 0.000000
# 2 -0.014318 0.036196 0.008780 0.000000 0.000000 0.000000
# 3 -0.011156 0.008780 0.016346 0.000000 0.000000 0.000000
# 4 0.000000 0.000000 0.000000 0.199391 0.000000 0.000000
# 5 0.000000 0.000000 0.000000 0.000000 0.023008 0.000000
# 6 0.000000 0.000000 0.000000 0.000000 0.000000 0.037748
#
#
# Mechanical properties :
#
#
# Convention : Reuss Voigt Hill
#
# Bulk Modulus (GPa) = 24.67002 38.85006 31.76004
# Shear Modulus (GPa) = 13.12440 25.32611 19.22526
#
# Velocity S-wave (km/s) = 2.61562 3.63345 3.16571
# Velocity P-wave (km/s) = 4.68849 6.15258 5.46974
#
# Compressibility (1/GPa) = 0.04053502
#
# Stress axis : x y z
#
# Youngs Moduli (GPa) = 46.76924 27.62753 61.17850
#
# Poissons Ratio (x) = 0.39557 0.68249
# Poissons Ratio (y) = 0.66964 -0.53713
# Poissons Ratio (z) = 0.52175 -0.24256
#
# Static dielectric constant tensor:
#      x y z
#    x 3.524340 0.000000 0.000000 
#    y 0.000000 3.388040 0.000000 
#    z 0.000000 0.000000 3.474380 
# 
# 
# High freq. dielectric constant tensor:
#      x y z
#    x 1.756770 0.000000 0.000000 
#    y 0.000000 1.732800 0.000000 
#    z 0.000000 0.000000 1.757040 
# 
# From -- ./inp_files/48026.got.cif
#   From: 2010.03.12/outbox.cif.g09.slc.cpg/sg64_25_cif.got.tgz:48026.got - 2010.04.10 20:19:32.
