data_PCOD8262224
_publ_section_title
;
Structure prediction by ZEFSAII (Michael W. Deem and Ramdas Pophale) SiO2 
 PCOD8262224
Probable space group: C M C A
;
_chemical_formula_sum "Si O2"
_cell_formula_units_Z 80
_cell_length_a 13.697349
_cell_length_b 21.712498
_cell_length_c 14.171475
_cell_angle_alpha 90.000000
_cell_angle_beta 90.000000
_cell_angle_gamma 90.000000
_cell_volume 4214.648572
_symmetry_space_group_name_H-M "C M C A"
_symmetry_group_IT_number 64
_symmetry_cell_setting 'orthorhombic'
loop_
_space_group_symop_operation_xyz
x,y,z
-x,1/2-y,1/2+z
x,-y,-z
-x,1/2+y,1/2-z
-x,-y,-z
x,1/2+y,1/2-z
-x,y,z
x,1/2-y,1/2+z
1/2+x,1/2+y,z
1/2-x,-y,1/2+z
1/2+x,1/2-y,-z
1/2-x,y,1/2-z
1/2-x,1/2-y,-z
1/2+x,y,1/2-z
1/2-x,1/2+y,z
1/2+x,-y,1/2+z
loop_
_atom_site_type_symbol
_atom_site_label
_atom_site_fract_x
_atom_site_fract_y
_atom_site_fract_z
Si Si1 0.115887 0.568917 0.002725
Si Si2 0.114582 0.673904 0.870658
Si Si3 0.386245 0.771371 0.322873
Si Si4 0.386835 0.200683 0.468691
Si Si5 0.776848 0.644609 0.150619
O O1 0.156387 0.610250 0.914745
O O2 0.000000 0.567057 0.001187
O O3 0.159661 0.500000 0.000000
O O4 0.148079 0.599576 0.100101
O O5 0.153568 0.687632 0.765005
O O6 0.143986 0.729475 0.941280
O O7 0.000000 0.667631 0.866211
O O8 0.500000 0.755197 0.309914
O O9 0.368265 0.808750 0.419602
O O10 0.327818 0.708586 0.324338
O O11 0.500000 0.188615 0.442472
O O12 0.320822 0.152698 0.411970
O O13 0.750000 0.612883 0.250000
#
# Coordination Sequence:
#
# PCOD8262224 Si02
#       5
#    16  16  16  16  16
#     4  10  22  41  61  80 109 150 192 232 268 320
#     4   9  17  32  55  82 110 141 179 223 275 332
#     4  10  19  32  52  84 117 142 175 228 288 340
#     4  10  20  33  51  82 119 146 177 228 288 339
#     4  12  22  33  56  83 114 144 185 226 285 335
#
# _framework density 18.981418000000001
#
# number of rings (size 3 to 8) (size 9 to 14) (size 15 to 20)
#    0.000    1.800    4.000    1.200    0.000    0.800 
#    0.000    2.000    0.000    0.600    0.000    0.000 
#    0.000    0.000    0.000    0.000    0.000    0.000 
#
# Total GULP energy -495899.984517 kJ/mol
# GULP energy per Si atom -12397.499613 kJ/mol
# Density = 1.893822 g / cm^3
# Si number density = 18.981418 Si / 1000 Ang^3
#
#
#
# Elastic Constant Matrix: (Units=GPa)
#
#
# Indices 1 2 3 4 5 6 
#
# 1 26.3567 19.9405 22.6774 0.0000 0.0000 0.0000
# 2 19.9405 85.1318 50.3597 0.0000 0.0000 0.0000
# 3 22.6774 50.3597 165.2693 0.0000 0.0000 0.0000
# 4 0.0000 0.0000 0.0000 19.7484 0.0000 0.0000
# 5 0.0000 0.0000 0.0000 0.0000 22.4723 0.0000
# 6 0.0000 0.0000 0.0000 0.0000 0.0000 12.4593
#
#
#
# Elastic Compliance Matrix: (Units=1/GPa)
#
#
# Indices 1 2 3 4 5 6 
#
# 1 0.048049 -0.008972 -0.003859 0.000000 0.000000 0.000000
# 2 -0.008972 0.016005 -0.003646 0.000000 0.000000 0.000000
# 3 -0.003859 -0.003646 0.007691 0.000000 0.000000 0.000000
# 4 0.000000 0.000000 0.000000 0.050637 0.000000 0.000000
# 5 0.000000 0.000000 0.000000 0.000000 0.044499 0.000000
# 6 0.000000 0.000000 0.000000 0.000000 0.000000 0.080261
#
#
# Mechanical properties :
#
#
# Convention : Reuss Voigt Hill
#
# Bulk Modulus (GPa) = 25.77882 51.41256 38.59569
# Shear Modulus (GPa) = 17.06333 23.18803 20.12568
#
# Velocity S-wave (km/s) = 3.00150 3.49896 3.25973
# Velocity P-wave (km/s) = 5.06187 6.59304 5.87753
#
# Compressibility (1/GPa) = 0.03879154
#
# Stress axis : x y z
#
# Youngs Moduli (GPa) = 20.81205 62.48222 130.01889
#
# Poissons Ratio (x) = 0.56057 0.50178
# Poissons Ratio (y) = 0.18672 0.47402
# Poissons Ratio (z) = 0.08032 0.22779
#
# Static dielectric constant tensor:
#      x y z
#    x 3.561710 0.000000 0.000000 
#    y 0.000000 3.362850 0.000000 
#    z 0.000000 0.000000 4.033150 
# 
# 
# High freq. dielectric constant tensor:
#      x y z
#    x 1.746040 0.000000 0.000000 
#    y 0.000000 1.680930 0.000000 
#    z 0.000000 0.000000 1.756450 
# 
# From -- ./inp_files/14454.got.cif
#   From: 2010.03.12/outbox.cif.g09.slc.cpg/sg64_8_cif.got.tgz:14454.got - 2010.04.10 20:19:32.
