data_PCOD8262697
_publ_section_title
;
Structure prediction by ZEFSAII (Michael W. Deem and Ramdas Pophale) SiO2 
 PCOD8262697
Probable space group: C M C A
;
_chemical_formula_sum "Si O2"
_cell_formula_units_Z 80
_cell_length_a 16.921286
_cell_length_b 13.904158
_cell_length_c 19.352950
_cell_angle_alpha 90.000000
_cell_angle_beta 90.000000
_cell_angle_gamma 90.000000
_cell_volume 4553.289195
_symmetry_space_group_name_H-M "C M C A"
_symmetry_group_IT_number 64
_symmetry_cell_setting 'orthorhombic'
loop_
_space_group_symop_operation_xyz
x,y,z
-x,1/2-y,1/2+z
x,-y,-z
-x,1/2+y,1/2-z
-x,-y,-z
x,1/2+y,1/2-z
-x,y,z
x,1/2-y,1/2+z
1/2+x,1/2+y,z
1/2-x,-y,1/2+z
1/2+x,1/2-y,-z
1/2-x,y,1/2-z
1/2-x,1/2-y,-z
1/2+x,y,1/2-z
1/2-x,1/2+y,z
1/2+x,-y,1/2+z
loop_
_atom_site_type_symbol
_atom_site_label
_atom_site_fract_x
_atom_site_fract_y
_atom_site_fract_z
Si Si1 0.091802 0.629063 0.022682
Si Si2 0.655204 0.952054 0.102808
Si Si3 0.090853 0.758388 0.652489
Si Si4 0.303766 0.421975 0.186263
Si Si5 0.090768 0.047000 0.270042
O O1 0.143544 0.546364 0.057463
O O2 0.103123 0.723378 0.070065
O O3 0.000000 0.598563 0.022358
O O4 0.124068 0.639344 0.943505
O O5 0.748179 0.941901 0.120239
O O6 0.603443 0.963013 0.172622
O O7 0.138860 0.665531 0.671925
O O8 0.117970 0.850709 0.698080
O O9 0.000000 0.737048 0.668799
O O10 0.250000 0.390419 0.250000
O O11 0.354402 0.518466 0.204513
O O12 0.000000 0.049348 0.246686
#
# Coordination Sequence:
#
# PCOD8262697 Si02
#       5
#    16  16  16  16  16
#     4   9  16  29  50  69  88 120 162 198 226 269
#     4   9  16  27  44  70  93 114 148 191 237 269
#     4   9  18  31  47  66  89 122 158 191 229 273
#     4  10  20  29  43  70  98 121 148 188 237 283
#     4   9  17  31  49  65  88 122 157 192 228 273
#
# _framework density 17.569716
#
# number of rings (size 3 to 8) (size 9 to 14) (size 15 to 20)
#    0.000    2.800    0.000    4.200    0.000    4.800 
#    0.000    0.000    0.000    0.000    0.000   19.600 
#    0.000    0.000    0.000    0.000    0.000    0.000 
#
# Total GULP energy -495563.464002 kJ/mol
# GULP energy per Si atom -12389.086600 kJ/mol
# Density = 1.752973 g / cm^3
# Si number density = 17.569716 Si / 1000 Ang^3
#
#
#
# Elastic Constant Matrix: (Units=GPa)
#
#
# Indices 1 2 3 4 5 6 
#
# 1 99.6934 42.6674 44.8514 0.0000 0.0000 0.0000
# 2 42.6674 50.5150 21.0102 0.0000 0.0000 0.0000
# 3 44.8514 21.0102 60.1981 0.0000 0.0000 0.0000
# 4 0.0000 0.0000 0.0000 15.4335 0.0000 0.0000
# 5 0.0000 0.0000 0.0000 0.0000 37.0771 0.0000
# 6 0.0000 0.0000 0.0000 0.0000 0.0000 -1.1087
#
#
#
# Elastic Compliance Matrix: (Units=1/GPa)
#
#
# Indices 1 2 3 4 5 6 
#
# 1 0.020252 -0.012669 -0.010667 0.000000 0.000000 0.000000
# 2 -0.012669 0.031083 -0.001409 0.000000 0.000000 0.000000
# 3 -0.010667 -0.001409 0.025052 0.000000 0.000000 0.000000
# 4 0.000000 0.000000 0.000000 0.064794 0.000000 0.000000
# 5 0.000000 0.000000 0.000000 0.000000 0.026971 0.000000
# 6 0.000000 0.000000 0.000000 0.000000 0.000000 -0.901946
#
#
# Mechanical properties :
#
#
# Convention : Reuss Voigt Hill
#
# Bulk Modulus (GPa) = 37.18117 47.49605 42.33861
# Shear Modulus (GPa) = -7.40371 17.07222 4.83426
#
# Velocity S-wave (km/s) = -2.05501 3.12057 1.66056
# Velocity P-wave (km/s) = 3.94681 6.33052 5.27507
#
# Compressibility (1/GPa) = 0.02689534
#
# Stress axis : x y z
#
# Youngs Moduli (GPa) = 49.37731 32.17164 39.91774
#
# Poissons Ratio (x) = 0.40759 0.42582
# Poissons Ratio (y) = 0.62557 0.05625
# Poissons Ratio (z) = 0.52673 0.04534
#
# Static dielectric constant tensor:
#      x y z
#    x 3.340730 0.000000 0.000000 
#    y 0.000000 2.917870 0.000000 
#    z 0.000000 0.000000 3.814480 
# 
# 
# High freq. dielectric constant tensor:
#      x y z
#    x 1.683400 0.000000 0.000000 
#    y 0.000000 1.640690 0.000000 
#    z 0.000000 0.000000 1.672910 
# 
# From -- ./inp_files/32059.got.cif
#   From: 2010.03.12/outbox.cif.g09.slc.cpg/sg64_17_cif.got.tgz:32059.got - 2010.04.10 20:19:32.
