data_PCOD8262393
_publ_section_title
;
Structure prediction by ZEFSAII (Michael W. Deem and Ramdas Pophale) SiO2 
 PCOD8262393
Probable space group: C M C A
;
_chemical_formula_sum "Si O2"
_cell_formula_units_Z 96
_cell_length_a 9.084308
_cell_length_b 25.408577
_cell_length_c 23.617095
_cell_angle_alpha 90.000000
_cell_angle_beta 90.000000
_cell_angle_gamma 90.000000
_cell_volume 5451.282264
_symmetry_space_group_name_H-M "C M C A"
_symmetry_group_IT_number 64
_symmetry_cell_setting 'orthorhombic'
loop_
_space_group_symop_operation_xyz
x,y,z
-x,1/2-y,1/2+z
x,-y,-z
-x,1/2+y,1/2-z
-x,-y,-z
x,1/2+y,1/2-z
-x,y,z
x,1/2-y,1/2+z
1/2+x,1/2+y,z
1/2-x,-y,1/2+z
1/2+x,1/2-y,-z
1/2-x,y,1/2-z
1/2-x,1/2-y,-z
1/2+x,y,1/2-z
1/2-x,1/2+y,z
1/2+x,-y,1/2+z
loop_
_atom_site_type_symbol
_atom_site_label
_atom_site_fract_x
_atom_site_fract_y
_atom_site_fract_z
Si Si1 0.173919 0.055034 0.691915
Si Si2 0.670020 0.839565 0.880863
Si Si3 0.174117 0.151342 0.620796
Si Si4 0.329075 0.936870 0.807029
Si Si5 0.328627 0.305421 0.496103
Si Si6 0.325689 0.747998 0.190129
O O1 0.250000 0.072120 0.750000
O O2 0.231054 0.094776 0.643117
O O3 0.000000 0.060153 0.700473
O O4 0.220872 0.995683 0.674908
O O5 0.500000 0.825263 0.867593
O O6 0.710157 0.897600 0.858070
O O7 0.700255 0.839999 0.947977
O O8 0.776010 0.797645 0.852077
O O9 0.235773 0.162290 0.557659
O O10 0.227201 0.196701 0.663822
O O11 0.000000 0.151100 0.618271
O O12 0.500000 0.936207 0.792673
O O13 0.250000 0.917744 0.750000
O O14 0.500000 0.293444 0.487415
O O15 0.250000 0.250000 0.500000
O O16 0.500000 0.745145 0.197880
O O17 0.250000 0.739397 0.250000
#
# Coordination Sequence:
#
# PCOD8262393 Si02
#       6
#    16  16  16  16  16  16
#     4   9  17  32  52  72  98 129 162 201 246 295
#     4  10  20  33  50  73 100 129 165 205 243 292
#     4   9  18  32  50  72  98 128 162 203 247 291
#     4   9  18  32  50  73  98 128 163 200 245 293
#     4  10  19  34  52  71  98 132 168 203 244 293
#     4  11  21  32  48  72 101 129 161 201 249 298
#
# _framework density 17.610536
#
# number of rings (size 3 to 8) (size 9 to 14) (size 15 to 20)
#    0.000    2.333    1.667    1.500    0.000    2.000 
#    0.000    2.500    0.000    5.000    0.000    0.000 
#    0.000    8.000    0.000    0.000    0.000    0.000 
#
# Total GULP energy -595156.042716 kJ/mol
# GULP energy per Si atom -12399.084223 kJ/mol
# Density = 1.757045 g / cm^3
# Si number density = 17.610536 Si / 1000 Ang^3
#
#
#
# Elastic Constant Matrix: (Units=GPa)
#
#
# Indices 1 2 3 4 5 6 
#
# 1 37.2481 28.2160 32.0970 0.0000 0.0000 0.0000
# 2 28.2160 119.4236 65.1374 0.0000 0.0000 0.0000
# 3 32.0970 65.1374 118.3771 0.0000 0.0000 0.0000
# 4 0.0000 0.0000 0.0000 29.3686 0.0000 0.0000
# 5 0.0000 0.0000 0.0000 0.0000 19.2697 0.0000
# 6 0.0000 0.0000 0.0000 0.0000 0.0000 22.4690
#
#
#
# Elastic Compliance Matrix: (Units=1/GPa)
#
#
# Indices 1 2 3 4 5 6 
#
# 1 0.036748 -0.004640 -0.007410 0.000000 0.000000 0.000000
# 2 -0.004640 0.012550 -0.005648 0.000000 0.000000 0.000000
# 3 -0.007410 -0.005648 0.013565 0.000000 0.000000 0.000000
# 4 0.000000 0.000000 0.000000 0.034050 0.000000 0.000000
# 5 0.000000 0.000000 0.000000 0.000000 0.051895 0.000000
# 6 0.000000 0.000000 0.000000 0.000000 0.000000 0.044506
#
#
# Mechanical properties :
#
#
# Convention : Reuss Voigt Hill
#
# Bulk Modulus (GPa) = 36.40916 58.43884 47.42400
# Shear Modulus (GPa) = 21.02025 24.19467 22.60746
#
# Velocity S-wave (km/s) = 3.45863 3.71060 3.58683
# Velocity P-wave (km/s) = 6.05549 7.18430 6.64391
#
# Compressibility (1/GPa) = 0.02746562
#
# Stress axis : x y z
#
# Youngs Moduli (GPa) = 27.21243 79.67893 73.72176
#
# Poissons Ratio (x) = 0.36975 0.54631
# Poissons Ratio (y) = 0.12628 0.41636
# Poissons Ratio (z) = 0.20166 0.45000
#
# Static dielectric constant tensor:
#      x y z
#    x 3.140530 0.000000 0.000000 
#    y 0.000000 3.532430 0.000000 
#    z 0.000000 0.000000 3.615210 
# 
# 
# High freq. dielectric constant tensor:
#      x y z
#    x 1.663480 0.000000 0.000000 
#    y 0.000000 1.682860 0.000000 
#    z 0.000000 0.000000 1.682880 
# 
# From -- ./inp_files/36988.got.cif
#   From: 2010.03.12/outbox.cif.g09.slc.cpg/sg64_19_cif.got.tgz:36988.got - 2010.04.10 20:19:32.
