data_PCOD8262892
_publ_section_title
;
Structure prediction by ZEFSAII (Michael W. Deem and Ramdas Pophale) SiO2 
 PCOD8262892
Probable space group: C M C A
;
_chemical_formula_sum "Si O2"
_cell_formula_units_Z 104
_cell_length_a 8.997207
_cell_length_b 26.815338
_cell_length_c 21.511222
_cell_angle_alpha 90.000000
_cell_angle_beta 90.000000
_cell_angle_gamma 90.000000
_cell_volume 5189.865110
_symmetry_space_group_name_H-M "C M C A"
_symmetry_group_IT_number 64
_symmetry_cell_setting 'orthorhombic'
loop_
_space_group_symop_operation_xyz
x,y,z
-x,1/2-y,1/2+z
x,-y,-z
-x,1/2+y,1/2-z
-x,-y,-z
x,1/2+y,1/2-z
-x,y,z
x,1/2-y,1/2+z
1/2+x,1/2+y,z
1/2-x,-y,1/2+z
1/2+x,1/2-y,-z
1/2-x,y,1/2-z
1/2-x,1/2-y,-z
1/2+x,y,1/2-z
1/2-x,1/2+y,z
1/2+x,-y,1/2+z
loop_
_atom_site_type_symbol
_atom_site_label
_atom_site_fract_x
_atom_site_fract_y
_atom_site_fract_z
Si Si1 0.172224 0.722353 0.590594
Si Si2 0.821218 0.153926 0.682765
Si Si3 0.837672 0.411649 0.580888
Si Si4 0.169827 0.678031 0.027379
Si Si5 0.175333 0.540916 0.186458
Si Si6 0.668269 0.554263 0.618518
Si Si7 0.733175 0.500000 0.000000
O O1 0.246501 0.704232 0.655194
O O2 0.180530 0.782506 0.584386
O O3 0.273720 0.701141 0.536214
O O4 0.000000 0.704886 0.585889
O O5 0.750000 0.143572 0.750000
O O6 0.767974 0.108977 0.635801
O O7 0.000000 0.159599 0.687483
O O8 0.774386 0.368804 0.537749
O O9 0.721334 0.417443 0.636652
O O10 0.862078 0.462575 0.541767
O O11 0.000000 0.396595 0.606442
O O12 0.000000 0.660516 0.017688
O O13 0.250000 0.556248 0.250000
O O14 0.241459 0.487803 0.163060
O O15 0.000000 0.541147 0.193490
O O16 0.500000 0.556799 0.639298
O O17 0.674660 0.536696 0.546396
#
# Coordination Sequence:
#
# PCOD8262892 Si02
#       7
#    16  16  16  16  16  16   8
#     4  10  21  38  60  85 113 145 183 230 284 341
#     4  11  22  37  57  84 118 156 198 241 291 348
#     4  11  22  36  55  81 113 147 184 226 274 326
#     4  10  21  38  60  86 114 145 184 230 283 340
#     4  10  20  36  55  76 105 142 183 224 268 321
#     4   9  19  33  53  81 113 150 188 230 279 333
#     4  10  20  34  54  84 119 152 189 234 281 334
#
# _framework density 20.039055000000001
#
# number of rings (size 3 to 8) (size 9 to 14) (size 15 to 20)
#    0.000    1.846    0.000    4.154    0.000    4.923 
#    0.000    8.462    0.000    3.692    0.000    0.000 
#    0.000    0.000    0.000    0.000    0.000    0.000 
#
# Total GULP energy -644416.015816 kJ/mol
# GULP energy per Si atom -12392.615689 kJ/mol
# Density = 1.999345 g / cm^3
# Si number density = 20.039055 Si / 1000 Ang^3
#
#
#
# Elastic Constant Matrix: (Units=GPa)
#
#
# Indices 1 2 3 4 5 6 
#
# 1 114.0645 34.5017 27.3067 0.0000 0.0000 0.0000
# 2 34.5017 73.2369 29.1293 0.0000 0.0000 0.0000
# 3 27.3067 29.1293 100.2884 0.0000 0.0000 0.0000
# 4 0.0000 0.0000 0.0000 29.2232 0.0000 0.0000
# 5 0.0000 0.0000 0.0000 0.0000 32.1220 0.0000
# 6 0.0000 0.0000 0.0000 0.0000 0.0000 23.1940
#
#
#
# Elastic Compliance Matrix: (Units=1/GPa)
#
#
# Indices 1 2 3 4 5 6 
#
# 1 0.010446 -0.004285 -0.001600 0.000000 0.000000 0.000000
# 2 -0.004285 0.017195 -0.003828 0.000000 0.000000 0.000000
# 3 -0.001600 -0.003828 0.011519 0.000000 0.000000 0.000000
# 4 0.000000 0.000000 0.000000 0.034219 0.000000 0.000000
# 5 0.000000 0.000000 0.000000 0.000000 0.031131 0.000000
# 6 0.000000 0.000000 0.000000 0.000000 0.000000 0.043115
#
#
# Mechanical properties :
#
#
# Convention : Reuss Voigt Hill
#
# Bulk Modulus (GPa) = 50.67060 52.16282 51.41671
# Shear Modulus (GPa) = 28.79716 30.01799 29.40757
#
# Velocity S-wave (km/s) = 3.79496 3.87457 3.83497
# Velocity P-wave (km/s) = 6.67406 6.78995 6.73226
#
# Compressibility (1/GPa) = 0.01973531
#
# Stress axis : x y z
#
# Youngs Moduli (GPa) = 95.73061 58.15520 86.81597
#
# Poissons Ratio (x) = 0.24918 0.13888
# Poissons Ratio (y) = 0.41019 0.33232
# Poissons Ratio (z) = 0.15314 0.22261
#
# Static dielectric constant tensor:
#      x y z
#    x 3.539550 0.000000 0.000000 
#    y 0.000000 3.851810 0.000000 
#    z 0.000000 0.000000 3.566590 
# 
# 
# High freq. dielectric constant tensor:
#      x y z
#    x 1.782460 0.000000 0.000000 
#    y 0.000000 1.777510 0.000000 
#    z 0.000000 0.000000 1.773150 
# 
# From -- ./inp_files/37263.got.cif
#   From: 2010.03.12/outbox.cif.g09.slc.cpg/sg64_19_cif.got.tgz:37263.got - 2010.04.10 20:19:32.
