data_PCOD8262148
_publ_section_title
;
Structure prediction by ZEFSAII (Michael W. Deem and Ramdas Pophale) SiO2 
 PCOD8262148
Probable space group: C M C A
;
_chemical_formula_sum "Si O2"
_cell_formula_units_Z 128
_cell_length_a 25.656956
_cell_length_b 21.831865
_cell_length_c 12.586026
_cell_angle_alpha 90.000000
_cell_angle_beta 90.000000
_cell_angle_gamma 90.000000
_cell_volume 7049.926531
_symmetry_space_group_name_H-M "C M C A"
_symmetry_group_IT_number 64
_symmetry_cell_setting 'orthorhombic'
loop_
_space_group_symop_operation_xyz
x,y,z
-x,1/2-y,1/2+z
x,-y,-z
-x,1/2+y,1/2-z
-x,-y,-z
x,1/2+y,1/2-z
-x,y,z
x,1/2-y,1/2+z
1/2+x,1/2+y,z
1/2-x,-y,1/2+z
1/2+x,1/2-y,-z
1/2-x,y,1/2-z
1/2-x,1/2-y,-z
1/2+x,y,1/2-z
1/2-x,1/2+y,z
1/2+x,-y,1/2+z
loop_
_atom_site_type_symbol
_atom_site_label
_atom_site_fract_x
_atom_site_fract_y
_atom_site_fract_z
Si Si1 0.635739 0.674115 0.697303
Si Si2 0.691128 0.934190 0.720273
Si Si3 0.196643 0.573594 0.688762
Si Si4 0.294628 0.178039 0.991400
Si Si5 0.816996 0.354506 0.518764
Si Si6 0.144583 0.566484 0.053358
Si Si7 0.439180 0.157186 0.988835
Si Si8 0.623904 0.255870 0.093073
O O1 0.650553 0.608964 0.749664
O O2 0.683631 0.700231 0.624298
O O3 0.583592 0.665690 0.629127
O O4 0.621041 0.724087 0.785276
O O5 0.750000 0.916493 0.750000
O O6 0.671616 0.886033 0.631554
O O7 0.653682 0.933726 0.821085
O O8 0.686728 0.002224 0.675555
O O9 0.250000 0.588636 0.750000
O O10 0.198740 0.595449 0.568020
O O11 0.233890 0.190572 0.016043
O O12 0.309428 0.105517 0.997073
O O13 0.326753 0.210669 0.084980
O O14 0.867131 0.314425 0.485079
O O15 0.146027 0.500000 0.000000
O O16 0.088033 0.597324 0.038659
O O17 0.500000 0.145070 0.983352
O O18 0.427665 0.218766 0.057833
#
# Coordination Sequence:
#
# PCOD8262148 Si02
#       8
#    16  16  16  16  16  16  16  16
#     4   9  18  36  55  79 105 145 189 230 278 335
#     4  11  21  30  50  81 115 156 184 222 270 330
#     4  10  19  31  53  77 114 157 189 218 261 332
#     4  10  19  33  50  76 112 152 186 222 265 332
#     4  11  20  33  47  80 114 153 197 216 262 331
#     4  10  21  36  56  81 117 146 185 233 280 338
#     4  10  23  42  61  81 104 139 193 252 299 333
#     4   9  21  34  53  77 108 140 183 239 283 335
#
# _framework density 18.156217999999999
#
# number of rings (size 3 to 8) (size 9 to 14) (size 15 to 20)
#    0.000    2.250    2.500    2.250    1.750    4.750 
#    0.000    0.000    0.000    0.000    0.000    0.000 
#    0.000    7.000    0.000    0.000    0.000    0.000 
#
# Total GULP energy -793312.786837 kJ/mol
# GULP energy per Si atom -12395.512294 kJ/mol
# Density = 1.811489 g / cm^3
# Si number density = 18.156218 Si / 1000 Ang^3
#
#
#
# Elastic Constant Matrix: (Units=GPa)
#
#
# Indices 1 2 3 4 5 6 
#
# 1 77.8977 16.6565 32.9685 0.0000 0.0000 0.0000
# 2 16.6565 74.0485 43.3097 0.0000 0.0000 0.0000
# 3 32.9685 43.3097 126.7054 0.0000 0.0000 0.0000
# 4 0.0000 0.0000 0.0000 28.9088 0.0000 0.0000
# 5 0.0000 0.0000 0.0000 0.0000 15.7487 0.0000
# 6 0.0000 0.0000 0.0000 0.0000 0.0000 19.0615
#
#
#
# Elastic Compliance Matrix: (Units=1/GPa)
#
#
# Indices 1 2 3 4 5 6 
#
# 1 0.014529 -0.001321 -0.003329 0.000000 0.000000 0.000000
# 2 -0.001321 0.016999 -0.005467 0.000000 0.000000 0.000000
# 3 -0.003329 -0.005467 0.010627 0.000000 0.000000 0.000000
# 4 0.000000 0.000000 0.000000 0.034591 0.000000 0.000000
# 5 0.000000 0.000000 0.000000 0.000000 0.063497 0.000000
# 6 0.000000 0.000000 0.000000 0.000000 0.000000 0.052462
#
#
# Mechanical properties :
#
#
# Convention : Reuss Voigt Hill
#
# Bulk Modulus (GPa) = 45.61714 51.61346 48.61530
# Shear Modulus (GPa) = 22.70187 25.12494 23.91340
#
# Velocity S-wave (km/s) = 3.53988 3.72401 3.63311
# Velocity P-wave (km/s) = 6.47202 6.85421 6.66585
#
# Compressibility (1/GPa) = 0.02192159
#
# Stress axis : x y z
#
# Youngs Moduli (GPa) = 68.82945 58.82591 94.09905
#
# Poissons Ratio (x) = 0.07772 0.31323
# Poissons Ratio (y) = 0.09093 0.51442
# Poissons Ratio (z) = 0.22912 0.32159
#
# Static dielectric constant tensor:
#      x y z
#    x 2.931620 0.000000 0.000000 
#    y 0.000000 3.518850 0.000000 
#    z 0.000000 0.000000 3.445000 
# 
# 
# High freq. dielectric constant tensor:
#      x y z
#    x 1.651260 0.000000 0.000000 
#    y 0.000000 1.716900 0.000000 
#    z 0.000000 0.000000 1.714060 
# 
# From -- ./inp_files/19416.got.cif
#   From: 2010.03.12/outbox.cif.g09.slc.cpg/sg64_10_cif.got.tgz:19416.got - 2010.04.10 20:19:32.
