data_PCOD8262570
_publ_section_title
;
Structure prediction by ZEFSAII (Michael W. Deem and Ramdas Pophale) SiO2 
 PCOD8262570
Probable space group: C M C A
;
_chemical_formula_sum "Si O2"
_cell_formula_units_Z 56
_cell_length_a 8.014549
_cell_length_b 13.109462
_cell_length_c 30.374531
_cell_angle_alpha 90.000000
_cell_angle_beta 90.000000
_cell_angle_gamma 90.000000
_cell_volume 3191.343400
_symmetry_space_group_name_H-M "C M C A"
_symmetry_group_IT_number 64
_symmetry_cell_setting 'orthorhombic'
loop_
_space_group_symop_operation_xyz
x,y,z
-x,1/2-y,1/2+z
x,-y,-z
-x,1/2+y,1/2-z
-x,-y,-z
x,1/2+y,1/2-z
-x,y,z
x,1/2-y,1/2+z
1/2+x,1/2+y,z
1/2-x,-y,1/2+z
1/2+x,1/2-y,-z
1/2-x,y,1/2-z
1/2-x,1/2-y,-z
1/2+x,y,1/2-z
1/2-x,1/2+y,z
1/2+x,-y,1/2+z
loop_
_atom_site_type_symbol
_atom_site_label
_atom_site_fract_x
_atom_site_fract_y
_atom_site_fract_z
Si Si1 0.500000 0.374627 0.652936
Si Si2 0.250070 0.000000 0.500000
Si Si3 0.812800 0.968536 0.298141
Si Si4 0.000000 0.860018 0.158915
Si Si5 0.000000 0.876005 0.055724
Si Si6 0.500000 0.137580 0.049752
O O1 0.333711 0.428182 0.673061
O O2 0.500000 0.259141 0.667931
O O3 0.500000 0.387919 0.600944
O O4 0.343379 0.934853 0.463482
O O5 0.157031 0.913808 0.527213
O O6 0.750000 0.999582 0.250000
O O7 0.671955 0.899193 0.320128
O O8 0.000000 0.915508 0.296048
O O9 0.000000 0.887464 0.107881
O O10 0.000000 0.758282 0.040934
#
# Coordination Sequence:
#
# PCOD8262570 Si02
#       6
#     8   8  16   8   8   8
#     4   9  22  36  57  86 111 148 191 226 282 333
#     4  10  20  34  56  80 108 152 174 228 278 314
#     4  10  21  40  57  84 113 144 187 230 276 336
#     4  11  20  40  59  80 119 148 181 240 272 329
#     4  10  21  34  55  81 110 143 187 221 273 329
#     4  10  19  36  55  79 112 141 185 229 263 331
#
# _framework density 17.547469
#
# number of rings (size 3 to 8) (size 9 to 14) (size 15 to 20)
#    0.857    1.143    1.429    2.571    0.000    1.143 
#    2.571    0.000   12.571    0.000    0.000    0.000 
#    0.000    0.000    0.000    0.000    0.000    0.000 
#
# Total GULP energy -346880.664542 kJ/mol
# GULP energy per Si atom -12388.595162 kJ/mol
# Density = 1.750753 g / cm^3
# Si number density = 17.547469 Si / 1000 Ang^3
#
#
#
# Elastic Constant Matrix: (Units=GPa)
#
#
# Indices 1 2 3 4 5 6 
#
# 1 132.8902 45.6060 49.8077 0.0000 0.0000 0.0000
# 2 45.6060 76.9133 53.5029 0.0000 0.0000 0.0000
# 3 49.8077 53.5029 102.3173 0.0000 0.0000 0.0000
# 4 0.0000 0.0000 0.0000 21.0436 0.0000 0.0000
# 5 0.0000 0.0000 0.0000 0.0000 47.5631 0.0000
# 6 0.0000 0.0000 0.0000 0.0000 0.0000 47.4804
#
#
#
# Elastic Compliance Matrix: (Units=1/GPa)
#
#
# Indices 1 2 3 4 5 6 
#
# 1 0.009918 -0.003965 -0.002755 0.000000 0.000000 0.000000
# 2 -0.003965 0.022020 -0.009584 0.000000 0.000000 0.000000
# 3 -0.002755 -0.009584 0.016126 0.000000 0.000000 0.000000
# 4 0.000000 0.000000 0.000000 0.047520 0.000000 0.000000
# 5 0.000000 0.000000 0.000000 0.000000 0.021025 0.000000
# 6 0.000000 0.000000 0.000000 0.000000 0.000000 0.021061
#
#
# Mechanical properties :
#
#
# Convention : Reuss Voigt Hill
#
# Bulk Modulus (GPa) = 64.69851 67.77268 66.23560
# Shear Modulus (GPa) = 28.50129 34.09770 31.29949
#
# Velocity S-wave (km/s) = 4.03456 4.41292 4.22797
# Velocity P-wave (km/s) = 7.65860 8.04186 7.85257
#
# Compressibility (1/GPa) = 0.01545631
#
# Stress axis : x y z
#
# Youngs Moduli (GPa) = 100.82495 45.41409 62.00996
#
# Poissons Ratio (x) = 0.18005 0.17084
# Poissons Ratio (y) = 0.39973 0.59433
# Poissons Ratio (z) = 0.27777 0.43527
#
# Static dielectric constant tensor:
#      x y z
#    x 3.334230 0.000000 0.000000 
#    y 0.000000 3.188210 0.000000 
#    z 0.000000 0.000000 3.356770 
# 
# 
# High freq. dielectric constant tensor:
#      x y z
#    x 1.681670 0.000000 0.000000 
#    y 0.000000 1.674830 0.000000 
#    z 0.000000 0.000000 1.698760 
# 
# From -- ./inp_files/47500.got.cif
#   From: 2010.03.12/outbox.cif.g09.slc.cpg/sg64_24_cif.got.tgz:47500.got - 2010.04.10 20:19:32.
