data_PCOD8262631
_publ_section_title
;
Structure prediction by ZEFSAII (Michael W. Deem and Ramdas Pophale) SiO2 
 PCOD8262631
Probable space group: C M C A
;
_chemical_formula_sum "Si O2"
_cell_formula_units_Z 72
_cell_length_a 17.657398
_cell_length_b 17.101423
_cell_length_c 13.317553
_cell_angle_alpha 90.000000
_cell_angle_beta 90.000000
_cell_angle_gamma 90.000000
_cell_volume 4021.456630
_symmetry_space_group_name_H-M "C M C A"
_symmetry_group_IT_number 64
_symmetry_cell_setting 'orthorhombic'
loop_
_space_group_symop_operation_xyz
x,y,z
-x,1/2-y,1/2+z
x,-y,-z
-x,1/2+y,1/2-z
-x,-y,-z
x,1/2+y,1/2-z
-x,y,z
x,1/2-y,1/2+z
1/2+x,1/2+y,z
1/2-x,-y,1/2+z
1/2+x,1/2-y,-z
1/2-x,y,1/2-z
1/2-x,1/2-y,-z
1/2+x,y,1/2-z
1/2-x,1/2+y,z
1/2+x,-y,1/2+z
loop_
_atom_site_type_symbol
_atom_site_label
_atom_site_fract_x
_atom_site_fract_y
_atom_site_fract_z
Si Si1 0.195835 0.667050 0.593940
Si Si2 0.321070 0.709083 0.126940
Si Si3 0.911830 0.337849 0.222399
Si Si4 0.678011 0.540736 0.601369
Si Si5 0.750000 0.423256 0.750000
O O1 0.246178 0.737468 0.638088
O O2 0.158714 0.692920 0.489097
O O3 0.130409 0.647262 0.672569
O O4 0.246635 0.590337 0.577803
O O5 0.392085 0.752623 0.177510
O O6 0.305944 0.627813 0.181813
O O7 0.888243 0.403554 0.141962
O O8 0.000000 0.343060 0.244015
O O9 0.648704 0.500000 0.500000
O O10 0.694912 0.475109 0.682934
#
# Coordination Sequence:
#
# PCOD8262631 Si02
#       5
#    16  16  16  16   8
#     4  10  19  37  58  83 111 150 198 235 283 332
#     4  10  20  34  61  86 105 146 201 247 269 324
#     4  11  23  39  55  83 128 159 179 225 299 363
#     4  11  21  35  62  89 110 149 197 247 285 327
#     4  12  18  34  62  88 112 132 198 258 278 314
#
# _framework density 17.903960000000001
#
# number of rings (size 3 to 8) (size 9 to 14) (size 15 to 20)
#    0.000    1.333    6.667    1.333    0.000    1.333 
#    0.000    1.111    0.000    2.000    0.000    0.000 
#    0.000    0.000    0.000    0.000    0.000    0.000 
#
# Total GULP energy -446583.608788 kJ/mol
# GULP energy per Si atom -12405.100244 kJ/mol
# Density = 1.786321 g / cm^3
# Si number density = 17.903960 Si / 1000 Ang^3
#
#
#
# Elastic Constant Matrix: (Units=GPa)
#
#
# Indices 1 2 3 4 5 6 
#
# 1 92.1581 17.0303 32.4282 0.0000 0.0000 0.0000
# 2 17.0303 79.6925 15.6038 0.0000 0.0000 0.0000
# 3 32.4282 15.6038 91.5807 0.0000 0.0000 0.0000
# 4 0.0000 0.0000 0.0000 41.9854 0.0000 0.0000
# 5 0.0000 0.0000 0.0000 0.0000 13.5418 0.0000
# 6 0.0000 0.0000 0.0000 0.0000 0.0000 16.0209
#
#
#
# Elastic Compliance Matrix: (Units=1/GPa)
#
#
# Indices 1 2 3 4 5 6 
#
# 1 0.012665 -0.001892 -0.004162 0.000000 0.000000 0.000000
# 2 -0.001892 0.013264 -0.001590 0.000000 0.000000 0.000000
# 3 -0.004162 -0.001590 0.012664 0.000000 0.000000 0.000000
# 4 0.000000 0.000000 0.000000 0.023818 0.000000 0.000000
# 5 0.000000 0.000000 0.000000 0.000000 0.073845 0.000000
# 6 0.000000 0.000000 0.000000 0.000000 0.000000 0.062418
#
#
# Mechanical properties :
#
#
# Convention : Reuss Voigt Hill
#
# Bulk Modulus (GPa) = 42.90935 43.72845 43.31890
# Shear Modulus (GPa) = 22.54984 27.53423 25.04203
#
# Velocity S-wave (km/s) = 3.55278 3.92584 3.74396
# Velocity P-wave (km/s) = 6.39125 6.71018 6.55266
#
# Compressibility (1/GPa) = 0.02330495
#
# Stress axis : x y z
#
# Youngs Moduli (GPa) = 78.95719 75.39316 78.96320
#
# Poissons Ratio (x) = 0.14261 0.32867
# Poissons Ratio (y) = 0.14935 0.12556
# Poissons Ratio (z) = 0.32865 0.11989
#
# Static dielectric constant tensor:
#      x y z
#    x 2.846100 0.000000 0.000000 
#    y 0.000000 3.499260 0.000000 
#    z 0.000000 0.000000 3.414180 
# 
# 
# High freq. dielectric constant tensor:
#      x y z
#    x 1.644330 0.000000 0.000000 
#    y 0.000000 1.705680 0.000000 
#    z 0.000000 0.000000 1.715520 
# 
# From -- ./inp_files/15756.got.cif
#   From: 2010.03.12/outbox.cif.g09.slc.cpg/sg64_8_cif.got.tgz:15756.got - 2010.04.10 20:19:32.
