data_PCOD8262965
_publ_section_title
;
Structure prediction by ZEFSAII (Michael W. Deem and Ramdas Pophale) SiO2 
 PCOD8262965
Probable space group: C M C A
;
_chemical_formula_sum "Si O2"
_cell_formula_units_Z 80
_cell_length_a 8.856453
_cell_length_b 27.371322
_cell_length_c 18.051929
_cell_angle_alpha 90.000000
_cell_angle_beta 90.000000
_cell_angle_gamma 90.000000
_cell_volume 4376.019139
_symmetry_space_group_name_H-M "C M C A"
_symmetry_group_IT_number 64
_symmetry_cell_setting 'orthorhombic'
loop_
_space_group_symop_operation_xyz
x,y,z
-x,1/2-y,1/2+z
x,-y,-z
-x,1/2+y,1/2-z
-x,-y,-z
x,1/2+y,1/2-z
-x,y,z
x,1/2-y,1/2+z
1/2+x,1/2+y,z
1/2-x,-y,1/2+z
1/2+x,1/2-y,-z
1/2-x,y,1/2-z
1/2-x,1/2-y,-z
1/2+x,y,1/2-z
1/2-x,1/2+y,z
1/2+x,-y,1/2+z
loop_
_atom_site_type_symbol
_atom_site_label
_atom_site_fract_x
_atom_site_fract_y
_atom_site_fract_z
Si Si1 0.823877 0.961806 0.673476
Si Si2 0.672853 0.299159 0.475640
Si Si3 0.324469 0.901686 0.968889
Si Si4 0.175497 0.847037 0.323881
Si Si5 0.320854 0.558402 0.891419
O O1 0.750000 0.944141 0.750000
O O2 0.799005 0.917902 0.615305
O O3 0.000000 0.973297 0.684588
O O4 0.740952 0.009466 0.644523
O O5 0.500000 0.292527 0.495563
O O6 0.750000 0.250000 0.500000
O O7 0.735929 0.346222 0.520817
O O8 0.699577 0.307337 0.388330
O O9 0.500000 0.904377 0.992770
O O10 0.234455 0.937758 0.023665
O O11 0.250000 0.824765 0.250000
O O12 0.259126 0.897093 0.343143
O O13 0.000000 0.858412 0.311512
O O14 0.500000 0.557950 0.889058
#
# Coordination Sequence:
#
# PCOD8262965 Si02
#       5
#    16  16  16  16  16
#     4  11  22  36  53  74 106 144 178 214 255 303
#     4   9  19  36  57  79 103 133 171 214 261 312
#     4   9  20  38  56  75 103 139 176 216 262 310
#     4  10  20  35  54  79 109 138 172 215 263 312
#     4  11  21  33  53  80 108 138 174 215 258 309
#
# _framework density 18.281455999999999
#
# number of rings (size 3 to 8) (size 9 to 14) (size 15 to 20)
#    0.000    2.000    0.000    5.400    0.000    8.000 
#    0.000    1.000    0.000    4.800    0.000    0.000 
#    0.000    0.000    0.000    0.000    0.000    0.000 
#
# Total GULP energy -496068.134734 kJ/mol
# GULP energy per Si atom -12401.703368 kJ/mol
# Density = 1.823985 g / cm^3
# Si number density = 18.281456 Si / 1000 Ang^3
#
#
#
# Elastic Constant Matrix: (Units=GPa)
#
#
# Indices 1 2 3 4 5 6 
#
# 1 119.5948 42.0909 66.1967 0.0000 0.0000 0.0000
# 2 42.0909 77.9564 57.1409 0.0000 0.0000 0.0000
# 3 66.1967 57.1409 135.1018 0.0000 0.0000 0.0000
# 4 0.0000 0.0000 0.0000 20.8992 0.0000 0.0000
# 5 0.0000 0.0000 0.0000 0.0000 35.2438 0.0000
# 6 0.0000 0.0000 0.0000 0.0000 0.0000 27.3474
#
#
#
# Elastic Compliance Matrix: (Units=1/GPa)
#
#
# Indices 1 2 3 4 5 6 
#
# 1 0.011981 -0.003139 -0.004543 0.000000 0.000000 0.000000
# 2 -0.003139 0.019414 -0.006673 0.000000 0.000000 0.000000
# 3 -0.004543 -0.006673 0.012450 0.000000 0.000000 0.000000
# 4 0.000000 0.000000 0.000000 0.047849 0.000000 0.000000
# 5 0.000000 0.000000 0.000000 0.000000 0.028374 0.000000
# 6 0.000000 0.000000 0.000000 0.000000 0.000000 0.036567
#
#
# Mechanical properties :
#
#
# Convention : Reuss Voigt Hill
#
# Bulk Modulus (GPa) = 66.07138 73.72335 69.89737
# Shear Modulus (GPa) = 26.26222 27.84638 27.05430
#
# Velocity S-wave (km/s) = 3.79430 3.90706 3.85109
# Velocity P-wave (km/s) = 7.44414 7.79537 7.62178
#
# Compressibility (1/GPa) = 0.01513515
#
# Stress axis : x y z
#
# Youngs Moduli (GPa) = 83.46744 51.51003 80.32205
#
# Poissons Ratio (x) = 0.16169 0.36487
# Poissons Ratio (y) = 0.26201 0.53598
# Poissons Ratio (z) = 0.37916 0.34372
#
# Static dielectric constant tensor:
#      x y z
#    x 3.480350 0.000000 0.000000 
#    y 0.000000 3.270820 0.000000 
#    z 0.000000 0.000000 3.582200 
# 
# 
# High freq. dielectric constant tensor:
#      x y z
#    x 1.716720 0.000000 0.000000 
#    y 0.000000 1.691310 0.000000 
#    z 0.000000 0.000000 1.715410 
# 
# From -- ./inp_files/29700.got.cif
#   From: 2010.03.12/outbox.cif.g09.slc.cpg/sg64_15_cif.got.tgz:29700.got - 2010.04.10 20:19:32.
