data_PCOD8262520
_publ_section_title
;
Structure prediction by ZEFSAII (Michael W. Deem and Ramdas Pophale) SiO2 
 PCOD8262520
Probable space group: C M C A
;
_chemical_formula_sum "Si O2"
_cell_formula_units_Z 96
_cell_length_a 19.277621
_cell_length_b 27.089462
_cell_length_c 8.876014
_cell_angle_alpha 90.000000
_cell_angle_beta 90.000000
_cell_angle_gamma 90.000000
_cell_volume 4635.235418
_symmetry_space_group_name_H-M "C M C A"
_symmetry_group_IT_number 64
_symmetry_cell_setting 'orthorhombic'
loop_
_space_group_symop_operation_xyz
x,y,z
-x,1/2-y,1/2+z
x,-y,-z
-x,1/2+y,1/2-z
-x,-y,-z
x,1/2+y,1/2-z
-x,y,z
x,1/2-y,1/2+z
1/2+x,1/2+y,z
1/2-x,-y,1/2+z
1/2+x,1/2-y,-z
1/2-x,y,1/2-z
1/2-x,1/2-y,-z
1/2+x,y,1/2-z
1/2-x,1/2+y,z
1/2+x,-y,1/2+z
loop_
_atom_site_type_symbol
_atom_site_label
_atom_site_fract_x
_atom_site_fract_y
_atom_site_fract_z
Si Si1 0.078162 0.811649 0.691811
Si Si2 0.856029 0.754803 0.940534
Si Si3 0.174294 0.994096 0.177726
Si Si4 0.920419 0.403193 0.346872
Si Si5 0.420764 0.416394 0.798164
Si Si6 0.182223 0.680733 0.696714
O O1 0.118613 0.784745 0.560533
O O2 0.082941 0.783552 0.852237
O O3 0.104581 0.867975 0.708388
O O4 0.000000 0.812557 0.639425
O O5 0.813668 0.726162 0.813930
O O6 0.810985 0.796549 0.028001
O O7 0.250000 0.989269 0.250000
O O8 0.126480 0.947221 0.219146
O O9 0.132966 0.040778 0.245933
O O10 0.183633 0.000000 0.000000
O O11 0.918182 0.404765 0.525648
O O12 0.887479 0.351639 0.289137
O O13 0.000000 0.406840 0.288270
O O14 0.500000 0.431523 0.755849
O O15 0.250000 0.648974 0.750000
#
# Coordination Sequence:
#
# PCOD8262520 Si02
#       6
#    16  16  16  16  16  16
#     4  10  19  35  57  86 120 155 198 242 290 342
#     4  10  22  36  56  84 118 161 199 242 289 344
#     4  10  21  40  63  89 116 149 191 234 291 350
#     4  10  20  37  63  89 113 149 195 244 289 343
#     4   9  18  36  60  87 115 151 196 242 287 343
#     4  11  22  39  58  85 120 159 200 242 290 348
#
# _framework density 20.710923000000001
#
# number of rings (size 3 to 8) (size 9 to 14) (size 15 to 20)
#    0.000    2.000    1.667    2.000    0.000    5.333 
#    9.000    0.833    0.000    1.000    0.000    0.000 
#    0.000    0.000    0.000    0.000    0.000    0.000 
#
# Total GULP energy -594806.827562 kJ/mol
# GULP energy per Si atom -12391.808908 kJ/mol
# Density = 2.066378 g / cm^3
# Si number density = 20.710923 Si / 1000 Ang^3
#
#
#
# Elastic Constant Matrix: (Units=GPa)
#
#
# Indices 1 2 3 4 5 6 
#
# 1 129.6490 53.0015 24.7849 0.0000 0.0000 0.0000
# 2 53.0015 93.3504 23.3684 0.0000 0.0000 0.0000
# 3 24.7849 23.3684 63.9890 0.0000 0.0000 0.0000
# 4 0.0000 0.0000 0.0000 20.7515 0.0000 0.0000
# 5 0.0000 0.0000 0.0000 0.0000 23.4874 0.0000
# 6 0.0000 0.0000 0.0000 0.0000 0.0000 28.8924
#
#
#
# Elastic Compliance Matrix: (Units=1/GPa)
#
#
# Indices 1 2 3 4 5 6 
#
# 1 0.010280 -0.005327 -0.002036 0.000000 0.000000 0.000000
# 2 -0.005327 0.014550 -0.003250 0.000000 0.000000 0.000000
# 3 -0.002036 -0.003250 0.017604 0.000000 0.000000 0.000000
# 4 0.000000 0.000000 0.000000 0.048189 0.000000 0.000000
# 5 0.000000 0.000000 0.000000 0.000000 0.042576 0.000000
# 6 0.000000 0.000000 0.000000 0.000000 0.000000 0.034611
#
#
# Mechanical properties :
#
#
# Convention : Reuss Voigt Hill
#
# Bulk Modulus (GPa) = 47.15551 54.36644 50.76098
# Shear Modulus (GPa) = 25.49624 27.01515 26.25570
#
# Velocity S-wave (km/s) = 3.51244 3.61555 3.56437
# Velocity P-wave (km/s) = 6.26638 6.61338 6.44222
#
# Compressibility (1/GPa) = 0.02120643
#
# Stress axis : x y z
#
# Youngs Moduli (GPa) = 97.27495 68.72618 56.80687
#
# Poissons Ratio (x) = 0.36610 0.11568
# Poissons Ratio (y) = 0.51818 0.18465
# Poissons Ratio (z) = 0.19809 0.22339
#
# Static dielectric constant tensor:
#      x y z
#    x 3.804310 0.000000 0.000000 
#    y 0.000000 3.955590 0.000000 
#    z 0.000000 0.000000 3.618710 
# 
# 
# High freq. dielectric constant tensor:
#      x y z
#    x 1.810970 0.000000 0.000000 
#    y 0.000000 1.815940 0.000000 
#    z 0.000000 0.000000 1.792640 
# 
# From -- ./inp_files/8410.got.cif
#   From: 2010.03.12/outbox.cif.g09.slc.cpg/sg64_5_cif.got.tgz:8410.got - 2010.04.10 20:19:32.
