data_PCOD8262349
_publ_section_title
;
Structure prediction by ZEFSAII (Michael W. Deem and Ramdas Pophale) SiO2 
 PCOD8262349
Probable space group: C M C A
;
_chemical_formula_sum "Si O2"
_cell_formula_units_Z 96
_cell_length_a 17.547065
_cell_length_b 19.748569
_cell_length_c 14.784239
_cell_angle_alpha 90.000000
_cell_angle_beta 90.000000
_cell_angle_gamma 90.000000
_cell_volume 5123.173823
_symmetry_space_group_name_H-M "C M C A"
_symmetry_group_IT_number 64
_symmetry_cell_setting 'orthorhombic'
loop_
_space_group_symop_operation_xyz
x,y,z
-x,1/2-y,1/2+z
x,-y,-z
-x,1/2+y,1/2-z
-x,-y,-z
x,1/2+y,1/2-z
-x,y,z
x,1/2-y,1/2+z
1/2+x,1/2+y,z
1/2-x,-y,1/2+z
1/2+x,1/2-y,-z
1/2-x,y,1/2-z
1/2-x,1/2-y,-z
1/2+x,y,1/2-z
1/2-x,1/2+y,z
1/2+x,-y,1/2+z
loop_
_atom_site_type_symbol
_atom_site_label
_atom_site_fract_x
_atom_site_fract_y
_atom_site_fract_z
Si Si1 0.590281 0.961955 0.413616
Si Si2 0.588726 0.442978 0.569543
Si Si3 0.409505 0.196112 0.970581
Si Si4 0.410389 0.811637 0.393889
Si Si5 0.837939 0.010793 0.733748
Si Si6 0.664037 0.666954 0.715552
O O1 0.500000 0.960056 0.414648
O O2 0.624007 0.885795 0.416308
O O3 0.617646 0.003245 0.326558
O O4 0.624119 0.000000 0.500000
O O5 0.615382 0.500000 0.500000
O O6 0.500000 0.449310 0.592126
O O7 0.609378 0.370694 0.527870
O O8 0.633982 0.455535 0.662015
O O9 0.500000 0.199168 0.946613
O O10 0.357757 0.200521 0.880377
O O11 0.380556 0.257980 0.032852
O O12 0.500000 0.811761 0.398966
O O13 0.386711 0.795010 0.291056
O O14 0.750000 0.998503 0.750000
O O15 0.856053 0.087665 0.703206
O O16 0.750000 0.677519 0.750000
#
# Coordination Sequence:
#
# PCOD8262349 Si02
#       6
#    16  16  16  16  16  16
#     4   9  18  35  57  78 103 141 183 221 268 323
#     4  10  19  33  56  82 105 137 181 228 273 314
#     4  10  20  36  58  82 108 140 183 231 272 316
#     4   9  19  36  56  79 106 139 182 226 269 321
#     4  10  20  34  52  80 110 142 177 220 271 322
#     4  10  20  35  55  79 108 144 180 215 270 329
#
# _framework density 18.738384
#
# number of rings (size 3 to 8) (size 9 to 14) (size 15 to 20)
#    0.000    2.333    1.667    1.000    0.000    2.667 
#    6.000    0.833    0.000    0.000    0.000    0.000 
#    0.000    0.000    0.000    0.000    0.000    0.000 
#
# Total GULP energy -595107.391215 kJ/mol
# GULP energy per Si atom -12398.070650 kJ/mol
# Density = 1.869573 g / cm^3
# Si number density = 18.738384 Si / 1000 Ang^3
#
#
#
# Elastic Constant Matrix: (Units=GPa)
#
#
# Indices 1 2 3 4 5 6 
#
# 1 31.0316 29.6619 44.9005 0.0000 0.0000 0.0000
# 2 29.6619 79.7905 76.6413 0.0000 0.0000 0.0000
# 3 44.9005 76.6413 181.8836 0.0000 0.0000 0.0000
# 4 0.0000 0.0000 0.0000 37.6589 0.0000 0.0000
# 5 0.0000 0.0000 0.0000 0.0000 21.8385 0.0000
# 6 0.0000 0.0000 0.0000 0.0000 0.0000 19.2065
#
#
#
# Elastic Compliance Matrix: (Units=1/GPa)
#
#
# Indices 1 2 3 4 5 6 
#
# 1 0.057085 -0.012911 -0.008652 0.000000 0.000000 0.000000
# 2 -0.012911 0.023974 -0.006915 0.000000 0.000000 0.000000
# 3 -0.008652 -0.006915 0.010548 0.000000 0.000000 0.000000
# 4 0.000000 0.000000 0.000000 0.026554 0.000000 0.000000
# 5 0.000000 0.000000 0.000000 0.000000 0.045791 0.000000
# 6 0.000000 0.000000 0.000000 0.000000 0.000000 0.052066
#
#
# Mechanical properties :
#
#
# Convention : Reuss Voigt Hill
#
# Bulk Modulus (GPa) = 28.85865 66.12368 47.49116
# Shear Modulus (GPa) = 17.57325 25.17425 21.37375
#
# Velocity S-wave (km/s) = 3.06571 3.66930 3.38100
# Velocity P-wave (km/s) = 5.28826 7.30179 6.37502
#
# Compressibility (1/GPa) = 0.03465166
#
# Stress axis : x y z
#
# Youngs Moduli (GPa) = 17.51779 41.71104 94.80713
#
# Poissons Ratio (x) = 0.53852 0.82027
# Poissons Ratio (y) = 0.22617 0.65560
# Poissons Ratio (z) = 0.15156 0.28844
#
# Static dielectric constant tensor:
#      x y z
#    x 3.155750 0.000000 0.000000 
#    y 0.000000 3.539270 0.000000 
#    z 0.000000 0.000000 3.611980 
# 
# 
# High freq. dielectric constant tensor:
#      x y z
#    x 1.716760 0.000000 0.000000 
#    y 0.000000 1.709710 0.000000 
#    z 0.000000 0.000000 1.738960 
# 
# From -- ./inp_files/23857.got.cif
#   From: 2010.03.12/outbox.cif.g09.slc.cpg/sg64_12_cif.got.tgz:23857.got - 2010.04.10 20:19:32.
