data_PCOD8262791
_publ_section_title
;
Structure prediction by ZEFSAII (Michael W. Deem and Ramdas Pophale) SiO2 
 PCOD8262791
Probable space group: C M C A
;
_chemical_formula_sum "Si O2"
_cell_formula_units_Z 80
_cell_length_a 8.915569
_cell_length_b 25.443097
_cell_length_c 19.464285
_cell_angle_alpha 90.000000
_cell_angle_beta 90.000000
_cell_angle_gamma 90.000000
_cell_volume 4415.272315
_symmetry_space_group_name_H-M "C M C A"
_symmetry_group_IT_number 64
_symmetry_cell_setting 'orthorhombic'
loop_
_space_group_symop_operation_xyz
x,y,z
-x,1/2-y,1/2+z
x,-y,-z
-x,1/2+y,1/2-z
-x,-y,-z
x,1/2+y,1/2-z
-x,y,z
x,1/2-y,1/2+z
1/2+x,1/2+y,z
1/2-x,-y,1/2+z
1/2+x,1/2-y,-z
1/2-x,y,1/2-z
1/2-x,1/2-y,-z
1/2+x,y,1/2-z
1/2-x,1/2+y,z
1/2+x,-y,1/2+z
loop_
_atom_site_type_symbol
_atom_site_label
_atom_site_fract_x
_atom_site_fract_y
_atom_site_fract_z
Si Si1 0.326070 0.858845 0.176820
Si Si2 0.671629 0.937908 0.423166
Si Si3 0.324285 0.256976 0.823822
Si Si4 0.172419 0.058948 0.081344
Si Si5 0.677052 0.641287 0.324639
O O1 0.500000 0.865670 0.191218
O O2 0.250000 0.867956 0.250000
O O3 0.276232 0.901454 0.122088
O O4 0.293194 0.800745 0.144191
O O5 0.500000 0.922308 0.409641
O O6 0.712806 0.929236 0.502526
O O7 0.699818 0.997975 0.401888
O O8 0.500000 0.269125 0.818798
O O9 0.250000 0.255811 0.750000
O O10 0.242989 0.305829 0.862234
O O11 0.283553 0.091598 0.128886
O O12 0.000000 0.074086 0.096468
O O13 0.500000 0.646077 0.316895
O O14 0.750000 0.633472 0.250000
#
# Coordination Sequence:
#
# PCOD8262791 Si02
#       5
#    16  16  16  16  16
#     4  10  20  33  53  79 106 135 170 210 253 300
#     4   9  19  36  57  76 100 135 171 209 257 305
#     4   9  17  31  50  73 102 135 167 205 252 301
#     4   9  19  37  56  75 101 135 171 209 256 307
#     4  11  21  33  53  79 104 134 170 211 254 299
#
# _framework density 18.118929000000001
#
# number of rings (size 3 to 8) (size 9 to 14) (size 15 to 20)
#    0.000    2.400    0.000    5.400    0.000    4.800 
#    0.000    3.000    0.000    0.000    0.000    0.000 
#    0.000    0.000    0.000    0.000    0.000    0.000 
#
# Total GULP energy -495800.946843 kJ/mol
# GULP energy per Si atom -12395.023671 kJ/mol
# Density = 1.807769 g / cm^3
# Si number density = 18.118929 Si / 1000 Ang^3
#
#
#
# Elastic Constant Matrix: (Units=GPa)
#
#
# Indices 1 2 3 4 5 6 
#
# 1 117.1205 64.0102 44.0919 0.0000 0.0000 0.0000
# 2 64.0102 119.5248 57.3459 0.0000 0.0000 0.0000
# 3 44.0919 57.3459 62.0259 0.0000 0.0000 0.0000
# 4 0.0000 0.0000 0.0000 -26.3065 0.0000 0.0000
# 5 0.0000 0.0000 0.0000 0.0000 29.3113 0.0000
# 6 0.0000 0.0000 0.0000 0.0000 0.0000 32.0143
#
#
#
# Elastic Compliance Matrix: (Units=1/GPa)
#
#
# Indices 1 2 3 4 5 6 
#
# 1 0.012878 -0.004501 -0.004993 0.000000 0.000000 0.000000
# 2 -0.004501 0.016610 -0.012157 0.000000 0.000000 0.000000
# 3 -0.004993 -0.012157 0.030911 0.000000 0.000000 0.000000
# 4 0.000000 0.000000 0.000000 -0.038013 0.000000 0.000000
# 5 0.000000 0.000000 0.000000 0.000000 0.034117 0.000000
# 6 0.000000 0.000000 0.000000 0.000000 0.000000 0.031236
#
#
# Mechanical properties :
#
#
# Convention : Reuss Voigt Hill
#
# Bulk Modulus (GPa) = 58.48963 69.95191 64.22077
# Shear Modulus (GPa) = 36.56631 15.88535 26.22583
#
# Velocity S-wave (km/s) = 4.49723 2.96417 3.80863
# Velocity P-wave (km/s) = 7.70181 7.09972 7.40688
#
# Compressibility (1/GPa) = 0.01709705
#
# Stress axis : x y z
#
# Youngs Moduli (GPa) = 77.65257 60.20649 32.35099
#
# Poissons Ratio (x) = 0.27099 0.16153
# Poissons Ratio (y) = 0.34952 0.39328
# Poissons Ratio (z) = 0.38771 0.73191
#
# Static dielectric constant tensor:
#      x y z
#    x 3.353060 0.000000 0.000000 
#    y 0.000000 3.990340 0.000000 
#    z 0.000000 0.000000 3.007960 
# 
# 
# High freq. dielectric constant tensor:
#      x y z
#    x 1.710430 0.000000 0.000000 
#    y 0.000000 1.719930 0.000000 
#    z 0.000000 0.000000 1.669120 
# 
# From -- ./inp_files/29757.got.cif
#   From: 2010.03.12/outbox.cif.g09.slc.cpg/sg64_15_cif.got.tgz:29757.got - 2010.04.10 20:19:32.
