data_PCOD8262204
_publ_section_title
;
Structure prediction by ZEFSAII (Michael W. Deem and Ramdas Pophale) SiO2 
 PCOD8262204
Probable space group: C M C A
;
_chemical_formula_sum "Si O2"
_cell_formula_units_Z 64
_cell_length_a 8.842618
_cell_length_b 19.072916
_cell_length_c 22.745650
_cell_angle_alpha 90.000000
_cell_angle_beta 90.000000
_cell_angle_gamma 90.000000
_cell_volume 3836.156463
_symmetry_space_group_name_H-M "C M C A"
_symmetry_group_IT_number 64
_symmetry_cell_setting 'orthorhombic'
loop_
_space_group_symop_operation_xyz
x,y,z
-x,1/2-y,1/2+z
x,-y,-z
-x,1/2+y,1/2-z
-x,-y,-z
x,1/2+y,1/2-z
-x,y,z
x,1/2-y,1/2+z
1/2+x,1/2+y,z
1/2-x,-y,1/2+z
1/2+x,1/2-y,-z
1/2-x,y,1/2-z
1/2-x,1/2-y,-z
1/2+x,y,1/2-z
1/2-x,1/2+y,z
1/2+x,-y,1/2+z
loop_
_atom_site_type_symbol
_atom_site_label
_atom_site_fract_x
_atom_site_fract_y
_atom_site_fract_z
Si Si1 0.821542 0.172503 0.900121
Si Si2 0.829851 0.756028 0.808663
Si Si3 0.173075 0.192682 0.068883
Si Si4 0.322665 0.919596 0.010853
O O1 0.755550 0.186830 0.834710
O O2 0.766413 0.235098 0.944846
O O3 0.753025 0.101296 0.926937
O O4 0.000000 0.167984 0.897370
O O5 0.750000 0.784281 0.750000
O O6 0.825415 0.815882 0.859482
O O7 0.000000 0.734371 0.792909
O O8 0.000000 0.199520 0.045925
O O9 0.251632 0.124791 0.042262
O O10 0.500000 0.905431 0.013736
O O11 0.283358 0.000000 0.000000
#
# Coordination Sequence:
#
# PCOD8262204 Si02
#       4
#    16  16  16  16
#     4  10  19  32  52  74 101 132 165 206 248 293
#     4   9  18  31  51  77 101 127 163 207 248 289
#     4   9  19  33  51  74 101 130 165 206 246 296
#     4  11  22  34  49  72 103 135 167 206 250 298
#
# _framework density 16.683365999999999
#
# number of rings (size 3 to 8) (size 9 to 14) (size 15 to 20)
#    1.500    0.750    0.000    4.500    0.000    2.000 
#    0.000    0.000    0.000    1.500    0.000    3.500 
#    0.000    0.000    0.000    0.000    0.000    0.000 
#
# Total GULP energy -396499.218341 kJ/mol
# GULP energy per Si atom -12390.600573 kJ/mol
# Density = 1.664539 g / cm^3
# Si number density = 16.683366 Si / 1000 Ang^3
#
#
#
# Elastic Constant Matrix: (Units=GPa)
#
#
# Indices 1 2 3 4 5 6 
#
# 1 146.6286 50.9381 25.7056 0.0000 0.0000 0.0000
# 2 50.9381 74.1102 14.0083 0.0000 0.0000 0.0000
# 3 25.7056 14.0083 42.7379 0.0000 0.0000 0.0000
# 4 0.0000 0.0000 0.0000 7.8759 0.0000 0.0000
# 5 0.0000 0.0000 0.0000 0.0000 30.5102 0.0000
# 6 0.0000 0.0000 0.0000 0.0000 0.0000 24.7030
#
#
#
# Elastic Compliance Matrix: (Units=1/GPa)
#
#
# Indices 1 2 3 4 5 6 
#
# 1 0.009508 -0.005815 -0.003813 0.000000 0.000000 0.000000
# 2 -0.005815 0.017940 -0.002383 0.000000 0.000000 0.000000
# 3 -0.003813 -0.002383 0.026473 0.000000 0.000000 0.000000
# 4 0.000000 0.000000 0.000000 0.126970 0.000000 0.000000
# 5 0.000000 0.000000 0.000000 0.000000 0.032776 0.000000
# 6 0.000000 0.000000 0.000000 0.000000 0.000000 0.040481
#
#
# Mechanical properties :
#
#
# Convention : Reuss Voigt Hill
#
# Bulk Modulus (GPa) = 33.44460 49.42008 41.43234
# Shear Modulus (GPa) = 17.35284 24.13945 20.74615
#
# Velocity S-wave (km/s) = 3.22860 3.80796 3.53019
# Velocity P-wave (km/s) = 5.82998 7.00148 6.44242
#
# Compressibility (1/GPa) = 0.02990020
#
# Stress axis : x y z
#
# Youngs Moduli (GPa) = 105.16996 55.73999 37.77426
#
# Poissons Ratio (x) = 0.32411 0.14404
# Poissons Ratio (y) = 0.61153 0.09002
# Poissons Ratio (z) = 0.40103 0.13283
#
# Static dielectric constant tensor:
#      x y z
#    x 3.221930 0.000000 0.000000 
#    y 0.000000 2.787690 0.000000 
#    z 0.000000 0.000000 3.093960 
# 
# 
# High freq. dielectric constant tensor:
#      x y z
#    x 1.667350 0.000000 0.000000 
#    y 0.000000 1.596610 0.000000 
#    z 0.000000 0.000000 1.638420 
# 
# From -- ./inp_files/42569.got.cif
#   From: 2010.03.12/outbox.cif.g09.slc.cpg/sg64_22_cif.got.tgz:42569.got - 2010.04.10 20:19:32.
