data_PCOD8262468
_publ_section_title
;
Structure prediction by ZEFSAII (Michael W. Deem and Ramdas Pophale) SiO2 
 PCOD8262468
Probable space group: C M C A
;
_chemical_formula_sum "Si O2"
_cell_formula_units_Z 112
_cell_length_a 15.564685
_cell_length_b 22.458189
_cell_length_c 17.250941
_cell_angle_alpha 90.000000
_cell_angle_beta 90.000000
_cell_angle_gamma 90.000000
_cell_volume 6030.146427
_symmetry_space_group_name_H-M "C M C A"
_symmetry_group_IT_number 64
_symmetry_cell_setting 'orthorhombic'
loop_
_space_group_symop_operation_xyz
x,y,z
-x,1/2-y,1/2+z
x,-y,-z
-x,1/2+y,1/2-z
-x,-y,-z
x,1/2+y,1/2-z
-x,y,z
x,1/2-y,1/2+z
1/2+x,1/2+y,z
1/2-x,-y,1/2+z
1/2+x,1/2-y,-z
1/2-x,y,1/2-z
1/2-x,1/2-y,-z
1/2+x,y,1/2-z
1/2-x,1/2+y,z
1/2+x,-y,1/2+z
loop_
_atom_site_type_symbol
_atom_site_label
_atom_site_fract_x
_atom_site_fract_y
_atom_site_fract_z
Si Si1 0.804412 0.160978 0.421869
Si Si2 0.095976 0.984589 0.800240
Si Si3 0.096201 0.143784 0.270515
Si Si4 0.597672 0.964796 0.141880
Si Si5 0.242861 0.968366 0.921376
Si Si6 0.099992 0.334307 0.080636
Si Si7 0.695958 0.258204 0.820749
O O1 0.878367 0.147647 0.359971
O O2 0.742549 0.103156 0.430408
O O3 0.847060 0.178095 0.503038
O O4 0.752420 0.218996 0.393250
O O5 0.108213 0.923696 0.754248
O O6 0.170075 0.991337 0.862839
O O7 0.000000 0.988081 0.837930
O O8 0.107145 0.036031 0.735392
O O9 0.153431 0.183058 0.214322
O O10 0.000000 0.166886 0.261792
O O11 0.500000 0.983321 0.119068
O O12 0.620741 0.900123 0.110099
O O13 0.661914 0.011876 0.103524
O O14 0.216090 0.000000 0.000000
O O15 0.127944 0.289193 0.148247
O O16 0.000000 0.324667 0.063792
O O17 0.750000 0.228321 0.750000
#
# Coordination Sequence:
#
# PCOD8262468 Si02
#       7
#    16  16  16  16  16  16  16
#     4  11  21  36  56  90 115 148 192 244 291 346
#     4  10  21  37  59  84 115 153 197 242 282 345
#     4  10  19  34  59  86 110 145 193 245 286 331
#     4  10  22  36  58  89 118 152 192 235 292 355
#     4  12  22  36  58  87 121 153 189 241 299 349
#     4  11  23  40  58  83 121 158 189 237 295 350
#     4  10  22  38  60  83 113 150 201 238 280 344
#
# _framework density 18.573346000000001
#
# number of rings (size 3 to 8) (size 9 to 14) (size 15 to 20)
#    0.000    1.429    4.286    1.714    0.000    2.286 
#    0.000    0.000    0.000    0.000    0.000    0.000 
#    0.000    0.000    0.000    0.000    0.000    0.000 
#
# Total GULP energy -694435.981676 kJ/mol
# GULP energy per Si atom -12400.642530 kJ/mol
# Density = 1.853107 g / cm^3
# Si number density = 18.573346 Si / 1000 Ang^3
#
#
#
# Elastic Constant Matrix: (Units=GPa)
#
#
# Indices 1 2 3 4 5 6 
#
# 1 81.0580 18.1478 38.8611 0.0000 0.0000 0.0000
# 2 18.1478 44.2061 21.1545 0.0000 0.0000 0.0000
# 3 38.8611 21.1545 98.8457 0.0000 0.0000 0.0000
# 4 0.0000 0.0000 0.0000 22.4274 0.0000 0.0000
# 5 0.0000 0.0000 0.0000 0.0000 25.8781 0.0000
# 6 0.0000 0.0000 0.0000 0.0000 0.0000 24.5072
#
#
#
# Elastic Compliance Matrix: (Units=1/GPa)
#
#
# Indices 1 2 3 4 5 6 
#
# 1 0.015787 -0.003911 -0.005369 0.000000 0.000000 0.000000
# 2 -0.003911 0.026172 -0.004063 0.000000 0.000000 0.000000
# 3 -0.005369 -0.004063 0.013097 0.000000 0.000000 0.000000
# 4 0.000000 0.000000 0.000000 0.044588 0.000000 0.000000
# 5 0.000000 0.000000 0.000000 0.000000 0.038643 0.000000
# 6 0.000000 0.000000 0.000000 0.000000 0.000000 0.040804
#
#
# Mechanical properties :
#
#
# Convention : Reuss Voigt Hill
#
# Bulk Modulus (GPa) = 35.25183 42.27071 38.76127
# Shear Modulus (GPa) = 23.23040 24.29230 23.76135
#
# Velocity S-wave (km/s) = 3.54041 3.62043 3.58065
# Velocity P-wave (km/s) = 5.97777 6.34704 6.16517
#
# Compressibility (1/GPa) = 0.02836732
#
# Stress axis : x y z
#
# Youngs Moduli (GPa) = 63.34408 38.20950 76.35106
#
# Poissons Ratio (x) = 0.14945 0.40996
# Poissons Ratio (y) = 0.24776 0.31024
# Poissons Ratio (z) = 0.34012 0.15526
#
# Static dielectric constant tensor:
#      x y z
#    x 3.562300 0.000000 0.000000 
#    y 0.000000 3.273190 0.000000 
#    z 0.000000 0.000000 3.485700 
# 
# 
# High freq. dielectric constant tensor:
#      x y z
#    x 1.726720 0.000000 0.000000 
#    y 0.000000 1.709120 0.000000 
#    z 0.000000 0.000000 1.724580 
# 
# From -- ./inp_files/24205.got.cif
#   From: 2010.03.12/outbox.cif.g09.slc.cpg/sg64_13_cif.got.tgz:24205.got - 2010.04.10 20:19:32.
