data_PCOD8262562
_publ_section_title
;
Structure prediction by ZEFSAII (Michael W. Deem and Ramdas Pophale) SiO2 
 PCOD8262562
Probable space group: C M C A
;
_chemical_formula_sum "Si O2"
_cell_formula_units_Z 80
_cell_length_a 15.174254
_cell_length_b 9.806871
_cell_length_c 26.750814
_cell_angle_alpha 90.000000
_cell_angle_beta 90.000000
_cell_angle_gamma 90.000000
_cell_volume 3980.840836
_symmetry_space_group_name_H-M "C M C A"
_symmetry_group_IT_number 64
_symmetry_cell_setting 'orthorhombic'
loop_
_space_group_symop_operation_xyz
x,y,z
-x,1/2-y,1/2+z
x,-y,-z
-x,1/2+y,1/2-z
-x,-y,-z
x,1/2+y,1/2-z
-x,y,z
x,1/2-y,1/2+z
1/2+x,1/2+y,z
1/2-x,-y,1/2+z
1/2+x,1/2-y,-z
1/2-x,y,1/2-z
1/2-x,1/2-y,-z
1/2+x,y,1/2-z
1/2-x,1/2+y,z
1/2+x,-y,1/2+z
loop_
_atom_site_type_symbol
_atom_site_label
_atom_site_fract_x
_atom_site_fract_y
_atom_site_fract_z
Si Si1 0.000000 0.010428 0.208647
Si Si2 0.399150 0.393565 0.961298
Si Si3 0.329207 0.528269 0.142694
Si Si4 0.327855 0.790073 0.866749
Si Si5 0.000000 0.800451 0.696663
Si Si6 0.101499 0.134970 0.472832
O O1 0.000000 0.849973 0.220593
O O2 0.087489 0.051577 0.178409
O O3 0.000000 0.088142 0.260434
O O4 0.500000 0.434776 0.950463
O O5 0.347691 0.403156 0.910213
O O6 0.357293 0.500000 0.000000
O O7 0.388583 0.245040 0.983771
O O8 0.303837 0.369500 0.138045
O O9 0.245536 0.616735 0.161046
O O10 0.416803 0.823481 0.838212
O O11 0.338917 0.829291 0.925052
O O12 0.000000 0.122179 0.455297
O O13 0.136338 0.000000 0.500000
#
# Coordination Sequence:
#
# PCOD8262562 Si02
#       6
#     8  16  16  16   8  16
#     4  10  24  48  70  93 122 161 210 260 325 378
#     4  10  19  35  63  89 125 174 212 248 298 369
#     4  11  24  41  65  97 127 165 212 256 310 376
#     4  11  24  42  65  94 131 166 208 258 312 372
#     4  10  24  48  72  90 124 163 204 267 323 376
#     4  10  21  37  59  92 132 171 213 252 305 366
#
# _framework density 20.096257000000001
#
# number of rings (size 3 to 8) (size 9 to 14) (size 15 to 20)
#    0.000    1.600    4.000    0.000    2.800    4.000 
#    0.000    4.000    0.000    0.000    0.000    0.000 
#    0.000    0.000    0.000    0.000    0.000    0.000 
#
# Total GULP energy -496049.152678 kJ/mol
# GULP energy per Si atom -12401.228817 kJ/mol
# Density = 2.005052 g / cm^3
# Si number density = 20.096257 Si / 1000 Ang^3
#
#
#
# Elastic Constant Matrix: (Units=GPa)
#
#
# Indices 1 2 3 4 5 6 
#
# 1 114.6206 60.9916 33.6924 0.0000 0.0000 0.0000
# 2 60.9916 126.0214 49.7279 0.0000 0.0000 0.0000
# 3 33.6924 49.7279 85.4609 0.0000 0.0000 0.0000
# 4 0.0000 0.0000 0.0000 33.6380 0.0000 0.0000
# 5 0.0000 0.0000 0.0000 0.0000 0.9055 0.0000
# 6 0.0000 0.0000 0.0000 0.0000 0.0000 12.9507
#
#
#
# Elastic Compliance Matrix: (Units=1/GPa)
#
#
# Indices 1 2 3 4 5 6 
#
# 1 0.011948 -0.005093 -0.001747 0.000000 0.000000 0.000000
# 2 -0.005093 0.012471 -0.005249 0.000000 0.000000 0.000000
# 3 -0.001747 -0.005249 0.015444 0.000000 0.000000 0.000000
# 4 0.000000 0.000000 0.000000 0.029728 0.000000 0.000000
# 5 0.000000 0.000000 0.000000 0.000000 1.104310 0.000000
# 6 0.000000 0.000000 0.000000 0.000000 0.000000 0.077216
#
#
# Mechanical properties :
#
#
# Convention : Reuss Voigt Hill
#
# Bulk Modulus (GPa) = 63.75211 68.32516 66.03864
# Shear Modulus (GPa) = 3.90465 21.61158 12.75812
#
# Velocity S-wave (km/s) = 1.39542 3.28289 2.52236
# Velocity P-wave (km/s) = 5.86417 6.96007 6.43549
#
# Compressibility (1/GPa) = 0.01568575
#
# Stress axis : x y z
#
# Youngs Moduli (GPa) = 83.69492 80.18329 64.74968
#
# Poissons Ratio (x) = 0.40840 0.11310
# Poissons Ratio (y) = 0.42629 0.33986
# Poissons Ratio (z) = 0.14619 0.42087
#
# Static dielectric constant tensor:
#      x y z
#    x 3.786480 0.000000 0.000000 
#    y 0.000000 3.714110 0.000000 
#    z 0.000000 0.000000 3.518480 
# 
# 
# High freq. dielectric constant tensor:
#      x y z
#    x 1.791760 0.000000 0.000000 
#    y 0.000000 1.793350 0.000000 
#    z 0.000000 0.000000 1.772470 
# 
# From -- ./inp_files/49915.got.cif
#   From: 2010.03.12/outbox.cif.g09.slc.cpg/sg64_25_cif.got.tgz:49915.got - 2010.04.10 20:19:32.
