data_PCOD8262980
_publ_section_title
;
Structure prediction by ZEFSAII (Michael W. Deem and Ramdas Pophale) SiO2 
 PCOD8262980
Probable space group: C M C A
;
_chemical_formula_sum "Si O2"
_cell_formula_units_Z 80
_cell_length_a 8.890595
_cell_length_b 19.101699
_cell_length_c 25.367206
_cell_angle_alpha 90.000000
_cell_angle_beta 90.000000
_cell_angle_gamma 90.000000
_cell_volume 4307.997672
_symmetry_space_group_name_H-M "C M C A"
_symmetry_group_IT_number 64
_symmetry_cell_setting 'orthorhombic'
loop_
_space_group_symop_operation_xyz
x,y,z
-x,1/2-y,1/2+z
x,-y,-z
-x,1/2+y,1/2-z
-x,-y,-z
x,1/2+y,1/2-z
-x,y,z
x,1/2-y,1/2+z
1/2+x,1/2+y,z
1/2-x,-y,1/2+z
1/2+x,1/2-y,-z
1/2-x,y,1/2-z
1/2-x,1/2-y,-z
1/2+x,y,1/2-z
1/2-x,1/2+y,z
1/2+x,-y,1/2+z
loop_
_atom_site_type_symbol
_atom_site_label
_atom_site_fract_x
_atom_site_fract_y
_atom_site_fract_z
Si Si1 0.323841 0.271084 0.877940
Si Si2 0.174490 0.510829 0.104836
Si Si3 0.175258 0.878706 0.695019
Si Si4 0.825042 0.881209 0.966179
Si Si5 0.177048 0.367959 0.413392
O O1 0.500000 0.265965 0.867804
O O2 0.249491 0.308532 0.827873
O O3 0.285737 0.313524 0.931222
O O4 0.256256 0.194188 0.882142
O O5 0.206560 0.556576 0.156437
O O6 0.231340 0.551947 0.053225
O O7 0.267117 0.439898 0.112136
O O8 0.000000 0.493393 0.097458
O O9 0.250000 0.898761 0.750000
O O10 0.000000 0.864536 0.702701
O O11 0.000000 0.901193 0.962228
O O12 0.775580 0.864153 0.025416
O O13 0.000000 0.360944 0.406153
#
# Coordination Sequence:
#
# PCOD8262980 Si02
#       5
#    16  16  16  16  16
#     4  10  20  35  55  79 108 141 179 219 262 313
#     4  10  21  35  53  79 108 139 178 220 263 316
#     4  10  21  39  61  81 102 132 173 219 267 319
#     4   9  19  34  52  76 108 147 183 216 258 311
#     4  11  21  33  51  78 113 146 178 218 263 310
#
# _framework density 18.570112999999999
#
# number of rings (size 3 to 8) (size 9 to 14) (size 15 to 20)
#    0.000    2.000    0.000    3.600    0.000    7.200 
#    0.000    1.000    0.000    2.400    0.000    0.000 
#    0.000    0.000    0.000    0.000    0.000    0.000 
#
# Total GULP energy -496249.038233 kJ/mol
# GULP energy per Si atom -12406.225956 kJ/mol
# Density = 1.852785 g / cm^3
# Si number density = 18.570113 Si / 1000 Ang^3
#
#
#
# Elastic Constant Matrix: (Units=GPa)
#
#
# Indices 1 2 3 4 5 6 
#
# 1 93.7115 49.7965 41.7137 0.0000 0.0000 0.0000
# 2 49.7965 115.9906 26.6884 0.0000 0.0000 0.0000
# 3 41.7137 26.6884 77.7976 0.0000 0.0000 0.0000
# 4 0.0000 0.0000 0.0000 13.4496 0.0000 0.0000
# 5 0.0000 0.0000 0.0000 0.0000 30.7012 0.0000
# 6 0.0000 0.0000 0.0000 0.0000 0.0000 38.7030
#
#
#
# Elastic Compliance Matrix: (Units=1/GPa)
#
#
# Indices 1 2 3 4 5 6 
#
# 1 0.016790 -0.005577 -0.007089 0.000000 0.000000 0.000000
# 2 -0.005577 0.011213 -0.000856 0.000000 0.000000 0.000000
# 3 -0.007089 -0.000856 0.016949 0.000000 0.000000 0.000000
# 4 0.000000 0.000000 0.000000 0.074352 0.000000 0.000000
# 5 0.000000 0.000000 0.000000 0.000000 0.032572 0.000000
# 6 0.000000 0.000000 0.000000 0.000000 0.000000 0.025838
#
#
# Mechanical properties :
#
#
# Convention : Reuss Voigt Hill
#
# Bulk Modulus (GPa) = 55.84598 58.21078 57.02838
# Shear Modulus (GPa) = 23.72732 27.85750 25.79241
#
# Velocity S-wave (km/s) = 3.57839 3.87735 3.73087
# Velocity P-wave (km/s) = 6.87106 7.17354 7.02393
#
# Compressibility (1/GPa) = 0.01790639
#
# Stress axis : x y z
#
# Youngs Moduli (GPa) = 59.55802 89.18441 59.00116
#
# Poissons Ratio (x) = 0.49739 0.41829
# Poissons Ratio (y) = 0.33216 0.05051
# Poissons Ratio (z) = 0.42223 0.07636
#
# Static dielectric constant tensor:
#      x y z
#    x 3.491490 0.000000 0.000000 
#    y 0.000000 3.394070 0.000000 
#    z 0.000000 0.000000 3.308560 
# 
# 
# High freq. dielectric constant tensor:
#      x y z
#    x 1.734260 0.000000 0.000000 
#    y 0.000000 1.723780 0.000000 
#    z 0.000000 0.000000 1.706210 
# 
# From -- ./inp_files/47785.got.cif
#   From: 2010.03.12/outbox.cif.g09.slc.cpg/sg64_24_cif.got.tgz:47785.got - 2010.04.10 20:19:32.
