data_PCOD8262036
_publ_section_title
;
Structure prediction by ZEFSAII (Michael W. Deem and Ramdas Pophale) SiO2 
 PCOD8262036
Probable space group: C M C A
;
_chemical_formula_sum "Si O2"
_cell_formula_units_Z 96
_cell_length_a 8.974647
_cell_length_b 23.651728
_cell_length_c 25.938817
_cell_angle_alpha 90.000000
_cell_angle_beta 90.000000
_cell_angle_gamma 90.000000
_cell_volume 5505.926588
_symmetry_space_group_name_H-M "C M C A"
_symmetry_group_IT_number 64
_symmetry_cell_setting 'orthorhombic'
loop_
_space_group_symop_operation_xyz
x,y,z
-x,1/2-y,1/2+z
x,-y,-z
-x,1/2+y,1/2-z
-x,-y,-z
x,1/2+y,1/2-z
-x,y,z
x,1/2-y,1/2+z
1/2+x,1/2+y,z
1/2-x,-y,1/2+z
1/2+x,1/2-y,-z
1/2-x,y,1/2-z
1/2-x,1/2-y,-z
1/2+x,y,1/2-z
1/2-x,1/2+y,z
1/2+x,-y,1/2+z
loop_
_atom_site_type_symbol
_atom_site_label
_atom_site_fract_x
_atom_site_fract_y
_atom_site_fract_z
Si Si1 0.668538 0.831488 0.960054
Si Si2 0.676311 0.984152 0.058451
Si Si3 0.678145 0.839552 0.805609
Si Si4 0.170898 0.642963 0.925702
Si Si5 0.824023 0.084820 0.111883
Si Si6 0.331781 0.260223 0.121579
O O1 0.500000 0.855424 0.950887
O O2 0.785356 0.875318 0.936368
O O3 0.684954 0.770701 0.933554
O O4 0.700353 0.825288 0.020323
O O5 0.500000 0.991137 0.066297
O O6 0.732411 0.920705 0.070620
O O7 0.764016 0.022517 0.099249
O O8 0.720498 0.000000 0.000000
O O9 0.500000 0.844405 0.803147
O O10 0.750000 0.839382 0.750000
O O11 0.742178 0.892924 0.836804
O O12 0.729261 0.781586 0.833970
O O13 0.246522 0.680072 0.880698
O O14 0.000000 0.640737 0.910947
O O15 0.000000 0.083631 0.121212
O O16 0.500000 0.275845 0.134255
#
# Coordination Sequence:
#
# PCOD8262036 Si02
#       6
#    16  16  16  16  16  16
#     4   9  17  32  48  68 102 144 179 211 256 308
#     4  10  19  34  52  70 104 150 186 219 262 312
#     4  10  21  39  61  82 104 133 169 215 272 322
#     4  10  19  30  49  72 101 144 184 213 253 308
#     4  11  21  32  51  80 108 137 177 224 265 308
#     4   9  19  32  49  74 106 135 165 213 266 312
#
# _framework density 17.435756999999999
#
# number of rings (size 3 to 8) (size 9 to 14) (size 15 to 20)
#    0.000    2.167    1.667    3.500    0.000    5.000 
#    0.000    0.000    0.000    1.000    0.000    2.333 
#    0.000    0.000    0.000    0.000    0.000    0.000 
#
# Total GULP energy -595095.997086 kJ/mol
# GULP energy per Si atom -12397.833273 kJ/mol
# Density = 1.739607 g / cm^3
# Si number density = 17.435757 Si / 1000 Ang^3
#
#
#
# Elastic Constant Matrix: (Units=GPa)
#
#
# Indices 1 2 3 4 5 6 
#
# 1 78.1631 50.9250 45.1690 0.0000 0.0000 0.0000
# 2 50.9250 117.3290 58.8946 0.0000 0.0000 0.0000
# 3 45.1690 58.8946 93.2523 0.0000 0.0000 0.0000
# 4 0.0000 0.0000 0.0000 16.9874 0.0000 0.0000
# 5 0.0000 0.0000 0.0000 0.0000 27.2373 0.0000
# 6 0.0000 0.0000 0.0000 0.0000 0.0000 30.6851
#
#
#
# Elastic Compliance Matrix: (Units=1/GPa)
#
#
# Indices 1 2 3 4 5 6 
#
# 1 0.019990 -0.005588 -0.006154 0.000000 0.000000 0.000000
# 2 -0.005588 0.014041 -0.006161 0.000000 0.000000 0.000000
# 3 -0.006154 -0.006161 0.017596 0.000000 0.000000 0.000000
# 4 0.000000 0.000000 0.000000 0.058867 0.000000 0.000000
# 5 0.000000 0.000000 0.000000 0.000000 0.036714 0.000000
# 6 0.000000 0.000000 0.000000 0.000000 0.000000 0.032589
#
#
# Mechanical properties :
#
#
# Convention : Reuss Voigt Hill
#
# Bulk Modulus (GPa) = 63.20522 66.52463 64.86493
# Shear Modulus (GPa) = 22.63703 23.89901 23.26802
#
# Velocity S-wave (km/s) = 3.60712 3.70630 3.65704
# Velocity P-wave (km/s) = 7.32649 7.52014 7.42395
#
# Compressibility (1/GPa) = 0.01582148
#
# Stress axis : x y z
#
# Youngs Moduli (GPa) = 50.02393 71.22022 56.83216
#
# Poissons Ratio (x) = 0.39794 0.34974
# Poissons Ratio (y) = 0.27951 0.35016
# Poissons Ratio (z) = 0.30785 0.43881
#
# Static dielectric constant tensor:
#      x y z
#    x 3.179590 0.000000 0.000000 
#    y 0.000000 3.281810 0.000000 
#    z 0.000000 0.000000 3.027620 
# 
# 
# High freq. dielectric constant tensor:
#      x y z
#    x 1.670820 0.000000 0.000000 
#    y 0.000000 1.673470 0.000000 
#    z 0.000000 0.000000 1.643180 
# 
# From -- ./inp_files/43058.got.cif
#   From: 2010.03.12/outbox.cif.g09.slc.cpg/sg64_22_cif.got.tgz:43058.got - 2010.04.10 20:19:32.
