data_PCOD8262127
_publ_section_title
;
Structure prediction by ZEFSAII (Michael W. Deem and Ramdas Pophale) SiO2 
 PCOD8262127
Probable space group: C M C A
;
_chemical_formula_sum "Si O2"
_cell_formula_units_Z 96
_cell_length_a 9.298025
_cell_length_b 22.930774
_cell_length_c 23.246749
_cell_angle_alpha 90.000000
_cell_angle_beta 90.000000
_cell_angle_gamma 90.000000
_cell_volume 4956.460507
_symmetry_space_group_name_H-M "C M C A"
_symmetry_group_IT_number 64
_symmetry_cell_setting 'orthorhombic'
loop_
_space_group_symop_operation_xyz
x,y,z
-x,1/2-y,1/2+z
x,-y,-z
-x,1/2+y,1/2-z
-x,-y,-z
x,1/2+y,1/2-z
-x,y,z
x,1/2-y,1/2+z
1/2+x,1/2+y,z
1/2-x,-y,1/2+z
1/2+x,1/2-y,-z
1/2-x,y,1/2-z
1/2-x,1/2-y,-z
1/2+x,y,1/2-z
1/2-x,1/2+y,z
1/2+x,-y,1/2+z
loop_
_atom_site_type_symbol
_atom_site_label
_atom_site_fract_x
_atom_site_fract_y
_atom_site_fract_z
Si Si1 0.662842 0.411451 0.697448
Si Si2 0.162715 0.522944 0.081954
Si Si3 0.665529 0.687567 0.139975
Si Si4 0.166825 0.687587 0.809910
Si Si5 0.668303 0.611457 0.584558
Si Si6 0.168078 0.876006 0.975326
O O1 0.500000 0.398477 0.715770
O O2 0.750000 0.439491 0.750000
O O3 0.672679 0.458593 0.647748
O O4 0.733943 0.350244 0.680892
O O5 0.210399 0.456150 0.080049
O O6 0.267682 0.561320 0.043052
O O7 0.000000 0.531394 0.058574
O O8 0.500000 0.672136 0.153310
O O9 0.701732 0.754132 0.154061
O O10 0.699952 0.672839 0.073237
O O11 0.250000 0.683666 0.750000
O O12 0.213664 0.635252 0.852562
O O13 0.000000 0.683909 0.793961
O O14 0.500000 0.623137 0.574737
O O15 0.755449 0.644811 0.534156
O O16 0.000000 0.884077 0.986285
#
# Coordination Sequence:
#
# PCOD8262127 Si02
#       6
#    16  16  16  16  16  16
#     4  10  19  31  50  76 103 134 174 218 264 311
#     4   9  19  35  53  74 104 142 177 210 257 315
#     4   9  19  36  55  77 106 136 170 216 265 309
#     4  10  22  39  57  77 104 140 178 215 256 305
#     4  10  21  37  55  76 106 142 175 209 255 312
#     4  10  20  34  55  83 109 133 169 218 264 305
#
# _framework density 19.368660999999999
#
# number of rings (size 3 to 8) (size 9 to 14) (size 15 to 20)
#    0.000    2.333    0.000    2.000    0.000    8.000 
#    0.000    0.000    0.000    0.000    0.000    0.000 
#    0.000    0.000    0.000    0.000    0.000    0.000 
#
# Total GULP energy -595221.756210 kJ/mol
# GULP energy per Si atom -12400.453254 kJ/mol
# Density = 1.932458 g / cm^3
# Si number density = 19.368661 Si / 1000 Ang^3
#
#
#
# Elastic Constant Matrix: (Units=GPa)
#
#
# Indices 1 2 3 4 5 6 
#
# 1 95.3314 36.2739 73.3037 0.0000 0.0000 0.0000
# 2 36.2739 58.8566 57.0511 0.0000 0.0000 0.0000
# 3 73.3037 57.0511 154.1237 0.0000 0.0000 0.0000
# 4 0.0000 0.0000 0.0000 16.0665 0.0000 0.0000
# 5 0.0000 0.0000 0.0000 0.0000 40.4205 0.0000
# 6 0.0000 0.0000 0.0000 0.0000 0.0000 18.8714
#
#
#
# Elastic Compliance Matrix: (Units=1/GPa)
#
#
# Indices 1 2 3 4 5 6 
#
# 1 0.017166 -0.004157 -0.006626 0.000000 0.000000 0.000000
# 2 -0.004157 0.027505 -0.008204 0.000000 0.000000 0.000000
# 3 -0.006626 -0.008204 0.012676 0.000000 0.000000 0.000000
# 4 0.000000 0.000000 0.000000 0.062241 0.000000 0.000000
# 5 0.000000 0.000000 0.000000 0.000000 0.024740 0.000000
# 6 0.000000 0.000000 0.000000 0.000000 0.000000 0.052990
#
#
# Mechanical properties :
#
#
# Convention : Reuss Voigt Hill
#
# Bulk Modulus (GPa) = 51.61662 71.28544 61.45103
# Shear Modulus (GPa) = 20.68240 24.51722 22.59981
#
# Velocity S-wave (km/s) = 3.27131 3.56169 3.41959
# Velocity P-wave (km/s) = 6.40125 7.33476 6.88385
#
# Compressibility (1/GPa) = 0.01937361
#
# Stress axis : x y z
#
# Youngs Moduli (GPa) = 58.25364 36.35691 78.88658
#
# Poissons Ratio (x) = 0.15115 0.52268
# Poissons Ratio (y) = 0.24218 0.64719
# Poissons Ratio (z) = 0.38597 0.29828
#
# Static dielectric constant tensor:
#      x y z
#    x 3.575030 0.000000 0.000000 
#    y 0.000000 3.413170 0.000000 
#    z 0.000000 0.000000 3.711560 
# 
# 
# High freq. dielectric constant tensor:
#      x y z
#    x 1.751950 0.000000 0.000000 
#    y 0.000000 1.739200 0.000000 
#    z 0.000000 0.000000 1.768200 
# 
# From -- ./inp_files/42956.got.cif
#   From: 2010.03.12/outbox.cif.g09.slc.cpg/sg64_22_cif.got.tgz:42956.got - 2010.04.10 20:19:32.
