data_PCOD8262646
_publ_section_title
;
Structure prediction by ZEFSAII (Michael W. Deem and Ramdas Pophale) SiO2 
 PCOD8262646
Probable space group: C M C A
;
_chemical_formula_sum "Si O2"
_cell_formula_units_Z 72
_cell_length_a 16.828251
_cell_length_b 9.354528
_cell_length_c 21.080295
_cell_angle_alpha 90.000000
_cell_angle_beta 90.000000
_cell_angle_gamma 90.000000
_cell_volume 3318.467315
_symmetry_space_group_name_H-M "C M C A"
_symmetry_group_IT_number 64
_symmetry_cell_setting 'orthorhombic'
loop_
_space_group_symop_operation_xyz
x,y,z
-x,1/2-y,1/2+z
x,-y,-z
-x,1/2+y,1/2-z
-x,-y,-z
x,1/2+y,1/2-z
-x,y,z
x,1/2-y,1/2+z
1/2+x,1/2+y,z
1/2-x,-y,1/2+z
1/2+x,1/2-y,-z
1/2-x,y,1/2-z
1/2-x,1/2-y,-z
1/2+x,y,1/2-z
1/2-x,1/2+y,z
1/2+x,-y,1/2+z
loop_
_atom_site_type_symbol
_atom_site_label
_atom_site_fract_x
_atom_site_fract_y
_atom_site_fract_z
Si Si1 0.405205 0.843065 0.819244
Si Si2 0.799177 0.000000 0.000000
Si Si3 0.907876 0.330689 0.582649
Si Si4 0.905949 0.978266 0.200296
Si Si5 0.147433 0.027771 0.569108
O O1 0.500000 0.845697 0.824119
O O2 0.373744 0.683110 0.805296
O O3 0.372727 0.946803 0.763797
O O4 0.368185 0.893223 0.885686
O O5 0.855826 0.131169 0.020568
O O6 0.742557 0.950215 0.058503
O O7 0.878428 0.430331 0.639857
O O8 0.000000 0.355612 0.567060
O O9 0.892030 0.166600 0.601287
O O10 0.000000 0.978247 0.204245
O O11 0.106978 0.000000 0.500000
#
# Coordination Sequence:
#
# PCOD8262646 Si02
#       5
#    16   8  16  16  16
#     4  10  19  37  60  93 128 166 210 260 315 380
#     4  10  25  42  61  88 132 174 208 256 319 374
#     4  11  22  40  65  94 123 166 218 263 307 373
#     4   9  20  35  62  93 127 162 209 267 318 366
#     4  10  24  39  62  89 134 168 208 254 322 372
#
# _framework density 21.696762
#
# number of rings (size 3 to 8) (size 9 to 14) (size 15 to 20)
#    0.667    1.333    0.000    3.000    3.111    5.333 
#    0.000    1.111    0.000    5.333    0.000    0.000 
#    0.000    0.000    0.000    0.000    0.000    0.000 
#
# Total GULP energy -446368.635894 kJ/mol
# GULP energy per Si atom -12399.128775 kJ/mol
# Density = 2.164738 g / cm^3
# Si number density = 21.696762 Si / 1000 Ang^3
#
#
#
# Elastic Constant Matrix: (Units=GPa)
#
#
# Indices 1 2 3 4 5 6 
#
# 1 69.5991 25.3209 42.1887 0.0000 0.0000 0.0000
# 2 25.3209 175.2058 90.6732 0.0000 0.0000 0.0000
# 3 42.1887 90.6732 126.1618 0.0000 0.0000 0.0000
# 4 0.0000 0.0000 0.0000 43.0566 0.0000 0.0000
# 5 0.0000 0.0000 0.0000 0.0000 19.9413 0.0000
# 6 0.0000 0.0000 0.0000 0.0000 0.0000 21.6246
#
#
#
# Elastic Compliance Matrix: (Units=1/GPa)
#
#
# Indices 1 2 3 4 5 6 
#
# 1 0.018095 0.000822 -0.006642 0.000000 0.000000 0.000000
# 2 0.000822 0.009125 -0.006833 0.000000 0.000000 0.000000
# 3 -0.006642 -0.006833 0.015059 0.000000 0.000000 0.000000
# 4 0.000000 0.000000 0.000000 0.023225 0.000000 0.000000
# 5 0.000000 0.000000 0.000000 0.000000 0.050147 0.000000
# 6 0.000000 0.000000 0.000000 0.000000 0.000000 0.046244
#
#
# Mechanical properties :
#
#
# Convention : Reuss Voigt Hill
#
# Bulk Modulus (GPa) = 58.91799 76.37023 67.64411
# Shear Modulus (GPa) = 25.92581 31.11010 28.51796
#
# Velocity S-wave (km/s) = 3.46051 3.79074 3.62938
# Velocity P-wave (km/s) = 6.57122 7.37800 6.98627
#
# Compressibility (1/GPa) = 0.01697275
#
# Stress axis : x y z
#
# Youngs Moduli (GPa) = 55.26388 109.58782 66.40765
#
# Poissons Ratio (x) = -0.09011 0.44108
# Poissons Ratio (y) = -0.04544 0.45378
# Poissons Ratio (z) = 0.36706 0.74884
#
# Static dielectric constant tensor:
#      x y z
#    x 3.534400 0.000000 0.000000 
#    y 0.000000 3.963000 0.000000 
#    z 0.000000 0.000000 3.830320 
# 
# 
# High freq. dielectric constant tensor:
#      x y z
#    x 1.824950 0.000000 0.000000 
#    y 0.000000 1.860180 0.000000 
#    z 0.000000 0.000000 1.849330 
# 
# From -- ./inp_files/45650.got.cif
#   From: 2010.03.12/outbox.cif.g09.slc.cpg/sg64_23_cif.got.tgz:45650.got - 2010.04.10 20:19:32.
