data_PCOD8262738
_publ_section_title
;
Structure prediction by ZEFSAII (Michael W. Deem and Ramdas Pophale) SiO2 
 PCOD8262738
Probable space group: C M C A
;
_chemical_formula_sum "Si O2"
_cell_formula_units_Z 104
_cell_length_a 9.514136
_cell_length_b 28.825970
_cell_length_c 19.121567
_cell_angle_alpha 90.000000
_cell_angle_beta 90.000000
_cell_angle_gamma 90.000000
_cell_volume 5244.170040
_symmetry_space_group_name_H-M "C M C A"
_symmetry_group_IT_number 64
_symmetry_cell_setting 'orthorhombic'
loop_
_space_group_symop_operation_xyz
x,y,z
-x,1/2-y,1/2+z
x,-y,-z
-x,1/2+y,1/2-z
-x,-y,-z
x,1/2+y,1/2-z
-x,y,z
x,1/2-y,1/2+z
1/2+x,1/2+y,z
1/2-x,-y,1/2+z
1/2+x,1/2-y,-z
1/2-x,y,1/2-z
1/2-x,1/2-y,-z
1/2+x,y,1/2-z
1/2-x,1/2+y,z
1/2+x,-y,1/2+z
loop_
_atom_site_type_symbol
_atom_site_label
_atom_site_fract_x
_atom_site_fract_y
_atom_site_fract_z
Si Si1 0.162830 0.003307 0.077144
Si Si2 0.341577 0.402516 0.119627
Si Si3 0.343563 0.774008 0.141299
Si Si4 0.330951 0.840158 0.025006
Si Si5 0.163783 0.578394 0.316907
Si Si6 0.250000 0.344686 0.250000
Si Si7 0.835743 0.173882 0.115682
O O1 0.223387 0.047657 0.118698
O O2 0.000000 0.013157 0.064882
O O3 0.186739 0.957530 0.124767
O O4 0.234701 0.000000 0.000000
O O5 0.500000 0.393261 0.092127
O O6 0.228853 0.385961 0.062500
O O7 0.329825 0.377996 0.195619
O O8 0.500000 0.765176 0.117197
O O9 0.272220 0.798300 0.074165
O O10 0.347304 0.808434 0.207780
O O11 0.283466 0.721942 0.153248
O O12 0.500000 0.843451 0.020458
O O13 0.263732 0.833738 0.950161
O O14 0.250000 0.562521 0.250000
O O15 0.192706 0.632524 0.330626
O O16 0.000000 0.568281 0.303371
O O17 0.000000 0.173852 0.093222
#
# Coordination Sequence:
#
# PCOD8262738 Si02
#       7
#    16  16  16  16  16   8  16
#     4   9  18  35  59  85 110 144 191 234 274 333
#     4  10  20  35  58  82 111 151 187 225 281 340
#     4   9  19  34  51  76 111 145 185 232 279 333
#     4  10  20  35  55  84 115 142 182 239 285 325
#     4  10  22  38  58  84 115 149 189 234 279 334
#     4  10  20  32  52  82 114 142 188 232 282 330
#     4  10  20  36  58  78 106 150 191 227 277 337
#
# _framework density 19.831545999999999
#
# number of rings (size 3 to 8) (size 9 to 14) (size 15 to 20)
#    0.000    2.308    0.000    2.308    2.154    3.692 
#    0.000    4.615    0.000    1.846    0.000    0.000 
#    0.000    0.000    0.000    0.000    0.000    0.000 
#
# Total GULP energy -644246.777892 kJ/mol
# GULP energy per Si atom -12389.361113 kJ/mol
# Density = 1.978641 g / cm^3
# Si number density = 19.831546 Si / 1000 Ang^3
#
#
#
# Elastic Constant Matrix: (Units=GPa)
#
#
# Indices 1 2 3 4 5 6 
#
# 1 58.1522 33.9908 32.5771 0.0000 0.0000 0.0000
# 2 33.9908 122.9071 47.6637 0.0000 0.0000 0.0000
# 3 32.5771 47.6637 115.2141 0.0000 0.0000 0.0000
# 4 0.0000 0.0000 0.0000 25.1026 0.0000 0.0000
# 5 0.0000 0.0000 0.0000 0.0000 30.0842 0.0000
# 6 0.0000 0.0000 0.0000 0.0000 0.0000 18.6967
#
#
#
# Elastic Compliance Matrix: (Units=1/GPa)
#
#
# Indices 1 2 3 4 5 6 
#
# 1 0.022290 -0.004431 -0.004469 0.000000 0.000000 0.000000
# 2 -0.004431 0.010572 -0.003121 0.000000 0.000000 0.000000
# 3 -0.004469 -0.003121 0.011234 0.000000 0.000000 0.000000
# 4 0.000000 0.000000 0.000000 0.039837 0.000000 0.000000
# 5 0.000000 0.000000 0.000000 0.000000 0.033240 0.000000
# 6 0.000000 0.000000 0.000000 0.000000 0.000000 0.053486
#
#
# Mechanical properties :
#
#
# Convention : Reuss Voigt Hill
#
# Bulk Modulus (GPa) = 49.86603 58.30408 54.08505
# Shear Modulus (GPa) = 24.82801 26.91281 25.87041
#
# Velocity S-wave (km/s) = 3.54212 3.68784 3.61572
# Velocity P-wave (km/s) = 6.47520 6.89906 6.69049
#
# Compressibility (1/GPa) = 0.02005373
#
# Stress axis : x y z
#
# Youngs Moduli (GPa) = 44.86282 94.59037 89.01375
#
# Poissons Ratio (x) = 0.41915 0.39784
# Poissons Ratio (y) = 0.19880 0.27778
# Poissons Ratio (z) = 0.20051 0.29518
#
# Static dielectric constant tensor:
#      x y z
#    x 3.319850 0.000000 0.000000 
#    y 0.000000 4.023400 0.000000 
#    z 0.000000 0.000000 3.551630 
# 
# 
# High freq. dielectric constant tensor:
#      x y z
#    x 1.739380 0.000000 0.000000 
#    y 0.000000 1.791920 0.000000 
#    z 0.000000 0.000000 1.769280 
# 
# From -- ./inp_files/37253.got.cif
#   From: 2010.03.12/outbox.cif.g09.slc.cpg/sg64_19_cif.got.tgz:37253.got - 2010.04.10 20:19:32.
