data_PCOD8262368
_publ_section_title
;
Structure prediction by ZEFSAII (Michael W. Deem and Ramdas Pophale) SiO2 
 PCOD8262368
Probable space group: C M C A
;
_chemical_formula_sum "Si O2"
_cell_formula_units_Z 128
_cell_length_a 17.506741
_cell_length_b 20.747247
_cell_length_c 18.329271
_cell_angle_alpha 90.000000
_cell_angle_beta 90.000000
_cell_angle_gamma 90.000000
_cell_volume 6657.496954
_symmetry_space_group_name_H-M "C M C A"
_symmetry_group_IT_number 64
_symmetry_cell_setting 'orthorhombic'
loop_
_space_group_symop_operation_xyz
x,y,z
-x,1/2-y,1/2+z
x,-y,-z
-x,1/2+y,1/2-z
-x,-y,-z
x,1/2+y,1/2-z
-x,y,z
x,1/2-y,1/2+z
1/2+x,1/2+y,z
1/2-x,-y,1/2+z
1/2+x,1/2-y,-z
1/2-x,y,1/2-z
1/2-x,1/2-y,-z
1/2+x,y,1/2-z
1/2-x,1/2+y,z
1/2+x,-y,1/2+z
loop_
_atom_site_type_symbol
_atom_site_label
_atom_site_fract_x
_atom_site_fract_y
_atom_site_fract_z
Si Si1 0.415315 0.307411 0.015509
Si Si2 0.295228 0.840044 0.174340
Si Si3 0.742824 0.890589 0.664563
Si Si4 0.689760 0.760508 0.883165
Si Si5 0.411009 0.452177 0.067650
Si Si6 0.264280 0.969817 0.336539
Si Si7 0.082494 0.155076 0.143267
Si Si8 0.915719 0.270629 0.249371
O O1 0.500000 0.288440 0.043475
O O2 0.352994 0.255140 0.041667
O O3 0.394973 0.379719 0.040822
O O4 0.411594 0.301880 0.928784
O O5 0.250000 0.840346 0.250000
O O6 0.266862 0.781099 0.123775
O O7 0.382878 0.825453 0.194813
O O8 0.283721 0.908557 0.132481
O O9 0.750000 0.875839 0.750000
O O10 0.788812 0.836022 0.620483
O O11 0.772133 0.961261 0.639339
O O12 0.652485 0.894089 0.646493
O O13 0.632314 0.735649 0.822004
O O14 0.500000 0.460601 0.092525
O O15 0.352716 0.464668 0.135720
O O16 0.392853 0.500000 0.000000
O O17 0.250000 0.968082 0.250000
O O18 0.085516 0.201083 0.212610
O O19 0.000000 0.117724 0.142592
O O20 0.000000 0.293384 0.270665
#
# Coordination Sequence:
#
# PCOD8262368 Si02
#       8
#    16  16  16  16  16  16  16  16
#     4  10  21  34  54  83 113 142 183 234 285 340
#     4   9  17  33  52  76 106 138 179 232 268 323
#     4  11  20  35  54  78 110 148 186 228 274 330
#     4  11  18  34  55  79 107 140 185 234 275 332
#     4  10  20  37  59  85 117 157 190 231 299 358
#     4  10  21  35  53  79 117 154 189 235 280 343
#     4  10  20  35  53  81 112 144 180 223 281 342
#     4  10  19  33  57  78 104 146 188 230 282 333
#
# _framework density 19.226444999999998
#
# number of rings (size 3 to 8) (size 9 to 14) (size 15 to 20)
#    0.000    1.875    3.750    1.500    0.000    2.000 
#    0.000    0.000    0.000    2.250    0.000    0.000 
#    0.000    5.000    0.000    0.000    0.000    0.000 
#
# Total GULP energy -792873.977165 kJ/mol
# GULP energy per Si atom -12388.655893 kJ/mol
# Density = 1.918268 g / cm^3
# Si number density = 19.226445 Si / 1000 Ang^3
#
#
#
# Elastic Constant Matrix: (Units=GPa)
#
#
# Indices 1 2 3 4 5 6 
#
# 1 94.9201 9.6234 10.8951 0.0000 0.0000 0.0000
# 2 9.6234 79.4932 -20.6647 0.0000 0.0000 0.0000
# 3 10.8951 -20.6647 37.7112 0.0000 0.0000 0.0000
# 4 0.0000 0.0000 0.0000 12.8487 0.0000 0.0000
# 5 0.0000 0.0000 0.0000 0.0000 31.1245 0.0000
# 6 0.0000 0.0000 0.0000 0.0000 0.0000 16.7298
#
#
#
# Elastic Compliance Matrix: (Units=1/GPa)
#
#
# Indices 1 2 3 4 5 6 
#
# 1 0.011337 -0.002593 -0.004696 0.000000 0.000000 0.000000
# 2 -0.002593 0.015263 0.009113 0.000000 0.000000 0.000000
# 3 -0.004696 0.009113 0.032868 0.000000 0.000000 0.000000
# 4 0.000000 0.000000 0.000000 0.077829 0.000000 0.000000
# 5 0.000000 0.000000 0.000000 0.000000 0.032129 0.000000
# 6 0.000000 0.000000 0.000000 0.000000 0.000000 0.059774
#
#
# Mechanical properties :
#
#
# Convention : Reuss Voigt Hill
#
# Bulk Modulus (GPa) = 15.84457 23.53690 19.69073
# Shear Modulus (GPa) = 20.27651 26.29198 23.28425
#
# Velocity S-wave (km/s) = 3.25101 3.70197 3.48379
# Velocity P-wave (km/s) = 4.72768 5.52642 5.14258
#
# Compressibility (1/GPa) = 0.06311310
#
# Stress axis : x y z
#
# Youngs Moduli (GPa) = 88.20548 65.51994 30.42502
#
# Poissons Ratio (x) = 0.16992 0.14289
# Poissons Ratio (y) = 0.22875 -0.27725
# Poissons Ratio (z) = 0.41425 -0.59706
#
# Static dielectric constant tensor:
#      x y z
#    x 3.809040 0.000000 0.000000 
#    y 0.000000 3.784040 0.000000 
#    z 0.000000 0.000000 3.398500 
# 
# 
# High freq. dielectric constant tensor:
#      x y z
#    x 1.741250 0.000000 0.000000 
#    y 0.000000 1.744770 0.000000 
#    z 0.000000 0.000000 1.728940 
# 
# From -- ./inp_files/40584.got.cif
#   From: 2010.03.12/outbox.cif.g09.slc.cpg/sg64_21_cif.got.tgz:40584.got - 2010.04.10 20:19:32.
