data_PCOD8262726
_publ_section_title
;
Structure prediction by ZEFSAII (Michael W. Deem and Ramdas Pophale) SiO2 
 PCOD8262726
Probable space group: C M C A
;
_chemical_formula_sum "Si O2"
_cell_formula_units_Z 96
_cell_length_a 9.655807
_cell_length_b 22.948365
_cell_length_c 23.426443
_cell_angle_alpha 90.000000
_cell_angle_beta 90.000000
_cell_angle_gamma 90.000000
_cell_volume 5190.947983
_symmetry_space_group_name_H-M "C M C A"
_symmetry_group_IT_number 64
_symmetry_cell_setting 'orthorhombic'
loop_
_space_group_symop_operation_xyz
x,y,z
-x,1/2-y,1/2+z
x,-y,-z
-x,1/2+y,1/2-z
-x,-y,-z
x,1/2+y,1/2-z
-x,y,z
x,1/2-y,1/2+z
1/2+x,1/2+y,z
1/2-x,-y,1/2+z
1/2+x,1/2-y,-z
1/2-x,y,1/2-z
1/2-x,1/2-y,-z
1/2+x,y,1/2-z
1/2-x,1/2+y,z
1/2+x,-y,1/2+z
loop_
_atom_site_type_symbol
_atom_site_label
_atom_site_fract_x
_atom_site_fract_y
_atom_site_fract_z
Si Si1 0.659943 0.650217 0.591323
Si Si2 0.163584 0.553327 0.136017
Si Si3 0.656243 0.736937 0.413313
Si Si4 0.335297 0.935270 0.192335
Si Si5 0.661418 0.379158 0.530934
Si Si6 0.845798 0.168033 0.300156
O O1 0.500000 0.668828 0.592626
O O2 0.748568 0.707221 0.581632
O O3 0.700294 0.617076 0.649080
O O4 0.687032 0.608038 0.536058
O O5 0.223714 0.493554 0.161721
O O6 0.221400 0.569178 0.071926
O O7 0.209120 0.605943 0.177071
O O8 0.000000 0.545809 0.133374
O O9 0.500000 0.753544 0.432207
O O10 0.720194 0.685016 0.452448
O O11 0.657287 0.716890 0.348116
O O12 0.500000 0.938481 0.205346
O O13 0.250000 0.924162 0.250000
O O14 0.500000 0.375010 0.546849
O O15 0.750000 0.191191 0.250000
O O16 0.000000 0.160228 0.275881
#
# Coordination Sequence:
#
# PCOD8262726 Si02
#       6
#    16  16  16  16  16  16
#     4  10  20  32  49  74  99 125 160 197 232 279
#     4   8  15  30  51  73  96 121 153 197 246 288
#     4   9  18  32  49  69  96 130 160 191 240 290
#     4  10  21  35  51  72  98 130 164 195 232 280
#     4   8  15  30  52  76  98 119 152 201 247 283
#     4   9  17  29  47  70  93 121 159 200 241 283
#
# _framework density 18.493732000000001
#
# number of rings (size 3 to 8) (size 9 to 14) (size 15 to 20)
#    0.000    3.000    0.000    3.000    0.000    2.667 
#    0.000    6.667    0.000    3.000    0.000    2.333 
#    0.000    0.000    0.000    0.000    0.000    0.000 
#
# Total GULP energy -594816.072944 kJ/mol
# GULP energy per Si atom -12392.001520 kJ/mol
# Density = 1.845164 g / cm^3
# Si number density = 18.493732 Si / 1000 Ang^3
#
#
#
# Elastic Constant Matrix: (Units=GPa)
#
#
# Indices 1 2 3 4 5 6 
#
# 1 40.6908 19.0437 41.1757 0.0000 0.0000 0.0000
# 2 19.0437 55.0860 39.6024 0.0000 0.0000 0.0000
# 3 41.1757 39.6024 132.4943 0.0000 0.0000 0.0000
# 4 0.0000 0.0000 0.0000 16.2480 0.0000 0.0000
# 5 0.0000 0.0000 0.0000 0.0000 24.5900 0.0000
# 6 0.0000 0.0000 0.0000 0.0000 0.0000 21.5885
#
#
#
# Elastic Compliance Matrix: (Units=1/GPa)
#
#
# Indices 1 2 3 4 5 6 
#
# 1 0.037251 -0.005802 -0.009842 0.000000 0.000000 0.000000
# 2 -0.005802 0.024026 -0.005378 0.000000 0.000000 0.000000
# 3 -0.009842 -0.005378 0.012214 0.000000 0.000000 0.000000
# 4 0.000000 0.000000 0.000000 0.061546 0.000000 0.000000
# 5 0.000000 0.000000 0.000000 0.000000 0.040667 0.000000
# 6 0.000000 0.000000 0.000000 0.000000 0.000000 0.046321
#
#
# Mechanical properties :
#
#
# Convention : Reuss Voigt Hill
#
# Bulk Modulus (GPa) = 31.80149 47.54609 39.67379
# Shear Modulus (GPa) = 18.21158 21.04858 19.63008
#
# Velocity S-wave (km/s) = 3.14147 3.37730 3.26152
# Velocity P-wave (km/s) = 5.51285 6.40104 5.97348
#
# Compressibility (1/GPa) = 0.03144507
#
# Stress axis : x y z
#
# Youngs Moduli (GPa) = 26.84524 41.62210 81.87517
#
# Poissons Ratio (x) = 0.24149 0.80584
# Poissons Ratio (y) = 0.15576 0.44033
# Poissons Ratio (z) = 0.26422 0.22385
#
# Static dielectric constant tensor:
#      x y z
#    x 3.041770 0.000000 0.000000 
#    y 0.000000 3.372900 0.000000 
#    z 0.000000 0.000000 3.506150 
# 
# 
# High freq. dielectric constant tensor:
#      x y z
#    x 1.672760 0.000000 0.000000 
#    y 0.000000 1.709040 0.000000 
#    z 0.000000 0.000000 1.730090 
# 
# From -- ./inp_files/38278.got.cif
#   From: 2010.03.12/outbox.cif.g09.slc.cpg/sg64_20_cif.got.tgz:38278.got - 2010.04.10 20:19:32.
