data_PCOD8262470
_publ_section_title
;
Structure prediction by ZEFSAII (Michael W. Deem and Ramdas Pophale) SiO2 
 PCOD8262470
Probable space group: C M C A
;
_chemical_formula_sum "Si O2"
_cell_formula_units_Z 96
_cell_length_a 18.207272
_cell_length_b 26.178231
_cell_length_c 10.216281
_cell_angle_alpha 90.000000
_cell_angle_beta 90.000000
_cell_angle_gamma 90.000000
_cell_volume 4869.428638
_symmetry_space_group_name_H-M "C M C A"
_symmetry_group_IT_number 64
_symmetry_cell_setting 'orthorhombic'
loop_
_space_group_symop_operation_xyz
x,y,z
-x,1/2-y,1/2+z
x,-y,-z
-x,1/2+y,1/2-z
-x,-y,-z
x,1/2+y,1/2-z
-x,y,z
x,1/2-y,1/2+z
1/2+x,1/2+y,z
1/2-x,-y,1/2+z
1/2+x,1/2-y,-z
1/2-x,y,1/2-z
1/2-x,1/2-y,-z
1/2+x,y,1/2-z
1/2-x,1/2+y,z
1/2+x,-y,1/2+z
loop_
_atom_site_type_symbol
_atom_site_label
_atom_site_fract_x
_atom_site_fract_y
_atom_site_fract_z
Si Si1 0.133104 0.435669 0.181696
Si Si2 0.223161 0.945985 0.055512
Si Si3 0.861378 0.353390 0.516932
Si Si4 0.500000 0.082543 0.458306
Si Si5 0.301786 0.744913 0.126342
Si Si6 0.086756 0.826158 0.269981
Si Si7 0.500000 0.516300 0.786084
O O1 0.182158 0.435731 0.310344
O O2 0.188393 0.448748 0.063805
O O3 0.094566 0.381096 0.160762
O O4 0.071163 0.479170 0.193656
O O5 0.203783 0.895507 0.972923
O O6 0.193038 0.000000 0.000000
O O7 0.931422 0.382493 0.570867
O O8 0.842008 0.309416 0.619395
O O9 0.877612 0.328420 0.374845
O O10 0.500000 0.062971 0.608638
O O11 0.500000 0.037060 0.356623
O O12 0.250000 0.748243 0.250000
O O13 0.366277 0.787160 0.140257
O O14 0.250000 0.750000 0.000000
O O15 0.000000 0.810832 0.264273
#
# Coordination Sequence:
#
# PCOD8262470 Si02
#       7
#    16  16  16   8  16  16   8
#     4  10  19  34  59  87 115 153 206 256 306 372
#     4  10  20  35  58  86 119 158 202 253 308 375
#     4  11  21  40  63  94 126 160 213 265 324 382
#     4  11  20  34  63  91 123 157 203 261 319 368
#     4  12  26  44  66  92 130 173 215 268 325 388
#     4  11  21  39  69  93 120 161 218 269 319 385
#     4  11  18  34  60  89 119 153 206 261 306 364
#
# _framework density 19.714839000000001
#
# number of rings (size 3 to 8) (size 9 to 14) (size 15 to 20)
#    0.000    1.167    6.667    2.000    3.500    0.000 
#    6.000    0.417    0.000    0.000    0.000    0.000 
#    0.000    0.000    0.000    0.000    0.000    0.000 
#
# Total GULP energy -594956.166883 kJ/mol
# GULP energy per Si atom -12394.920143 kJ/mol
# Density = 1.966997 g / cm^3
# Si number density = 19.714839 Si / 1000 Ang^3
#
#
#
# Elastic Constant Matrix: (Units=GPa)
#
#
# Indices 1 2 3 4 5 6 
#
# 1 151.1318 59.5091 41.5445 0.0000 0.0000 0.0000
# 2 59.5091 128.1152 35.4491 0.0000 0.0000 0.0000
# 3 41.5445 35.4491 48.1982 0.0000 0.0000 0.0000
# 4 0.0000 0.0000 0.0000 28.6519 0.0000 0.0000
# 5 0.0000 0.0000 0.0000 0.0000 37.2058 0.0000
# 6 0.0000 0.0000 0.0000 0.0000 0.0000 26.9210
#
#
#
# Elastic Compliance Matrix: (Units=1/GPa)
#
#
# Indices 1 2 3 4 5 6 
#
# 1 0.009336 -0.002649 -0.006099 0.000000 0.000000 0.000000
# 2 -0.002649 0.010551 -0.005477 0.000000 0.000000 0.000000
# 3 -0.006099 -0.005477 0.030033 0.000000 0.000000 0.000000
# 4 0.000000 0.000000 0.000000 0.034902 0.000000 0.000000
# 5 0.000000 0.000000 0.000000 0.000000 0.026878 0.000000
# 6 0.000000 0.000000 0.000000 0.000000 0.000000 0.037146
#
#
# Mechanical properties :
#
#
# Convention : Reuss Voigt Hill
#
# Bulk Modulus (GPa) = 46.57582 66.71675 56.64628
# Shear Modulus (GPa) = 27.10711 31.28523 29.19617
#
# Velocity S-wave (km/s) = 3.71207 3.98790 3.85245
# Velocity P-wave (km/s) = 6.48449 7.42420 6.97020
#
# Compressibility (1/GPa) = 0.02147037
#
# Stress axis : x y z
#
# Youngs Moduli (GPa) = 107.10706 94.77354 33.29660
#
# Poissons Ratio (x) = 0.25107 0.20308
# Poissons Ratio (y) = 0.28374 0.18237
# Poissons Ratio (z) = 0.65326 0.51908
#
# Static dielectric constant tensor:
#      x y z
#    x 4.070580 0.000000 0.000000 
#    y 0.000000 3.782560 0.000000 
#    z 0.000000 0.000000 4.257640 
# 
# 
# High freq. dielectric constant tensor:
#      x y z
#    x 1.789910 0.000000 0.000000 
#    y 0.000000 1.775300 0.000000 
#    z 0.000000 0.000000 1.721580 
# 
# From -- ./inp_files/16272.got.cif
#   From: 2010.03.12/outbox.cif.g09.slc.cpg/sg64_9_cif.got.tgz:16272.got - 2010.04.10 20:19:32.
