data_PCOD8262346
_publ_section_title
;
Structure prediction by ZEFSAII (Michael W. Deem and Ramdas Pophale) SiO2 
 PCOD8262346
Probable space group: C M C A
;
_chemical_formula_sum "Si O2"
_cell_formula_units_Z 96
_cell_length_a 9.009919
_cell_length_b 19.831809
_cell_length_c 29.271601
_cell_angle_alpha 90.000000
_cell_angle_beta 90.000000
_cell_angle_gamma 90.000000
_cell_volume 5230.337268
_symmetry_space_group_name_H-M "C M C A"
_symmetry_group_IT_number 64
_symmetry_cell_setting 'orthorhombic'
loop_
_space_group_symop_operation_xyz
x,y,z
-x,1/2-y,1/2+z
x,-y,-z
-x,1/2+y,1/2-z
-x,-y,-z
x,1/2+y,1/2-z
-x,y,z
x,1/2-y,1/2+z
1/2+x,1/2+y,z
1/2-x,-y,1/2+z
1/2+x,1/2-y,-z
1/2-x,y,1/2-z
1/2-x,1/2-y,-z
1/2+x,y,1/2-z
1/2-x,1/2+y,z
1/2+x,-y,1/2+z
loop_
_atom_site_type_symbol
_atom_site_label
_atom_site_fract_x
_atom_site_fract_y
_atom_site_fract_z
Si Si1 0.825773 0.105061 0.297444
Si Si2 0.323984 0.144292 0.621645
Si Si3 0.176132 0.010118 0.130139
Si Si4 0.174303 0.758701 0.202141
Si Si5 0.824339 0.056544 0.032369
Si Si6 0.175915 0.685799 0.521551
O O1 0.750000 0.088682 0.250000
O O2 0.788243 0.181855 0.312449
O O3 0.000000 0.094243 0.292807
O O4 0.760576 0.050736 0.331494
O O5 0.500000 0.146595 0.619933
O O6 0.271728 0.067799 0.630796
O O7 0.263750 0.192546 0.662150
O O8 0.263432 0.170410 0.572659
O O9 0.000000 0.015971 0.137151
O O10 0.231313 0.044960 0.083568
O O11 0.250000 0.778217 0.250000
O O12 0.000000 0.768896 0.209033
O O13 0.000000 0.049388 0.031124
O O14 0.772517 0.127778 0.013077
O O15 0.752655 0.000000 0.000000
O O16 0.250000 0.750000 0.500000
O O17 0.000000 0.694428 0.522624
#
# Coordination Sequence:
#
# PCOD8262346 Si02
#       6
#    16  16  16  16  16  16
#     4  10  21  37  56  78 106 137 173 215 263 319
#     4   9  18  34  55  77 104 140 178 214 259 312
#     4  10  19  33  56  81 106 138 178 221 262 309
#     4   9  19  36  55  75 100 134 172 211 260 312
#     4   9  16  31  54  78 104 141 184 216 250 307
#     4  10  20  34  53  78 108 141 178 219 260 309
#
# _framework density 18.354455999999999
#
# number of rings (size 3 to 8) (size 9 to 14) (size 15 to 20)
#    0.000    2.500    1.667    0.500    2.333    1.333 
#    0.000    4.167    0.000    1.000    0.000    0.000 
#    0.000    0.000    0.000    0.000    0.000    0.000 
#
# Total GULP energy -595074.351213 kJ/mol
# GULP energy per Si atom -12397.382317 kJ/mol
# Density = 1.831268 g / cm^3
# Si number density = 18.354456 Si / 1000 Ang^3
#
#
#
# Elastic Constant Matrix: (Units=GPa)
#
#
# Indices 1 2 3 4 5 6 
#
# 1 35.8581 42.8013 45.0304 0.0000 0.0000 0.0000
# 2 42.8013 172.0685 120.8964 0.0000 0.0000 0.0000
# 3 45.0304 120.8964 176.1483 0.0000 0.0000 0.0000
# 4 0.0000 0.0000 0.0000 48.1646 0.0000 0.0000
# 5 0.0000 0.0000 0.0000 0.0000 24.3311 0.0000
# 6 0.0000 0.0000 0.0000 0.0000 0.0000 15.8639
#
#
#
# Elastic Compliance Matrix: (Units=1/GPa)
#
#
# Indices 1 2 3 4 5 6 
#
# 1 0.043940 -0.005867 -0.007206 0.000000 0.000000 0.000000
# 2 -0.005867 0.012008 -0.006741 0.000000 0.000000 0.000000
# 3 -0.007206 -0.006741 0.012146 0.000000 0.000000 0.000000
# 4 0.000000 0.000000 0.000000 0.020762 0.000000 0.000000
# 5 0.000000 0.000000 0.000000 0.000000 0.041100 0.000000
# 6 0.000000 0.000000 0.000000 0.000000 0.000000 0.063036
#
#
# Mechanical properties :
#
#
# Convention : Reuss Voigt Hill
#
# Bulk Modulus (GPa) = 35.13107 89.05901 62.09504
# Shear Modulus (GPa) = 20.65189 29.36171 25.00680
#
# Velocity S-wave (km/s) = 3.35799 4.00397 3.69513
# Velocity P-wave (km/s) = 5.84951 8.36677 7.21871
#
# Compressibility (1/GPa) = 0.02846483
#
# Stress axis : x y z
#
# Youngs Moduli (GPa) = 22.75832 83.28127 82.33127
#
# Poissons Ratio (x) = 0.48859 0.59330
# Poissons Ratio (y) = 0.13352 0.55503
# Poissons Ratio (z) = 0.16400 0.56143
#
# Static dielectric constant tensor:
#      x y z
#    x 2.999890 0.000000 0.000000 
#    y 0.000000 3.488710 0.000000 
#    z 0.000000 0.000000 3.680920 
# 
# 
# High freq. dielectric constant tensor:
#      x y z
#    x 1.672270 0.000000 0.000000 
#    y 0.000000 1.723740 0.000000 
#    z 0.000000 0.000000 1.725040 
# 
# From -- ./inp_files/48095.got.cif
#   From: 2010.03.12/outbox.cif.g09.slc.cpg/sg64_25_cif.got.tgz:48095.got - 2010.04.10 20:19:32.
