data_PCOD8262350
_publ_section_title
;
Structure prediction by ZEFSAII (Michael W. Deem and Ramdas Pophale) SiO2 
 PCOD8262350
Probable space group: C M C A
;
_chemical_formula_sum "Si O2"
_cell_formula_units_Z 112
_cell_length_a 33.910114
_cell_length_b 33.030522
_cell_length_c 4.900408
_cell_angle_alpha 90.000000
_cell_angle_beta 90.000000
_cell_angle_gamma 90.000000
_cell_volume 5488.793944
_symmetry_space_group_name_H-M "C M C A"
_symmetry_group_IT_number 64
_symmetry_cell_setting 'orthorhombic'
loop_
_space_group_symop_operation_xyz
x,y,z
-x,1/2-y,1/2+z
x,-y,-z
-x,1/2+y,1/2-z
-x,-y,-z
x,1/2+y,1/2-z
-x,y,z
x,1/2-y,1/2+z
1/2+x,1/2+y,z
1/2-x,-y,1/2+z
1/2+x,1/2-y,-z
1/2-x,y,1/2-z
1/2-x,1/2-y,-z
1/2+x,y,1/2-z
1/2-x,1/2+y,z
1/2+x,-y,1/2+z
loop_
_atom_site_type_symbol
_atom_site_label
_atom_site_fract_x
_atom_site_fract_y
_atom_site_fract_z
Si Si1 0.044065 0.666252 0.644757
Si Si2 0.346092 0.542587 0.108345
Si Si3 0.166356 0.849855 0.364877
Si Si4 0.886210 0.926962 0.387457
Si Si5 0.706804 0.119477 0.370712
Si Si6 0.383797 0.223259 0.659519
Si Si7 0.543619 0.112014 0.152422
O O1 0.072571 0.704527 0.664645
O O2 0.041645 0.649201 0.946828
O O3 0.000000 0.679742 0.548059
O O4 0.060049 0.631034 0.437121
O O5 0.360947 0.543022 0.419086
O O6 0.310770 0.574644 0.094831
O O7 0.328939 0.500000 0.000000
O O8 0.383740 0.553747 0.913637
O O9 0.130904 0.881869 0.357151
O O10 0.181971 0.850420 0.674288
O O11 0.149566 0.807472 0.262405
O O12 0.203585 0.861131 0.170974
O O13 0.929324 0.923399 0.523418
O O14 0.750000 0.115261 0.250000
O O15 0.378643 0.237156 0.347845
O O16 0.500000 0.093201 0.198697
#
# Coordination Sequence:
#
# PCOD8262350 Si02
#       7
#    16  16  16  16  16  16  16
#     4  10  21  35  53  80 116 151 189 240 292 336
#     4  10  21  36  57  90 121 147 180 223 286 349
#     4  10  21  37  59  84 113 144 199 237 267 345
#     4  10  19  34  60  80 111 157 194 235 274 327
#     4  10  21  39  64  88 110 149 185 227 285 338
#     4  12  24  36  57  83 117 155 189 237 294 337
#     4  10  19  33  56  82 109 147 200 248 279 317
#
# _framework density 20.405211000000001
#
# number of rings (size 3 to 8) (size 9 to 14) (size 15 to 20)
#    0.000    1.714    1.429    3.429    4.000    0.571 
#    0.000    4.286    0.000   11.143    0.000    0.000 
#    0.000    0.000    0.000    0.000    0.000    0.000 
#
# Total GULP energy -694045.894600 kJ/mol
# GULP energy per Si atom -12393.676689 kJ/mol
# Density = 2.035877 g / cm^3
# Si number density = 20.405211 Si / 1000 Ang^3
#
#
#
# Elastic Constant Matrix: (Units=GPa)
#
#
# Indices 1 2 3 4 5 6 
#
# 1 75.5425 34.7512 1.8734 0.0000 0.0000 0.0000
# 2 34.7512 64.4060 6.6864 0.0000 0.0000 0.0000
# 3 1.8734 6.6864 67.4413 0.0000 0.0000 0.0000
# 4 0.0000 0.0000 0.0000 25.1832 0.0000 0.0000
# 5 0.0000 0.0000 0.0000 0.0000 24.0002 0.0000
# 6 0.0000 0.0000 0.0000 0.0000 0.0000 17.4610
#
#
#
# Elastic Compliance Matrix: (Units=1/GPa)
#
#
# Indices 1 2 3 4 5 6 
#
# 1 0.017622 -0.009556 0.000458 0.000000 0.000000 0.000000
# 2 -0.009556 0.020870 -0.001804 0.000000 0.000000 0.000000
# 3 0.000458 -0.001804 0.014994 0.000000 0.000000 0.000000
# 4 0.000000 0.000000 0.000000 0.039709 0.000000 0.000000
# 5 0.000000 0.000000 0.000000 0.000000 0.041666 0.000000
# 6 0.000000 0.000000 0.000000 0.000000 0.000000 0.057271
#
#
# Mechanical properties :
#
#
# Convention : Reuss Voigt Hill
#
# Bulk Modulus (GPa) = 31.56317 32.66797 32.11557
# Shear Modulus (GPa) = 22.27216 24.26746 23.26981
#
# Velocity S-wave (km/s) = 3.30736 3.45233 3.38062
# Velocity P-wave (km/s) = 5.48513 5.65118 5.56877
#
# Compressibility (1/GPa) = 0.03168249
#
# Stress axis : x y z
#
# Youngs Moduli (GPa) = 56.74692 47.91636 66.69418
#
# Poissons Ratio (x) = 0.45788 -0.03054
# Poissons Ratio (y) = 0.54226 0.12029
# Poissons Ratio (z) = -0.02598 0.08643
#
# Static dielectric constant tensor:
#      x y z
#    x 3.580050 0.000000 0.000000 
#    y 0.000000 3.361940 0.000000 
#    z 0.000000 0.000000 4.025510 
# 
# 
# High freq. dielectric constant tensor:
#      x y z
#    x 1.779060 0.000000 0.000000 
#    y 0.000000 1.764520 0.000000 
#    z 0.000000 0.000000 1.825840 
# 
# From -- ./inp_files/3486.got.cif
#   From: 2010.03.12/outbox.cif.g09.slc.cpg/sg64_2_cif.got.tgz:3486.got - 2010.04.10 20:19:32.
