data_PCOD8262499
_publ_section_title
;
Structure prediction by ZEFSAII (Michael W. Deem and Ramdas Pophale) SiO2 
 PCOD8262499
Probable space group: C M C A
;
_chemical_formula_sum "Si O2"
_cell_formula_units_Z 96
_cell_length_a 8.972605
_cell_length_b 29.835822
_cell_length_c 20.546057
_cell_angle_alpha 90.000000
_cell_angle_beta 90.000000
_cell_angle_gamma 90.000000
_cell_volume 5500.283127
_symmetry_space_group_name_H-M "C M C A"
_symmetry_group_IT_number 64
_symmetry_cell_setting 'orthorhombic'
loop_
_space_group_symop_operation_xyz
x,y,z
-x,1/2-y,1/2+z
x,-y,-z
-x,1/2+y,1/2-z
-x,-y,-z
x,1/2+y,1/2-z
-x,y,z
x,1/2-y,1/2+z
1/2+x,1/2+y,z
1/2-x,-y,1/2+z
1/2+x,1/2-y,-z
1/2-x,y,1/2-z
1/2-x,1/2-y,-z
1/2+x,y,1/2-z
1/2-x,1/2+y,z
1/2+x,-y,1/2+z
loop_
_atom_site_type_symbol
_atom_site_label
_atom_site_fract_x
_atom_site_fract_y
_atom_site_fract_z
Si Si1 0.824404 0.117855 0.983328
Si Si2 0.170614 0.999694 0.687196
Si Si3 0.824014 0.461454 0.948930
Si Si4 0.668847 0.694521 0.686235
Si Si5 0.331395 0.403350 0.355636
Si Si6 0.178225 0.789770 0.459570
O O1 0.787005 0.096312 0.913688
O O2 0.738886 0.164755 0.991415
O O3 0.000000 0.125619 0.990531
O O4 0.765873 0.084064 0.038247
O O5 0.250000 0.978667 0.750000
O O6 0.198024 0.053142 0.687638
O O7 0.000000 0.987338 0.694123
O O8 0.232530 0.977951 0.621303
O O9 0.000000 0.451937 0.951328
O O10 0.780706 0.500000 0.000000
O O11 0.500000 0.709703 0.693763
O O12 0.750000 0.714760 0.750000
O O13 0.687222 0.640763 0.688108
O O14 0.729353 0.713096 0.616653
O O15 0.500000 0.404877 0.385408
O O16 0.250000 0.750000 0.500000
O O17 0.000000 0.788954 0.464679
#
# Coordination Sequence:
#
# PCOD8262499 Si02
#       6
#    16  16  16  16  16  16
#     4  11  21  32  52  81 107 135 175 224 267 308
#     4  10  20  32  49  71 101 141 179 222 269 314
#     4  10  19  35  55  72 101 144 184 216 259 316
#     4   9  18  30  49  75 107 139 170 208 255 314
#     4   9  17  32  48  69 103 143 177 208 256 316
#     4  10  21  38  58  81 109 140 176 218 267 321
#
# _framework density 17.453647
#
# number of rings (size 3 to 8) (size 9 to 14) (size 15 to 20)
#    0.000    2.167    1.667    3.500    0.000    5.000 
#    0.000    0.000    0.000    1.000    0.000    7.000 
#    0.000    0.000    0.000    0.000    0.000    0.000 
#
# Total GULP energy -595056.689443 kJ/mol
# GULP energy per Si atom -12397.014363 kJ/mol
# Density = 1.741392 g / cm^3
# Si number density = 17.453647 Si / 1000 Ang^3
#
#
#
# Elastic Constant Matrix: (Units=GPa)
#
#
# Indices 1 2 3 4 5 6 
#
# 1 75.8172 42.7298 51.9412 0.0000 0.0000 0.0000
# 2 42.7298 79.4559 60.1181 0.0000 0.0000 0.0000
# 3 51.9412 60.1181 137.6558 0.0000 0.0000 0.0000
# 4 0.0000 0.0000 0.0000 18.9003 0.0000 0.0000
# 5 0.0000 0.0000 0.0000 0.0000 32.1845 0.0000
# 6 0.0000 0.0000 0.0000 0.0000 0.0000 26.1601
#
#
#
# Elastic Compliance Matrix: (Units=1/GPa)
#
#
# Indices 1 2 3 4 5 6 
#
# 1 0.020548 -0.007743 -0.004372 0.000000 0.000000 0.000000
# 2 -0.007743 0.021714 -0.006562 0.000000 0.000000 0.000000
# 3 -0.004372 -0.006562 0.011780 0.000000 0.000000 0.000000
# 4 0.000000 0.000000 0.000000 0.052909 0.000000 0.000000
# 5 0.000000 0.000000 0.000000 0.000000 0.031071 0.000000
# 6 0.000000 0.000000 0.000000 0.000000 0.000000 0.038226
#
#
# Mechanical properties :
#
#
# Convention : Reuss Voigt Hill
#
# Bulk Modulus (GPa) = 59.91678 66.94522 63.43100
# Shear Modulus (GPa) = 22.81391 24.65830 23.73610
#
# Velocity S-wave (km/s) = 3.61933 3.76278 3.69175
# Velocity P-wave (km/s) = 7.20206 7.57082 7.38874
#
# Compressibility (1/GPa) = 0.01668981
#
# Stress axis : x y z
#
# Youngs Moduli (GPa) = 48.66537 46.05309 84.89048
#
# Poissons Ratio (x) = 0.35657 0.37115
# Poissons Ratio (y) = 0.37679 0.55702
# Poissons Ratio (z) = 0.21277 0.30219
#
# Static dielectric constant tensor:
#      x y z
#    x 3.208800 0.000000 0.000000 
#    y 0.000000 3.092080 0.000000 
#    z 0.000000 0.000000 3.237420 
# 
# 
# High freq. dielectric constant tensor:
#      x y z
#    x 1.671370 0.000000 0.000000 
#    y 0.000000 1.647670 0.000000 
#    z 0.000000 0.000000 1.670380 
# 
# From -- ./inp_files/37097.got.cif
#   From: 2010.03.12/outbox.cif.g09.slc.cpg/sg64_19_cif.got.tgz:37097.got - 2010.04.10 20:19:32.
