data_PCOD8262807
_publ_section_title
;
Structure prediction by ZEFSAII (Michael W. Deem and Ramdas Pophale) SiO2 
 PCOD8262807
Probable space group: C M C A
;
_chemical_formula_sum "Si O2"
_cell_formula_units_Z 96
_cell_length_a 17.359253
_cell_length_b 28.307789
_cell_length_c 9.420685
_cell_angle_alpha 90.000000
_cell_angle_beta 90.000000
_cell_angle_gamma 90.000000
_cell_volume 4629.344120
_symmetry_space_group_name_H-M "C M C A"
_symmetry_group_IT_number 64
_symmetry_cell_setting 'orthorhombic'
loop_
_space_group_symop_operation_xyz
x,y,z
-x,1/2-y,1/2+z
x,-y,-z
-x,1/2+y,1/2-z
-x,-y,-z
x,1/2+y,1/2-z
-x,y,z
x,1/2-y,1/2+z
1/2+x,1/2+y,z
1/2-x,-y,1/2+z
1/2+x,1/2-y,-z
1/2-x,y,1/2-z
1/2-x,1/2-y,-z
1/2+x,y,1/2-z
1/2-x,1/2+y,z
1/2+x,-y,1/2+z
loop_
_atom_site_type_symbol
_atom_site_label
_atom_site_fract_x
_atom_site_fract_y
_atom_site_fract_z
Si Si1 0.844020 0.288346 0.877788
Si Si2 0.828255 0.803821 0.947034
Si Si3 0.587777 0.366688 0.452357
Si Si4 0.414928 0.543175 0.395972
Si Si5 0.591006 0.875178 0.356507
Si Si6 0.908246 0.016897 0.851944
O O1 0.859519 0.289252 0.708765
O O2 0.762933 0.310497 0.928635
O O3 0.908537 0.320733 0.949269
O O4 0.850654 0.235383 0.936130
O O5 0.864748 0.851844 0.009456
O O6 0.500000 0.382262 0.426319
O O7 0.628635 0.411915 0.530811
O O8 0.619132 0.353314 0.294824
O O9 0.423965 0.500000 0.500000
O O10 0.500000 0.561250 0.349254
O O11 0.371053 0.520284 0.260535
O O12 0.500000 0.869360 0.387059
O O13 0.617223 0.929164 0.335650
O O14 0.000000 0.013671 0.839349
O O15 0.875348 0.000000 0.000000
#
# Coordination Sequence:
#
# PCOD8262807 Si02
#       6
#    16  16  16  16  16  16
#     4  10  22  40  60  81 104 142 187 230 278 339
#     4  10  22  40  60  80 106 141 187 231 278 338
#     4  10  20  33  55  86 115 145 183 227 278 329
#     4   9  15  28  48  74 110 147 181 216 257 317
#     4  10  20  34  54  85 117 145 182 228 278 329
#     4   9  17  28  46  76 112 146 180 218 264 318
#
# _framework density 20.737279000000001
#
# number of rings (size 3 to 8) (size 9 to 14) (size 15 to 20)
#    0.000    2.333    1.667    1.000    2.333    3.333 
#    0.000    0.000    0.000    1.000    0.000    0.000 
#    0.000    0.000    0.000    0.000    0.000    0.000 
#
# Total GULP energy -594675.591250 kJ/mol
# GULP energy per Si atom -12389.074818 kJ/mol
# Density = 2.069008 g / cm^3
# Si number density = 20.737279 Si / 1000 Ang^3
#
#
#
# Elastic Constant Matrix: (Units=GPa)
#
#
# Indices 1 2 3 4 5 6 
#
# 1 19.8692 17.0305 18.9431 0.0000 0.0000 0.0000
# 2 17.0305 76.0263 45.8107 0.0000 0.0000 0.0000
# 3 18.9431 45.8107 170.9633 0.0000 0.0000 0.0000
# 4 0.0000 0.0000 0.0000 50.1433 0.0000 0.0000
# 5 0.0000 0.0000 0.0000 0.0000 20.1289 0.0000
# 6 0.0000 0.0000 0.0000 0.0000 0.0000 11.7860
#
#
#
# Elastic Compliance Matrix: (Units=1/GPa)
#
#
# Indices 1 2 3 4 5 6 
#
# 1 0.064398 -0.012076 -0.003900 0.000000 0.000000 0.000000
# 2 -0.012076 0.017950 -0.003472 0.000000 0.000000 0.000000
# 3 -0.003900 -0.003472 0.007212 0.000000 0.000000 0.000000
# 4 0.000000 0.000000 0.000000 0.019943 0.000000 0.000000
# 5 0.000000 0.000000 0.000000 0.000000 0.049680 0.000000
# 6 0.000000 0.000000 0.000000 0.000000 0.000000 0.084847
#
#
# Mechanical properties :
#
#
# Convention : Reuss Voigt Hill
#
# Bulk Modulus (GPa) = 19.73746 47.82527 33.78137
# Shear Modulus (GPa) = 16.67711 28.74993 22.71352
#
# Velocity S-wave (km/s) = 2.83893 3.72746 3.31312
# Velocity P-wave (km/s) = 4.50384 6.45274 5.56428
#
# Compressibility (1/GPa) = 0.05066507
#
# Stress axis : x y z
#
# Youngs Moduli (GPa) = 15.52851 55.70880 138.66513
#
# Poissons Ratio (x) = 0.67273 0.54074
# Poissons Ratio (y) = 0.18752 0.48143
# Poissons Ratio (z) = 0.06055 0.19342
#
# Static dielectric constant tensor:
#      x y z
#    x 3.185830 0.000000 0.000000 
#    y 0.000000 3.427360 0.000000 
#    z 0.000000 0.000000 4.001350 
# 
# 
# High freq. dielectric constant tensor:
#      x y z
#    x 1.744220 0.000000 0.000000 
#    y 0.000000 1.816250 0.000000 
#    z 0.000000 0.000000 1.834160 
# 
# From -- ./inp_files/8401.got.cif
#   From: 2010.03.12/outbox.cif.g09.slc.cpg/sg64_5_cif.got.tgz:8401.got - 2010.04.10 20:19:32.
