data_PCOD8262705
_publ_section_title
;
Structure prediction by ZEFSAII (Michael W. Deem and Ramdas Pophale) SiO2 
 PCOD8262705
Probable space group: C M C A
;
_chemical_formula_sum "Si O2"
_cell_formula_units_Z 96
_cell_length_a 18.721901
_cell_length_b 9.888896
_cell_length_c 29.372571
_cell_angle_alpha 90.000000
_cell_angle_beta 90.000000
_cell_angle_gamma 90.000000
_cell_volume 5438.006422
_symmetry_space_group_name_H-M "C M C A"
_symmetry_group_IT_number 64
_symmetry_cell_setting 'orthorhombic'
loop_
_space_group_symop_operation_xyz
x,y,z
-x,1/2-y,1/2+z
x,-y,-z
-x,1/2+y,1/2-z
-x,-y,-z
x,1/2+y,1/2-z
-x,y,z
x,1/2-y,1/2+z
1/2+x,1/2+y,z
1/2-x,-y,1/2+z
1/2+x,1/2-y,-z
1/2-x,y,1/2-z
1/2-x,1/2-y,-z
1/2+x,y,1/2-z
1/2-x,1/2+y,z
1/2+x,-y,1/2+z
loop_
_atom_site_type_symbol
_atom_site_label
_atom_site_fract_x
_atom_site_fract_y
_atom_site_fract_z
Si Si1 0.082676 0.983148 0.288719
Si Si2 0.321990 0.706848 0.877682
Si Si3 0.918174 0.791259 0.208735
Si Si4 0.836944 0.867357 0.023072
Si Si5 0.315179 0.976112 0.126981
Si Si6 0.667184 0.384220 0.468968
O O1 0.092258 0.138400 0.273718
O O2 0.130589 0.950532 0.332198
O O3 0.000000 0.950737 0.300427
O O4 0.111647 0.890681 0.247638
O O5 0.378958 0.684009 0.838449
O O6 0.360917 0.664417 0.925063
O O7 0.296905 0.864382 0.880195
O O8 0.256683 0.608628 0.864989
O O9 0.000000 0.825505 0.199077
O O10 0.752146 0.879805 0.026003
O O11 0.864365 0.754995 0.987681
O O12 0.870882 0.000000 0.000000
O O13 0.354707 0.914849 0.082765
O O14 0.633496 0.500000 0.500000
#
# Coordination Sequence:
#
# PCOD8262705 Si02
#       6
#    16  16  16  16  16  16
#     4   9  19  37  56  73  96 129 168 204 245 298
#     4  10  20  32  49  77 104 130 163 203 251 288
#     4   9  19  37  57  73  95 130 168 204 245 298
#     4   9  17  27  44  69 100 132 165 197 238 290
#     4  10  20  31  50  77 103 130 162 206 248 288
#     4   9  15  27  44  67  99 131 162 196 234 289
#
# _framework density 17.653527
#
# number of rings (size 3 to 8) (size 9 to 14) (size 15 to 20)
#    0.000    2.667    1.667    0.000    7.000    2.000 
#    0.000    3.333    0.000    2.000    0.000    0.000 
#    0.000    0.000    0.000    0.000    0.000    0.000 
#
# Total GULP energy -594918.388088 kJ/mol
# GULP energy per Si atom -12394.133085 kJ/mol
# Density = 1.761335 g / cm^3
# Si number density = 17.653527 Si / 1000 Ang^3
#
#
#
# Elastic Constant Matrix: (Units=GPa)
#
#
# Indices 1 2 3 4 5 6 
#
# 1 34.5600 35.8756 44.5904 0.0000 0.0000 0.0000
# 2 35.8756 142.1246 95.6835 0.0000 0.0000 0.0000
# 3 44.5904 95.6835 161.5266 0.0000 0.0000 0.0000
# 4 0.0000 0.0000 0.0000 38.4941 0.0000 0.0000
# 5 0.0000 0.0000 0.0000 0.0000 -1.1510 0.0000
# 6 0.0000 0.0000 0.0000 0.0000 0.0000 15.6088
#
#
#
# Elastic Compliance Matrix: (Units=1/GPa)
#
#
# Indices 1 2 3 4 5 6 
#
# 1 0.047163 -0.005223 -0.009926 0.000000 0.000000 0.000000
# 2 -0.005223 0.012282 -0.005834 0.000000 0.000000 0.000000
# 3 -0.009926 -0.005834 0.012387 0.000000 0.000000 0.000000
# 4 0.000000 0.000000 0.000000 0.025978 0.000000 0.000000
# 5 0.000000 0.000000 0.000000 0.000000 -0.868810 0.000000
# 6 0.000000 0.000000 0.000000 0.000000 0.000000 0.064066
#
#
# Mechanical properties :
#
#
# Convention : Reuss Voigt Hill
#
# Bulk Modulus (GPa) = 33.48129 76.72336 55.10232
# Shear Modulus (GPa) = -7.63343 21.39449 6.88053
#
# Velocity S-wave (km/s) = -2.08169 3.48503 1.97636
# Velocity P-wave (km/s) = 3.63718 7.72974 6.04061
#
# Compressibility (1/GPa) = 0.02986743
#
# Stress axis : x y z
#
# Youngs Moduli (GPa) = 21.20288 81.42120 80.73133
#
# Poissons Ratio (x) = 0.42523 0.80134
# Poissons Ratio (y) = 0.11073 0.47096
# Poissons Ratio (z) = 0.21046 0.47498
#
# Static dielectric constant tensor:
#      x y z
#    x 2.799800 0.000000 0.000000 
#    y 0.000000 3.618710 0.000000 
#    z 0.000000 0.000000 3.478410 
# 
# 
# High freq. dielectric constant tensor:
#      x y z
#    x 1.629060 0.000000 0.000000 
#    y 0.000000 1.700070 0.000000 
#    z 0.000000 0.000000 1.696400 
# 
# From -- ./inp_files/46579.got.cif
#   From: 2010.03.12/outbox.cif.g09.slc.cpg/sg64_24_cif.got.tgz:46579.got - 2010.04.10 20:19:32.
