data_PCOD8262978
_publ_section_title
;
Structure prediction by ZEFSAII (Michael W. Deem and Ramdas Pophale) SiO2 
 PCOD8262978
Probable space group: C M C A
;
_chemical_formula_sum "Si O2"
_cell_formula_units_Z 80
_cell_length_a 8.921301
_cell_length_b 25.871487
_cell_length_c 17.701197
_cell_angle_alpha 90.000000
_cell_angle_beta 90.000000
_cell_angle_gamma 90.000000
_cell_volume 4085.565891
_symmetry_space_group_name_H-M "C M C A"
_symmetry_group_IT_number 64
_symmetry_cell_setting 'orthorhombic'
loop_
_space_group_symop_operation_xyz
x,y,z
-x,1/2-y,1/2+z
x,-y,-z
-x,1/2+y,1/2-z
-x,-y,-z
x,1/2+y,1/2-z
-x,y,z
x,1/2-y,1/2+z
1/2+x,1/2+y,z
1/2-x,-y,1/2+z
1/2+x,1/2-y,-z
1/2-x,y,1/2-z
1/2-x,1/2-y,-z
1/2+x,y,1/2-z
1/2-x,1/2+y,z
1/2+x,-y,1/2+z
loop_
_atom_site_type_symbol
_atom_site_label
_atom_site_fract_x
_atom_site_fract_y
_atom_site_fract_z
Si Si1 0.168998 0.908276 0.894341
Si Si2 0.828081 0.914128 0.073019
Si Si3 0.329298 0.313243 0.422299
Si Si4 0.175827 0.002415 0.672058
Si Si5 0.171774 0.202160 0.075812
O O1 0.194216 0.848061 0.870369
O O2 0.000000 0.926391 0.875325
O O3 0.282416 0.943289 0.847101
O O4 0.198769 0.913376 0.983657
O O5 0.774140 0.859470 0.109556
O O6 0.732675 0.961226 0.105061
O O7 0.000000 0.922694 0.094806
O O8 0.500000 0.331980 0.414529
O O9 0.292684 0.301989 0.509485
O O10 0.304448 0.257271 0.380549
O O11 0.250000 0.020372 0.750000
O O12 0.000000 0.007420 0.680281
O O13 0.000000 0.199925 0.043275
#
# Coordination Sequence:
#
# PCOD8262978 Si02
#       5
#    16  16  16  16  16
#     4   9  18  34  55  79 108 140 172 209 255 304
#     4  10  20  35  55  79 108 140 172 211 259 307
#     4   9  15  25  45  75 107 137 171 209 250 300
#     4  12  25  39  55  75 101 135 175 218 264 312
#     4   8  15  27  45  72 107 141 168 204 255 303
#
# _framework density 19.581130999999999
#
# number of rings (size 3 to 8) (size 9 to 14) (size 15 to 20)
#    0.000    2.400    0.000    4.800    0.000    7.200 
#    0.000    0.000    0.000    1.200    0.000    5.600 
#    0.000    0.000    0.000    0.000    0.000    0.000 
#
# Total GULP energy -495714.354062 kJ/mol
# GULP energy per Si atom -12392.858852 kJ/mol
# Density = 1.953656 g / cm^3
# Si number density = 19.581131 Si / 1000 Ang^3
#
#
#
# Elastic Constant Matrix: (Units=GPa)
#
#
# Indices 1 2 3 4 5 6 
#
# 1 112.9860 35.7525 18.7757 0.0000 0.0000 0.0000
# 2 35.7525 112.4789 6.7230 0.0000 0.0000 0.0000
# 3 18.7757 6.7230 22.2589 0.0000 0.0000 0.0000
# 4 0.0000 0.0000 0.0000 5.6139 0.0000 0.0000
# 5 0.0000 0.0000 0.0000 0.0000 22.4976 0.0000
# 6 0.0000 0.0000 0.0000 0.0000 0.0000 34.6317
#
#
#
# Elastic Compliance Matrix: (Units=1/GPa)
#
#
# Indices 1 2 3 4 5 6 
#
# 1 0.011242 -0.003062 -0.008558 0.000000 0.000000 0.000000
# 2 -0.003062 0.009888 -0.000404 0.000000 0.000000 0.000000
# 3 -0.008558 -0.000404 0.052266 0.000000 0.000000 0.000000
# 4 0.000000 0.000000 0.000000 0.178128 0.000000 0.000000
# 5 0.000000 0.000000 0.000000 0.000000 0.044449 0.000000
# 6 0.000000 0.000000 0.000000 0.000000 0.000000 0.028875
#
#
# Mechanical properties :
#
#
# Convention : Reuss Voigt Hill
#
# Bulk Modulus (GPa) = 20.26372 41.13625 30.69998
# Shear Modulus (GPa) = 13.68570 24.98016 19.33293
#
# Velocity S-wave (km/s) = 2.64658 3.57561 3.14558
# Velocity P-wave (km/s) = 4.43962 6.17255 5.37636
#
# Compressibility (1/GPa) = 0.04934929
#
# Stress axis : x y z
#
# Youngs Moduli (GPa) = 88.95554 101.13373 19.13273
#
# Poissons Ratio (x) = 0.30964 0.16373
# Poissons Ratio (y) = 0.27236 0.00773
# Poissons Ratio (z) = 0.76125 0.04085
#
# Static dielectric constant tensor:
#      x y z
#    x 3.608130 0.000000 0.000000 
#    y 0.000000 4.215930 0.000000 
#    z 0.000000 0.000000 2.943070 
# 
# 
# High freq. dielectric constant tensor:
#      x y z
#    x 1.769080 0.000000 0.000000 
#    y 0.000000 1.794480 0.000000 
#    z 0.000000 0.000000 1.686770 
# 
# From -- ./inp_files/29714.got.cif
#   From: 2010.03.12/outbox.cif.g09.slc.cpg/sg64_15_cif.got.tgz:29714.got - 2010.04.10 20:19:32.
