data_PCOD8262455
_publ_section_title
;
Structure prediction by ZEFSAII (Michael W. Deem and Ramdas Pophale) SiO2 
 PCOD8262455
Probable space group: C M C A
;
_chemical_formula_sum "Si O2"
_cell_formula_units_Z 96
_cell_length_a 8.872848
_cell_length_b 28.996923
_cell_length_c 20.514377
_cell_angle_alpha 90.000000
_cell_angle_beta 90.000000
_cell_angle_gamma 90.000000
_cell_volume 5278.047441
_symmetry_space_group_name_H-M "C M C A"
_symmetry_group_IT_number 64
_symmetry_cell_setting 'orthorhombic'
loop_
_space_group_symop_operation_xyz
x,y,z
-x,1/2-y,1/2+z
x,-y,-z
-x,1/2+y,1/2-z
-x,-y,-z
x,1/2+y,1/2-z
-x,y,z
x,1/2-y,1/2+z
1/2+x,1/2+y,z
1/2-x,-y,1/2+z
1/2+x,1/2-y,-z
1/2-x,y,1/2-z
1/2-x,1/2-y,-z
1/2+x,y,1/2-z
1/2-x,1/2+y,z
1/2+x,-y,1/2+z
loop_
_atom_site_type_symbol
_atom_site_label
_atom_site_fract_x
_atom_site_fract_y
_atom_site_fract_z
Si Si1 0.322773 0.526811 0.938075
Si Si2 0.322660 0.121824 0.126401
Si Si3 0.677053 0.779427 0.818098
Si Si4 0.679036 0.031575 0.317772
Si Si5 0.175491 0.276211 0.440760
Si Si6 0.175231 0.624397 0.512657
O O1 0.500000 0.518720 0.938642
O O2 0.259487 0.504665 0.871620
O O3 0.281500 0.580767 0.942294
O O4 0.251472 0.500000 0.000000
O O5 0.500000 0.112397 0.131574
O O6 0.275357 0.169363 0.160614
O O7 0.232540 0.082578 0.164056
O O8 0.277014 0.124015 0.051170
O O9 0.500000 0.775252 0.810012
O O10 0.750000 0.765653 0.750000
O O11 0.737829 0.743460 0.872430
O O12 0.500000 0.031649 0.311956
O O13 0.750000 0.015485 0.250000
O O14 0.250000 0.250000 0.500000
O O15 0.210608 0.330555 0.444502
O O16 0.000000 0.265493 0.445996
O O17 0.000000 0.622152 0.491298
#
# Coordination Sequence:
#
# PCOD8262455 Si02
#       6
#    16  16  16  16  16  16
#     4   9  17  33  56  80 105 139 182 222 260 318
#     4  11  21  34  54  82 115 141 175 226 276 324
#     4  10  22  37  52  77 111 144 178 219 268 322
#     4  11  22  37  56  79 112 145 182 223 270 325
#     4  10  20  35  56  81 109 141 181 225 271 325
#     4  10  19  34  58  83 106 141 184 222 271 325
#
# _framework density 18.188545999999999
#
# number of rings (size 3 to 8) (size 9 to 14) (size 15 to 20)
#    0.000    1.833    3.333    1.500    0.000    3.333 
#    0.000    3.333    0.000    0.000    0.000    0.000 
#    0.000    0.000    0.000    0.000    0.000    0.000 
#
# Total GULP energy -595270.050270 kJ/mol
# GULP energy per Si atom -12401.459381 kJ/mol
# Density = 1.814715 g / cm^3
# Si number density = 18.188546 Si / 1000 Ang^3
#
#
#
# Elastic Constant Matrix: (Units=GPa)
#
#
# Indices 1 2 3 4 5 6 
#
# 1 40.9008 31.7356 37.3058 0.0000 0.0000 0.0000
# 2 31.7356 141.2622 84.3014 0.0000 0.0000 0.0000
# 3 37.3058 84.3014 174.7667 0.0000 0.0000 0.0000
# 4 0.0000 0.0000 0.0000 9.7380 0.0000 0.0000
# 5 0.0000 0.0000 0.0000 0.0000 32.2975 0.0000
# 6 0.0000 0.0000 0.0000 0.0000 0.0000 18.0638
#
#
#
# Elastic Compliance Matrix: (Units=1/GPa)
#
#
# Indices 1 2 3 4 5 6 
#
# 1 0.032195 -0.004397 -0.004751 0.000000 0.000000 0.000000
# 2 -0.004397 0.010541 -0.004146 0.000000 0.000000 0.000000
# 3 -0.004751 -0.004146 0.008736 0.000000 0.000000 0.000000
# 4 0.000000 0.000000 0.000000 0.102691 0.000000 0.000000
# 5 0.000000 0.000000 0.000000 0.000000 0.030962 0.000000
# 6 0.000000 0.000000 0.000000 0.000000 0.000000 0.055359
#
#
# Mechanical properties :
#
#
# Convention : Reuss Voigt Hill
#
# Bulk Modulus (GPa) = 40.18823 73.73503 56.96163
# Shear Modulus (GPa) = 18.15750 25.59230 21.87490
#
# Velocity S-wave (km/s) = 3.16301 3.75514 3.47172
# Velocity P-wave (km/s) = 5.95674 7.70900 6.88881
#
# Compressibility (1/GPa) = 0.02488291
#
# Stress axis : x y z
#
# Youngs Moduli (GPa) = 31.06064 94.86595 114.46884
#
# Poissons Ratio (x) = 0.41717 0.54386
# Poissons Ratio (y) = 0.13659 0.47459
# Poissons Ratio (z) = 0.14758 0.39332
#
# Static dielectric constant tensor:
#      x y z
#    x 3.193450 0.000000 0.000000 
#    y 0.000000 3.634730 0.000000 
#    z 0.000000 0.000000 2.849070 
# 
# 
# High freq. dielectric constant tensor:
#      x y z
#    x 1.688490 0.000000 0.000000 
#    y 0.000000 1.709870 0.000000 
#    z 0.000000 0.000000 1.706340 
# 
# From -- ./inp_files/37027.got.cif
#   From: 2010.03.12/outbox.cif.g09.slc.cpg/sg64_19_cif.got.tgz:37027.got - 2010.04.10 20:19:32.
