data_PCOD8262001
_publ_section_title
;
Structure prediction by ZEFSAII (Michael W. Deem and Ramdas Pophale) SiO2 
 PCOD8262001
Probable space group: C M C A
;
_chemical_formula_sum "Si O2"
_cell_formula_units_Z 96
_cell_length_a 8.831686
_cell_length_b 26.801533
_cell_length_c 23.071511
_cell_angle_alpha 90.000000
_cell_angle_beta 90.000000
_cell_angle_gamma 90.000000
_cell_volume 5461.089495
_symmetry_space_group_name_H-M "C M C A"
_symmetry_group_IT_number 64
_symmetry_cell_setting 'orthorhombic'
loop_
_space_group_symop_operation_xyz
x,y,z
-x,1/2-y,1/2+z
x,-y,-z
-x,1/2+y,1/2-z
-x,-y,-z
x,1/2+y,1/2-z
-x,y,z
x,1/2-y,1/2+z
1/2+x,1/2+y,z
1/2-x,-y,1/2+z
1/2+x,1/2-y,-z
1/2-x,y,1/2-z
1/2-x,1/2-y,-z
1/2+x,y,1/2-z
1/2-x,1/2+y,z
1/2+x,-y,1/2+z
loop_
_atom_site_type_symbol
_atom_site_label
_atom_site_fract_x
_atom_site_fract_y
_atom_site_fract_z
Si Si1 0.322583 0.371432 0.409334
Si Si2 0.178216 0.306109 0.312230
Si Si3 0.821888 0.057776 0.994300
Si Si4 0.834664 0.370508 0.594632
Si Si5 0.322880 0.306708 0.687987
Si Si6 0.333668 0.300283 0.006626
O O1 0.500000 0.377218 0.398034
O O2 0.243972 0.350546 0.351643
O O3 0.256158 0.423624 0.434438
O O4 0.286693 0.332691 0.459287
O O5 0.250000 0.314136 0.250000
O O6 0.218414 0.249626 0.334926
O O7 0.000000 0.313327 0.307674
O O8 0.000000 0.069291 0.988387
O O9 0.764023 0.085749 0.053262
O O10 0.783586 0.000000 0.000000
O O11 0.727956 0.352413 0.646719
O O12 0.860069 0.321665 0.556551
O O13 0.000000 0.387576 0.618982
O O14 0.500000 0.311289 0.695802
O O15 0.250000 0.315918 0.750000
O O16 0.500000 0.295684 0.037870
O O17 0.250000 0.250000 0.000000
#
# Coordination Sequence:
#
# PCOD8262001 Si02
#       6
#    16  16  16  16  16  16
#     4  11  21  32  49  74 103 134 168 207 252 305
#     4  10  20  34  51  73 103 139 177 211 247 295
#     4   9  19  37  58  77  99 130 167 212 266 313
#     4   9  18  31  48  71  98 127 162 203 248 299
#     4  10  20  32  49  72 101 137 172 205 241 288
#     4  10  19  30  45  68  99 133 166 203 248 299
#
# _framework density 17.578908999999999
#
# number of rings (size 3 to 8) (size 9 to 14) (size 15 to 20)
#    0.000    2.167    0.000    5.000    0.000    8.333 
#    0.000    0.000    0.000    1.000    0.000    4.667 
#    0.000    0.000    0.000    0.000    0.000    0.000 
#
# Total GULP energy -594656.477054 kJ/mol
# GULP energy per Si atom -12388.676605 kJ/mol
# Density = 1.753890 g / cm^3
# Si number density = 17.578909 Si / 1000 Ang^3
#
#
#
# Elastic Constant Matrix: (Units=GPa)
#
#
# Indices 1 2 3 4 5 6 
#
# 1 95.4513 46.0065 50.4085 0.0000 0.0000 0.0000
# 2 46.0065 115.3021 50.4086 0.0000 0.0000 0.0000
# 3 50.4085 50.4086 94.4913 0.0000 0.0000 0.0000
# 4 0.0000 0.0000 0.0000 24.7916 0.0000 0.0000
# 5 0.0000 0.0000 0.0000 0.0000 30.8072 0.0000
# 6 0.0000 0.0000 0.0000 0.0000 0.0000 21.6771
#
#
#
# Elastic Compliance Matrix: (Units=1/GPa)
#
#
# Indices 1 2 3 4 5 6 
#
# 1 0.015521 -0.003356 -0.006490 0.000000 0.000000 0.000000
# 2 -0.003356 0.012036 -0.004631 0.000000 0.000000 0.000000
# 3 -0.006490 -0.004631 0.016516 0.000000 0.000000 0.000000
# 4 0.000000 0.000000 0.000000 0.040336 0.000000 0.000000
# 5 0.000000 0.000000 0.000000 0.000000 0.032460 0.000000
# 6 0.000000 0.000000 0.000000 0.000000 0.000000 0.046132
#
#
# Mechanical properties :
#
#
# Convention : Reuss Voigt Hill
#
# Bulk Modulus (GPa) = 66.13704 66.54351 66.34028
# Shear Modulus (GPa) = 25.38141 26.01662 25.69901
#
# Velocity S-wave (km/s) = 3.80393 3.85124 3.82766
# Velocity P-wave (km/s) = 7.54969 7.59687 7.57332
#
# Compressibility (1/GPa) = 0.01512012
#
# Stress axis : x y z
#
# Youngs Moduli (GPa) = 64.42701 83.08114 60.54853
#
# Poissons Ratio (x) = 0.27881 0.39296
# Poissons Ratio (y) = 0.21621 0.28039
# Poissons Ratio (z) = 0.41813 0.38474
#
# Static dielectric constant tensor:
#      x y z
#    x 3.434380 0.000000 0.000000 
#    y 0.000000 3.028690 0.000000 
#    z 0.000000 0.000000 4.052630 
# 
# 
# High freq. dielectric constant tensor:
#      x y z
#    x 1.687810 0.000000 0.000000 
#    y 0.000000 1.657800 0.000000 
#    z 0.000000 0.000000 1.669430 
# 
# From -- ./inp_files/43175.got.cif
#   From: 2010.03.12/outbox.cif.g09.slc.cpg/sg64_22_cif.got.tgz:43175.got - 2010.04.10 20:19:32.
