data_PCOD8262032
_publ_section_title
;
Structure prediction by ZEFSAII (Michael W. Deem and Ramdas Pophale) SiO2 
 PCOD8262032
Probable space group: C M C A
;
_chemical_formula_sum "Si O2"
_cell_formula_units_Z 80
_cell_length_a 25.818826
_cell_length_b 33.187750
_cell_length_c 4.939166
_cell_angle_alpha 90.000000
_cell_angle_beta 90.000000
_cell_angle_gamma 90.000000
_cell_volume 4232.216960
_symmetry_space_group_name_H-M "C M C A"
_symmetry_group_IT_number 64
_symmetry_cell_setting 'orthorhombic'
loop_
_space_group_symop_operation_xyz
x,y,z
-x,1/2-y,1/2+z
x,-y,-z
-x,1/2+y,1/2-z
-x,-y,-z
x,1/2+y,1/2-z
-x,y,z
x,1/2-y,1/2+z
1/2+x,1/2+y,z
1/2-x,-y,1/2+z
1/2+x,1/2-y,-z
1/2-x,y,1/2-z
1/2-x,1/2-y,-z
1/2+x,y,1/2-z
1/2-x,1/2+y,z
1/2+x,-y,1/2+z
loop_
_atom_site_type_symbol
_atom_site_label
_atom_site_fract_x
_atom_site_fract_y
_atom_site_fract_z
Si Si1 0.058490 0.585668 0.134650
Si Si2 0.805026 0.903503 0.139904
Si Si3 0.809445 0.223590 0.225366
Si Si4 0.655130 0.139214 0.128693
Si Si5 0.098336 0.456484 0.365200
O O1 0.096168 0.623889 0.103489
O O2 0.063946 0.571567 0.442563
O O3 0.000000 0.599934 0.080831
O O4 0.073348 0.548354 0.933519
O O5 0.750000 0.919237 0.250000
O O6 0.820692 0.866043 0.331721
O O7 0.842500 0.941966 0.162196
O O8 0.808816 0.886767 0.834359
O O9 0.821345 0.260571 0.426046
O O10 0.750000 0.209099 0.250000
O O11 0.846234 0.185847 0.288647
O O12 0.097230 0.500000 0.500000
#
# Coordination Sequence:
#
# PCOD8262032 Si02
#       5
#    16  16  16  16  16
#     4  10  21  36  55  75  97 133 174 214 259 299
#     4  10  19  33  52  73 100 138 172 201 247 303
#     4  10  19  30  48  75 103 131 161 198 249 300
#     4  10  20  34  52  74 103 133 170 211 245 300
#     4  10  21  35  51  77 105 129 168 215 258 305
#
# _framework density 18.902621
#
# number of rings (size 3 to 8) (size 9 to 14) (size 15 to 20)
#    0.000    2.000    0.000    4.200    0.000    4.000 
#    0.000    6.000    0.000    1.200    0.000    0.000 
#    0.000    0.000    0.000    0.000    0.000    0.000 
#
# Total GULP energy -495875.989713 kJ/mol
# GULP energy per Si atom -12396.899743 kJ/mol
# Density = 1.885960 g / cm^3
# Si number density = 18.902621 Si / 1000 Ang^3
#
#
#
# Elastic Constant Matrix: (Units=GPa)
#
#
# Indices 1 2 3 4 5 6 
#
# 1 122.5785 47.9044 23.9721 0.0000 0.0000 0.0000
# 2 47.9044 73.2974 5.8688 0.0000 0.0000 0.0000
# 3 23.9721 5.8688 74.8058 0.0000 0.0000 0.0000
# 4 0.0000 0.0000 0.0000 26.1817 0.0000 0.0000
# 5 0.0000 0.0000 0.0000 0.0000 19.0902 0.0000
# 6 0.0000 0.0000 0.0000 0.0000 0.0000 13.5302
#
#
#
# Elastic Compliance Matrix: (Units=1/GPa)
#
#
# Indices 1 2 3 4 5 6 
#
# 1 0.011653 -0.007363 -0.003157 0.000000 0.000000 0.000000
# 2 -0.007363 0.018382 0.000917 0.000000 0.000000 0.000000
# 3 -0.003157 0.000917 0.014308 0.000000 0.000000 0.000000
# 4 0.000000 0.000000 0.000000 0.038195 0.000000 0.000000
# 5 0.000000 0.000000 0.000000 0.000000 0.052383 0.000000
# 6 0.000000 0.000000 0.000000 0.000000 0.000000 0.073909
#
#
# Mechanical properties :
#
#
# Convention : Reuss Voigt Hill
#
# Bulk Modulus (GPa) = 39.78086 47.35246 43.56666
# Shear Modulus (GPa) = 21.14949 24.62286 22.88617
#
# Velocity S-wave (km/s) = 3.34857 3.61309 3.48334
# Velocity P-wave (km/s) = 6.00345 6.52005 6.26708
#
# Compressibility (1/GPa) = 0.02513772
#
# Stress axis : x y z
#
# Youngs Moduli (GPa) = 85.81522 54.40131 69.89331
#
# Poissons Ratio (x) = 0.40057 0.22063
# Poissons Ratio (y) = 0.63187 -0.06412
# Poissons Ratio (z) = 0.27088 -0.04991
#
# Static dielectric constant tensor:
#      x y z
#    x 3.350410 0.000000 0.000000 
#    y 0.000000 3.116470 0.000000 
#    z 0.000000 0.000000 3.798220 
# 
# 
# High freq. dielectric constant tensor:
#      x y z
#    x 1.713960 0.000000 0.000000 
#    y 0.000000 1.708350 0.000000 
#    z 0.000000 0.000000 1.761910 
# 
# From -- ./inp_files/2348.got.cif
#   From: 2010.03.12/outbox.cif.g09.slc.cpg/sg64_2_cif.got.tgz:2348.got - 2010.04.10 20:19:32.
