data_PCOD8262512
_publ_section_title
;
Structure prediction by ZEFSAII (Michael W. Deem and Ramdas Pophale) SiO2 
 PCOD8262512
Probable space group: C M C A
;
_chemical_formula_sum "Si O2"
_cell_formula_units_Z 80
_cell_length_a 17.572769
_cell_length_b 25.099690
_cell_length_c 9.242880
_cell_angle_alpha 90.000000
_cell_angle_beta 90.000000
_cell_angle_gamma 90.000000
_cell_volume 4076.766827
_symmetry_space_group_name_H-M "C M C A"
_symmetry_group_IT_number 64
_symmetry_cell_setting 'orthorhombic'
loop_
_space_group_symop_operation_xyz
x,y,z
-x,1/2-y,1/2+z
x,-y,-z
-x,1/2+y,1/2-z
-x,-y,-z
x,1/2+y,1/2-z
-x,y,z
x,1/2-y,1/2+z
1/2+x,1/2+y,z
1/2-x,-y,1/2+z
1/2+x,1/2-y,-z
1/2-x,y,1/2-z
1/2-x,1/2-y,-z
1/2+x,y,1/2-z
1/2-x,1/2+y,z
1/2+x,-y,1/2+z
loop_
_atom_site_type_symbol
_atom_site_label
_atom_site_fract_x
_atom_site_fract_y
_atom_site_fract_z
Si Si1 0.678609 0.514654 0.160829
Si Si2 0.409771 0.289394 0.721363
Si Si3 0.590214 0.690216 0.597953
Si Si4 0.910284 0.613874 0.422695
Si Si5 0.661872 0.898134 0.273337
O O1 0.750000 0.537850 0.250000
O O2 0.611991 0.558248 0.153678
O O3 0.646117 0.461545 0.238725
O O4 0.707622 0.500000 0.000000
O O5 0.500000 0.286834 0.714762
O O6 0.378215 0.234647 0.790469
O O7 0.376009 0.296874 0.560733
O O8 0.383880 0.338784 0.818974
O O9 0.500000 0.691391 0.591722
O O10 0.616109 0.631674 0.647196
O O11 0.865881 0.623139 0.571725
O O12 0.000000 0.613997 0.453767
O O13 0.750000 0.885394 0.250000
#
# Coordination Sequence:
#
# PCOD8262512 Si02
#       5
#    16  16  16  16  16
#     4   9  20  36  55  78 109 147 182 221 274 328
#     4   9  19  34  55  82 106 136 177 224 275 322
#     4  10  19  35  57  78 106 142 181 223 272 328
#     4  10  20  36  58  83 110 143 187 229 267 321
#     4  10  21  36  53  79 111 143 181 223 272 326
#
# _framework density 19.623393
#
# number of rings (size 3 to 8) (size 9 to 14) (size 15 to 20)
#    0.000    2.400    0.000    1.800    0.000   12.400 
#    0.000    5.000    0.000    4.200    0.000    0.000 
#    0.000    0.000    0.000    0.000    0.000    0.000 
#
# Total GULP energy -496003.903744 kJ/mol
# GULP energy per Si atom -12400.097594 kJ/mol
# Density = 1.957873 g / cm^3
# Si number density = 19.623393 Si / 1000 Ang^3
#
#
#
# Elastic Constant Matrix: (Units=GPa)
#
#
# Indices 1 2 3 4 5 6 
#
# 1 53.2192 41.7807 44.9409 0.0000 0.0000 0.0000
# 2 41.7807 101.3208 52.9827 0.0000 0.0000 0.0000
# 3 44.9409 52.9827 109.0614 0.0000 0.0000 0.0000
# 4 0.0000 0.0000 0.0000 34.9293 0.0000 0.0000
# 5 0.0000 0.0000 0.0000 0.0000 33.0683 0.0000
# 6 0.0000 0.0000 0.0000 0.0000 0.0000 8.9905
#
#
#
# Elastic Compliance Matrix: (Units=1/GPa)
#
#
# Indices 1 2 3 4 5 6 
#
# 1 0.033973 -0.008966 -0.009643 0.000000 0.000000 0.000000
# 2 -0.008966 0.015597 -0.003882 0.000000 0.000000 0.000000
# 3 -0.009643 -0.003882 0.015029 0.000000 0.000000 0.000000
# 4 0.000000 0.000000 0.000000 0.028629 0.000000 0.000000
# 5 0.000000 0.000000 0.000000 0.000000 0.030240 0.000000
# 6 0.000000 0.000000 0.000000 0.000000 0.000000 0.111228
#
#
# Mechanical properties :
#
#
# Convention : Reuss Voigt Hill
#
# Bulk Modulus (GPa) = 50.98196 60.33441 55.65819
# Shear Modulus (GPa) = 17.46916 23.65745 20.56330
#
# Velocity S-wave (km/s) = 2.98689 3.47590 3.24064
# Velocity P-wave (km/s) = 6.15889 6.84997 6.51361
#
# Compressibility (1/GPa) = 0.01961478
#
# Stress axis : x y z
#
# Youngs Moduli (GPa) = 29.43554 64.11396 66.53835
#
# Poissons Ratio (x) = 0.57487 0.64164
# Poissons Ratio (y) = 0.26393 0.25833
# Poissons Ratio (z) = 0.28385 0.24892
#
# Static dielectric constant tensor:
#      x y z
#    x 3.248930 0.000000 0.000000 
#    y 0.000000 3.757050 0.000000 
#    z 0.000000 0.000000 3.812680 
# 
# 
# High freq. dielectric constant tensor:
#      x y z
#    x 1.732810 0.000000 0.000000 
#    y 0.000000 1.775350 0.000000 
#    z 0.000000 0.000000 1.772690 
# 
# From -- ./inp_files/7037.got.cif
#   From: 2010.03.12/outbox.cif.g09.slc.cpg/sg64_4_cif.got.tgz:7037.got - 2010.04.10 20:19:32.
