data_PCOD8262527
_publ_section_title
;
Structure prediction by ZEFSAII (Michael W. Deem and Ramdas Pophale) SiO2 
 PCOD8262527
Probable space group: C M C A
;
_chemical_formula_sum "Si O2"
_cell_formula_units_Z 96
_cell_length_a 8.551256
_cell_length_b 25.452494
_cell_length_c 23.497677
_cell_angle_alpha 90.000000
_cell_angle_beta 90.000000
_cell_angle_gamma 90.000000
_cell_volume 5114.288010
_symmetry_space_group_name_H-M "C M C A"
_symmetry_group_IT_number 64
_symmetry_cell_setting 'orthorhombic'
loop_
_space_group_symop_operation_xyz
x,y,z
-x,1/2-y,1/2+z
x,-y,-z
-x,1/2+y,1/2-z
-x,-y,-z
x,1/2+y,1/2-z
-x,y,z
x,1/2-y,1/2+z
1/2+x,1/2+y,z
1/2-x,-y,1/2+z
1/2+x,1/2-y,-z
1/2-x,y,1/2-z
1/2-x,1/2-y,-z
1/2+x,y,1/2-z
1/2-x,1/2+y,z
1/2+x,-y,1/2+z
loop_
_atom_site_type_symbol
_atom_site_label
_atom_site_fract_x
_atom_site_fract_y
_atom_site_fract_z
Si Si1 0.684828 0.307864 0.005852
Si Si2 0.314051 0.247869 0.811171
Si Si3 0.814861 0.350411 0.373847
Si Si4 0.185992 0.940484 0.811665
Si Si5 0.684478 0.552845 0.688527
Si Si6 0.314967 0.844878 0.613802
O O1 0.500000 0.303366 0.007041
O O2 0.746525 0.335033 0.063315
O O3 0.750000 0.250000 0.000000
O O4 0.741298 0.342529 0.951797
O O5 0.500000 0.242101 0.810412
O O6 0.250000 0.264246 0.750000
O O7 0.237980 0.192963 0.828762
O O8 0.254465 0.292780 0.854234
O O9 0.735343 0.405355 0.358544
O O10 0.000000 0.356878 0.371772
O O11 0.250000 0.924700 0.750000
O O12 0.250434 0.897485 0.856517
O O13 0.000000 0.942155 0.809187
O O14 0.249002 0.996837 0.831300
O O15 0.500000 0.549356 0.693109
O O16 0.750000 0.569518 0.750000
O O17 0.500000 0.845796 0.617883
#
# Coordination Sequence:
#
# PCOD8262527 Si02
#       6
#    16  16  16  16  16  16
#     4  10  20  37  58  81 110 147 189 228 273 326
#     4  11  21  34  53  79 114 145 179 225 276 331
#     4  11  22  36  56  82 110 144 187 229 273 329
#     4  10  19  35  58  83 112 145 182 225 274 331
#     4  11  22  38  59  82 111 145 183 229 279 332
#     4   9  19  35  56  81 111 146 182 224 274 327
#
# _framework density 18.770942000000002
#
# number of rings (size 3 to 8) (size 9 to 14) (size 15 to 20)
#    0.000    1.667    1.667    5.000    0.000    0.667 
#    0.000    5.000    0.000    5.000    0.000    0.000 
#    0.000    0.000    0.000    0.000    0.000    0.000 
#
# Total GULP energy -595315.101494 kJ/mol
# GULP energy per Si atom -12402.397948 kJ/mol
# Density = 1.872822 g / cm^3
# Si number density = 18.770942 Si / 1000 Ang^3
#
#
#
# Elastic Constant Matrix: (Units=GPa)
#
#
# Indices 1 2 3 4 5 6 
#
# 1 69.1461 28.9775 22.2631 0.0000 0.0000 0.0000
# 2 28.9775 134.9505 63.8054 0.0000 0.0000 0.0000
# 3 22.2631 63.8054 118.5390 0.0000 0.0000 0.0000
# 4 0.0000 0.0000 0.0000 34.4169 0.0000 0.0000
# 5 0.0000 0.0000 0.0000 0.0000 21.6934 0.0000
# 6 0.0000 0.0000 0.0000 0.0000 0.0000 29.0440
#
#
#
# Elastic Compliance Matrix: (Units=1/GPa)
#
#
# Indices 1 2 3 4 5 6 
#
# 1 0.016105 -0.002720 -0.001560 0.000000 0.000000 0.000000
# 2 -0.002720 0.010399 -0.005087 0.000000 0.000000 0.000000
# 3 -0.001560 -0.005087 0.011467 0.000000 0.000000 0.000000
# 4 0.000000 0.000000 0.000000 0.029055 0.000000 0.000000
# 5 0.000000 0.000000 0.000000 0.000000 0.046097 0.000000
# 6 0.000000 0.000000 0.000000 0.000000 0.000000 0.034431
#
#
# Mechanical properties :
#
#
# Convention : Reuss Voigt Hill
#
# Bulk Modulus (GPa) = 51.98540 61.41419 56.69979
# Shear Modulus (GPa) = 28.95185 30.87017 29.91101
#
# Velocity S-wave (km/s) = 3.93157 4.05973 3.99616
# Velocity P-wave (km/s) = 6.95445 7.40027 7.18082
#
# Compressibility (1/GPa) = 0.01923617
#
# Stress axis : x y z
#
# Youngs Moduli (GPa) = 62.09418 96.16073 87.20628
#
# Poissons Ratio (x) = 0.26159 0.13607
# Poissons Ratio (y) = 0.16892 0.44359
# Poissons Ratio (z) = 0.09689 0.48914
#
# Static dielectric constant tensor:
#      x y z
#    x 3.370270 0.000000 0.000000 
#    y 0.000000 3.545730 0.000000 
#    z 0.000000 0.000000 3.756150 
# 
# 
# High freq. dielectric constant tensor:
#      x y z
#    x 1.725390 0.000000 0.000000 
#    y 0.000000 1.732680 0.000000 
#    z 0.000000 0.000000 1.731470 
# 
# From -- ./inp_files/36987.got.cif
#   From: 2010.03.12/outbox.cif.g09.slc.cpg/sg64_19_cif.got.tgz:36987.got - 2010.04.10 20:19:32.
