data_PCOD8262197
_publ_section_title
;
Structure prediction by ZEFSAII (Michael W. Deem and Ramdas Pophale) SiO2 
 PCOD8262197
Probable space group: C M C A
;
_chemical_formula_sum "Si O2"
_cell_formula_units_Z 80
_cell_length_a 15.315859
_cell_length_b 18.152958
_cell_length_c 17.549067
_cell_angle_alpha 90.000000
_cell_angle_beta 90.000000
_cell_angle_gamma 90.000000
_cell_volume 4879.134547
_symmetry_space_group_name_H-M "C M C A"
_symmetry_group_IT_number 64
_symmetry_cell_setting 'orthorhombic'
loop_
_space_group_symop_operation_xyz
x,y,z
-x,1/2-y,1/2+z
x,-y,-z
-x,1/2+y,1/2-z
-x,-y,-z
x,1/2+y,1/2-z
-x,y,z
x,1/2-y,1/2+z
1/2+x,1/2+y,z
1/2-x,-y,1/2+z
1/2+x,1/2-y,-z
1/2-x,y,1/2-z
1/2-x,1/2-y,-z
1/2+x,y,1/2-z
1/2-x,1/2+y,z
1/2+x,-y,1/2+z
loop_
_atom_site_type_symbol
_atom_site_label
_atom_site_fract_x
_atom_site_fract_y
_atom_site_fract_z
Si Si1 0.600156 0.780820 0.313052
Si Si2 0.745182 0.264186 0.412426
Si Si3 0.899722 0.986507 0.586843
Si Si4 0.803607 0.361735 0.820455
Si Si5 0.098622 0.856643 0.343890
O O1 0.500000 0.787986 0.339868
O O2 0.665839 0.804302 0.381584
O O3 0.621254 0.695372 0.290401
O O4 0.620651 0.835904 0.243209
O O5 0.750000 0.250000 0.500000
O O6 0.734305 0.185954 0.369651
O O7 0.660872 0.313702 0.400683
O O8 0.842848 0.923458 0.625360
O O9 0.000000 0.960367 0.584039
O O10 0.866984 0.000000 0.500000
O O11 0.888437 0.057093 0.640967
O O12 0.750000 0.397124 0.750000
O O13 0.000000 0.832665 0.363471
#
# Coordination Sequence:
#
# PCOD8262197 Si02
#       5
#    16  16  16  16  16
#     4   9  18  33  54  74 105 143 179 218 262 321
#     4  10  19  32  51  77 108 139 177 221 267 322
#     4  10  21  35  54  82 109 139 182 228 275 318
#     4  10  19  34  52  76 110 140 178 217 271 319
#     4  10  19  34  53  76 108 141 176 221 267 321
#
# _framework density 16.396350999999999
#
# number of rings (size 3 to 8) (size 9 to 14) (size 15 to 20)
#    1.200    1.000    2.000    2.400    0.000    2.400 
#    0.000    0.000    0.000    0.000    0.000    0.000 
#    0.000   11.200    0.000    0.000    0.000    0.000 
#
# Total GULP energy -495644.608041 kJ/mol
# GULP energy per Si atom -12391.115201 kJ/mol
# Density = 1.635903 g / cm^3
# Si number density = 16.396351 Si / 1000 Ang^3
#
#
#
# Elastic Constant Matrix: (Units=GPa)
#
#
# Indices 1 2 3 4 5 6 
#
# 1 64.5367 17.5260 27.6728 0.0000 0.0000 0.0000
# 2 17.5260 61.2152 21.0117 0.0000 0.0000 0.0000
# 3 27.6728 21.0117 94.7730 0.0000 0.0000 0.0000
# 4 0.0000 0.0000 0.0000 24.7816 0.0000 0.0000
# 5 0.0000 0.0000 0.0000 0.0000 19.6992 0.0000
# 6 0.0000 0.0000 0.0000 0.0000 0.0000 24.4640
#
#
#
# Elastic Compliance Matrix: (Units=1/GPa)
#
#
# Indices 1 2 3 4 5 6 
#
# 1 0.018463 -0.003719 -0.004567 0.000000 0.000000 0.000000
# 2 -0.003719 0.018430 -0.003000 0.000000 0.000000 0.000000
# 3 -0.004567 -0.003000 0.012550 0.000000 0.000000 0.000000
# 4 0.000000 0.000000 0.000000 0.040352 0.000000 0.000000
# 5 0.000000 0.000000 0.000000 0.000000 0.050764 0.000000
# 6 0.000000 0.000000 0.000000 0.000000 0.000000 0.040876
#
#
# Mechanical properties :
#
#
# Convention : Reuss Voigt Hill
#
# Bulk Modulus (GPa) = 37.21277 39.21622 38.21450
# Shear Modulus (GPa) = 23.47813 24.07659 23.77736
#
# Velocity S-wave (km/s) = 3.78817 3.83614 3.81223
# Velocity P-wave (km/s) = 6.47137 6.60234 6.53718
#
# Compressibility (1/GPa) = 0.02687250
#
# Stress axis : x y z
#
# Youngs Moduli (GPa) = 54.16238 54.25853 79.68052
#
# Poissons Ratio (x) = 0.20176 0.36387
# Poissons Ratio (y) = 0.20140 0.23907
# Poissons Ratio (z) = 0.24734 0.16279
#
# Static dielectric constant tensor:
#      x y z
#    x 1.957780 0.000000 0.000000 
#    y 0.000000 2.931640 0.000000 
#    z 0.000000 0.000000 3.000070 
# 
# 
# High freq. dielectric constant tensor:
#      x y z
#    x 1.627940 0.000000 0.000000 
#    y 0.000000 1.614770 0.000000 
#    z 0.000000 0.000000 1.631330 
# 
# From -- ./inp_files/32075.got.cif
#   From: 2010.03.12/outbox.cif.g09.slc.cpg/sg64_17_cif.got.tgz:32075.got - 2010.04.10 20:19:32.
