data_PCOD8262924
_publ_section_title
;
Structure prediction by ZEFSAII (Michael W. Deem and Ramdas Pophale) SiO2 
 PCOD8262924
Probable space group: C M C A
;
_chemical_formula_sum "Si O2"
_cell_formula_units_Z 112
_cell_length_a 14.590576
_cell_length_b 13.903046
_cell_length_c 29.726439
_cell_angle_alpha 90.000000
_cell_angle_beta 90.000000
_cell_angle_gamma 90.000000
_cell_volume 6030.110686
_symmetry_space_group_name_H-M "C M C A"
_symmetry_group_IT_number 64
_symmetry_cell_setting 'orthorhombic'
loop_
_space_group_symop_operation_xyz
x,y,z
-x,1/2-y,1/2+z
x,-y,-z
-x,1/2+y,1/2-z
-x,-y,-z
x,1/2+y,1/2-z
-x,y,z
x,1/2-y,1/2+z
1/2+x,1/2+y,z
1/2-x,-y,1/2+z
1/2+x,1/2-y,-z
1/2-x,y,1/2-z
1/2-x,1/2-y,-z
1/2+x,y,1/2-z
1/2-x,1/2+y,z
1/2+x,-y,1/2+z
loop_
_atom_site_type_symbol
_atom_site_label
_atom_site_fract_x
_atom_site_fract_y
_atom_site_fract_z
Si Si1 0.185162 0.898345 0.787355
Si Si2 0.897646 0.952866 0.274528
Si Si3 0.603257 0.773664 0.174603
Si Si4 0.279457 0.155592 0.904050
Si Si5 0.105143 0.608762 0.988709
Si Si6 0.105474 0.784986 0.581369
Si Si7 0.178981 0.955755 0.641289
O O1 0.250000 0.847479 0.750000
O O2 0.101516 0.828282 0.799555
O O3 0.232787 0.911501 0.835091
O O4 0.157158 0.001628 0.767061
O O5 0.858216 0.848875 0.288235
O O6 0.000000 0.944710 0.257001
O O7 0.893152 0.016672 0.319796
O O8 0.500000 0.801269 0.160179
O O9 0.667088 0.774938 0.130657
O O10 0.330700 0.157787 0.951577
O O11 0.175293 0.196109 0.909129
O O12 0.283678 0.045942 0.887205
O O13 0.000000 0.604189 0.971406
O O14 0.138108 0.500000 0.000000
O O15 0.114729 0.680452 0.030400
O O16 0.129024 0.877916 0.610879
O O17 0.000000 0.752080 0.591285
#
# Coordination Sequence:
#
# PCOD8262924 Si02
#       7
#    16  16  16  16  16  16  16
#     4  10  20  35  54  76 111 150 189 234 285 343
#     4   9  19  34  53  78 107 143 188 237 282 331
#     4  10  20  34  57  84 112 148 190 237 288 345
#     4  11  21  37  61  86 120 149 192 241 298 346
#     4  10  20  35  61  91 115 150 197 245 290 346
#     4  11  22  38  60  89 120 153 197 239 289 352
#     4  10  20  36  57  82 112 150 190 238 288 341
#
# _framework density 18.573456
#
# number of rings (size 3 to 8) (size 9 to 14) (size 15 to 20)
#    0.000    1.857    2.857    1.714    0.000    4.000 
#    0.000    1.429    0.000    0.429    0.000    0.000 
#    0.000    0.000    0.000    0.000    0.000    0.000 
#
# Total GULP energy -693959.658372 kJ/mol
# GULP energy per Si atom -12392.136757 kJ/mol
# Density = 1.853118 g / cm^3
# Si number density = 18.573456 Si / 1000 Ang^3
#
#
#
# Elastic Constant Matrix: (Units=GPa)
#
#
# Indices 1 2 3 4 5 6 
#
# 1 103.0480 36.7350 42.7448 0.0000 0.0000 0.0000
# 2 36.7350 56.9778 34.0435 0.0000 0.0000 0.0000
# 3 42.7448 34.0435 89.0771 0.0000 0.0000 0.0000
# 4 0.0000 0.0000 0.0000 22.7273 0.0000 0.0000
# 5 0.0000 0.0000 0.0000 0.0000 21.8915 0.0000
# 6 0.0000 0.0000 0.0000 0.0000 0.0000 21.1920
#
#
#
# Elastic Compliance Matrix: (Units=1/GPa)
#
#
# Indices 1 2 3 4 5 6 
#
# 1 0.013685 -0.006349 -0.004140 0.000000 0.000000 0.000000
# 2 -0.006349 0.025690 -0.006771 0.000000 0.000000 0.000000
# 3 -0.004140 -0.006771 0.015801 0.000000 0.000000 0.000000
# 4 0.000000 0.000000 0.000000 0.044000 0.000000 0.000000
# 5 0.000000 0.000000 0.000000 0.000000 0.045680 0.000000
# 6 0.000000 0.000000 0.000000 0.000000 0.000000 0.047188
#
#
# Mechanical properties :
#
#
# Convention : Reuss Voigt Hill
#
# Bulk Modulus (GPa) = 48.41707 52.90549 50.66128
# Shear Modulus (GPa) = 21.41782 22.20080 21.80931
#
# Velocity S-wave (km/s) = 3.39948 3.46106 3.43041
# Velocity P-wave (km/s) = 6.44462 6.67220 6.55939
#
# Compressibility (1/GPa) = 0.02065387
#
# Stress axis : x y z
#
# Youngs Moduli (GPa) = 73.07226 38.92552 63.28723
#
# Poissons Ratio (x) = 0.24715 0.26203
# Poissons Ratio (y) = 0.46396 0.42855
# Poissons Ratio (z) = 0.30255 0.26358
#
# Static dielectric constant tensor:
#      x y z
#    x 3.368570 0.000000 0.000000 
#    y 0.000000 3.363050 0.000000 
#    z 0.000000 0.000000 3.392640 
# 
# 
# High freq. dielectric constant tensor:
#      x y z
#    x 1.716450 0.000000 0.000000 
#    y 0.000000 1.713600 0.000000 
#    z 0.000000 0.000000 1.723680 
# 
# From -- ./inp_files/50058.got.cif
#   From: 2010.03.12/outbox.cif.g09.slc.cpg/sg64_26_cif.got.tgz:50058.got - 2010.04.10 20:19:32.
