data_PCOD8262968
_publ_section_title
;
Structure prediction by ZEFSAII (Michael W. Deem and Ramdas Pophale) SiO2 
 PCOD8262968
Probable space group: C M C A
;
_chemical_formula_sum "Si O2"
_cell_formula_units_Z 96
_cell_length_a 8.821947
_cell_length_b 19.826573
_cell_length_c 29.437543
_cell_angle_alpha 90.000000
_cell_angle_beta 90.000000
_cell_angle_gamma 90.000000
_cell_volume 5148.890508
_symmetry_space_group_name_H-M "C M C A"
_symmetry_group_IT_number 64
_symmetry_cell_setting 'orthorhombic'
loop_
_space_group_symop_operation_xyz
x,y,z
-x,1/2-y,1/2+z
x,-y,-z
-x,1/2+y,1/2-z
-x,-y,-z
x,1/2+y,1/2-z
-x,y,z
x,1/2-y,1/2+z
1/2+x,1/2+y,z
1/2-x,-y,1/2+z
1/2+x,1/2-y,-z
1/2-x,y,1/2-z
1/2-x,1/2-y,-z
1/2+x,y,1/2-z
1/2-x,1/2+y,z
1/2+x,-y,1/2+z
loop_
_atom_site_type_symbol
_atom_site_label
_atom_site_fract_x
_atom_site_fract_y
_atom_site_fract_z
Si Si1 0.321604 0.893218 0.202953
Si Si2 0.180465 0.185000 0.477591
Si Si3 0.179937 0.352304 0.876026
Si Si4 0.175441 0.439107 0.033128
Si Si5 0.319188 0.006407 0.873886
Si Si6 0.320722 0.239629 0.298285
O O1 0.500000 0.898582 0.207316
O O2 0.250000 0.915516 0.250000
O O3 0.258867 0.947296 0.166971
O O4 0.274468 0.816810 0.189839
O O5 0.250000 0.250000 0.500000
O O6 0.232627 0.174409 0.425480
O O7 0.248565 0.125744 0.509175
O O8 0.000000 0.186995 0.479245
O O9 0.237074 0.429327 0.869406
O O10 0.257593 0.307268 0.837821
O O11 0.000000 0.347311 0.870628
O O12 0.250866 0.458459 0.081171
O O13 0.000000 0.424130 0.041332
O O14 0.202141 0.500000 0.000000
O O15 0.500000 0.005697 0.877011
O O16 0.500000 0.230909 0.294952
O O17 0.250000 0.217999 0.250000
#
# Coordination Sequence:
#
# PCOD8262968 Si02
#       6
#    16  16  16  16  16  16
#     4   9  19  35  55  78 102 132 171 216 262 311
#     4  10  21  34  53  80 110 144 180 221 266 314
#     4  10  20  35  54  80 111 141 176 221 268 314
#     4   9  15  29  53  78 103 136 179 218 255 306
#     4   9  17  31  53  79 104 134 176 221 261 309
#     4  10  21  37  57  80 107 141 176 216 265 319
#
# _framework density 18.644794000000001
#
# number of rings (size 3 to 8) (size 9 to 14) (size 15 to 20)
#    0.000    2.500    1.667    0.500    2.333    2.000 
#    0.000    2.500    0.000    1.500    0.000    0.000 
#    0.000    0.000    0.000    0.000    0.000    0.000 
#
# Total GULP energy -595000.574157 kJ/mol
# GULP energy per Si atom -12395.845295 kJ/mol
# Density = 1.860236 g / cm^3
# Si number density = 18.644794 Si / 1000 Ang^3
#
#
#
# Elastic Constant Matrix: (Units=GPa)
#
#
# Indices 1 2 3 4 5 6 
#
# 1 24.4350 30.9159 37.3192 0.0000 0.0000 0.0000
# 2 30.9159 180.6282 127.3995 0.0000 0.0000 0.0000
# 3 37.3192 127.3995 201.9751 0.0000 0.0000 0.0000
# 4 0.0000 0.0000 0.0000 48.7815 0.0000 0.0000
# 5 0.0000 0.0000 0.0000 0.0000 26.1461 0.0000
# 6 0.0000 0.0000 0.0000 0.0000 0.0000 -140.4554
#
#
#
# Elastic Compliance Matrix: (Units=1/GPa)
#
#
# Indices 1 2 3 4 5 6 
#
# 1 0.058834 -0.004328 -0.008141 0.000000 0.000000 0.000000
# 2 -0.004328 0.010292 -0.005692 0.000000 0.000000 0.000000
# 3 -0.008141 -0.005692 0.010046 0.000000 0.000000 0.000000
# 4 0.000000 0.000000 0.000000 0.020500 0.000000 0.000000
# 5 0.000000 0.000000 0.000000 0.000000 0.038247 0.000000
# 6 0.000000 0.000000 0.000000 0.000000 0.000000 -0.007120
#
#
# Mechanical properties :
#
#
# Convention : Reuss Voigt Hill
#
# Bulk Modulus (GPa) = 23.33733 88.70084 56.01909
# Shear Modulus (GPa) = 27.56292 0.98801 14.27547
#
# Velocity S-wave (km/s) = 3.84906 0.72874 2.77005
# Velocity P-wave (km/s) = 5.68310 6.95596 6.35150
#
# Compressibility (1/GPa) = 0.04284980
#
# Stress axis : x y z
#
# Youngs Moduli (GPa) = 16.99686 97.16661 99.54623
#
# Poissons Ratio (x) = 0.42055 0.81039
# Poissons Ratio (y) = 0.07356 0.56661
# Poissons Ratio (z) = 0.13837 0.55306
#
# Static dielectric constant tensor:
#      x y z
#    x 3.023450 0.000000 0.000000 
#    y 0.000000 3.823150 0.000000 
#    z 0.000000 0.000000 3.747690 
# 
# 
# High freq. dielectric constant tensor:
#      x y z
#    x 1.680880 0.000000 0.000000 
#    y 0.000000 1.736170 0.000000 
#    z 0.000000 0.000000 1.739150 
# 
# From -- ./inp_files/44234.got.cif
#   From: 2010.03.12/outbox.cif.g09.slc.cpg/sg64_23_cif.got.tgz:44234.got - 2010.04.10 20:19:32.
