data_PCOD8262567
_publ_section_title
;
Structure prediction by ZEFSAII (Michael W. Deem and Ramdas Pophale) SiO2 
 PCOD8262567
Probable space group: C M C A
;
_chemical_formula_sum "Si O2"
_cell_formula_units_Z 96
_cell_length_a 19.588640
_cell_length_b 12.296522
_cell_length_c 21.348142
_cell_angle_alpha 90.000000
_cell_angle_beta 90.000000
_cell_angle_gamma 90.000000
_cell_volume 5142.172706
_symmetry_space_group_name_H-M "C M C A"
_symmetry_group_IT_number 64
_symmetry_cell_setting 'orthorhombic'
loop_
_space_group_symop_operation_xyz
x,y,z
-x,1/2-y,1/2+z
x,-y,-z
-x,1/2+y,1/2-z
-x,-y,-z
x,1/2+y,1/2-z
-x,y,z
x,1/2-y,1/2+z
1/2+x,1/2+y,z
1/2-x,-y,1/2+z
1/2+x,1/2-y,-z
1/2-x,y,1/2-z
1/2-x,1/2-y,-z
1/2+x,y,1/2-z
1/2-x,1/2+y,z
1/2+x,-y,1/2+z
loop_
_atom_site_type_symbol
_atom_site_label
_atom_site_fract_x
_atom_site_fract_y
_atom_site_fract_z
Si Si1 0.250000 0.053109 0.750000
Si Si2 0.500000 0.081544 0.871764
Si Si3 0.353164 0.826956 0.856748
Si Si4 0.352402 0.374597 0.787111
Si Si5 0.225432 0.203046 0.637211
Si Si6 0.000000 0.192806 0.204112
Si Si7 0.358193 0.039916 0.929801
Si Si8 0.500000 0.338493 0.657545
O O1 0.313782 0.988748 0.719463
O O2 0.217711 0.124807 0.696088
O O3 0.500000 0.191017 0.830722
O O4 0.434489 0.080333 0.916320
O O5 0.500000 0.970400 0.830064
O O6 0.347316 0.819572 0.781436
O O7 0.302561 0.734798 0.883178
O O8 0.332969 0.945854 0.882210
O O9 0.431300 0.803825 0.879618
O O10 0.313339 0.311774 0.842035
O O11 0.431912 0.379544 0.809375
O O12 0.191002 0.144195 0.578063
O O13 0.000000 0.223898 0.276961
O O14 0.352098 0.000000 0.000000
#
# Coordination Sequence:
#
# PCOD8262567 Si02
#       8
#     8   8  16  16  16   8  16   8
#     4  12  20  34  54  80 116 148 178 224 292 344
#     4  10  19  38  58  76 115 152 185 229 286 340
#     4  10  19  36  53  82 108 145 187 230 282 335
#     4  11  19  33  52  83 112 136 182 231 280 341
#     4  12  20  34  59  79 112 151 184 229 288 337
#     4  10  20  31  53  82 110 144 178 228 286 331
#     4  11  23  37  57  83 114 152 193 234 276 339
#     4   8  20  33  51  80 116 136 179 236 279 337
#
# _framework density 18.669150999999999
#
# number of rings (size 3 to 8) (size 9 to 14) (size 15 to 20)
#    0.000    1.333    6.667    0.250    0.000    0.667 
#    0.000    0.000    0.000    0.000    0.000    0.583 
#    0.000    0.000    0.000    0.000    0.000    0.000 
#
# Total GULP energy -594824.423208 kJ/mol
# GULP energy per Si atom -12392.175483 kJ/mol
# Density = 1.862666 g / cm^3
# Si number density = 18.669151 Si / 1000 Ang^3
#
#
#
# Elastic Constant Matrix: (Units=GPa)
#
#
# Indices 1 2 3 4 5 6 
#
# 1 135.1950 42.5545 11.4943 0.0000 0.0000 0.0000
# 2 42.5545 56.7314 6.5967 0.0000 0.0000 0.0000
# 3 11.4943 6.5967 34.2536 0.0000 0.0000 0.0000
# 4 0.0000 0.0000 0.0000 15.9230 0.0000 0.0000
# 5 0.0000 0.0000 0.0000 0.0000 13.7096 0.0000
# 6 0.0000 0.0000 0.0000 0.0000 0.0000 12.0569
#
#
#
# Elastic Compliance Matrix: (Units=1/GPa)
#
#
# Indices 1 2 3 4 5 6 
#
# 1 0.009804 -0.007131 -0.001917 0.000000 0.000000 0.000000
# 2 -0.007131 0.023218 -0.002078 0.000000 0.000000 0.000000
# 3 -0.001917 -0.002078 0.030237 0.000000 0.000000 0.000000
# 4 0.000000 0.000000 0.000000 0.062802 0.000000 0.000000
# 5 0.000000 0.000000 0.000000 0.000000 0.072942 0.000000
# 6 0.000000 0.000000 0.000000 0.000000 0.000000 0.082940
#
#
# Mechanical properties :
#
#
# Convention : Reuss Voigt Hill
#
# Bulk Modulus (GPa) = 24.38612 38.60789 31.49701
# Shear Modulus (GPa) = 15.72993 19.37353 17.55173
#
# Velocity S-wave (km/s) = 2.90584 3.22488 3.06951
# Velocity P-wave (km/s) = 4.93449 5.88144 5.42865
#
# Compressibility (1/GPa) = 0.04100694
#
# Stress axis : x y z
#
# Youngs Moduli (GPa) = 101.99492 43.07007 33.07164
#
# Poissons Ratio (x) = 0.30715 0.06339
# Poissons Ratio (y) = 0.72738 0.06873
# Poissons Ratio (z) = 0.19548 0.08951
#
# Static dielectric constant tensor:
#      x y z
#    x 3.956760 0.000000 0.000000 
#    y 0.000000 3.348350 0.000000 
#    z 0.000000 0.000000 3.039300 
# 
# 
# High freq. dielectric constant tensor:
#      x y z
#    x 1.748860 0.000000 0.000000 
#    y 0.000000 1.709050 0.000000 
#    z 0.000000 0.000000 1.678390 
# 
# From -- ./inp_files/40922.got.cif
#   From: 2010.03.12/outbox.cif.g09.slc.cpg/sg64_21_cif.got.tgz:40922.got - 2010.04.10 20:19:32.
