data_PCOD8262101
_publ_section_title
;
Structure prediction by ZEFSAII (Michael W. Deem and Ramdas Pophale) SiO2 
 PCOD8262101
Probable space group: C M C A
;
_chemical_formula_sum "Si O2"
_cell_formula_units_Z 80
_cell_length_a 9.291096
_cell_length_b 27.134229
_cell_length_c 18.035531
_cell_angle_alpha 90.000000
_cell_angle_beta 90.000000
_cell_angle_gamma 90.000000
_cell_volume 4546.878682
_symmetry_space_group_name_H-M "C M C A"
_symmetry_group_IT_number 64
_symmetry_cell_setting 'orthorhombic'
loop_
_space_group_symop_operation_xyz
x,y,z
-x,1/2-y,1/2+z
x,-y,-z
-x,1/2+y,1/2-z
-x,-y,-z
x,1/2+y,1/2-z
-x,y,z
x,1/2-y,1/2+z
1/2+x,1/2+y,z
1/2-x,-y,1/2+z
1/2+x,1/2-y,-z
1/2-x,y,1/2-z
1/2-x,1/2-y,-z
1/2+x,y,1/2-z
1/2-x,1/2+y,z
1/2+x,-y,1/2+z
loop_
_atom_site_type_symbol
_atom_site_label
_atom_site_fract_x
_atom_site_fract_y
_atom_site_fract_z
Si Si1 0.831558 0.293723 0.675800
Si Si2 0.334147 0.652843 0.028920
Si Si3 0.168661 0.411625 0.175506
Si Si4 0.333532 0.449694 0.040150
Si Si5 0.667144 0.308072 0.394645
O O1 0.750000 0.309366 0.750000
O O2 0.791884 0.333869 0.613047
O O3 0.778200 0.240074 0.648621
O O4 0.000000 0.292995 0.693398
O O5 0.500000 0.665311 0.014464
O O6 0.300527 0.595265 0.015964
O O7 0.247463 0.687459 0.972729
O O8 0.250000 0.426160 0.250000
O O9 0.232050 0.446175 0.111421
O O10 0.201200 0.354741 0.157094
O O11 0.000000 0.422086 0.184202
O O12 0.500000 0.448964 0.065403
O O13 0.292388 0.500000 0.000000
O O14 0.500000 0.303802 0.413842
#
# Coordination Sequence:
#
# PCOD8262101 Si02
#       5
#    16  16  16  16  16
#     4  10  20  32  46  68  98 129 160 192 229 277
#     4   9  18  32  50  71  94 123 160 198 236 282
#     4  10  19  31  49  74 101 125 155 196 240 285
#     4   9  18  34  54  72  94 126 161 199 244 289
#     4   9  18  31  48  71  97 125 157 193 233 280
#
# _framework density 17.594487999999998
#
# number of rings (size 3 to 8) (size 9 to 14) (size 15 to 20)
#    0.000    2.600    0.000    1.800    0.000    2.800 
#    0.000    1.000    0.000    2.400    0.000    0.000 
#    0.000    0.000    0.000    0.000    0.000    0.000 
#
# Total GULP energy -496100.771415 kJ/mol
# GULP energy per Si atom -12402.519285 kJ/mol
# Density = 1.755444 g / cm^3
# Si number density = 17.594488 Si / 1000 Ang^3
#
#
#
# Elastic Constant Matrix: (Units=GPa)
#
#
# Indices 1 2 3 4 5 6 
#
# 1 71.1909 38.2883 71.4109 0.0000 0.0000 0.0000
# 2 38.2883 86.1400 64.0251 0.0000 0.0000 0.0000
# 3 71.4109 64.0251 155.8622 0.0000 0.0000 0.0000
# 4 0.0000 0.0000 0.0000 19.0626 0.0000 0.0000
# 5 0.0000 0.0000 0.0000 0.0000 36.5422 0.0000
# 6 0.0000 0.0000 0.0000 0.0000 0.0000 20.0972
#
#
#
# Elastic Compliance Matrix: (Units=1/GPa)
#
#
# Indices 1 2 3 4 5 6 
#
# 1 0.026930 -0.004030 -0.010683 0.000000 0.000000 0.000000
# 2 -0.004030 0.017314 -0.005266 0.000000 0.000000 0.000000
# 3 -0.010683 -0.005266 0.013474 0.000000 0.000000 0.000000
# 4 0.000000 0.000000 0.000000 0.052459 0.000000 0.000000
# 5 0.000000 0.000000 0.000000 0.000000 0.027366 0.000000
# 6 0.000000 0.000000 0.000000 0.000000 0.000000 0.049758
#
#
# Mechanical properties :
#
#
# Convention : Reuss Voigt Hill
#
# Bulk Modulus (GPa) = 56.30529 73.40463 64.85496
# Shear Modulus (GPa) = 21.44274 24.43831 22.94052
#
# Velocity S-wave (km/s) = 3.49480 3.73094 3.61480
# Velocity P-wave (km/s) = 6.95385 7.76986 7.37315
#
# Compressibility (1/GPa) = 0.01776032
#
# Stress axis : x y z
#
# Youngs Moduli (GPa) = 37.13294 57.75573 74.21801
#
# Poissons Ratio (x) = 0.23274 0.79289
# Poissons Ratio (y) = 0.14964 0.39084
# Poissons Ratio (z) = 0.39670 0.30415
#
# Static dielectric constant tensor:
#      x y z
#    x 3.237450 0.000000 0.000000 
#    y 0.000000 3.231670 0.000000 
#    z 0.000000 0.000000 3.214120 
# 
# 
# High freq. dielectric constant tensor:
#      x y z
#    x 1.679510 0.000000 0.000000 
#    y 0.000000 1.668440 0.000000 
#    z 0.000000 0.000000 1.679260 
# 
# From -- ./inp_files/13203.got.cif
#   From: 2010.03.12/outbox.cif.g09.slc.cpg/sg64_7_cif.got.tgz:13203.got - 2010.04.10 20:19:32.
