data_PCOD8262322
_publ_section_title
;
Structure prediction by ZEFSAII (Michael W. Deem and Ramdas Pophale) SiO2 
 PCOD8262322
Probable space group: C M C A
;
_chemical_formula_sum "Si O2"
_cell_formula_units_Z 80
_cell_length_a 8.875806
_cell_length_b 26.897135
_cell_length_c 18.165072
_cell_angle_alpha 90.000000
_cell_angle_beta 90.000000
_cell_angle_gamma 90.000000
_cell_volume 4336.615798
_symmetry_space_group_name_H-M "C M C A"
_symmetry_group_IT_number 64
_symmetry_cell_setting 'orthorhombic'
loop_
_space_group_symop_operation_xyz
x,y,z
-x,1/2-y,1/2+z
x,-y,-z
-x,1/2+y,1/2-z
-x,-y,-z
x,1/2+y,1/2-z
-x,y,z
x,1/2-y,1/2+z
1/2+x,1/2+y,z
1/2-x,-y,1/2+z
1/2+x,1/2-y,-z
1/2-x,y,1/2-z
1/2-x,1/2-y,-z
1/2+x,y,1/2-z
1/2-x,1/2+y,z
1/2+x,-y,1/2+z
loop_
_atom_site_type_symbol
_atom_site_label
_atom_site_fract_x
_atom_site_fract_y
_atom_site_fract_z
Si Si1 0.675176 0.055228 0.097612
Si Si2 0.824246 0.098725 0.959990
Si Si3 0.823459 0.297897 0.534999
Si Si4 0.821985 0.952682 0.328936
Si Si5 0.676132 0.842200 0.827329
O O1 0.500000 0.052752 0.076298
O O2 0.711140 0.100956 0.151431
O O3 0.729358 0.006161 0.139910
O O4 0.766628 0.060289 0.021901
O O5 0.737541 0.089702 0.883820
O O6 0.000000 0.089668 0.948119
O O7 0.787446 0.154896 0.983684
O O8 0.750000 0.250000 0.500000
O O9 0.749924 0.305075 0.614495
O O10 0.000000 0.289865 0.544893
O O11 0.750000 0.943539 0.250000
O O12 0.000000 0.948888 0.321550
O O13 0.500000 0.831406 0.823590
O O14 0.750000 0.830041 0.750000
#
# Coordination Sequence:
#
# PCOD8262322 Si02
#       5
#    16  16  16  16  16
#     4   9  19  34  53  78 108 143 179 215 258 308
#     4  10  21  36  55  79 106 137 175 218 263 314
#     4  10  21  38  59  81 105 136 176 220 268 321
#     4  11  22  35  52  76 109 146 182 218 257 305
#     4  10  19  33  54  81 112 141 173 217 266 313
#
# _framework density 18.447564
#
# number of rings (size 3 to 8) (size 9 to 14) (size 15 to 20)
#    0.000    2.000    0.000    3.600    0.000    7.200 
#    0.000    1.000    0.000    4.800    0.000    0.000 
#    0.000    0.000    0.000    0.000    0.000    0.000 
#
# Total GULP energy -496223.008637 kJ/mol
# GULP energy per Si atom -12405.575216 kJ/mol
# Density = 1.840558 g / cm^3
# Si number density = 18.447564 Si / 1000 Ang^3
#
#
#
# Elastic Constant Matrix: (Units=GPa)
#
#
# Indices 1 2 3 4 5 6 
#
# 1 100.7380 50.6397 80.3184 0.0000 0.0000 0.0000
# 2 50.6397 83.3655 71.6087 0.0000 0.0000 0.0000
# 3 80.3184 71.6087 177.0309 0.0000 0.0000 0.0000
# 4 0.0000 0.0000 0.0000 23.5810 0.0000 0.0000
# 5 0.0000 0.0000 0.0000 0.0000 41.2614 0.0000
# 6 0.0000 0.0000 0.0000 0.0000 0.0000 26.0461
#
#
#
# Elastic Compliance Matrix: (Units=1/GPa)
#
#
# Indices 1 2 3 4 5 6 
#
# 1 0.017170 -0.005729 -0.005473 0.000000 0.000000 0.000000
# 2 -0.005729 0.020294 -0.005610 0.000000 0.000000 0.000000
# 3 -0.005473 -0.005610 0.010401 0.000000 0.000000 0.000000
# 4 0.000000 0.000000 0.000000 0.042407 0.000000 0.000000
# 5 0.000000 0.000000 0.000000 0.000000 0.024236 0.000000
# 6 0.000000 0.000000 0.000000 0.000000 0.000000 0.038393
#
#
# Mechanical properties :
#
#
# Convention : Reuss Voigt Hill
#
# Bulk Modulus (GPa) = 70.21390 85.14090 77.67740
# Shear Modulus (GPa) = 26.14101 28.74888 27.44495
#
# Velocity S-wave (km/s) = 3.76845 3.95195 3.86129
# Velocity P-wave (km/s) = 7.55506 8.19006 7.87896
#
# Compressibility (1/GPa) = 0.01424219
#
# Stress axis : x y z
#
# Youngs Moduli (GPa) = 58.24146 49.27590 96.14705
#
# Poissons Ratio (x) = 0.28230 0.52617
# Poissons Ratio (y) = 0.33366 0.53935
# Poissons Ratio (z) = 0.31873 0.27642
#
# Static dielectric constant tensor:
#      x y z
#    x 3.481240 0.000000 0.000000 
#    y 0.000000 3.308530 0.000000 
#    z 0.000000 0.000000 3.427080 
# 
# 
# High freq. dielectric constant tensor:
#      x y z
#    x 1.729050 0.000000 0.000000 
#    y 0.000000 1.702490 0.000000 
#    z 0.000000 0.000000 1.721040 
# 
# From -- ./inp_files/29693.got.cif
#   From: 2010.03.12/outbox.cif.g09.slc.cpg/sg64_15_cif.got.tgz:29693.got - 2010.04.10 20:19:32.
