data_PCOD8262690
_publ_section_title
;
Structure prediction by ZEFSAII (Michael W. Deem and Ramdas Pophale) SiO2 
 PCOD8262690
Probable space group: C M C A
;
_chemical_formula_sum "Si O2"
_cell_formula_units_Z 72
_cell_length_a 24.502032
_cell_length_b 10.595142
_cell_length_c 14.156873
_cell_angle_alpha 90.000000
_cell_angle_beta 90.000000
_cell_angle_gamma 90.000000
_cell_volume 3675.159741
_symmetry_space_group_name_H-M "C M C A"
_symmetry_group_IT_number 64
_symmetry_cell_setting 'orthorhombic'
loop_
_space_group_symop_operation_xyz
x,y,z
-x,1/2-y,1/2+z
x,-y,-z
-x,1/2+y,1/2-z
-x,-y,-z
x,1/2+y,1/2-z
-x,y,z
x,1/2-y,1/2+z
1/2+x,1/2+y,z
1/2-x,-y,1/2+z
1/2+x,1/2-y,-z
1/2-x,y,1/2-z
1/2-x,1/2-y,-z
1/2+x,y,1/2-z
1/2-x,1/2+y,z
1/2+x,-y,1/2+z
loop_
_atom_site_type_symbol
_atom_site_label
_atom_site_fract_x
_atom_site_fract_y
_atom_site_fract_z
Si Si1 0.692014 0.683340 0.607407
Si Si2 0.121932 0.000000 0.500000
Si Si3 0.118194 0.656996 0.726896
Si Si4 0.564151 0.413744 0.674006
Si Si5 0.810288 0.126766 0.948040
O O1 0.662884 0.555960 0.576708
O O2 0.669888 0.708688 0.712482
O O3 0.757460 0.678446 0.607958
O O4 0.670141 0.783292 0.531672
O O5 0.083694 0.910083 0.564266
O O6 0.079095 0.778968 0.720133
O O7 0.088034 0.535978 0.771049
O O8 0.140249 0.612600 0.625008
O O9 0.500000 0.429176 0.677546
O O10 0.793382 0.000000 0.000000
#
# Coordination Sequence:
#
# PCOD8262690 Si02
#       5
#    16   8  16  16  16
#     4  10  21  36  59  90 123 158 194 243 303 371
#     4  10  19  40  60  86 116 164 203 250 302 374
#     4  11  23  39  64  91 124 160 207 254 306 368
#     4  11  23  41  63  88 120 164 212 262 307 355
#     4  11  21  37  60  91 127 161 193 245 303 373
#
# _framework density 19.590983999999999
#
# number of rings (size 3 to 8) (size 9 to 14) (size 15 to 20)
#    0.000    1.333    3.333    3.000    0.000    0.000 
#    0.000    4.444    0.000    2.667    0.000    0.000 
#    0.000    0.000    0.000    0.000    0.000    0.000 
#
# Total GULP energy -446128.316729 kJ/mol
# GULP energy per Si atom -12392.453242 kJ/mol
# Density = 1.954639 g / cm^3
# Si number density = 19.590984 Si / 1000 Ang^3
#
#
#
# Elastic Constant Matrix: (Units=GPa)
#
#
# Indices 1 2 3 4 5 6 
#
# 1 66.0808 28.6642 21.8401 0.0000 0.0000 0.0000
# 2 28.6642 75.1194 21.6316 0.0000 0.0000 0.0000
# 3 21.8401 21.6316 69.5605 0.0000 0.0000 0.0000
# 4 0.0000 0.0000 0.0000 28.5341 0.0000 0.0000
# 5 0.0000 0.0000 0.0000 0.0000 31.7941 0.0000
# 6 0.0000 0.0000 0.0000 0.0000 0.0000 29.1140
#
#
#
# Elastic Compliance Matrix: (Units=1/GPa)
#
#
# Indices 1 2 3 4 5 6 
#
# 1 0.019147 -0.006123 -0.004107 0.000000 0.000000 0.000000
# 2 -0.006123 0.016580 -0.003233 0.000000 0.000000 0.000000
# 3 -0.004107 -0.003233 0.016671 0.000000 0.000000 0.000000
# 4 0.000000 0.000000 0.000000 0.035046 0.000000 0.000000
# 5 0.000000 0.000000 0.000000 0.000000 0.031452 0.000000
# 6 0.000000 0.000000 0.000000 0.000000 0.000000 0.034348
#
#
# Mechanical properties :
#
#
# Convention : Reuss Voigt Hill
#
# Bulk Modulus (GPa) = 39.26257 39.44804 39.35531
# Shear Modulus (GPa) = 26.50257 27.13010 26.81633
#
# Velocity S-wave (km/s) = 3.68203 3.72536 3.70376
# Velocity P-wave (km/s) = 6.17746 6.21964 6.19859
#
# Compressibility (1/GPa) = 0.02546955
#
# Stress axis : x y z
#
# Youngs Moduli (GPa) = 52.22861 60.31455 59.98419
#
# Poissons Ratio (x) = 0.36932 0.24638
# Poissons Ratio (y) = 0.31981 0.19395
# Poissons Ratio (z) = 0.21452 0.19502
#
# Static dielectric constant tensor:
#      x y z
#    x 3.447490 0.000000 0.000000 
#    y 0.000000 3.137480 0.000000 
#    z 0.000000 0.000000 3.696350 
# 
# 
# High freq. dielectric constant tensor:
#      x y z
#    x 1.757250 0.000000 0.000000 
#    y 0.000000 1.761800 0.000000 
#    z 0.000000 0.000000 1.773750 
# 
# From -- ./inp_files/18914.got.cif
#   From: 2010.03.12/outbox.cif.g09.slc.cpg/sg64_10_cif.got.tgz:18914.got - 2010.04.10 20:19:32.
