data_PCOD8262774
_publ_section_title
;
Structure prediction by ZEFSAII (Michael W. Deem and Ramdas Pophale) SiO2 
 PCOD8262774
Probable space group: C M C A
;
_chemical_formula_sum "Si O2"
_cell_formula_units_Z 104
_cell_length_a 10.025534
_cell_length_b 21.998237
_cell_length_c 26.024749
_cell_angle_alpha 90.000000
_cell_angle_beta 90.000000
_cell_angle_gamma 90.000000
_cell_volume 5739.604143
_symmetry_space_group_name_H-M "C M C A"
_symmetry_group_IT_number 64
_symmetry_cell_setting 'orthorhombic'
loop_
_space_group_symop_operation_xyz
x,y,z
-x,1/2-y,1/2+z
x,-y,-z
-x,1/2+y,1/2-z
-x,-y,-z
x,1/2+y,1/2-z
-x,y,z
x,1/2-y,1/2+z
1/2+x,1/2+y,z
1/2-x,-y,1/2+z
1/2+x,1/2-y,-z
1/2-x,y,1/2-z
1/2-x,1/2-y,-z
1/2+x,y,1/2-z
1/2-x,1/2+y,z
1/2+x,-y,1/2+z
loop_
_atom_site_type_symbol
_atom_site_label
_atom_site_fract_x
_atom_site_fract_y
_atom_site_fract_z
Si Si1 0.348754 0.435502 0.899939
Si Si2 0.650329 0.196256 0.600228
Si Si3 0.352957 0.854494 0.290640
Si Si4 0.146877 0.376692 0.036936
Si Si5 0.754508 0.500000 0.500000
Si Si6 0.654409 0.005981 0.703921
Si Si7 0.847494 0.830274 0.573805
O O1 0.500000 0.411324 0.895462
O O2 0.309534 0.474433 0.849939
O O3 0.248320 0.378974 0.899514
O O4 0.341761 0.475078 0.952343
O O5 0.500000 0.187541 0.578604
O O6 0.653179 0.189387 0.660985
O O7 0.741448 0.143615 0.576785
O O8 0.704465 0.263280 0.587994
O O9 0.500000 0.852890 0.265810
O O10 0.250000 0.827386 0.250000
O O11 0.315915 0.923216 0.306072
O O12 0.161178 0.446900 0.021596
O O13 0.000000 0.368275 0.061443
O O14 0.162066 0.334511 0.987283
O O15 0.500000 0.994262 0.719207
O O16 0.750000 0.981694 0.750000
O O17 0.000000 0.840955 0.592704
#
# Coordination Sequence:
#
# PCOD8262774 Si02
#       7
#    16  16  16  16   8  16  16
#     4  10  20  34  54  78 103 133 172 214 254 304
#     4  10  20  35  54  74 100 136 173 209 253 301
#     4   9  18  33  52  74  99 126 161 207 255 302
#     4  10  20  33  51  76 105 136 171 208 246 298
#     4  10  20  34  52  78 110 138 164 206 266 314
#     4   9  18  33  52  76 102 129 166 210 255 305
#     4   9  20  36  51  72 105 140 170 205 253 303
#
# _framework density 18.119717000000001
#
# number of rings (size 3 to 8) (size 9 to 14) (size 15 to 20)
#    0.000    2.462    0.000    1.846    0.000    6.769 
#    0.000    3.846    0.000    3.692    0.000    0.000 
#    0.000    0.000    0.000    0.000    0.000    0.000 
#
# Total GULP energy -644756.766391 kJ/mol
# GULP energy per Si atom -12399.168584 kJ/mol
# Density = 1.807848 g / cm^3
# Si number density = 18.119717 Si / 1000 Ang^3
#
#
#
# Elastic Constant Matrix: (Units=GPa)
#
#
# Indices 1 2 3 4 5 6 
#
# 1 98.8918 46.6839 45.4337 0.0000 0.0000 0.0000
# 2 46.6839 88.1677 38.1544 0.0000 0.0000 0.0000
# 3 45.4337 38.1544 78.2575 0.0000 0.0000 0.0000
# 4 0.0000 0.0000 0.0000 24.0467 0.0000 0.0000
# 5 0.0000 0.0000 0.0000 0.0000 32.3507 0.0000
# 6 0.0000 0.0000 0.0000 0.0000 0.0000 22.3128
#
#
#
# Elastic Compliance Matrix: (Units=1/GPa)
#
#
# Indices 1 2 3 4 5 6 
#
# 1 0.015659 -0.005522 -0.006399 0.000000 0.000000 0.000000
# 2 -0.005522 0.016322 -0.004752 0.000000 0.000000 0.000000
# 3 -0.006399 -0.004752 0.018810 0.000000 0.000000 0.000000
# 4 0.000000 0.000000 0.000000 0.041586 0.000000 0.000000
# 5 0.000000 0.000000 0.000000 0.000000 0.030911 0.000000
# 6 0.000000 0.000000 0.000000 0.000000 0.000000 0.044817
#
#
# Mechanical properties :
#
#
# Convention : Reuss Voigt Hill
#
# Bulk Modulus (GPa) = 57.32118 58.42901 57.87510
# Shear Modulus (GPa) = 24.12364 24.74504 24.43434
#
# Velocity S-wave (km/s) = 3.65272 3.69947 3.67617
# Velocity P-wave (km/s) = 7.03514 7.11085 7.07310
#
# Compressibility (1/GPa) = 0.01744556
#
# Stress axis : x y z
#
# Youngs Moduli (GPa) = 63.86296 61.26573 53.16339
#
# Poissons Ratio (x) = 0.33831 0.34017
# Poissons Ratio (y) = 0.35266 0.25263
# Poissons Ratio (z) = 0.40863 0.29114
#
# Static dielectric constant tensor:
#      x y z
#    x 3.467750 0.000000 0.000000 
#    y 0.000000 3.206240 0.000000 
#    z 0.000000 0.000000 3.259340 
# 
# 
# High freq. dielectric constant tensor:
#      x y z
#    x 1.708630 0.000000 0.000000 
#    y 0.000000 1.693050 0.000000 
#    z 0.000000 0.000000 1.691400 
# 
# From -- ./inp_files/48229.got.cif
#   From: 2010.03.12/outbox.cif.g09.slc.cpg/sg64_25_cif.got.tgz:48229.got - 2010.04.10 20:19:32.
