data_PCOD8262190
_publ_section_title
;
Structure prediction by ZEFSAII (Michael W. Deem and Ramdas Pophale) SiO2 
 PCOD8262190
Probable space group: C M C A
;
_chemical_formula_sum "Si O2"
_cell_formula_units_Z 80
_cell_length_a 8.907747
_cell_length_b 27.801600
_cell_length_c 17.772234
_cell_angle_alpha 90.000000
_cell_angle_beta 90.000000
_cell_angle_gamma 90.000000
_cell_volume 4401.286979
_symmetry_space_group_name_H-M "C M C A"
_symmetry_group_IT_number 64
_symmetry_cell_setting 'orthorhombic'
loop_
_space_group_symop_operation_xyz
x,y,z
-x,1/2-y,1/2+z
x,-y,-z
-x,1/2+y,1/2-z
-x,-y,-z
x,1/2+y,1/2-z
-x,y,z
x,1/2-y,1/2+z
1/2+x,1/2+y,z
1/2-x,-y,1/2+z
1/2+x,1/2-y,-z
1/2-x,y,1/2-z
1/2-x,1/2-y,-z
1/2+x,y,1/2-z
1/2-x,1/2+y,z
1/2+x,-y,1/2+z
loop_
_atom_site_type_symbol
_atom_site_label
_atom_site_fract_x
_atom_site_fract_y
_atom_site_fract_z
Si Si1 0.823860 0.285259 0.669721
Si Si2 0.827692 0.140864 0.043140
Si Si3 0.823234 0.052202 0.520114
Si Si4 0.323110 0.809756 0.389651
Si Si5 0.177815 0.099078 0.675071
O O1 0.750000 0.293668 0.750000
O O2 0.793218 0.333337 0.621812
O O3 0.747637 0.241672 0.626095
O O4 0.000000 0.274737 0.678389
O O5 0.000000 0.126310 0.035426
O O6 0.735274 0.091505 0.039194
O O7 0.783332 0.176779 0.975438
O O8 0.774077 0.065868 0.604788
O O9 0.000000 0.051394 0.512150
O O10 0.755066 0.000000 0.500000
O O11 0.500000 0.808296 0.373993
O O12 0.247579 0.848000 0.333890
O O13 0.250000 0.075730 0.750000
O O14 0.000000 0.102986 0.682963
#
# Coordination Sequence:
#
# PCOD8262190 Si02
#       5
#    16  16  16  16  16
#     4  11  22  35  50  73 105 139 174 207 245 294
#     4   9  20  36  54  76 101 131 169 211 252 299
#     4   9  19  36  57  78 100 130 168 209 255 305
#     4  10  19  33  53  76 102 133 169 208 252 298
#     4  10  19  32  51  76 105 133 164 206 254 301
#
# _framework density 18.176503
#
# number of rings (size 3 to 8) (size 9 to 14) (size 15 to 20)
#    0.000    2.200    0.000    3.000    0.000    3.600 
#    0.000    1.000    0.000    4.800    0.000    0.000 
#    0.000    0.000    0.000    0.000    0.000    0.000 
#
# Total GULP energy -496094.572122 kJ/mol
# GULP energy per Si atom -12402.364303 kJ/mol
# Density = 1.813513 g / cm^3
# Si number density = 18.176503 Si / 1000 Ang^3
#
#
#
# Elastic Constant Matrix: (Units=GPa)
#
#
# Indices 1 2 3 4 5 6 
#
# 1 68.1778 41.7468 34.3427 0.0000 0.0000 0.0000
# 2 41.7468 121.4677 49.2799 0.0000 0.0000 0.0000
# 3 34.3427 49.2799 79.1164 0.0000 0.0000 0.0000
# 4 0.0000 0.0000 0.0000 18.1286 0.0000 0.0000
# 5 0.0000 0.0000 0.0000 0.0000 28.8642 0.0000
# 6 0.0000 0.0000 0.0000 0.0000 0.0000 26.6612
#
#
#
# Elastic Compliance Matrix: (Units=1/GPa)
#
#
# Indices 1 2 3 4 5 6 
#
# 1 0.020531 -0.004604 -0.006044 0.000000 0.000000 0.000000
# 2 -0.004604 0.012049 -0.005507 0.000000 0.000000 0.000000
# 3 -0.006044 -0.005507 0.018693 0.000000 0.000000 0.000000
# 4 0.000000 0.000000 0.000000 0.055161 0.000000 0.000000
# 5 0.000000 0.000000 0.000000 0.000000 0.034645 0.000000
# 6 0.000000 0.000000 0.000000 0.000000 0.000000 0.037508
#
#
# Mechanical properties :
#
#
# Convention : Reuss Voigt Hill
#
# Bulk Modulus (GPa) = 52.73272 57.72229 55.22751
# Shear Modulus (GPa) = 23.01820 24.29029 23.65425
#
# Velocity S-wave (km/s) = 3.56247 3.65959 3.61136
# Velocity P-wave (km/s) = 6.78204 7.04856 6.91659
#
# Compressibility (1/GPa) = 0.01896356
#
# Stress axis : x y z
#
# Youngs Moduli (GPa) = 48.70572 82.99411 53.49520
#
# Poissons Ratio (x) = 0.38212 0.32335
# Poissons Ratio (y) = 0.22425 0.29457
# Poissons Ratio (z) = 0.29440 0.45701
#
# Static dielectric constant tensor:
#      x y z
#    x 3.391670 0.000000 0.000000 
#    y 0.000000 3.326160 0.000000 
#    z 0.000000 0.000000 3.482660 
# 
# 
# High freq. dielectric constant tensor:
#      x y z
#    x 1.712100 0.000000 0.000000 
#    y 0.000000 1.690220 0.000000 
#    z 0.000000 0.000000 1.707230 
# 
# From -- ./inp_files/29764.got.cif
#   From: 2010.03.12/outbox.cif.g09.slc.cpg/sg64_15_cif.got.tgz:29764.got - 2010.04.10 20:19:32.
