data_PCOD8262615
_publ_section_title
;
Structure prediction by ZEFSAII (Michael W. Deem and Ramdas Pophale) SiO2 
 PCOD8262615
Probable space group: C M C A
;
_chemical_formula_sum "Si O2"
_cell_formula_units_Z 112
_cell_length_a 15.840256
_cell_length_b 24.801372
_cell_length_c 14.381297
_cell_angle_alpha 90.000000
_cell_angle_beta 90.000000
_cell_angle_gamma 90.000000
_cell_volume 5649.837513
_symmetry_space_group_name_H-M "C M C A"
_symmetry_group_IT_number 64
_symmetry_cell_setting 'orthorhombic'
loop_
_space_group_symop_operation_xyz
x,y,z
-x,1/2-y,1/2+z
x,-y,-z
-x,1/2+y,1/2-z
-x,-y,-z
x,1/2+y,1/2-z
-x,y,z
x,1/2-y,1/2+z
1/2+x,1/2+y,z
1/2-x,-y,1/2+z
1/2+x,1/2-y,-z
1/2-x,y,1/2-z
1/2-x,1/2-y,-z
1/2+x,y,1/2-z
1/2-x,1/2+y,z
1/2+x,-y,1/2+z
loop_
_atom_site_type_symbol
_atom_site_label
_atom_site_fract_x
_atom_site_fract_y
_atom_site_fract_z
Si Si1 0.403274 0.685062 0.641546
Si Si2 0.598319 0.214460 0.234242
Si Si3 0.095499 0.528787 0.141644
Si Si4 0.242332 0.088663 0.462466
Si Si5 0.694005 0.423320 0.337962
Si Si6 0.684737 0.292848 0.540074
Si Si7 0.341377 0.899912 0.704582
O O1 0.500000 0.670268 0.659842
O O2 0.374318 0.736832 0.699620
O O3 0.346056 0.635366 0.674167
O O4 0.391040 0.698116 0.532880
O O5 0.500000 0.214982 0.210897
O O6 0.647679 0.224730 0.138749
O O7 0.619754 0.159682 0.289246
O O8 0.157791 0.557374 0.068856
O O9 0.119476 0.466506 0.153493
O O10 0.098784 0.558535 0.241338
O O11 0.000000 0.532564 0.103026
O O12 0.254997 0.074797 0.570916
O O13 0.232624 0.151707 0.444294
O O14 0.326355 0.076482 0.400620
O O15 0.750000 0.438740 0.250000
O O16 0.750000 0.250000 0.500000
O O17 0.250000 0.899242 0.750000
#
# Coordination Sequence:
#
# PCOD8262615 Si02
#       7
#    16  16  16  16  16  16  16
#     4  10  24  39  56  86 124 160 200 249 305 369
#     4  11  22  38  61  87 123 162 201 252 305 362
#     4  11  22  38  64  92 121 155 198 260 317 361
#     4  10  22  37  59  92 115 156 202 252 299 360
#     4  11  24  40  61  86 122 163 206 249 307 378
#     4  11  22  35  62  89 121 159 200 248 300 359
#     4  10  19  36  61  90 118 147 202 257 302 357
#
# _framework density 19.823578000000001
#
# number of rings (size 3 to 8) (size 9 to 14) (size 15 to 20)
#    0.000    1.429    2.857    3.857    4.000    3.429 
#    0.000    0.000    0.000    3.429    0.000    0.000 
#    0.000    0.000    0.000    0.000    0.000    0.000 
#
# Total GULP energy -694335.911263 kJ/mol
# GULP energy per Si atom -12398.855558 kJ/mol
# Density = 1.977846 g / cm^3
# Si number density = 19.823578 Si / 1000 Ang^3
#
#
#
# Elastic Constant Matrix: (Units=GPa)
#
#
# Indices 1 2 3 4 5 6 
#
# 1 52.8684 17.0349 23.3620 0.0000 0.0000 0.0000
# 2 17.0349 105.9702 24.4075 0.0000 0.0000 0.0000
# 3 23.3620 24.4075 125.1220 0.0000 0.0000 0.0000
# 4 0.0000 0.0000 0.0000 23.7702 0.0000 0.0000
# 5 0.0000 0.0000 0.0000 0.0000 25.8437 0.0000
# 6 0.0000 0.0000 0.0000 0.0000 0.0000 30.6319
#
#
#
# Elastic Compliance Matrix: (Units=1/GPa)
#
#
# Indices 1 2 3 4 5 6 
#
# 1 0.021291 -0.002625 -0.003463 0.000000 0.000000 0.000000
# 2 -0.002625 0.010204 -0.001500 0.000000 0.000000 0.000000
# 3 -0.003463 -0.001500 0.008932 0.000000 0.000000 0.000000
# 4 0.000000 0.000000 0.000000 0.042070 0.000000 0.000000
# 5 0.000000 0.000000 0.000000 0.000000 0.038694 0.000000
# 6 0.000000 0.000000 0.000000 0.000000 0.000000 0.032646
#
#
# Mechanical properties :
#
#
# Convention : Reuss Voigt Hill
#
# Bulk Modulus (GPa) = 39.60472 45.95217 42.77844
# Shear Modulus (GPa) = 28.18012 30.65954 29.41983
#
# Velocity S-wave (km/s) = 3.77443 3.93698 3.85656
# Velocity P-wave (km/s) = 6.24636 6.62550 6.43872
#
# Compressibility (1/GPa) = 0.02524952
#
# Stress axis : x y z
#
# Youngs Moduli (GPa) = 46.96806 97.99928 111.96283
#
# Poissons Ratio (x) = 0.25724 0.38776
# Poissons Ratio (y) = 0.12329 0.16799
# Poissons Ratio (z) = 0.16266 0.14704
#
# Static dielectric constant tensor:
#      x y z
#    x 3.416200 0.000000 0.000000 
#    y 0.000000 -5.357980 0.000000 
#    z 0.000000 0.000000 4.572540 
# 
# 
# High freq. dielectric constant tensor:
#      x y z
#    x 1.752190 0.000000 0.000000 
#    y 0.000000 1.786830 0.000000 
#    z 0.000000 0.000000 1.780220 
# 
# From -- ./inp_files/24210.got.cif
#   From: 2010.03.12/outbox.cif.g09.slc.cpg/sg64_13_cif.got.tgz:24210.got - 2010.04.10 20:19:32.
