data_PCOD8262135
_publ_section_title
;
Structure prediction by ZEFSAII (Michael W. Deem and Ramdas Pophale) SiO2 
 PCOD8262135
Probable space group: C M C A
;
_chemical_formula_sum "Si O2"
_cell_formula_units_Z 80
_cell_length_a 8.791081
_cell_length_b 26.305921
_cell_length_c 18.345884
_cell_angle_alpha 90.000000
_cell_angle_beta 90.000000
_cell_angle_gamma 90.000000
_cell_volume 4242.622944
_symmetry_space_group_name_H-M "C M C A"
_symmetry_group_IT_number 64
_symmetry_cell_setting 'orthorhombic'
loop_
_space_group_symop_operation_xyz
x,y,z
-x,1/2-y,1/2+z
x,-y,-z
-x,1/2+y,1/2-z
-x,-y,-z
x,1/2+y,1/2-z
-x,y,z
x,1/2-y,1/2+z
1/2+x,1/2+y,z
1/2-x,-y,1/2+z
1/2+x,1/2-y,-z
1/2-x,y,1/2-z
1/2-x,1/2-y,-z
1/2+x,y,1/2-z
1/2-x,1/2+y,z
1/2+x,-y,1/2+z
loop_
_atom_site_type_symbol
_atom_site_label
_atom_site_fract_x
_atom_site_fract_y
_atom_site_fract_z
Si Si1 0.821637 0.692354 0.329324
Si Si2 0.821179 0.407677 0.829646
Si Si3 0.178529 0.097894 0.829289
Si Si4 0.321863 0.697563 0.670644
Si Si5 0.824041 0.002500 0.084886
O O1 0.750000 0.695026 0.250000
O O2 0.742583 0.644115 0.368511
O O3 0.791059 0.747397 0.368337
O O4 0.000000 0.681756 0.323188
O O5 0.750000 0.415947 0.750000
O O6 0.780389 0.454444 0.880732
O O7 0.000000 0.403477 0.821046
O O8 0.250000 0.088881 0.750000
O O9 0.244147 0.149132 0.868807
O O10 0.222840 0.051154 0.880496
O O11 0.000000 0.103828 0.820206
O O12 0.500000 0.687413 0.677341
O O13 0.250000 0.699530 0.750000
O O14 0.000000 0.015375 0.100425
O O15 0.788442 0.000000 0.000000
#
# Coordination Sequence:
#
# PCOD8262135 Si02
#       5
#    16  16  16  16  16
#     4   9  16  27  45  71 102 133 163 199 246 295
#     4  11  21  33  53  79 105 134 169 210 252 297
#     4  10  19  31  51  76 101 131 165 204 248 296
#     4   9  16  26  44  71 102 132 161 199 245 293
#     4  10  22  39  55  72  99 135 172 212 260 308
#
# _framework density 18.856259000000001
#
# number of rings (size 3 to 8) (size 9 to 14) (size 15 to 20)
#    0.000    2.200    0.000    6.600    0.000    6.000 
#    0.000    0.000    0.000    1.200    0.000    0.000 
#    0.000    0.000    0.000    0.000    0.000    0.000 
#
# Total GULP energy -495652.488762 kJ/mol
# GULP energy per Si atom -12391.312219 kJ/mol
# Density = 1.881334 g / cm^3
# Si number density = 18.856259 Si / 1000 Ang^3
#
#
#
# Elastic Constant Matrix: (Units=GPa)
#
#
# Indices 1 2 3 4 5 6 
#
# 1 132.6567 87.8423 32.8006 0.0000 0.0000 0.0000
# 2 87.8423 203.9612 50.8937 0.0000 0.0000 0.0000
# 3 32.8006 50.8937 50.3393 0.0000 0.0000 0.0000
# 4 0.0000 0.0000 0.0000 -2.7526 0.0000 0.0000
# 5 0.0000 0.0000 0.0000 0.0000 15.2395 0.0000
# 6 0.0000 0.0000 0.0000 0.0000 0.0000 34.7783
#
#
#
# Elastic Compliance Matrix: (Units=1/GPa)
#
#
# Indices 1 2 3 4 5 6 
#
# 1 0.010908 -0.003911 -0.003153 0.000000 0.000000 0.000000
# 2 -0.003911 0.007959 -0.005499 0.000000 0.000000 0.000000
# 3 -0.003153 -0.005499 0.027479 0.000000 0.000000 0.000000
# 4 0.000000 0.000000 0.000000 -0.363295 0.000000 0.000000
# 5 0.000000 0.000000 0.000000 0.000000 0.065619 0.000000
# 6 0.000000 0.000000 0.000000 0.000000 0.000000 0.028754
#
#
# Mechanical properties :
#
#
# Convention : Reuss Voigt Hill
#
# Bulk Modulus (GPa) = 47.12485 81.11452 64.11969
# Shear Modulus (GPa) = -26.26369 23.81441 -1.22464
#
# Velocity S-wave (km/s) = -3.73612 3.55765 -0.80677
# Velocity P-wave (km/s) = 2.53661 7.74509 5.76285
#
# Compressibility (1/GPa) = 0.02122022
#
# Stress axis : x y z
#
# Youngs Moduli (GPa) = 91.67874 125.63925 36.39129
#
# Poissons Ratio (x) = 0.49136 0.11476
# Poissons Ratio (y) = 0.35854 0.20010
# Poissons Ratio (z) = 0.28910 0.69085
#
# Static dielectric constant tensor:
#      x y z
#    x 3.593360 0.000000 0.000000 
#    y 0.000000 4.655630 0.000000 
#    z 0.000000 0.000000 2.855080 
# 
# 
# High freq. dielectric constant tensor:
#      x y z
#    x 1.746810 0.000000 0.000000 
#    y 0.000000 1.769250 0.000000 
#    z 0.000000 0.000000 1.661000 
# 
# From -- ./inp_files/29824.got.cif
#   From: 2010.03.12/outbox.cif.g09.slc.cpg/sg64_15_cif.got.tgz:29824.got - 2010.04.10 20:19:32.
