data_PCOD8262916
_publ_section_title
;
Structure prediction by ZEFSAII (Michael W. Deem and Ramdas Pophale) SiO2 
 PCOD8262916
Probable space group: C M C A
;
_chemical_formula_sum "Si O2"
_cell_formula_units_Z 104
_cell_length_a 21.063800
_cell_length_b 11.437296
_cell_length_c 21.959278
_cell_angle_alpha 90.000000
_cell_angle_beta 90.000000
_cell_angle_gamma 90.000000
_cell_volume 5290.273685
_symmetry_space_group_name_H-M "C M C A"
_symmetry_group_IT_number 64
_symmetry_cell_setting 'orthorhombic'
loop_
_space_group_symop_operation_xyz
x,y,z
-x,1/2-y,1/2+z
x,-y,-z
-x,1/2+y,1/2-z
-x,-y,-z
x,1/2+y,1/2-z
-x,y,z
x,1/2-y,1/2+z
1/2+x,1/2+y,z
1/2-x,-y,1/2+z
1/2+x,1/2-y,-z
1/2-x,y,1/2-z
1/2-x,1/2-y,-z
1/2+x,y,1/2-z
1/2-x,1/2+y,z
1/2+x,-y,1/2+z
loop_
_atom_site_type_symbol
_atom_site_label
_atom_site_fract_x
_atom_site_fract_y
_atom_site_fract_z
Si Si1 0.250000 0.453537 0.750000
Si Si2 0.324623 0.744410 0.434450
Si Si3 0.663222 0.025300 0.147634
Si Si4 0.571128 0.678765 0.278294
Si Si5 0.184527 0.308778 0.071491
Si Si6 0.140982 0.373306 0.666692
Si Si7 0.925082 0.614768 0.634233
O O1 0.285317 0.526152 0.696672
O O2 0.199577 0.374477 0.713983
O O3 0.310902 0.634771 0.390710
O O4 0.261190 0.823555 0.428182
O O5 0.337509 0.698717 0.502153
O O6 0.388051 0.817759 0.419536
O O7 0.604096 0.071182 0.186338
O O8 0.649318 0.919714 0.101696
O O9 0.500000 0.638927 0.285197
O O10 0.587548 0.691097 0.206864
O O11 0.583204 0.806508 0.305916
O O12 0.160370 0.193702 0.105927
O O13 0.112727 0.496716 0.646247
O O14 0.000000 0.595796 0.617665
#
# Coordination Sequence:
#
# PCOD8262916 Si02
#       7
#     8  16  16  16  16  16  16
#     4  10  20  34  56  86 122 150 194 250 308 362
#     4  10  22  41  61  86 123 166 206 255 308 360
#     4  10  20  38  59  88 118 158 205 252 302 370
#     4   9  21  39  60  84 120 163 199 246 306 368
#     4  11  23  37  61  92 124 158 206 259 310 362
#     4  11  22  36  57  93 120 156 202 252 309 365
#     4  10  22  43  64  84 121 167 207 247 303 371
#
# _framework density 19.658719000000001
#
# number of rings (size 3 to 8) (size 9 to 14) (size 15 to 20)
#    0.000    1.846    1.538    1.846    4.308    1.231 
#    0.000    3.846    0.000    3.692    0.000    0.000 
#    0.000    0.000    0.000    0.000    0.000    0.000 
#
# Total GULP energy -644380.894535 kJ/mol
# GULP energy per Si atom -12391.940280 kJ/mol
# Density = 1.961398 g / cm^3
# Si number density = 19.658719 Si / 1000 Ang^3
#
#
#
# Elastic Constant Matrix: (Units=GPa)
#
#
# Indices 1 2 3 4 5 6 
#
# 1 85.8564 56.1245 51.0483 0.0000 0.0000 0.0000
# 2 56.1245 57.5420 21.6456 0.0000 0.0000 0.0000
# 3 51.0483 21.6456 120.8450 0.0000 0.0000 0.0000
# 4 0.0000 0.0000 0.0000 23.3540 0.0000 0.0000
# 5 0.0000 0.0000 0.0000 0.0000 24.3270 0.0000
# 6 0.0000 0.0000 0.0000 0.0000 0.0000 12.5050
#
#
#
# Elastic Compliance Matrix: (Units=1/GPa)
#
#
# Indices 1 2 3 4 5 6 
#
# 1 0.043172 -0.037795 -0.011467 0.000000 0.000000 0.000000
# 2 -0.037795 0.051722 0.006701 0.000000 0.000000 0.000000
# 3 -0.011467 0.006701 0.011919 0.000000 0.000000 0.000000
# 4 0.000000 0.000000 0.000000 0.042819 0.000000 0.000000
# 5 0.000000 0.000000 0.000000 0.000000 0.041107 0.000000
# 6 0.000000 0.000000 0.000000 0.000000 0.000000 0.079968
#
#
# Mechanical properties :
#
#
# Convention : Reuss Voigt Hill
#
# Bulk Modulus (GPa) = 46.10263 57.98671 52.04467
# Shear Modulus (GPa) = 13.77185 21.06554 17.41869
#
# Velocity S-wave (km/s) = 2.64966 3.27702 2.97990
# Velocity P-wave (km/s) = 5.73265 6.62414 6.19445
#
# Compressibility (1/GPa) = 0.02169074
#
# Stress axis : x y z
#
# Youngs Moduli (GPa) = 23.16297 19.33417 83.90069
#
# Poissons Ratio (x) = 0.73074 0.96212
# Poissons Ratio (y) = 0.87545 -0.56225
# Poissons Ratio (z) = 0.26562 -0.12956
#
# Static dielectric constant tensor:
#      x y z
#    x 3.752320 0.000000 0.000000 
#    y 0.000000 3.344310 0.000000 
#    z 0.000000 0.000000 3.852480 
# 
# 
# High freq. dielectric constant tensor:
#      x y z
#    x 1.764510 0.000000 0.000000 
#    y 0.000000 1.751670 0.000000 
#    z 0.000000 0.000000 1.775510 
# 
# From -- ./inp_files/46325.got.cif
#   From: 2010.03.12/outbox.cif.g09.slc.cpg/sg64_24_cif.got.tgz:46325.got - 2010.04.10 20:19:32.
