data_PCOD8262532
_publ_section_title
;
Structure prediction by ZEFSAII (Michael W. Deem and Ramdas Pophale) SiO2 
 PCOD8262532
Probable space group: C M C A
;
_chemical_formula_sum "Si O2"
_cell_formula_units_Z 72
_cell_length_a 16.856054
_cell_length_b 8.949994
_cell_length_c 24.851043
_cell_angle_alpha 90.000000
_cell_angle_beta 90.000000
_cell_angle_gamma 90.000000
_cell_volume 3749.067665
_symmetry_space_group_name_H-M "C M C A"
_symmetry_group_IT_number 64
_symmetry_cell_setting 'orthorhombic'
loop_
_space_group_symop_operation_xyz
x,y,z
-x,1/2-y,1/2+z
x,-y,-z
-x,1/2+y,1/2-z
-x,-y,-z
x,1/2+y,1/2-z
-x,y,z
x,1/2-y,1/2+z
1/2+x,1/2+y,z
1/2-x,-y,1/2+z
1/2+x,1/2-y,-z
1/2-x,y,1/2-z
1/2-x,1/2-y,-z
1/2+x,y,1/2-z
1/2-x,1/2+y,z
1/2+x,-y,1/2+z
loop_
_atom_site_type_symbol
_atom_site_label
_atom_site_fract_x
_atom_site_fract_y
_atom_site_fract_z
Si Si1 0.139110 0.342672 0.991251
Si Si2 0.588187 0.622374 0.906284
Si Si3 0.807145 0.750870 0.177019
Si Si4 0.293243 0.347848 0.920165
Si Si5 0.250000 0.508180 0.250000
O O1 0.085983 0.222454 0.959985
O O2 0.218559 0.385056 0.957940
O O3 0.093319 0.500000 0.000000
O O4 0.155461 0.278100 0.050439
O O5 0.500000 0.556253 0.897086
O O6 0.611749 0.731025 0.856632
O O7 0.654489 0.495712 0.911991
O O8 0.733107 0.717601 0.137364
O O9 0.813827 0.615342 0.219677
O O10 0.795259 0.907670 0.207001
#
# Coordination Sequence:
#
# PCOD8262532 Si02
#       5
#    16  16  16  16   8
#     4  10  20  33  58  84 114 155 201 235 275 337
#     4  11  23  38  56  86 125 156 185 233 296 352
#     4  10  20  37  62  89 109 147 193 245 281 345
#     4  10  19  35  58  85 114 152 196 238 279 342
#     4  10  20  36  66  88 106 140 206 244 284 330
#
# _framework density 19.204775999999999
#
# number of rings (size 3 to 8) (size 9 to 14) (size 15 to 20)
#    0.000    1.778    2.222    4.667    3.111    2.222 
#    0.000    1.111    0.000    0.000    0.000    0.000 
#    0.000    0.000    0.000    0.000    0.000    0.000 
#
# Total GULP energy -446277.158791 kJ/mol
# GULP energy per Si atom -12396.587744 kJ/mol
# Density = 1.916107 g / cm^3
# Si number density = 19.204776 Si / 1000 Ang^3
#
#
#
# Elastic Constant Matrix: (Units=GPa)
#
#
# Indices 1 2 3 4 5 6 
#
# 1 79.8709 23.3724 23.7220 0.0000 0.0000 0.0000
# 2 23.3724 117.2366 50.4314 0.0000 0.0000 0.0000
# 3 23.7220 50.4314 109.2926 0.0000 0.0000 0.0000
# 4 0.0000 0.0000 0.0000 41.1818 0.0000 0.0000
# 5 0.0000 0.0000 0.0000 0.0000 8.0335 0.0000
# 6 0.0000 0.0000 0.0000 0.0000 0.0000 13.8479
#
#
#
# Elastic Compliance Matrix: (Units=1/GPa)
#
#
# Indices 1 2 3 4 5 6 
#
# 1 0.013684 -0.001810 -0.002135 0.000000 0.000000 0.000000
# 2 -0.001810 0.010881 -0.004628 0.000000 0.000000 0.000000
# 3 -0.002135 -0.004628 0.011749 0.000000 0.000000 0.000000
# 4 0.000000 0.000000 0.000000 0.024283 0.000000 0.000000
# 5 0.000000 0.000000 0.000000 0.000000 0.124479 0.000000
# 6 0.000000 0.000000 0.000000 0.000000 0.000000 0.072213
#
#
# Mechanical properties :
#
#
# Convention : Reuss Voigt Hill
#
# Bulk Modulus (GPa) = 52.16973 55.71686 53.94330
# Shear Modulus (GPa) = 17.80472 26.53758 22.17115
#
# Velocity S-wave (km/s) = 3.04813 3.72132 3.40142
# Velocity P-wave (km/s) = 6.29381 6.89487 6.60119
#
# Compressibility (1/GPa) = 0.01916820
#
# Stress axis : x y z
#
# Youngs Moduli (GPa) = 73.07876 91.89928 85.11479
#
# Poissons Ratio (x) = 0.16630 0.18173
# Poissons Ratio (y) = 0.13224 0.39394
# Poissons Ratio (z) = 0.15603 0.42534
#
# Static dielectric constant tensor:
#      x y z
#    x 3.037040 0.000000 0.000000 
#    y 0.000000 3.656960 0.000000 
#    z 0.000000 0.000000 3.813500 
# 
# 
# High freq. dielectric constant tensor:
#      x y z
#    x 1.692840 0.000000 0.000000 
#    y 0.000000 1.764630 0.000000 
#    z 0.000000 0.000000 1.759500 
# 
# From -- ./inp_files/45641.got.cif
#   From: 2010.03.12/outbox.cif.g09.slc.cpg/sg64_23_cif.got.tgz:45641.got - 2010.04.10 20:19:32.
