data_PCOD8262549
_publ_section_title
;
Structure prediction by ZEFSAII (Michael W. Deem and Ramdas Pophale) SiO2 
 PCOD8262549
Probable space group: C M C A
;
_chemical_formula_sum "Si O2"
_cell_formula_units_Z 96
_cell_length_a 8.712169
_cell_length_b 19.879736
_cell_length_c 27.928476
_cell_angle_alpha 90.000000
_cell_angle_beta 90.000000
_cell_angle_gamma 90.000000
_cell_volume 4837.089708
_symmetry_space_group_name_H-M "C M C A"
_symmetry_group_IT_number 64
_symmetry_cell_setting 'orthorhombic'
loop_
_space_group_symop_operation_xyz
x,y,z
-x,1/2-y,1/2+z
x,-y,-z
-x,1/2+y,1/2-z
-x,-y,-z
x,1/2+y,1/2-z
-x,y,z
x,1/2-y,1/2+z
1/2+x,1/2+y,z
1/2-x,-y,1/2+z
1/2+x,1/2-y,-z
1/2-x,y,1/2-z
1/2-x,1/2-y,-z
1/2+x,y,1/2-z
1/2-x,1/2+y,z
1/2+x,-y,1/2+z
loop_
_atom_site_type_symbol
_atom_site_label
_atom_site_fract_x
_atom_site_fract_y
_atom_site_fract_z
Si Si1 0.680448 0.297408 0.798650
Si Si2 0.178498 0.352679 0.953570
Si Si3 0.817734 0.233361 0.603468
Si Si4 0.321740 0.485604 0.603854
Si Si5 0.181291 0.890580 0.054502
Si Si6 0.681763 0.048249 0.299375
O O1 0.500000 0.292785 0.794641
O O2 0.750000 0.266365 0.750000
O O3 0.741269 0.255631 0.844087
O O4 0.733741 0.374365 0.804794
O O5 0.258150 0.284505 0.936632
O O6 0.206174 0.409895 0.914042
O O7 0.000000 0.338544 0.962199
O O8 0.252787 0.375059 0.002772
O O9 0.749527 0.160133 0.593812
O O10 0.000000 0.231479 0.600992
O O11 0.500000 0.505262 0.603149
O O12 0.230196 0.534460 0.568588
O O13 0.255854 0.493339 0.657269
O O14 0.000000 0.884401 0.053348
O O15 0.500000 0.039314 0.300253
O O16 0.750000 0.018792 0.250000
#
# Coordination Sequence:
#
# PCOD8262549 Si02
#       6
#    16  16  16  16  16  16
#     4   9  19  34  58  88 118 151 190 238 289 343
#     4  11  23  40  63  89 117 154 200 247 295 351
#     4  11  22  40  62  88 121 157 198 244 294 351
#     4  11  23  40  62  89 120 156 198 246 297 351
#     4  12  26  41  59  85 120 160 199 245 299 356
#     4  10  19  35  59  90 121 153 195 241 294 347
#
# _framework density 19.846644000000001
#
# number of rings (size 3 to 8) (size 9 to 14) (size 15 to 20)
#    0.000    1.333    1.667    4.500    0.000    6.000 
#    0.000    0.833    0.000    2.000    0.000    0.000 
#    0.000    0.000    0.000    0.000    0.000    0.000 
#
# Total GULP energy -595496.137895 kJ/mol
# GULP energy per Si atom -12406.169539 kJ/mol
# Density = 1.980147 g / cm^3
# Si number density = 19.846644 Si / 1000 Ang^3
#
#
#
# Elastic Constant Matrix: (Units=GPa)
#
#
# Indices 1 2 3 4 5 6 
#
# 1 104.6832 24.3463 39.7337 0.0000 0.0000 0.0000
# 2 24.3463 42.8475 3.5475 0.0000 0.0000 0.0000
# 3 39.7337 3.5475 116.6531 0.0000 0.0000 0.0000
# 4 0.0000 0.0000 0.0000 9.4887 0.0000 0.0000
# 5 0.0000 0.0000 0.0000 0.0000 39.0332 0.0000
# 6 0.0000 0.0000 0.0000 0.0000 0.0000 32.0474
#
#
#
# Elastic Compliance Matrix: (Units=1/GPa)
#
#
# Indices 1 2 3 4 5 6 
#
# 1 0.012719 -0.006886 -0.004123 0.000000 0.000000 0.000000
# 2 -0.006886 0.027125 0.001520 0.000000 0.000000 0.000000
# 3 -0.004123 0.001520 0.009930 0.000000 0.000000 0.000000
# 4 0.000000 0.000000 0.000000 0.105389 0.000000 0.000000
# 5 0.000000 0.000000 0.000000 0.000000 0.025619 0.000000
# 6 0.000000 0.000000 0.000000 0.000000 0.000000 0.031204
#
#
# Mechanical properties :
#
#
# Convention : Reuss Voigt Hill
#
# Bulk Modulus (GPa) = 32.46910 44.38208 38.42559
# Shear Modulus (GPa) = 20.72722 29.21760 24.97241
#
# Velocity S-wave (km/s) = 3.23518 3.84105 3.55106
# Velocity P-wave (km/s) = 5.50914 6.48711 6.01802
#
# Compressibility (1/GPa) = 0.03079852
#
# Stress axis : x y z
#
# Youngs Moduli (GPa) = 78.62320 36.86612 100.69997
#
# Poissons Ratio (x) = 0.25385 0.41517
# Poissons Ratio (y) = 0.54137 -0.15311
# Poissons Ratio (z) = 0.32415 -0.05605
#
# Static dielectric constant tensor:
#      x y z
#    x 3.654280 0.000000 0.000000 
#    y 0.000000 3.541240 0.000000 
#    z 0.000000 0.000000 3.823660 
# 
# 
# High freq. dielectric constant tensor:
#      x y z
#    x 1.784900 0.000000 0.000000 
#    y 0.000000 1.755860 0.000000 
#    z 0.000000 0.000000 1.790230 
# 
# From -- ./inp_files/48066.got.cif
#   From: 2010.03.12/outbox.cif.g09.slc.cpg/sg64_25_cif.got.tgz:48066.got - 2010.04.10 20:19:32.
