data_PCOD8262402
_publ_section_title
;
Structure prediction by ZEFSAII (Michael W. Deem and Ramdas Pophale) SiO2 
 PCOD8262402
Probable space group: C M C A
;
_chemical_formula_sum "Si O2"
_cell_formula_units_Z 96
_cell_length_a 25.030032
_cell_length_b 9.776612
_cell_length_c 22.877824
_cell_angle_alpha 90.000000
_cell_angle_beta 90.000000
_cell_angle_gamma 90.000000
_cell_volume 5598.407402
_symmetry_space_group_name_H-M "C M C A"
_symmetry_group_IT_number 64
_symmetry_cell_setting 'orthorhombic'
loop_
_space_group_symop_operation_xyz
x,y,z
-x,1/2-y,1/2+z
x,-y,-z
-x,1/2+y,1/2-z
-x,-y,-z
x,1/2+y,1/2-z
-x,y,z
x,1/2-y,1/2+z
1/2+x,1/2+y,z
1/2-x,-y,1/2+z
1/2+x,1/2-y,-z
1/2-x,y,1/2-z
1/2-x,1/2-y,-z
1/2+x,y,1/2-z
1/2-x,1/2+y,z
1/2+x,-y,1/2+z
loop_
_atom_site_type_symbol
_atom_site_label
_atom_site_fract_x
_atom_site_fract_y
_atom_site_fract_z
Si Si1 0.701430 0.161571 0.565614
Si Si2 0.295263 0.146628 0.431283
Si Si3 0.059727 0.849508 0.498796
Si Si4 0.000000 0.330170 0.689698
Si Si5 0.084670 0.338285 0.397849
Si Si6 0.590851 0.148690 0.400646
Si Si7 0.500000 0.142964 0.698632
O O1 0.688132 0.192520 0.497392
O O2 0.746678 0.261109 0.591432
O O3 0.648498 0.185310 0.604982
O O4 0.724592 0.009245 0.570105
O O5 0.345712 0.156248 0.386562
O O6 0.058949 0.776305 0.561313
O O7 0.088187 0.749581 0.454634
O O8 0.000000 0.872034 0.475939
O O9 0.087893 0.000000 0.500000
O O10 0.946338 0.302186 0.652252
O O11 0.000000 0.224376 0.741773
O O12 0.000000 0.483040 0.714677
O O13 0.074217 0.494339 0.420209
O O14 0.054569 0.320599 0.336087
#
# Coordination Sequence:
#
# PCOD8262402 Si02
#       7
#    16  16  16   8  16  16   8
#     4   9  17  29  47  73 104 135 167 201 239 295
#     4   9  17  29  47  73 104 135 167 201 239 295
#     4  11  21  29  44  77 110 133 160 206 257 300
#     4  10  22  37  56  75  97 130 172 218 259 302
#     4  10  19  34  54  73  99 140 175 200 245 313
#     4  10  19  34  54  73  99 140 175 200 245 313
#     4  10  22  37  56  75  97 130 172 218 259 302
#
# _framework density 17.147734
#
# number of rings (size 3 to 8) (size 9 to 14) (size 15 to 20)
#    0.000    2.167    3.333    0.500    0.000    3.333 
#    0.000    0.000    0.000    1.000    0.000    7.000 
#    0.000    0.000    0.000    0.000    0.000    0.000 
#
# Total GULP energy -594856.958890 kJ/mol
# GULP energy per Si atom -12392.853310 kJ/mol
# Density = 1.710871 g / cm^3
# Si number density = 17.147734 Si / 1000 Ang^3
#
#
#
# Elastic Constant Matrix: (Units=GPa)
#
#
# Indices 1 2 3 4 5 6 
#
# 1 122.6995 43.2849 34.8069 0.0000 0.0000 0.0000
# 2 43.2849 79.4416 31.0054 0.0000 0.0000 0.0000
# 3 34.8069 31.0054 51.1465 0.0000 0.0000 0.0000
# 4 0.0000 0.0000 0.0000 27.5335 0.0000 0.0000
# 5 0.0000 0.0000 0.0000 0.0000 12.2061 0.0000
# 6 0.0000 0.0000 0.0000 0.0000 0.0000 28.1898
#
#
#
# Elastic Compliance Matrix: (Units=1/GPa)
#
#
# Indices 1 2 3 4 5 6 
#
# 1 0.011001 -0.004024 -0.005047 0.000000 0.000000 0.000000
# 2 -0.004024 0.017961 -0.008150 0.000000 0.000000 0.000000
# 3 -0.005047 -0.008150 0.027927 0.000000 0.000000 0.000000
# 4 0.000000 0.000000 0.000000 0.036319 0.000000 0.000000
# 5 0.000000 0.000000 0.000000 0.000000 0.081926 0.000000
# 6 0.000000 0.000000 0.000000 0.000000 0.000000 0.035474
#
#
# Mechanical properties :
#
#
# Convention : Reuss Voigt Hill
#
# Bulk Modulus (GPa) = 44.54897 52.38690 48.46794
# Shear Modulus (GPa) = 19.79930 23.19856 21.49893
#
# Velocity S-wave (km/s) = 3.40167 3.68212 3.54467
# Velocity P-wave (km/s) = 6.43929 6.97811 6.71411
#
# Compressibility (1/GPa) = 0.02244721
#
# Stress axis : x y z
#
# Youngs Moduli (GPa) = 90.89696 55.67518 35.80785
#
# Poissons Ratio (x) = 0.22406 0.18073
# Poissons Ratio (y) = 0.36581 0.29182
# Poissons Ratio (z) = 0.45878 0.45373
#
# Static dielectric constant tensor:
#      x y z
#    x 3.320390 0.000000 0.000000 
#    y 0.000000 3.377050 0.000000 
#    z 0.000000 0.000000 2.718130 
# 
# 
# High freq. dielectric constant tensor:
#      x y z
#    x 1.669700 0.000000 0.000000 
#    y 0.000000 1.672980 0.000000 
#    z 0.000000 0.000000 1.601860 
# 
# From -- ./inp_files/46868.got.cif
#   From: 2010.03.12/outbox.cif.g09.slc.cpg/sg64_24_cif.got.tgz:46868.got - 2010.04.10 20:19:32.
