data_PCOD8262628
_publ_section_title
;
Structure prediction by ZEFSAII (Michael W. Deem and Ramdas Pophale) SiO2 
 PCOD8262628
Probable space group: C M C A
;
_chemical_formula_sum "Si O2"
_cell_formula_units_Z 80
_cell_length_a 20.964149
_cell_length_b 21.008411
_cell_length_c 10.148919
_cell_angle_alpha 90.000000
_cell_angle_beta 90.000000
_cell_angle_gamma 90.000000
_cell_volume 4469.822006
_symmetry_space_group_name_H-M "C M C A"
_symmetry_group_IT_number 64
_symmetry_cell_setting 'orthorhombic'
loop_
_space_group_symop_operation_xyz
x,y,z
-x,1/2-y,1/2+z
x,-y,-z
-x,1/2+y,1/2-z
-x,-y,-z
x,1/2+y,1/2-z
-x,y,z
x,1/2-y,1/2+z
1/2+x,1/2+y,z
1/2-x,-y,1/2+z
1/2+x,1/2-y,-z
1/2-x,y,1/2-z
1/2-x,1/2-y,-z
1/2+x,y,1/2-z
1/2-x,1/2+y,z
1/2+x,-y,1/2+z
loop_
_atom_site_type_symbol
_atom_site_label
_atom_site_fract_x
_atom_site_fract_y
_atom_site_fract_z
Si Si1 0.000000 0.298959 0.987851
Si Si2 0.871432 0.135202 0.480483
Si Si3 0.000000 0.679859 0.707957
Si Si4 0.750000 0.052118 0.750000
Si Si5 0.138558 0.852017 0.223181
Si Si6 0.816866 0.000000 0.500000
Si Si7 0.207812 0.237770 0.375573
O O1 0.058044 0.343610 0.942981
O O2 0.000000 0.232810 0.907420
O O3 0.000000 0.286380 0.146634
O O4 0.852685 0.163564 0.622909
O O5 0.822985 0.167781 0.378007
O O6 0.863720 0.059404 0.476020
O O7 0.937039 0.634034 0.695371
O O8 0.810287 0.092290 0.807920
O O9 0.772762 0.009003 0.628289
O O10 0.152788 0.791034 0.132615
O O11 0.250000 0.245274 0.250000
O O12 0.250000 0.250000 0.500000
#
# Coordination Sequence:
#
# PCOD8262628 Si02
#       7
#     8  16   8   8  16   8  16
#     4  10  20  35  56  82 112 147 180 222 280 340
#     4  10  21  36  55  80 111 146 185 227 274 327
#     4  10  20  34  56  83 114 147 176 224 288 348
#     4  10  20  40  58  80 108 148 190 232 274 330
#     4  10  19  37  56  80 116 144 176 230 291 337
#     4  10  22  39  54  79 110 148 192 226 268 324
#     4  12  20  31  53  83 109 139 177 232 287 328
#
# _framework density 17.897804000000001
#
# number of rings (size 3 to 8) (size 9 to 14) (size 15 to 20)
#    0.000    1.600    5.000    1.200    1.400    0.400 
#    0.000    1.000    0.000    0.600    0.000    0.000 
#    0.000    0.000    0.000    0.000    0.000    0.000 
#
# Total GULP energy -495688.451294 kJ/mol
# GULP energy per Si atom -12392.211282 kJ/mol
# Density = 1.785707 g / cm^3
# Si number density = 17.897804 Si / 1000 Ang^3
#
#
#
# Elastic Constant Matrix: (Units=GPa)
#
#
# Indices 1 2 3 4 5 6 
#
# 1 127.9107 45.3306 34.9311 0.0000 0.0000 0.0000
# 2 45.3306 94.1384 30.0706 0.0000 0.0000 0.0000
# 3 34.9311 30.0706 68.5946 0.0000 0.0000 0.0000
# 4 0.0000 0.0000 0.0000 30.5103 0.0000 0.0000
# 5 0.0000 0.0000 0.0000 0.0000 17.3420 0.0000
# 6 0.0000 0.0000 0.0000 0.0000 0.0000 27.0685
#
#
#
# Elastic Compliance Matrix: (Units=1/GPa)
#
#
# Indices 1 2 3 4 5 6 
#
# 1 0.010102 -0.003746 -0.003502 0.000000 0.000000 0.000000
# 2 -0.003746 0.013741 -0.004116 0.000000 0.000000 0.000000
# 3 -0.003502 -0.004116 0.018166 0.000000 0.000000 0.000000
# 4 0.000000 0.000000 0.000000 0.032776 0.000000 0.000000
# 5 0.000000 0.000000 0.000000 0.000000 0.057663 0.000000
# 6 0.000000 0.000000 0.000000 0.000000 0.000000 0.036943
#
#
# Mechanical properties :
#
#
# Convention : Reuss Voigt Hill
#
# Bulk Modulus (GPa) = 51.86498 56.81203 54.33850
# Shear Modulus (GPa) = 25.18289 27.00494 26.09391
#
# Velocity S-wave (km/s) = 3.75512 3.88859 3.82244
# Velocity P-wave (km/s) = 6.91683 7.20922 7.06454
#
# Compressibility (1/GPa) = 0.01928083
#
# Stress axis : x y z
#
# Youngs Moduli (GPa) = 98.99227 72.77377 55.04653
#
# Poissons Ratio (x) = 0.27258 0.19279
# Poissons Ratio (y) = 0.37079 0.22660
# Poissons Ratio (z) = 0.34669 0.29957
#
# Static dielectric constant tensor:
#      x y z
#    x 3.691770 0.000000 0.000000 
#    y 0.000000 3.115960 0.000000 
#    z 0.000000 0.000000 3.278620 
# 
# 
# High freq. dielectric constant tensor:
#      x y z
#    x 1.712900 0.000000 0.000000 
#    y 0.000000 1.667310 0.000000 
#    z 0.000000 0.000000 1.685750 
# 
# From -- ./inp_files/9301.got.cif
#   From: 2010.03.12/outbox.cif.g09.slc.cpg/sg64_5_cif.got.tgz:9301.got - 2010.04.10 20:19:32.
