data_PCOD8262521
_publ_section_title
;
Structure prediction by ZEFSAII (Michael W. Deem and Ramdas Pophale) SiO2 
 PCOD8262521
Probable space group: C M C A
;
_chemical_formula_sum "Si O2"
_cell_formula_units_Z 64
_cell_length_a 16.014348
_cell_length_b 14.767741
_cell_length_c 14.103144
_cell_angle_alpha 90.000000
_cell_angle_beta 90.000000
_cell_angle_gamma 90.000000
_cell_volume 3335.333527
_symmetry_space_group_name_H-M "C M C A"
_symmetry_group_IT_number 64
_symmetry_cell_setting 'orthorhombic'
loop_
_space_group_symop_operation_xyz
x,y,z
-x,1/2-y,1/2+z
x,-y,-z
-x,1/2+y,1/2-z
-x,-y,-z
x,1/2+y,1/2-z
-x,y,z
x,1/2-y,1/2+z
1/2+x,1/2+y,z
1/2-x,-y,1/2+z
1/2+x,1/2-y,-z
1/2-x,y,1/2-z
1/2-x,1/2-y,-z
1/2+x,y,1/2-z
1/2-x,1/2+y,z
1/2+x,-y,1/2+z
loop_
_atom_site_type_symbol
_atom_site_label
_atom_site_fract_x
_atom_site_fract_y
_atom_site_fract_z
Si Si1 0.258960 0.397234 0.523418
Si Si2 0.163356 0.446429 0.696350
Si Si3 0.093886 0.174026 0.352635
Si Si4 0.818161 0.853962 0.169626
O O1 0.282897 0.500000 0.500000
O O2 0.181559 0.394236 0.597840
O O3 0.342722 0.352866 0.564436
O O4 0.230231 0.343902 0.430335
O O5 0.250000 0.454732 0.750000
O O6 0.098558 0.391581 0.760626
O O7 0.133452 0.549670 0.677208
O O8 0.112913 0.276197 0.319826
O O9 0.000000 0.168441 0.392502
O O10 0.750000 0.838647 0.250000
#
# Coordination Sequence:
#
# PCOD8262521 Si02
#       4
#    16  16  16  16
#     4   9  18  36  59  78 100 138 184 221 257 311
#     4   8  17  35  56  76 101 137 179 218 257 308
#     4  11  22  34  52  82 114 138 168 218 273 317
#     4  10  19  35  58  78 102 143 186 218 253 312
#
# _framework density 19.188486000000001
#
# number of rings (size 3 to 8) (size 9 to 14) (size 15 to 20)
#    0.000    2.500    0.000    4.500    0.000    1.500 
#    0.000    5.000    0.000    4.500    0.000    0.000 
#    0.000    0.000    0.000    0.000    0.000    0.000 
#
# Total GULP energy -396746.454057 kJ/mol
# GULP energy per Si atom -12398.326689 kJ/mol
# Density = 1.914481 g / cm^3
# Si number density = 19.188486 Si / 1000 Ang^3
#
#
#
# Elastic Constant Matrix: (Units=GPa)
#
#
# Indices 1 2 3 4 5 6 
#
# 1 74.1892 49.9987 25.1885 0.0000 0.0000 0.0000
# 2 49.9987 103.1993 40.1643 0.0000 0.0000 0.0000
# 3 25.1885 40.1643 118.8014 0.0000 0.0000 0.0000
# 4 0.0000 0.0000 0.0000 17.7045 0.0000 0.0000
# 5 0.0000 0.0000 0.0000 0.0000 14.4272 0.0000
# 6 0.0000 0.0000 0.0000 0.0000 0.0000 -0.6911
#
#
#
# Elastic Compliance Matrix: (Units=1/GPa)
#
#
# Indices 1 2 3 4 5 6 
#
# 1 0.020142 -0.009323 -0.001119 0.000000 0.000000 0.000000
# 2 -0.009323 0.015474 -0.003255 0.000000 0.000000 0.000000
# 3 -0.001119 -0.003255 0.009755 0.000000 0.000000 0.000000
# 4 0.000000 0.000000 0.000000 0.056483 0.000000 0.000000
# 5 0.000000 0.000000 0.000000 0.000000 0.069314 0.000000
# 6 0.000000 0.000000 0.000000 0.000000 0.000000 -1.447007
#
#
# Mechanical properties :
#
#
# Convention : Reuss Voigt Hill
#
# Bulk Modulus (GPa) = 55.62413 58.54367 57.08390
# Shear Modulus (GPa) = -4.02429 18.34401 7.15986
#
# Velocity S-wave (km/s) = -1.44976 3.09526 1.93376
# Velocity P-wave (km/s) = 5.12336 6.58409 5.89911
#
# Compressibility (1/GPa) = 0.01797781
#
# Stress axis : x y z
#
# Youngs Moduli (GPa) = 49.64733 64.62609 102.51283
#
# Poissons Ratio (x) = 0.60252 0.11467
# Poissons Ratio (y) = 0.46287 0.33364
# Poissons Ratio (z) = 0.05553 0.21033
#
# Static dielectric constant tensor:
#      x y z
#    x 2.993840 0.000000 0.000000 
#    y 0.000000 3.790890 0.000000 
#    z 0.000000 0.000000 3.964060 
# 
# 
# High freq. dielectric constant tensor:
#      x y z
#    x 1.696260 0.000000 0.000000 
#    y 0.000000 1.764980 0.000000 
#    z 0.000000 0.000000 1.755360 
# 
# From -- ./inp_files/23220.got.cif
#   From: 2010.03.12/outbox.cif.g09.slc.cpg/sg64_12_cif.got.tgz:23220.got - 2010.04.10 20:19:32.
