data_PCOD8262522
_publ_section_title
;
Structure prediction by ZEFSAII (Michael W. Deem and Ramdas Pophale) SiO2 
 PCOD8262522
Probable space group: C M C A
;
_chemical_formula_sum "Si O2"
_cell_formula_units_Z 64
_cell_length_a 18.565299
_cell_length_b 14.840567
_cell_length_c 13.618880
_cell_angle_alpha 90.000000
_cell_angle_beta 90.000000
_cell_angle_gamma 90.000000
_cell_volume 3752.267875
_symmetry_space_group_name_H-M "C M C A"
_symmetry_group_IT_number 64
_symmetry_cell_setting 'orthorhombic'
loop_
_space_group_symop_operation_xyz
x,y,z
-x,1/2-y,1/2+z
x,-y,-z
-x,1/2+y,1/2-z
-x,-y,-z
x,1/2+y,1/2-z
-x,y,z
x,1/2-y,1/2+z
1/2+x,1/2+y,z
1/2-x,-y,1/2+z
1/2+x,1/2-y,-z
1/2-x,y,1/2-z
1/2-x,1/2-y,-z
1/2+x,y,1/2-z
1/2-x,1/2+y,z
1/2+x,-y,1/2+z
loop_
_atom_site_type_symbol
_atom_site_label
_atom_site_fract_x
_atom_site_fract_y
_atom_site_fract_z
Si Si1 0.819405 0.188424 0.497137
Si Si2 0.820572 0.089205 0.310173
Si Si3 0.330019 0.382705 0.288065
Si Si4 0.085043 0.247949 0.336503
O O1 0.750000 0.250000 0.500000
O O2 0.803327 0.102042 0.426546
O O3 0.842091 0.155489 0.603665
O O4 0.885154 0.245900 0.448788
O O5 0.750000 0.115713 0.250000
O O6 0.883281 0.160038 0.278981
O O7 0.846185 0.988716 0.287217
O O8 0.250000 0.360787 0.250000
O O9 0.388004 0.338537 0.216055
O O10 0.000000 0.245070 0.336611
#
# Coordination Sequence:
#
# PCOD8262522 Si02
#       4
#    16  16  16  16
#     4  10  19  35  58  80 116 146 192 232 280 343
#     4   9  20  35  58  87 112 145 197 230 282 342
#     4  11  19  36  60  86 109 153 191 238 288 337
#     4  10  22  36  54  85 117 148 186 234 291 340
#
# _framework density 17.056350999999999
#
# number of rings (size 3 to 8) (size 9 to 14) (size 15 to 20)
#    1.500    0.500    2.500    3.000    0.000    2.000 
#    0.000    1.250    0.000    0.000    0.000    7.000 
#    0.000    0.000    0.000    0.000    0.000    0.000 
#
# Total GULP energy -396561.445940 kJ/mol
# GULP energy per Si atom -12392.545186 kJ/mol
# Density = 1.701753 g / cm^3
# Si number density = 17.056351 Si / 1000 Ang^3
#
#
#
# Elastic Constant Matrix: (Units=GPa)
#
#
# Indices 1 2 3 4 5 6 
#
# 1 143.1882 65.4790 36.5439 0.0000 0.0000 0.0000
# 2 65.4790 109.6015 38.2485 0.0000 0.0000 0.0000
# 3 36.5439 38.2485 96.4481 0.0000 0.0000 0.0000
# 4 0.0000 0.0000 0.0000 25.9665 0.0000 0.0000
# 5 0.0000 0.0000 0.0000 0.0000 24.3151 0.0000
# 6 0.0000 0.0000 0.0000 0.0000 0.0000 15.0428
#
#
#
# Elastic Compliance Matrix: (Units=1/GPa)
#
#
# Indices 1 2 3 4 5 6 
#
# 1 0.009822 -0.005303 -0.001618 0.000000 0.000000 0.000000
# 2 -0.005303 0.013453 -0.003326 0.000000 0.000000 0.000000
# 3 -0.001618 -0.003326 0.012300 0.000000 0.000000 0.000000
# 4 0.000000 0.000000 0.000000 0.038511 0.000000 0.000000
# 5 0.000000 0.000000 0.000000 0.000000 0.041127 0.000000
# 6 0.000000 0.000000 0.000000 0.000000 0.000000 0.066477
#
#
# Mechanical properties :
#
#
# Convention : Reuss Voigt Hill
#
# Bulk Modulus (GPa) = 66.31007 69.97562 68.14285
# Shear Modulus (GPa) = 24.12998 26.99598 25.56298
#
# Velocity S-wave (km/s) = 3.76536 3.98270 3.87555
# Velocity P-wave (km/s) = 7.60693 7.89078 7.75015
#
# Compressibility (1/GPa) = 0.01508066
#
# Stress axis : x y z
#
# Youngs Moduli (GPa) = 101.81288 74.33421 81.29855
#
# Poissons Ratio (x) = 0.39420 0.13158
# Poissons Ratio (y) = 0.53992 0.27037
# Poissons Ratio (z) = 0.16478 0.24721
#
# Static dielectric constant tensor:
#      x y z
#    x 2.913720 0.000000 0.000000 
#    y 0.000000 3.204440 0.000000 
#    z 0.000000 0.000000 3.356130 
# 
# 
# High freq. dielectric constant tensor:
#      x y z
#    x 1.637990 0.000000 0.000000 
#    y 0.000000 1.660920 0.000000 
#    z 0.000000 0.000000 1.658440 
# 
# From -- ./inp_files/15465.got.cif
#   From: 2010.03.12/outbox.cif.g09.slc.cpg/sg64_8_cif.got.tgz:15465.got - 2010.04.10 20:19:32.
