data_PCOD8262941
_publ_section_title
;
Structure prediction by ZEFSAII (Michael W. Deem and Ramdas Pophale) SiO2 
 PCOD8262941
Probable space group: C M C A
;
_chemical_formula_sum "Si O2"
_cell_formula_units_Z 96
_cell_length_a 20.637759
_cell_length_b 13.476403
_cell_length_c 15.574416
_cell_angle_alpha 90.000000
_cell_angle_beta 90.000000
_cell_angle_gamma 90.000000
_cell_volume 4331.599521
_symmetry_space_group_name_H-M "C M C A"
_symmetry_group_IT_number 64
_symmetry_cell_setting 'orthorhombic'
loop_
_space_group_symop_operation_xyz
x,y,z
-x,1/2-y,1/2+z
x,-y,-z
-x,1/2+y,1/2-z
-x,-y,-z
x,1/2+y,1/2-z
-x,y,z
x,1/2-y,1/2+z
1/2+x,1/2+y,z
1/2-x,-y,1/2+z
1/2+x,1/2-y,-z
1/2-x,y,1/2-z
1/2-x,1/2-y,-z
1/2+x,y,1/2-z
1/2-x,1/2+y,z
1/2+x,-y,1/2+z
loop_
_atom_site_type_symbol
_atom_site_label
_atom_site_fract_x
_atom_site_fract_y
_atom_site_fract_z
Si Si1 0.899356 0.107623 0.518764
Si Si2 0.188395 0.550475 0.688113
Si Si3 0.927370 0.648176 0.164105
Si Si4 0.228261 0.824073 0.428601
Si Si5 0.181354 0.171513 0.205282
Si Si6 0.929009 0.581572 0.799978
O O1 0.916832 0.177683 0.436835
O O2 0.821560 0.098577 0.529006
O O3 0.927836 0.145197 0.610763
O O4 0.929253 0.000000 0.500000
O O5 0.250000 0.550220 0.750000
O O6 0.209502 0.616260 0.606588
O O7 0.168787 0.437393 0.662276
O O8 0.127715 0.607648 0.732303
O O9 0.875589 0.700657 0.227048
O O10 0.915479 0.531420 0.172651
O O11 0.000000 0.679806 0.192401
O O12 0.250000 0.750000 0.500000
O O13 0.185568 0.760790 0.361264
O O14 0.250000 0.165451 0.250000
O O15 0.000000 0.595253 0.756620
#
# Coordination Sequence:
#
# PCOD8262941 Si02
#       6
#    16  16  16  16  16  16
#     4  10  20  34  58  89 121 154 198 244 299 357
#     4  10  20  38  61  87 119 158 204 250 297 362
#     4   9  18  36  61  89 122 158 198 246 299 361
#     4  12  25  36  60  86 124 158 203 256 303 357
#     4  10  22  38  61  88 120 159 201 248 303 360
#     4   9  17  33  61  91 118 157 200 246 301 358
#
# _framework density 22.162714000000001
#
# number of rings (size 3 to 8) (size 9 to 14) (size 15 to 20)
#    0.000    2.000    1.667    2.000    4.667    2.000 
#    0.000    1.667    0.000    2.000    0.000    4.667 
#    0.000    0.000    0.000    0.000    0.000    0.000 
#
# Total GULP energy -594680.964556 kJ/mol
# GULP energy per Si atom -12389.186762 kJ/mol
# Density = 2.211227 g / cm^3
# Si number density = 22.162714 Si / 1000 Ang^3
#
#
#
# Elastic Constant Matrix: (Units=GPa)
#
#
# Indices 1 2 3 4 5 6 
#
# 1 167.9421 5.6486 45.8209 0.0000 0.0000 0.0000
# 2 5.6486 55.6320 16.4177 0.0000 0.0000 0.0000
# 3 45.8209 16.4177 70.6043 0.0000 0.0000 0.0000
# 4 0.0000 0.0000 0.0000 26.5328 0.0000 0.0000
# 5 0.0000 0.0000 0.0000 0.0000 36.3801 0.0000
# 6 0.0000 0.0000 0.0000 0.0000 0.0000 179.2993
#
#
#
# Elastic Compliance Matrix: (Units=1/GPa)
#
#
# Indices 1 2 3 4 5 6 
#
# 1 0.007261 0.000702 -0.004875 0.000000 0.000000 0.000000
# 2 0.000702 0.019367 -0.004959 0.000000 0.000000 0.000000
# 3 -0.004875 -0.004959 0.018481 0.000000 0.000000 0.000000
# 4 0.000000 0.000000 0.000000 0.037689 0.000000 0.000000
# 5 0.000000 0.000000 0.000000 0.000000 0.027488 0.000000
# 6 0.000000 0.000000 0.000000 0.000000 0.000000 0.005577
#
#
# Mechanical properties :
#
#
# Convention : Reuss Voigt Hill
#
# Bulk Modulus (GPa) = 37.25271 47.77251 42.51261
# Shear Modulus (GPa) = 34.94640 63.52852 49.23746
#
# Velocity S-wave (km/s) = 3.97522 5.35974 4.71854
# Velocity P-wave (km/s) = 6.15752 7.73980 6.99355
#
# Compressibility (1/GPa) = 0.02684369
#
# Stress axis : x y z
#
# Youngs Moduli (GPa) = 137.72151 51.63304 54.11090
#
# Poissons Ratio (x) = -0.03622 0.26381
# Poissons Ratio (y) = -0.09662 0.26833
# Poissons Ratio (z) = 0.67145 0.25604
#
# Static dielectric constant tensor:
#      x y z
#    x 4.409630 0.000000 0.000000 
#    y 0.000000 4.036700 0.000000 
#    z 0.000000 0.000000 3.690850 
# 
# 
# High freq. dielectric constant tensor:
#      x y z
#    x 1.875490 0.000000 0.000000 
#    y 0.000000 1.850430 0.000000 
#    z 0.000000 0.000000 1.855630 
# 
# From -- ./inp_files/26317.got.cif
#   From: 2010.03.12/outbox.cif.g09.slc.cpg/sg64_14_cif.got.tgz:26317.got - 2010.04.10 20:19:32.
