data_PCOD8262412
_publ_section_title
;
Structure prediction by ZEFSAII (Michael W. Deem and Ramdas Pophale) SiO2 
 PCOD8262412
Probable space group: C M C A
;
_chemical_formula_sum "Si O2"
_cell_formula_units_Z 88
_cell_length_a 12.649699
_cell_length_b 17.097332
_cell_length_c 22.102198
_cell_angle_alpha 90.000000
_cell_angle_beta 90.000000
_cell_angle_gamma 90.000000
_cell_volume 4780.177262
_symmetry_space_group_name_H-M "C M C A"
_symmetry_group_IT_number 64
_symmetry_cell_setting 'orthorhombic'
loop_
_space_group_symop_operation_xyz
x,y,z
-x,1/2-y,1/2+z
x,-y,-z
-x,1/2+y,1/2-z
-x,-y,-z
x,1/2+y,1/2-z
-x,y,z
x,1/2-y,1/2+z
1/2+x,1/2+y,z
1/2-x,-y,1/2+z
1/2+x,1/2-y,-z
1/2-x,y,1/2-z
1/2-x,1/2-y,-z
1/2+x,y,1/2-z
1/2-x,1/2+y,z
1/2+x,-y,1/2+z
loop_
_atom_site_type_symbol
_atom_site_label
_atom_site_fract_x
_atom_site_fract_y
_atom_site_fract_z
Si Si1 0.750000 0.524372 0.250000
Si Si2 0.278367 0.453361 0.557764
Si Si3 0.375508 0.386082 0.849035
Si Si4 0.376962 0.435365 0.350149
Si Si5 0.881553 0.289663 0.966318
Si Si6 0.810994 0.272328 0.097434
O O1 0.673264 0.581460 0.212854
O O2 0.678842 0.467710 0.290503
O O3 0.237192 0.500000 0.500000
O O4 0.173371 0.434181 0.595275
O O5 0.362395 0.503561 0.595609
O O6 0.339313 0.377232 0.535945
O O7 0.500000 0.399144 0.848018
O O8 0.345938 0.294903 0.855816
O O9 0.500000 0.422900 0.337032
O O10 0.324585 0.353562 0.368452
O O11 0.811712 0.234597 0.922751
O O12 0.000000 0.284337 0.941307
O O13 0.880219 0.263075 0.036365
#
# Coordination Sequence:
#
# PCOD8262412 Si02
#       6
#     8  16  16  16  16  16
#     4  10  24  40  58  78 106 144 202 240 266 336
#     4  10  20  33  55  88 117 145 190 226 266 341
#     4  10  21  39  57  78 112 150 182 228 286 331
#     4  11  21  37  59  82 110 148 188 239 284 319
#     4  10  19  34  54  82 121 153 178 222 275 335
#     4  10  21  34  55  85 112 143 188 223 278 346
#
# _framework density 18.409358999999998
#
# number of rings (size 3 to 8) (size 9 to 14) (size 15 to 20)
#    0.000    1.818    1.818    2.727    0.000    1.818 
#    0.000    5.455    0.000    0.000    0.000    0.000 
#    0.000    0.000    0.000    0.000    0.000    0.000 
#
# Total GULP energy -545710.519098 kJ/mol
# GULP energy per Si atom -12402.511798 kJ/mol
# Density = 1.836746 g / cm^3
# Si number density = 18.409359 Si / 1000 Ang^3
#
#
#
# Elastic Constant Matrix: (Units=GPa)
#
#
# Indices 1 2 3 4 5 6 
#
# 1 153.3190 57.9117 57.0521 0.0000 0.0000 0.0000
# 2 57.9117 124.8703 57.1413 0.0000 0.0000 0.0000
# 3 57.0521 57.1413 105.0433 0.0000 0.0000 0.0000
# 4 0.0000 0.0000 0.0000 35.6603 0.0000 0.0000
# 5 0.0000 0.0000 0.0000 0.0000 14.6990 0.0000
# 6 0.0000 0.0000 0.0000 0.0000 0.0000 15.4011
#
#
#
# Elastic Compliance Matrix: (Units=1/GPa)
#
#
# Indices 1 2 3 4 5 6 
#
# 1 0.008724 -0.002500 -0.003378 0.000000 0.000000 0.000000
# 2 -0.002500 0.011379 -0.004832 0.000000 0.000000 0.000000
# 3 -0.003378 -0.004832 0.013983 0.000000 0.000000 0.000000
# 4 0.000000 0.000000 0.000000 0.028042 0.000000 0.000000
# 5 0.000000 0.000000 0.000000 0.000000 0.068032 0.000000
# 6 0.000000 0.000000 0.000000 0.000000 0.000000 0.064930
#
#
# Mechanical properties :
#
#
# Convention : Reuss Voigt Hill
#
# Bulk Modulus (GPa) = 78.95528 80.82699 79.89114
# Shear Modulus (GPa) = 22.65185 27.22725 24.93955
#
# Velocity S-wave (km/s) = 3.51159 3.84994 3.68465
# Velocity P-wave (km/s) = 7.70866 7.98520 7.84815
#
# Compressibility (1/GPa) = 0.01266540
#
# Stress axis : x y z
#
# Youngs Moduli (GPa) = 114.63028 87.88184 71.51428
#
# Poissons Ratio (x) = 0.21970 0.24159
# Poissons Ratio (y) = 0.28657 0.34556
# Poissons Ratio (z) = 0.38724 0.42465
#
# Static dielectric constant tensor:
#      x y z
#    x 3.379980 0.000000 0.000000 
#    y 0.000000 3.505000 0.000000 
#    z 0.000000 0.000000 3.410090 
# 
# 
# High freq. dielectric constant tensor:
#      x y z
#    x 1.715270 0.000000 0.000000 
#    y 0.000000 1.724080 0.000000 
#    z 0.000000 0.000000 1.709520 
# 
# From -- ./inp_files/38081.got.cif
#   From: 2010.03.12/outbox.cif.g09.slc.cpg/sg64_20_cif.got.tgz:38081.got - 2010.04.10 20:19:32.
