data_PCOD8262911
_publ_section_title
;
Structure prediction by ZEFSAII (Michael W. Deem and Ramdas Pophale) SiO2 
 PCOD8262911
Probable space group: C M C A
;
_chemical_formula_sum "Si O2"
_cell_formula_units_Z 80
_cell_length_a 13.132696
_cell_length_b 12.238589
_cell_length_c 26.329297
_cell_angle_alpha 90.000000
_cell_angle_beta 90.000000
_cell_angle_gamma 90.000000
_cell_volume 4231.793870
_symmetry_space_group_name_H-M "C M C A"
_symmetry_group_IT_number 64
_symmetry_cell_setting 'orthorhombic'
loop_
_space_group_symop_operation_xyz
x,y,z
-x,1/2-y,1/2+z
x,-y,-z
-x,1/2+y,1/2-z
-x,-y,-z
x,1/2+y,1/2-z
-x,y,z
x,1/2-y,1/2+z
1/2+x,1/2+y,z
1/2-x,-y,1/2+z
1/2+x,1/2-y,-z
1/2-x,y,1/2-z
1/2-x,1/2-y,-z
1/2+x,y,1/2-z
1/2-x,1/2+y,z
1/2+x,-y,1/2+z
loop_
_atom_site_type_symbol
_atom_site_label
_atom_site_fract_x
_atom_site_fract_y
_atom_site_fract_z
Si Si1 0.886747 0.684702 0.279109
Si Si2 0.119313 0.371660 0.504636
Si Si3 0.614863 0.115342 0.848917
Si Si4 0.191050 0.620644 0.174726
Si Si5 0.243085 0.255490 0.419024
O O1 0.871549 0.807010 0.300147
O O2 0.864874 0.688634 0.219127
O O3 0.809748 0.605003 0.309472
O O4 0.000000 0.640611 0.289886
O O5 0.140192 0.500000 0.500000
O O6 0.159236 0.309727 0.454881
O O7 0.180975 0.327673 0.552886
O O8 0.000000 0.346560 0.511668
O O9 0.500000 0.120764 0.870034
O O10 0.689791 0.148589 0.894325
O O11 0.638342 0.994887 0.830186
O O12 0.180360 0.687930 0.122836
#
# Coordination Sequence:
#
# PCOD8262911 Si02
#       5
#    16  16  16  16  16
#     4   9  20  36  53  77 110 145 179 217 262 311
#     4  10  21  38  58  79 106 139 175 220 273 326
#     4  10  20  36  57  80 110 146 179 218 268 314
#     4  10  20  34  56  81 108 140 182 223 259 311
#     4  10  21  37  56  81 108 137 178 223 269 321
#
# _framework density 18.904512
#
# number of rings (size 3 to 8) (size 9 to 14) (size 15 to 20)
#    0.000    2.200    0.000    2.400    0.000    8.800 
#    0.000    1.000    0.000   10.200    0.000    0.000 
#    0.000    0.000    0.000    0.000    0.000    0.000 
#
# Total GULP energy -496045.774754 kJ/mol
# GULP energy per Si atom -12401.144369 kJ/mol
# Density = 1.886148 g / cm^3
# Si number density = 18.904512 Si / 1000 Ang^3
#
#
#
# Elastic Constant Matrix: (Units=GPa)
#
#
# Indices 1 2 3 4 5 6 
#
# 1 66.3633 16.4219 0.8995 0.0000 0.0000 0.0000
# 2 16.4219 73.2138 21.7523 0.0000 0.0000 0.0000
# 3 0.8995 21.7523 86.5807 0.0000 0.0000 0.0000
# 4 0.0000 0.0000 0.0000 21.8278 0.0000 0.0000
# 5 0.0000 0.0000 0.0000 0.0000 20.0292 0.0000
# 6 0.0000 0.0000 0.0000 0.0000 0.0000 32.6724
#
#
#
# Elastic Compliance Matrix: (Units=1/GPa)
#
#
# Indices 1 2 3 4 5 6 
#
# 1 0.016005 -0.003826 0.000795 0.000000 0.000000 0.000000
# 2 -0.003826 0.015675 -0.003898 0.000000 0.000000 0.000000
# 3 0.000795 -0.003898 0.012521 0.000000 0.000000 0.000000
# 4 0.000000 0.000000 0.000000 0.045813 0.000000 0.000000
# 5 0.000000 0.000000 0.000000 0.000000 0.049927 0.000000
# 6 0.000000 0.000000 0.000000 0.000000 0.000000 0.030607
#
#
# Mechanical properties :
#
#
# Convention : Reuss Voigt Hill
#
# Bulk Modulus (GPa) = 32.95786 33.81169 33.38477
# Shear Modulus (GPa) = 25.70422 27.37816 26.54119
#
# Velocity S-wave (km/s) = 3.69139 3.80970 3.75101
# Velocity P-wave (km/s) = 5.96994 6.10541 6.03806
#
# Compressibility (1/GPa) = 0.03034177
#
# Stress axis : x y z
#
# Youngs Moduli (GPa) = 62.48218 63.79565 79.86527
#
# Poissons Ratio (x) = 0.24408 -0.06349
# Poissons Ratio (y) = 0.23906 0.31135
# Poissons Ratio (z) = -0.04967 0.24870
#
# Static dielectric constant tensor:
#      x y z
#    x 3.711090 0.000000 0.000000 
#    y 0.000000 3.323560 0.000000 
#    z 0.000000 0.000000 3.536930 
# 
# 
# High freq. dielectric constant tensor:
#      x y z
#    x 1.745790 0.000000 0.000000 
#    y 0.000000 1.726140 0.000000 
#    z 0.000000 0.000000 1.740700 
# 
# From -- ./inp_files/44971.got.cif
#   From: 2010.03.12/outbox.cif.g09.slc.cpg/sg64_23_cif.got.tgz:44971.got - 2010.04.10 20:19:32.
