data_PCOD8262652
_publ_section_title
;
Structure prediction by ZEFSAII (Michael W. Deem and Ramdas Pophale) SiO2 
 PCOD8262652
Probable space group: C M C A
;
_chemical_formula_sum "Si O2"
_cell_formula_units_Z 64
_cell_length_a 16.359585
_cell_length_b 20.924771
_cell_length_c 8.665507
_cell_angle_alpha 90.000000
_cell_angle_beta 90.000000
_cell_angle_gamma 90.000000
_cell_volume 2966.381294
_symmetry_space_group_name_H-M "C M C A"
_symmetry_group_IT_number 64
_symmetry_cell_setting 'orthorhombic'
loop_
_space_group_symop_operation_xyz
x,y,z
-x,1/2-y,1/2+z
x,-y,-z
-x,1/2+y,1/2-z
-x,-y,-z
x,1/2+y,1/2-z
-x,y,z
x,1/2-y,1/2+z
1/2+x,1/2+y,z
1/2-x,-y,1/2+z
1/2+x,1/2-y,-z
1/2-x,y,1/2-z
1/2-x,1/2-y,-z
1/2+x,y,1/2-z
1/2-x,1/2+y,z
1/2+x,-y,1/2+z
loop_
_atom_site_type_symbol
_atom_site_label
_atom_site_fract_x
_atom_site_fract_y
_atom_site_fract_z
Si Si1 0.659464 0.931132 0.185972
Si Si2 0.341937 0.302461 0.813546
Si Si3 0.407742 0.685698 0.861022
Si Si4 0.338445 0.571841 0.326290
O O1 0.750000 0.927062 0.250000
O O2 0.602508 0.881947 0.275883
O O3 0.620937 0.002560 0.207141
O O4 0.665479 0.913693 0.006988
O O5 0.250000 0.296497 0.750000
O O6 0.393401 0.241419 0.762351
O O7 0.384993 0.367870 0.750494
O O8 0.343720 0.305743 0.999204
O O9 0.500000 0.689465 0.924293
O O10 0.250000 0.569925 0.250000
#
# Coordination Sequence:
#
# PCOD8262652 Si02
#       4
#    16  16  16  16
#     4  10  19  37  63  89 119 155 197 246 293 351
#     4  11  22  40  63  87 116 157 204 245 292 357
#     4  12  25  40  59  90 124 157 196 249 305 355
#     4   9  19  35  61  92 117 149 200 250 291 341
#
# _framework density 21.575108
#
# number of rings (size 3 to 8) (size 9 to 14) (size 15 to 20)
#    0.000    1.500    0.000    6.750    0.000    3.000 
#    0.000    7.500    0.000    0.000    0.000    0.000 
#    0.000    0.000    0.000    0.000    0.000    0.000 
#
# Total GULP energy -396686.975475 kJ/mol
# GULP energy per Si atom -12396.467984 kJ/mol
# Density = 2.152600 g / cm^3
# Si number density = 21.575108 Si / 1000 Ang^3
#
#
#
# Elastic Constant Matrix: (Units=GPa)
#
#
# Indices 1 2 3 4 5 6 
#
# 1 68.5821 23.9676 21.7692 0.0000 0.0000 0.0000
# 2 23.9676 168.1064 57.1212 0.0000 0.0000 0.0000
# 3 21.7692 57.1212 139.5312 0.0000 0.0000 0.0000
# 4 0.0000 0.0000 0.0000 42.5920 0.0000 0.0000
# 5 0.0000 0.0000 0.0000 0.0000 19.3292 0.0000
# 6 0.0000 0.0000 0.0000 0.0000 0.0000 0.6637
#
#
#
# Elastic Compliance Matrix: (Units=1/GPa)
#
#
# Indices 1 2 3 4 5 6 
#
# 1 0.015718 -0.001635 -0.001783 0.000000 0.000000 0.000000
# 2 -0.001635 0.007080 -0.002643 0.000000 0.000000 0.000000
# 3 -0.001783 -0.002643 0.008527 0.000000 0.000000 0.000000
# 4 0.000000 0.000000 0.000000 0.023479 0.000000 0.000000
# 5 0.000000 0.000000 0.000000 0.000000 0.051735 0.000000
# 6 0.000000 0.000000 0.000000 0.000000 0.000000 1.506629
#
#
# Mechanical properties :
#
#
# Convention : Reuss Voigt Hill
#
# Bulk Modulus (GPa) = 52.07600 64.65953 58.36776
# Shear Modulus (GPa) = 3.06430 30.74109 16.90270
#
# Velocity S-wave (km/s) = 1.19305 3.77880 2.80203
# Velocity P-wave (km/s) = 5.10757 7.00526 6.13029
#
# Compressibility (1/GPa) = 0.01920270
#
# Stress axis : x y z
#
# Youngs Moduli (GPa) = 63.61946 141.24474 117.27299
#
# Poissons Ratio (x) = 0.23097 0.20909
# Poissons Ratio (y) = 0.10403 0.30998
# Poissons Ratio (z) = 0.11343 0.37334
#
# Static dielectric constant tensor:
#      x y z
#    x 3.271050 0.000000 0.000000 
#    y 0.000000 4.914050 0.000000 
#    z 0.000000 0.000000 3.915110 
# 
# 
# High freq. dielectric constant tensor:
#      x y z
#    x 1.797880 0.000000 0.000000 
#    y 0.000000 1.879830 0.000000 
#    z 0.000000 0.000000 1.859320 
# 
# From -- ./inp_files/5584.got.cif
#   From: 2010.03.12/outbox.cif.g09.slc.cpg/sg64_3_cif.got.tgz:5584.got - 2010.04.10 20:19:32.
