data_PCOD8262502
_publ_section_title
;
Structure prediction by ZEFSAII (Michael W. Deem and Ramdas Pophale) SiO2 
 PCOD8262502
Probable space group: C M C A
;
_chemical_formula_sum "Si O2"
_cell_formula_units_Z 80
_cell_length_a 12.848283
_cell_length_b 18.551275
_cell_length_c 17.973430
_cell_angle_alpha 90.000000
_cell_angle_beta 90.000000
_cell_angle_gamma 90.000000
_cell_volume 4284.003548
_symmetry_space_group_name_H-M "C M C A"
_symmetry_group_IT_number 64
_symmetry_cell_setting 'orthorhombic'
loop_
_space_group_symop_operation_xyz
x,y,z
-x,1/2-y,1/2+z
x,-y,-z
-x,1/2+y,1/2-z
-x,-y,-z
x,1/2+y,1/2-z
-x,y,z
x,1/2-y,1/2+z
1/2+x,1/2+y,z
1/2-x,-y,1/2+z
1/2+x,1/2-y,-z
1/2-x,y,1/2-z
1/2-x,1/2-y,-z
1/2+x,y,1/2-z
1/2-x,1/2+y,z
1/2+x,-y,1/2+z
loop_
_atom_site_type_symbol
_atom_site_label
_atom_site_fract_x
_atom_site_fract_y
_atom_site_fract_z
Si Si1 0.115760 0.310982 0.815514
Si Si2 0.188805 0.442049 0.898883
Si Si3 0.116743 0.366592 0.654970
Si Si4 0.785619 0.241569 0.583985
Si Si5 0.876824 0.908733 0.438183
O O1 0.112046 0.387701 0.857131
O O2 0.151694 0.328259 0.731644
O O3 0.191337 0.255227 0.857913
O O4 0.000000 0.277344 0.816091
O O5 0.306050 0.431901 0.866798
O O6 0.150611 0.523751 0.884597
O O7 0.184990 0.421402 0.985548
O O8 0.126515 0.302766 0.594526
O O9 0.000000 0.397609 0.657670
O O10 0.750000 0.250000 0.500000
O O11 0.835295 0.163681 0.600511
O O12 0.000000 0.904728 0.452892
#
# Coordination Sequence:
#
# PCOD8262502 Si02
#       5
#    16  16  16  16  16
#     4  10  20  37  59  82 111 155 195 230 277 342
#     4  10  19  35  55  81 109 146 190 232 279 337
#     4  10  21  38  58  80 114 154 194 232 280 341
#     4  11  20  34  56  85 115 143 189 238 286 337
#     4  11  21  34  55  84 116 144 182 236 290 338
#
# _framework density 18.674121
#
# number of rings (size 3 to 8) (size 9 to 14) (size 15 to 20)
#    0.000    1.600    4.000    5.400    0.000    0.800 
#    0.000    7.000    0.000    4.800    0.000    0.000 
#    0.000    0.000    0.000    0.000    0.000    0.000 
#
# Total GULP energy -495762.698095 kJ/mol
# GULP energy per Si atom -12394.067452 kJ/mol
# Density = 1.863162 g / cm^3
# Si number density = 18.674121 Si / 1000 Ang^3
#
#
#
# Elastic Constant Matrix: (Units=GPa)
#
#
# Indices 1 2 3 4 5 6 
#
# 1 141.6202 31.1592 37.2157 0.0000 0.0000 0.0000
# 2 31.1592 109.4547 23.4161 0.0000 0.0000 0.0000
# 3 37.2157 23.4161 87.2557 0.0000 0.0000 0.0000
# 4 0.0000 0.0000 0.0000 23.9237 0.0000 0.0000
# 5 0.0000 0.0000 0.0000 0.0000 25.5820 0.0000
# 6 0.0000 0.0000 0.0000 0.0000 0.0000 29.0458
#
#
#
# Elastic Compliance Matrix: (Units=1/GPa)
#
#
# Indices 1 2 3 4 5 6 
#
# 1 0.008237 -0.001690 -0.003060 0.000000 0.000000 0.000000
# 2 -0.001690 0.010040 -0.001973 0.000000 0.000000 0.000000
# 3 -0.003060 -0.001973 0.013295 0.000000 0.000000 0.000000
# 4 0.000000 0.000000 0.000000 0.041800 0.000000 0.000000
# 5 0.000000 0.000000 0.000000 0.000000 0.039090 0.000000
# 6 0.000000 0.000000 0.000000 0.000000 0.000000 0.034428
#
#
# Mechanical properties :
#
#
# Convention : Reuss Voigt Hill
#
# Bulk Modulus (GPa) = 55.17163 57.99030 56.58097
# Shear Modulus (GPa) = 30.05207 32.14626 31.09917
#
# Velocity S-wave (km/s) = 4.01595 4.15352 4.08531
# Velocity P-wave (km/s) = 7.14929 7.35687 7.25382
#
# Compressibility (1/GPa) = 0.01812526
#
# Stress axis : x y z
#
# Youngs Moduli (GPa) = 121.40246 99.60606 75.21584
#
# Poissons Ratio (x) = 0.16837 0.23013
# Poissons Ratio (y) = 0.20521 0.14842
# Poissons Ratio (z) = 0.37144 0.19655
#
# Static dielectric constant tensor:
#      x y z
#    x 3.437790 0.000000 0.000000 
#    y 0.000000 3.689000 0.000000 
#    z 0.000000 0.000000 3.489400 
# 
# 
# High freq. dielectric constant tensor:
#      x y z
#    x 1.733810 0.000000 0.000000 
#    y 0.000000 1.708010 0.000000 
#    z 0.000000 0.000000 1.721640 
# 
# From -- ./inp_files/32056.got.cif
#   From: 2010.03.12/outbox.cif.g09.slc.cpg/sg64_17_cif.got.tgz:32056.got - 2010.04.10 20:19:32.
