data_PCOD8262246
_publ_section_title
;
Structure prediction by ZEFSAII (Michael W. Deem and Ramdas Pophale) SiO2 
 PCOD8262246
Probable space group: C M C A
;
_chemical_formula_sum "Si O2"
_cell_formula_units_Z 128
_cell_length_a 18.206660
_cell_length_b 22.471680
_cell_length_c 16.588989
_cell_angle_alpha 90.000000
_cell_angle_beta 90.000000
_cell_angle_gamma 90.000000
_cell_volume 6787.123364
_symmetry_space_group_name_H-M "C M C A"
_symmetry_group_IT_number 64
_symmetry_cell_setting 'orthorhombic'
loop_
_space_group_symop_operation_xyz
x,y,z
-x,1/2-y,1/2+z
x,-y,-z
-x,1/2+y,1/2-z
-x,-y,-z
x,1/2+y,1/2-z
-x,y,z
x,1/2-y,1/2+z
1/2+x,1/2+y,z
1/2-x,-y,1/2+z
1/2+x,1/2-y,-z
1/2-x,y,1/2-z
1/2-x,1/2-y,-z
1/2+x,y,1/2-z
1/2-x,1/2+y,z
1/2+x,-y,1/2+z
loop_
_atom_site_type_symbol
_atom_site_label
_atom_site_fract_x
_atom_site_fract_y
_atom_site_fract_z
Si Si1 0.913870 0.614244 0.147193
Si Si2 0.664731 0.964337 0.729287
Si Si3 0.912920 0.145696 0.933482
Si Si4 0.914673 0.911797 0.231724
Si Si5 0.086107 0.276680 0.959740
Si Si6 0.671842 0.066067 0.011357
Si Si7 0.584223 0.139653 0.898455
Si Si8 0.829335 0.438074 0.545319
O O1 0.870328 0.592946 0.225837
O O2 0.886283 0.677847 0.110460
O O3 0.000000 0.613414 0.165499
O O4 0.892893 0.567939 0.077117
O O5 0.750000 0.969694 0.750000
O O6 0.650511 0.950432 0.636946
O O7 0.627131 0.027053 0.753181
O O8 0.882887 0.117412 0.849990
O O9 0.878649 0.211986 0.944780
O O10 0.000000 0.148791 0.931111
O O11 0.889219 0.106640 0.009236
O O12 0.904890 0.860870 0.301703
O O13 0.000000 0.928525 0.222253
O O14 0.000000 0.271488 0.950082
O O15 0.104822 0.300262 0.051045
O O16 0.640990 0.089942 0.927638
O O17 0.749744 0.095158 0.037877
O O18 0.697658 0.000000 0.000000
O O19 0.500000 0.122764 0.919759
O O20 0.836165 0.500000 0.500000
#
# Coordination Sequence:
#
# PCOD8262246 Si02
#       8
#    16  16  16  16  16  16  16  16
#     4  10  20  36  59  85 112 146 186 234 290 341
#     4  12  23  38  58  84 122 153 185 238 288 350
#     4  10  21  39  60  80 114 160 198 238 283 338
#     4  10  21  35  56  86 116 148 193 243 287 336
#     4   8  17  37  60  84 114 147 190 242 295 341
#     4  10  19  32  54  82 112 146 179 229 295 346
#     4   9  18  33  56  85 113 141 188 244 290 347
#     4  11  23  39  55  81 115 153 196 232 285 346
#
# _framework density 18.859241000000001
#
# number of rings (size 3 to 8) (size 9 to 14) (size 15 to 20)
#    0.000    2.000    2.500    2.250    1.750    3.250 
#    2.250    2.500    0.000    0.750    0.000    0.000 
#    0.000    0.000    0.000    0.000    0.000    0.000 
#
# Total GULP energy -792974.751408 kJ/mol
# GULP energy per Si atom -12390.230491 kJ/mol
# Density = 1.881632 g / cm^3
# Si number density = 18.859241 Si / 1000 Ang^3
#
#
#
# Elastic Constant Matrix: (Units=GPa)
#
#
# Indices 1 2 3 4 5 6 
#
# 1 50.3798 29.7879 22.8676 0.0000 0.0000 0.0000
# 2 29.7879 116.0719 55.0929 0.0000 0.0000 0.0000
# 3 22.8676 55.0929 134.0004 0.0000 0.0000 0.0000
# 4 0.0000 0.0000 0.0000 25.9657 0.0000 0.0000
# 5 0.0000 0.0000 0.0000 0.0000 -23.1719 0.0000
# 6 0.0000 0.0000 0.0000 0.0000 0.0000 7.5139
#
#
#
# Elastic Compliance Matrix: (Units=1/GPa)
#
#
# Indices 1 2 3 4 5 6 
#
# 1 0.023793 -0.005192 -0.001926 0.000000 0.000000 0.000000
# 2 -0.005192 0.011837 -0.003981 0.000000 0.000000 0.000000
# 3 -0.001926 -0.003981 0.009428 0.000000 0.000000 0.000000
# 4 0.000000 0.000000 0.000000 0.038512 0.000000 0.000000
# 5 0.000000 0.000000 0.000000 0.000000 -0.043156 0.000000
# 6 0.000000 0.000000 0.000000 0.000000 0.000000 0.133086
#
#
# Mechanical properties :
#
#
# Convention : Reuss Voigt Hill
#
# Bulk Modulus (GPa) = 43.74197 57.32765 50.53481
# Shear Modulus (GPa) = 24.59197 14.90847 19.75022
#
# Velocity S-wave (km/s) = 3.61498 2.81466 3.23962
# Velocity P-wave (km/s) = 6.37717 6.40521 6.39121
#
# Compressibility (1/GPa) = 0.02286134
#
# Stress axis : x y z
#
# Youngs Moduli (GPa) = 42.02875 84.47910 106.06790
#
# Poissons Ratio (x) = 0.43863 0.20426
# Poissons Ratio (y) = 0.21822 0.42223
# Poissons Ratio (z) = 0.08093 0.33629
#
# Static dielectric constant tensor:
#      x y z
#    x 3.377480 0.000000 0.000000 
#    y 0.000000 3.651260 0.000000 
#    z 0.000000 0.000000 3.637540 
# 
# 
# High freq. dielectric constant tensor:
#      x y z
#    x 1.724140 0.000000 0.000000 
#    y 0.000000 1.715870 0.000000 
#    z 0.000000 0.000000 1.737880 
# 
# From -- ./inp_files/33745.got.cif
#   From: 2010.03.12/outbox.cif.g09.slc.cpg/sg64_17_cif.got.tgz:33745.got - 2010.04.10 20:19:32.
