data_PCOD8262696
_publ_section_title
;
Structure prediction by ZEFSAII (Michael W. Deem and Ramdas Pophale) SiO2 
 PCOD8262696
Probable space group: C M C A
;
_chemical_formula_sum "Si O2"
_cell_formula_units_Z 72
_cell_length_a 18.329412
_cell_length_b 13.662005
_cell_length_c 14.034567
_cell_angle_alpha 90.000000
_cell_angle_beta 90.000000
_cell_angle_gamma 90.000000
_cell_volume 3514.487405
_symmetry_space_group_name_H-M "C M C A"
_symmetry_group_IT_number 64
_symmetry_cell_setting 'orthorhombic'
loop_
_space_group_symop_operation_xyz
x,y,z
-x,1/2-y,1/2+z
x,-y,-z
-x,1/2+y,1/2-z
-x,-y,-z
x,1/2+y,1/2-z
-x,y,z
x,1/2-y,1/2+z
1/2+x,1/2+y,z
1/2-x,-y,1/2+z
1/2+x,1/2-y,-z
1/2-x,y,1/2-z
1/2-x,1/2-y,-z
1/2+x,y,1/2-z
1/2-x,1/2+y,z
1/2+x,-y,1/2+z
loop_
_atom_site_type_symbol
_atom_site_label
_atom_site_fract_x
_atom_site_fract_y
_atom_site_fract_z
Si Si1 0.218804 0.613782 0.017852
Si Si2 0.156074 0.724110 0.398970
Si Si3 0.500000 0.465870 0.766867
Si Si4 0.620966 0.170651 0.195930
Si Si5 0.000000 0.671868 0.659123
Si Si6 0.000000 0.160295 0.054594
O O1 0.303140 0.641576 0.037027
O O2 0.173284 0.649001 0.108716
O O3 0.210585 0.500000 0.000000
O O4 0.189997 0.669816 0.923803
O O5 0.168864 0.698362 0.288299
O O6 0.070344 0.726874 0.422801
O O7 0.428076 0.425488 0.714469
O O8 0.500000 0.583565 0.764342
O O9 0.500000 0.433408 0.877194
O O10 0.571601 0.263942 0.172804
O O11 0.000000 0.625574 0.553945
#
# Coordination Sequence:
#
# PCOD8262696 Si02
#       6
#    16  16   8  16   8   8
#     4  11  24  43  67  97 132 172 223 267 336 394
#     4  10  23  44  64  94 132 171 215 272 327 393
#     4   9  22  35  61  96 129 171 224 261 329 387
#     4  10  22  42  61  95 135 168 224 271 322 396
#     4  11  20  37  64  94 133 175 215 266 328 388
#     4  10  19  42  64  87 127 169 214 275 313 393
#
# _framework density 20.486630000000002
#
# number of rings (size 3 to 8) (size 9 to 14) (size 15 to 20)
#    0.000    1.778    2.222    1.667    3.111    3.556 
#    0.000    7.222    0.000    0.000    0.000    0.000 
#    0.000    0.000    0.000    0.000    0.000    0.000 
#
# Total GULP energy -446440.288426 kJ/mol
# GULP energy per Si atom -12401.119123 kJ/mol
# Density = 2.044000 g / cm^3
# Si number density = 20.486630 Si / 1000 Ang^3
#
#
#
# Elastic Constant Matrix: (Units=GPa)
#
#
# Indices 1 2 3 4 5 6 
#
# 1 110.4430 43.4204 25.9393 0.0000 0.0000 0.0000
# 2 43.4204 137.9821 29.5888 0.0000 0.0000 0.0000
# 3 25.9393 29.5888 76.8402 0.0000 0.0000 0.0000
# 4 0.0000 0.0000 0.0000 20.0061 0.0000 0.0000
# 5 0.0000 0.0000 0.0000 0.0000 29.3017 0.0000
# 6 0.0000 0.0000 0.0000 0.0000 0.0000 31.0934
#
#
#
# Elastic Compliance Matrix: (Units=1/GPa)
#
#
# Indices 1 2 3 4 5 6 
#
# 1 0.010769 -0.002844 -0.002540 0.000000 0.000000 0.000000
# 2 -0.002844 0.008651 -0.002371 0.000000 0.000000 0.000000
# 3 -0.002540 -0.002371 0.014785 0.000000 0.000000 0.000000
# 4 0.000000 0.000000 0.000000 0.049985 0.000000 0.000000
# 5 0.000000 0.000000 0.000000 0.000000 0.034128 0.000000
# 6 0.000000 0.000000 0.000000 0.000000 0.000000 0.032161
#
#
# Mechanical properties :
#
#
# Convention : Reuss Voigt Hill
#
# Bulk Modulus (GPa) = 53.49387 58.12913 55.81150
# Shear Modulus (GPa) = 29.03261 31.16803 30.10032
#
# Velocity S-wave (km/s) = 3.76859 3.90472 3.83726
# Velocity P-wave (km/s) = 6.71600 6.98319 6.85090
#
# Compressibility (1/GPa) = 0.01869373
#
# Stress axis : x y z
#
# Youngs Moduli (GPa) = 92.85715 115.59674 67.63819
#
# Poissons Ratio (x) = 0.32877 0.17182
# Poissons Ratio (y) = 0.26410 0.16037
# Poissons Ratio (z) = 0.23588 0.27408
#
# Static dielectric constant tensor:
#      x y z
#    x 3.895760 0.000000 0.000000 
#    y 0.000000 3.466130 0.000000 
#    z 0.000000 0.000000 3.896020 
# 
# 
# High freq. dielectric constant tensor:
#      x y z
#    x 1.810590 0.000000 0.000000 
#    y 0.000000 1.785490 0.000000 
#    z 0.000000 0.000000 1.808110 
# 
# From -- ./inp_files/25161.got.cif
#   From: 2010.03.12/outbox.cif.g09.slc.cpg/sg64_13_cif.got.tgz:25161.got - 2010.04.10 20:19:32.
