data_PCOD8262192
_publ_section_title
;
Structure prediction by ZEFSAII (Michael W. Deem and Ramdas Pophale) SiO2 
 PCOD8262192
Probable space group: C M C A
;
_chemical_formula_sum "Si O2"
_cell_formula_units_Z 96
_cell_length_a 8.598065
_cell_length_b 26.890302
_cell_length_c 22.973533
_cell_angle_alpha 90.000000
_cell_angle_beta 90.000000
_cell_angle_gamma 90.000000
_cell_volume 5311.585692
_symmetry_space_group_name_H-M "C M C A"
_symmetry_group_IT_number 64
_symmetry_cell_setting 'orthorhombic'
loop_
_space_group_symop_operation_xyz
x,y,z
-x,1/2-y,1/2+z
x,-y,-z
-x,1/2+y,1/2-z
-x,-y,-z
x,1/2+y,1/2-z
-x,y,z
x,1/2-y,1/2+z
1/2+x,1/2+y,z
1/2-x,-y,1/2+z
1/2+x,1/2-y,-z
1/2-x,y,1/2-z
1/2-x,1/2-y,-z
1/2+x,y,1/2-z
1/2-x,1/2+y,z
1/2+x,-y,1/2+z
loop_
_atom_site_type_symbol
_atom_site_label
_atom_site_fract_x
_atom_site_fract_y
_atom_site_fract_z
Si Si1 0.171476 0.054247 0.010174
Si Si2 0.827727 0.876415 0.095272
Si Si3 0.323215 0.379219 0.594612
Si Si4 0.315773 0.551757 0.685732
Si Si5 0.182430 0.446962 0.686811
Si Si6 0.684579 0.195192 0.997702
O O1 0.309591 0.077213 0.047584
O O2 0.000000 0.056002 0.041669
O O3 0.153975 0.078369 0.947994
O O4 0.232481 0.000000 0.000000
O O5 0.732314 0.899049 0.149386
O O6 0.000000 0.858676 0.115889
O O7 0.744498 0.830976 0.061481
O O8 0.500000 0.371527 0.614857
O O9 0.222433 0.397135 0.649688
O O10 0.259351 0.331106 0.558509
O O11 0.500000 0.548319 0.687364
O O12 0.250000 0.559612 0.750000
O O13 0.251684 0.498757 0.660527
O O14 0.250000 0.436767 0.750000
O O15 0.000000 0.453559 0.691121
O O16 0.500000 0.194867 0.995402
O O17 0.750000 0.250000 0.000000
#
# Coordination Sequence:
#
# PCOD8262192 Si02
#       6
#    16  16  16  16  16  16
#     4   9  17  28  44  68  99 133 166 202 247 301
#     4  10  19  32  51  76 105 136 172 213 259 310
#     4  10  20  33  50  74 102 132 169 212 257 307
#     4  11  21  34  52  76 108 144 181 216 253 301
#     4  11  21  34  52  75 106 143 180 214 252 301
#     4  10  21  37  57  80 105 134 171 217 269 320
#
# _framework density 18.073699999999999
#
# number of rings (size 3 to 8) (size 9 to 14) (size 15 to 20)
#    0.000    1.833    0.000    6.500    0.000    4.333 
#    0.000    0.000    0.000    1.000    0.000    2.333 
#    0.000    0.000    0.000    0.000    0.000    0.000 
#
# Total GULP energy -594700.682104 kJ/mol
# GULP energy per Si atom -12389.597544 kJ/mol
# Density = 1.803256 g / cm^3
# Si number density = 18.073700 Si / 1000 Ang^3
#
#
#
# Elastic Constant Matrix: (Units=GPa)
#
#
# Indices 1 2 3 4 5 6 
#
# 1 121.4579 42.5360 41.1727 0.0000 0.0000 0.0000
# 2 42.5360 131.9819 50.3874 0.0000 0.0000 0.0000
# 3 41.1727 50.3874 84.6081 0.0000 0.0000 0.0000
# 4 0.0000 0.0000 0.0000 27.0277 0.0000 0.0000
# 5 0.0000 0.0000 0.0000 0.0000 30.0113 0.0000
# 6 0.0000 0.0000 0.0000 0.0000 0.0000 18.7177
#
#
#
# Elastic Compliance Matrix: (Units=1/GPa)
#
#
# Indices 1 2 3 4 5 6 
#
# 1 0.010179 -0.001798 -0.003882 0.000000 0.000000 0.000000
# 2 -0.001798 0.010124 -0.005154 0.000000 0.000000 0.000000
# 3 -0.003882 -0.005154 0.016778 0.000000 0.000000 0.000000
# 4 0.000000 0.000000 0.000000 0.036999 0.000000 0.000000
# 5 0.000000 0.000000 0.000000 0.000000 0.033321 0.000000
# 6 0.000000 0.000000 0.000000 0.000000 0.000000 0.053425
#
#
# Mechanical properties :
#
#
# Convention : Reuss Voigt Hill
#
# Bulk Modulus (GPa) = 64.88744 67.36002 66.12373
# Shear Modulus (GPa) = 26.64763 28.74811 27.69787
#
# Velocity S-wave (km/s) = 3.84394 3.99257 3.91896
# Velocity P-wave (km/s) = 7.46195 7.65537 7.55928
#
# Compressibility (1/GPa) = 0.01541130
#
# Stress axis : x y z
#
# Youngs Moduli (GPa) = 98.23912 98.77398 59.60175
#
# Poissons Ratio (x) = 0.17763 0.23140
# Poissons Ratio (y) = 0.17667 0.30720
# Poissons Ratio (z) = 0.38141 0.50910
#
# Static dielectric constant tensor:
#      x y z
#    x 3.647330 0.000000 0.000000 
#    y 0.000000 3.103220 0.000000 
#    z 0.000000 0.000000 3.306200 
# 
# 
# High freq. dielectric constant tensor:
#      x y z
#    x 1.714360 0.000000 0.000000 
#    y 0.000000 1.676890 0.000000 
#    z 0.000000 0.000000 1.691700 
# 
# From -- ./inp_files/43190.got.cif
#   From: 2010.03.12/outbox.cif.g09.slc.cpg/sg64_22_cif.got.tgz:43190.got - 2010.04.10 20:19:32.
