data_PCOD8262826
_publ_section_title
;
Structure prediction by ZEFSAII (Michael W. Deem and Ramdas Pophale) SiO2 
 PCOD8262826
Probable space group: C M C A
;
_chemical_formula_sum "Si O2"
_cell_formula_units_Z 88
_cell_length_a 34.260387
_cell_length_b 27.946869
_cell_length_c 5.266068
_cell_angle_alpha 90.000000
_cell_angle_beta 90.000000
_cell_angle_gamma 90.000000
_cell_volume 5042.105010
_symmetry_space_group_name_H-M "C M C A"
_symmetry_group_IT_number 64
_symmetry_cell_setting 'orthorhombic'
loop_
_space_group_symop_operation_xyz
x,y,z
-x,1/2-y,1/2+z
x,-y,-z
-x,1/2+y,1/2-z
-x,-y,-z
x,1/2+y,1/2-z
-x,y,z
x,1/2-y,1/2+z
1/2+x,1/2+y,z
1/2-x,-y,1/2+z
1/2+x,1/2-y,-z
1/2-x,y,1/2-z
1/2-x,1/2-y,-z
1/2+x,y,1/2-z
1/2-x,1/2+y,z
1/2+x,-y,1/2+z
loop_
_atom_site_type_symbol
_atom_site_label
_atom_site_fract_x
_atom_site_fract_y
_atom_site_fract_z
Si Si1 0.045446 0.720289 0.858529
Si Si2 0.358617 0.553264 0.600131
Si Si3 0.770650 0.443359 0.001792
Si Si4 0.930067 0.383774 0.101339
Si Si5 0.456608 0.431715 0.874597
Si Si6 0.105149 0.500000 0.500000
O O1 0.056260 0.749902 0.608179
O O2 0.071861 0.672880 0.854990
O O3 0.000000 0.705552 0.856409
O O4 0.369002 0.500000 0.500000
O O5 0.315999 0.570683 0.517583
O O6 0.387373 0.596000 0.523001
O O7 0.365968 0.542067 0.898463
O O8 0.750000 0.421729 0.750000
O O9 0.765764 0.500000 0.000000
O O10 0.750000 0.421344 0.250000
O O11 0.946514 0.408494 0.353653
O O12 0.956843 0.393443 0.854632
O O13 0.500000 0.453538 0.892381
O O14 0.425098 0.473402 0.806684
#
# Coordination Sequence:
#
# PCOD8262826 Si02
#       6
#    16  16  16  16  16   8
#     4  10  20  35  54  73  97 128 168 219 265 302
#     4  10  20  34  51  71 108 136 168 206 250 302
#     4   9  19  30  48  70  94 130 168 202 236 289
#     4  11  22  35  53  76  98 135 172 214 264 303
#     4  11  21  33  48  68  99 134 176 213 243 296
#     4  10  21  32  46  70 100 144 174 204 248 288
#
# _framework density 17.453026999999999
#
# number of rings (size 3 to 8) (size 9 to 14) (size 15 to 20)
#    0.000    1.818    1.818    3.000    6.364    1.455 
#    0.000    2.727    0.000    0.000    0.000    0.000 
#    0.000    4.364    0.000    0.000    0.000    0.000 
#
# Total GULP energy -545102.145114 kJ/mol
# GULP energy per Si atom -12388.685116 kJ/mol
# Density = 1.741330 g / cm^3
# Si number density = 17.453027 Si / 1000 Ang^3
#
#
#
# Elastic Constant Matrix: (Units=GPa)
#
#
# Indices 1 2 3 4 5 6 
#
# 1 128.7836 42.7397 51.3025 0.0000 0.0000 0.0000
# 2 42.7397 79.2836 22.0213 0.0000 0.0000 0.0000
# 3 51.3025 22.0213 116.5390 0.0000 0.0000 0.0000
# 4 0.0000 0.0000 0.0000 20.4793 0.0000 0.0000
# 5 0.0000 0.0000 0.0000 0.0000 12.6788 0.0000
# 6 0.0000 0.0000 0.0000 0.0000 0.0000 14.8375
#
#
#
# Elastic Compliance Matrix: (Units=1/GPa)
#
#
# Indices 1 2 3 4 5 6 
#
# 1 0.010910 -0.004799 -0.003896 0.000000 0.000000 0.000000
# 2 -0.004799 0.015423 -0.000802 0.000000 0.000000 0.000000
# 3 -0.003896 -0.000802 0.010447 0.000000 0.000000 0.000000
# 4 0.000000 0.000000 0.000000 0.048830 0.000000 0.000000
# 5 0.000000 0.000000 0.000000 0.000000 0.078872 0.000000
# 6 0.000000 0.000000 0.000000 0.000000 0.000000 0.067397
#
#
# Mechanical properties :
#
#
# Convention : Reuss Voigt Hill
#
# Bulk Modulus (GPa) = 56.22204 61.85926 59.04065
# Shear Modulus (GPa) = 19.47045 23.50197 21.48621
#
# Velocity S-wave (km/s) = 3.34367 3.67356 3.51249
# Velocity P-wave (km/s) = 6.86951 7.31530 7.09591
#
# Compressibility (1/GPa) = 0.01778662
#
# Stress axis : x y z
#
# Youngs Moduli (GPa) = 91.66298 64.83981 95.71866
#
# Poissons Ratio (x) = 0.31116 0.37290
# Poissons Ratio (y) = 0.43989 0.07674
# Poissons Ratio (z) = 0.35710 0.05198
#
# Static dielectric constant tensor:
#      x y z
#    x 3.160690 0.000000 0.000000 
#    y 0.000000 2.936510 0.000000 
#    z 0.000000 0.000000 3.703160 
# 
# 
# High freq. dielectric constant tensor:
#      x y z
#    x 1.659890 0.000000 0.000000 
#    y 0.000000 1.623970 0.000000 
#    z 0.000000 0.000000 1.697100 
# 
# From -- ./inp_files/3392.got.cif
#   From: 2010.03.12/outbox.cif.g09.slc.cpg/sg64_2_cif.got.tgz:3392.got - 2010.04.10 20:19:32.
