data_PCOD8262612
_publ_section_title
;
Structure prediction by ZEFSAII (Michael W. Deem and Ramdas Pophale) SiO2 
 PCOD8262612
Probable space group: C M C A
;
_chemical_formula_sum "Si O2"
_cell_formula_units_Z 112
_cell_length_a 21.898471
_cell_length_b 12.526423
_cell_length_c 21.216883
_cell_angle_alpha 90.000000
_cell_angle_beta 90.000000
_cell_angle_gamma 90.000000
_cell_volume 5819.992796
_symmetry_space_group_name_H-M "C M C A"
_symmetry_group_IT_number 64
_symmetry_cell_setting 'orthorhombic'
loop_
_space_group_symop_operation_xyz
x,y,z
-x,1/2-y,1/2+z
x,-y,-z
-x,1/2+y,1/2-z
-x,-y,-z
x,1/2+y,1/2-z
-x,y,z
x,1/2-y,1/2+z
1/2+x,1/2+y,z
1/2-x,-y,1/2+z
1/2+x,1/2-y,-z
1/2-x,y,1/2-z
1/2-x,1/2-y,-z
1/2+x,y,1/2-z
1/2-x,1/2+y,z
1/2+x,-y,1/2+z
loop_
_atom_site_type_symbol
_atom_site_label
_atom_site_fract_x
_atom_site_fract_y
_atom_site_fract_z
Si Si1 0.069565 0.451083 0.161751
Si Si2 0.315510 0.875968 0.993126
Si Si3 0.571349 0.529264 0.201418
Si Si4 0.430284 0.848398 0.921157
Si Si5 0.131864 0.683796 0.666309
Si Si6 0.861561 0.245292 0.190534
Si Si7 0.252687 0.755078 0.104127
O O1 0.086164 0.515397 0.224987
O O2 0.080660 0.531352 0.104129
O O3 0.110855 0.346559 0.153116
O O4 0.000000 0.411561 0.165278
O O5 0.384729 0.834288 0.980216
O O6 0.273020 0.847267 0.933107
O O7 0.292693 0.824986 0.057171
O O8 0.312388 0.000000 0.000000
O O9 0.500000 0.525061 0.186648
O O10 0.603773 0.434115 0.163460
O O11 0.596462 0.642703 0.178567
O O12 0.500000 0.833138 0.943735
O O13 0.416077 0.763027 0.866783
O O14 0.143359 0.726744 0.736288
O O15 0.196064 0.676602 0.630230
O O16 0.794790 0.218876 0.162541
#
# Coordination Sequence:
#
# PCOD8262612 Si02
#       7
#    16  16  16  16  16  16  16
#     4   9  18  32  53  83 117 149 181 228 283 337
#     4  10  22  40  59  79 107 149 194 243 287 326
#     4  10  20  33  55  86 120 156 185 227 288 347
#     4  10  19  36  61  84 111 146 191 239 285 340
#     4  10  21  37  57  87 118 153 190 230 284 354
#     4  11  20  35  56  88 120 151 187 231 284 349
#     4  10  23  39  56  82 113 151 196 234 287 336
#
# _framework density 19.244009999999999
#
# number of rings (size 3 to 8) (size 9 to 14) (size 15 to 20)
#    0.000    2.000    1.429    2.143    2.000    1.429 
#    0.000    2.857    0.000    0.000    0.000    4.000 
#    0.000    0.000    0.000    0.000    0.000    0.000 
#
# Total GULP energy -694463.668970 kJ/mol
# GULP energy per Si atom -12401.136946 kJ/mol
# Density = 1.920021 g / cm^3
# Si number density = 19.244010 Si / 1000 Ang^3
#
#
#
# Elastic Constant Matrix: (Units=GPa)
#
#
# Indices 1 2 3 4 5 6 
#
# 1 139.1245 52.6100 52.1454 0.0000 0.0000 0.0000
# 2 52.6100 85.0257 34.4052 0.0000 0.0000 0.0000
# 3 52.1454 34.4052 58.1856 0.0000 0.0000 0.0000
# 4 0.0000 0.0000 0.0000 16.9438 0.0000 0.0000
# 5 0.0000 0.0000 0.0000 0.0000 31.1504 0.0000
# 6 0.0000 0.0000 0.0000 0.0000 0.0000 27.9938
#
#
#
# Elastic Compliance Matrix: (Units=1/GPa)
#
#
# Indices 1 2 3 4 5 6 
#
# 1 0.011756 -0.003958 -0.008196 0.000000 0.000000 0.000000
# 2 -0.003958 0.016793 -0.006382 0.000000 0.000000 0.000000
# 3 -0.008196 -0.006382 0.028305 0.000000 0.000000 0.000000
# 4 0.000000 0.000000 0.000000 0.059018 0.000000 0.000000
# 5 0.000000 0.000000 0.000000 0.000000 0.032102 0.000000
# 6 0.000000 0.000000 0.000000 0.000000 0.000000 0.035722
#
#
# Mechanical properties :
#
#
# Convention : Reuss Voigt Hill
#
# Bulk Modulus (GPa) = 50.55047 62.29523 56.42285
# Shear Modulus (GPa) = 21.99124 24.76261 23.37692
#
# Velocity S-wave (km/s) = 3.38414 3.59105 3.48913
# Velocity P-wave (km/s) = 6.44942 7.04526 6.75391
#
# Compressibility (1/GPa) = 0.01978221
#
# Stress axis : x y z
#
# Youngs Moduli (GPa) = 85.06076 59.54933 35.32932
#
# Poissons Ratio (x) = 0.23570 0.28954
# Poissons Ratio (y) = 0.33667 0.22549
# Poissons Ratio (z) = 0.69712 0.38007
#
# Static dielectric constant tensor:
#      x y z
#    x 3.616120 0.000000 0.000000 
#    y 0.000000 3.456430 0.000000 
#    z 0.000000 0.000000 3.503230 
# 
# 
# High freq. dielectric constant tensor:
#      x y z
#    x 1.759770 0.000000 0.000000 
#    y 0.000000 1.746520 0.000000 
#    z 0.000000 0.000000 1.739140 
# 
# From -- ./inp_files/41496.got.cif
#   From: 2010.03.12/outbox.cif.g09.slc.cpg/sg64_21_cif.got.tgz:41496.got - 2010.04.10 20:19:32.
