data_PCOD8262318
_publ_section_title
;
Structure prediction by ZEFSAII (Michael W. Deem and Ramdas Pophale) SiO2 
 PCOD8262318
Probable space group: C M C A
;
_chemical_formula_sum "Si O2"
_cell_formula_units_Z 112
_cell_length_a 23.516348
_cell_length_b 14.324609
_cell_length_c 15.523284
_cell_angle_alpha 90.000000
_cell_angle_beta 90.000000
_cell_angle_gamma 90.000000
_cell_volume 5229.212104
_symmetry_space_group_name_H-M "C M C A"
_symmetry_group_IT_number 64
_symmetry_cell_setting 'orthorhombic'
loop_
_space_group_symop_operation_xyz
x,y,z
-x,1/2-y,1/2+z
x,-y,-z
-x,1/2+y,1/2-z
-x,-y,-z
x,1/2+y,1/2-z
-x,y,z
x,1/2-y,1/2+z
1/2+x,1/2+y,z
1/2-x,-y,1/2+z
1/2+x,1/2-y,-z
1/2-x,y,1/2-z
1/2-x,1/2-y,-z
1/2+x,y,1/2-z
1/2-x,1/2+y,z
1/2+x,-y,1/2+z
loop_
_atom_site_type_symbol
_atom_site_label
_atom_site_fract_x
_atom_site_fract_y
_atom_site_fract_z
Si Si1 0.830916 0.341595 0.033254
Si Si2 0.158966 0.172328 0.143492
Si Si3 0.311191 0.450532 0.290625
Si Si4 0.438067 0.918096 0.564859
Si Si5 0.784112 0.358939 0.856083
Si Si6 0.936999 0.266250 0.953829
Si Si7 0.865060 0.291786 0.297924
O O1 0.823417 0.232435 0.058922
O O2 0.819500 0.406445 0.114724
O O3 0.786691 0.373729 0.959371
O O4 0.894710 0.346697 0.990422
O O5 0.116082 0.085660 0.128378
O O6 0.219053 0.132019 0.178565
O O7 0.124628 0.239933 0.207615
O O8 0.250000 0.427843 0.250000
O O9 0.321026 0.561350 0.305459
O O10 0.355499 0.401917 0.223605
O O11 0.500000 0.935762 0.609658
O O12 0.440023 0.818540 0.519538
O O13 0.424331 0.000000 0.500000
O O14 0.808333 0.255832 0.837742
O O15 0.917448 0.223620 0.861746
O O16 0.000000 0.309935 0.941956
#
# Coordination Sequence:
#
# PCOD8262318 Si02
#       7
#    16  16  16  16  16  16  16
#     4   9  20  37  57  81 114 148 190 243 291 350
#     4  10  19  33  54  80 108 146 186 230 290 346
#     4  11  22  35  55  84 118 153 188 232 294 360
#     4   9  19  34  51  75 106 137 179 230 273 324
#     4  11  21  36  56  82 116 154 190 230 288 360
#     4   9  19  37  60  80 104 149 196 236 289 345
#     4  10  21  36  54  79 115 145 180 236 286 336
#
# _framework density 21.418140000000001
#
# number of rings (size 3 to 8) (size 9 to 14) (size 15 to 20)
#    0.000    2.143    0.000    3.857    0.000    6.286 
#    0.000    2.143    0.000   10.286    0.000    1.000 
#    0.000    0.000    0.000    0.000    0.000    0.000 
#
# Total GULP energy -693796.709409 kJ/mol
# GULP energy per Si atom -12389.226954 kJ/mol
# Density = 2.136939 g / cm^3
# Si number density = 21.418140 Si / 1000 Ang^3
#
#
#
# Elastic Constant Matrix: (Units=GPa)
#
#
# Indices 1 2 3 4 5 6 
#
# 1 99.4992 15.3183 16.8701 0.0000 0.0000 0.0000
# 2 15.3183 60.7704 11.3715 0.0000 0.0000 0.0000
# 3 16.8701 11.3715 77.8709 0.0000 0.0000 0.0000
# 4 0.0000 0.0000 0.0000 26.1694 0.0000 0.0000
# 5 0.0000 0.0000 0.0000 0.0000 -989.8358 0.0000
# 6 0.0000 0.0000 0.0000 0.0000 0.0000 7.9254
#
#
#
# Elastic Compliance Matrix: (Units=1/GPa)
#
#
# Indices 1 2 3 4 5 6 
#
# 1 0.010747 -0.002337 -0.001987 0.000000 0.000000 0.000000
# 2 -0.002337 0.017426 -0.002038 0.000000 0.000000 0.000000
# 3 -0.001987 -0.002038 0.013570 0.000000 0.000000 0.000000
# 4 0.000000 0.000000 0.000000 0.038213 0.000000 0.000000
# 5 0.000000 0.000000 0.000000 0.000000 -0.001010 0.000000
# 6 0.000000 0.000000 0.000000 0.000000 0.000000 0.126176
#
#
# Mechanical properties :
#
#
# Convention : Reuss Voigt Hill
#
# Bulk Modulus (GPa) = 34.46158 36.14002 35.30080
# Shear Modulus (GPa) = 21.97621 -178.17615 -78.09997
#
# Velocity S-wave (km/s) = 3.20669 -9.13072 -6.04513
# Velocity P-wave (km/s) = 5.46217 9.70823 5.67514
#
# Compressibility (1/GPa) = 0.02901782
#
# Stress axis : x y z
#
# Youngs Moduli (GPa) = 93.04885 57.38578 73.69257
#
# Poissons Ratio (x) = 0.13412 0.14642
# Poissons Ratio (y) = 0.21747 0.15021
# Poissons Ratio (z) = 0.18488 0.11697
#
# Static dielectric constant tensor:
#      x y z
#    x 4.091570 0.000000 0.000000 
#    y 0.000000 3.846260 0.000000 
#    z 0.000000 0.000000 4.098040 
# 
# 
# High freq. dielectric constant tensor:
#      x y z
#    x 1.818990 0.000000 0.000000 
#    y 0.000000 1.825070 0.000000 
#    z 0.000000 0.000000 1.853450 
# 
# From -- ./inp_files/27419.got.cif
#   From: 2010.03.12/outbox.cif.g09.slc.cpg/sg64_14_cif.got.tgz:27419.got - 2010.04.10 20:19:32.
