data_PCOD8262291
_publ_section_title
;
Structure prediction by ZEFSAII (Michael W. Deem and Ramdas Pophale) SiO2 
 PCOD8262291
Probable space group: C M C A
;
_chemical_formula_sum "Si O2"
_cell_formula_units_Z 96
_cell_length_a 8.610566
_cell_length_b 23.130644
_cell_length_c 25.646250
_cell_angle_alpha 90.000000
_cell_angle_beta 90.000000
_cell_angle_gamma 90.000000
_cell_volume 5107.910699
_symmetry_space_group_name_H-M "C M C A"
_symmetry_group_IT_number 64
_symmetry_cell_setting 'orthorhombic'
loop_
_space_group_symop_operation_xyz
x,y,z
-x,1/2-y,1/2+z
x,-y,-z
-x,1/2+y,1/2-z
-x,-y,-z
x,1/2+y,1/2-z
-x,y,z
x,1/2-y,1/2+z
1/2+x,1/2+y,z
1/2-x,-y,1/2+z
1/2+x,1/2-y,-z
1/2-x,y,1/2-z
1/2-x,1/2-y,-z
1/2+x,y,1/2-z
1/2-x,1/2+y,z
1/2+x,-y,1/2+z
loop_
_atom_site_type_symbol
_atom_site_label
_atom_site_fract_x
_atom_site_fract_y
_atom_site_fract_z
Si Si1 0.684831 0.566028 0.001959
Si Si2 0.671594 0.365500 0.898408
Si Si3 0.171678 0.741350 0.945935
Si Si4 0.820210 0.635384 0.598207
Si Si5 0.316898 0.192905 0.194516
Si Si6 0.183378 0.681183 0.805407
O O1 0.500000 0.573040 0.002422
O O2 0.748960 0.594775 0.055775
O O3 0.739718 0.500000 0.000000
O O4 0.749516 0.596497 0.949134
O O5 0.500000 0.390118 0.883565
O O6 0.651008 0.302161 0.919826
O O7 0.776903 0.358612 0.846706
O O8 0.292184 0.702171 0.914803
O O9 0.000000 0.712133 0.950129
O O10 0.250000 0.750000 0.000000
O O11 0.733229 0.630097 0.653978
O O12 0.000000 0.621222 0.606343
O O13 0.500000 0.200517 0.198415
O O14 0.250000 0.172625 0.250000
O O15 0.244921 0.255038 0.178654
O O16 0.250000 0.661830 0.750000
O O17 0.000000 0.685326 0.803243
#
# Coordination Sequence:
#
# PCOD8262291 Si02
#       6
#    16  16  16  16  16  16
#     4   9  19  36  57  79 104 138 180 223 268 314
#     4  10  19  33  52  77 108 142 177 217 261 318
#     4  11  20  30  47  75 109 142 173 213 264 320
#     4  11  20  33  53  79 108 141 178 217 263 320
#     4  11  21  33  51  77 110 146 178 214 260 315
#     4  11  21  34  51  77 111 146 178 214 261 315
#
# _framework density 18.794377999999998
#
# number of rings (size 3 to 8) (size 9 to 14) (size 15 to 20)
#    0.000    1.500    3.333    5.000    0.000    0.667 
#    0.000    0.000    0.000    5.500    0.000    0.000 
#    0.000    0.000    0.000    0.000    0.000    0.000 
#
# Total GULP energy -594728.818598 kJ/mol
# GULP energy per Si atom -12390.183721 kJ/mol
# Density = 1.875160 g / cm^3
# Si number density = 18.794378 Si / 1000 Ang^3
#
#
#
# Elastic Constant Matrix: (Units=GPa)
#
#
# Indices 1 2 3 4 5 6 
#
# 1 100.0962 20.6666 46.0295 0.0000 0.0000 0.0000
# 2 20.6666 76.7647 54.3215 0.0000 0.0000 0.0000
# 3 46.0295 54.3215 168.2098 0.0000 0.0000 0.0000
# 4 0.0000 0.0000 0.0000 14.7576 0.0000 0.0000
# 5 0.0000 0.0000 0.0000 0.0000 26.4051 0.0000
# 6 0.0000 0.0000 0.0000 0.0000 0.0000 12.2136
#
#
#
# Elastic Compliance Matrix: (Units=1/GPa)
#
#
# Indices 1 2 3 4 5 6 
#
# 1 0.011503 -0.001127 -0.002784 0.000000 0.000000 0.000000
# 2 -0.001127 0.016996 -0.005180 0.000000 0.000000 0.000000
# 3 -0.002784 -0.005180 0.008380 0.000000 0.000000 0.000000
# 4 0.000000 0.000000 0.000000 0.067762 0.000000 0.000000
# 5 0.000000 0.000000 0.000000 0.000000 0.037871 0.000000
# 6 0.000000 0.000000 0.000000 0.000000 0.000000 0.081876
#
#
# Mechanical properties :
#
#
# Convention : Reuss Voigt Hill
#
# Bulk Modulus (GPa) = 53.48534 65.23398 59.35966
# Shear Modulus (GPa) = 20.09625 25.61212 22.85419
#
# Velocity S-wave (km/s) = 3.27352 3.69556 3.49092
# Velocity P-wave (km/s) = 6.54277 7.27971 6.92105
#
# Compressibility (1/GPa) = 0.01869671
#
# Stress axis : x y z
#
# Youngs Moduli (GPa) = 86.93211 58.83744 119.33662
#
# Poissons Ratio (x) = 0.06631 0.33222
# Poissons Ratio (y) = 0.09797 0.61820
# Poissons Ratio (z) = 0.24201 0.30479
#
# Static dielectric constant tensor:
#      x y z
#    x 3.504920 0.000000 0.000000 
#    y 0.000000 3.120280 0.000000 
#    z 0.000000 0.000000 3.803320 
# 
# 
# High freq. dielectric constant tensor:
#      x y z
#    x 1.721490 0.000000 0.000000 
#    y 0.000000 1.673540 0.000000 
#    z 0.000000 0.000000 1.753330 
# 
# From -- ./inp_files/43045.got.cif
#   From: 2010.03.12/outbox.cif.g09.slc.cpg/sg64_22_cif.got.tgz:43045.got - 2010.04.10 20:19:32.
