data_PCOD8262890
_publ_section_title
;
Structure prediction by ZEFSAII (Michael W. Deem and Ramdas Pophale) SiO2 
 PCOD8262890
Probable space group: C M C A
;
_chemical_formula_sum "Si O2"
_cell_formula_units_Z 104
_cell_length_a 9.224572
_cell_length_b 26.912083
_cell_length_c 21.387547
_cell_angle_alpha 90.000000
_cell_angle_beta 90.000000
_cell_angle_gamma 90.000000
_cell_volume 5309.510885
_symmetry_space_group_name_H-M "C M C A"
_symmetry_group_IT_number 64
_symmetry_cell_setting 'orthorhombic'
loop_
_space_group_symop_operation_xyz
x,y,z
-x,1/2-y,1/2+z
x,-y,-z
-x,1/2+y,1/2-z
-x,-y,-z
x,1/2+y,1/2-z
-x,y,z
x,1/2-y,1/2+z
1/2+x,1/2+y,z
1/2-x,-y,1/2+z
1/2+x,1/2-y,-z
1/2-x,y,1/2-z
1/2-x,1/2-y,-z
1/2+x,y,1/2-z
1/2-x,1/2+y,z
1/2+x,-y,1/2+z
loop_
_atom_site_type_symbol
_atom_site_label
_atom_site_fract_x
_atom_site_fract_y
_atom_site_fract_z
Si Si1 0.335923 0.181171 0.962128
Si Si2 0.839028 0.908352 0.075515
Si Si3 0.766356 0.000000 0.000000
Si Si4 0.172774 0.647299 0.183643
Si Si5 0.326635 0.050240 0.813741
Si Si6 0.836446 0.265448 0.905885
Si Si7 0.664891 0.547955 0.377801
O O1 0.500000 0.167498 0.942561
O O2 0.235947 0.132561 0.968242
O O3 0.270273 0.218347 0.909780
O O4 0.332911 0.204930 0.029798
O O5 0.732650 0.911668 0.134744
O O6 0.000000 0.891444 0.095934
O O7 0.859778 0.960381 0.038693
O O8 0.674063 0.032929 0.049123
O O9 0.250000 0.645404 0.250000
O O10 0.217725 0.698196 0.149117
O O11 0.233663 0.601151 0.141178
O O12 0.000000 0.645008 0.192296
O O13 0.500000 0.054573 0.809037
O O14 0.250000 0.065213 0.750000
O O15 0.270571 0.995471 0.833824
O O16 0.000000 0.246717 0.892753
O O17 0.500000 0.552784 0.359656
#
# Coordination Sequence:
#
# PCOD8262890 Si02
#       7
#    16  16   8  16  16  16  16
#     4  10  20  36  59  84 107 136 178 225 278 336
#     4  11  22  36  54  79 112 144 178 222 271 321
#     4  10  20  34  54  82 113 148 189 230 275 328
#     4  10  20  35  54  80 113 149 187 226 275 332
#     4  10  20  35  54  76 104 141 182 220 262 314
#     4   9  19  36  57  80 109 141 175 222 277 332
#     4   9  18  32  53  80 111 146 182 225 275 327
#
# _framework density 19.587491
#
# number of rings (size 3 to 8) (size 9 to 14) (size 15 to 20)
#    0.000    2.154    0.000    3.231    0.000    4.308 
#    0.000    6.154    0.000    1.846    0.000    0.000 
#    0.000    0.000    0.000    0.000    0.000    0.000 
#
# Total GULP energy -644509.246769 kJ/mol
# GULP energy per Si atom -12394.408592 kJ/mol
# Density = 1.954291 g / cm^3
# Si number density = 19.587491 Si / 1000 Ang^3
#
#
#
# Elastic Constant Matrix: (Units=GPa)
#
#
# Indices 1 2 3 4 5 6 
#
# 1 100.3651 40.7209 24.7357 0.0000 0.0000 0.0000
# 2 40.7209 86.8149 29.9468 0.0000 0.0000 0.0000
# 3 24.7357 29.9468 89.6493 0.0000 0.0000 0.0000
# 4 0.0000 0.0000 0.0000 28.4001 0.0000 0.0000
# 5 0.0000 0.0000 0.0000 0.0000 26.2610 0.0000
# 6 0.0000 0.0000 0.0000 0.0000 0.0000 25.9432
#
#
#
# Elastic Compliance Matrix: (Units=1/GPa)
#
#
# Indices 1 2 3 4 5 6 
#
# 1 0.012528 -0.005294 -0.001688 0.000000 0.000000 0.000000
# 2 -0.005294 0.015256 -0.003635 0.000000 0.000000 0.000000
# 3 -0.001688 -0.003635 0.012835 0.000000 0.000000 0.000000
# 4 0.000000 0.000000 0.000000 0.035211 0.000000 0.000000
# 5 0.000000 0.000000 0.000000 0.000000 0.038079 0.000000
# 6 0.000000 0.000000 0.000000 0.000000 0.000000 0.038546
#
#
# Mechanical properties :
#
#
# Convention : Reuss Voigt Hill
#
# Bulk Modulus (GPa) = 51.59082 51.95957 51.77520
# Shear Modulus (GPa) = 27.75461 28.21593 27.98527
#
# Velocity S-wave (km/s) = 3.76833 3.79952 3.78396
# Velocity P-wave (km/s) = 6.73273 6.77001 6.75139
#
# Compressibility (1/GPa) = 0.01938329
#
# Stress axis : x y z
#
# Youngs Moduli (GPa) = 79.82428 65.54850 77.91322
#
# Poissons Ratio (x) = 0.34700 0.13153
# Poissons Ratio (y) = 0.42257 0.28325
# Poissons Ratio (z) = 0.13476 0.23830
#
# Static dielectric constant tensor:
#      x y z
#    x 3.467760 0.000000 0.000000 
#    y 0.000000 3.780770 0.000000 
#    z 0.000000 0.000000 3.436820 
# 
# 
# High freq. dielectric constant tensor:
#      x y z
#    x 1.752810 0.000000 0.000000 
#    y 0.000000 1.764810 0.000000 
#    z 0.000000 0.000000 1.752040 
# 
# From -- ./inp_files/37272.got.cif
#   From: 2010.03.12/outbox.cif.g09.slc.cpg/sg64_19_cif.got.tgz:37272.got - 2010.04.10 20:19:32.
