data_PCOD8262836
_publ_section_title
;
Structure prediction by ZEFSAII (Michael W. Deem and Ramdas Pophale) SiO2 
 PCOD8262836
Probable space group: C M C A
;
_chemical_formula_sum "Si O2"
_cell_formula_units_Z 48
_cell_length_a 23.041357
_cell_length_b 23.680119
_cell_length_c 4.942806
_cell_angle_alpha 90.000000
_cell_angle_beta 90.000000
_cell_angle_gamma 90.000000
_cell_volume 2696.904069
_symmetry_space_group_name_H-M "C M C A"
_symmetry_group_IT_number 64
_symmetry_cell_setting 'orthorhombic'
loop_
_space_group_symop_operation_xyz
x,y,z
-x,1/2-y,1/2+z
x,-y,-z
-x,1/2+y,1/2-z
-x,-y,-z
x,1/2+y,1/2-z
-x,y,z
x,1/2-y,1/2+z
1/2+x,1/2+y,z
1/2-x,-y,1/2+z
1/2+x,1/2-y,-z
1/2-x,y,1/2-z
1/2-x,1/2-y,-z
1/2+x,y,1/2-z
1/2-x,1/2+y,z
1/2+x,-y,1/2+z
loop_
_atom_site_type_symbol
_atom_site_label
_atom_site_fract_x
_atom_site_fract_y
_atom_site_fract_z
Si Si1 0.627352 0.436514 0.396714
Si Si2 0.500000 0.287674 0.033224
Si Si3 0.564183 0.891858 0.611663
Si Si4 0.250000 0.961699 0.250000
O O1 0.619376 0.500000 0.500000
O O2 0.604641 0.393518 0.624237
O O3 0.695366 0.423440 0.340315
O O4 0.591260 0.429362 0.124467
O O5 0.500000 0.232918 0.841846
O O6 0.442653 0.326296 0.981663
O O7 0.500000 0.916620 0.681332
O O8 0.271538 0.000000 0.500000
#
# Coordination Sequence:
#
# PCOD8262836 Si02
#       4
#    16   8  16   8
#     4  11  20  34  51  77 114 144 171 212 242 306
#     4  10  20  38  55  74 103 132 174 224 264 318
#     4  10  22  33  52  82 104 133 185 200 274 317
#     4  10  20  34  52  72 102 154 190 198 236 292
#
# _framework density 17.798188
#
# number of rings (size 3 to 8) (size 9 to 14) (size 15 to 20)
#    1.000    0.667    0.000    8.000    0.000    4.000 
#    0.000    0.000    0.000    0.000    0.000   23.333 
#    0.000    0.000    0.000    0.000    0.000    0.000 
#
# Total GULP energy -297531.388836 kJ/mol
# GULP energy per Si atom -12397.141202 kJ/mol
# Density = 1.775768 g / cm^3
# Si number density = 17.798188 Si / 1000 Ang^3
#
#
#
# Elastic Constant Matrix: (Units=GPa)
#
#
# Indices 1 2 3 4 5 6 
#
# 1 135.4740 35.9454 50.9381 0.0000 0.0000 0.0000
# 2 35.9454 43.2406 5.2235 0.0000 0.0000 0.0000
# 3 50.9381 5.2235 103.1777 0.0000 0.0000 0.0000
# 4 0.0000 0.0000 0.0000 36.9873 0.0000 0.0000
# 5 0.0000 0.0000 0.0000 0.0000 23.4385 0.0000
# 6 0.0000 0.0000 0.0000 0.0000 0.0000 3.4058
#
#
#
# Elastic Compliance Matrix: (Units=1/GPa)
#
#
# Indices 1 2 3 4 5 6 
#
# 1 0.011845 -0.009197 -0.005382 0.000000 0.000000 0.000000
# 2 -0.009197 0.030409 0.003001 0.000000 0.000000 0.000000
# 3 -0.005382 0.003001 0.012197 0.000000 0.000000 0.000000
# 4 0.000000 0.000000 0.000000 0.027036 0.000000 0.000000
# 5 0.000000 0.000000 0.000000 0.000000 0.042665 0.000000
# 6 0.000000 0.000000 0.000000 0.000000 0.000000 0.293618
#
#
# Mechanical properties :
#
#
# Convention : Reuss Voigt Hill
#
# Bulk Modulus (GPa) = 31.95375 51.78959 41.87167
# Shear Modulus (GPa) = 11.07765 25.41867 18.24816
#
# Velocity S-wave (km/s) = 2.49751 3.78320 3.20548
# Velocity P-wave (km/s) = 5.12924 6.94585 6.10549
#
# Compressibility (1/GPa) = 0.03129524
#
# Stress axis : x y z
#
# Youngs Moduli (GPa) = 84.42052 32.88494 81.98495
#
# Poissons Ratio (x) = 0.30244 0.44128
# Poissons Ratio (y) = 0.77640 -0.24603
# Poissons Ratio (z) = 0.45439 -0.09868
#
# Static dielectric constant tensor:
#      x y z
#    x 3.359950 0.000000 0.000000 
#    y 0.000000 2.924240 0.000000 
#    z 0.000000 0.000000 3.531050 
# 
# 
# High freq. dielectric constant tensor:
#      x y z
#    x 1.682980 0.000000 0.000000 
#    y 0.000000 1.645000 0.000000 
#    z 0.000000 0.000000 1.715170 
# 
# From -- ./inp_files/2160.got.cif
#   From: 2010.03.12/outbox.cif.g09.slc.cpg/sg64_2_cif.got.tgz:2160.got - 2010.04.10 20:19:32.
