data_PCOD8262904
_publ_section_title
;
Structure prediction by ZEFSAII (Michael W. Deem and Ramdas Pophale) SiO2 
 PCOD8262904
Probable space group: C M C A
;
_chemical_formula_sum "Si O2"
_cell_formula_units_Z 96
_cell_length_a 8.781307
_cell_length_b 23.392907
_cell_length_c 25.252373
_cell_angle_alpha 90.000000
_cell_angle_beta 90.000000
_cell_angle_gamma 90.000000
_cell_volume 5187.349987
_symmetry_space_group_name_H-M "C M C A"
_symmetry_group_IT_number 64
_symmetry_cell_setting 'orthorhombic'
loop_
_space_group_symop_operation_xyz
x,y,z
-x,1/2-y,1/2+z
x,-y,-z
-x,1/2+y,1/2-z
-x,-y,-z
x,1/2+y,1/2-z
-x,y,z
x,1/2-y,1/2+z
1/2+x,1/2+y,z
1/2-x,-y,1/2+z
1/2+x,1/2-y,-z
1/2-x,y,1/2-z
1/2-x,1/2-y,-z
1/2+x,y,1/2-z
1/2-x,1/2+y,z
1/2+x,-y,1/2+z
loop_
_atom_site_type_symbol
_atom_site_label
_atom_site_fract_x
_atom_site_fract_y
_atom_site_fract_z
Si Si1 0.675495 0.065512 0.494491
Si Si2 0.178196 0.750467 0.942094
Si Si3 0.176946 0.863436 0.595769
Si Si4 0.680074 0.560429 0.805625
Si Si5 0.675558 0.861174 0.402498
Si Si6 0.820715 0.560195 0.194623
O O1 0.500000 0.072093 0.476874
O O2 0.782784 0.093192 0.450894
O O3 0.706799 0.095261 0.550172
O O4 0.722787 0.000000 0.500000
O O5 0.229008 0.805356 0.908903
O O6 0.222667 0.694821 0.908858
O O7 0.000000 0.752795 0.950491
O O8 0.250000 0.750000 0.000000
O O9 0.219398 0.891930 0.651595
O O10 0.000000 0.848428 0.592006
O O11 0.500000 0.553346 0.800536
O O12 0.750000 0.580540 0.750000
O O13 0.724710 0.608062 0.848427
O O14 0.748428 0.499775 0.823573
O O15 0.500000 0.842262 0.401182
O O16 0.750000 0.580937 0.250000
O O17 0.000000 0.551328 0.201139
#
# Coordination Sequence:
#
# PCOD8262904 Si02
#       6
#    16  16  16  16  16  16
#     4  10  20  34  55  83 114 149 186 229 285 343
#     4  12  24  39  60  83 112 152 193 236 285 343
#     4  11  23  38  57  84 115 149 191 238 287 338
#     4  10  20  36  60  87 118 154 191 235 284 339
#     4  10  21  37  57  83 115 151 192 235 281 337
#     4  10  21  37  59  86 117 152 191 236 285 340
#
# _framework density 18.50656
#
# number of rings (size 3 to 8) (size 9 to 14) (size 15 to 20)
#    0.000    1.500    1.667    5.000    0.000    5.667 
#    0.000    0.833    0.000    0.000    0.000    0.000 
#    0.000    0.000    0.000    0.000    0.000    0.000 
#
# Total GULP energy -595443.083026 kJ/mol
# GULP energy per Si atom -12405.064230 kJ/mol
# Density = 1.846444 g / cm^3
# Si number density = 18.506560 Si / 1000 Ang^3
#
#
#
# Elastic Constant Matrix: (Units=GPa)
#
#
# Indices 1 2 3 4 5 6 
#
# 1 116.6166 68.0438 69.4196 0.0000 0.0000 0.0000
# 2 68.0438 151.0015 78.7385 0.0000 0.0000 0.0000
# 3 69.4196 78.7385 126.3198 0.0000 0.0000 0.0000
# 4 0.0000 0.0000 0.0000 34.6515 0.0000 0.0000
# 5 0.0000 0.0000 0.0000 0.0000 32.2981 0.0000
# 6 0.0000 0.0000 0.0000 0.0000 0.0000 36.4857
#
#
#
# Elastic Compliance Matrix: (Units=1/GPa)
#
#
# Indices 1 2 3 4 5 6 
#
# 1 0.013803 -0.003355 -0.005494 0.000000 0.000000 0.000000
# 2 -0.003355 0.010627 -0.004780 0.000000 0.000000 0.000000
# 3 -0.005494 -0.004780 0.013916 0.000000 0.000000 0.000000
# 4 0.000000 0.000000 0.000000 0.028859 0.000000 0.000000
# 5 0.000000 0.000000 0.000000 0.000000 0.030962 0.000000
# 6 0.000000 0.000000 0.000000 0.000000 0.000000 0.027408
#
#
# Mechanical properties :
#
#
# Convention : Reuss Voigt Hill
#
# Bulk Modulus (GPa) = 90.20036 91.81577 91.00806
# Shear Modulus (GPa) = 31.94291 32.53615 32.23953
#
# Velocity S-wave (km/s) = 4.15906 4.19750 4.17833
# Velocity P-wave (km/s) = 8.47993 8.55642 8.51826
#
# Compressibility (1/GPa) = 0.01108643
#
# Stress axis : x y z
#
# Youngs Moduli (GPa) = 72.44563 94.10070 71.86180
#
# Poissons Ratio (x) = 0.31571 0.39484
# Poissons Ratio (y) = 0.24306 0.34352
# Poissons Ratio (z) = 0.39805 0.44983
#
# Static dielectric constant tensor:
#      x y z
#    x 3.523040 0.000000 0.000000 
#    y 0.000000 3.482290 0.000000 
#    z 0.000000 0.000000 3.505600 
# 
# 
# High freq. dielectric constant tensor:
#      x y z
#    x 1.727420 0.000000 0.000000 
#    y 0.000000 1.721480 0.000000 
#    z 0.000000 0.000000 1.720200 
# 
# From -- ./inp_files/42988.got.cif
#   From: 2010.03.12/outbox.cif.g09.slc.cpg/sg64_22_cif.got.tgz:42988.got - 2010.04.10 20:19:32.
