data_PCOD8262675
_publ_section_title
;
Structure prediction by ZEFSAII (Michael W. Deem and Ramdas Pophale) SiO2 
 PCOD8262675
Probable space group: C M C A
;
_chemical_formula_sum "Si O2"
_cell_formula_units_Z 80
_cell_length_a 25.222707
_cell_length_b 12.063153
_cell_length_c 13.522866
_cell_angle_alpha 90.000000
_cell_angle_beta 90.000000
_cell_angle_gamma 90.000000
_cell_volume 4114.539876
_symmetry_space_group_name_H-M "C M C A"
_symmetry_group_IT_number 64
_symmetry_cell_setting 'orthorhombic'
loop_
_space_group_symop_operation_xyz
x,y,z
-x,1/2-y,1/2+z
x,-y,-z
-x,1/2+y,1/2-z
-x,-y,-z
x,1/2+y,1/2-z
-x,y,z
x,1/2-y,1/2+z
1/2+x,1/2+y,z
1/2-x,-y,1/2+z
1/2+x,1/2-y,-z
1/2-x,y,1/2-z
1/2-x,1/2-y,-z
1/2+x,y,1/2-z
1/2-x,1/2+y,z
1/2+x,-y,1/2+z
loop_
_atom_site_type_symbol
_atom_site_label
_atom_site_fract_x
_atom_site_fract_y
_atom_site_fract_z
Si Si1 0.700124 0.953918 0.105351
Si Si2 0.560058 0.372815 0.530112
Si Si3 0.866554 0.260862 0.598713
Si Si4 0.207196 0.180559 0.937893
Si Si5 0.147848 0.846272 0.692430
O O1 0.672855 0.838006 0.127986
O O2 0.764076 0.932272 0.100410
O O3 0.683965 0.042700 0.188378
O O4 0.679139 0.000000 0.000000
O O5 0.564289 0.500000 0.500000
O O6 0.500000 0.340135 0.556482
O O7 0.578793 0.293142 0.440159
O O8 0.595979 0.353480 0.625436
O O9 0.841592 0.340249 0.513402
O O10 0.874484 0.332582 0.697095
O O11 0.185916 0.246472 0.842442
O O12 0.250000 0.250000 0.000000
#
# Coordination Sequence:
#
# PCOD8262675 Si02
#       5
#    16  16  16  16  16
#     4  11  18  39  55  73 118 156 187 241 274 337
#     4  10  19  38  66  85 110 151 189 243 305 349
#     4  10  20  36  57  87 113 147 197 242 280 347
#     4   9  19  35  51  79 115 153 190 231 276 341
#     4  11  20  37  57  85 119 148 195 242 285 343
#
# _framework density 19.443244
#
# number of rings (size 3 to 8) (size 9 to 14) (size 15 to 20)
#    0.000    1.800    8.000    0.000    0.000    4.000 
#    7.200    0.000    0.000    0.000    0.000    1.400 
#    0.000    0.000    0.000    0.000    0.000    0.000 
#
# Total GULP energy -495778.527065 kJ/mol
# GULP energy per Si atom -12394.463177 kJ/mol
# Density = 1.939899 g / cm^3
# Si number density = 19.443244 Si / 1000 Ang^3
#
#
#
# Elastic Constant Matrix: (Units=GPa)
#
#
# Indices 1 2 3 4 5 6 
#
# 1 125.3079 47.5630 46.2089 0.0000 0.0000 0.0000
# 2 47.5630 74.4137 48.4807 0.0000 0.0000 0.0000
# 3 46.2089 48.4807 74.6584 0.0000 0.0000 0.0000
# 4 0.0000 0.0000 0.0000 27.1278 0.0000 0.0000
# 5 0.0000 0.0000 0.0000 0.0000 9.7501 0.0000
# 6 0.0000 0.0000 0.0000 0.0000 0.0000 26.3311
#
#
#
# Elastic Compliance Matrix: (Units=1/GPa)
#
#
# Indices 1 2 3 4 5 6 
#
# 1 0.011170 -0.004568 -0.003947 0.000000 0.000000 0.000000
# 2 -0.004568 0.025161 -0.013511 0.000000 0.000000 0.000000
# 3 -0.003947 -0.013511 0.024611 0.000000 0.000000 0.000000
# 4 0.000000 0.000000 0.000000 0.036863 0.000000 0.000000
# 5 0.000000 0.000000 0.000000 0.000000 0.102563 0.000000
# 6 0.000000 0.000000 0.000000 0.000000 0.000000 0.037978
#
#
# Mechanical properties :
#
#
# Convention : Reuss Voigt Hill
#
# Bulk Modulus (GPa) = 59.21017 62.09837 60.65427
# Shear Modulus (GPa) = 17.35944 21.45028 19.40486
#
# Velocity S-wave (km/s) = 2.99126 3.32509 3.16258
# Velocity P-wave (km/s) = 6.51530 6.83734 6.67826
#
# Compressibility (1/GPa) = 0.01688899
#
# Stress axis : x y z
#
# Youngs Moduli (GPa) = 89.52802 39.74474 40.63189
#
# Poissons Ratio (x) = 0.18154 0.16038
# Poissons Ratio (y) = 0.40894 0.54899
# Poissons Ratio (z) = 0.35339 0.53700
#
# Static dielectric constant tensor:
#      x y z
#    x 3.722050 0.000000 0.000000 
#    y 0.000000 3.569040 0.000000 
#    z 0.000000 0.000000 3.455990 
# 
# 
# High freq. dielectric constant tensor:
#      x y z
#    x 1.740870 0.000000 0.000000 
#    y 0.000000 1.740250 0.000000 
#    z 0.000000 0.000000 1.748580 
# 
# From -- ./inp_files/27895.got.cif
#   From: 2010.03.12/outbox.cif.g09.slc.cpg/sg64_14_cif.got.tgz:27895.got - 2010.04.10 20:19:32.
