data_PCOD8262568
_publ_section_title
;
Structure prediction by ZEFSAII (Michael W. Deem and Ramdas Pophale) SiO2 
 PCOD8262568
Probable space group: C M C A
;
_chemical_formula_sum "Si O2"
_cell_formula_units_Z 88
_cell_length_a 15.590687
_cell_length_b 27.844203
_cell_length_c 10.182929
_cell_angle_alpha 90.000000
_cell_angle_beta 90.000000
_cell_angle_gamma 90.000000
_cell_volume 4420.513892
_symmetry_space_group_name_H-M "C M C A"
_symmetry_group_IT_number 64
_symmetry_cell_setting 'orthorhombic'
loop_
_space_group_symop_operation_xyz
x,y,z
-x,1/2-y,1/2+z
x,-y,-z
-x,1/2+y,1/2-z
-x,-y,-z
x,1/2+y,1/2-z
-x,y,z
x,1/2-y,1/2+z
1/2+x,1/2+y,z
1/2-x,-y,1/2+z
1/2+x,1/2-y,-z
1/2-x,y,1/2-z
1/2-x,1/2-y,-z
1/2+x,y,1/2-z
1/2-x,1/2+y,z
1/2+x,-y,1/2+z
loop_
_atom_site_type_symbol
_atom_site_label
_atom_site_fract_x
_atom_site_fract_y
_atom_site_fract_z
Si Si1 0.900799 0.950619 0.423937
Si Si2 0.327644 0.159742 0.611728
Si Si3 0.750000 0.425487 0.250000
Si Si4 0.095489 0.860313 0.587654
Si Si5 0.599715 0.185762 0.346419
Si Si6 0.349097 0.293706 0.372183
O O1 0.831000 0.955986 0.306079
O O2 0.865026 0.907170 0.516343
O O3 0.000000 0.940593 0.375343
O O4 0.899042 0.000000 0.500000
O O5 0.289679 0.106921 0.634037
O O6 0.386335 0.157856 0.482941
O O7 0.379463 0.177858 0.740396
O O8 0.249888 0.196932 0.592278
O O9 0.140953 0.845009 0.725454
O O10 0.094677 0.814072 0.491806
O O11 0.000000 0.875348 0.624874
O O12 0.500000 0.193574 0.319751
O O13 0.642701 0.237424 0.353499
#
# Coordination Sequence:
#
# PCOD8262568 Si02
#       6
#    16  16   8  16  16  16
#     4  10  21  42  70  93 120 160 207 256 310 378
#     4  10  21  36  55  80 115 154 204 250 300 362
#     4  10  20  44  62  94 118 156 206 248 316 372
#     4  10  20  36  57  84 117 153 198 246 295 362
#     4  11  23  34  51  83 120 156 202 251 305 355
#     4  10  19  36  54  77 111 157 200 245 293 362
#
# _framework density 19.907188000000001
#
# number of rings (size 3 to 8) (size 9 to 14) (size 15 to 20)
#    0.000    2.000    3.636    2.182    0.000    5.818 
#    3.273    0.000    0.000    0.545    0.000    0.000 
#    0.000    0.000    0.000    0.000    0.000    0.000 
#
# Total GULP energy -545244.912033 kJ/mol
# GULP energy per Si atom -12391.929819 kJ/mol
# Density = 1.986188 g / cm^3
# Si number density = 19.907188 Si / 1000 Ang^3
#
#
#
# Elastic Constant Matrix: (Units=GPa)
#
#
# Indices 1 2 3 4 5 6 
#
# 1 74.1491 27.4361 34.0836 0.0000 0.0000 0.0000
# 2 27.4361 74.4551 27.4835 0.0000 0.0000 0.0000
# 3 34.0836 27.4835 136.5123 0.0000 0.0000 0.0000
# 4 0.0000 0.0000 0.0000 15.5217 0.0000 0.0000
# 5 0.0000 0.0000 0.0000 0.0000 31.4828 0.0000
# 6 0.0000 0.0000 0.0000 0.0000 0.0000 10.9335
#
#
#
# Elastic Compliance Matrix: (Units=1/GPa)
#
#
# Indices 1 2 3 4 5 6 
#
# 1 0.016807 -0.005017 -0.003186 0.000000 0.000000 0.000000
# 2 -0.005017 0.016007 -0.001970 0.000000 0.000000 0.000000
# 3 -0.003186 -0.001970 0.008517 0.000000 0.000000 0.000000
# 4 0.000000 0.000000 0.000000 0.064426 0.000000 0.000000
# 5 0.000000 0.000000 0.000000 0.000000 0.031763 0.000000
# 6 0.000000 0.000000 0.000000 0.000000 0.000000 0.091462
#
#
# Mechanical properties :
#
#
# Convention : Reuss Voigt Hill
#
# Bulk Modulus (GPa) = 47.65339 51.45810 49.55575
# Shear Modulus (GPa) = 19.50649 24.66182 22.08415
#
# Velocity S-wave (km/s) = 3.13369 3.52353 3.33431
# Velocity P-wave (km/s) = 6.08959 6.51605 6.30642
#
# Compressibility (1/GPa) = 0.02098486
#
# Stress axis : x y z
#
# Youngs Moduli (GPa) = 59.49761 62.47319 117.40570
#
# Poissons Ratio (x) = 0.31344 0.37409
# Poissons Ratio (y) = 0.29851 0.23128
# Poissons Ratio (z) = 0.18958 0.12307
#
# Static dielectric constant tensor:
#      x y z
#    x 3.619300 0.000000 0.000000 
#    y 0.000000 3.413290 0.000000 
#    z 0.000000 0.000000 3.883610 
# 
# 
# High freq. dielectric constant tensor:
#      x y z
#    x 1.767540 0.000000 0.000000 
#    y 0.000000 1.753440 0.000000 
#    z 0.000000 0.000000 1.776510 
# 
# From -- ./inp_files/7322.got.cif
#   From: 2010.03.12/outbox.cif.g09.slc.cpg/sg64_4_cif.got.tgz:7322.got - 2010.04.10 20:19:32.
