data_PCOD8262053
_publ_section_title
;
Structure prediction by ZEFSAII (Michael W. Deem and Ramdas Pophale) SiO2 
 PCOD8262053
Probable space group: C M C A
;
_chemical_formula_sum "Si O2"
_cell_formula_units_Z 112
_cell_length_a 9.226023
_cell_length_b 29.862272
_cell_length_c 22.638650
_cell_angle_alpha 90.000000
_cell_angle_beta 90.000000
_cell_angle_gamma 90.000000
_cell_volume 6237.174649
_symmetry_space_group_name_H-M "C M C A"
_symmetry_group_IT_number 64
_symmetry_cell_setting 'orthorhombic'
loop_
_space_group_symop_operation_xyz
x,y,z
-x,1/2-y,1/2+z
x,-y,-z
-x,1/2+y,1/2-z
-x,-y,-z
x,1/2+y,1/2-z
-x,y,z
x,1/2-y,1/2+z
1/2+x,1/2+y,z
1/2-x,-y,1/2+z
1/2+x,1/2-y,-z
1/2-x,y,1/2-z
1/2-x,1/2-y,-z
1/2+x,y,1/2-z
1/2-x,1/2+y,z
1/2+x,-y,1/2+z
loop_
_atom_site_type_symbol
_atom_site_label
_atom_site_fract_x
_atom_site_fract_y
_atom_site_fract_z
Si Si1 0.169738 0.287152 0.920552
Si Si2 0.828489 0.896967 0.412342
Si Si3 0.671779 0.346714 0.691310
Si Si4 0.669603 0.699206 0.554601
Si Si5 0.172549 0.960616 0.308335
Si Si6 0.828177 0.442639 0.849924
Si Si7 0.172984 0.451977 0.979948
O O1 0.221343 0.319740 0.867496
O O2 0.247347 0.239514 0.913930
O O3 0.000000 0.278813 0.915264
O O4 0.209536 0.307296 0.985088
O O5 0.782630 0.845028 0.409078
O O6 0.769224 0.926801 0.358582
O O7 0.766389 0.915937 0.473795
O O8 0.000000 0.901632 0.413322
O O9 0.500000 0.342914 0.699861
O O10 0.750000 0.327275 0.750000
O O11 0.723297 0.398429 0.684767
O O12 0.500000 0.708687 0.560788
O O13 0.250000 0.942988 0.250000
O O14 0.000000 0.958511 0.301806
O O15 0.226924 0.011422 0.320205
O O16 0.763521 0.439958 0.915916
O O17 0.000000 0.443633 0.853506
O O18 0.000000 0.452037 0.977917
O O19 0.231412 0.500000 0.000000
#
# Coordination Sequence:
#
# PCOD8262053 Si02
#       7
#    16  16  16  16  16  16  16
#     4   9  18  33  51  73  99 124 154 197 246 291
#     4   9  16  27  45  71  98 121 152 194 235 275
#     4  10  20  33  49  71 100 131 163 199 239 286
#     4   9  17  31  53  76  97 122 154 196 246 294
#     4  10  19  31  46  66  94 127 160 191 224 270
#     4   9  16  27  45  70  98 125 155 193 238 282
#     4   9  13  21  41  71  99 120 147 192 241 275
#
# _framework density 17.956848999999998
#
# number of rings (size 3 to 8) (size 9 to 14) (size 15 to 20)
#    0.000    2.714    1.429    1.286    0.000    4.000 
#    0.000    1.429    0.000    3.429    0.000    4.000 
#    0.000    0.000    0.000    0.000    0.000    0.000 
#
# Total GULP energy -694087.170808 kJ/mol
# GULP energy per Si atom -12394.413764 kJ/mol
# Density = 1.791598 g / cm^3
# Si number density = 17.956849 Si / 1000 Ang^3
#
#
#
# Elastic Constant Matrix: (Units=GPa)
#
#
# Indices 1 2 3 4 5 6 
#
# 1 15.8906 24.7634 24.1201 0.0000 0.0000 0.0000
# 2 24.7634 127.2860 54.8979 0.0000 0.0000 0.0000
# 3 24.1201 54.8979 117.4820 0.0000 0.0000 0.0000
# 4 0.0000 0.0000 0.0000 25.2853 0.0000 0.0000
# 5 0.0000 0.0000 0.0000 0.0000 24.0544 0.0000
# 6 0.0000 0.0000 0.0000 0.0000 0.0000 19.8075
#
#
#
# Elastic Compliance Matrix: (Units=1/GPa)
#
#
# Indices 1 2 3 4 5 6 
#
# 1 0.109321 -0.014513 -0.015663 0.000000 0.000000 0.000000
# 2 -0.014513 0.011766 -0.002518 0.000000 0.000000 0.000000
# 3 -0.015663 -0.002518 0.012905 0.000000 0.000000 0.000000
# 4 0.000000 0.000000 0.000000 0.039549 0.000000 0.000000
# 5 0.000000 0.000000 0.000000 0.000000 0.041572 0.000000
# 6 0.000000 0.000000 0.000000 0.000000 0.000000 0.050486
#
#
# Mechanical properties :
#
#
# Convention : Reuss Voigt Hill
#
# Bulk Modulus (GPa) = 14.57661 52.02460 33.30060
# Shear Modulus (GPa) = 14.13007 24.28790 19.20898
#
# Velocity S-wave (km/s) = 2.80820 3.68172 3.27422
# Velocity P-wave (km/s) = 4.31855 6.86355 5.73403
#
# Compressibility (1/GPa) = 0.06860305
#
# Stress axis : x y z
#
# Youngs Moduli (GPa) = 9.14735 84.99040 77.49232
#
# Poissons Ratio (x) = 1.23347 1.21375
# Poissons Ratio (y) = 0.13276 0.19516
# Poissons Ratio (z) = 0.14327 0.21405
#
# Static dielectric constant tensor:
#      x y z
#    x 2.776300 0.000000 0.000000 
#    y 0.000000 3.468290 0.000000 
#    z 0.000000 0.000000 3.424370 
# 
# 
# High freq. dielectric constant tensor:
#      x y z
#    x 1.638970 0.000000 0.000000 
#    y 0.000000 1.699450 0.000000 
#    z 0.000000 0.000000 1.699060 
# 
# From -- ./inp_files/38555.got.cif
#   From: 2010.03.12/outbox.cif.g09.slc.cpg/sg64_20_cif.got.tgz:38555.got - 2010.04.10 20:19:32.
