data_PCOD8262603
_publ_section_title
;
Structure prediction by ZEFSAII (Michael W. Deem and Ramdas Pophale) SiO2 
 PCOD8262603
Probable space group: C M C A
;
_chemical_formula_sum "Si O2"
_cell_formula_units_Z 104
_cell_length_a 19.089007
_cell_length_b 19.242113
_cell_length_c 14.271243
_cell_angle_alpha 90.000000
_cell_angle_beta 90.000000
_cell_angle_gamma 90.000000
_cell_volume 5242.010650
_symmetry_space_group_name_H-M "C M C A"
_symmetry_group_IT_number 64
_symmetry_cell_setting 'orthorhombic'
loop_
_space_group_symop_operation_xyz
x,y,z
-x,1/2-y,1/2+z
x,-y,-z
-x,1/2+y,1/2-z
-x,-y,-z
x,1/2+y,1/2-z
-x,y,z
x,1/2-y,1/2+z
1/2+x,1/2+y,z
1/2-x,-y,1/2+z
1/2+x,1/2-y,-z
1/2-x,y,1/2-z
1/2-x,1/2-y,-z
1/2+x,y,1/2-z
1/2-x,1/2+y,z
1/2+x,-y,1/2+z
loop_
_atom_site_type_symbol
_atom_site_label
_atom_site_fract_x
_atom_site_fract_y
_atom_site_fract_z
Si Si1 0.577860 0.122278 0.568297
Si Si2 0.081824 0.323341 0.117566
Si Si3 0.917940 0.223231 0.413501
Si Si4 0.334302 0.000000 0.500000
Si Si5 0.668480 0.291137 0.769450
Si Si6 0.922154 0.049869 0.736250
Si Si7 0.316830 0.058317 0.311613
O O1 0.500000 0.121535 0.526891
O O2 0.608864 0.199387 0.561186
O O3 0.619444 0.069041 0.504253
O O4 0.580104 0.101130 0.676004
O O5 0.131589 0.269667 0.172052
O O6 0.101469 0.401885 0.149056
O O7 0.000000 0.306495 0.140748
O O8 0.095319 0.322517 0.006226
O O9 0.870755 0.194838 0.329157
O O10 0.000000 0.223697 0.384303
O O11 0.292457 0.984999 0.595512
O O12 0.750000 0.271974 0.750000
O O13 0.659138 0.362211 0.829867
O O14 0.000000 0.020499 0.719528
O O15 0.874623 0.983040 0.752452
O O16 0.250000 0.064623 0.250000
#
# Coordination Sequence:
#
# PCOD8262603 Si02
#       7
#    16  16  16   8  16  16  16
#     4   9  16  30  55  86 116 144 181 240 294 345
#     4  10  20  37  61  88 117 152 195 245 295 355
#     4  10  20  36  59  87 118 155 198 241 296 359
#     4  10  19  36  60  82 115 150 200 242 296 350
#     4  11  23  39  57  85 124 157 197 251 298 354
#     4   9  18  35  57  82 113 146 189 240 289 346
#     4  10  23  41  56  84 118 157 197 243 295 351
#
# _framework density 19.839715999999999
#
# number of rings (size 3 to 8) (size 9 to 14) (size 15 to 20)
#    0.000    2.154    1.538    1.615    0.000    3.077 
#    5.538    0.000    0.000    2.769    0.000    0.000 
#    0.000    0.000    0.000    0.000    0.000    0.000 
#
# Total GULP energy -644532.590276 kJ/mol
# GULP energy per Si atom -12394.857505 kJ/mol
# Density = 1.979456 g / cm^3
# Si number density = 19.839716 Si / 1000 Ang^3
#
#
#
# Elastic Constant Matrix: (Units=GPa)
#
#
# Indices 1 2 3 4 5 6 
#
# 1 62.1742 22.5400 19.1419 0.0000 0.0000 0.0000
# 2 22.5400 59.0672 6.6980 0.0000 0.0000 0.0000
# 3 19.1419 6.6980 73.0412 0.0000 0.0000 0.0000
# 4 0.0000 0.0000 0.0000 20.3854 0.0000 0.0000
# 5 0.0000 0.0000 0.0000 0.0000 14.7004 0.0000
# 6 0.0000 0.0000 0.0000 0.0000 0.0000 30.5914
#
#
#
# Elastic Compliance Matrix: (Units=1/GPa)
#
#
# Indices 1 2 3 4 5 6 
#
# 1 0.020094 -0.007145 -0.004611 0.000000 0.000000 0.000000
# 2 -0.007145 0.019648 0.000071 0.000000 0.000000 0.000000
# 3 -0.004611 0.000071 0.014893 0.000000 0.000000 0.000000
# 4 0.000000 0.000000 0.000000 0.049055 0.000000 0.000000
# 5 0.000000 0.000000 0.000000 0.000000 0.068026 0.000000
# 6 0.000000 0.000000 0.000000 0.000000 0.000000 0.032689
#
#
# Mechanical properties :
#
#
# Convention : Reuss Voigt Hill
#
# Bulk Modulus (GPa) = 31.98481 32.33803 32.16142
# Shear Modulus (GPa) = 20.99118 22.86228 21.92673
#
# Velocity S-wave (km/s) = 3.25628 3.39831 3.32805
# Velocity P-wave (km/s) = 5.50404 5.63321 5.56900
#
# Compressibility (1/GPa) = 0.03126485
#
# Stress axis : x y z
#
# Youngs Moduli (GPa) = 49.76711 50.89495 67.14669
#
# Poissons Ratio (x) = 0.36364 0.30960
# Poissons Ratio (y) = 0.35558 -0.00474
# Poissons Ratio (z) = 0.22946 -0.00360
#
# Static dielectric constant tensor:
#      x y z
#    x 3.780610 0.000000 0.000000 
#    y 0.000000 3.787260 0.000000 
#    z 0.000000 0.000000 3.667100 
# 
# 
# High freq. dielectric constant tensor:
#      x y z
#    x 1.756080 0.000000 0.000000 
#    y 0.000000 1.775790 0.000000 
#    z 0.000000 0.000000 1.774700 
# 
# From -- ./inp_files/25637.got.cif
#   From: 2010.03.12/outbox.cif.g09.slc.cpg/sg64_13_cif.got.tgz:25637.got - 2010.04.10 20:19:32.
