data_PCOD8262331
_publ_section_title
;
Structure prediction by ZEFSAII (Michael W. Deem and Ramdas Pophale) SiO2 
 PCOD8262331
Probable space group: C M C A
;
_chemical_formula_sum "Si O2"
_cell_formula_units_Z 96
_cell_length_a 30.932494
_cell_length_b 20.043015
_cell_length_c 8.392080
_cell_angle_alpha 90.000000
_cell_angle_beta 90.000000
_cell_angle_gamma 90.000000
_cell_volume 5202.925461
_symmetry_space_group_name_H-M "C M C A"
_symmetry_group_IT_number 64
_symmetry_cell_setting 'orthorhombic'
loop_
_space_group_symop_operation_xyz
x,y,z
-x,1/2-y,1/2+z
x,-y,-z
-x,1/2+y,1/2-z
-x,-y,-z
x,1/2+y,1/2-z
-x,y,z
x,1/2-y,1/2+z
1/2+x,1/2+y,z
1/2-x,-y,1/2+z
1/2+x,1/2-y,-z
1/2-x,y,1/2-z
1/2-x,1/2-y,-z
1/2+x,y,1/2-z
1/2-x,1/2+y,z
1/2+x,-y,1/2+z
loop_
_atom_site_type_symbol
_atom_site_label
_atom_site_fract_x
_atom_site_fract_y
_atom_site_fract_z
Si Si1 0.368010 0.683849 0.163551
Si Si2 0.381482 0.930841 0.425610
Si Si3 0.226785 0.690345 0.408650
Si Si4 0.452056 0.158435 0.747995
Si Si5 0.285203 0.561305 0.885647
Si Si6 0.420731 0.219524 0.050579
O O1 0.319753 0.712400 0.157623
O O2 0.387185 0.677342 0.341612
O O3 0.371452 0.612505 0.081518
O O4 0.394562 0.739678 0.076812
O O5 0.416865 0.895567 0.312701
O O6 0.335926 0.939711 0.329164
O O7 0.399193 0.000000 0.500000
O O8 0.250000 0.665811 0.250000
O O9 0.250000 0.750000 0.500000
O O10 0.224689 0.630658 0.531453
O O11 0.500000 0.129685 0.714092
O O12 0.448995 0.229481 0.656282
O O13 0.448419 0.168912 0.940093
O O14 0.250000 0.552364 0.750000
O O15 0.277194 0.500000 0.000000
#
# Coordination Sequence:
#
# PCOD8262331 Si02
#       6
#    16  16  16  16  16  16
#     4   9  18  33  51  72 104 138 169 213 264 315
#     4   9  20  37  54  75 105 141 179 216 261 319
#     4  11  21  31  49  78 108 138 176 222 270 320
#     4  10  19  33  55  80 106 137 175 223 272 320
#     4  10  21  38  56  77 106 142 183 224 268 324
#     4   9  18  32  52  77 103 134 174 216 266 320
#
# _framework density 18.451158
#
# number of rings (size 3 to 8) (size 9 to 14) (size 15 to 20)
#    0.000    2.333    0.000    2.500    0.000    7.000 
#    0.000    1.667    0.000    1.000    0.000    0.000 
#    0.000    0.000    0.000    0.000    0.000    0.000 
#
# Total GULP energy -594821.258705 kJ/mol
# GULP energy per Si atom -12392.109556 kJ/mol
# Density = 1.840916 g / cm^3
# Si number density = 18.451158 Si / 1000 Ang^3
#
#
#
# Elastic Constant Matrix: (Units=GPa)
#
#
# Indices 1 2 3 4 5 6 
#
# 1 140.6618 47.5062 63.9325 0.0000 0.0000 0.0000
# 2 47.5062 81.3536 27.6186 0.0000 0.0000 0.0000
# 3 63.9325 27.6186 99.7039 0.0000 0.0000 0.0000
# 4 0.0000 0.0000 0.0000 117.9726 0.0000 0.0000
# 5 0.0000 0.0000 0.0000 0.0000 25.8121 0.0000
# 6 0.0000 0.0000 0.0000 0.0000 0.0000 29.5557
#
#
#
# Elastic Compliance Matrix: (Units=1/GPa)
#
#
# Indices 1 2 3 4 5 6 
#
# 1 0.011413 -0.004614 -0.006040 0.000000 0.000000 0.000000
# 2 -0.004614 0.015433 -0.001317 0.000000 0.000000 0.000000
# 3 -0.006040 -0.001317 0.014267 0.000000 0.000000 0.000000
# 4 0.000000 0.000000 0.000000 0.008477 0.000000 0.000000
# 5 0.000000 0.000000 0.000000 0.000000 0.038742 0.000000
# 6 0.000000 0.000000 0.000000 0.000000 0.000000 0.033834
#
#
# Mechanical properties :
#
#
# Convention : Reuss Voigt Hill
#
# Bulk Modulus (GPa) = 58.23304 66.64820 62.44062
# Shear Modulus (GPa) = 32.93128 46.84553 39.88840
#
# Velocity S-wave (km/s) = 4.22925 5.04421 4.65460
# Velocity P-wave (km/s) = 7.44835 8.37408 7.92474
#
# Compressibility (1/GPa) = 0.01717238
#
# Stress axis : x y z
#
# Youngs Moduli (GPa) = 87.62078 64.79513 70.08973
#
# Poissons Ratio (x) = 0.29896 0.42335
# Poissons Ratio (y) = 0.40428 0.09228
# Poissons Ratio (z) = 0.52924 0.08531
#
# Static dielectric constant tensor:
#      x y z
#    x 3.619210 0.000000 0.000000 
#    y 0.000000 3.334350 0.000000 
#    z 0.000000 0.000000 3.671770 
# 
# 
# High freq. dielectric constant tensor:
#      x y z
#    x 1.724690 0.000000 0.000000 
#    y 0.000000 1.702490 0.000000 
#    z 0.000000 0.000000 1.713040 
# 
# From -- ./inp_files/10380.got.cif
#   From: 2010.03.12/outbox.cif.g09.slc.cpg/sg64_6_cif.got.tgz:10380.got - 2010.04.10 20:19:32.
