data_PCOD8262554
_publ_section_title
;
Structure prediction by ZEFSAII (Michael W. Deem and Ramdas Pophale) SiO2 
 PCOD8262554
Probable space group: C M C A
;
_chemical_formula_sum "Si O2"
_cell_formula_units_Z 128
_cell_length_a 22.317289
_cell_length_b 11.213256
_cell_length_c 23.801649
_cell_angle_alpha 90.000000
_cell_angle_beta 90.000000
_cell_angle_gamma 90.000000
_cell_volume 5956.350161
_symmetry_space_group_name_H-M "C M C A"
_symmetry_group_IT_number 64
_symmetry_cell_setting 'orthorhombic'
loop_
_space_group_symop_operation_xyz
x,y,z
-x,1/2-y,1/2+z
x,-y,-z
-x,1/2+y,1/2-z
-x,-y,-z
x,1/2+y,1/2-z
-x,y,z
x,1/2-y,1/2+z
1/2+x,1/2+y,z
1/2-x,-y,1/2+z
1/2+x,1/2-y,-z
1/2-x,y,1/2-z
1/2-x,1/2-y,-z
1/2+x,y,1/2-z
1/2-x,1/2+y,z
1/2+x,-y,1/2+z
loop_
_atom_site_type_symbol
_atom_site_label
_atom_site_fract_x
_atom_site_fract_y
_atom_site_fract_z
Si Si1 0.368482 0.383120 0.852086
Si Si2 0.831932 0.755701 0.625828
Si Si3 0.783987 0.798826 0.307196
Si Si4 0.295083 0.464033 0.062186
Si Si5 0.430088 0.702659 0.567901
Si Si6 0.832334 0.472222 0.106392
Si Si7 0.433779 0.385525 0.154928
Si Si8 0.066138 0.121010 0.978544
O O1 0.333055 0.307919 0.803841
O O2 0.318167 0.437789 0.893524
O O3 0.415025 0.299400 0.884282
O O4 0.408136 0.487416 0.823706
O O5 0.766312 0.747919 0.650774
O O6 0.831624 0.660843 0.573084
O O7 0.883982 0.714927 0.670582
O O8 0.846786 0.888579 0.608078
O O9 0.750000 0.831071 0.250000
O O10 0.816505 0.916997 0.331939
O O11 0.224253 0.445985 0.066984
O O12 0.310847 0.500000 0.000000
O O13 0.500000 0.666026 0.571063
O O14 0.390878 0.585142 0.578711
O O15 0.408882 0.757822 0.507703
O O16 0.500000 0.362748 0.181549
O O17 0.438550 0.377430 0.087986
O O18 0.000000 0.114704 0.005815
O O19 0.100238 0.000000 0.000000
#
# Coordination Sequence:
#
# PCOD8262554 Si02
#       8
#    16  16  16  16  16  16  16  16
#     4  10  19  35  60  95 117 148 210 264 301 365
#     4  10  22  39  58  90 124 154 211 249 302 389
#     4  10  22  43  67  90 115 151 205 269 320 367
#     4  10  22  37  59  89 126 168 201 249 308 360
#     4  10  20  33  56  86 122 164 210 252 297 360
#     4  10  22  41  55  89 127 161 205 246 313 386
#     4  10  20  33  56  86 125 164 200 250 302 356
#     4   9  16  29  51  81 114 163 216 248 280 336
#
# _framework density 21.489671000000001
#
# number of rings (size 3 to 8) (size 9 to 14) (size 15 to 20)
#    0.000    2.125    2.500    0.375    3.500    2.500 
#    0.000    0.000    0.000    6.375    0.000    0.000 
#    0.000    0.000    0.000    0.000    0.000    0.000 
#
# Total GULP energy -792916.203887 kJ/mol
# GULP energy per Si atom -12389.315686 kJ/mol
# Density = 2.144076 g / cm^3
# Si number density = 21.489671 Si / 1000 Ang^3
#
#
#
# Elastic Constant Matrix: (Units=GPa)
#
#
# Indices 1 2 3 4 5 6 
#
# 1 144.4797 47.9315 1.8207 0.0000 0.0000 0.0000
# 2 47.9315 150.9409 17.1299 0.0000 0.0000 0.0000
# 3 1.8207 17.1299 51.4074 0.0000 0.0000 0.0000
# 4 0.0000 0.0000 0.0000 15.5602 0.0000 0.0000
# 5 0.0000 0.0000 0.0000 0.0000 258.0496 0.0000
# 6 0.0000 0.0000 0.0000 0.0000 0.0000 30.4535
#
#
#
# Elastic Compliance Matrix: (Units=1/GPa)
#
#
# Indices 1 2 3 4 5 6 
#
# 1 0.007752 -0.002526 0.000567 0.000000 0.000000 0.000000
# 2 -0.002526 0.007709 -0.002479 0.000000 0.000000 0.000000
# 3 0.000567 -0.002479 0.020258 0.000000 0.000000 0.000000
# 4 0.000000 0.000000 0.000000 0.064267 0.000000 0.000000
# 5 0.000000 0.000000 0.000000 0.000000 0.003875 0.000000
# 6 0.000000 0.000000 0.000000 0.000000 0.000000 0.032837
#
#
# Mechanical properties :
#
#
# Convention : Reuss Voigt Hill
#
# Bulk Modulus (GPa) = 37.25347 53.39914 45.32630
# Shear Modulus (GPa) = 32.35779 79.47570 55.91675
#
# Velocity S-wave (km/s) = 3.88459 6.08798 5.10654
# Velocity P-wave (km/s) = 6.12317 8.62094 7.47710
#
# Compressibility (1/GPa) = 0.02684314
#
# Stress axis : x y z
#
# Youngs Moduli (GPa) = 128.99414 129.72452 49.36208
#
# Poissons Ratio (x) = 0.32770 -0.02800
# Poissons Ratio (y) = 0.32585 0.12238
# Poissons Ratio (z) = -0.07316 0.32161
#
# Static dielectric constant tensor:
#      x y z
#    x 4.726670 0.000000 0.000000 
#    y 0.000000 3.948460 0.000000 
#    z 0.000000 0.000000 3.376380 
# 
# 
# High freq. dielectric constant tensor:
#      x y z
#    x 1.875050 0.000000 0.000000 
#    y 0.000000 1.839020 0.000000 
#    z 0.000000 0.000000 1.787420 
# 
# From -- ./inp_files/51155.got.cif
#   From: 2010.03.12/outbox.cif.g09.slc.cpg/sg64_26_cif.got.tgz:51155.got - 2010.04.10 20:19:32.
