data_PCOD8262673
_publ_section_title
;
Structure prediction by ZEFSAII (Michael W. Deem and Ramdas Pophale) SiO2 
 PCOD8262673
Probable space group: C M C A
;
_chemical_formula_sum "Si O2"
_cell_formula_units_Z 112
_cell_length_a 14.987200
_cell_length_b 15.109347
_cell_length_c 23.222240
_cell_angle_alpha 90.000000
_cell_angle_beta 90.000000
_cell_angle_gamma 90.000000
_cell_volume 5258.602061
_symmetry_space_group_name_H-M "C M C A"
_symmetry_group_IT_number 64
_symmetry_cell_setting 'orthorhombic'
loop_
_space_group_symop_operation_xyz
x,y,z
-x,1/2-y,1/2+z
x,-y,-z
-x,1/2+y,1/2-z
-x,-y,-z
x,1/2+y,1/2-z
-x,y,z
x,1/2-y,1/2+z
1/2+x,1/2+y,z
1/2-x,-y,1/2+z
1/2+x,1/2-y,-z
1/2-x,y,1/2-z
1/2-x,1/2-y,-z
1/2+x,y,1/2-z
1/2-x,1/2+y,z
1/2+x,-y,1/2+z
loop_
_atom_site_type_symbol
_atom_site_label
_atom_site_fract_x
_atom_site_fract_y
_atom_site_fract_z
Si Si1 0.272803 0.292148 0.560859
Si Si2 0.849461 0.431987 0.260167
Si Si3 0.902084 0.050740 0.441700
Si Si4 0.397964 0.209638 0.378538
Si Si5 0.104397 0.725525 0.659814
Si Si6 0.600147 0.629995 0.245203
Si Si7 0.900778 0.096281 0.635875
O O1 0.250000 0.250000 0.500000
O O2 0.339221 0.369148 0.545495
O O3 0.180752 0.337305 0.585588
O O4 0.327717 0.229081 0.605664
O O5 0.750000 0.398764 0.250000
O O6 0.887411 0.373214 0.312673
O O7 0.847809 0.538696 0.268272
O O8 0.906509 0.409639 0.204238
O O9 0.000000 0.083757 0.419770
O O10 0.914970 0.000000 0.500000
O O11 0.853143 0.988289 0.393387
O O12 0.500000 0.193948 0.401937
O O13 0.394971 0.188039 0.311752
O O14 0.361998 0.310496 0.384932
O O15 0.134989 0.806264 0.703012
O O16 0.000000 0.737253 0.642470
O O17 0.500000 0.601088 0.259848
O O18 0.000000 0.093855 0.610427
#
# Coordination Sequence:
#
# PCOD8262673 Si02
#       7
#    16  16  16  16  16  16  16
#     4  12  26  42  64  96 131 173 225 277 340 402
#     4  12  24  34  61  98 134 174 213 265 329 402
#     4  10  22  41  69  98 125 164 225 289 336 385
#     4  10  22  41  65  91 128 171 215 269 338 407
#     4  11  24  44  69  98 138 177 224 282 342 412
#     4  10  22  40  63  95 132 174 215 269 338 404
#     4  10  19  38  63  89 122 163 213 272 329 385
#
# _framework density 21.298435999999999
#
# number of rings (size 3 to 8) (size 9 to 14) (size 15 to 20)
#    0.000    1.286    1.429    4.286    4.000    4.571 
#    0.000    0.000    0.000    0.429    0.000    0.000 
#    0.000    0.000    0.000    0.000    0.000    0.000 
#
# Total GULP energy -693751.109803 kJ/mol
# GULP energy per Si atom -12388.412675 kJ/mol
# Density = 2.124996 g / cm^3
# Si number density = 21.298436 Si / 1000 Ang^3
#
#
#
# Elastic Constant Matrix: (Units=GPa)
#
#
# Indices 1 2 3 4 5 6 
#
# 1 121.9770 32.3191 44.8474 0.0000 0.0000 0.0000
# 2 32.3191 114.5111 32.5384 0.0000 0.0000 0.0000
# 3 44.8474 32.5384 110.8516 0.0000 0.0000 0.0000
# 4 0.0000 0.0000 0.0000 34.7923 0.0000 0.0000
# 5 0.0000 0.0000 0.0000 0.0000 30.5959 0.0000
# 6 0.0000 0.0000 0.0000 0.0000 0.0000 2.4710
#
#
#
# Elastic Compliance Matrix: (Units=1/GPa)
#
#
# Indices 1 2 3 4 5 6 
#
# 1 0.009966 -0.001819 -0.003498 0.000000 0.000000 0.000000
# 2 -0.001819 0.009859 -0.002158 0.000000 0.000000 0.000000
# 3 -0.003498 -0.002158 0.011070 0.000000 0.000000 0.000000
# 4 0.000000 0.000000 0.000000 0.028742 0.000000 0.000000
# 5 0.000000 0.000000 0.000000 0.000000 0.032684 0.000000
# 6 0.000000 0.000000 0.000000 0.000000 0.000000 0.404699
#
#
# Mechanical properties :
#
#
# Convention : Reuss Voigt Hill
#
# Bulk Modulus (GPa) = 62.71520 62.97216 62.84368
# Shear Modulus (GPa) = 9.66582 29.41417 19.54000
#
# Velocity S-wave (km/s) = 2.13263 3.72028 3.03221
# Velocity P-wave (km/s) = 5.96440 6.93431 6.46756
#
# Compressibility (1/GPa) = 0.01594510
#
# Stress axis : x y z
#
# Youngs Moduli (GPa) = 100.33733 101.42641 90.33548
#
# Poissons Ratio (x) = 0.18448 0.31601
# Poissons Ratio (y) = 0.18250 0.19496
# Poissons Ratio (z) = 0.35100 0.21890
#
# Static dielectric constant tensor:
#      x y z
#    x 4.067880 0.000000 0.000000 
#    y 0.000000 4.556090 0.000000 
#    z 0.000000 0.000000 3.752570 
# 
# 
# High freq. dielectric constant tensor:
#      x y z
#    x 1.840940 0.000000 0.000000 
#    y 0.000000 1.833210 0.000000 
#    z 0.000000 0.000000 1.825850 
# 
# From -- ./inp_files/45269.got.cif
#   From: 2010.03.12/outbox.cif.g09.slc.cpg/sg64_23_cif.got.tgz:45269.got - 2010.04.10 20:19:32.
