data_PCOD8262459
_publ_section_title
;
Structure prediction by ZEFSAII (Michael W. Deem and Ramdas Pophale) SiO2 
 PCOD8262459
Probable space group: C M C A
;
_chemical_formula_sum "Si O2"
_cell_formula_units_Z 96
_cell_length_a 8.999322
_cell_length_b 29.299192
_cell_length_c 18.721969
_cell_angle_alpha 90.000000
_cell_angle_beta 90.000000
_cell_angle_gamma 90.000000
_cell_volume 4936.475170
_symmetry_space_group_name_H-M "C M C A"
_symmetry_group_IT_number 64
_symmetry_cell_setting 'orthorhombic'
loop_
_space_group_symop_operation_xyz
x,y,z
-x,1/2-y,1/2+z
x,-y,-z
-x,1/2+y,1/2-z
-x,-y,-z
x,1/2+y,1/2-z
-x,y,z
x,1/2-y,1/2+z
1/2+x,1/2+y,z
1/2-x,-y,1/2+z
1/2+x,1/2-y,-z
1/2-x,y,1/2-z
1/2-x,1/2-y,-z
1/2+x,y,1/2-z
1/2-x,1/2+y,z
1/2+x,-y,1/2+z
loop_
_atom_site_type_symbol
_atom_site_label
_atom_site_fract_x
_atom_site_fract_y
_atom_site_fract_z
Si Si1 0.827249 0.813768 0.944443
Si Si2 0.825089 0.940439 0.077517
Si Si3 0.171613 0.640856 0.678975
Si Si4 0.672318 0.772212 0.402067
Si Si5 0.828877 0.484187 0.825946
Si Si6 0.829370 0.909163 0.560799
O O1 0.769498 0.773387 0.892569
O O2 0.741196 0.859828 0.927051
O O3 0.000000 0.822488 0.930732
O O4 0.792851 0.798399 0.024620
O O5 0.789246 0.891675 0.112949
O O6 0.000000 0.949992 0.071487
O O7 0.750264 0.979127 0.124364
O O8 0.756517 0.938986 0.998514
O O9 0.250000 0.623244 0.750000
O O10 0.218639 0.692651 0.660230
O O11 0.000000 0.638157 0.695954
O O12 0.500000 0.758551 0.398379
O O13 0.750000 0.481329 0.750000
O O14 0.816760 0.435175 0.863950
O O15 0.000000 0.498577 0.814834
O O16 0.000000 0.903926 0.536656
#
# Coordination Sequence:
#
# PCOD8262459 Si02
#       6
#    16  16  16  16  16  16
#     4  10  19  34  58  86 113 145 192 239 289 346
#     4  11  22  39  62  89 119 154 197 245 297 352
#     4  10  21  36  54  82 119 155 193 238 288 349
#     4   9  18  35  54  79 116 150 187 236 287 343
#     4  11  25  43  61  86 118 156 198 243 298 356
#     4  11  23  39  61  89 120 153 196 247 296 350
#
# _framework density 19.447075000000002
#
# number of rings (size 3 to 8) (size 9 to 14) (size 15 to 20)
#    0.000    1.667    1.667    3.000    0.000    8.667 
#    0.000    0.833    0.000    0.000    0.000    0.000 
#    0.000    0.000    0.000    0.000    0.000    0.000 
#
# Total GULP energy -595331.414357 kJ/mol
# GULP energy per Si atom -12402.737799 kJ/mol
# Density = 1.940281 g / cm^3
# Si number density = 19.447075 Si / 1000 Ang^3
#
#
#
# Elastic Constant Matrix: (Units=GPa)
#
#
# Indices 1 2 3 4 5 6 
#
# 1 106.9552 67.7821 29.3294 0.0000 0.0000 0.0000
# 2 67.7821 114.8323 33.4727 0.0000 0.0000 0.0000
# 3 29.3294 33.4727 59.0851 0.0000 0.0000 0.0000
# 4 0.0000 0.0000 0.0000 32.9539 0.0000 0.0000
# 5 0.0000 0.0000 0.0000 0.0000 32.8851 0.0000
# 6 0.0000 0.0000 0.0000 0.0000 0.0000 37.2148
#
#
#
# Elastic Compliance Matrix: (Units=1/GPa)
#
#
# Indices 1 2 3 4 5 6 
#
# 1 0.015364 -0.008200 -0.002981 0.000000 0.000000 0.000000
# 2 -0.008200 0.014807 -0.004318 0.000000 0.000000 0.000000
# 3 -0.002981 -0.004318 0.020851 0.000000 0.000000 0.000000
# 4 0.000000 0.000000 0.000000 0.030345 0.000000 0.000000
# 5 0.000000 0.000000 0.000000 0.000000 0.030409 0.000000
# 6 0.000000 0.000000 0.000000 0.000000 0.000000 0.026871
#
#
# Mechanical properties :
#
#
# Convention : Reuss Voigt Hill
#
# Bulk Modulus (GPa) = 49.94115 60.22678 55.08396
# Shear Modulus (GPa) = 28.35753 30.62997 29.49375
#
# Velocity S-wave (km/s) = 3.82277 3.97299 3.89860
# Velocity P-wave (km/s) = 6.72466 7.21685 6.97510
#
# Compressibility (1/GPa) = 0.02002357
#
# Stress axis : x y z
#
# Youngs Moduli (GPa) = 65.08824 67.53489 47.95957
#
# Poissons Ratio (x) = 0.55377 0.14297
# Poissons Ratio (y) = 0.53371 0.20710
# Poissons Ratio (z) = 0.19404 0.29163
#
# Static dielectric constant tensor:
#      x y z
#    x 3.680420 0.000000 0.000000 
#    y 0.000000 3.819440 0.000000 
#    z 0.000000 0.000000 3.448350 
# 
# 
# High freq. dielectric constant tensor:
#      x y z
#    x 1.766780 0.000000 0.000000 
#    y 0.000000 1.768500 0.000000 
#    z 0.000000 0.000000 1.740470 
# 
# From -- ./inp_files/37057.got.cif
#   From: 2010.03.12/outbox.cif.g09.slc.cpg/sg64_19_cif.got.tgz:37057.got - 2010.04.10 20:19:32.
