data_PCOD8262606
_publ_section_title
;
Structure prediction by ZEFSAII (Michael W. Deem and Ramdas Pophale) SiO2 
 PCOD8262606
Probable space group: C M C A
;
_chemical_formula_sum "Si O2"
_cell_formula_units_Z 80
_cell_length_a 16.423184
_cell_length_b 25.717080
_cell_length_c 8.836876
_cell_angle_alpha 90.000000
_cell_angle_beta 90.000000
_cell_angle_gamma 90.000000
_cell_volume 3732.310576
_symmetry_space_group_name_H-M "C M C A"
_symmetry_group_IT_number 64
_symmetry_cell_setting 'orthorhombic'
loop_
_space_group_symop_operation_xyz
x,y,z
-x,1/2-y,1/2+z
x,-y,-z
-x,1/2+y,1/2-z
-x,-y,-z
x,1/2+y,1/2-z
-x,y,z
x,1/2-y,1/2+z
1/2+x,1/2+y,z
1/2-x,-y,1/2+z
1/2+x,1/2-y,-z
1/2-x,y,1/2-z
1/2-x,1/2-y,-z
1/2+x,y,1/2-z
1/2-x,1/2+y,z
1/2+x,-y,1/2+z
loop_
_atom_site_type_symbol
_atom_site_label
_atom_site_fract_x
_atom_site_fract_y
_atom_site_fract_z
Si Si1 0.662069 0.902135 0.812744
Si Si2 0.906043 0.695035 0.339931
Si Si3 0.094666 0.996966 0.172418
Si Si4 0.903183 0.204699 0.826675
Si Si5 0.404452 0.605084 0.638894
O O1 0.750000 0.885942 0.750000
O O2 0.600919 0.860762 0.738982
O O3 0.643200 0.960676 0.766456
O O4 0.653148 0.900686 0.993477
O O5 0.867342 0.741027 0.237762
O O6 0.865418 0.695259 0.506573
O O7 0.000000 0.708521 0.359106
O O8 0.000000 0.010739 0.182338
O O9 0.113558 0.940799 0.242219
O O10 0.125325 0.000000 0.000000
O O11 0.876471 0.158214 0.717061
O O12 0.000000 0.205463 0.837785
O O13 0.500000 0.605106 0.591940
#
# Coordination Sequence:
#
# PCOD8262606 Si02
#       5
#    16  16  16  16  16
#     4  12  25  38  54  82 119 159 196 232 280 338
#     4  10  19  36  60  85 114 147 190 240 290 343
#     4  10  21  39  64  90 114 145 189 241 293 345
#     4   9  18  34  62  92 112 140 186 243 296 342
#     4  10  20  38  63  88 114 147 191 239 289 344
#
# _framework density 21.434443000000002
#
# number of rings (size 3 to 8) (size 9 to 14) (size 15 to 20)
#    0.000    1.800    0.000    4.800    0.000    9.600 
#    0.000    7.000    0.000    0.000    0.000    0.000 
#    0.000    0.000    0.000    0.000    0.000    0.000 
#
# Total GULP energy -496067.504711 kJ/mol
# GULP energy per Si atom -12401.687618 kJ/mol
# Density = 2.138566 g / cm^3
# Si number density = 21.434443 Si / 1000 Ang^3
#
#
#
# Elastic Constant Matrix: (Units=GPa)
#
#
# Indices 1 2 3 4 5 6 
#
# 1 26.8015 13.0559 27.7297 0.0000 0.0000 0.0000
# 2 13.0559 103.7932 21.9082 0.0000 0.0000 0.0000
# 3 27.7297 21.9082 144.9140 0.0000 0.0000 0.0000
# 4 0.0000 0.0000 0.0000 43.6634 0.0000 0.0000
# 5 0.0000 0.0000 0.0000 0.0000 5.5900 0.0000
# 6 0.0000 0.0000 0.0000 0.0000 0.0000 -0.1403
#
#
#
# Elastic Compliance Matrix: (Units=1/GPa)
#
#
# Indices 1 2 3 4 5 6 
#
# 1 0.048278 -0.004259 -0.008594 0.000000 0.000000 0.000000
# 2 -0.004259 0.010328 -0.000746 0.000000 0.000000 0.000000
# 3 -0.008594 -0.000746 0.008658 0.000000 0.000000 0.000000
# 4 0.000000 0.000000 0.000000 0.022902 0.000000 0.000000
# 5 0.000000 0.000000 0.000000 0.000000 0.178890 0.000000
# 6 0.000000 0.000000 0.000000 0.000000 0.000000 -7.128861
#
#
# Mechanical properties :
#
#
# Convention : Reuss Voigt Hill
#
# Bulk Modulus (GPa) = 24.95955 44.54404 34.75180
# Shear Modulus (GPa) = -0.73322 24.01028 11.63853
#
# Velocity S-wave (km/s) = -0.58551 3.35053 2.33273
# Velocity P-wave (km/s) = 3.34855 5.98287 4.84807
#
# Compressibility (1/GPa) = 0.04006482
#
# Stress axis : x y z
#
# Youngs Moduli (GPa) = 20.71342 96.82606 115.49976
#
# Poissons Ratio (x) = 0.41236 0.99264
# Poissons Ratio (y) = 0.08821 0.08621
# Poissons Ratio (z) = 0.17802 0.07228
#
# Static dielectric constant tensor:
#      x y z
#    x 3.382830 0.000000 0.000000 
#    y 0.000000 3.937920 0.000000 
#    z 0.000000 0.000000 4.136640 
# 
# 
# High freq. dielectric constant tensor:
#      x y z
#    x 1.793300 0.000000 0.000000 
#    y 0.000000 1.857610 0.000000 
#    z 0.000000 0.000000 1.859100 
# 
# From -- ./inp_files/7138.got.cif
#   From: 2010.03.12/outbox.cif.g09.slc.cpg/sg64_4_cif.got.tgz:7138.got - 2010.04.10 20:19:32.
