data_PCOD8262623
_publ_section_title
;
Structure prediction by ZEFSAII (Michael W. Deem and Ramdas Pophale) SiO2 
 PCOD8262623
Probable space group: C M C A
;
_chemical_formula_sum "Si O2"
_cell_formula_units_Z 112
_cell_length_a 14.284390
_cell_length_b 14.333172
_cell_length_c 26.604483
_cell_angle_alpha 90.000000
_cell_angle_beta 90.000000
_cell_angle_gamma 90.000000
_cell_volume 5447.018312
_symmetry_space_group_name_H-M "C M C A"
_symmetry_group_IT_number 64
_symmetry_cell_setting 'orthorhombic'
loop_
_space_group_symop_operation_xyz
x,y,z
-x,1/2-y,1/2+z
x,-y,-z
-x,1/2+y,1/2-z
-x,-y,-z
x,1/2+y,1/2-z
-x,y,z
x,1/2-y,1/2+z
1/2+x,1/2+y,z
1/2-x,-y,1/2+z
1/2+x,1/2-y,-z
1/2-x,y,1/2-z
1/2-x,1/2-y,-z
1/2+x,y,1/2-z
1/2-x,1/2+y,z
1/2+x,-y,1/2+z
loop_
_atom_site_type_symbol
_atom_site_label
_atom_site_fract_x
_atom_site_fract_y
_atom_site_fract_z
Si Si1 0.737766 0.071069 0.636349
Si Si2 0.359012 0.776469 0.750058
Si Si3 0.889312 0.225990 0.467759
Si Si4 0.894293 0.543981 0.307265
Si Si5 0.103975 0.739474 0.644110
Si Si6 0.603228 0.076654 0.784960
Si Si7 0.740971 0.399038 0.021552
O O1 0.675086 0.977861 0.645988
O O2 0.676000 0.157150 0.655842
O O3 0.833973 0.067034 0.666111
O O4 0.766096 0.083193 0.579107
O O5 0.250000 0.763162 0.750000
O O6 0.391036 0.807088 0.806847
O O7 0.407804 0.681124 0.734862
O O8 0.391298 0.848356 0.707637
O O9 0.872244 0.208099 0.408133
O O10 0.834289 0.142926 0.495725
O O11 0.846211 0.326884 0.483803
O O12 0.000000 0.223730 0.481724
O O13 0.854792 0.485698 0.259913
O O14 0.000000 0.515491 0.321947
O O15 0.000000 0.696727 0.638521
O O16 0.500000 0.039772 0.799442
O O17 0.712196 0.500000 0.000000
#
# Coordination Sequence:
#
# PCOD8262623 Si02
#       7
#    16  16  16  16  16  16  16
#     4  11  21  40  60  84 120 165 201 247 313 362
#     4  12  21  35  59  88 126 165 202 243 299 359
#     4   9  21  42  67  94 124 160 207 265 323 377
#     4  11  23  37  56  87 123 159 205 250 295 366
#     4  10  19  36  63  87 117 162 205 245 301 370
#     4  11  22  38  56  84 124 160 202 249 294 355
#     4  10  23  42  66  92 124 160 211 266 315 381
#
# _framework density 20.561707999999999
#
# number of rings (size 3 to 8) (size 9 to 14) (size 15 to 20)
#    0.000    1.429    2.857    3.000    0.000    4.000 
#    2.571    1.429    0.000    0.000    0.000    0.000 
#    0.000    0.000    0.000    0.000    0.000    0.000 
#
# Total GULP energy -694305.208823 kJ/mol
# GULP energy per Si atom -12398.307300 kJ/mol
# Density = 2.051491 g / cm^3
# Si number density = 20.561708 Si / 1000 Ang^3
#
#
#
# Elastic Constant Matrix: (Units=GPa)
#
#
# Indices 1 2 3 4 5 6 
#
# 1 106.3229 2.9219 30.7366 0.0000 0.0000 0.0000
# 2 2.9219 63.7565 10.2461 0.0000 0.0000 0.0000
# 3 30.7366 10.2461 81.7126 0.0000 0.0000 0.0000
# 4 0.0000 0.0000 0.0000 31.6782 0.0000 0.0000
# 5 0.0000 0.0000 0.0000 0.0000 30.3089 0.0000
# 6 0.0000 0.0000 0.0000 0.0000 0.0000 23.7409
#
#
#
# Elastic Compliance Matrix: (Units=1/GPa)
#
#
# Indices 1 2 3 4 5 6 
#
# 1 0.010554 0.000157 -0.003990 0.000000 0.000000 0.000000
# 2 0.000157 0.016010 -0.002067 0.000000 0.000000 0.000000
# 3 -0.003990 -0.002067 0.013998 0.000000 0.000000 0.000000
# 4 0.000000 0.000000 0.000000 0.031567 0.000000 0.000000
# 5 0.000000 0.000000 0.000000 0.000000 0.032994 0.000000
# 6 0.000000 0.000000 0.000000 0.000000 0.000000 0.042121
#
#
# Mechanical properties :
#
#
# Convention : Reuss Voigt Hill
#
# Bulk Modulus (GPa) = 34.76589 37.73348 36.24968
# Shear Modulus (GPa) = 29.65065 31.00477 30.32771
#
# Velocity S-wave (km/s) = 3.80153 3.88737 3.84469
# Velocity P-wave (km/s) = 6.01778 6.20806 6.11366
#
# Compressibility (1/GPa) = 0.02876383
#
# Stress axis : x y z
#
# Youngs Moduli (GPa) = 94.74731 62.46251 71.43901
#
# Poissons Ratio (x) = -0.00984 0.28503
# Poissons Ratio (y) = -0.01492 0.14764
# Poissons Ratio (z) = 0.37803 0.12909
#
# Static dielectric constant tensor:
#      x y z
#    x 3.782220 0.000000 0.000000 
#    y 0.000000 3.672710 0.000000 
#    z 0.000000 0.000000 3.769510 
# 
# 
# High freq. dielectric constant tensor:
#      x y z
#    x 1.817030 0.000000 0.000000 
#    y 0.000000 1.790530 0.000000 
#    z 0.000000 0.000000 1.795310 
# 
# From -- ./inp_files/45219.got.cif
#   From: 2010.03.12/outbox.cif.g09.slc.cpg/sg64_23_cif.got.tgz:45219.got - 2010.04.10 20:19:32.
