data_PCOD8262531
_publ_section_title
;
Structure prediction by ZEFSAII (Michael W. Deem and Ramdas Pophale) SiO2 
 PCOD8262531
Probable space group: C M C A
;
_chemical_formula_sum "Si O2"
_cell_formula_units_Z 96
_cell_length_a 8.732626
_cell_length_b 20.655569
_cell_length_c 27.964130
_cell_angle_alpha 90.000000
_cell_angle_beta 90.000000
_cell_angle_gamma 90.000000
_cell_volume 5044.095913
_symmetry_space_group_name_H-M "C M C A"
_symmetry_group_IT_number 64
_symmetry_cell_setting 'orthorhombic'
loop_
_space_group_symop_operation_xyz
x,y,z
-x,1/2-y,1/2+z
x,-y,-z
-x,1/2+y,1/2-z
-x,-y,-z
x,1/2+y,1/2-z
-x,y,z
x,1/2-y,1/2+z
1/2+x,1/2+y,z
1/2-x,-y,1/2+z
1/2+x,1/2-y,-z
1/2-x,y,1/2-z
1/2-x,1/2-y,-z
1/2+x,y,1/2-z
1/2-x,1/2+y,z
1/2+x,-y,1/2+z
loop_
_atom_site_type_symbol
_atom_site_label
_atom_site_fract_x
_atom_site_fract_y
_atom_site_fract_z
Si Si1 0.180998 0.117832 0.952145
Si Si2 0.181219 0.241116 0.893621
Si Si3 0.818820 0.195154 0.699842
Si Si4 0.677529 0.443242 0.201801
Si Si5 0.322847 0.008201 0.396214
Si Si6 0.321135 0.372817 0.555475
O O1 0.244792 0.180618 0.924421
O O2 0.239732 0.052972 0.926225
O O3 0.000000 0.120023 0.950632
O O4 0.234318 0.117046 0.006246
O O5 0.261762 0.242456 0.842040
O O6 0.231317 0.305532 0.921299
O O7 0.000000 0.237182 0.885964
O O8 0.750000 0.219879 0.750000
O O9 0.761627 0.123008 0.687932
O O10 0.000000 0.196395 0.703067
O O11 0.500000 0.426572 0.210082
O O12 0.750000 0.473182 0.250000
O O13 0.699404 0.495087 0.159963
O O14 0.500000 0.021776 0.408634
O O15 0.221552 0.070079 0.408343
O O16 0.500000 0.373315 0.544980
#
# Coordination Sequence:
#
# PCOD8262531 Si02
#       6
#    16  16  16  16  16  16
#     4  10  20  38  61  80 108 152 197 234 276 336
#     4  10  21  40  59  81 115 152 190 232 282 334
#     4  11  21  34  58  88 115 145 184 233 281 332
#     4  10  19  35  58  85 114 146 186 231 280 333
#     4  10  21  38  59  81 112 155 191 227 279 338
#     4  11  24  37  55  84 118 149 185 239 286 331
#
# _framework density 19.032152
#
# number of rings (size 3 to 8) (size 9 to 14) (size 15 to 20)
#    0.000    1.667    1.667    4.500    0.000    6.000 
#    0.000    0.833    0.000    2.000    0.000    0.000 
#    0.000    0.000    0.000    0.000    0.000    0.000 
#
# Total GULP energy -595399.789511 kJ/mol
# GULP energy per Si atom -12404.162281 kJ/mol
# Density = 1.898883 g / cm^3
# Si number density = 19.032152 Si / 1000 Ang^3
#
#
#
# Elastic Constant Matrix: (Units=GPa)
#
#
# Indices 1 2 3 4 5 6 
#
# 1 49.7289 20.2332 20.2165 0.0000 0.0000 0.0000
# 2 20.2332 100.7943 35.0945 0.0000 0.0000 0.0000
# 3 20.2165 35.0945 111.7656 0.0000 0.0000 0.0000
# 4 0.0000 0.0000 0.0000 1.8482 0.0000 0.0000
# 5 0.0000 0.0000 0.0000 0.0000 31.9018 0.0000
# 6 0.0000 0.0000 0.0000 0.0000 0.0000 26.5806
#
#
#
# Elastic Compliance Matrix: (Units=1/GPa)
#
#
# Indices 1 2 3 4 5 6 
#
# 1 0.022766 -0.003521 -0.003012 0.000000 0.000000 0.000000
# 2 -0.003521 0.011684 -0.003032 0.000000 0.000000 0.000000
# 3 -0.003012 -0.003032 0.010444 0.000000 0.000000 0.000000
# 4 0.000000 0.000000 0.000000 0.541063 0.000000 0.000000
# 5 0.000000 0.000000 0.000000 0.000000 0.031346 0.000000
# 6 0.000000 0.000000 0.000000 0.000000 0.000000 0.037621
#
#
# Mechanical properties :
#
#
# Convention : Reuss Voigt Hill
#
# Bulk Modulus (GPa) = 38.81467 45.93079 42.37273
# Shear Modulus (GPa) = 7.32447 24.51575 15.92011
#
# Velocity S-wave (km/s) = 1.96388 3.59294 2.89534
# Velocity P-wave (km/s) = 5.05776 6.43412 5.78701
#
# Compressibility (1/GPa) = 0.02576345
#
# Stress axis : x y z
#
# Youngs Moduli (GPa) = 43.92448 85.58985 95.74729
#
# Poissons Ratio (x) = 0.30138 0.28843
# Poissons Ratio (y) = 0.15467 0.29028
# Poissons Ratio (z) = 0.13232 0.25949
#
# Static dielectric constant tensor:
#      x y z
#    x 3.424420 0.000000 0.000000 
#    y 0.000000 3.442070 0.000000 
#    z 0.000000 0.000000 3.716950 
# 
# 
# High freq. dielectric constant tensor:
#      x y z
#    x 1.738420 0.000000 0.000000 
#    y 0.000000 1.724770 0.000000 
#    z 0.000000 0.000000 1.756340 
# 
# From -- ./inp_files/48073.got.cif
#   From: 2010.03.12/outbox.cif.g09.slc.cpg/sg64_25_cif.got.tgz:48073.got - 2010.04.10 20:19:32.
