data_PCOD8262439
_publ_section_title
;
Structure prediction by ZEFSAII (Michael W. Deem and Ramdas Pophale) SiO2 
 PCOD8262439
Probable space group: C M C A
;
_chemical_formula_sum "Si O2"
_cell_formula_units_Z 112
_cell_length_a 13.708512
_cell_length_b 10.934549
_cell_length_c 36.736273
_cell_angle_alpha 90.000000
_cell_angle_beta 90.000000
_cell_angle_gamma 90.000000
_cell_volume 5506.634932
_symmetry_space_group_name_H-M "C M C A"
_symmetry_group_IT_number 64
_symmetry_cell_setting 'orthorhombic'
loop_
_space_group_symop_operation_xyz
x,y,z
-x,1/2-y,1/2+z
x,-y,-z
-x,1/2+y,1/2-z
-x,-y,-z
x,1/2+y,1/2-z
-x,y,z
x,1/2-y,1/2+z
1/2+x,1/2+y,z
1/2-x,-y,1/2+z
1/2+x,1/2-y,-z
1/2-x,y,1/2-z
1/2-x,1/2-y,-z
1/2+x,y,1/2-z
1/2-x,1/2+y,z
1/2+x,-y,1/2+z
loop_
_atom_site_type_symbol
_atom_site_label
_atom_site_fract_x
_atom_site_fract_y
_atom_site_fract_z
Si Si1 0.193248 0.999598 0.347714
Si Si2 0.611295 0.109909 0.355489
Si Si3 0.804265 0.698107 0.904666
Si Si4 0.888428 0.318938 0.901598
Si Si5 0.112221 0.471947 0.039527
Si Si6 0.616126 0.957228 0.231573
Si Si7 0.388458 0.811598 0.724080
O O1 0.311744 0.000422 0.349938
O O2 0.142571 0.121984 0.363227
O O3 0.157905 0.991653 0.307158
O O4 0.157541 0.889240 0.372609
O O5 0.500000 0.060826 0.358308
O O6 0.642098 0.175905 0.393325
O O7 0.624179 0.195344 0.319622
O O8 0.686698 0.707658 0.907623
O O9 0.838327 0.648899 0.943706
O O10 0.871842 0.412604 0.934566
O O11 0.000000 0.271496 0.900191
O O12 0.000000 0.438749 0.034659
O O13 0.159095 0.500000 0.000000
O O14 0.500000 0.955085 0.229967
O O15 0.657654 0.061730 0.259389
O O16 0.652628 0.817333 0.240988
O O17 0.500000 0.820608 0.735381
#
# Coordination Sequence:
#
# PCOD8262439 Si02
#       7
#    16  16  16  16  16  16  16
#     4  10  20  34  55  80 103 143 187 229 279 337
#     4  10  20  36  54  77 107 142 185 234 282 339
#     4  10  19  34  57  80 106 146 188 225 282 336
#     4   9  19  34  53  81 113 143 181 228 274 329
#     4   9  18  33  55  84 113 143 183 228 273 330
#     4  10  19  36  58  82 111 145 190 241 295 349
#     4   9  19  35  56  80 109 145 186 238 295 347
#
# _framework density 20.339099000000001
#
# number of rings (size 3 to 8) (size 9 to 14) (size 15 to 20)
#    0.000    2.429    1.429    0.857    0.000    2.857 
#    5.143    1.429    0.000    0.429    0.000    0.000 
#    0.000    0.000    0.000    0.000    0.000    0.000 
#
# Total GULP energy -693819.054482 kJ/mol
# GULP energy per Si atom -12389.625973 kJ/mol
# Density = 2.029281 g / cm^3
# Si number density = 20.339099 Si / 1000 Ang^3
#
#
#
# Elastic Constant Matrix: (Units=GPa)
#
#
# Indices 1 2 3 4 5 6 
#
# 1 70.7994 -3.5738 17.9213 0.0000 0.0000 0.0000
# 2 -3.5738 67.6810 15.7516 0.0000 0.0000 0.0000
# 3 17.9213 15.7516 75.2134 0.0000 0.0000 0.0000
# 4 0.0000 0.0000 0.0000 17.9719 0.0000 0.0000
# 5 0.0000 0.0000 0.0000 0.0000 25.9854 0.0000
# 6 0.0000 0.0000 0.0000 0.0000 0.0000 19.5283
#
#
#
# Elastic Compliance Matrix: (Units=1/GPa)
#
#
# Indices 1 2 3 4 5 6 
#
# 1 0.015222 0.001732 -0.003990 0.000000 0.000000 0.000000
# 2 0.001732 0.015729 -0.003707 0.000000 0.000000 0.000000
# 3 -0.003990 -0.003707 0.015022 0.000000 0.000000 0.000000
# 4 0.000000 0.000000 0.000000 0.055643 0.000000 0.000000
# 5 0.000000 0.000000 0.000000 0.000000 0.038483 0.000000
# 6 0.000000 0.000000 0.000000 0.000000 0.000000 0.051208
#
#
# Mechanical properties :
#
#
# Convention : Reuss Voigt Hill
#
# Bulk Modulus (GPa) = 29.37290 30.43245 29.90268
# Shear Modulus (GPa) = 23.30090 24.93676 24.11883
#
# Velocity S-wave (km/s) = 3.38837 3.50530 3.44733
# Velocity P-wave (km/s) = 5.45720 5.60159 5.52987
#
# Compressibility (1/GPa) = 0.03404498
#
# Stress axis : x y z
#
# Youngs Moduli (GPa) = 65.69545 63.57527 66.56702
#
# Poissons Ratio (x) = -0.11013 0.26558
# Poissons Ratio (y) = -0.11380 0.24676
# Poissons Ratio (z) = 0.26211 0.23567
#
# Static dielectric constant tensor:
#      x y z
#    x 3.722900 0.000000 0.000000 
#    y 0.000000 3.754260 0.000000 
#    z 0.000000 0.000000 3.648650 
# 
# 
# High freq. dielectric constant tensor:
#      x y z
#    x 1.796790 0.000000 0.000000 
#    y 0.000000 1.778850 0.000000 
#    z 0.000000 0.000000 1.779970 
# 
# From -- ./inp_files/53289.got.cif
#   From: 2010.03.12/outbox.cif.g09.slc.cpg/sg64_27_cif.got.tgz:53289.got - 2010.04.10 20:19:32.
