data_PCOD8262718
_publ_section_title
;
Structure prediction by ZEFSAII (Michael W. Deem and Ramdas Pophale) SiO2 
 PCOD8262718
Probable space group: C M C A
;
_chemical_formula_sum "Si O2"
_cell_formula_units_Z 80
_cell_length_a 7.981403
_cell_length_b 30.460022
_cell_length_c 18.925354
_cell_angle_alpha 90.000000
_cell_angle_beta 90.000000
_cell_angle_gamma 90.000000
_cell_volume 4601.013042
_symmetry_space_group_name_H-M "C M C A"
_symmetry_group_IT_number 64
_symmetry_cell_setting 'orthorhombic'
loop_
_space_group_symop_operation_xyz
x,y,z
-x,1/2-y,1/2+z
x,-y,-z
-x,1/2+y,1/2-z
-x,-y,-z
x,1/2+y,1/2-z
-x,y,z
x,1/2-y,1/2+z
1/2+x,1/2+y,z
1/2-x,-y,1/2+z
1/2+x,1/2-y,-z
1/2-x,y,1/2-z
1/2-x,1/2-y,-z
1/2+x,y,1/2-z
1/2-x,1/2+y,z
1/2+x,-y,1/2+z
loop_
_atom_site_type_symbol
_atom_site_label
_atom_site_fract_x
_atom_site_fract_y
_atom_site_fract_z
Si Si1 0.500000 0.970588 0.106101
Si Si2 0.694121 0.676402 0.825829
Si Si3 0.500000 0.934928 0.947325
Si Si4 0.685435 0.919934 0.367913
Si Si5 0.182231 0.885826 0.975846
Si Si6 0.809363 0.796311 0.471964
O O1 0.668144 0.955341 0.147922
O O2 0.500000 0.023077 0.103442
O O3 0.500000 0.949001 0.028866
O O4 0.500000 0.684931 0.839167
O O5 0.750000 0.695258 0.750000
O O6 0.736350 0.624687 0.827994
O O7 0.792189 0.702119 0.887064
O O8 0.334008 0.906091 0.929721
O O9 0.500000 0.936629 0.343077
O O10 0.678421 0.911462 0.450852
O O11 0.000000 0.892383 0.938277
O O12 0.203113 0.834133 0.989996
O O13 0.750000 0.750000 0.500000
O O14 0.000000 0.804441 0.492937
#
# Coordination Sequence:
#
# PCOD8262718 Si02
#       6
#     8  16   8  16  16  16
#     4   9  16  24  42  58  87 118 156 182 230 279
#     4  10  20  32  48  71  97 133 169 204 254 303
#     4   9  16  26  38  64  83 120 154 190 228 282
#     4   8  16  27  40  60  88 121 155 189 228 284
#     4   9  16  28  42  60  89 122 157 192 238 289
#     4  11  20  32  49  70  98 133 171 211 257 312
#
# _framework density 17.387474999999998
#
# number of rings (size 3 to 8) (size 9 to 14) (size 15 to 20)
#    0.000    2.600    1.000    3.600    5.600    0.800 
#    0.000    4.000    0.000    0.000    0.000    0.000 
#    0.000    1.600    1.600    0.000    0.400    0.000 
#
# Total GULP energy -495790.658399 kJ/mol
# GULP energy per Si atom -12394.766460 kJ/mol
# Density = 1.734790 g / cm^3
# Si number density = 17.387475 Si / 1000 Ang^3
#
#
#
# Elastic Constant Matrix: (Units=GPa)
#
#
# Indices 1 2 3 4 5 6 
#
# 1 149.8137 59.4795 21.8589 0.0000 0.0000 0.0000
# 2 59.4795 93.2781 26.9459 0.0000 0.0000 0.0000
# 3 21.8589 26.9459 35.1413 0.0000 0.0000 0.0000
# 4 0.0000 0.0000 0.0000 9.1348 0.0000 0.0000
# 5 0.0000 0.0000 0.0000 0.0000 15.1655 0.0000
# 6 0.0000 0.0000 0.0000 0.0000 0.0000 27.8558
#
#
#
# Elastic Compliance Matrix: (Units=1/GPa)
#
#
# Indices 1 2 3 4 5 6 
#
# 1 0.009002 -0.005296 -0.001539 0.000000 0.000000 0.000000
# 2 -0.005296 0.016886 -0.009654 0.000000 0.000000 0.000000
# 3 -0.001539 -0.009654 0.036816 0.000000 0.000000 0.000000
# 4 0.000000 0.000000 0.000000 0.109471 0.000000 0.000000
# 5 0.000000 0.000000 0.000000 0.000000 0.065939 0.000000
# 6 0.000000 0.000000 0.000000 0.000000 0.000000 0.035899
#
#
# Mechanical properties :
#
#
# Convention : Reuss Voigt Hill
#
# Bulk Modulus (GPa) = 33.63898 54.97797 44.30847
# Shear Modulus (GPa) = 15.77780 21.76113 18.76947
#
# Velocity S-wave (km/s) = 3.01561 3.54155 3.28911
# Velocity P-wave (km/s) = 5.61373 6.95783 6.32160
#
# Compressibility (1/GPa) = 0.02972742
#
# Stress axis : x y z
#
# Youngs Moduli (GPa) = 111.08665 59.21968 27.16176
#
# Poissons Ratio (x) = 0.31361 0.04180
# Poissons Ratio (y) = 0.58827 0.26222
# Poissons Ratio (z) = 0.17095 0.57171
#
# Static dielectric constant tensor:
#      x y z
#    x 3.719600 0.000000 0.000000 
#    y 0.000000 2.997240 0.000000 
#    z 0.000000 0.000000 2.803490 
# 
# 
# High freq. dielectric constant tensor:
#      x y z
#    x 1.701100 0.000000 0.000000 
#    y 0.000000 1.645320 0.000000 
#    z 0.000000 0.000000 1.605880 
# 
# From -- ./inp_files/30019.got.cif
#   From: 2010.03.12/outbox.cif.g09.slc.cpg/sg64_16_cif.got.tgz:30019.got - 2010.04.10 20:19:32.
