data_PCOD8262210
_publ_section_title
;
Structure prediction by ZEFSAII (Michael W. Deem and Ramdas Pophale) SiO2 
 PCOD8262210
Probable space group: C M C A
;
_chemical_formula_sum "Si O2"
_cell_formula_units_Z 80
_cell_length_a 17.718121
_cell_length_b 25.128188
_cell_length_c 9.299175
_cell_angle_alpha 90.000000
_cell_angle_beta 90.000000
_cell_angle_gamma 90.000000
_cell_volume 4140.218452
_symmetry_space_group_name_H-M "C M C A"
_symmetry_group_IT_number 64
_symmetry_cell_setting 'orthorhombic'
loop_
_space_group_symop_operation_xyz
x,y,z
-x,1/2-y,1/2+z
x,-y,-z
-x,1/2+y,1/2-z
-x,-y,-z
x,1/2+y,1/2-z
-x,y,z
x,1/2-y,1/2+z
1/2+x,1/2+y,z
1/2-x,-y,1/2+z
1/2+x,1/2-y,-z
1/2-x,y,1/2-z
1/2-x,1/2-y,-z
1/2+x,y,1/2-z
1/2-x,1/2+y,z
1/2+x,-y,1/2+z
loop_
_atom_site_type_symbol
_atom_site_label
_atom_site_fract_x
_atom_site_fract_y
_atom_site_fract_z
Si Si1 0.327055 0.986771 0.167215
Si Si2 0.082938 0.612444 0.885564
Si Si3 0.660716 0.307183 0.768070
Si Si4 0.416329 0.412722 0.719374
Si Si5 0.089512 0.726008 0.972062
O O1 0.250000 0.990365 0.250000
O O2 0.359458 0.927372 0.192261
O O3 0.383090 0.028571 0.242912
O O4 0.314743 0.000000 0.000000
O O5 0.109265 0.673911 0.875099
O O6 0.000000 0.605562 0.815545
O O7 0.077793 0.597803 0.051516
O O8 0.750000 0.303111 0.750000
O O9 0.637594 0.368700 0.792280
O O10 0.634848 0.275731 0.909429
O O11 0.616857 0.281962 0.634262
O O12 0.500000 0.409891 0.788477
O O13 0.000000 0.736628 0.973722
#
# Coordination Sequence:
#
# PCOD8262210 Si02
#       5
#    16  16  16  16  16
#     4  10  19  32  52  77 103 130 163 208 258 303
#     4   8  16  31  52  74  96 130 174 209 240 296
#     4  11  21  34  53  80 109 136 173 221 267 307
#     4   9  17  32  54  76  99 132 175 214 249 301
#     4  10  20  36  55  76 105 141 178 213 256 314
#
# _framework density 19.322649999999999
#
# number of rings (size 3 to 8) (size 9 to 14) (size 15 to 20)
#    0.000    2.400    0.000    4.800    0.000    3.200 
#    0.000    4.000    0.000    4.800    0.000    0.000 
#    0.000    0.000    0.000    0.000    0.000    0.000 
#
# Total GULP energy -495912.254688 kJ/mol
# GULP energy per Si atom -12397.806367 kJ/mol
# Density = 1.927867 g / cm^3
# Si number density = 19.322650 Si / 1000 Ang^3
#
#
#
# Elastic Constant Matrix: (Units=GPa)
#
#
# Indices 1 2 3 4 5 6 
#
# 1 112.3818 17.6150 5.9551 0.0000 0.0000 0.0000
# 2 17.6150 68.3661 5.7505 0.0000 0.0000 0.0000
# 3 5.9551 5.7505 20.3331 0.0000 0.0000 0.0000
# 4 0.0000 0.0000 0.0000 20.1117 0.0000 0.0000
# 5 0.0000 0.0000 0.0000 0.0000 21.1145 0.0000
# 6 0.0000 0.0000 0.0000 0.0000 0.0000 12.5655
#
#
#
# Elastic Compliance Matrix: (Units=1/GPa)
#
#
# Indices 1 2 3 4 5 6 
#
# 1 0.009360 -0.002234 -0.002110 0.000000 0.000000 0.000000
# 2 -0.002234 0.015517 -0.003734 0.000000 0.000000 0.000000
# 3 -0.002110 -0.003734 0.050855 0.000000 0.000000 0.000000
# 4 0.000000 0.000000 0.000000 0.049722 0.000000 0.000000
# 5 0.000000 0.000000 0.000000 0.000000 0.047361 0.000000
# 6 0.000000 0.000000 0.000000 0.000000 0.000000 0.079583
#
#
# Mechanical properties :
#
#
# Convention : Reuss Voigt Hill
#
# Bulk Modulus (GPa) = 16.78520 28.85802 22.82161
# Shear Modulus (GPa) = 17.33628 22.20904 19.77266
#
# Velocity S-wave (km/s) = 2.99858 3.39393 3.20236
# Velocity P-wave (km/s) = 4.54910 5.50686 5.05074
#
# Compressibility (1/GPa) = 0.05957630
#
# Stress axis : x y z
#
# Youngs Moduli (GPa) = 106.83503 64.44593 19.66382
#
# Poissons Ratio (x) = 0.14399 0.04148
# Poissons Ratio (y) = 0.23870 0.07342
# Poissons Ratio (z) = 0.22537 0.24064
#
# Static dielectric constant tensor:
#      x y z
#    x 3.680330 0.000000 0.000000 
#    y 0.000000 3.953600 0.000000 
#    z 0.000000 0.000000 3.070980 
# 
# 
# High freq. dielectric constant tensor:
#      x y z
#    x 1.761850 0.000000 0.000000 
#    y 0.000000 1.766010 0.000000 
#    z 0.000000 0.000000 1.703040 
# 
# From -- ./inp_files/7090.got.cif
#   From: 2010.03.12/outbox.cif.g09.slc.cpg/sg64_4_cif.got.tgz:7090.got - 2010.04.10 20:19:32.
