data_PCOD8262893
_publ_section_title
;
Structure prediction by ZEFSAII (Michael W. Deem and Ramdas Pophale) SiO2 
 PCOD8262893
Probable space group: C M C A
;
_chemical_formula_sum "Si O2"
_cell_formula_units_Z 80
_cell_length_a 17.215430
_cell_length_b 29.151669
_cell_length_c 7.809953
_cell_angle_alpha 90.000000
_cell_angle_beta 90.000000
_cell_angle_gamma 90.000000
_cell_volume 3919.491431
_symmetry_space_group_name_H-M "C M C A"
_symmetry_group_IT_number 64
_symmetry_cell_setting 'orthorhombic'
loop_
_space_group_symop_operation_xyz
x,y,z
-x,1/2-y,1/2+z
x,-y,-z
-x,1/2+y,1/2-z
-x,-y,-z
x,1/2+y,1/2-z
-x,y,z
x,1/2-y,1/2+z
1/2+x,1/2+y,z
1/2-x,-y,1/2+z
1/2+x,1/2-y,-z
1/2-x,y,1/2-z
1/2-x,1/2-y,-z
1/2+x,y,1/2-z
1/2-x,1/2+y,z
1/2+x,-y,1/2+z
loop_
_atom_site_type_symbol
_atom_site_label
_atom_site_fract_x
_atom_site_fract_y
_atom_site_fract_z
Si Si1 0.908305 0.550972 0.025756
Si Si2 0.335452 0.786935 0.300486
Si Si3 0.589074 0.103993 0.354193
Si Si4 0.913191 0.205846 0.136161
Si Si5 0.160280 0.890083 0.227241
O O1 0.888874 0.580523 0.859495
O O2 0.000000 0.549699 0.044294
O O3 0.873880 0.500000 0.000000
O O4 0.874857 0.571945 0.204273
O O5 0.250000 0.770093 0.250000
O O6 0.399549 0.748232 0.261967
O O7 0.342550 0.791970 0.502857
O O8 0.354696 0.836796 0.220806
O O9 0.500000 0.090827 0.394692
O O10 0.594063 0.155771 0.277301
O O11 0.635789 0.098505 0.532035
O O12 0.000000 0.210387 0.056356
O O13 0.250000 0.902660 0.250000
#
# Coordination Sequence:
#
# PCOD8262893 Si02
#       5
#    16  16  16  16  16
#     4  10  22  41  65  90 114 153 203 245 300 360
#     4  10  21  36  54  80 117 158 194 235 294 356
#     4   9  20  39  60  87 122 155 196 251 296 346
#     4  10  20  34  54  85 115 151 199 241 287 342
#     4  10  22  40  59  87 122 159 197 242 301 359
#
# _framework density 20.410813000000001
#
# number of rings (size 3 to 8) (size 9 to 14) (size 15 to 20)
#    0.000    2.200    0.000    1.800    2.800    4.000 
#    3.600    3.000    0.000    0.000    0.000    0.000 
#    0.000    0.000    0.000    0.000    0.000    0.000 
#
# Total GULP energy -495710.119474 kJ/mol
# GULP energy per Si atom -12392.752987 kJ/mol
# Density = 2.036436 g / cm^3
# Si number density = 20.410813 Si / 1000 Ang^3
#
#
#
# Elastic Constant Matrix: (Units=GPa)
#
#
# Indices 1 2 3 4 5 6 
#
# 1 54.0841 42.7829 33.4506 0.0000 0.0000 0.0000
# 2 42.7829 132.4257 74.6341 0.0000 0.0000 0.0000
# 3 33.4506 74.6341 119.6460 0.0000 0.0000 0.0000
# 4 0.0000 0.0000 0.0000 34.3640 0.0000 0.0000
# 5 0.0000 0.0000 0.0000 0.0000 23.5992 0.0000
# 6 0.0000 0.0000 0.0000 0.0000 0.0000 15.5310
#
#
#
# Elastic Compliance Matrix: (Units=1/GPa)
#
#
# Indices 1 2 3 4 5 6 
#
# 1 0.025551 -0.006521 -0.003075 0.000000 0.000000 0.000000
# 2 -0.006521 0.013310 -0.006479 0.000000 0.000000 0.000000
# 3 -0.003075 -0.006479 0.013260 0.000000 0.000000 0.000000
# 4 0.000000 0.000000 0.000000 0.029100 0.000000 0.000000
# 5 0.000000 0.000000 0.000000 0.000000 0.042374 0.000000
# 6 0.000000 0.000000 0.000000 0.000000 0.000000 0.064387
#
#
# Mechanical properties :
#
#
# Convention : Reuss Voigt Hill
#
# Bulk Modulus (GPa) = 50.08083 67.54346 58.81215
# Shear Modulus (GPa) = 22.04679 25.05139 23.54909
#
# Velocity S-wave (km/s) = 3.29013 3.50717 3.40038
# Velocity P-wave (km/s) = 6.24684 7.04018 6.65534
#
# Compressibility (1/GPa) = 0.01996772
#
# Stress axis : x y z
#
# Youngs Moduli (GPa) = 39.13813 75.13138 75.41674
#
# Poissons Ratio (x) = 0.48996 0.23194
# Poissons Ratio (y) = 0.25523 0.48866
# Poissons Ratio (z) = 0.12037 0.48681
#
# Static dielectric constant tensor:
#      x y z
#    x 3.506000 0.000000 0.000000 
#    y 0.000000 4.096140 0.000000 
#    z 0.000000 0.000000 3.556210 
# 
# 
# High freq. dielectric constant tensor:
#      x y z
#    x 1.787320 0.000000 0.000000 
#    y 0.000000 1.804010 0.000000 
#    z 0.000000 0.000000 1.788600 
# 
# From -- ./inp_files/7133.got.cif
#   From: 2010.03.12/outbox.cif.g09.slc.cpg/sg64_4_cif.got.tgz:7133.got - 2010.04.10 20:19:32.
