data_PCOD8262834
_publ_section_title
;
Structure prediction by ZEFSAII (Michael W. Deem and Ramdas Pophale) SiO2 
 PCOD8262834
Probable space group: C M C A
;
_chemical_formula_sum "Si O2"
_cell_formula_units_Z 80
_cell_length_a 9.253456
_cell_length_b 18.987816
_cell_length_c 25.571937
_cell_angle_alpha 90.000000
_cell_angle_beta 90.000000
_cell_angle_gamma 90.000000
_cell_volume 4493.063998
_symmetry_space_group_name_H-M "C M C A"
_symmetry_group_IT_number 64
_symmetry_cell_setting 'orthorhombic'
loop_
_space_group_symop_operation_xyz
x,y,z
-x,1/2-y,1/2+z
x,-y,-z
-x,1/2+y,1/2-z
-x,-y,-z
x,1/2+y,1/2-z
-x,y,z
x,1/2-y,1/2+z
1/2+x,1/2+y,z
1/2-x,-y,1/2+z
1/2+x,1/2-y,-z
1/2-x,y,1/2-z
1/2-x,1/2-y,-z
1/2+x,y,1/2-z
1/2-x,1/2+y,z
1/2+x,-y,1/2+z
loop_
_atom_site_type_symbol
_atom_site_label
_atom_site_fract_x
_atom_site_fract_y
_atom_site_fract_z
Si Si1 0.831792 0.930711 0.698601
Si Si2 0.336793 0.675450 0.887684
Si Si3 0.668900 0.406771 0.301896
Si Si4 0.167730 0.840222 0.600519
Si Si5 0.333418 0.822410 0.503383
O O1 0.750000 0.903587 0.750000
O O2 0.777062 0.885196 0.649681
O O3 0.000000 0.918727 0.708749
O O4 0.795053 0.011857 0.687035
O O5 0.500000 0.662834 0.867156
O O6 0.222568 0.637737 0.850918
O O7 0.302302 0.758429 0.888037
O O8 0.320761 0.642040 0.946037
O O9 0.500000 0.393619 0.294043
O O10 0.750000 0.380340 0.250000
O O11 0.258099 0.867109 0.549778
O O12 0.000000 0.854389 0.588841
O O13 0.500000 0.808635 0.517731
O O14 0.250000 0.750000 0.500000
#
# Coordination Sequence:
#
# PCOD8262834 Si02
#       5
#    16  16  16  16  16
#     4   9  19  35  52  71  96 128 164 201 243 288
#     4   9  18  32  50  73 100 127 158 199 240 282
#     4  10  20  34  52  71  95 129 164 199 242 290
#     4   9  18  33  52  74 100 127 160 202 241 283
#     4   9  17  30  49  73 100 130 161 195 240 287
#
# _framework density 17.805222000000001
#
# number of rings (size 3 to 8) (size 9 to 14) (size 15 to 20)
#    0.000    2.800    0.000    2.400    0.000    6.400 
#    0.000    3.000    0.000    6.000    0.000    0.000 
#    0.000    0.000    0.000    0.000    0.000    0.000 
#
# Total GULP energy -495903.550435 kJ/mol
# GULP energy per Si atom -12397.588761 kJ/mol
# Density = 1.776470 g / cm^3
# Si number density = 17.805222 Si / 1000 Ang^3
#
#
#
# Elastic Constant Matrix: (Units=GPa)
#
#
# Indices 1 2 3 4 5 6 
#
# 1 95.2486 32.1233 75.3364 0.0000 0.0000 0.0000
# 2 32.1233 42.1389 49.2501 0.0000 0.0000 0.0000
# 3 75.3364 49.2501 149.7282 0.0000 0.0000 0.0000
# 4 0.0000 0.0000 0.0000 0.9096 0.0000 0.0000
# 5 0.0000 0.0000 0.0000 0.0000 42.2535 0.0000
# 6 0.0000 0.0000 0.0000 0.0000 0.0000 20.9594
#
#
#
# Elastic Compliance Matrix: (Units=1/GPa)
#
#
# Indices 1 2 3 4 5 6 
#
# 1 0.018095 -0.005122 -0.007420 0.000000 0.000000 0.000000
# 2 -0.005122 0.040002 -0.010580 0.000000 0.000000 0.000000
# 3 -0.007420 -0.010580 0.013892 0.000000 0.000000 0.000000
# 4 0.000000 0.000000 0.000000 1.099348 0.000000 0.000000
# 5 0.000000 0.000000 0.000000 0.000000 0.023667 0.000000
# 6 0.000000 0.000000 0.000000 0.000000 0.000000 0.047711
#
#
# Mechanical properties :
#
#
# Convention : Reuss Voigt Hill
#
# Bulk Modulus (GPa) = 38.84387 66.72616 52.78501
# Shear Modulus (GPa) = 3.85344 21.51822 12.68583
#
# Velocity S-wave (km/s) = 1.47272 3.48017 2.67212
# Velocity P-wave (km/s) = 4.97546 7.32842 6.26343
#
# Compressibility (1/GPa) = 0.02574409
#
# Stress axis : x y z
#
# Youngs Moduli (GPa) = 55.26408 24.99878 71.98263
#
# Poissons Ratio (x) = 0.12805 0.53409
# Poissons Ratio (y) = 0.28308 0.76161
# Poissons Ratio (z) = 0.41004 0.26450
#
# Static dielectric constant tensor:
#      x y z
#    x 3.403680 0.000000 0.000000 
#    y 0.000000 3.028750 0.000000 
#    z 0.000000 0.000000 3.807790 
# 
# 
# High freq. dielectric constant tensor:
#      x y z
#    x 1.695450 0.000000 0.000000 
#    y 0.000000 1.653200 0.000000 
#    z 0.000000 0.000000 1.702930 
# 
# From -- ./inp_files/47855.got.cif
#   From: 2010.03.12/outbox.cif.g09.slc.cpg/sg64_24_cif.got.tgz:47855.got - 2010.04.10 20:19:32.
