data_PCOD8262558
_publ_section_title
;
Structure prediction by ZEFSAII (Michael W. Deem and Ramdas Pophale) SiO2 
 PCOD8262558
Probable space group: C M C A
;
_chemical_formula_sum "Si O2"
_cell_formula_units_Z 96
_cell_length_a 12.973270
_cell_length_b 14.045467
_cell_length_c 22.404802
_cell_angle_alpha 90.000000
_cell_angle_beta 90.000000
_cell_angle_gamma 90.000000
_cell_volume 4082.505238
_symmetry_space_group_name_H-M "C M C A"
_symmetry_group_IT_number 64
_symmetry_cell_setting 'orthorhombic'
loop_
_space_group_symop_operation_xyz
x,y,z
-x,1/2-y,1/2+z
x,-y,-z
-x,1/2+y,1/2-z
-x,-y,-z
x,1/2+y,1/2-z
-x,y,z
x,1/2-y,1/2+z
1/2+x,1/2+y,z
1/2-x,-y,1/2+z
1/2+x,1/2-y,-z
1/2-x,y,1/2-z
1/2-x,1/2-y,-z
1/2+x,y,1/2-z
1/2-x,1/2+y,z
1/2+x,-y,1/2+z
loop_
_atom_site_type_symbol
_atom_site_label
_atom_site_fract_x
_atom_site_fract_y
_atom_site_fract_z
Si Si1 0.881112 0.886411 0.901261
Si Si2 0.620396 0.806819 0.267721
Si Si3 0.878876 0.120153 0.328535
Si Si4 0.621456 0.323610 0.367726
Si Si5 0.121843 0.985592 0.784029
Si Si6 0.302662 0.507059 0.434369
O O1 0.864550 0.772948 0.906658
O O2 0.836834 0.915727 0.835602
O O3 0.814433 0.953381 0.945480
O O4 0.000000 0.914179 0.910702
O O5 0.500000 0.792077 0.260377
O O6 0.666297 0.723394 0.309522
O O7 0.664766 0.807623 0.199787
O O8 0.649944 0.905811 0.299343
O O9 0.832980 0.042330 0.281320
O O10 0.854198 0.092155 0.396293
O O11 0.000000 0.123199 0.321880
O O12 0.500000 0.352984 0.365717
O O13 0.686032 0.406483 0.400513
O O14 0.000000 0.971248 0.781720
O O15 0.354218 0.500000 0.500000
#
# Coordination Sequence:
#
# PCOD8262558 Si02
#       6
#    16  16  16  16  16  16
#     4  10  23  44  67  91 126 178 233 285 339 398
#     4   9  16  31  60  97 135 170 207 267 342 410
#     4  10  19  35  61  97 139 172 210 274 344 407
#     4  10  20  41  70  97 131 177 221 271 344 410
#     4   9  16  32  60  93 128 162 212 275 339 402
#     4  12  27  42  63  98 141 182 231 277 328 407
#
# _framework density 23.514973999999999
#
# number of rings (size 3 to 8) (size 9 to 14) (size 15 to 20)
#    0.000    2.000    3.333    0.500    0.000    4.333 
#    0.000    1.667    0.000    5.000    0.000    0.000 
#    0.000    0.000    0.000    0.000    0.000    0.000 
#
# Total GULP energy -594907.304488 kJ/mol
# GULP energy per Si atom -12393.902177 kJ/mol
# Density = 2.346145 g / cm^3
# Si number density = 23.514974 Si / 1000 Ang^3
#
#
#
# Elastic Constant Matrix: (Units=GPa)
#
#
# Indices 1 2 3 4 5 6 
#
# 1 26.5805 32.9020 0.6282 0.0000 0.0000 0.0000
# 2 32.9020 184.9887 68.1185 0.0000 0.0000 0.0000
# 3 0.6282 68.1185 112.6032 0.0000 0.0000 0.0000
# 4 0.0000 0.0000 0.0000 25.6487 0.0000 0.0000
# 5 0.0000 0.0000 0.0000 0.0000 19.7611 0.0000
# 6 0.0000 0.0000 0.0000 0.0000 0.0000 32.6917
#
#
#
# Elastic Compliance Matrix: (Units=1/GPa)
#
#
# Indices 1 2 3 4 5 6 
#
# 1 0.052027 -0.011768 0.006829 0.000000 0.000000 0.000000
# 2 -0.011768 0.009617 -0.005752 0.000000 0.000000 0.000000
# 3 0.006829 -0.005752 0.012322 0.000000 0.000000 0.000000
# 4 0.000000 0.000000 0.000000 0.038988 0.000000 0.000000
# 5 0.000000 0.000000 0.000000 0.000000 0.050604 0.000000
# 6 0.000000 0.000000 0.000000 0.000000 0.000000 0.030589
#
#
# Mechanical properties :
#
#
# Convention : Reuss Voigt Hill
#
# Bulk Modulus (GPa) = 19.01735 58.60777 38.81256
# Shear Modulus (GPa) = 21.45387 30.45522 25.95454
#
# Velocity S-wave (km/s) = 3.02379 3.60271 3.32587
# Velocity P-wave (km/s) = 4.50510 6.50260 5.59373
#
# Compressibility (1/GPa) = 0.05258356
#
# Stress axis : x y z
#
# Youngs Moduli (GPa) = 19.22077 103.98398 81.15383
#
# Poissons Ratio (x) = 1.22369 -0.55418
# Poissons Ratio (y) = 0.22619 0.46680
# Poissons Ratio (z) = -0.13125 0.59812
#
# Static dielectric constant tensor:
#      x y z
#    x 4.432360 0.000000 0.000000 
#    y 0.000000 4.418620 0.000000 
#    z 0.000000 0.000000 3.894790 
# 
# 
# High freq. dielectric constant tensor:
#      x y z
#    x 1.955930 0.000000 0.000000 
#    y 0.000000 1.942520 0.000000 
#    z 0.000000 0.000000 1.882380 
# 
# From -- ./inp_files/39201.got.cif
#   From: 2010.03.12/outbox.cif.g09.slc.cpg/sg64_20_cif.got.tgz:39201.got - 2010.04.10 20:19:32.
