data_PCOD8262372
_publ_section_title
;
Structure prediction by ZEFSAII (Michael W. Deem and Ramdas Pophale) SiO2 
 PCOD8262372
Probable space group: C M C A
;
_chemical_formula_sum "Si O2"
_cell_formula_units_Z 96
_cell_length_a 19.166925
_cell_length_b 8.466614
_cell_length_c 30.145568
_cell_angle_alpha 90.000000
_cell_angle_beta 90.000000
_cell_angle_gamma 90.000000
_cell_volume 4891.991289
_symmetry_space_group_name_H-M "C M C A"
_symmetry_group_IT_number 64
_symmetry_cell_setting 'orthorhombic'
loop_
_space_group_symop_operation_xyz
x,y,z
-x,1/2-y,1/2+z
x,-y,-z
-x,1/2+y,1/2-z
-x,-y,-z
x,1/2+y,1/2-z
-x,y,z
x,1/2-y,1/2+z
1/2+x,1/2+y,z
1/2-x,-y,1/2+z
1/2+x,1/2-y,-z
1/2-x,y,1/2-z
1/2-x,1/2-y,-z
1/2+x,y,1/2-z
1/2-x,1/2+y,z
1/2+x,-y,1/2+z
loop_
_atom_site_type_symbol
_atom_site_label
_atom_site_fract_x
_atom_site_fract_y
_atom_site_fract_z
Si Si1 0.319949 0.484475 0.552211
Si Si2 0.669164 0.704832 0.757430
Si Si3 0.715491 0.220544 0.397112
Si Si4 0.582318 0.985864 0.797991
Si Si5 0.922101 0.823110 0.611899
Si Si6 0.832077 0.927529 0.150313
O O1 0.320427 0.500000 0.500000
O O2 0.330095 0.656818 0.574467
O O3 0.248847 0.401938 0.567848
O O4 0.381674 0.370222 0.567588
O O5 0.750000 0.756956 0.750000
O O6 0.619795 0.845463 0.772321
O O7 0.629430 0.638069 0.713917
O O8 0.669090 0.571670 0.796250
O O9 0.769624 0.315807 0.366901
O O10 0.670104 0.110190 0.364449
O O11 0.500000 0.001137 0.784493
O O12 0.589424 0.957317 0.850546
O O13 0.901987 0.651345 0.631010
O O14 0.000000 0.810224 0.595891
#
# Coordination Sequence:
#
# PCOD8262372 Si02
#       6
#    16  16  16  16  16  16
#     4  10  19  33  57  82 106 136 174 225 272 329
#     4  11  23  32  56  84 109 139 191 240 269 308
#     4   9  19  34  54  80 109 138 173 213 281 335
#     4  10  22  39  53  74 111 154 186 219 277 337
#     4   9  20  38  54  73 106 147 180 218 271 326
#     4   9  20  34  55  75 110 141 174 220 272 324
#
# _framework density 19.623911
#
# number of rings (size 3 to 8) (size 9 to 14) (size 15 to 20)
#    0.000    2.333    0.000    1.500   11.667    1.000 
#    0.000    0.833    0.000    1.000    0.000    0.000 
#    0.000    0.000    0.000    0.000    0.000    0.000 
#
# Total GULP energy -594944.426610 kJ/mol
# GULP energy per Si atom -12394.675554 kJ/mol
# Density = 1.957925 g / cm^3
# Si number density = 19.623911 Si / 1000 Ang^3
#
#
#
# Elastic Constant Matrix: (Units=GPa)
#
#
# Indices 1 2 3 4 5 6 
#
# 1 83.0851 2.4333 1.2987 0.0000 0.0000 0.0000
# 2 2.4333 48.8400 1.8645 0.0000 0.0000 0.0000
# 3 1.2987 1.8645 47.4794 0.0000 0.0000 0.0000
# 4 0.0000 0.0000 0.0000 25.3603 0.0000 0.0000
# 5 0.0000 0.0000 0.0000 0.0000 14.9975 0.0000
# 6 0.0000 0.0000 0.0000 0.0000 0.0000 12.4882
#
#
#
# Elastic Compliance Matrix: (Units=1/GPa)
#
#
# Indices 1 2 3 4 5 6 
#
# 1 0.012058 -0.000589 -0.000307 0.000000 0.000000 0.000000
# 2 -0.000589 0.020535 -0.000790 0.000000 0.000000 0.000000
# 3 -0.000307 -0.000790 0.021101 0.000000 0.000000 0.000000
# 4 0.000000 0.000000 0.000000 0.039432 0.000000 0.000000
# 5 0.000000 0.000000 0.000000 0.000000 0.066678 0.000000
# 6 0.000000 0.000000 0.000000 0.000000 0.000000 0.080075
#
#
# Mechanical properties :
#
#
# Convention : Reuss Voigt Hill
#
# Bulk Modulus (GPa) = 19.87216 21.17749 20.52483
# Shear Modulus (GPa) = 19.22894 22.15639 20.69267
#
# Velocity S-wave (km/s) = 3.13369 3.36378 3.25077
# Velocity P-wave (km/s) = 4.82098 5.08938 4.95700
#
# Compressibility (1/GPa) = 0.05032165
#
# Stress axis : x y z
#
# Youngs Moduli (GPa) = 82.93321 48.69841 47.39066
#
# Poissons Ratio (x) = 0.02868 0.01453
# Poissons Ratio (y) = 0.04885 0.03745
# Poissons Ratio (z) = 0.02543 0.03849
#
# Static dielectric constant tensor:
#      x y z
#    x 3.566030 0.000000 0.000000 
#    y 0.000000 3.643160 0.000000 
#    z 0.000000 0.000000 3.520160 
# 
# 
# High freq. dielectric constant tensor:
#      x y z
#    x 1.748250 0.000000 0.000000 
#    y 0.000000 1.765310 0.000000 
#    z 0.000000 0.000000 1.758870 
# 
# From -- ./inp_files/50644.got.cif
#   From: 2010.03.12/outbox.cif.g09.slc.cpg/sg64_26_cif.got.tgz:50644.got - 2010.04.10 20:19:32.
