data_PCOD8262343
_publ_section_title
;
Structure prediction by ZEFSAII (Michael W. Deem and Ramdas Pophale) SiO2 
 PCOD8262343
Probable space group: C M C A
;
_chemical_formula_sum "Si O2"
_cell_formula_units_Z 96
_cell_length_a 22.611863
_cell_length_b 9.427472
_cell_length_c 23.959703
_cell_angle_alpha 90.000000
_cell_angle_beta 90.000000
_cell_angle_gamma 90.000000
_cell_volume 5107.554707
_symmetry_space_group_name_H-M "C M C A"
_symmetry_group_IT_number 64
_symmetry_cell_setting 'orthorhombic'
loop_
_space_group_symop_operation_xyz
x,y,z
-x,1/2-y,1/2+z
x,-y,-z
-x,1/2+y,1/2-z
-x,-y,-z
x,1/2+y,1/2-z
-x,y,z
x,1/2-y,1/2+z
1/2+x,1/2+y,z
1/2-x,-y,1/2+z
1/2+x,1/2-y,-z
1/2-x,y,1/2-z
1/2-x,1/2-y,-z
1/2+x,y,1/2-z
1/2-x,1/2+y,z
1/2+x,-y,1/2+z
loop_
_atom_site_type_symbol
_atom_site_label
_atom_site_fract_x
_atom_site_fract_y
_atom_site_fract_z
Si Si1 0.068951 0.315502 0.201115
Si Si2 0.190620 0.835962 0.998007
Si Si3 0.643697 0.664459 0.884225
Si Si4 0.116644 0.873814 0.700475
Si Si5 0.355282 0.653770 0.121620
Si Si6 0.761521 0.281242 0.811347
O O1 0.103034 0.229172 0.248191
O O2 0.079953 0.483236 0.205833
O O3 0.094292 0.260960 0.142365
O O4 0.000000 0.284878 0.205309
O O5 0.149662 0.795851 0.050677
O O6 0.250000 0.750000 0.000000
O O7 0.156677 0.797928 0.941439
O O8 0.208368 0.000000 0.000000
O O9 0.600292 0.781076 0.855305
O O10 0.618676 0.505755 0.876861
O O11 0.708181 0.666760 0.853103
O O12 0.187830 0.904959 0.698377
O O13 0.296954 0.658747 0.160032
O O14 0.750000 0.213674 0.750000
#
# Coordination Sequence:
#
# PCOD8262343 Si02
#       6
#    16  16  16  16  16  16
#     4  12  25  42  60  84 117 161 201 241 289 358
#     4  10  19  33  55  87 124 160 192 235 297 359
#     4   9  21  35  55  89 119 155 192 241 298 355
#     4  10  23  37  60  84 117 149 194 242 300 351
#     4  11  21  36  60  87 124 157 201 241 295 355
#     4  10  20  31  58  88 123 146 190 235 307 346
#
# _framework density 18.795687999999998
#
# number of rings (size 3 to 8) (size 9 to 14) (size 15 to 20)
#    1.000    0.667    3.333    1.500    2.333    2.000 
#    0.000    0.833    0.000    7.500    0.000    0.000 
#    0.000    0.000    0.000    0.000    0.000    0.000 
#
# Total GULP energy -594769.377949 kJ/mol
# GULP energy per Si atom -12391.028707 kJ/mol
# Density = 1.875291 g / cm^3
# Si number density = 18.795688 Si / 1000 Ang^3
#
#
#
# Elastic Constant Matrix: (Units=GPa)
#
#
# Indices 1 2 3 4 5 6 
#
# 1 66.5673 14.0318 19.8788 0.0000 0.0000 0.0000
# 2 14.0318 88.9094 43.9190 0.0000 0.0000 0.0000
# 3 19.8788 43.9190 152.6583 0.0000 0.0000 0.0000
# 4 0.0000 0.0000 0.0000 30.9073 0.0000 0.0000
# 5 0.0000 0.0000 0.0000 0.0000 9.4539 0.0000
# 6 0.0000 0.0000 0.0000 0.0000 0.0000 21.2439
#
#
#
# Elastic Compliance Matrix: (Units=1/GPa)
#
#
# Indices 1 2 3 4 5 6 
#
# 1 0.015855 -0.001728 -0.001567 0.000000 0.000000 0.000000
# 2 -0.001728 0.013299 -0.003601 0.000000 0.000000 0.000000
# 3 -0.001567 -0.003601 0.007791 0.000000 0.000000 0.000000
# 4 0.000000 0.000000 0.000000 0.032355 0.000000 0.000000
# 5 0.000000 0.000000 0.000000 0.000000 0.105776 0.000000
# 6 0.000000 0.000000 0.000000 0.000000 0.000000 0.047072
#
#
# Mechanical properties :
#
#
# Convention : Reuss Voigt Hill
#
# Bulk Modulus (GPa) = 43.19375 51.53271 47.36323
# Shear Modulus (GPa) = 20.52059 27.67470 24.09765
#
# Velocity S-wave (km/s) = 3.30778 3.84134 3.58450
# Velocity P-wave (km/s) = 6.13344 6.86669 6.51040
#
# Compressibility (1/GPa) = 0.02315150
#
# Stress axis : x y z
#
# Youngs Moduli (GPa) = 63.07274 75.19403 128.35839
#
# Poissons Ratio (x) = 0.12993 0.20120
# Poissons Ratio (y) = 0.10899 0.46222
# Poissons Ratio (z) = 0.09886 0.27078
#
# Static dielectric constant tensor:
#      x y z
#    x 3.111650 0.000000 0.000000 
#    y 0.000000 2.984560 0.000000 
#    z 0.000000 0.000000 3.714150 
# 
# 
# High freq. dielectric constant tensor:
#      x y z
#    x 1.691240 0.000000 0.000000 
#    y 0.000000 1.723820 0.000000 
#    z 0.000000 0.000000 1.743950 
# 
# From -- ./inp_files/46597.got.cif
#   From: 2010.03.12/outbox.cif.g09.slc.cpg/sg64_24_cif.got.tgz:46597.got - 2010.04.10 20:19:32.
