data_PCOD8262566
_publ_section_title
;
Structure prediction by ZEFSAII (Michael W. Deem and Ramdas Pophale) SiO2 
 PCOD8262566
Probable space group: C M C A
;
_chemical_formula_sum "Si O2"
_cell_formula_units_Z 104
_cell_length_a 23.493222
_cell_length_b 27.520979
_cell_length_c 9.054752
_cell_angle_alpha 90.000000
_cell_angle_beta 90.000000
_cell_angle_gamma 90.000000
_cell_volume 5854.408484
_symmetry_space_group_name_H-M "C M C A"
_symmetry_group_IT_number 64
_symmetry_cell_setting 'orthorhombic'
loop_
_space_group_symop_operation_xyz
x,y,z
-x,1/2-y,1/2+z
x,-y,-z
-x,1/2+y,1/2-z
-x,-y,-z
x,1/2+y,1/2-z
-x,y,z
x,1/2-y,1/2+z
1/2+x,1/2+y,z
1/2-x,-y,1/2+z
1/2+x,1/2-y,-z
1/2-x,y,1/2-z
1/2-x,1/2-y,-z
1/2+x,y,1/2-z
1/2-x,1/2+y,z
1/2+x,-y,1/2+z
loop_
_atom_site_type_symbol
_atom_site_label
_atom_site_fract_x
_atom_site_fract_y
_atom_site_fract_z
Si Si1 0.673396 0.631108 0.125935
Si Si2 0.814805 0.280144 0.426233
Si Si3 0.293716 0.101899 0.053639
Si Si4 0.563476 0.922677 0.535601
Si Si5 0.685857 0.695332 0.611273
Si Si6 0.851570 0.000000 0.500000
Si Si7 0.936732 0.015284 0.760237
O O1 0.680456 0.627317 0.301258
O O2 0.724897 0.599744 0.053783
O O3 0.611175 0.615394 0.075993
O O4 0.676671 0.685775 0.068959
O O5 0.748487 0.281152 0.385479
O O6 0.844734 0.297245 0.271650
O O7 0.841475 0.228030 0.478482
O O8 0.313096 0.046308 0.039278
O O9 0.314819 0.137408 0.921941
O O10 0.500000 0.900206 0.554554
O O11 0.572324 0.938716 0.366427
O O12 0.570899 0.967337 0.644965
O O13 0.890059 0.017030 0.634428
O O14 0.000000 0.017114 0.689869
#
# Coordination Sequence:
#
# PCOD8262566 Si02
#       7
#    16  16  16  16  16   8  16
#     4  10  19  36  49  75 104 144 167 216 262 315
#     4   9  17  29  55  72 103 134 172 211 258 291
#     4  10  22  33  47  74 116 140 178 201 262 318
#     4   9  18  35  54  72  94 132 183 224 256 299
#     4   9  17  32  47  79 101 137 172 211 244 314
#     4  12  21  34  48  78 107 148 164 214 260 318
#     4   9  19  34  53  71  95 133 185 228 251 291
#
# _framework density 17.764392000000001
#
# number of rings (size 3 to 8) (size 9 to 14) (size 15 to 20)
#    0.000    2.462    1.538    2.077    2.154    4.923 
#    0.000    0.000    0.000    0.000    0.000    6.462 
#    0.000    0.000    0.000    0.000    0.000    0.000 
#
# Total GULP energy -644194.137189 kJ/mol
# GULP energy per Si atom -12388.348792 kJ/mol
# Density = 1.772396 g / cm^3
# Si number density = 17.764392 Si / 1000 Ang^3
#
#
#
# Elastic Constant Matrix: (Units=GPa)
#
#
# Indices 1 2 3 4 5 6 
#
# 1 76.6571 20.9452 19.2784 0.0000 0.0000 0.0000
# 2 20.9452 74.3235 29.3062 0.0000 0.0000 0.0000
# 3 19.2784 29.3062 95.0763 0.0000 0.0000 0.0000
# 4 0.0000 0.0000 0.0000 20.9727 0.0000 0.0000
# 5 0.0000 0.0000 0.0000 0.0000 20.3737 0.0000
# 6 0.0000 0.0000 0.0000 0.0000 0.0000 10.5152
#
#
#
# Elastic Compliance Matrix: (Units=1/GPa)
#
#
# Indices 1 2 3 4 5 6 
#
# 1 0.014430 -0.003316 -0.001904 0.000000 0.000000 0.000000
# 2 -0.003316 0.016078 -0.004284 0.000000 0.000000 0.000000
# 3 -0.001904 -0.004284 0.012224 0.000000 0.000000 0.000000
# 4 0.000000 0.000000 0.000000 0.047681 0.000000 0.000000
# 5 0.000000 0.000000 0.000000 0.000000 0.049083 0.000000
# 6 0.000000 0.000000 0.000000 0.000000 0.000000 0.095100
#
#
# Mechanical properties :
#
#
# Convention : Reuss Voigt Hill
#
# Bulk Modulus (GPa) = 42.14810 42.79072 42.46941
# Shear Modulus (GPa) = 19.11963 22.14081 20.63022
#
# Velocity S-wave (km/s) = 3.28424 3.53421 3.41152
# Velocity P-wave (km/s) = 6.17733 6.38705 6.28306
#
# Compressibility (1/GPa) = 0.02372586
#
# Stress axis : x y z
#
# Youngs Moduli (GPa) = 69.30056 62.19618 81.80449
#
# Poissons Ratio (x) = 0.20623 0.15574
# Poissons Ratio (y) = 0.22979 0.35042
# Poissons Ratio (z) = 0.13194 0.26642
#
# Static dielectric constant tensor:
#      x y z
#    x -2.088030 0.000000 0.000000 
#    y 0.000000 3.140910 0.000000 
#    z 0.000000 0.000000 3.816540 
# 
# 
# High freq. dielectric constant tensor:
#      x y z
#    x 1.644060 0.000000 0.000000 
#    y 0.000000 1.675270 0.000000 
#    z 0.000000 0.000000 1.702800 
# 
# From -- ./inp_files/9779.got.cif
#   From: 2010.03.12/outbox.cif.g09.slc.cpg/sg64_5_cif.got.tgz:9779.got - 2010.04.10 20:19:32.
