data_PCOD8262692
_publ_section_title
;
Structure prediction by ZEFSAII (Michael W. Deem and Ramdas Pophale) SiO2 
 PCOD8262692
Probable space group: C M C A
;
_chemical_formula_sum "Si O2"
_cell_formula_units_Z 104
_cell_length_a 21.068872
_cell_length_b 29.426807
_cell_length_c 8.303016
_cell_angle_alpha 90.000000
_cell_angle_beta 90.000000
_cell_angle_gamma 90.000000
_cell_volume 5147.783818
_symmetry_space_group_name_H-M "C M C A"
_symmetry_group_IT_number 64
_symmetry_cell_setting 'orthorhombic'
loop_
_space_group_symop_operation_xyz
x,y,z
-x,1/2-y,1/2+z
x,-y,-z
-x,1/2+y,1/2-z
-x,-y,-z
x,1/2+y,1/2-z
-x,y,z
x,1/2-y,1/2+z
1/2+x,1/2+y,z
1/2-x,-y,1/2+z
1/2+x,1/2-y,-z
1/2-x,y,1/2-z
1/2-x,1/2-y,-z
1/2+x,y,1/2-z
1/2-x,1/2+y,z
1/2+x,-y,1/2+z
loop_
_atom_site_type_symbol
_atom_site_label
_atom_site_fract_x
_atom_site_fract_y
_atom_site_fract_z
Si Si1 0.000000 0.950033 0.931908
Si Si2 0.250000 0.184445 0.750000
Si Si3 0.500000 0.448363 0.550724
Si Si4 0.386563 0.113240 0.051741
Si Si5 0.251901 0.376609 0.933226
Si Si6 0.070714 0.205984 0.958257
Si Si7 0.380744 0.208429 0.869044
Si Si8 0.888458 0.388389 0.581558
O O1 0.062844 0.924262 0.997137
O O2 0.000000 0.950121 0.741447
O O3 0.000000 0.000000 0.000000
O O4 0.258352 0.157315 0.582799
O O5 0.312943 0.214129 0.778387
O O6 0.500000 0.500000 0.500000
O O7 0.562920 0.422922 0.479468
O O8 0.313507 0.094647 0.041504
O O9 0.407458 0.120807 0.234720
O O10 0.388809 0.161671 0.965595
O O11 0.250000 0.354089 0.750000
O O12 0.316080 0.407302 0.938222
O O13 0.064919 0.209613 0.765798
O O14 0.000000 0.205297 0.032845
O O15 0.111090 0.248895 0.015943
O O16 0.107930 0.159927 0.995406
#
# Coordination Sequence:
#
# PCOD8262692 Si02
#       8
#     8   8   8  16  16  16  16  16
#     4  10  22  40  63  92 117 148 201 250 308 382
#     4  10  20  40  58  90 122 156 220 256 308 366
#     4  10  22  40  63  90 123 156 195 248 318 376
#     4   9  21  38  62  85 117 160 200 251 302 366
#     4   9  18  37  63  88 121 162 205 256 313 363
#     4  12  24  37  55  84 121 164 204 251 303 362
#     4  11  24  39  57  86 122 162 210 258 301 369
#     4  10  19  40  62  83 118 159 196 249 314 361
#
# _framework density 20.202867999999999
#
# number of rings (size 3 to 8) (size 9 to 14) (size 15 to 20)
#    0.000    1.846    2.308    1.385    2.154    1.846 
#    4.154    0.769    0.000    0.000    0.000    0.000 
#    0.000    0.000    0.000    0.000    0.000    0.000 
#
# Total GULP energy -644178.810533 kJ/mol
# GULP energy per Si atom -12388.054049 kJ/mol
# Density = 2.015689 g / cm^3
# Si number density = 20.202868 Si / 1000 Ang^3
#
#
#
# Elastic Constant Matrix: (Units=GPa)
#
#
# Indices 1 2 3 4 5 6 
#
# 1 185.9669 78.0969 34.0198 0.0000 0.0000 0.0000
# 2 78.0969 134.5978 27.9148 0.0000 0.0000 0.0000
# 3 34.0198 27.9148 76.3931 0.0000 0.0000 0.0000
# 4 0.0000 0.0000 0.0000 26.7102 0.0000 0.0000
# 5 0.0000 0.0000 0.0000 0.0000 24.9035 0.0000
# 6 0.0000 0.0000 0.0000 0.0000 0.0000 16.9462
#
#
#
# Elastic Compliance Matrix: (Units=1/GPa)
#
#
# Indices 1 2 3 4 5 6 
#
# 1 0.007345 -0.003877 -0.001854 0.000000 0.000000 0.000000
# 2 -0.003877 0.010085 -0.001959 0.000000 0.000000 0.000000
# 3 -0.001854 -0.001959 0.014632 0.000000 0.000000 0.000000
# 4 0.000000 0.000000 0.000000 0.037439 0.000000 0.000000
# 5 0.000000 0.000000 0.000000 0.000000 0.040155 0.000000
# 6 0.000000 0.000000 0.000000 0.000000 0.000000 0.059010
#
#
# Mechanical properties :
#
#
# Convention : Reuss Voigt Hill
#
# Bulk Modulus (GPa) = 59.94514 75.22454 67.58484
# Shear Modulus (GPa) = 26.37049 30.84039 28.60544
#
# Velocity S-wave (km/s) = 3.61679 3.91133 3.76694
# Velocity P-wave (km/s) = 6.86859 7.59693 7.24193
#
# Compressibility (1/GPa) = 0.01668192
#
# Stress axis : x y z
#
# Youngs Moduli (GPa) = 136.15397 99.15408 68.34526
#
# Poissons Ratio (x) = 0.38442 0.12672
# Poissons Ratio (y) = 0.52787 0.13387
# Poissons Ratio (z) = 0.25244 0.19422
#
# Static dielectric constant tensor:
#      x y z
#    x 4.398670 0.000000 0.000000 
#    y 0.000000 3.385280 0.000000 
#    z 0.000000 0.000000 3.777020 
# 
# 
# High freq. dielectric constant tensor:
#      x y z
#    x 1.818670 0.000000 0.000000 
#    y 0.000000 1.736880 0.000000 
#    z 0.000000 0.000000 1.796970 
# 
# From -- ./inp_files/8703.got.cif
#   From: 2010.03.12/outbox.cif.g09.slc.cpg/sg64_5_cif.got.tgz:8703.got - 2010.04.10 20:19:32.
