data_PCOD8262178
_publ_section_title
;
Structure prediction by ZEFSAII (Michael W. Deem and Ramdas Pophale) SiO2 
 PCOD8262178
Probable space group: C M C A
;
_chemical_formula_sum "Si O2"
_cell_formula_units_Z 104
_cell_length_a 18.211852
_cell_length_b 26.281266
_cell_length_c 12.049759
_cell_angle_alpha 90.000000
_cell_angle_beta 90.000000
_cell_angle_gamma 90.000000
_cell_volume 5767.382498
_symmetry_space_group_name_H-M "C M C A"
_symmetry_group_IT_number 64
_symmetry_cell_setting 'orthorhombic'
loop_
_space_group_symop_operation_xyz
x,y,z
-x,1/2-y,1/2+z
x,-y,-z
-x,1/2+y,1/2-z
-x,-y,-z
x,1/2+y,1/2-z
-x,y,z
x,1/2-y,1/2+z
1/2+x,1/2+y,z
1/2-x,-y,1/2+z
1/2+x,1/2-y,-z
1/2-x,y,1/2-z
1/2-x,1/2-y,-z
1/2+x,y,1/2-z
1/2-x,1/2+y,z
1/2+x,-y,1/2+z
loop_
_atom_site_type_symbol
_atom_site_label
_atom_site_fract_x
_atom_site_fract_y
_atom_site_fract_z
Si Si1 0.580558 0.140044 0.564465
Si Si2 0.193495 0.822381 0.493463
Si Si3 0.825223 0.500000 0.500000
Si Si4 0.081674 0.433759 0.643884
Si Si5 0.346989 0.781886 0.576929
Si Si6 0.164685 0.352842 0.772703
Si Si7 0.275045 0.407407 0.131042
O O1 0.500000 0.140824 0.623277
O O2 0.579100 0.102625 0.461189
O O3 0.598013 0.196178 0.516627
O O4 0.645216 0.119998 0.644839
O O5 0.265212 0.798238 0.547318
O O6 0.148071 0.779593 0.424473
O O7 0.146310 0.842101 0.598465
O O8 0.214048 0.867592 0.410532
O O9 0.874846 0.515694 0.393801
O O10 0.775423 0.453273 0.457859
O O11 0.122153 0.404769 0.743456
O O12 0.000000 0.449563 0.682357
O O13 0.364386 0.804832 0.698963
O O14 0.250000 0.363537 0.750000
O O15 0.250000 0.428257 0.250000
#
# Coordination Sequence:
#
# PCOD8262178 Si02
#       7
#    16  16   8  16  16  16  16
#     4   8  15  30  50  74 103 130 162 208 252 293
#     4   9  17  29  45  69  99 128 159 197 238 290
#     4  10  19  32  50  74  97 124 172 226 267 302
#     4   9  17  30  50  74  98 124 162 211 260 306
#     4   8  15  26  45  71  96 127 163 191 229 287
#     4   9  16  28  47  70  96 128 158 196 246 292
#     4  10  21  33  50  75 101 131 170 215 263 311
#
# _framework density 18.032444000000002
#
# number of rings (size 3 to 8) (size 9 to 14) (size 15 to 20)
#    0.000    3.077    0.000    3.000    0.000    6.769 
#    0.000    0.769    0.000    5.538    0.000    1.615 
#    0.000    0.000    0.000    0.000    0.000    0.000 
#
# Total GULP energy -644467.946065 kJ/mol
# GULP energy per Si atom -12393.614347 kJ/mol
# Density = 1.799140 g / cm^3
# Si number density = 18.032444 Si / 1000 Ang^3
#
#
#
# Elastic Constant Matrix: (Units=GPa)
#
#
# Indices 1 2 3 4 5 6 
#
# 1 59.4246 23.9934 25.4625 0.0000 0.0000 0.0000
# 2 23.9934 94.9786 22.8754 0.0000 0.0000 0.0000
# 3 25.4625 22.8754 70.0494 0.0000 0.0000 0.0000
# 4 0.0000 0.0000 0.0000 22.5040 0.0000 0.0000
# 5 0.0000 0.0000 0.0000 0.0000 17.7468 0.0000
# 6 0.0000 0.0000 0.0000 0.0000 0.0000 15.9744
#
#
#
# Elastic Compliance Matrix: (Units=1/GPa)
#
#
# Indices 1 2 3 4 5 6 
#
# 1 0.021115 -0.003783 -0.006440 0.000000 0.000000 0.000000
# 2 -0.003783 0.012105 -0.002578 0.000000 0.000000 0.000000
# 3 -0.006440 -0.002578 0.017458 0.000000 0.000000 0.000000
# 4 0.000000 0.000000 0.000000 0.044436 0.000000 0.000000
# 5 0.000000 0.000000 0.000000 0.000000 0.056348 0.000000
# 6 0.000000 0.000000 0.000000 0.000000 0.000000 0.062600
#
#
# Mechanical properties :
#
#
# Convention : Reuss Voigt Hill
#
# Bulk Modulus (GPa) = 39.87730 41.01278 40.44504
# Shear Modulus (GPa) = 20.15939 21.38648 20.77293
#
# Velocity S-wave (km/s) = 3.34720 3.44757 3.39776
# Velocity P-wave (km/s) = 6.09102 6.21618 6.15392
#
# Compressibility (1/GPa) = 0.02507693
#
# Stress axis : x y z
#
# Youngs Moduli (GPa) = 47.36023 82.60872 57.27934
#
# Poissons Ratio (x) = 0.31251 0.36886
# Poissons Ratio (y) = 0.17916 0.14767
# Poissons Ratio (z) = 0.30498 0.21297
#
# Static dielectric constant tensor:
#      x y z
#    x 3.412030 0.000000 0.000000 
#    y 0.000000 3.443700 0.000000 
#    z 0.000000 0.000000 3.145470 
# 
# 
# High freq. dielectric constant tensor:
#      x y z
#    x 1.668790 0.000000 0.000000 
#    y 0.000000 1.694710 0.000000 
#    z 0.000000 0.000000 1.667460 
# 
# From -- ./inp_files/16434.got.cif
#   From: 2010.03.12/outbox.cif.g09.slc.cpg/sg64_9_cif.got.tgz:16434.got - 2010.04.10 20:19:32.
