data_PCOD8262859
_publ_section_title
;
Structure prediction by ZEFSAII (Michael W. Deem and Ramdas Pophale) SiO2 
 PCOD8262859
Probable space group: C M C A
;
_chemical_formula_sum "Si O2"
_cell_formula_units_Z 64
_cell_length_a 14.938373
_cell_length_b 14.985225
_cell_length_c 14.775036
_cell_angle_alpha 90.000000
_cell_angle_beta 90.000000
_cell_angle_gamma 90.000000
_cell_volume 3307.463919
_symmetry_space_group_name_H-M "C M C A"
_symmetry_group_IT_number 64
_symmetry_cell_setting 'orthorhombic'
loop_
_space_group_symop_operation_xyz
x,y,z
-x,1/2-y,1/2+z
x,-y,-z
-x,1/2+y,1/2-z
-x,-y,-z
x,1/2+y,1/2-z
-x,y,z
x,1/2-y,1/2+z
1/2+x,1/2+y,z
1/2-x,-y,1/2+z
1/2+x,1/2-y,-z
1/2-x,y,1/2-z
1/2-x,1/2-y,-z
1/2+x,y,1/2-z
1/2-x,1/2+y,z
1/2+x,-y,1/2+z
loop_
_atom_site_type_symbol
_atom_site_label
_atom_site_fract_x
_atom_site_fract_y
_atom_site_fract_z
Si Si1 0.901084 0.645509 0.381533
Si Si2 0.901060 0.157830 0.634019
Si Si3 0.155811 0.027592 0.788832
Si Si4 0.232603 0.095812 0.965301
O O1 0.891126 0.740237 0.329485
O O2 0.895657 0.564027 0.310563
O O3 0.824342 0.644700 0.457688
O O4 0.000000 0.639290 0.426862
O O5 0.825172 0.145630 0.557592
O O6 0.000000 0.144889 0.590402
O O7 0.894839 0.088547 0.716458
O O8 0.250000 0.995940 0.750000
O O9 0.168698 0.087657 0.878063
O O10 0.263207 0.000000 0.000000
#
# Coordination Sequence:
#
# PCOD8262859 Si02
#       4
#    16  16  16  16
#     4  10  20  34  55  80 105 138 177 215 257 308
#     4  10  20  34  53  79 109 139 173 213 260 312
#     4   9  19  34  53  77 105 138 174 216 262 306
#     4   9  19  35  54  76 104 139 175 214 259 306
#
# _framework density 19.350173000000002
#
# number of rings (size 3 to 8) (size 9 to 14) (size 15 to 20)
#    0.000    2.500    0.000    1.500    0.000    9.000 
#    0.000    2.500    0.000    9.000    0.000    0.000 
#    0.000    0.000    0.000    0.000    0.000    0.000 
#
# Total GULP energy -396560.518897 kJ/mol
# GULP energy per Si atom -12392.516216 kJ/mol
# Density = 1.930613 g / cm^3
# Si number density = 19.350173 Si / 1000 Ang^3
#
#
#
# Elastic Constant Matrix: (Units=GPa)
#
#
# Indices 1 2 3 4 5 6 
#
# 1 137.5150 79.2689 43.6644 0.0000 0.0000 0.0000
# 2 79.2689 134.6495 50.1779 0.0000 0.0000 0.0000
# 3 43.6644 50.1779 79.1706 0.0000 0.0000 0.0000
# 4 0.0000 0.0000 0.0000 16.8746 0.0000 0.0000
# 5 0.0000 0.0000 0.0000 0.0000 16.0671 0.0000
# 6 0.0000 0.0000 0.0000 0.0000 0.0000 26.2916
#
#
#
# Elastic Compliance Matrix: (Units=1/GPa)
#
#
# Indices 1 2 3 4 5 6 
#
# 1 0.011422 -0.005730 -0.002668 0.000000 0.000000 0.000000
# 2 -0.005730 0.012598 -0.004824 0.000000 0.000000 0.000000
# 3 -0.002668 -0.004824 0.017160 0.000000 0.000000 0.000000
# 4 0.000000 0.000000 0.000000 0.059260 0.000000 0.000000
# 5 0.000000 0.000000 0.000000 0.000000 0.062239 0.000000
# 6 0.000000 0.000000 0.000000 0.000000 0.000000 0.038035
#
#
# Mechanical properties :
#
#
# Convention : Reuss Voigt Hill
#
# Bulk Modulus (GPa) = 67.86294 77.50638 72.68466
# Shear Modulus (GPa) = 21.54522 23.72827 22.63674
#
# Velocity S-wave (km/s) = 3.34044 3.50559 3.42401
# Velocity P-wave (km/s) = 7.07285 7.51845 7.29905
#
# Compressibility (1/GPa) = 0.01473558
#
# Stress axis : x y z
#
# Youngs Moduli (GPa) = 87.54999 79.37937 58.27557
#
# Poissons Ratio (x) = 0.45485 0.15547
# Poissons Ratio (y) = 0.50166 0.28113
# Poissons Ratio (z) = 0.23357 0.38294
#
# Static dielectric constant tensor:
#      x y z
#    x 3.660750 0.000000 0.000000 
#    y 0.000000 3.601640 0.000000 
#    z 0.000000 0.000000 3.480680 
# 
# 
# High freq. dielectric constant tensor:
#      x y z
#    x 1.764890 0.000000 0.000000 
#    y 0.000000 1.763540 0.000000 
#    z 0.000000 0.000000 1.724080 
# 
# From -- ./inp_files/23249.got.cif
#   From: 2010.03.12/outbox.cif.g09.slc.cpg/sg64_12_cif.got.tgz:23249.got - 2010.04.10 20:19:32.
