data_PCOD8262026
_publ_section_title
;
Structure prediction by ZEFSAII (Michael W. Deem and Ramdas Pophale) SiO2 
 PCOD8262026
Probable space group: C M C A
;
_chemical_formula_sum "Si O2"
_cell_formula_units_Z 96
_cell_length_a 9.124013
_cell_length_b 23.571872
_cell_length_c 25.481635
_cell_angle_alpha 90.000000
_cell_angle_beta 90.000000
_cell_angle_gamma 90.000000
_cell_volume 5480.336936
_symmetry_space_group_name_H-M "C M C A"
_symmetry_group_IT_number 64
_symmetry_cell_setting 'orthorhombic'
loop_
_space_group_symop_operation_xyz
x,y,z
-x,1/2-y,1/2+z
x,-y,-z
-x,1/2+y,1/2-z
-x,-y,-z
x,1/2+y,1/2-z
-x,y,z
x,1/2-y,1/2+z
1/2+x,1/2+y,z
1/2-x,-y,1/2+z
1/2+x,1/2-y,-z
1/2-x,y,1/2-z
1/2-x,1/2-y,-z
1/2+x,y,1/2-z
1/2-x,1/2+y,z
1/2+x,-y,1/2+z
loop_
_atom_site_type_symbol
_atom_site_label
_atom_site_fract_x
_atom_site_fract_y
_atom_site_fract_z
Si Si1 0.171837 0.186581 0.803227
Si Si2 0.825795 0.498595 0.559201
Si Si3 0.671040 0.120433 0.396288
Si Si4 0.170518 0.690919 0.499909
Si Si5 0.672220 0.183105 0.196290
Si Si6 0.325703 0.618294 0.903023
O O1 0.250000 0.167470 0.750000
O O2 0.209190 0.251613 0.817747
O O3 0.233840 0.146537 0.849544
O O4 0.000000 0.178288 0.794968
O O5 0.761165 0.500000 0.500000
O O6 0.773522 0.442854 0.590123
O O7 0.770015 0.553516 0.591589
O O8 0.000000 0.498225 0.554867
O O9 0.500000 0.121415 0.380947
O O10 0.702963 0.159503 0.445952
O O11 0.766960 0.142543 0.348522
O O12 0.250000 0.750000 0.500000
O O13 0.234438 0.653311 0.547350
O O14 0.000000 0.702087 0.508334
O O15 0.500000 0.173450 0.202460
O O16 0.750000 0.165348 0.250000
O O17 0.500000 0.620134 0.903350
#
# Coordination Sequence:
#
# PCOD8262026 Si02
#       6
#    16  16  16  16  16  16
#     4   9  18  32  51  73  97 129 165 205 251 299
#     4   9  15  28  50  75 100 132 172 209 243 291
#     4  10  19  31  51  78 103 130 169 213 255 301
#     4  10  19  30  47  73 103 131 164 208 256 305
#     4  10  20  35  54  75 102 135 169 206 252 304
#     4   9  16  29  49  72  99 130 167 206 247 296
#
# _framework density 17.517171999999999
#
# number of rings (size 3 to 8) (size 9 to 14) (size 15 to 20)
#    0.000    2.500    1.667    1.500    0.000    2.667 
#    0.000    1.667    0.000    4.500    0.000    0.000 
#    0.000    0.000    0.000    0.000    0.000    0.000 
#
# Total GULP energy -595181.194780 kJ/mol
# GULP energy per Si atom -12399.608225 kJ/mol
# Density = 1.747730 g / cm^3
# Si number density = 17.517172 Si / 1000 Ang^3
#
#
#
# Elastic Constant Matrix: (Units=GPa)
#
#
# Indices 1 2 3 4 5 6 
#
# 1 39.3533 41.9383 49.3275 0.0000 0.0000 0.0000
# 2 41.9383 155.0929 85.0611 0.0000 0.0000 0.0000
# 3 49.3275 85.0611 146.2892 0.0000 0.0000 0.0000
# 4 0.0000 0.0000 0.0000 20.6890 0.0000 0.0000
# 5 0.0000 0.0000 0.0000 0.0000 27.4341 0.0000
# 6 0.0000 0.0000 0.0000 0.0000 0.0000 17.8320
#
#
#
# Elastic Compliance Matrix: (Units=1/GPa)
#
#
# Indices 1 2 3 4 5 6 
#
# 1 0.047490 -0.005960 -0.012548 0.000000 0.000000 0.000000
# 2 -0.005960 0.010215 -0.003930 0.000000 0.000000 0.000000
# 3 -0.012548 -0.003930 0.013352 0.000000 0.000000 0.000000
# 4 0.000000 0.000000 0.000000 0.048335 0.000000 0.000000
# 5 0.000000 0.000000 0.000000 0.000000 0.036451 0.000000
# 6 0.000000 0.000000 0.000000 0.000000 0.000000 0.056079
#
#
# Mechanical properties :
#
#
# Convention : Reuss Voigt Hill
#
# Bulk Modulus (GPa) = 38.19459 77.04323 57.61891
# Shear Modulus (GPa) = 18.83071 24.15160 21.49116
#
# Velocity S-wave (km/s) = 3.28225 3.71717 3.50646
# Velocity P-wave (km/s) = 6.01795 7.90570 7.02552
#
# Compressibility (1/GPa) = 0.02618172
#
# Stress axis : x y z
#
# Youngs Moduli (GPa) = 21.05694 97.89895 74.89593
#
# Poissons Ratio (x) = 0.58345 0.93979
# Poissons Ratio (y) = 0.12549 0.29433
# Poissons Ratio (z) = 0.26422 0.38472
#
# Static dielectric constant tensor:
#      x y z
#    x 2.900970 0.000000 0.000000 
#    y 0.000000 3.437510 0.000000 
#    z 0.000000 0.000000 3.355920 
# 
# 
# High freq. dielectric constant tensor:
#      x y z
#    x 1.639700 0.000000 0.000000 
#    y 0.000000 1.681950 0.000000 
#    z 0.000000 0.000000 1.683010 
# 
# From -- ./inp_files/43002.got.cif
#   From: 2010.03.12/outbox.cif.g09.slc.cpg/sg64_22_cif.got.tgz:43002.got - 2010.04.10 20:19:32.
