data_PCOD8262475
_publ_section_title
;
Structure prediction by ZEFSAII (Michael W. Deem and Ramdas Pophale) SiO2 
 PCOD8262475
Probable space group: C M C A
;
_chemical_formula_sum "Si O2"
_cell_formula_units_Z 96
_cell_length_a 13.321844
_cell_length_b 20.572896
_cell_length_c 16.444418
_cell_angle_alpha 90.000000
_cell_angle_beta 90.000000
_cell_angle_gamma 90.000000
_cell_volume 4506.903736
_symmetry_space_group_name_H-M "C M C A"
_symmetry_group_IT_number 64
_symmetry_cell_setting 'orthorhombic'
loop_
_space_group_symop_operation_xyz
x,y,z
-x,1/2-y,1/2+z
x,-y,-z
-x,1/2+y,1/2-z
-x,-y,-z
x,1/2+y,1/2-z
-x,y,z
x,1/2-y,1/2+z
1/2+x,1/2+y,z
1/2-x,-y,1/2+z
1/2+x,1/2-y,-z
1/2-x,y,1/2-z
1/2-x,1/2-y,-z
1/2+x,y,1/2-z
1/2-x,1/2+y,z
1/2+x,-y,1/2+z
loop_
_atom_site_type_symbol
_atom_site_label
_atom_site_fract_x
_atom_site_fract_y
_atom_site_fract_z
Si Si1 0.772333 0.062411 0.337244
Si Si2 0.385728 0.213583 0.547794
Si Si3 0.382324 0.986704 0.411482
Si Si4 0.619731 0.074871 0.857582
Si Si5 0.882921 0.367275 0.307783
Si Si6 0.195146 0.648485 0.015473
O O1 0.750000 0.094307 0.250000
O O2 0.657457 0.046928 0.360573
O O3 0.821522 0.113161 0.398746
O O4 0.839692 0.997087 0.338154
O O5 0.500000 0.191078 0.528760
O O6 0.363433 0.201524 0.645562
O O7 0.311477 0.168793 0.494822
O O8 0.373886 0.287791 0.521767
O O9 0.500000 0.986259 0.414989
O O10 0.334486 0.000000 0.500000
O O11 0.337789 0.921052 0.370596
O O12 0.500000 0.070936 0.860083
O O13 0.659510 0.123972 0.784543
O O14 0.657794 0.102755 0.942875
O O15 0.000000 0.381970 0.298960
#
# Coordination Sequence:
#
# PCOD8262475 Si02
#       6
#    16  16  16  16  16  16
#     4  12  24  39  61  93 133 169 206 261 322 391
#     4  10  22  44  66  89 126 167 217 271 319 381
#     4  10  19  34  59  89 121 156 205 264 315 369
#     4  11  23  41  66  95 130 172 216 264 326 396
#     4   9  18  35  62  91 116 160 211 257 312 378
#     4  11  25  41  63  98 125 170 221 267 327 381
#
# _framework density 21.300654999999999
#
# number of rings (size 3 to 8) (size 9 to 14) (size 15 to 20)
#    0.000    1.500    1.667    4.000    0.000    4.000 
#    6.000    0.000    0.000    0.000    0.000    0.000 
#    0.000    0.000    0.000    0.000    0.000    0.000 
#
# Total GULP energy -594690.622412 kJ/mol
# GULP energy per Si atom -12389.387967 kJ/mol
# Density = 2.125217 g / cm^3
# Si number density = 21.300655 Si / 1000 Ang^3
#
#
#
# Elastic Constant Matrix: (Units=GPa)
#
#
# Indices 1 2 3 4 5 6 
#
# 1 58.0286 25.5427 37.2675 0.0000 0.0000 0.0000
# 2 25.5427 55.3369 38.8179 0.0000 0.0000 0.0000
# 3 37.2675 38.8179 168.8741 0.0000 0.0000 0.0000
# 4 0.0000 0.0000 0.0000 37.4273 0.0000 0.0000
# 5 0.0000 0.0000 0.0000 0.0000 25.5400 0.0000
# 6 0.0000 0.0000 0.0000 0.0000 0.0000 11.1113
#
#
#
# Elastic Compliance Matrix: (Units=1/GPa)
#
#
# Indices 1 2 3 4 5 6 
#
# 1 0.022938 -0.008390 -0.003134 0.000000 0.000000 0.000000
# 2 -0.008390 0.024614 -0.003806 0.000000 0.000000 0.000000
# 3 -0.003134 -0.003806 0.007488 0.000000 0.000000 0.000000
# 4 0.000000 0.000000 0.000000 0.026718 0.000000 0.000000
# 5 0.000000 0.000000 0.000000 0.000000 0.039154 0.000000
# 6 0.000000 0.000000 0.000000 0.000000 0.000000 0.089999
#
#
# Mechanical properties :
#
#
# Convention : Reuss Voigt Hill
#
# Bulk Modulus (GPa) = 41.01604 53.94400 47.48002
# Shear Modulus (GPa) = 20.02419 26.85649 23.44034
#
# Velocity S-wave (km/s) = 3.06939 3.55467 3.32090
# Velocity P-wave (km/s) = 5.64439 6.49827 6.08632
#
# Compressibility (1/GPa) = 0.02438070
#
# Stress axis : x y z
#
# Youngs Moduli (GPa) = 43.59511 40.62751 133.54653
#
# Poissons Ratio (x) = 0.34086 0.41848
# Poissons Ratio (y) = 0.36576 0.50832
# Poissons Ratio (z) = 0.13661 0.15464
#
# Static dielectric constant tensor:
#      x y z
#    x 3.966580 0.000000 0.000000 
#    y 0.000000 3.735820 0.000000 
#    z 0.000000 0.000000 5.051560 
# 
# 
# High freq. dielectric constant tensor:
#      x y z
#    x 1.851730 0.000000 0.000000 
#    y 0.000000 1.807280 0.000000 
#    z 0.000000 0.000000 1.844940 
# 
# From -- ./inp_files/23861.got.cif
#   From: 2010.03.12/outbox.cif.g09.slc.cpg/sg64_12_cif.got.tgz:23861.got - 2010.04.10 20:19:32.
