data_PCOD8262891
_publ_section_title
;
Structure prediction by ZEFSAII (Michael W. Deem and Ramdas Pophale) SiO2 
 PCOD8262891
Probable space group: C M C A
;
_chemical_formula_sum "Si O2"
_cell_formula_units_Z 96
_cell_length_a 9.628320
_cell_length_b 20.267570
_cell_length_c 24.170433
_cell_angle_alpha 90.000000
_cell_angle_beta 90.000000
_cell_angle_gamma 90.000000
_cell_volume 4716.682337
_symmetry_space_group_name_H-M "C M C A"
_symmetry_group_IT_number 64
_symmetry_cell_setting 'orthorhombic'
loop_
_space_group_symop_operation_xyz
x,y,z
-x,1/2-y,1/2+z
x,-y,-z
-x,1/2+y,1/2-z
-x,-y,-z
x,1/2+y,1/2-z
-x,y,z
x,1/2-y,1/2+z
1/2+x,1/2+y,z
1/2-x,-y,1/2+z
1/2+x,1/2-y,-z
1/2-x,y,1/2-z
1/2-x,1/2-y,-z
1/2+x,y,1/2-z
1/2-x,1/2+y,z
1/2+x,-y,1/2+z
loop_
_atom_site_type_symbol
_atom_site_label
_atom_site_fract_x
_atom_site_fract_y
_atom_site_fract_z
Si Si1 0.341822 0.082239 0.885173
Si Si2 0.652300 0.413395 0.512772
Si Si3 0.163990 0.537868 0.393327
Si Si4 0.347707 0.729859 0.451627
Si Si5 0.344981 0.225788 0.858679
Si Si6 0.344897 0.356793 0.800369
O O1 0.500000 0.056135 0.880228
O O2 0.324160 0.147688 0.846283
O O3 0.234816 0.026077 0.864146
O O4 0.305501 0.101637 0.949131
O O5 0.500000 0.447734 0.514427
O O6 0.763629 0.458492 0.545643
O O7 0.642074 0.348092 0.548734
O O8 0.194071 0.602909 0.356308
O O9 0.000000 0.526662 0.401535
O O10 0.500000 0.762249 0.458361
O O11 0.250000 0.750000 0.500000
O O12 0.282981 0.753444 0.395346
O O13 0.500000 0.234148 0.886152
O O14 0.335194 0.276952 0.807600
O O15 0.500000 0.376647 0.783254
O O16 0.250000 0.379902 0.750000
#
# Coordination Sequence:
#
# PCOD8262891 Si02
#       6
#    16  16  16  16  16  16
#     4  10  21  37  57  83 121 161 191 224 277 347
#     4  10  20  34  54  82 117 162 201 227 272 340
#     4  11  23  38  57  85 119 153 192 244 287 329
#     4  11  20  31  52  83 118 156 194 234 276 331
#     4  10  20  39  60  83 114 149 190 239 289 339
#     4  10  23  42  65  87 110 142 189 245 297 347
#
# _framework density 20.353289
#
# number of rings (size 3 to 8) (size 9 to 14) (size 15 to 20)
#    0.000    1.667    3.333    1.500    0.000    6.000 
#    0.000    0.833    0.000    4.000    0.000    0.000 
#    0.000    0.000    0.000    0.000    0.000    0.000 
#
# Total GULP energy -594680.505689 kJ/mol
# GULP energy per Si atom -12389.177202 kJ/mol
# Density = 2.030696 g / cm^3
# Si number density = 20.353289 Si / 1000 Ang^3
#
#
#
# Elastic Constant Matrix: (Units=GPa)
#
#
# Indices 1 2 3 4 5 6 
#
# 1 124.0993 36.6327 31.5858 0.0000 0.0000 0.0000
# 2 36.6327 110.5500 10.2219 0.0000 0.0000 0.0000
# 3 31.5858 10.2219 47.7580 0.0000 0.0000 0.0000
# 4 0.0000 0.0000 0.0000 16.6305 0.0000 0.0000
# 5 0.0000 0.0000 0.0000 0.0000 21.9506 0.0000
# 6 0.0000 0.0000 0.0000 0.0000 0.0000 27.6640
#
#
#
# Elastic Compliance Matrix: (Units=1/GPa)
#
#
# Indices 1 2 3 4 5 6 
#
# 1 0.010529 -0.002903 -0.006342 0.000000 0.000000 0.000000
# 2 -0.002903 0.010028 -0.000227 0.000000 0.000000 0.000000
# 3 -0.006342 -0.000227 0.025182 0.000000 0.000000 0.000000
# 4 0.000000 0.000000 0.000000 0.060130 0.000000 0.000000
# 5 0.000000 0.000000 0.000000 0.000000 0.045557 0.000000
# 6 0.000000 0.000000 0.000000 0.000000 0.000000 0.036148
#
#
# Mechanical properties :
#
#
# Convention : Reuss Voigt Hill
#
# Bulk Modulus (GPa) = 37.31873 48.80979 43.06426
# Shear Modulus (GPa) = 23.20717 26.84682 25.02700
#
# Velocity S-wave (km/s) = 3.38037 3.63580 3.51041
# Velocity P-wave (km/s) = 5.79752 6.45436 6.13473
#
# Compressibility (1/GPa) = 0.02679620
#
# Stress axis : x y z
#
# Youngs Moduli (GPa) = 94.97453 99.71609 39.71076
#
# Poissons Ratio (x) = 0.28943 0.25186
# Poissons Ratio (y) = 0.27567 0.00901
# Poissons Ratio (z) = 0.60237 0.02261
#
# Static dielectric constant tensor:
#      x y z
#    x 3.789360 0.000000 0.000000 
#    y 0.000000 3.965450 0.000000 
#    z 0.000000 0.000000 3.076180 
# 
# 
# High freq. dielectric constant tensor:
#      x y z
#    x 1.804380 0.000000 0.000000 
#    y 0.000000 1.807940 0.000000 
#    z 0.000000 0.000000 1.742420 
# 
# From -- ./inp_files/48120.got.cif
#   From: 2010.03.12/outbox.cif.g09.slc.cpg/sg64_25_cif.got.tgz:48120.got - 2010.04.10 20:19:32.
