data_PCOD8262670
_publ_section_title
;
Structure prediction by ZEFSAII (Michael W. Deem and Ramdas Pophale) SiO2 
 PCOD8262670
Probable space group: C M C A
;
_chemical_formula_sum "Si O2"
_cell_formula_units_Z 88
_cell_length_a 20.913560
_cell_length_b 14.565223
_cell_length_c 13.241992
_cell_angle_alpha 90.000000
_cell_angle_beta 90.000000
_cell_angle_gamma 90.000000
_cell_volume 4033.651991
_symmetry_space_group_name_H-M "C M C A"
_symmetry_group_IT_number 64
_symmetry_cell_setting 'orthorhombic'
loop_
_space_group_symop_operation_xyz
x,y,z
-x,1/2-y,1/2+z
x,-y,-z
-x,1/2+y,1/2-z
-x,-y,-z
x,1/2+y,1/2-z
-x,y,z
x,1/2-y,1/2+z
1/2+x,1/2+y,z
1/2-x,-y,1/2+z
1/2+x,1/2-y,-z
1/2-x,y,1/2-z
1/2-x,1/2-y,-z
1/2+x,y,1/2-z
1/2-x,1/2+y,z
1/2+x,-y,1/2+z
loop_
_atom_site_type_symbol
_atom_site_label
_atom_site_fract_x
_atom_site_fract_y
_atom_site_fract_z
Si Si1 0.000000 0.023410 0.759013
Si Si2 0.500000 0.190738 0.245717
Si Si3 0.266727 0.594782 0.971994
Si Si4 0.404642 0.776828 0.926279
Si Si5 0.257793 0.727551 0.367291
Si Si6 0.500000 0.842698 0.082718
Si Si7 0.094017 0.572957 0.577211
O O1 0.063586 0.062345 0.812462
O O2 0.000000 0.061165 0.644180
O O3 0.000000 0.915474 0.772685
O O4 0.436095 0.209428 0.182619
O O5 0.500000 0.255505 0.343201
O O6 0.233457 0.668898 0.896026
O O7 0.329860 0.558168 0.914841
O O8 0.227517 0.500000 0.000000
O O9 0.284472 0.651442 0.074471
O O10 0.329239 0.791655 0.909774
O O11 0.420136 0.674297 0.964344
O O12 0.436491 0.842241 0.011294
O O13 0.250000 0.710829 0.250000
O O14 0.062994 0.500000 0.500000
#
# Coordination Sequence:
#
# PCOD8262670 Si02
#       7
#     8   8  16  16  16   8  16
#     4  12  22  36  62  95 117 170 210 253 323 378
#     4  11  23  40  62  94 124 164 207 259 319 377
#     4   9  21  41  61  91 127 162 209 266 315 368
#     4  10  22  40  61  91 126 163 206 260 322 376
#     4  10  22  41  65  92 125 166 214 257 319 387
#     4  11  22  41  62  87 132 161 205 264 310 387
#     4  10  19  38  62  89 121 157 221 261 302 368
#
# _framework density 21.816457
#
# number of rings (size 3 to 8) (size 9 to 14) (size 15 to 20)
#    0.000    1.818    1.818    1.909    0.000    9.455 
#    3.273    0.000    0.000    0.000    0.000    0.000 
#    0.000    0.000    0.000    0.000    0.000    0.000 
#
# Total GULP energy -545145.870164 kJ/mol
# GULP energy per Si atom -12389.678867 kJ/mol
# Density = 2.176680 g / cm^3
# Si number density = 21.816457 Si / 1000 Ang^3
#
#
#
# Elastic Constant Matrix: (Units=GPa)
#
#
# Indices 1 2 3 4 5 6 
#
# 1 72.8396 16.6060 30.1399 0.0000 0.0000 0.0000
# 2 16.6060 101.3931 14.0040 0.0000 0.0000 0.0000
# 3 30.1399 14.0040 124.1935 0.0000 0.0000 0.0000
# 4 0.0000 0.0000 0.0000 37.5994 0.0000 0.0000
# 5 0.0000 0.0000 0.0000 0.0000 23.1770 0.0000
# 6 0.0000 0.0000 0.0000 0.0000 0.0000 18.7061
#
#
#
# Elastic Compliance Matrix: (Units=1/GPa)
#
#
# Indices 1 2 3 4 5 6 
#
# 1 0.015680 -0.002075 -0.003571 0.000000 0.000000 0.000000
# 2 -0.002075 0.010293 -0.000657 0.000000 0.000000 0.000000
# 3 -0.003571 -0.000657 0.008993 0.000000 0.000000 0.000000
# 4 0.000000 0.000000 0.000000 0.026596 0.000000 0.000000
# 5 0.000000 0.000000 0.000000 0.000000 0.043146 0.000000
# 6 0.000000 0.000000 0.000000 0.000000 0.000000 0.053458
#
#
# Mechanical properties :
#
#
# Convention : Reuss Voigt Hill
#
# Bulk Modulus (GPa) = 44.72432 46.65844 45.69138
# Shear Modulus (GPa) = 28.05433 31.74158 29.89795
#
# Velocity S-wave (km/s) = 3.58987 3.81850 3.70595
# Velocity P-wave (km/s) = 6.14228 6.39332 6.26906
#
# Compressibility (1/GPa) = 0.02235920
#
# Stress axis : x y z
#
# Youngs Moduli (GPa) = 63.77743 97.15184 111.20087
#
# Poissons Ratio (x) = 0.20156 0.39713
# Poissons Ratio (y) = 0.13232 0.07307
# Poissons Ratio (z) = 0.22776 0.06384
#
# Static dielectric constant tensor:
#      x y z
#    x 5.424950 0.000000 0.000000 
#    y 0.000000 4.273050 0.000000 
#    z 0.000000 0.000000 3.824370 
# 
# 
# High freq. dielectric constant tensor:
#      x y z
#    x 1.836180 0.000000 0.000000 
#    y 0.000000 1.868770 0.000000 
#    z 0.000000 0.000000 1.850810 
# 
# From -- ./inp_files/18260.got.cif
#   From: 2010.03.12/outbox.cif.g09.slc.cpg/sg64_10_cif.got.tgz:18260.got - 2010.04.10 20:19:32.
