data_PCOD8262337
_publ_section_title
;
Structure prediction by ZEFSAII (Michael W. Deem and Ramdas Pophale) SiO2 
 PCOD8262337
Probable space group: C M C A
;
_chemical_formula_sum "Si O2"
_cell_formula_units_Z 96
_cell_length_a 8.883658
_cell_length_b 20.317873
_cell_length_c 27.919571
_cell_angle_alpha 90.000000
_cell_angle_beta 90.000000
_cell_angle_gamma 90.000000
_cell_volume 5039.399785
_symmetry_space_group_name_H-M "C M C A"
_symmetry_group_IT_number 64
_symmetry_cell_setting 'orthorhombic'
loop_
_space_group_symop_operation_xyz
x,y,z
-x,1/2-y,1/2+z
x,-y,-z
-x,1/2+y,1/2-z
-x,-y,-z
x,1/2+y,1/2-z
-x,y,z
x,1/2-y,1/2+z
1/2+x,1/2+y,z
1/2-x,-y,1/2+z
1/2+x,1/2-y,-z
1/2-x,y,1/2-z
1/2-x,1/2-y,-z
1/2+x,y,1/2-z
1/2-x,1/2+y,z
1/2+x,-y,1/2+z
loop_
_atom_site_type_symbol
_atom_site_label
_atom_site_fract_x
_atom_site_fract_y
_atom_site_fract_z
Si Si1 0.324426 0.318941 0.552627
Si Si2 0.174661 0.165692 0.955507
Si Si3 0.176510 0.122766 0.635447
Si Si4 0.821332 0.636348 0.155226
Si Si5 0.177993 0.270465 0.299532
Si Si6 0.323081 0.998638 0.800697
O O1 0.500000 0.332069 0.543280
O O2 0.230662 0.349709 0.509041
O O3 0.293104 0.241421 0.557738
O O4 0.264679 0.354401 0.600734
O O5 0.268758 0.119223 0.919484
O O6 0.000000 0.147932 0.951402
O O7 0.268527 0.181530 0.659106
O O8 0.218058 0.054849 0.661396
O O9 0.000000 0.137547 0.638281
O O10 0.766120 0.696943 0.187931
O O11 0.756270 0.569490 0.178137
O O12 0.000000 0.634979 0.153866
O O13 0.250000 0.293684 0.250000
O O14 0.000000 0.274785 0.295450
O O15 0.500000 0.992922 0.792599
O O16 0.250000 0.015849 0.750000
#
# Coordination Sequence:
#
# PCOD8262337 Si02
#       6
#    16  16  16  16  16  16
#     4   9  17  33  56  82 110 143 179 224 276 327
#     4  10  19  33  55  84 113 144 179 226 278 324
#     4  11  22  36  55  81 110 146 186 225 272 328
#     4   9  18  36  58  80 108 142 184 227 272 324
#     4  11  21  35  55  81 109 140 180 231 280 324
#     4  10  22  39  58  79 108 147 187 226 272 327
#
# _framework density 19.049886999999998
#
# number of rings (size 3 to 8) (size 9 to 14) (size 15 to 20)
#    0.000    2.000    1.667    2.500    0.000    3.333 
#    0.000    2.500    0.000    5.000    0.000    0.000 
#    0.000    0.000    0.000    0.000    0.000    0.000 
#
# Total GULP energy -595337.971274 kJ/mol
# GULP energy per Si atom -12402.874402 kJ/mol
# Density = 1.900653 g / cm^3
# Si number density = 19.049887 Si / 1000 Ang^3
#
#
#
# Elastic Constant Matrix: (Units=GPa)
#
#
# Indices 1 2 3 4 5 6 
#
# 1 55.0414 27.7722 29.1042 0.0000 0.0000 0.0000
# 2 27.7722 65.9305 15.1745 0.0000 0.0000 0.0000
# 3 29.1042 15.1745 105.1090 0.0000 0.0000 0.0000
# 4 0.0000 0.0000 0.0000 15.6600 0.0000 0.0000
# 5 0.0000 0.0000 0.0000 0.0000 32.9250 0.0000
# 6 0.0000 0.0000 0.0000 0.0000 0.0000 21.0559
#
#
#
# Elastic Compliance Matrix: (Units=1/GPa)
#
#
# Indices 1 2 3 4 5 6 
#
# 1 0.026133 -0.009664 -0.005841 0.000000 0.000000 0.000000
# 2 -0.009664 0.019262 -0.000105 0.000000 0.000000 0.000000
# 3 -0.005841 -0.000105 0.011146 0.000000 0.000000 0.000000
# 4 0.000000 0.000000 0.000000 0.063857 0.000000 0.000000
# 5 0.000000 0.000000 0.000000 0.000000 0.030372 0.000000
# 6 0.000000 0.000000 0.000000 0.000000 0.000000 0.047493
#
#
# Mechanical properties :
#
#
# Convention : Reuss Voigt Hill
#
# Bulk Modulus (GPa) = 39.49103 41.13141 40.31122
# Shear Modulus (GPa) = 21.01523 24.19685 22.60604
#
# Velocity S-wave (km/s) = 3.32500 3.56783 3.44855
# Velocity P-wave (km/s) = 5.95954 6.21376 6.08798
#
# Compressibility (1/GPa) = 0.02532220
#
# Stress axis : x y z
#
# Youngs Moduli (GPa) = 38.26646 51.91487 89.71503
#
# Poissons Ratio (x) = 0.50168 0.52401
# Poissons Ratio (y) = 0.36979 0.00943
# Poissons Ratio (z) = 0.22351 0.00545
#
# Static dielectric constant tensor:
#      x y z
#    x 3.305580 0.000000 0.000000 
#    y 0.000000 3.505380 0.000000 
#    z 0.000000 0.000000 3.680970 
# 
# 
# High freq. dielectric constant tensor:
#      x y z
#    x 1.727550 0.000000 0.000000 
#    y 0.000000 1.722660 0.000000 
#    z 0.000000 0.000000 1.757620 
# 
# From -- ./inp_files/48046.got.cif
#   From: 2010.03.12/outbox.cif.g09.slc.cpg/sg64_25_cif.got.tgz:48046.got - 2010.04.10 20:19:32.
