data_PCOD8262464
_publ_section_title
;
Structure prediction by ZEFSAII (Michael W. Deem and Ramdas Pophale) SiO2 
 PCOD8262464
Probable space group: C M C A
;
_chemical_formula_sum "Si O2"
_cell_formula_units_Z 96
_cell_length_a 9.018133
_cell_length_b 23.890835
_cell_length_c 21.372309
_cell_angle_alpha 90.000000
_cell_angle_beta 90.000000
_cell_angle_gamma 90.000000
_cell_volume 4604.679523
_symmetry_space_group_name_H-M "C M C A"
_symmetry_group_IT_number 64
_symmetry_cell_setting 'orthorhombic'
loop_
_space_group_symop_operation_xyz
x,y,z
-x,1/2-y,1/2+z
x,-y,-z
-x,1/2+y,1/2-z
-x,-y,-z
x,1/2+y,1/2-z
-x,y,z
x,1/2-y,1/2+z
1/2+x,1/2+y,z
1/2-x,-y,1/2+z
1/2+x,1/2-y,-z
1/2-x,y,1/2-z
1/2-x,1/2-y,-z
1/2+x,y,1/2-z
1/2-x,1/2+y,z
1/2+x,-y,1/2+z
loop_
_atom_site_type_symbol
_atom_site_label
_atom_site_fract_x
_atom_site_fract_y
_atom_site_fract_z
Si Si1 0.829987 0.296860 0.690262
Si Si2 0.165172 0.629791 0.094732
Si Si3 0.824964 0.004273 0.427053
Si Si4 0.676874 0.940391 0.312753
Si Si5 0.326708 0.329653 0.340266
Si Si6 0.665586 0.196931 0.975124
O O1 0.750000 0.323638 0.750000
O O2 0.775286 0.328258 0.628788
O O3 0.797096 0.230956 0.689146
O O4 0.000000 0.310513 0.696962
O O5 0.213863 0.565607 0.099505
O O6 0.000000 0.638273 0.122200
O O7 0.168399 0.644988 0.021875
O O8 0.000000 0.991041 0.423931
O O9 0.771533 0.000000 0.500000
O O10 0.740162 0.963453 0.378863
O O11 0.500000 0.948124 0.310636
O O12 0.750000 0.969033 0.250000
O O13 0.721630 0.875005 0.307497
O O14 0.500000 0.347298 0.335043
O O15 0.267819 0.326610 0.411285
O O16 0.500000 0.218482 0.961175
O O17 0.750000 0.250000 0.000000
#
# Coordination Sequence:
#
# PCOD8262464 Si02
#       6
#    16  16  16  16  16  16
#     4  11  23  38  58  84 119 160 201 248 300 359
#     4  10  21  37  61  90 121 158 198 240 297 366
#     4  10  22  44  71  95 126 167 210 263 325 386
#     4  12  26  43  66  95 127 168 218 273 327 386
#     4  10  21  39  62  90 125 164 205 252 311 373
#     4  10  19  34  58  90 125 159 196 241 298 364
#
# _framework density 20.848357
#
# number of rings (size 3 to 8) (size 9 to 14) (size 15 to 20)
#    0.000    1.500    1.667    3.500    0.000    7.667 
#    0.000    1.667    0.000    0.000    0.000    0.000 
#    0.000    0.000    0.000    0.000    0.000    0.000 
#
# Total GULP energy -595093.848235 kJ/mol
# GULP energy per Si atom -12397.788505 kJ/mol
# Density = 2.080090 g / cm^3
# Si number density = 20.848357 Si / 1000 Ang^3
#
#
#
# Elastic Constant Matrix: (Units=GPa)
#
#
# Indices 1 2 3 4 5 6 
#
# 1 108.2556 41.3555 54.3864 0.0000 0.0000 0.0000
# 2 41.3555 68.1182 11.7501 0.0000 0.0000 0.0000
# 3 54.3864 11.7501 128.3658 0.0000 0.0000 0.0000
# 4 0.0000 0.0000 0.0000 24.8716 0.0000 0.0000
# 5 0.0000 0.0000 0.0000 0.0000 30.6609 0.0000
# 6 0.0000 0.0000 0.0000 0.0000 0.0000 28.3602
#
#
#
# Elastic Compliance Matrix: (Units=1/GPa)
#
#
# Indices 1 2 3 4 5 6 
#
# 1 0.015273 -0.008287 -0.005712 0.000000 0.000000 0.000000
# 2 -0.008287 0.019412 0.001734 0.000000 0.000000 0.000000
# 3 -0.005712 0.001734 0.010052 0.000000 0.000000 0.000000
# 4 0.000000 0.000000 0.000000 0.040207 0.000000 0.000000
# 5 0.000000 0.000000 0.000000 0.000000 0.032615 0.000000
# 6 0.000000 0.000000 0.000000 0.000000 0.000000 0.035261
#
#
# Mechanical properties :
#
#
# Convention : Reuss Voigt Hill
#
# Bulk Modulus (GPa) = 49.48875 57.74706 53.61791
# Shear Modulus (GPa) = 27.16132 29.92839 28.54485
#
# Velocity S-wave (km/s) = 3.61335 3.79295 3.70424
# Velocity P-wave (km/s) = 6.41852 6.85133 6.63845
#
# Compressibility (1/GPa) = 0.02020661
#
# Stress axis : x y z
#
# Youngs Moduli (GPa) = 65.47486 51.51339 99.48534
#
# Poissons Ratio (x) = 0.42690 0.56830
# Poissons Ratio (y) = 0.54260 -0.17253
# Poissons Ratio (z) = 0.37402 -0.08933
#
# Static dielectric constant tensor:
#      x y z
#    x 3.621730 0.000000 0.000000 
#    y 0.000000 3.199230 0.000000 
#    z 0.000000 0.000000 3.993510 
# 
# 
# High freq. dielectric constant tensor:
#      x y z
#    x 1.802100 0.000000 0.000000 
#    y 0.000000 1.810480 0.000000 
#    z 0.000000 0.000000 1.837030 
# 
# From -- ./inp_files/36961.got.cif
#   From: 2010.03.12/outbox.cif.g09.slc.cpg/sg64_19_cif.got.tgz:36961.got - 2010.04.10 20:19:32.
