data_PCOD8262273
_publ_section_title
;
Structure prediction by ZEFSAII (Michael W. Deem and Ramdas Pophale) SiO2 
 PCOD8262273
Probable space group: C M C A
;
_chemical_formula_sum "Si O2"
_cell_formula_units_Z 88
_cell_length_a 26.833977
_cell_length_b 5.104327
_cell_length_c 29.815780
_cell_angle_alpha 90.000000
_cell_angle_beta 90.000000
_cell_angle_gamma 90.000000
_cell_volume 4083.849298
_symmetry_space_group_name_H-M "C M C A"
_symmetry_group_IT_number 64
_symmetry_cell_setting 'orthorhombic'
loop_
_space_group_symop_operation_xyz
x,y,z
-x,1/2-y,1/2+z
x,-y,-z
-x,1/2+y,1/2-z
-x,-y,-z
x,1/2+y,1/2-z
-x,y,z
x,1/2-y,1/2+z
1/2+x,1/2+y,z
1/2-x,-y,1/2+z
1/2+x,1/2-y,-z
1/2-x,y,1/2-z
1/2-x,1/2-y,-z
1/2+x,y,1/2-z
1/2-x,1/2+y,z
1/2+x,-y,1/2+z
loop_
_atom_site_type_symbol
_atom_site_label
_atom_site_fract_x
_atom_site_fract_y
_atom_site_fract_z
Si Si1 0.118365 0.579465 0.546458
Si Si2 0.000000 0.347049 0.223167
Si Si3 0.804723 0.875503 0.229614
Si Si4 0.915228 0.984625 0.343284
Si Si5 0.853628 0.979485 0.143541
Si Si6 0.555331 0.425241 0.439665
O O1 0.147241 0.500000 0.500000
O O2 0.155371 0.581197 0.590137
O O3 0.074975 0.368858 0.554232
O O4 0.092283 0.860633 0.537872
O O5 0.949319 0.408870 0.197726
O O6 0.000000 0.539157 0.265945
O O7 0.832991 0.605706 0.242759
O O8 0.750000 0.818663 0.250000
O O9 0.805086 0.930684 0.175650
O O10 0.870133 0.778331 0.349831
O O11 0.949171 0.986295 0.387284
O O12 0.894571 0.278651 0.337004
O O13 0.500000 0.445935 0.460599
#
# Coordination Sequence:
#
# PCOD8262273 Si02
#       6
#    16   8  16  16  16  16
#     4  10  21  33  49  77 104 137 185 224 270 329
#     4  12  24  34  48  70  99 140 189 236 270 308
#     4  10  21  37  59  87 111 133 168 218 273 335
#     4  10  21  36  49  71 103 144 186 224 271 319
#     4  10  21  36  57  76 107 144 173 223 279 320
#     4  10  19  33  51  66 100 143 183 235 274 306
#
# _framework density 21.548297999999999
#
# number of rings (size 3 to 8) (size 9 to 14) (size 15 to 20)
#    0.000    1.818    0.909    3.273    0.000    6.545 
#    0.000    0.000    0.000    0.000    0.000    5.091 
#    0.000    0.000    0.000    0.000    0.000    0.000 
#
# Total GULP energy -545147.721948 kJ/mol
# GULP energy per Si atom -12389.720953 kJ/mol
# Density = 2.149925 g / cm^3
# Si number density = 21.548298 Si / 1000 Ang^3
#
#
#
# Elastic Constant Matrix: (Units=GPa)
#
#
# Indices 1 2 3 4 5 6 
#
# 1 34.2480 -3.4190 25.3476 0.0000 0.0000 0.0000
# 2 -3.4190 120.5042 4.1894 0.0000 0.0000 0.0000
# 3 25.3476 4.1894 117.8341 0.0000 0.0000 0.0000
# 4 0.0000 0.0000 0.0000 29.6385 0.0000 0.0000
# 5 0.0000 0.0000 0.0000 0.0000 -37.8258 0.0000
# 6 0.0000 0.0000 0.0000 0.0000 0.0000 5.8847
#
#
#
# Elastic Compliance Matrix: (Units=1/GPa)
#
#
# Indices 1 2 3 4 5 6 
#
# 1 0.034916 0.001253 -0.007555 0.000000 0.000000 0.000000
# 2 0.001253 0.008354 -0.000567 0.000000 0.000000 0.000000
# 3 -0.007555 -0.000567 0.010132 0.000000 0.000000 0.000000
# 4 0.000000 0.000000 0.000000 0.033740 0.000000 0.000000
# 5 0.000000 0.000000 0.000000 0.000000 -0.026437 0.000000
# 6 0.000000 0.000000 0.000000 0.000000 0.000000 0.169933
#
#
# Mechanical properties :
#
#
# Convention : Reuss Voigt Hill
#
# Bulk Modulus (GPa) = 25.21175 36.09138 30.65156
# Shear Modulus (GPa) = 19.41021 15.97069 17.69045
#
# Velocity S-wave (km/s) = 3.00455 2.72537 2.86836
# Velocity P-wave (km/s) = 4.87462 5.16614 5.02250
#
# Compressibility (1/GPa) = 0.03966404
#
# Stress axis : x y z
#
# Youngs Moduli (GPa) = 28.64037 119.70710 98.69799
#
# Poissons Ratio (x) = -0.15003 0.74570
# Poissons Ratio (y) = -0.03590 0.05592
# Poissons Ratio (z) = 0.21639 0.06783
#
# Static dielectric constant tensor:
#      x y z
#    x 3.253810 0.000000 0.000000 
#    y 0.000000 4.450300 0.000000 
#    z 0.000000 0.000000 4.367020 
# 
# 
# High freq. dielectric constant tensor:
#      x y z
#    x 1.767330 0.000000 0.000000 
#    y 0.000000 1.878280 0.000000 
#    z 0.000000 0.000000 1.866300 
# 
# From -- ./inp_files/2980.got.cif
#   From: 2010.03.12/outbox.cif.g09.slc.cpg/sg64_2_cif.got.tgz:2980.got - 2010.04.10 20:19:32.
