data_PCOD8262351
_publ_section_title
;
Structure prediction by ZEFSAII (Michael W. Deem and Ramdas Pophale) SiO2 
 PCOD8262351
Probable space group: C M C A
;
_chemical_formula_sum "Si O2"
_cell_formula_units_Z 64
_cell_length_a 16.681133
_cell_length_b 19.511824
_cell_length_c 8.573117
_cell_angle_alpha 90.000000
_cell_angle_beta 90.000000
_cell_angle_gamma 90.000000
_cell_volume 2790.372388
_symmetry_space_group_name_H-M "C M C A"
_symmetry_group_IT_number 64
_symmetry_cell_setting 'orthorhombic'
loop_
_space_group_symop_operation_xyz
x,y,z
-x,1/2-y,1/2+z
x,-y,-z
-x,1/2+y,1/2-z
-x,-y,-z
x,1/2+y,1/2-z
-x,y,z
x,1/2-y,1/2+z
1/2+x,1/2+y,z
1/2-x,-y,1/2+z
1/2+x,1/2-y,-z
1/2-x,y,1/2-z
1/2-x,1/2-y,-z
1/2+x,y,1/2-z
1/2-x,1/2+y,z
1/2+x,-y,1/2+z
loop_
_atom_site_type_symbol
_atom_site_label
_atom_site_fract_x
_atom_site_fract_y
_atom_site_fract_z
Si Si1 0.656409 0.969406 0.725518
Si Si2 0.594788 0.404234 0.092092
Si Si3 0.091802 0.662541 0.172459
Si Si4 0.158969 0.271546 0.521079
O O1 0.750000 0.977987 0.750000
O O2 0.635136 0.937085 0.559603
O O3 0.621483 0.915992 0.853236
O O4 0.616240 0.045328 0.737203
O O5 0.500000 0.397910 0.071015
O O6 0.633724 0.328903 0.108700
O O7 0.143739 0.700431 0.306004
O O8 0.000000 0.662189 0.224754
O O9 0.104952 0.703998 0.012086
O O10 0.250000 0.250000 0.500000
#
# Coordination Sequence:
#
# PCOD8262351 Si02
#       4
#    16  16  16  16
#     4  10  19  33  56  83 109 143 193 244 283 331
#     4  10  20  38  58  81 112 156 197 232 285 361
#     4  11  21  37  58  85 116 155 197 243 296 355
#     4  11  22  37  59  87 118 151 192 243 295 349
#
# _framework density 22.936007
#
# number of rings (size 3 to 8) (size 9 to 14) (size 15 to 20)
#    0.000    1.500    0.000   10.500    0.000    2.000 
#    0.000    0.000    0.000    0.000    0.000   31.500 
#    0.000    0.000    0.000    0.000    0.000    0.000 
#
# Total GULP energy -396621.939696 kJ/mol
# GULP energy per Si atom -12394.435615 kJ/mol
# Density = 2.288380 g / cm^3
# Si number density = 22.936007 Si / 1000 Ang^3
#
#
#
# Elastic Constant Matrix: (Units=GPa)
#
#
# Indices 1 2 3 4 5 6 
#
# 1 198.7752 54.8701 16.0537 0.0000 0.0000 0.0000
# 2 54.8701 146.4919 10.4007 0.0000 0.0000 0.0000
# 3 16.0537 10.4007 19.0445 0.0000 0.0000 0.0000
# 4 0.0000 0.0000 0.0000 24.2668 0.0000 0.0000
# 5 0.0000 0.0000 0.0000 0.0000 35.3015 0.0000
# 6 0.0000 0.0000 0.0000 0.0000 0.0000 43.0962
#
#
#
# Elastic Compliance Matrix: (Units=1/GPa)
#
#
# Indices 1 2 3 4 5 6 
#
# 1 0.005877 -0.001924 -0.003903 0.000000 0.000000 0.000000
# 2 -0.001924 0.007732 -0.002600 0.000000 0.000000 0.000000
# 3 -0.003903 -0.002600 0.057219 0.000000 0.000000 0.000000
# 4 0.000000 0.000000 0.000000 0.041208 0.000000 0.000000
# 5 0.000000 0.000000 0.000000 0.000000 0.028327 0.000000
# 6 0.000000 0.000000 0.000000 0.000000 0.000000 0.023204
#
#
# Mechanical properties :
#
#
# Convention : Reuss Voigt Hill
#
# Bulk Modulus (GPa) = 18.52814 58.55116 38.53965
# Shear Modulus (GPa) = 25.19977 39.39872 32.29925
#
# Velocity S-wave (km/s) = 3.31826 4.14909 3.75671
# Velocity P-wave (km/s) = 4.77251 6.96683 5.97133
#
# Compressibility (1/GPa) = 0.05397197
#
# Stress axis : x y z
#
# Youngs Moduli (GPa) = 170.14830 129.33788 17.47668
#
# Poissons Ratio (x) = 0.24888 0.06822
# Poissons Ratio (y) = 0.32741 0.04545
# Poissons Ratio (z) = 0.66415 0.33633
#
# Static dielectric constant tensor:
#      x y z
#    x 4.057030 0.000000 0.000000 
#    y 0.000000 5.990750 0.000000 
#    z 0.000000 0.000000 3.746180 
# 
# 
# High freq. dielectric constant tensor:
#      x y z
#    x 1.915790 0.000000 0.000000 
#    y 0.000000 1.935020 0.000000 
#    z 0.000000 0.000000 1.856450 
# 
# From -- ./inp_files/14035.got.cif
#   From: 2010.03.12/outbox.cif.g09.slc.cpg/sg64_8_cif.got.tgz:14035.got - 2010.04.10 20:19:32.
