data_PCOD8262421
_publ_section_title
;
Structure prediction by ZEFSAII (Michael W. Deem and Ramdas Pophale) SiO2 
 PCOD8262421
Probable space group: C M C A
;
_chemical_formula_sum "Si O2"
_cell_formula_units_Z 128
_cell_length_a 18.196273
_cell_length_b 21.622723
_cell_length_c 17.491936
_cell_angle_alpha 90.000000
_cell_angle_beta 90.000000
_cell_angle_gamma 90.000000
_cell_volume 6882.254183
_symmetry_space_group_name_H-M "C M C A"
_symmetry_group_IT_number 64
_symmetry_cell_setting 'orthorhombic'
loop_
_space_group_symop_operation_xyz
x,y,z
-x,1/2-y,1/2+z
x,-y,-z
-x,1/2+y,1/2-z
-x,-y,-z
x,1/2+y,1/2-z
-x,y,z
x,1/2-y,1/2+z
1/2+x,1/2+y,z
1/2-x,-y,1/2+z
1/2+x,1/2-y,-z
1/2-x,y,1/2-z
1/2-x,1/2-y,-z
1/2+x,y,1/2-z
1/2-x,1/2+y,z
1/2+x,-y,1/2+z
loop_
_atom_site_type_symbol
_atom_site_label
_atom_site_fract_x
_atom_site_fract_y
_atom_site_fract_z
Si Si1 0.415896 0.121512 0.185020
Si Si2 0.793069 0.613570 0.430269
Si Si3 0.085276 0.406169 0.307038
Si Si4 0.344094 0.967961 0.925329
Si Si5 0.713932 0.709917 0.328184
Si Si6 0.415971 0.451058 0.838609
Si Si7 0.305895 0.577959 0.683605
Si Si8 0.698202 0.337157 0.094775
O O1 0.500000 0.143140 0.184768
O O2 0.400116 0.082854 0.107708
O O3 0.366898 0.182984 0.188314
O O4 0.396954 0.078627 0.257103
O O5 0.731996 0.563088 0.451468
O O6 0.765900 0.656367 0.361109
O O7 0.866730 0.578416 0.405030
O O8 0.808897 0.655028 0.504198
O O9 0.099750 0.476246 0.333476
O O10 0.121309 0.393777 0.223679
O O11 0.122972 0.361653 0.368457
O O12 0.000000 0.389646 0.301345
O O13 0.328198 0.017131 0.860378
O O14 0.379983 0.000000 0.000000
O O15 0.750000 0.735135 0.250000
O O16 0.706953 0.764871 0.388589
O O17 0.500000 0.438208 0.861594
O O18 0.250000 0.557749 0.750000
O O19 0.269926 0.628063 0.627472
#
# Coordination Sequence:
#
# PCOD8262421 Si02
#       8
#    16  16  16  16  16  16  16  16
#     4  10  22  39  60  85 113 150 197 239 280 337
#     4  11  22  36  58  87 119 151 191 242 290 339
#     4  10  21  36  59  87 116 153 189 232 288 346
#     4  11  21  33  58  90 119 152 188 230 296 341
#     4  11  22  40  62  85 107 152 202 241 279 336
#     4  10  20  36  59  86 116 149 188 236 291 345
#     4  10  19  34  55  81 116 152 187 231 278 339
#     4  11  23  38  57  86 120 151 188 237 290 345
#
# _framework density 18.598557
#
# number of rings (size 3 to 8) (size 9 to 14) (size 15 to 20)
#    0.000    1.500    3.750    3.000    0.000    1.250 
#    0.000    1.250    0.000    0.000    0.000    0.000 
#    0.000    0.000    0.000    0.000    0.000    0.000 
#
# Total GULP energy -793858.594182 kJ/mol
# GULP energy per Si atom -12404.040534 kJ/mol
# Density = 1.855623 g / cm^3
# Si number density = 18.598557 Si / 1000 Ang^3
#
#
#
# Elastic Constant Matrix: (Units=GPa)
#
#
# Indices 1 2 3 4 5 6 
#
# 1 101.2443 29.9067 26.7926 0.0000 0.0000 0.0000
# 2 29.9067 43.3427 8.1360 0.0000 0.0000 0.0000
# 3 26.7926 8.1360 85.5170 0.0000 0.0000 0.0000
# 4 0.0000 0.0000 0.0000 32.7369 0.0000 0.0000
# 5 0.0000 0.0000 0.0000 0.0000 11.3666 0.0000
# 6 0.0000 0.0000 0.0000 0.0000 0.0000 17.0693
#
#
#
# Elastic Compliance Matrix: (Units=1/GPa)
#
#
# Indices 1 2 3 4 5 6 
#
# 1 0.013286 -0.008538 -0.003350 0.000000 0.000000 0.000000
# 2 -0.008538 0.028979 -0.000082 0.000000 0.000000 0.000000
# 3 -0.003350 -0.000082 0.012751 0.000000 0.000000 0.000000
# 4 0.000000 0.000000 0.000000 0.030547 0.000000 0.000000
# 5 0.000000 0.000000 0.000000 0.000000 0.087977 0.000000
# 6 0.000000 0.000000 0.000000 0.000000 0.000000 0.058585
#
#
# Mechanical properties :
#
#
# Convention : Reuss Voigt Hill
#
# Bulk Modulus (GPa) = 32.18051 39.97495 36.07773
# Shear Modulus (GPa) = 18.76716 23.25249 21.00983
#
# Velocity S-wave (km/s) = 3.18003 3.53970 3.36467
# Velocity P-wave (km/s) = 5.55191 6.18435 5.87664
#
# Compressibility (1/GPa) = 0.03107471
#
# Stress axis : x y z
#
# Youngs Moduli (GPa) = 75.26816 34.50792 78.42536
#
# Poissons Ratio (x) = 0.29464 0.26274
# Poissons Ratio (y) = 0.64267 0.00643
# Poissons Ratio (z) = 0.25216 0.00283
#
# Static dielectric constant tensor:
#      x y z
#    x 3.447420 0.000000 0.000000 
#    y 0.000000 3.295810 0.000000 
#    z 0.000000 0.000000 3.403970 
# 
# 
# High freq. dielectric constant tensor:
#      x y z
#    x 1.717570 0.000000 0.000000 
#    y 0.000000 1.715580 0.000000 
#    z 0.000000 0.000000 1.724570 
# 
# From -- ./inp_files/33796.got.cif
#   From: 2010.03.12/outbox.cif.g09.slc.cpg/sg64_17_cif.got.tgz:33796.got - 2010.04.10 20:19:32.
