data_PCOD8262157
_publ_section_title
;
Structure prediction by ZEFSAII (Michael W. Deem and Ramdas Pophale) SiO2 
 PCOD8262157
Probable space group: C M C A
;
_chemical_formula_sum "Si O2"
_cell_formula_units_Z 112
_cell_length_a 22.513092
_cell_length_b 12.549973
_cell_length_c 19.537741
_cell_angle_alpha 90.000000
_cell_angle_beta 90.000000
_cell_angle_gamma 90.000000
_cell_volume 5520.167880
_symmetry_space_group_name_H-M "C M C A"
_symmetry_group_IT_number 64
_symmetry_cell_setting 'orthorhombic'
loop_
_space_group_symop_operation_xyz
x,y,z
-x,1/2-y,1/2+z
x,-y,-z
-x,1/2+y,1/2-z
-x,-y,-z
x,1/2+y,1/2-z
-x,y,z
x,1/2-y,1/2+z
1/2+x,1/2+y,z
1/2-x,-y,1/2+z
1/2+x,1/2-y,-z
1/2-x,y,1/2-z
1/2-x,1/2-y,-z
1/2+x,y,1/2-z
1/2-x,1/2+y,z
1/2+x,-y,1/2+z
loop_
_atom_site_type_symbol
_atom_site_label
_atom_site_fract_x
_atom_site_fract_y
_atom_site_fract_z
Si Si1 0.934101 0.278880 0.777811
Si Si2 0.836443 0.867145 0.182360
Si Si3 0.179696 0.742232 0.432861
Si Si4 0.736255 0.156837 0.175670
Si Si5 0.135561 0.986324 0.691610
Si Si6 0.721438 0.900992 0.451776
Si Si7 0.566955 0.826217 0.130965
O O1 0.900000 0.192179 0.824653
O O2 0.904465 0.394496 0.774987
O O3 0.934754 0.237932 0.700837
O O4 0.000000 0.288453 0.808198
O O5 0.787933 0.774759 0.189710
O O6 0.819237 0.932819 0.113733
O O7 0.835456 0.942952 0.248135
O O8 0.207892 0.662439 0.375572
O O9 0.214718 0.854599 0.429001
O O10 0.186039 0.691902 0.507889
O O11 0.109945 0.761790 0.420372
O O12 0.750000 0.108243 0.250000
O O13 0.687502 0.071919 0.146698
O O14 0.094367 0.056404 0.642125
O O15 0.732141 0.000000 0.500000
O O16 0.500000 0.835635 0.100485
#
# Coordination Sequence:
#
# PCOD8262157 Si02
#       7
#    16  16  16  16  16  16  16
#     4   9  18  34  56  82 114 151 187 236 293 349
#     4   9  20  36  51  82 117 149 188 239 287 351
#     4  10  22  40  56  84 116 154 196 240 292 345
#     4  10  20  32  54  86 119 147 185 244 307 349
#     4  10  19  31  58  87 116 148 187 238 300 357
#     4  10  23  38  60  82 115 156 195 241 289 342
#     4  10  21  37  58  84 117 151 191 239 288 350
#
# _framework density 20.289238999999998
#
# number of rings (size 3 to 8) (size 9 to 14) (size 15 to 20)
#    0.000    2.286    0.000    3.000    6.000    2.286 
#    0.000    0.714    0.000    1.286    0.000    0.000 
#    0.000    0.000    0.000    0.000    0.000    0.000 
#
# Total GULP energy -694124.929022 kJ/mol
# GULP energy per Si atom -12395.088018 kJ/mol
# Density = 2.024306 g / cm^3
# Si number density = 20.289239 Si / 1000 Ang^3
#
#
#
# Elastic Constant Matrix: (Units=GPa)
#
#
# Indices 1 2 3 4 5 6 
#
# 1 138.0799 34.7733 32.2491 0.0000 0.0000 0.0000
# 2 34.7733 78.6773 -3.0989 0.0000 0.0000 0.0000
# 3 32.2491 -3.0989 42.7127 0.0000 0.0000 0.0000
# 4 0.0000 0.0000 0.0000 24.5271 0.0000 0.0000
# 5 0.0000 0.0000 0.0000 0.0000 22.9147 0.0000
# 6 0.0000 0.0000 0.0000 0.0000 0.0000 20.8301
#
#
#
# Elastic Compliance Matrix: (Units=1/GPa)
#
#
# Indices 1 2 3 4 5 6 
#
# 1 0.010398 -0.004919 -0.008207 0.000000 0.000000 0.000000
# 2 -0.004919 0.015073 0.004807 0.000000 0.000000 0.000000
# 3 -0.008207 0.004807 0.029958 0.000000 0.000000 0.000000
# 4 0.000000 0.000000 0.000000 0.040771 0.000000 0.000000
# 5 0.000000 0.000000 0.000000 0.000000 0.043640 0.000000
# 6 0.000000 0.000000 0.000000 0.000000 0.000000 0.048008
#
#
# Mechanical properties :
#
#
# Convention : Reuss Voigt Hill
#
# Bulk Modulus (GPa) = 25.77889 43.03522 34.40705
# Shear Modulus (GPa) = 22.99736 26.69078 24.84407
#
# Velocity S-wave (km/s) = 3.37037 3.63094 3.50307
# Velocity P-wave (km/s) = 5.28007 6.23179 5.77556
#
# Compressibility (1/GPa) = 0.03879143
#
# Stress axis : x y z
#
# Youngs Moduli (GPa) = 96.17429 66.34165 33.38026
#
# Poissons Ratio (x) = 0.32632 0.27397
# Poissons Ratio (y) = 0.47306 -0.16047
# Poissons Ratio (z) = 0.78934 -0.31893
#
# Static dielectric constant tensor:
#      x y z
#    x 3.916280 0.000000 0.000000 
#    y 0.000000 3.771700 0.000000 
#    z 0.000000 0.000000 3.571300 
# 
# 
# High freq. dielectric constant tensor:
#      x y z
#    x 1.784090 0.000000 0.000000 
#    y 0.000000 1.807120 0.000000 
#    z 0.000000 0.000000 1.764030 
# 
# From -- ./inp_files/41535.got.cif
#   From: 2010.03.12/outbox.cif.g09.slc.cpg/sg64_21_cif.got.tgz:41535.got - 2010.04.10 20:19:32.
