data_PCOD8262505
_publ_section_title
;
Structure prediction by ZEFSAII (Michael W. Deem and Ramdas Pophale) SiO2 
 PCOD8262505
Probable space group: C M C A
;
_chemical_formula_sum "Si O2"
_cell_formula_units_Z 96
_cell_length_a 22.340156
_cell_length_b 24.179011
_cell_length_c 8.246069
_cell_angle_alpha 90.000000
_cell_angle_beta 90.000000
_cell_angle_gamma 90.000000
_cell_volume 4454.220360
_symmetry_space_group_name_H-M "C M C A"
_symmetry_group_IT_number 64
_symmetry_cell_setting 'orthorhombic'
loop_
_space_group_symop_operation_xyz
x,y,z
-x,1/2-y,1/2+z
x,-y,-z
-x,1/2+y,1/2-z
-x,-y,-z
x,1/2+y,1/2-z
-x,y,z
x,1/2-y,1/2+z
1/2+x,1/2+y,z
1/2-x,-y,1/2+z
1/2+x,1/2-y,-z
1/2-x,y,1/2-z
1/2-x,1/2-y,-z
1/2+x,y,1/2-z
1/2-x,1/2+y,z
1/2+x,-y,1/2+z
loop_
_atom_site_type_symbol
_atom_site_label
_atom_site_fract_x
_atom_site_fract_y
_atom_site_fract_z
Si Si1 0.565921 0.973247 0.676327
Si Si2 0.428386 0.793982 0.658573
Si Si3 0.383786 0.574323 0.661182
Si Si4 0.257728 0.560553 0.559455
Si Si5 0.067886 0.181547 0.510621
Si Si6 0.643655 0.612427 0.021609
O O1 0.500000 0.949619 0.719688
O O2 0.612682 0.923027 0.665928
O O3 0.563449 0.000000 0.500000
O O4 0.583808 0.014888 0.822511
O O5 0.500000 0.805585 0.629561
O O6 0.411047 0.729564 0.634032
O O7 0.386059 0.827145 0.531300
O O8 0.402404 0.811610 0.834002
O O9 0.328255 0.571711 0.534225
O O10 0.426229 0.621240 0.588332
O O11 0.367331 0.588718 0.844028
O O12 0.237660 0.500000 0.500000
O O13 0.250000 0.564134 0.750000
O O14 0.216459 0.606065 0.463420
O O15 0.000000 0.193661 0.471432
#
# Coordination Sequence:
#
# PCOD8262505 Si02
#       6
#    16  16  16  16  16  16
#     4   9  17  30  52  82 113 145 182 228 283 339
#     4  10  21  37  58  83 111 144 183 229 283 341
#     4  10  20  34  55  83 113 147 188 232 280 334
#     4  10  21  37  56  79 111 152 192 231 278 333
#     4  10  21  37  57  83 113 145 183 230 285 341
#     4  10  19  35  56  80 111 148 190 231 277 337
#
# _framework density 21.552593000000002
#
# number of rings (size 3 to 8) (size 9 to 14) (size 15 to 20)
#    0.000    2.167    0.000    4.500    0.000    6.000 
#    0.000    0.833    0.000    4.000    0.000    0.000 
#    0.000    0.000    0.000    0.000    0.000    0.000 
#
# Total GULP energy -594631.675696 kJ/mol
# GULP energy per Si atom -12388.159910 kJ/mol
# Density = 2.150354 g / cm^3
# Si number density = 21.552593 Si / 1000 Ang^3
#
#
#
# Elastic Constant Matrix: (Units=GPa)
#
#
# Indices 1 2 3 4 5 6 
#
# 1 103.4029 37.2700 36.9325 0.0000 0.0000 0.0000
# 2 37.2700 65.8485 23.8555 0.0000 0.0000 0.0000
# 3 36.9325 23.8555 49.7752 0.0000 0.0000 0.0000
# 4 0.0000 0.0000 0.0000 29.5352 0.0000 0.0000
# 5 0.0000 0.0000 0.0000 0.0000 -84.7936 0.0000
# 6 0.0000 0.0000 0.0000 0.0000 0.0000 20.6589
#
#
#
# Elastic Compliance Matrix: (Units=1/GPa)
#
#
# Indices 1 2 3 4 5 6 
#
# 1 0.014501 -0.005215 -0.008260 0.000000 0.000000 0.000000
# 2 -0.005215 0.020253 -0.005837 0.000000 0.000000 0.000000
# 3 -0.008260 -0.005837 0.029017 0.000000 0.000000 0.000000
# 4 0.000000 0.000000 0.000000 0.033858 0.000000 0.000000
# 5 0.000000 0.000000 0.000000 0.000000 -0.011793 0.000000
# 6 0.000000 0.000000 0.000000 0.000000 0.000000 0.048405
#
#
# Mechanical properties :
#
#
# Convention : Reuss Voigt Hill
#
# Bulk Modulus (GPa) = 39.76755 46.12695 42.94725
# Shear Modulus (GPa) = 27.58682 1.14466 14.36574
#
# Velocity S-wave (km/s) = 3.58156 0.72956 2.58455
# Velocity P-wave (km/s) = 5.96614 4.70725 5.37369
#
# Compressibility (1/GPa) = 0.02514613
#
# Stress axis : x y z
#
# Youngs Moduli (GPa) = 68.96160 49.37634 34.46299
#
# Poissons Ratio (x) = 0.25750 0.28467
# Poissons Ratio (y) = 0.35963 0.20116
# Poissons Ratio (z) = 0.56963 0.28821
#
# Static dielectric constant tensor:
#      x y z
#    x 4.298000 0.000000 0.000000 
#    y 0.000000 3.763120 0.000000 
#    z 0.000000 0.000000 3.795410 
# 
# 
# High freq. dielectric constant tensor:
#      x y z
#    x 1.829990 0.000000 0.000000 
#    y 0.000000 1.830290 0.000000 
#    z 0.000000 0.000000 1.845070 
# 
# From -- ./inp_files/8422.got.cif
#   From: 2010.03.12/outbox.cif.g09.slc.cpg/sg64_5_cif.got.tgz:8422.got - 2010.04.10 20:19:32.
