data_PCOD8262209
_publ_section_title
;
Structure prediction by ZEFSAII (Michael W. Deem and Ramdas Pophale) SiO2 
 PCOD8262209
Probable space group: C M C A
;
_chemical_formula_sum "Si O2"
_cell_formula_units_Z 80
_cell_length_a 9.006550
_cell_length_b 25.195226
_cell_length_c 19.677681
_cell_angle_alpha 90.000000
_cell_angle_beta 90.000000
_cell_angle_gamma 90.000000
_cell_volume 4465.299962
_symmetry_space_group_name_H-M "C M C A"
_symmetry_group_IT_number 64
_symmetry_cell_setting 'orthorhombic'
loop_
_space_group_symop_operation_xyz
x,y,z
-x,1/2-y,1/2+z
x,-y,-z
-x,1/2+y,1/2-z
-x,-y,-z
x,1/2+y,1/2-z
-x,y,z
x,1/2-y,1/2+z
1/2+x,1/2+y,z
1/2-x,-y,1/2+z
1/2+x,1/2-y,-z
1/2-x,y,1/2-z
1/2-x,1/2-y,-z
1/2+x,y,1/2-z
1/2-x,1/2+y,z
1/2+x,-y,1/2+z
loop_
_atom_site_type_symbol
_atom_site_label
_atom_site_fract_x
_atom_site_fract_y
_atom_site_fract_z
Si Si1 0.326810 0.192157 0.181751
Si Si2 0.675574 0.186544 0.680096
Si Si3 0.827206 0.895962 0.577104
Si Si4 0.167323 0.000839 0.919263
Si Si5 0.174164 0.106740 0.580520
O O1 0.500000 0.187751 0.194649
O O2 0.250000 0.171233 0.250000
O O3 0.280604 0.252484 0.165513
O O4 0.276487 0.155866 0.118671
O O5 0.500000 0.177981 0.684890
O O6 0.750000 0.166999 0.750000
O O7 0.741520 0.153674 0.618171
O O8 0.789272 0.885347 0.498709
O O9 0.000000 0.908639 0.586209
O O10 0.738920 0.946257 0.607327
O O11 0.263537 0.050452 0.892720
O O12 0.000000 0.005898 0.891140
O O13 0.169945 0.000000 0.000000
O O14 0.000000 0.109273 0.595878
#
# Coordination Sequence:
#
# PCOD8262209 Si02
#       5
#    16  16  16  16  16
#     4   9  19  35  53  73 100 134 168 204 248 297
#     4  10  20  35  53  73 100 133 168 206 249 297
#     4   9  18  33  52  75 103 133 166 205 251 301
#     4   9  17  30  49  74 102 131 165 206 251 297
#     4  10  19  32  52  76 102 133 167 205 250 299
#
# _framework density 17.915928999999998
#
# number of rings (size 3 to 8) (size 9 to 14) (size 15 to 20)
#    0.000    2.600    0.000    1.800    0.000    5.600 
#    0.000    1.000    0.000    2.400    0.000    0.000 
#    0.000    0.000    0.000    0.000    0.000    0.000 
#
# Total GULP energy -496062.795412 kJ/mol
# GULP energy per Si atom -12401.569885 kJ/mol
# Density = 1.787515 g / cm^3
# Si number density = 17.915929 Si / 1000 Ang^3
#
#
#
# Elastic Constant Matrix: (Units=GPa)
#
#
# Indices 1 2 3 4 5 6 
#
# 1 89.3306 57.1440 45.5981 0.0000 0.0000 0.0000
# 2 57.1440 121.8889 64.6900 0.0000 0.0000 0.0000
# 3 45.5981 64.6900 77.1911 0.0000 0.0000 0.0000
# 4 0.0000 0.0000 0.0000 9.6698 0.0000 0.0000
# 5 0.0000 0.0000 0.0000 0.0000 27.8246 0.0000
# 6 0.0000 0.0000 0.0000 0.0000 0.0000 31.6541
#
#
#
# Elastic Compliance Matrix: (Units=1/GPa)
#
#
# Indices 1 2 3 4 5 6 
#
# 1 0.017513 -0.004899 -0.006240 0.000000 0.000000 0.000000
# 2 -0.004899 0.016147 -0.010638 0.000000 0.000000 0.000000
# 3 -0.006240 -0.010638 0.025556 0.000000 0.000000 0.000000
# 4 0.000000 0.000000 0.000000 0.103415 0.000000 0.000000
# 5 0.000000 0.000000 0.000000 0.000000 0.035939 0.000000
# 6 0.000000 0.000000 0.000000 0.000000 0.000000 0.031591
#
#
# Mechanical properties :
#
#
# Convention : Reuss Voigt Hill
#
# Bulk Modulus (GPa) = 63.84629 69.25276 66.54952
# Shear Modulus (GPa) = 17.92524 21.89493 19.91009
#
# Velocity S-wave (km/s) = 3.16653 3.49964 3.33724
# Velocity P-wave (km/s) = 7.00594 7.42079 7.21635
#
# Compressibility (1/GPa) = 0.01566262
#
# Stress axis : x y z
#
# Youngs Moduli (GPa) = 57.09965 61.93186 39.12976
#
# Poissons Ratio (x) = 0.30340 0.24416
# Poissons Ratio (y) = 0.27973 0.41626
# Poissons Ratio (z) = 0.35629 0.65883
#
# Static dielectric constant tensor:
#      x y z
#    x 3.407460 0.000000 0.000000 
#    y 0.000000 3.494240 0.000000 
#    z 0.000000 0.000000 3.149140 
# 
# 
# High freq. dielectric constant tensor:
#      x y z
#    x 1.702740 0.000000 0.000000 
#    y 0.000000 1.700690 0.000000 
#    z 0.000000 0.000000 1.668450 
# 
# From -- ./inp_files/29752.got.cif
#   From: 2010.03.12/outbox.cif.g09.slc.cpg/sg64_15_cif.got.tgz:29752.got - 2010.04.10 20:19:32.
