data_PCOD8262735
_publ_section_title
;
Structure prediction by ZEFSAII (Michael W. Deem and Ramdas Pophale) SiO2 
 PCOD8262735
Probable space group: C M C A
;
_chemical_formula_sum "Si O2"
_cell_formula_units_Z 112
_cell_length_a 21.989035
_cell_length_b 24.817800
_cell_length_c 11.502916
_cell_angle_alpha 90.000000
_cell_angle_beta 90.000000
_cell_angle_gamma 90.000000
_cell_volume 6277.365255
_symmetry_space_group_name_H-M "C M C A"
_symmetry_group_IT_number 64
_symmetry_cell_setting 'orthorhombic'
loop_
_space_group_symop_operation_xyz
x,y,z
-x,1/2-y,1/2+z
x,-y,-z
-x,1/2+y,1/2-z
-x,-y,-z
x,1/2+y,1/2-z
-x,y,z
x,1/2-y,1/2+z
1/2+x,1/2+y,z
1/2-x,-y,1/2+z
1/2+x,1/2-y,-z
1/2-x,y,1/2-z
1/2-x,1/2-y,-z
1/2+x,y,1/2-z
1/2-x,1/2+y,z
1/2+x,-y,1/2+z
loop_
_atom_site_type_symbol
_atom_site_label
_atom_site_fract_x
_atom_site_fract_y
_atom_site_fract_z
Si Si1 0.067627 0.994892 0.137436
Si Si2 0.157270 0.713570 0.001184
Si Si3 0.571305 0.610645 0.112951
Si Si4 0.225642 0.691792 0.626492
Si Si5 0.622467 0.884447 0.359146
Si Si6 0.432397 0.815324 0.820339
Si Si7 0.567297 0.206040 0.794909
O O1 0.091895 0.054117 0.174805
O O2 0.000000 0.982278 0.187876
O O3 0.113791 0.947341 0.176071
O O4 0.063203 0.000000 0.000000
O O5 0.176234 0.767190 0.072071
O O6 0.117819 0.672794 0.081005
O O7 0.218392 0.683039 0.961301
O O8 0.115460 0.726389 0.890299
O O9 0.500000 0.607803 0.087166
O O10 0.589439 0.657480 0.201236
O O11 0.602187 0.624416 0.991336
O O12 0.250000 0.714724 0.750000
O O13 0.192868 0.634231 0.647834
O O14 0.584401 0.849811 0.266599
O O15 0.500000 0.836678 0.855801
O O16 0.434737 0.751186 0.804532
O O17 0.500000 0.200157 0.851761
#
# Coordination Sequence:
#
# PCOD8262735 Si02
#       7
#    16  16  16  16  16  16  16
#     4   8  15  29  52  80 106 134 172 218 268 318
#     4  11  21  37  51  72 109 146 182 210 254 322
#     4   9  18  33  54  81 110 140 172 213 270 327
#     4  11  22  36  53  72 104 148 187 219 249 309
#     4  11  18  32  54  80 107 134 178 227 262 303
#     4  10  20  32  51  78 112 141 168 215 267 319
#     4  11  21  32  52  83 112 136 168 219 279 320
#
# _framework density 17.84188
#
# number of rings (size 3 to 8) (size 9 to 14) (size 15 to 20)
#    0.000    1.857    2.857    3.429    0.000    1.143 
#    0.000    0.000    0.000    6.000    0.000    4.000 
#    0.000    0.000    0.000    0.000    0.000    0.000 
#
# Total GULP energy -693970.797269 kJ/mol
# GULP energy per Si atom -12392.335666 kJ/mol
# Density = 1.780127 g / cm^3
# Si number density = 17.841880 Si / 1000 Ang^3
#
#
#
# Elastic Constant Matrix: (Units=GPa)
#
#
# Indices 1 2 3 4 5 6 
#
# 1 109.8078 31.4583 41.2670 0.0000 0.0000 0.0000
# 2 31.4583 80.7224 26.7380 0.0000 0.0000 0.0000
# 3 41.2670 26.7380 70.8224 0.0000 0.0000 0.0000
# 4 0.0000 0.0000 0.0000 21.4047 0.0000 0.0000
# 5 0.0000 0.0000 0.0000 0.0000 37.2334 0.0000
# 6 0.0000 0.0000 0.0000 0.0000 0.0000 15.9796
#
#
#
# Elastic Compliance Matrix: (Units=1/GPa)
#
#
# Indices 1 2 3 4 5 6 
#
# 1 0.012167 -0.002735 -0.006057 0.000000 0.000000 0.000000
# 2 -0.002735 0.014774 -0.003984 0.000000 0.000000 0.000000
# 3 -0.006057 -0.003984 0.019153 0.000000 0.000000 0.000000
# 4 0.000000 0.000000 0.000000 0.046719 0.000000 0.000000
# 5 0.000000 0.000000 0.000000 0.000000 0.026858 0.000000
# 6 0.000000 0.000000 0.000000 0.000000 0.000000 0.062580
#
#
# Mechanical properties :
#
#
# Convention : Reuss Voigt Hill
#
# Bulk Modulus (GPa) = 48.68112 51.14213 49.91162
# Shear Modulus (GPa) = 23.29395 25.71615 24.50505
#
# Velocity S-wave (km/s) = 3.61720 3.80061 3.71004
# Velocity P-wave (km/s) = 6.69249 6.92718 6.81085
#
# Compressibility (1/GPa) = 0.02054185
#
# Stress axis : x y z
#
# Youngs Moduli (GPa) = 82.19239 67.68805 52.21139
#
# Poissons Ratio (x) = 0.18515 0.31622
# Poissons Ratio (y) = 0.22482 0.20800
# Poissons Ratio (z) = 0.49781 0.26965
#
# Static dielectric constant tensor:
#      x y z
#    x 3.429100 0.000000 0.000000 
#    y 0.000000 3.580240 0.000000 
#    z 0.000000 0.000000 3.171170 
# 
# 
# High freq. dielectric constant tensor:
#      x y z
#    x 1.688930 0.000000 0.000000 
#    y 0.000000 1.668390 0.000000 
#    z 0.000000 0.000000 1.674630 
# 
# From -- ./inp_files/17543.got.cif
#   From: 2010.03.12/outbox.cif.g09.slc.cpg/sg64_9_cif.got.tgz:17543.got - 2010.04.10 20:19:32.
