data_PCOD8262657
_publ_section_title
;
Structure prediction by ZEFSAII (Michael W. Deem and Ramdas Pophale) SiO2 
 PCOD8262657
Probable space group: C M C A
;
_chemical_formula_sum "Si O2"
_cell_formula_units_Z 88
_cell_length_a 23.965946
_cell_length_b 15.016181
_cell_length_c 11.661790
_cell_angle_alpha 90.000000
_cell_angle_beta 90.000000
_cell_angle_gamma 90.000000
_cell_volume 4196.809801
_symmetry_space_group_name_H-M "C M C A"
_symmetry_group_IT_number 64
_symmetry_cell_setting 'orthorhombic'
loop_
_space_group_symop_operation_xyz
x,y,z
-x,1/2-y,1/2+z
x,-y,-z
-x,1/2+y,1/2-z
-x,-y,-z
x,1/2+y,1/2-z
-x,y,z
x,1/2-y,1/2+z
1/2+x,1/2+y,z
1/2-x,-y,1/2+z
1/2+x,1/2-y,-z
1/2-x,y,1/2-z
1/2-x,1/2-y,-z
1/2+x,y,1/2-z
1/2-x,1/2+y,z
1/2+x,-y,1/2+z
loop_
_atom_site_type_symbol
_atom_site_label
_atom_site_fract_x
_atom_site_fract_y
_atom_site_fract_z
Si Si1 0.710673 0.252280 0.650021
Si Si2 0.500000 0.636592 0.717575
Si Si3 0.777683 0.900181 0.962304
Si Si4 0.913100 0.268804 0.361847
Si Si5 0.000000 0.136293 0.450134
Si Si6 0.598142 0.590586 0.061554
Si Si7 0.500000 0.054146 0.279241
O O1 0.750000 0.217612 0.750000
O O2 0.730791 0.351915 0.614294
O O3 0.713924 0.170485 0.563135
O O4 0.646545 0.262158 0.687432
O O5 0.554713 0.692985 0.751059
O O6 0.500000 0.610939 0.583639
O O7 0.500000 0.551130 0.801552
O O8 0.837101 0.910566 0.895780
O O9 0.757667 0.000000 0.000000
O O10 0.943808 0.187065 0.419546
O O11 0.909805 0.335263 0.467196
O O12 0.000000 0.055290 0.359796
O O13 0.555225 0.602300 0.168005
O O14 0.581938 0.500000 0.000000
#
# Coordination Sequence:
#
# PCOD8262657 Si02
#       7
#    16   8  16  16   8  16   8
#     4  10  22  40  66  94 128 168 220 267 324 385
#     4  11  23  42  59  92 136 162 213 265 320 392
#     4   9  21  40  63  95 129 167 213 274 323 389
#     4  10  23  40  63  93 122 171 209 264 320 376
#     4  11  27  38  58  92 132 169 200 260 336 387
#     4  10  19  37  65  93 122 160 220 264 311 379
#     4  12  22  37  65  95 125 171 212 267 322 388
#
# _framework density 20.968309000000001
#
# number of rings (size 3 to 8) (size 9 to 14) (size 15 to 20)
#    0.000    1.818    1.818    1.636    7.636    3.636 
#    0.000    3.636    0.000    0.000    0.000    0.000 
#    0.000    0.000    0.000    0.000    0.000    0.000 
#
# Total GULP energy -545123.557085 kJ/mol
# GULP energy per Si atom -12389.171752 kJ/mol
# Density = 2.092058 g / cm^3
# Si number density = 20.968309 Si / 1000 Ang^3
#
#
#
# Elastic Constant Matrix: (Units=GPa)
#
#
# Indices 1 2 3 4 5 6 
#
# 1 180.5228 44.0473 56.9832 0.0000 0.0000 0.0000
# 2 44.0473 104.6827 15.8059 0.0000 0.0000 0.0000
# 3 56.9832 15.8059 97.8670 0.0000 0.0000 0.0000
# 4 0.0000 0.0000 0.0000 16.3814 0.0000 0.0000
# 5 0.0000 0.0000 0.0000 0.0000 16.7634 0.0000
# 6 0.0000 0.0000 0.0000 0.0000 0.0000 12.3426
#
#
#
# Elastic Compliance Matrix: (Units=1/GPa)
#
#
# Indices 1 2 3 4 5 6 
#
# 1 0.007382 -0.002519 -0.003892 0.000000 0.000000 0.000000
# 2 -0.002519 0.010651 -0.000254 0.000000 0.000000 0.000000
# 3 -0.003892 -0.000254 0.012525 0.000000 0.000000 0.000000
# 4 0.000000 0.000000 0.000000 0.061045 0.000000 0.000000
# 5 0.000000 0.000000 0.000000 0.000000 0.059654 0.000000
# 6 0.000000 0.000000 0.000000 0.000000 0.000000 0.081020
#
#
# Mechanical properties :
#
#
# Convention : Reuss Voigt Hill
#
# Bulk Modulus (GPa) = 58.03805 68.52724 63.28265
# Shear Modulus (GPa) = 19.89274 26.84657 23.36965
#
# Velocity S-wave (km/s) = 3.08345 3.58207 3.34207
# Velocity P-wave (km/s) = 6.35735 7.06120 6.71850
#
# Compressibility (1/GPa) = 0.01723008
#
# Stress axis : x y z
#
# Youngs Moduli (GPa) = 135.45621 93.88993 79.84140
#
# Poissons Ratio (x) = 0.23648 0.31072
# Poissons Ratio (y) = 0.34118 0.02025
# Poissons Ratio (z) = 0.52715 0.02381
#
# Static dielectric constant tensor:
#      x y z
#    x 4.206510 0.000000 0.000000 
#    y 0.000000 3.580710 0.000000 
#    z 0.000000 0.000000 3.504210 
# 
# 
# High freq. dielectric constant tensor:
#      x y z
#    x 1.827160 0.000000 0.000000 
#    y 0.000000 1.828930 0.000000 
#    z 0.000000 0.000000 1.808480 
# 
# From -- ./inp_files/18267.got.cif
#   From: 2010.03.12/outbox.cif.g09.slc.cpg/sg64_10_cif.got.tgz:18267.got - 2010.04.10 20:19:32.
