data_PCOD8262220
_publ_section_title
;
Structure prediction by ZEFSAII (Michael W. Deem and Ramdas Pophale) SiO2 
 PCOD8262220
Probable space group: C M C A
;
_chemical_formula_sum "Si O2"
_cell_formula_units_Z 96
_cell_length_a 8.975906
_cell_length_b 22.392098
_cell_length_c 23.719169
_cell_angle_alpha 90.000000
_cell_angle_beta 90.000000
_cell_angle_gamma 90.000000
_cell_volume 4767.300758
_symmetry_space_group_name_H-M "C M C A"
_symmetry_group_IT_number 64
_symmetry_cell_setting 'orthorhombic'
loop_
_space_group_symop_operation_xyz
x,y,z
-x,1/2-y,1/2+z
x,-y,-z
-x,1/2+y,1/2-z
-x,-y,-z
x,1/2+y,1/2-z
-x,y,z
x,1/2-y,1/2+z
1/2+x,1/2+y,z
1/2-x,-y,1/2+z
1/2+x,1/2-y,-z
1/2-x,y,1/2-z
1/2-x,1/2-y,-z
1/2+x,y,1/2-z
1/2-x,1/2+y,z
1/2+x,-y,1/2+z
loop_
_atom_site_type_symbol
_atom_site_label
_atom_site_fract_x
_atom_site_fract_y
_atom_site_fract_z
Si Si1 0.175468 0.427991 0.192626
Si Si2 0.169468 0.385413 0.580914
Si Si3 0.323374 0.870307 0.028229
Si Si4 0.176023 0.316683 0.690130
Si Si5 0.172001 0.976437 0.087941
Si Si6 0.825269 0.805445 0.361759
O O1 0.250000 0.447977 0.250000
O O2 0.242201 0.471927 0.146581
O O3 0.220036 0.359849 0.178831
O O4 0.000000 0.436881 0.195449
O O5 0.268991 0.350933 0.534069
O O6 0.218506 0.367685 0.644430
O O7 0.186879 0.455341 0.569375
O O8 0.000000 0.364097 0.572007
O O9 0.500000 0.878563 0.030137
O O10 0.248750 0.934043 0.042070
O O11 0.270612 0.820917 0.074483
O O12 0.250000 0.331942 0.750000
O O13 0.243615 0.254939 0.664251
O O14 0.000000 0.312748 0.700325
O O15 0.000000 0.957658 0.094687
O O16 0.000000 0.796721 0.363989
#
# Coordination Sequence:
#
# PCOD8262220 Si02
#       6
#    16  16  16  16  16  16
#     4  10  19  32  52  79 107 138 179 225 273 320
#     4  10  22  37  54  78 109 144 177 214 262 316
#     4  10  20  35  57  84 109 136 174 220 268 317
#     4  10  21  39  58  77 106 142 179 218 261 310
#     4  10  20  35  53  76 108 144 180 219 267 318
#     4   8  17  34  55  79 107 136 171 219 268 314
#
# _framework density 20.137181999999999
#
# number of rings (size 3 to 8) (size 9 to 14) (size 15 to 20)
#    0.000    2.333    0.000    3.500    0.000    5.333 
#    0.000    5.833    0.000    0.000    0.000    0.000 
#    0.000    0.000    0.000    0.000    0.000    0.000 
#
# Total GULP energy -595063.636345 kJ/mol
# GULP energy per Si atom -12397.159091 kJ/mol
# Density = 2.009135 g / cm^3
# Si number density = 20.137182 Si / 1000 Ang^3
#
#
#
# Elastic Constant Matrix: (Units=GPa)
#
#
# Indices 1 2 3 4 5 6 
#
# 1 78.3116 15.2956 51.6016 0.0000 0.0000 0.0000
# 2 15.2956 34.9905 21.8598 0.0000 0.0000 0.0000
# 3 51.6016 21.8598 165.3245 0.0000 0.0000 0.0000
# 4 0.0000 0.0000 0.0000 23.0390 0.0000 0.0000
# 5 0.0000 0.0000 0.0000 0.0000 41.3630 0.0000
# 6 0.0000 0.0000 0.0000 0.0000 0.0000 19.3602
#
#
#
# Elastic Compliance Matrix: (Units=1/GPa)
#
#
# Indices 1 2 3 4 5 6 
#
# 1 0.016675 -0.004401 -0.004623 0.000000 0.000000 0.000000
# 2 -0.004401 0.032314 -0.002899 0.000000 0.000000 0.000000
# 3 -0.004623 -0.002899 0.007875 0.000000 0.000000 0.000000
# 4 0.000000 0.000000 0.000000 0.043405 0.000000 0.000000
# 5 0.000000 0.000000 0.000000 0.000000 0.024176 0.000000
# 6 0.000000 0.000000 0.000000 0.000000 0.000000 0.051652
#
#
# Mechanical properties :
#
#
# Convention : Reuss Voigt Hill
#
# Bulk Modulus (GPa) = 30.28625 50.68228 40.48426
# Shear Modulus (GPa) = 23.70234 29.41041 26.55638
#
# Velocity S-wave (km/s) = 3.43453 3.82580 3.63543
# Velocity P-wave (km/s) = 5.54983 6.68871 6.14571
#
# Compressibility (1/GPa) = 0.03301828
#
# Stress axis : x y z
#
# Youngs Moduli (GPa) = 59.96921 30.94612 126.98582
#
# Poissons Ratio (x) = 0.13620 0.58703
# Poissons Ratio (y) = 0.26394 0.36813
# Poissons Ratio (z) = 0.27722 0.08971
#
# Static dielectric constant tensor:
#      x y z
#    x 3.506990 0.000000 0.000000 
#    y 0.000000 3.641110 0.000000 
#    z 0.000000 0.000000 3.856390 
# 
# 
# High freq. dielectric constant tensor:
#      x y z
#    x 1.770020 0.000000 0.000000 
#    y 0.000000 1.771380 0.000000 
#    z 0.000000 0.000000 1.801550 
# 
# From -- ./inp_files/42958.got.cif
#   From: 2010.03.12/outbox.cif.g09.slc.cpg/sg64_22_cif.got.tgz:42958.got - 2010.04.10 20:19:32.
