data_PCOD8262364
_publ_section_title
;
Structure prediction by ZEFSAII (Michael W. Deem and Ramdas Pophale) SiO2 
 PCOD8262364
Probable space group: C M C A
;
_chemical_formula_sum "Si O2"
_cell_formula_units_Z 96
_cell_length_a 21.328959
_cell_length_b 19.646479
_cell_length_c 11.492161
_cell_angle_alpha 90.000000
_cell_angle_beta 90.000000
_cell_angle_gamma 90.000000
_cell_volume 4815.663022
_symmetry_space_group_name_H-M "C M C A"
_symmetry_group_IT_number 64
_symmetry_cell_setting 'orthorhombic'
loop_
_space_group_symop_operation_xyz
x,y,z
-x,1/2-y,1/2+z
x,-y,-z
-x,1/2+y,1/2-z
-x,-y,-z
x,1/2+y,1/2-z
-x,y,z
x,1/2-y,1/2+z
1/2+x,1/2+y,z
1/2-x,-y,1/2+z
1/2+x,1/2-y,-z
1/2-x,y,1/2-z
1/2-x,1/2-y,-z
1/2+x,y,1/2-z
1/2-x,1/2+y,z
1/2+x,-y,1/2+z
loop_
_atom_site_type_symbol
_atom_site_label
_atom_site_fract_x
_atom_site_fract_y
_atom_site_fract_z
Si Si1 0.877854 0.490225 0.637611
Si Si2 0.137442 0.852265 0.938465
Si Si3 0.000000 0.856478 0.436876
Si Si4 0.601344 0.728791 0.687807
Si Si5 0.186850 0.874543 0.179906
Si Si6 0.000000 0.956866 0.241678
Si Si7 0.500000 0.290177 0.658306
Si Si8 0.000000 0.151040 0.958369
O O1 0.891697 0.500000 0.500000
O O2 0.848466 0.414424 0.651644
O O3 0.830256 0.545889 0.690328
O O4 0.940845 0.496356 0.712824
O O5 0.148754 0.778273 0.881808
O O6 0.187964 0.856211 0.043244
O O7 0.064291 0.866182 0.974302
O O8 0.061652 0.815152 0.401588
O O9 0.000000 0.931277 0.376633
O O10 0.000000 0.859631 0.579515
O O11 0.634342 0.674800 0.769652
O O12 0.561095 0.783021 0.762118
O O13 0.250000 0.860220 0.250000
O O14 0.000000 0.887641 0.165256
O O15 0.500000 0.230861 0.562593
#
# Coordination Sequence:
#
# PCOD8262364 Si02
#       8
#    16  16   8  16  16   8   8   8
#     4  10  19  33  56  86 114 138 183 242 289 341
#     4  11  21  34  59  88 113 148 187 239 293 342
#     4  11  17  28  54  83 122 153 181 223 300 362
#     4  11  19  34  54  82 116 149 191 234 288 344
#     4  11  22  37  55  80 110 147 197 246 286 333
#     4  12  16  28  55  88 114 142 176 235 290 352
#     4  11  18  30  52  85 126 151 181 232 289 358
#     4  12  14  29  52  92 115 134 180 228 289 341
#
# _framework density 19.934950000000001
#
# number of rings (size 3 to 8) (size 9 to 14) (size 15 to 20)
#    0.000    1.000   10.000    1.250    0.000    0.667 
#    0.000    0.833    0.000    8.000    0.000    0.000 
#    0.000    0.000    0.000    0.000    0.000    0.000 
#
# Total GULP energy -594819.923179 kJ/mol
# GULP energy per Si atom -12392.081733 kJ/mol
# Density = 1.988958 g / cm^3
# Si number density = 19.934950 Si / 1000 Ang^3
#
#
#
# Elastic Constant Matrix: (Units=GPa)
#
#
# Indices 1 2 3 4 5 6 
#
# 1 49.3158 15.6707 31.8753 0.0000 0.0000 0.0000
# 2 15.6707 87.1466 22.8120 0.0000 0.0000 0.0000
# 3 31.8753 22.8120 67.3351 0.0000 0.0000 0.0000
# 4 0.0000 0.0000 0.0000 41.3444 0.0000 0.0000
# 5 0.0000 0.0000 0.0000 0.0000 23.3334 0.0000
# 6 0.0000 0.0000 0.0000 0.0000 0.0000 8.1390
#
#
#
# Elastic Compliance Matrix: (Units=1/GPa)
#
#
# Indices 1 2 3 4 5 6 
#
# 1 0.029474 -0.001808 -0.013340 0.000000 0.000000 0.000000
# 2 -0.001808 0.012702 -0.003447 0.000000 0.000000 0.000000
# 3 -0.013340 -0.003447 0.022334 0.000000 0.000000 0.000000
# 4 0.000000 0.000000 0.000000 0.024187 0.000000 0.000000
# 5 0.000000 0.000000 0.000000 0.000000 0.042857 0.000000
# 6 0.000000 0.000000 0.000000 0.000000 0.000000 0.122865
#
#
# Mechanical properties :
#
#
# Convention : Reuss Voigt Hill
#
# Bulk Modulus (GPa) = 36.60384 38.27928 37.44156
# Shear Modulus (GPa) = 16.62685 23.45931 20.04308
#
# Velocity S-wave (km/s) = 2.89113 3.43416 3.17428
# Velocity P-wave (km/s) = 5.43566 5.91341 5.67956
#
# Compressibility (1/GPa) = 0.02731954
#
# Stress axis : x y z
#
# Youngs Moduli (GPa) = 33.92764 78.72485 44.77464
#
# Poissons Ratio (x) = 0.14234 0.59730
# Poissons Ratio (y) = 0.06134 0.15436
# Poissons Ratio (z) = 0.45260 0.27140
#
# Static dielectric constant tensor:
#      x y z
#    x 3.249900 0.000000 0.000000 
#    y 0.000000 3.884430 0.000000 
#    z 0.000000 0.000000 3.575520 
# 
# 
# High freq. dielectric constant tensor:
#      x y z
#    x 1.732800 0.000000 0.000000 
#    y 0.000000 1.782670 0.000000 
#    z 0.000000 0.000000 1.763990 
# 
# From -- ./inp_files/18503.got.cif
#   From: 2010.03.12/outbox.cif.g09.slc.cpg/sg64_10_cif.got.tgz:18503.got - 2010.04.10 20:19:32.
