data_PCOD8262249
_publ_section_title
;
Structure prediction by ZEFSAII (Michael W. Deem and Ramdas Pophale) SiO2 
 PCOD8262249
Probable space group: C M C A
;
_chemical_formula_sum "Si O2"
_cell_formula_units_Z 96
_cell_length_a 14.419748
_cell_length_b 22.542750
_cell_length_c 14.997639
_cell_angle_alpha 90.000000
_cell_angle_beta 90.000000
_cell_angle_gamma 90.000000
_cell_volume 4875.144145
_symmetry_space_group_name_H-M "C M C A"
_symmetry_group_IT_number 64
_symmetry_cell_setting 'orthorhombic'
loop_
_space_group_symop_operation_xyz
x,y,z
-x,1/2-y,1/2+z
x,-y,-z
-x,1/2+y,1/2-z
-x,-y,-z
x,1/2+y,1/2-z
-x,y,z
x,1/2-y,1/2+z
1/2+x,1/2+y,z
1/2-x,-y,1/2+z
1/2+x,1/2-y,-z
1/2-x,y,1/2-z
1/2-x,1/2-y,-z
1/2+x,y,1/2-z
1/2-x,1/2+y,z
1/2+x,-y,1/2+z
loop_
_atom_site_type_symbol
_atom_site_label
_atom_site_fract_x
_atom_site_fract_y
_atom_site_fract_z
Si Si1 0.000000 0.937228 0.105214
Si Si2 0.896602 0.260248 0.966993
Si Si3 0.239495 0.159573 0.989181
Si Si4 0.394377 0.753809 0.266607
Si Si5 0.821557 0.382278 0.316775
Si Si6 0.319560 0.360970 0.824387
Si Si7 0.000000 0.922574 0.898767
O O1 0.914590 0.917845 0.166452
O O2 0.000000 0.007215 0.100945
O O3 0.000000 0.906523 0.005741
O O4 0.831749 0.302022 0.026469
O O5 0.894540 0.278387 0.863002
O O6 0.000000 0.263183 0.006366
O O7 0.858257 0.194226 0.978642
O O8 0.242049 0.132328 0.086913
O O9 0.236536 0.113602 0.909090
O O10 0.500000 0.764543 0.234565
O O11 0.341683 0.816525 0.275849
O O12 0.343366 0.708366 0.198404
O O13 0.750000 0.414803 0.250000
O O14 0.250000 0.388132 0.750000
O O15 0.412467 0.398371 0.842608
#
# Coordination Sequence:
#
# PCOD8262249 Si02
#       7
#     8  16  16  16  16  16   8
#     4  11  24  49  68  89 117 164 232 263 311 368
#     4   9  19  32  48  75 127 174 197 239 299 374
#     4  10  21  35  52  85 126 169 206 250 305 373
#     4  10  19  32  54  87 126 162 193 236 311 385
#     4  11  23  40  63  90 125 166 207 261 313 374
#     4  12  22  37  61  97 130 159 204 259 320 375
#     4  11  26  43  72  91 115 170 220 269 311 366
#
# _framework density 19.691725999999999
#
# number of rings (size 3 to 8) (size 9 to 14) (size 15 to 20)
#    0.000    1.500    5.000    0.500    7.000    0.667 
#    1.500    0.000    0.000    0.000    0.000    1.167 
#    0.000    0.000    0.000    0.000    0.000    0.000 
#
# Total GULP energy -594741.890061 kJ/mol
# GULP energy per Si atom -12390.456043 kJ/mol
# Density = 1.964691 g / cm^3
# Si number density = 19.691726 Si / 1000 Ang^3
#
#
#
# Elastic Constant Matrix: (Units=GPa)
#
#
# Indices 1 2 3 4 5 6 
#
# 1 146.5654 23.9379 56.7017 0.0000 0.0000 0.0000
# 2 23.9379 52.3451 22.5745 0.0000 0.0000 0.0000
# 3 56.7017 22.5745 120.5155 0.0000 0.0000 0.0000
# 4 0.0000 0.0000 0.0000 18.2427 0.0000 0.0000
# 5 0.0000 0.0000 0.0000 0.0000 39.1332 0.0000
# 6 0.0000 0.0000 0.0000 0.0000 0.0000 -4.8507
#
#
#
# Elastic Compliance Matrix: (Units=1/GPa)
#
#
# Indices 1 2 3 4 5 6 
#
# 1 0.008606 -0.002382 -0.003603 0.000000 0.000000 0.000000
# 2 -0.002382 0.021442 -0.002896 0.000000 0.000000 0.000000
# 3 -0.003603 -0.002896 0.010535 0.000000 0.000000 0.000000
# 4 0.000000 0.000000 0.000000 0.054817 0.000000 0.000000
# 5 0.000000 0.000000 0.000000 0.000000 0.025554 0.000000
# 6 0.000000 0.000000 0.000000 0.000000 0.000000 -0.206156
#
#
# Mechanical properties :
#
#
# Convention : Reuss Voigt Hill
#
# Bulk Modulus (GPa) = 43.81692 58.42824 51.12258
# Shear Modulus (GPa) = -83.56327 24.91916 -29.32205
#
# Velocity S-wave (km/s) = -6.52134 3.56119 -3.86301
# Velocity P-wave (km/s) = 5.86550 6.82974 2.47400
#
# Compressibility (1/GPa) = 0.02282223
#
# Stress axis : x y z
#
# Youngs Moduli (GPa) = 116.20213 46.63735 94.91975
#
# Poissons Ratio (x) = 0.11108 0.34198
# Poissons Ratio (y) = 0.27676 0.27487
# Poissons Ratio (z) = 0.41865 0.13506
#
# Static dielectric constant tensor:
#      x y z
#    x 3.745570 0.000000 0.000000 
#    y 0.000000 3.082640 0.000000 
#    z 0.000000 0.000000 3.902450 
# 
# 
# High freq. dielectric constant tensor:
#      x y z
#    x 1.784090 0.000000 0.000000 
#    y 0.000000 1.703630 0.000000 
#    z 0.000000 0.000000 1.778590 
# 
# From -- ./inp_files/24143.got.cif
#   From: 2010.03.12/outbox.cif.g09.slc.cpg/sg64_13_cif.got.tgz:24143.got - 2010.04.10 20:19:32.
