data_PCOD8262863
_publ_section_title
;
Structure prediction by ZEFSAII (Michael W. Deem and Ramdas Pophale) SiO2 
 PCOD8262863
Probable space group: C M C A
;
_chemical_formula_sum "Si O2"
_cell_formula_units_Z 112
_cell_length_a 14.091923
_cell_length_b 24.471526
_cell_length_c 16.604391
_cell_angle_alpha 90.000000
_cell_angle_beta 90.000000
_cell_angle_gamma 90.000000
_cell_volume 5726.038518
_symmetry_space_group_name_H-M "C M C A"
_symmetry_group_IT_number 64
_symmetry_cell_setting 'orthorhombic'
loop_
_space_group_symop_operation_xyz
x,y,z
-x,1/2-y,1/2+z
x,-y,-z
-x,1/2+y,1/2-z
-x,-y,-z
x,1/2+y,1/2-z
-x,y,z
x,1/2-y,1/2+z
1/2+x,1/2+y,z
1/2-x,-y,1/2+z
1/2+x,1/2-y,-z
1/2-x,y,1/2-z
1/2-x,1/2-y,-z
1/2+x,y,1/2-z
1/2-x,1/2+y,z
1/2+x,-y,1/2+z
loop_
_atom_site_type_symbol
_atom_site_label
_atom_site_fract_x
_atom_site_fract_y
_atom_site_fract_z
Si Si1 0.889462 0.609264 0.962883
Si Si2 0.770537 0.449132 0.161879
Si Si3 0.226105 0.802784 0.551977
Si Si4 0.888462 0.133370 0.126499
Si Si5 0.606221 0.951012 0.881481
Si Si6 0.604047 0.490409 0.906011
Si Si7 0.891591 0.832977 0.693979
O O1 0.829632 0.597470 0.883003
O O2 0.000000 0.616961 0.942069
O O3 0.851975 0.664880 0.000798
O O4 0.874028 0.557549 0.023052
O O5 0.750000 0.426602 0.250000
O O6 0.826288 0.506188 0.161348
O O7 0.668308 0.460318 0.124389
O O8 0.250000 0.750000 0.500000
O O9 0.325207 0.835241 0.560823
O O10 0.177634 0.793149 0.641126
O O11 0.857996 0.069621 0.120645
O O12 0.863683 0.161562 0.212251
O O13 0.000000 0.139575 0.105748
O O14 0.500000 0.972830 0.868412
O O15 0.621528 0.893206 0.840454
O O16 0.500000 0.497423 0.867156
O O17 0.598730 0.500000 0.000000
O O18 0.000000 0.812464 0.684818
#
# Coordination Sequence:
#
# PCOD8262863 Si02
#       7
#    16  16  16  16  16  16  16
#     4  10  22  40  59  81 111 145 186 236 285 337
#     4  12  22  31  50  80 117 156 188 216 256 317
#     4  11  22  37  60  82 104 140 189 245 299 346
#     4  10  20  34  55  84 116 148 182 229 288 348
#     4   9  17  31  55  83 109 142 182 224 270 323
#     4  10  20  34  53  79 115 153 186 220 264 328
#     4   9  18  34  56  85 116 142 180 236 292 339
#
# _framework density 19.559771000000001
#
# number of rings (size 3 to 8) (size 9 to 14) (size 15 to 20)
#    0.000    1.857    0.000    6.857    0.000    4.571 
#    0.000    1.429    0.000    0.000    0.000    0.000 
#    0.000    0.000    0.000    0.000    0.000    0.000 
#
# Total GULP energy -694142.567929 kJ/mol
# GULP energy per Si atom -12395.402999 kJ/mol
# Density = 1.951525 g / cm^3
# Si number density = 19.559771 Si / 1000 Ang^3
#
#
#
# Elastic Constant Matrix: (Units=GPa)
#
#
# Indices 1 2 3 4 5 6 
#
# 1 96.2079 38.2996 42.9460 0.0000 0.0000 0.0000
# 2 38.2996 58.4859 30.4547 0.0000 0.0000 0.0000
# 3 42.9460 30.4547 88.4297 0.0000 0.0000 0.0000
# 4 0.0000 0.0000 0.0000 28.6860 0.0000 0.0000
# 5 0.0000 0.0000 0.0000 0.0000 24.1508 0.0000
# 6 0.0000 0.0000 0.0000 0.0000 0.0000 24.5128
#
#
#
# Elastic Compliance Matrix: (Units=1/GPa)
#
#
# Indices 1 2 3 4 5 6 
#
# 1 0.015665 -0.007673 -0.004965 0.000000 0.000000 0.000000
# 2 -0.007673 0.024593 -0.004743 0.000000 0.000000 0.000000
# 3 -0.004965 -0.004743 0.015353 0.000000 0.000000 0.000000
# 4 0.000000 0.000000 0.000000 0.034860 0.000000 0.000000
# 5 0.000000 0.000000 0.000000 0.000000 0.041407 0.000000
# 6 0.000000 0.000000 0.000000 0.000000 0.000000 0.040795
#
#
# Mechanical properties :
#
#
# Convention : Reuss Voigt Hill
#
# Bulk Modulus (GPa) = 47.96542 51.83602 49.90072
# Shear Modulus (GPa) = 23.32254 24.23147 23.77701
#
# Velocity S-wave (km/s) = 3.45682 3.52354 3.49034
# Velocity P-wave (km/s) = 6.36463 6.56602 6.46611
#
# Compressibility (1/GPa) = 0.02084835
#
# Stress axis : x y z
#
# Youngs Moduli (GPa) = 63.83627 40.66265 65.13226
#
# Poissons Ratio (x) = 0.31200 0.32340
# Poissons Ratio (y) = 0.48980 0.30894
# Poissons Ratio (z) = 0.31697 0.19287
#
# Static dielectric constant tensor:
#      x y z
#    x 4.029020 0.000000 0.000000 
#    y 0.000000 3.090390 0.000000 
#    z 0.000000 0.000000 3.748330 
# 
# 
# High freq. dielectric constant tensor:
#      x y z
#    x 1.788210 0.000000 0.000000 
#    y 0.000000 1.706400 0.000000 
#    z 0.000000 0.000000 1.759610 
# 
# From -- ./inp_files/24230.got.cif
#   From: 2010.03.12/outbox.cif.g09.slc.cpg/sg64_13_cif.got.tgz:24230.got - 2010.04.10 20:19:32.
