data_PCOD8262290
_publ_section_title
;
Structure prediction by ZEFSAII (Michael W. Deem and Ramdas Pophale) SiO2 
 PCOD8262290
Probable space group: C M C A
;
_chemical_formula_sum "Si O2"
_cell_formula_units_Z 80
_cell_length_a 8.623950
_cell_length_b 27.690846
_cell_length_c 20.475755
_cell_angle_alpha 90.000000
_cell_angle_beta 90.000000
_cell_angle_gamma 90.000000
_cell_volume 4889.701849
_symmetry_space_group_name_H-M "C M C A"
_symmetry_group_IT_number 64
_symmetry_cell_setting 'orthorhombic'
loop_
_space_group_symop_operation_xyz
x,y,z
-x,1/2-y,1/2+z
x,-y,-z
-x,1/2+y,1/2-z
-x,-y,-z
x,1/2+y,1/2-z
-x,y,z
x,1/2-y,1/2+z
1/2+x,1/2+y,z
1/2-x,-y,1/2+z
1/2+x,1/2-y,-z
1/2-x,y,1/2-z
1/2-x,1/2-y,-z
1/2+x,y,1/2-z
1/2-x,1/2+y,z
1/2+x,-y,1/2+z
loop_
_atom_site_type_symbol
_atom_site_label
_atom_site_fract_x
_atom_site_fract_y
_atom_site_fract_z
Si Si1 0.817834 0.388785 0.068377
Si Si2 0.175199 0.301217 0.487783
Si Si3 0.324388 0.108628 0.436380
Si Si4 0.182631 0.444744 0.819651
Si Si5 0.183013 0.047550 0.819881
O O1 0.772529 0.331625 0.066440
O O2 0.729876 0.411910 0.128919
O O3 0.000000 0.396002 0.076152
O O4 0.757511 0.414134 0.001159
O O5 0.250000 0.250000 0.500000
O O6 0.176409 0.332866 0.554990
O O7 0.000000 0.294220 0.462397
O O8 0.500000 0.088826 0.431074
O O9 0.228478 0.095545 0.372219
O O10 0.250000 0.428780 0.750000
O O11 0.249219 0.496148 0.842500
O O12 0.000000 0.448666 0.813657
O O13 0.250000 0.062885 0.750000
O O14 0.000000 0.043169 0.814724
#
# Coordination Sequence:
#
# PCOD8262290 Si02
#       5
#    16  16  16  16  16
#     4  10  19  33  52  77 103 132 170 210 253 299
#     4   9  18  32  53  77 103 131 165 207 257 303
#     4   9  19  34  51  76 103 132 169 211 252 295
#     4  11  21  34  52  74 102 138 173 207 250 301
#     4  11  21  35  52  73 103 138 173 208 250 300
#
# _framework density 16.360916
#
# number of rings (size 3 to 8) (size 9 to 14) (size 15 to 20)
#    1.200    0.800    0.000    7.200    0.000    0.800 
#    0.000    4.000    0.000    1.200    0.000    2.800 
#    0.000    0.000    0.000    0.000    0.000    0.000 
#
# Total GULP energy -495753.877819 kJ/mol
# GULP energy per Si atom -12393.846945 kJ/mol
# Density = 1.632368 g / cm^3
# Si number density = 16.360916 Si / 1000 Ang^3
#
#
#
# Elastic Constant Matrix: (Units=GPa)
#
#
# Indices 1 2 3 4 5 6 
#
# 1 155.5320 35.5334 43.5295 0.0000 0.0000 0.0000
# 2 35.5334 77.6966 50.3331 0.0000 0.0000 0.0000
# 3 43.5295 50.3331 91.1676 0.0000 0.0000 0.0000
# 4 0.0000 0.0000 0.0000 5.6685 0.0000 0.0000
# 5 0.0000 0.0000 0.0000 0.0000 31.0075 0.0000
# 6 0.0000 0.0000 0.0000 0.0000 0.0000 29.3549
#
#
#
# Elastic Compliance Matrix: (Units=1/GPa)
#
#
# Indices 1 2 3 4 5 6 
#
# 1 0.007570 -0.001745 -0.002651 0.000000 0.000000 0.000000
# 2 -0.001745 0.020439 -0.010451 0.000000 0.000000 0.000000
# 3 -0.002651 -0.010451 0.018005 0.000000 0.000000 0.000000
# 4 0.000000 0.000000 0.000000 0.176414 0.000000 0.000000
# 5 0.000000 0.000000 0.000000 0.000000 0.032250 0.000000
# 6 0.000000 0.000000 0.000000 0.000000 0.000000 0.034066
#
#
# Mechanical properties :
#
#
# Convention : Reuss Voigt Hill
#
# Bulk Modulus (GPa) = 61.27589 64.79867 63.03728
# Shear Modulus (GPa) = 15.43793 26.20619 20.82206
#
# Velocity S-wave (km/s) = 3.07512 4.00654 3.57132
# Velocity P-wave (km/s) = 7.08113 7.81632 7.45779
#
# Compressibility (1/GPa) = 0.01631963
#
# Stress axis : x y z
#
# Youngs Moduli (GPa) = 132.09779 48.92633 55.54071
#
# Poissons Ratio (x) = 0.08535 0.14726
# Poissons Ratio (y) = 0.23044 0.58047
# Poissons Ratio (z) = 0.35024 0.51134
#
# Static dielectric constant tensor:
#      x y z
#    x 3.280080 0.000000 0.000000 
#    y 0.000000 2.877370 0.000000 
#    z 0.000000 0.000000 2.969700 
# 
# 
# High freq. dielectric constant tensor:
#      x y z
#    x 1.656860 0.000000 0.000000 
#    y 0.000000 1.606950 0.000000 
#    z 0.000000 0.000000 1.614400 
# 
# From -- ./inp_files/37319.got.cif
#   From: 2010.03.12/outbox.cif.g09.slc.cpg/sg64_19_cif.got.tgz:37319.got - 2010.04.10 20:19:32.
