data_PCOD8262341
_publ_section_title
;
Structure prediction by ZEFSAII (Michael W. Deem and Ramdas Pophale) SiO2 
 PCOD8262341
Probable space group: C M C A
;
_chemical_formula_sum "Si O2"
_cell_formula_units_Z 80
_cell_length_a 8.800280
_cell_length_b 15.398361
_cell_length_c 29.100420
_cell_angle_alpha 90.000000
_cell_angle_beta 90.000000
_cell_angle_gamma 90.000000
_cell_volume 3943.394665
_symmetry_space_group_name_H-M "C M C A"
_symmetry_group_IT_number 64
_symmetry_cell_setting 'orthorhombic'
loop_
_space_group_symop_operation_xyz
x,y,z
-x,1/2-y,1/2+z
x,-y,-z
-x,1/2+y,1/2-z
-x,-y,-z
x,1/2+y,1/2-z
-x,y,z
x,1/2-y,1/2+z
1/2+x,1/2+y,z
1/2-x,-y,1/2+z
1/2+x,1/2-y,-z
1/2-x,y,1/2-z
1/2-x,1/2-y,-z
1/2+x,y,1/2-z
1/2-x,1/2+y,z
1/2+x,-y,1/2+z
loop_
_atom_site_type_symbol
_atom_site_label
_atom_site_fract_x
_atom_site_fract_y
_atom_site_fract_z
Si Si1 0.326114 0.353940 0.543932
Si Si2 0.322305 0.411421 0.640856
Si Si3 0.676462 0.105871 0.859083
Si Si4 0.172761 0.148720 0.951285
Si Si5 0.820697 0.246436 0.299609
O O1 0.500000 0.381310 0.535111
O O2 0.255057 0.398341 0.589555
O O3 0.228149 0.386239 0.500643
O O4 0.311528 0.251632 0.551098
O O5 0.500000 0.391950 0.636223
O O6 0.290017 0.508261 0.659128
O O7 0.254255 0.341012 0.676536
O O8 0.500000 0.129990 0.853082
O O9 0.719622 0.108216 0.912550
O O10 0.779403 0.170549 0.830080
O O11 0.000000 0.118985 0.943036
O O12 0.750000 0.257076 0.250000
O O13 0.000000 0.242161 0.294296
#
# Coordination Sequence:
#
# PCOD8262341 Si02
#       5
#    16  16  16  16  16
#     4   9  17  34  57  81 114 160 202 239 285 344
#     4   9  20  39  62  86 118 156 197 240 289 348
#     4  11  22  38  62  91 119 155 198 240 290 349
#     4  10  19  33  55  85 121 159 198 243 288 340
#     4  11  23  44  66  88 117 151 191 242 298 352
#
# _framework density 20.287088000000001
#
# number of rings (size 3 to 8) (size 9 to 14) (size 15 to 20)
#    0.000    2.000    2.000    1.800    0.000    2.400 
#    0.000   12.000    0.000    0.000    0.000    0.000 
#    0.000    0.000    0.000    0.000    0.000    0.000 
#
# Total GULP energy -496056.207533 kJ/mol
# GULP energy per Si atom -12401.405188 kJ/mol
# Density = 2.024091 g / cm^3
# Si number density = 20.287088 Si / 1000 Ang^3
#
#
#
# Elastic Constant Matrix: (Units=GPa)
#
#
# Indices 1 2 3 4 5 6 
#
# 1 59.9678 25.5181 19.6281 0.0000 0.0000 0.0000
# 2 25.5181 89.1066 37.9796 0.0000 0.0000 0.0000
# 3 19.6281 37.9796 102.7412 0.0000 0.0000 0.0000
# 4 0.0000 0.0000 0.0000 7.7310 0.0000 0.0000
# 5 0.0000 0.0000 0.0000 0.0000 28.4477 0.0000
# 6 0.0000 0.0000 0.0000 0.0000 0.0000 24.0605
#
#
#
# Elastic Compliance Matrix: (Units=1/GPa)
#
#
# Indices 1 2 3 4 5 6 
#
# 1 0.019314 -0.004699 -0.001953 0.000000 0.000000 0.000000
# 2 -0.004699 0.014465 -0.004449 0.000000 0.000000 0.000000
# 3 -0.001953 -0.004449 0.011751 0.000000 0.000000 0.000000
# 4 0.000000 0.000000 0.000000 0.129349 0.000000 0.000000
# 5 0.000000 0.000000 0.000000 0.000000 0.035152 0.000000
# 6 0.000000 0.000000 0.000000 0.000000 0.000000 0.041562
#
#
# Mechanical properties :
#
#
# Convention : Reuss Voigt Hill
#
# Bulk Modulus (GPa) = 42.86725 46.45191 44.65958
# Shear Modulus (GPa) = 17.75753 23.29384 20.52568
#
# Velocity S-wave (km/s) = 2.96178 3.39220 3.18427
# Velocity P-wave (km/s) = 5.73344 6.18787 5.96498
#
# Compressibility (1/GPa) = 0.02332783
#
# Stress axis : x y z
#
# Youngs Moduli (GPa) = 51.77510 69.13445 85.09884
#
# Poissons Ratio (x) = 0.32485 0.16619
# Poissons Ratio (y) = 0.24328 0.37863
# Poissons Ratio (z) = 0.10111 0.30760
#
# Static dielectric constant tensor:
#      x y z
#    x 3.515170 0.000000 0.000000 
#    y 0.000000 3.673370 0.000000 
#    z 0.000000 0.000000 3.801550 
# 
# 
# High freq. dielectric constant tensor:
#      x y z
#    x 1.775110 0.000000 0.000000 
#    y 0.000000 1.792810 0.000000 
#    z 0.000000 0.000000 1.794630 
# 
# From -- ./inp_files/51761.got.cif
#   From: 2010.03.12/outbox.cif.g09.slc.cpg/sg64_26_cif.got.tgz:51761.got - 2010.04.10 20:19:32.
