data_PCOD8262442
_publ_section_title
;
Structure prediction by ZEFSAII (Michael W. Deem and Ramdas Pophale) SiO2 
 PCOD8262442
Probable space group: C M C A
;
_chemical_formula_sum "Si O2"
_cell_formula_units_Z 96
_cell_length_a 21.959411
_cell_length_b 23.805880
_cell_length_c 10.322247
_cell_angle_alpha 90.000000
_cell_angle_beta 90.000000
_cell_angle_gamma 90.000000
_cell_volume 5396.089873
_symmetry_space_group_name_H-M "C M C A"
_symmetry_group_IT_number 64
_symmetry_cell_setting 'orthorhombic'
loop_
_space_group_symop_operation_xyz
x,y,z
-x,1/2-y,1/2+z
x,-y,-z
-x,1/2+y,1/2-z
-x,-y,-z
x,1/2+y,1/2-z
-x,y,z
x,1/2-y,1/2+z
1/2+x,1/2+y,z
1/2-x,-y,1/2+z
1/2+x,1/2-y,-z
1/2-x,y,1/2-z
1/2-x,1/2-y,-z
1/2+x,y,1/2-z
1/2-x,1/2+y,z
1/2+x,-y,1/2+z
loop_
_atom_site_type_symbol
_atom_site_label
_atom_site_fract_x
_atom_site_fract_y
_atom_site_fract_z
Si Si1 0.000000 0.545406 0.611549
Si Si2 0.400475 0.873748 0.485048
Si Si3 0.500000 0.971267 0.860462
Si Si4 0.707229 0.185970 0.129038
Si Si5 0.500000 0.218015 0.478064
Si Si6 0.500000 0.794869 0.789358
Si Si7 0.787945 0.686258 0.623075
Si Si8 0.399994 0.384631 0.722992
O O1 0.000000 0.500000 0.500000
O O2 0.938751 0.581403 0.596388
O O3 0.000000 0.519552 0.753610
O O4 0.439644 0.817836 0.501220
O O5 0.341631 0.858403 0.399887
O O6 0.382443 0.899183 0.627149
O O7 0.562094 0.935003 0.843946
O O8 0.500000 0.000000 0.000000
O O9 0.750000 0.174620 0.250000
O O10 0.683524 0.250760 0.136419
O O11 0.656693 0.136466 0.136134
O O12 0.742113 0.179943 0.995499
O O13 0.500000 0.246934 0.334800
O O14 0.500000 0.269698 0.571344
O O15 0.559229 0.830586 0.768920
O O16 0.750000 0.669414 0.750000
#
# Coordination Sequence:
#
# PCOD8262442 Si02
#       8
#     8  16   8  16   8   8  16  16
#     4  11  20  39  65  84 102 146 194 238 295 341
#     4  10  19  35  59  81 108 149 194 227 277 352
#     4  11  24  41  61  88 112 136 190 257 306 335
#     4  10  19  34  57  81 117 160 188 218 272 338
#     4   9  18  32  49  77 110 143 179 226 278 332
#     4   9  18  32  49  76 112 141 177 224 277 338
#     4  10  21  34  53  88 122 152 190 228 265 329
#     4  10  19  36  59  79 107 153 189 225 287 350
#
# _framework density 17.790659000000002
#
# number of rings (size 3 to 8) (size 9 to 14) (size 15 to 20)
#    0.000    2.000    3.333    2.000    0.000    1.333 
#    9.000    0.000    0.000    6.000    0.000    0.000 
#    0.000    0.000    0.000    0.000    0.000    0.000 
#
# Total GULP energy -594738.522378 kJ/mol
# GULP energy per Si atom -12390.385883 kJ/mol
# Density = 1.775017 g / cm^3
# Si number density = 17.790659 Si / 1000 Ang^3
#
#
#
# Elastic Constant Matrix: (Units=GPa)
#
#
# Indices 1 2 3 4 5 6 
#
# 1 105.0304 51.5034 51.5705 0.0000 0.0000 0.0000
# 2 51.5034 78.4092 51.3453 0.0000 0.0000 0.0000
# 3 51.5705 51.3453 146.7964 0.0000 0.0000 0.0000
# 4 0.0000 0.0000 0.0000 34.1501 0.0000 0.0000
# 5 0.0000 0.0000 0.0000 0.0000 -5.5633 0.0000
# 6 0.0000 0.0000 0.0000 0.0000 0.0000 24.6404
#
#
#
# Elastic Compliance Matrix: (Units=1/GPa)
#
#
# Indices 1 2 3 4 5 6 
#
# 1 0.014623 -0.008095 -0.002306 0.000000 0.000000 0.000000
# 2 -0.008095 0.021024 -0.004510 0.000000 0.000000 0.000000
# 3 -0.002306 -0.004510 0.009200 0.000000 0.000000 0.000000
# 4 0.000000 0.000000 0.000000 0.029283 0.000000 0.000000
# 5 0.000000 0.000000 0.000000 0.000000 -0.179749 0.000000
# 6 0.000000 0.000000 0.000000 0.000000 0.000000 0.040584
#
#
# Mechanical properties :
#
#
# Convention : Reuss Voigt Hill
#
# Bulk Modulus (GPa) = 66.55451 71.00826 68.78138
# Shear Modulus (GPa) = -165.52584 22.36655 -71.57965
#
# Velocity S-wave (km/s) = -9.65623 3.54956 -6.34994
# Velocity P-wave (km/s) = 9.31841 7.53651 3.87516
#
# Compressibility (1/GPa) = 0.01502528
#
# Stress axis : x y z
#
# Youngs Moduli (GPa) = 68.38668 47.56433 108.70150
#
# Poissons Ratio (x) = 0.38504 0.25062
# Poissons Ratio (y) = 0.55361 0.49022
# Poissons Ratio (z) = 0.15767 0.21450
#
# Static dielectric constant tensor:
#      x y z
#    x 3.274100 0.000000 0.000000 
#    y 0.000000 2.939980 0.000000 
#    z 0.000000 0.000000 3.236140 
# 
# 
# High freq. dielectric constant tensor:
#      x y z
#    x 1.686180 0.000000 0.000000 
#    y 0.000000 1.660100 0.000000 
#    z 0.000000 0.000000 1.700040 
# 
# From -- ./inp_files/9571.got.cif
#   From: 2010.03.12/outbox.cif.g09.slc.cpg/sg64_5_cif.got.tgz:9571.got - 2010.04.10 20:19:32.
