data_PCOD8262587
_publ_section_title
;
Structure prediction by ZEFSAII (Michael W. Deem and Ramdas Pophale) SiO2 
 PCOD8262587
Probable space group: C M C A
;
_chemical_formula_sum "Si O2"
_cell_formula_units_Z 80
_cell_length_a 17.350844
_cell_length_b 9.803466
_cell_length_c 26.558502
_cell_angle_alpha 90.000000
_cell_angle_beta 90.000000
_cell_angle_gamma 90.000000
_cell_volume 4517.558942
_symmetry_space_group_name_H-M "C M C A"
_symmetry_group_IT_number 64
_symmetry_cell_setting 'orthorhombic'
loop_
_space_group_symop_operation_xyz
x,y,z
-x,1/2-y,1/2+z
x,-y,-z
-x,1/2+y,1/2-z
-x,-y,-z
x,1/2+y,1/2-z
-x,y,z
x,1/2-y,1/2+z
1/2+x,1/2+y,z
1/2-x,-y,1/2+z
1/2+x,1/2-y,-z
1/2-x,y,1/2-z
1/2-x,1/2-y,-z
1/2+x,y,1/2-z
1/2-x,1/2+y,z
1/2+x,-y,1/2+z
loop_
_atom_site_type_symbol
_atom_site_label
_atom_site_fract_x
_atom_site_fract_y
_atom_site_fract_z
Si Si1 0.811560 0.524346 0.108744
Si Si2 0.239681 0.278753 0.441830
Si Si3 0.912941 0.785303 0.218106
Si Si4 0.586245 0.739569 0.897382
Si Si5 0.826027 0.513839 0.223060
O O1 0.748977 0.639648 0.090854
O O2 0.802867 0.390213 0.074493
O O3 0.895811 0.596112 0.102158
O O4 0.800532 0.479583 0.166179
O O5 0.250000 0.250000 0.500000
O O6 0.151745 0.334678 0.431519
O O7 0.905639 0.820071 0.158983
O O8 0.891262 0.628247 0.226823
O O9 0.000000 0.806629 0.237049
O O10 0.856188 0.877817 0.250458
O O11 0.500000 0.714961 0.918550
O O12 0.750000 0.569200 0.250000
#
# Coordination Sequence:
#
# PCOD8262587 Si02
#       5
#    16  16  16  16  16
#     4   9  21  34  56  81 109 143 184 230 277 331
#     4  10  19  36  58  82 105 145 187 234 281 330
#     4  10  20  35  53  78 112 149 179 218 274 330
#     4   8  18  35  56  79 108 144 181 222 275 333
#     4  11  21  33  54  81 112 143 185 223 269 327
#
# _framework density 17.708680000000001
#
# number of rings (size 3 to 8) (size 9 to 14) (size 15 to 20)
#    1.200    1.200    0.000    3.000    2.800    0.800 
#    0.000    2.000    0.000    3.600    0.000    0.000 
#    0.000    0.000    0.000    0.000    0.000    0.000 
#
# Total GULP energy -495580.549096 kJ/mol
# GULP energy per Si atom -12389.513727 kJ/mol
# Density = 1.766837 g / cm^3
# Si number density = 17.708680 Si / 1000 Ang^3
#
#
#
# Elastic Constant Matrix: (Units=GPa)
#
#
# Indices 1 2 3 4 5 6 
#
# 1 73.3787 10.1794 44.0269 0.0000 0.0000 0.0000
# 2 10.1794 70.0755 30.0627 0.0000 0.0000 0.0000
# 3 44.0269 30.0627 97.8496 0.0000 0.0000 0.0000
# 4 0.0000 0.0000 0.0000 26.8668 0.0000 0.0000
# 5 0.0000 0.0000 0.0000 0.0000 20.9709 0.0000
# 6 0.0000 0.0000 0.0000 0.0000 0.0000 18.7585
#
#
#
# Elastic Compliance Matrix: (Units=1/GPa)
#
#
# Indices 1 2 3 4 5 6 
#
# 1 0.018732 0.001031 -0.008745 0.000000 0.000000 0.000000
# 2 0.001031 0.016493 -0.005531 0.000000 0.000000 0.000000
# 3 -0.008745 -0.005531 0.015854 0.000000 0.000000 0.000000
# 4 0.000000 0.000000 0.000000 0.037221 0.000000 0.000000
# 5 0.000000 0.000000 0.000000 0.000000 0.047685 0.000000
# 6 0.000000 0.000000 0.000000 0.000000 0.000000 0.053309
#
#
# Mechanical properties :
#
#
# Convention : Reuss Voigt Hill
#
# Bulk Modulus (GPa) = 40.66970 45.53798 43.10384
# Shear Modulus (GPa) = 22.32332 23.78823 23.05577
#
# Velocity S-wave (km/s) = 3.55433 3.66909 3.61217
# Velocity P-wave (km/s) = 6.31349 6.61215 6.46455
#
# Compressibility (1/GPa) = 0.02458833
#
# Stress axis : x y z
#
# Youngs Moduli (GPa) = 53.38485 60.63016 63.07631
#
# Poissons Ratio (x) = -0.06248 0.55160
# Poissons Ratio (y) = -0.05502 0.34888
# Poissons Ratio (z) = 0.46685 0.33535
#
# Static dielectric constant tensor:
#      x y z
#    x 3.196360 0.000000 0.000000 
#    y 0.000000 3.040450 0.000000 
#    z 0.000000 0.000000 3.189020 
# 
# 
# High freq. dielectric constant tensor:
#      x y z
#    x 1.670850 0.000000 0.000000 
#    y 0.000000 1.670160 0.000000 
#    z 0.000000 0.000000 1.681670 
# 
# From -- ./inp_files/49897.got.cif
#   From: 2010.03.12/outbox.cif.g09.slc.cpg/sg64_25_cif.got.tgz:49897.got - 2010.04.10 20:19:32.
