data_PCOD8262511
_publ_section_title
;
Structure prediction by ZEFSAII (Michael W. Deem and Ramdas Pophale) SiO2 
 PCOD8262511
Probable space group: C M C A
;
_chemical_formula_sum "Si O2"
_cell_formula_units_Z 96
_cell_length_a 9.150656
_cell_length_b 20.369371
_cell_length_c 28.146791
_cell_angle_alpha 90.000000
_cell_angle_beta 90.000000
_cell_angle_gamma 90.000000
_cell_volume 5246.367825
_symmetry_space_group_name_H-M "C M C A"
_symmetry_group_IT_number 64
_symmetry_cell_setting 'orthorhombic'
loop_
_space_group_symop_operation_xyz
x,y,z
-x,1/2-y,1/2+z
x,-y,-z
-x,1/2+y,1/2-z
-x,-y,-z
x,1/2+y,1/2-z
-x,y,z
x,1/2-y,1/2+z
1/2+x,1/2+y,z
1/2-x,-y,1/2+z
1/2+x,1/2-y,-z
1/2-x,y,1/2-z
1/2-x,1/2-y,-z
1/2+x,y,1/2-z
1/2-x,1/2+y,z
1/2+x,-y,1/2+z
loop_
_atom_site_type_symbol
_atom_site_label
_atom_site_fract_x
_atom_site_fract_y
_atom_site_fract_z
Si Si1 0.172780 0.420124 0.949590
Si Si2 0.170229 0.122609 0.138849
Si Si3 0.671669 0.998200 0.297978
Si Si4 0.827788 0.568206 0.946494
Si Si5 0.670406 0.744132 0.200391
Si Si6 0.829103 0.619277 0.847107
O O1 0.249661 0.372463 0.911821
O O2 0.230740 0.494127 0.940315
O O3 0.000000 0.413752 0.942717
O O4 0.223422 0.400242 0.003235
O O5 0.229845 0.180525 0.172578
O O6 0.000000 0.132697 0.129510
O O7 0.205690 0.052977 0.162782
O O8 0.500000 0.990321 0.288604
O O9 0.750000 0.021269 0.250000
O O10 0.736646 0.928864 0.314071
O O11 0.776921 0.612128 0.901941
O O12 0.000000 0.562586 0.949087
O O13 0.500000 0.737220 0.211289
O O14 0.750000 0.751432 0.250000
O O15 0.705059 0.806947 0.168034
O O16 0.000000 0.601547 0.841538
#
# Coordination Sequence:
#
# PCOD8262511 Si02
#       6
#    16  16  16  16  16  16
#     4   9  16  30  54  80 105 136 175 213 251 306
#     4  10  21  36  51  75 107 137 171 212 262 310
#     4  11  22  34  51  75 103 132 169 218 262 308
#     4   8  15  29  52  81 107 133 171 213 255 306
#     4  10  22  38  55  74 102 141 177 213 260 313
#     4  10  19  35  57  78 103 136 174 216 260 306
#
# _framework density 18.298375
#
# number of rings (size 3 to 8) (size 9 to 14) (size 15 to 20)
#    0.000    2.333    1.667    2.500    0.000    3.333 
#    0.000    3.333    0.000    0.000    0.000    0.000 
#    0.000    0.000    0.000    0.000    0.000    0.000 
#
# Total GULP energy -595153.913879 kJ/mol
# GULP energy per Si atom -12399.039872 kJ/mol
# Density = 1.825673 g / cm^3
# Si number density = 18.298375 Si / 1000 Ang^3
#
#
#
# Elastic Constant Matrix: (Units=GPa)
#
#
# Indices 1 2 3 4 5 6 
#
# 1 47.4293 30.2632 45.7773 0.0000 0.0000 0.0000
# 2 30.2632 70.9008 36.7987 0.0000 0.0000 0.0000
# 3 45.7773 36.7987 151.5051 0.0000 0.0000 0.0000
# 4 0.0000 0.0000 0.0000 33.3362 0.0000 0.0000
# 5 0.0000 0.0000 0.0000 0.0000 29.9687 0.0000
# 6 0.0000 0.0000 0.0000 0.0000 0.0000 20.4859
#
#
#
# Elastic Compliance Matrix: (Units=1/GPa)
#
#
# Indices 1 2 3 4 5 6 
#
# 1 0.036124 -0.011161 -0.008204 0.000000 0.000000 0.000000
# 2 -0.011161 0.019587 -0.001385 0.000000 0.000000 0.000000
# 3 -0.008204 -0.001385 0.009416 0.000000 0.000000 0.000000
# 4 0.000000 0.000000 0.000000 0.029997 0.000000 0.000000
# 5 0.000000 0.000000 0.000000 0.000000 0.033368 0.000000
# 6 0.000000 0.000000 0.000000 0.000000 0.000000 0.048814
#
#
# Mechanical properties :
#
#
# Convention : Reuss Voigt Hill
#
# Bulk Modulus (GPa) = 42.32574 55.05708 48.69141
# Shear Modulus (GPa) = 22.05735 27.22457 24.64096
#
# Velocity S-wave (km/s) = 3.47569 3.86140 3.67361
# Velocity P-wave (km/s) = 6.26804 7.07350 6.68292
#
# Compressibility (1/GPa) = 0.02362629
#
# Stress axis : x y z
#
# Youngs Moduli (GPa) = 27.68263 51.05402 106.20574
#
# Poissons Ratio (x) = 0.56982 0.87130
# Poissons Ratio (y) = 0.30897 0.14711
# Poissons Ratio (z) = 0.22711 0.07072
#
# Static dielectric constant tensor:
#      x y z
#    x 3.131350 0.000000 0.000000 
#    y 0.000000 3.273620 0.000000 
#    z 0.000000 0.000000 3.784220 
# 
# 
# High freq. dielectric constant tensor:
#      x y z
#    x 1.687130 0.000000 0.000000 
#    y 0.000000 1.691720 0.000000 
#    z 0.000000 0.000000 1.727820 
# 
# From -- ./inp_files/48031.got.cif
#   From: 2010.03.12/outbox.cif.g09.slc.cpg/sg64_25_cif.got.tgz:48031.got - 2010.04.10 20:19:32.
