data_PCOD8262023
_publ_section_title
;
Structure prediction by ZEFSAII (Michael W. Deem and Ramdas Pophale) SiO2 
 PCOD8262023
Probable space group: C M C A
;
_chemical_formula_sum "Si O2"
_cell_formula_units_Z 96
_cell_length_a 9.249789
_cell_length_b 30.509572
_cell_length_c 19.568461
_cell_angle_alpha 90.000000
_cell_angle_beta 90.000000
_cell_angle_gamma 90.000000
_cell_volume 5522.358698
_symmetry_space_group_name_H-M "C M C A"
_symmetry_group_IT_number 64
_symmetry_cell_setting 'orthorhombic'
loop_
_space_group_symop_operation_xyz
x,y,z
-x,1/2-y,1/2+z
x,-y,-z
-x,1/2+y,1/2-z
-x,-y,-z
x,1/2+y,1/2-z
-x,y,z
x,1/2-y,1/2+z
1/2+x,1/2+y,z
1/2-x,-y,1/2+z
1/2+x,1/2-y,-z
1/2-x,y,1/2-z
1/2-x,1/2-y,-z
1/2+x,y,1/2-z
1/2-x,1/2+y,z
1/2+x,-y,1/2+z
loop_
_atom_site_type_symbol
_atom_site_label
_atom_site_fract_x
_atom_site_fract_y
_atom_site_fract_z
Si Si1 0.329346 0.696499 0.180624
Si Si2 0.170252 0.367418 0.918431
Si Si3 0.161811 0.047790 0.919137
Si Si4 0.332065 0.369278 0.423184
Si Si5 0.832278 0.297471 0.182589
Si Si6 0.663433 0.048405 0.418530
O O1 0.500000 0.686630 0.186476
O O2 0.250000 0.681875 0.250000
O O3 0.258586 0.670434 0.118681
O O4 0.297582 0.747249 0.164744
O O5 0.226769 0.414585 0.890995
O O6 0.000000 0.363505 0.903597
O O7 0.208612 0.361538 0.998038
O O8 0.260024 0.087137 0.891195
O O9 0.000000 0.056268 0.892916
O O10 0.214083 0.999831 0.892251
O O11 0.166734 0.047955 0.000345
O O12 0.500000 0.377243 0.414913
O O13 0.279560 0.326867 0.381063
O O14 0.750000 0.313117 0.250000
O O15 0.000000 0.304244 0.197510
O O16 0.500000 0.058562 0.393174
#
# Coordination Sequence:
#
# PCOD8262023 Si02
#       6
#    16  16  16  16  16  16
#     4  10  20  35  53  70  92 124 161 198 237 284
#     4  10  19  30  47  73 101 127 157 194 238 285
#     4   8  14  25  43  67  94 125 160 194 231 278
#     4   9  18  31  47  71 102 128 154 195 242 284
#     4   9  19  35  52  70  93 125 162 197 236 283
#     4   8  14  26  43  65  95 127 158 194 234 277
#
# _framework density 17.383876000000001
#
# number of rings (size 3 to 8) (size 9 to 14) (size 15 to 20)
#    0.000    3.000    0.000    2.000    0.000    3.333 
#    0.000    3.333    0.000    1.000    0.000    2.333 
#    0.000    0.000    0.000    0.000    0.000    0.000 
#
# Total GULP energy -594984.831198 kJ/mol
# GULP energy per Si atom -12395.517317 kJ/mol
# Density = 1.734431 g / cm^3
# Si number density = 17.383876 Si / 1000 Ang^3
#
#
#
# Elastic Constant Matrix: (Units=GPa)
#
#
# Indices 1 2 3 4 5 6 
#
# 1 82.7997 65.4938 44.8748 0.0000 0.0000 0.0000
# 2 65.4938 131.0164 61.3972 0.0000 0.0000 0.0000
# 3 44.8748 61.3972 61.3516 0.0000 0.0000 0.0000
# 4 0.0000 0.0000 0.0000 4.6007 0.0000 0.0000
# 5 0.0000 0.0000 0.0000 0.0000 23.0252 0.0000
# 6 0.0000 0.0000 0.0000 0.0000 0.0000 34.2086
#
#
#
# Elastic Compliance Matrix: (Units=1/GPa)
#
#
# Indices 1 2 3 4 5 6 
#
# 1 0.022786 -0.006742 -0.009920 0.000000 0.000000 0.000000
# 2 -0.006742 0.016368 -0.011449 0.000000 0.000000 0.000000
# 3 -0.009920 -0.011449 0.035013 0.000000 0.000000 0.000000
# 4 0.000000 0.000000 0.000000 0.217359 0.000000 0.000000
# 5 0.000000 0.000000 0.000000 0.000000 0.043431 0.000000
# 6 0.000000 0.000000 0.000000 0.000000 0.000000 0.029232
#
#
# Mechanical properties :
#
#
# Convention : Reuss Voigt Hill
#
# Bulk Modulus (GPa) = 55.72362 68.74435 62.23399
# Shear Modulus (GPa) = 11.72629 19.26035 15.49332
#
# Velocity S-wave (km/s) = 2.60003 3.33219 2.98861
# Velocity P-wave (km/s) = 6.41388 7.37803 6.91279
#
# Compressibility (1/GPa) = 0.01794571
#
# Stress axis : x y z
#
# Youngs Moduli (GPa) = 43.88567 61.09425 28.56122
#
# Poissons Ratio (x) = 0.41191 0.28332
# Poissons Ratio (y) = 0.29588 0.32699
# Poissons Ratio (z) = 0.43533 0.69946
#
# Static dielectric constant tensor:
#      x y z
#    x 3.309850 0.000000 0.000000 
#    y 0.000000 3.643860 0.000000 
#    z 0.000000 0.000000 2.965520 
# 
# 
# High freq. dielectric constant tensor:
#      x y z
#    x 1.673990 0.000000 0.000000 
#    y 0.000000 1.684210 0.000000 
#    z 0.000000 0.000000 1.629220 
# 
# From -- ./inp_files/37101.got.cif
#   From: 2010.03.12/outbox.cif.g09.slc.cpg/sg64_19_cif.got.tgz:37101.got - 2010.04.10 20:19:32.
