data_PCOD8262183
_publ_section_title
;
Structure prediction by ZEFSAII (Michael W. Deem and Ramdas Pophale) SiO2 
 PCOD8262183
Probable space group: C M C A
;
_chemical_formula_sum "Si O2"
_cell_formula_units_Z 80
_cell_length_a 9.106765
_cell_length_b 25.388702
_cell_length_c 19.900948
_cell_angle_alpha 90.000000
_cell_angle_beta 90.000000
_cell_angle_gamma 90.000000
_cell_volume 4601.277147
_symmetry_space_group_name_H-M "C M C A"
_symmetry_group_IT_number 64
_symmetry_cell_setting 'orthorhombic'
loop_
_space_group_symop_operation_xyz
x,y,z
-x,1/2-y,1/2+z
x,-y,-z
-x,1/2+y,1/2-z
-x,-y,-z
x,1/2+y,1/2-z
-x,y,z
x,1/2-y,1/2+z
1/2+x,1/2+y,z
1/2-x,-y,1/2+z
1/2+x,1/2-y,-z
1/2-x,y,1/2-z
1/2-x,1/2-y,-z
1/2+x,y,1/2-z
1/2-x,1/2+y,z
1/2+x,-y,1/2+z
loop_
_atom_site_type_symbol
_atom_site_label
_atom_site_fract_x
_atom_site_fract_y
_atom_site_fract_z
Si Si1 0.827998 0.109971 0.678746
Si Si2 0.332151 0.004253 0.181455
Si Si3 0.830222 0.310228 0.571785
Si Si4 0.330213 0.187892 0.935872
Si Si5 0.172922 0.881743 0.677942
O O1 0.750000 0.118387 0.750000
O O2 0.770714 0.152997 0.625900
O O3 0.000000 0.117692 0.691474
O O4 0.793174 0.051675 0.645895
O O5 0.500000 0.003317 0.201935
O O6 0.250000 0.005822 0.250000
O O7 0.298402 0.059843 0.143933
O O8 0.765647 0.327439 0.500224
O O9 0.808127 0.248373 0.584027
O O10 0.741563 0.338547 0.630039
O O11 0.000000 0.326627 0.574529
O O12 0.500000 0.175423 0.952295
O O13 0.250000 0.877440 0.750000
O O14 0.000000 0.870705 0.686488
#
# Coordination Sequence:
#
# PCOD8262183 Si02
#       5
#    16  16  16  16  16
#     4   9  17  31  51  74  98 123 156 197 239 284
#     4   8  15  28  47  70  95 124 155 190 235 283
#     4  10  20  34  51  71  96 128 164 200 241 287
#     4   9  19  35  52  70  95 128 163 199 241 288
#     4  10  19  32  51  74  99 127 160 197 237 282
#
# _framework density 17.386476999999999
#
# number of rings (size 3 to 8) (size 9 to 14) (size 15 to 20)
#    0.000    2.800    0.000    1.200    0.000    3.200 
#    0.000    3.000    0.000    6.000    0.000    0.000 
#    0.000    0.000    0.000    0.000    0.000    0.000 
#
# Total GULP energy -495559.037464 kJ/mol
# GULP energy per Si atom -12388.975937 kJ/mol
# Density = 1.734690 g / cm^3
# Si number density = 17.386477 Si / 1000 Ang^3
#
#
#
# Elastic Constant Matrix: (Units=GPa)
#
#
# Indices 1 2 3 4 5 6 
#
# 1 78.5761 51.4468 52.4711 0.0000 0.0000 0.0000
# 2 51.4468 102.8101 72.7547 0.0000 0.0000 0.0000
# 3 52.4711 72.7547 100.9868 0.0000 0.0000 0.0000
# 4 0.0000 0.0000 0.0000 3.5999 0.0000 0.0000
# 5 0.0000 0.0000 0.0000 0.0000 30.9643 0.0000
# 6 0.0000 0.0000 0.0000 0.0000 0.0000 25.7682
#
#
#
# Elastic Compliance Matrix: (Units=1/GPa)
#
#
# Indices 1 2 3 4 5 6 
#
# 1 0.021000 -0.005686 -0.006815 0.000000 0.000000 0.000000
# 2 -0.005686 0.021383 -0.012451 0.000000 0.000000 0.000000
# 3 -0.006815 -0.012451 0.022413 0.000000 0.000000 0.000000
# 4 0.000000 0.000000 0.000000 0.277783 0.000000 0.000000
# 5 0.000000 0.000000 0.000000 0.000000 0.032295 0.000000
# 6 0.000000 0.000000 0.000000 0.000000 0.000000 0.038808
#
#
# Mechanical properties :
#
#
# Convention : Reuss Voigt Hill
#
# Bulk Modulus (GPa) = 67.14569 70.63536 68.89053
# Shear Modulus (GPa) = 10.67124 19.11319 14.89221
#
# Velocity S-wave (km/s) = 2.48012 3.31919 2.92985
# Velocity P-wave (km/s) = 6.84870 7.44340 7.15223
#
# Compressibility (1/GPa) = 0.01489299
#
# Stress axis : x y z
#
# Youngs Moduli (GPa) = 47.61865 46.76660 44.61662
#
# Poissons Ratio (x) = 0.26591 0.30406
# Poissons Ratio (y) = 0.27076 0.55551
# Poissons Ratio (z) = 0.32452 0.58227
#
# Static dielectric constant tensor:
#      x y z
#    x 3.291350 0.000000 0.000000 
#    y 0.000000 3.959050 0.000000 
#    z 0.000000 0.000000 2.949270 
# 
# 
# High freq. dielectric constant tensor:
#      x y z
#    x 1.679210 0.000000 0.000000 
#    y 0.000000 1.689590 0.000000 
#    z 0.000000 0.000000 1.640040 
# 
# From -- ./inp_files/29703.got.cif
#   From: 2010.03.12/outbox.cif.g09.slc.cpg/sg64_15_cif.got.tgz:29703.got - 2010.04.10 20:19:32.
