data_PCOD8262093
_publ_section_title
;
Structure prediction by ZEFSAII (Michael W. Deem and Ramdas Pophale) SiO2 
 PCOD8262093
Probable space group: C M C A
;
_chemical_formula_sum "Si O2"
_cell_formula_units_Z 96
_cell_length_a 9.082447
_cell_length_b 18.982640
_cell_length_c 30.863347
_cell_angle_alpha 90.000000
_cell_angle_beta 90.000000
_cell_angle_gamma 90.000000
_cell_volume 5321.113291
_symmetry_space_group_name_H-M "C M C A"
_symmetry_group_IT_number 64
_symmetry_cell_setting 'orthorhombic'
loop_
_space_group_symop_operation_xyz
x,y,z
-x,1/2-y,1/2+z
x,-y,-z
-x,1/2+y,1/2-z
-x,-y,-z
x,1/2+y,1/2-z
-x,y,z
x,1/2-y,1/2+z
1/2+x,1/2+y,z
1/2-x,-y,1/2+z
1/2+x,1/2-y,-z
1/2-x,y,1/2-z
1/2-x,1/2-y,-z
1/2+x,y,1/2-z
1/2-x,1/2+y,z
1/2+x,-y,1/2+z
loop_
_atom_site_type_symbol
_atom_site_label
_atom_site_fract_x
_atom_site_fract_y
_atom_site_fract_z
Si Si1 0.666546 0.087809 0.707928
Si Si2 0.827489 0.413762 0.121631
Si Si3 0.828952 0.922902 0.622894
Si Si4 0.169955 0.168439 0.953820
Si Si5 0.165489 0.579980 0.291799
Si Si6 0.830340 0.331935 0.958697
O O1 0.500000 0.116755 0.707456
O O2 0.750000 0.118418 0.750000
O O3 0.749740 0.114574 0.665098
O O4 0.668239 0.003942 0.709539
O O5 0.792394 0.495736 0.114151
O O6 0.764978 0.372079 0.081208
O O7 0.000000 0.399628 0.126130
O O8 0.742651 0.893182 0.664443
O O9 0.776910 0.879204 0.581292
O O10 0.000000 0.911473 0.632621
O O11 0.192035 0.251063 0.945646
O O12 0.000000 0.146081 0.950208
O O13 0.229063 0.146888 0.000983
O O14 0.250000 0.610660 0.250000
O O15 0.000000 0.609202 0.290846
O O16 0.000000 0.347337 0.970798
#
# Coordination Sequence:
#
# PCOD8262093 Si02
#       6
#    16  16  16  16  16  16
#     4   9  16  27  44  68  98 129 161 195 234 281
#     4  10  19  31  49  73 100 128 159 197 240 284
#     4   9  18  32  50  72  97 126 161 199 238 280
#     4  10  20  34  52  72  95 125 161 200 241 288
#     4   9  16  26  43  68  98 129 159 193 234 281
#     4   9  19  36  54  70  92 126 164 199 238 287
#
# _framework density 18.041336000000001
#
# number of rings (size 3 to 8) (size 9 to 14) (size 15 to 20)
#    0.000    2.667    0.000    2.000    0.000    6.667 
#    0.000    3.333    0.000    1.000    0.000    4.667 
#    0.000    0.000    0.000    0.000    0.000    0.000 
#
# Total GULP energy -595283.580444 kJ/mol
# GULP energy per Si atom -12401.741259 kJ/mol
# Density = 1.800027 g / cm^3
# Si number density = 18.041336 Si / 1000 Ang^3
#
#
#
# Elastic Constant Matrix: (Units=GPa)
#
#
# Indices 1 2 3 4 5 6 
#
# 1 123.4030 33.7872 84.4851 0.0000 0.0000 0.0000
# 2 33.7872 33.4325 51.0955 0.0000 0.0000 0.0000
# 3 84.4851 51.0955 162.8168 0.0000 0.0000 0.0000
# 4 0.0000 0.0000 0.0000 -8.0466 0.0000 0.0000
# 5 0.0000 0.0000 0.0000 0.0000 43.4884 0.0000
# 6 0.0000 0.0000 0.0000 0.0000 0.0000 18.7185
#
#
#
# Elastic Compliance Matrix: (Units=1/GPa)
#
#
# Indices 1 2 3 4 5 6 
#
# 1 0.013068 -0.005464 -0.005066 0.000000 0.000000 0.000000
# 2 -0.005464 0.059764 -0.015920 0.000000 0.000000 0.000000
# 3 -0.005066 -0.015920 0.013767 0.000000 0.000000 0.000000
# 4 0.000000 0.000000 0.000000 -0.124276 0.000000 0.000000
# 5 0.000000 0.000000 0.000000 0.000000 0.022995 0.000000
# 6 0.000000 0.000000 0.000000 0.000000 0.000000 0.053423
#
#
# Mechanical properties :
#
#
# Convention : Reuss Voigt Hill
#
# Bulk Modulus (GPa) = 29.67509 73.15420 51.41465
# Shear Modulus (GPa) = 48.60340 20.85101 34.72721
#
# Velocity S-wave (km/s) = 5.19601 3.40330 4.39209
# Velocity P-wave (km/s) = 7.24445 7.48862 7.36755
#
# Compressibility (1/GPa) = 0.03369830
#
# Stress axis : x y z
#
# Youngs Moduli (GPa) = 76.52283 16.73261 72.63835
#
# Poissons Ratio (x) = 0.09142 0.36801
# Poissons Ratio (y) = 0.41810 1.15641
# Poissons Ratio (z) = 0.38769 0.26638
#
# Static dielectric constant tensor:
#      x y z
#    x 3.482150 0.000000 0.000000 
#    y 0.000000 2.945750 0.000000 
#    z 0.000000 0.000000 3.495760 
# 
# 
# High freq. dielectric constant tensor:
#      x y z
#    x 1.711170 0.000000 0.000000 
#    y 0.000000 1.651290 0.000000 
#    z 0.000000 0.000000 1.713330 
# 
# From -- ./inp_files/48145.got.cif
#   From: 2010.03.12/outbox.cif.g09.slc.cpg/sg64_25_cif.got.tgz:48145.got - 2010.04.10 20:19:32.
