data_PCOD8262479
_publ_section_title
;
Structure prediction by ZEFSAII (Michael W. Deem and Ramdas Pophale) SiO2 
 PCOD8262479
Probable space group: C M C A
;
_chemical_formula_sum "Si O2"
_cell_formula_units_Z 112
_cell_length_a 17.897213
_cell_length_b 28.398453
_cell_length_c 11.715913
_cell_angle_alpha 90.000000
_cell_angle_beta 90.000000
_cell_angle_gamma 90.000000
_cell_volume 5954.649830
_symmetry_space_group_name_H-M "C M C A"
_symmetry_group_IT_number 64
_symmetry_cell_setting 'orthorhombic'
loop_
_space_group_symop_operation_xyz
x,y,z
-x,1/2-y,1/2+z
x,-y,-z
-x,1/2+y,1/2-z
-x,-y,-z
x,1/2+y,1/2-z
-x,y,z
x,1/2-y,1/2+z
1/2+x,1/2+y,z
1/2-x,-y,1/2+z
1/2+x,1/2-y,-z
1/2-x,y,1/2-z
1/2-x,1/2-y,-z
1/2+x,y,1/2-z
1/2-x,1/2+y,z
1/2+x,-y,1/2+z
loop_
_atom_site_type_symbol
_atom_site_label
_atom_site_fract_x
_atom_site_fract_y
_atom_site_fract_z
Si Si1 0.164001 0.924868 0.759088
Si Si2 0.665216 0.158891 0.095964
Si Si3 0.412722 0.492324 0.127762
Si Si4 0.838817 0.651314 0.439457
Si Si5 0.915037 0.385574 0.347679
Si Si6 0.584560 0.321963 0.364188
Si Si7 0.087475 0.779265 0.780978
O O1 0.250000 0.938322 0.750000
O O2 0.142571 0.892112 0.649777
O O3 0.142915 0.896513 0.872900
O O4 0.120081 0.973765 0.773017
O O5 0.753873 0.165528 0.086712
O O6 0.634403 0.200830 0.174697
O O7 0.633843 0.163523 0.970564
O O8 0.500000 0.502323 0.125634
O O9 0.391977 0.439721 0.164621
O O10 0.379383 0.500000 0.000000
O O11 0.857408 0.642295 0.571336
O O12 0.892927 0.692637 0.396084
O O13 0.908225 0.364755 0.222457
O O14 0.000000 0.380646 0.395267
O O15 0.500000 0.314617 0.406860
O O16 0.612053 0.274523 0.301831
O O17 0.000000 0.783717 0.752567
#
# Coordination Sequence:
#
# PCOD8262479 Si02
#       7
#    16  16  16  16  16  16  16
#     4   9  19  37  57  83 118 150 187 235 286 347
#     4  10  22  40  57  83 120 155 190 236 291 354
#     4  10  19  34  60  89 112 142 191 241 282 327
#     4  10  20  37  59  85 116 148 189 242 289 338
#     4  10  21  38  58  85 119 148 190 245 288 337
#     4  10  23  40  57  81 116 153 194 238 285 349
#     4  10  21  37  61  84 109 152 196 235 286 339
#
# _framework density 18.808831000000001
#
# number of rings (size 3 to 8) (size 9 to 14) (size 15 to 20)
#    0.000    2.143    1.429    2.143    2.000    4.000 
#    5.143    0.714    0.000    2.571    0.000    0.000 
#    0.000    0.000    0.000    0.000    0.000    0.000 
#
# Total GULP energy -694365.201071 kJ/mol
# GULP energy per Si atom -12399.378591 kJ/mol
# Density = 1.876602 g / cm^3
# Si number density = 18.808831 Si / 1000 Ang^3
#
#
#
# Elastic Constant Matrix: (Units=GPa)
#
#
# Indices 1 2 3 4 5 6 
#
# 1 66.5939 47.0821 43.6642 0.0000 0.0000 0.0000
# 2 47.0821 132.0793 55.7733 0.0000 0.0000 0.0000
# 3 43.6642 55.7733 94.3110 0.0000 0.0000 0.0000
# 4 0.0000 0.0000 0.0000 25.8940 0.0000 0.0000
# 5 0.0000 0.0000 0.0000 0.0000 26.8440 0.0000
# 6 0.0000 0.0000 0.0000 0.0000 0.0000 19.7715
#
#
#
# Elastic Compliance Matrix: (Units=1/GPa)
#
#
# Indices 1 2 3 4 5 6 
#
# 1 0.023914 -0.005130 -0.008038 0.000000 0.000000 0.000000
# 2 -0.005130 0.011192 -0.004243 0.000000 0.000000 0.000000
# 3 -0.008038 -0.004243 0.016834 0.000000 0.000000 0.000000
# 4 0.000000 0.000000 0.000000 0.038619 0.000000 0.000000
# 5 0.000000 0.000000 0.000000 0.000000 0.037252 0.000000
# 6 0.000000 0.000000 0.000000 0.000000 0.000000 0.050578
#
#
# Mechanical properties :
#
#
# Convention : Reuss Voigt Hill
#
# Bulk Modulus (GPa) = 58.42222 65.11373 61.76798
# Shear Modulus (GPa) = 22.83971 24.26619 23.55295
#
# Velocity S-wave (km/s) = 3.48847 3.59576 3.54252
# Velocity P-wave (km/s) = 6.88145 7.20647 7.04584
#
# Compressibility (1/GPa) = 0.01711678
#
# Stress axis : x y z
#
# Youngs Moduli (GPa) = 41.81703 89.35040 59.40405
#
# Poissons Ratio (x) = 0.45841 0.47746
# Poissons Ratio (y) = 0.21454 0.25207
# Poissons Ratio (z) = 0.33611 0.37914
#
# Static dielectric constant tensor:
#      x y z
#    x 3.418210 0.000000 0.000000 
#    y 0.000000 3.505210 0.000000 
#    z 0.000000 0.000000 3.312680 
# 
# 
# High freq. dielectric constant tensor:
#      x y z
#    x 1.725630 0.000000 0.000000 
#    y 0.000000 1.735840 0.000000 
#    z 0.000000 0.000000 1.722820 
# 
# From -- ./inp_files/14999.got.cif
#   From: 2010.03.12/outbox.cif.g09.slc.cpg/sg64_8_cif.got.tgz:14999.got - 2010.04.10 20:19:32.
