data_PCOD8262922
_publ_section_title
;
Structure prediction by ZEFSAII (Michael W. Deem and Ramdas Pophale) SiO2 
 PCOD8262922
Probable space group: C M C A
;
_chemical_formula_sum "Si O2"
_cell_formula_units_Z 80
_cell_length_a 9.602412
_cell_length_b 28.868423
_cell_length_c 14.905742
_cell_angle_alpha 90.000000
_cell_angle_beta 90.000000
_cell_angle_gamma 90.000000
_cell_volume 4131.968442
_symmetry_space_group_name_H-M "C M C A"
_symmetry_group_IT_number 64
_symmetry_cell_setting 'orthorhombic'
loop_
_space_group_symop_operation_xyz
x,y,z
-x,1/2-y,1/2+z
x,-y,-z
-x,1/2+y,1/2-z
-x,-y,-z
x,1/2+y,1/2-z
-x,y,z
x,1/2-y,1/2+z
1/2+x,1/2+y,z
1/2-x,-y,1/2+z
1/2+x,1/2-y,-z
1/2-x,y,1/2-z
1/2-x,1/2-y,-z
1/2+x,y,1/2-z
1/2-x,1/2+y,z
1/2+x,-y,1/2+z
loop_
_atom_site_type_symbol
_atom_site_label
_atom_site_fract_x
_atom_site_fract_y
_atom_site_fract_z
Si Si1 0.000000 0.422398 0.412707
Si Si2 0.720492 0.750758 0.350366
Si Si3 0.500000 0.925426 0.860057
Si Si4 0.500000 0.483246 0.817328
Si Si5 0.000000 0.821350 0.694688
Si Si6 0.000000 0.788401 0.894638
Si Si7 0.272144 0.453522 0.952577
Si Si8 0.500000 0.679477 0.919108
O O1 0.862962 0.426143 0.474432
O O2 0.000000 0.460634 0.332527
O O3 0.000000 0.370744 0.371277
O O4 0.750000 0.767154 0.250000
O O5 0.635610 0.702204 0.349720
O O6 0.863807 0.744104 0.404663
O O7 0.637328 0.792521 0.393986
O O8 0.500000 0.876108 0.812706
O O9 0.635309 0.926113 0.923078
O O10 0.500000 0.967615 0.787098
O O11 0.362541 0.463228 0.863908
O O12 0.000000 0.814218 0.800849
O O13 0.000000 0.826658 0.973032
O O14 0.220381 0.500000 0.000000
#
# Coordination Sequence:
#
# PCOD8262922 Si02
#       8
#     8  16   8   8   8   8  16   8
#     4   9  21  40  57  80 115 154 189 229 282 342
#     4   9  20  40  55  80 117 151 186 238 283 330
#     4  12  21  32  62  91 111 146 193 234 289 337
#     4   9  20  37  55  79 111 151 193 227 276 342
#     4   9  22  34  53  87 122 141 179 240 291 337
#     4  10  20  34  57  82 117 148 190 234 284 340
#     4   9  20  38  55  78 118 152 182 233 287 332
#     4  11  21  35  62  81 108 158 194 224 288 343
#
# _framework density 19.361232000000001
#
# number of rings (size 3 to 8) (size 9 to 14) (size 15 to 20)
#    0.000    2.400    0.000    3.300    5.600    3.200 
#    0.000    4.000    0.000    0.000    0.000    0.000 
#    0.000    0.000    0.000    0.000    0.000    0.000 
#
# Total GULP energy -495884.387149 kJ/mol
# GULP energy per Si atom -12397.109679 kJ/mol
# Density = 1.931717 g / cm^3
# Si number density = 19.361232 Si / 1000 Ang^3
#
#
#
# Elastic Constant Matrix: (Units=GPa)
#
#
# Indices 1 2 3 4 5 6 
#
# 1 140.0209 54.5779 28.0658 0.0000 0.0000 0.0000
# 2 54.5779 140.4710 36.8234 0.0000 0.0000 0.0000
# 3 28.0658 36.8234 55.6012 0.0000 0.0000 0.0000
# 4 0.0000 0.0000 0.0000 18.4757 0.0000 0.0000
# 5 0.0000 0.0000 0.0000 0.0000 24.7080 0.0000
# 6 0.0000 0.0000 0.0000 0.0000 0.0000 -18.9565
#
#
#
# Elastic Compliance Matrix: (Units=1/GPa)
#
#
# Indices 1 2 3 4 5 6 
#
# 1 0.008719 -0.002703 -0.002611 0.000000 0.000000 0.000000
# 2 -0.002703 0.009453 -0.004896 0.000000 0.000000 0.000000
# 3 -0.002611 -0.004896 0.022545 0.000000 0.000000 0.000000
# 4 0.000000 0.000000 0.000000 0.054125 0.000000 0.000000
# 5 0.000000 0.000000 0.000000 0.000000 0.040473 0.000000
# 6 0.000000 0.000000 0.000000 0.000000 0.000000 -0.052752
#
#
# Mechanical properties :
#
#
# Convention : Reuss Voigt Hill
#
# Bulk Modulus (GPa) = 49.26731 63.89193 56.57962
# Shear Modulus (GPa) = 45.55919 19.28715 32.42317
#
# Velocity S-wave (km/s) = 4.85615 3.15965 4.09668
# Velocity P-wave (km/s) = 7.54616 6.81049 7.18774
#
# Compressibility (1/GPa) = 0.02029743
#
# Stress axis : x y z
#
# Youngs Moduli (GPa) = 114.69558 105.79143 44.35502
#
# Poissons Ratio (x) = 0.28597 0.11580
# Poissons Ratio (y) = 0.31004 0.21715
# Poissons Ratio (z) = 0.29944 0.51793
#
# Static dielectric constant tensor:
#      x y z
#    x 3.736210 0.000000 0.000000 
#    y 0.000000 3.299570 0.000000 
#    z 0.000000 0.000000 3.392620 
# 
# 
# High freq. dielectric constant tensor:
#      x y z
#    x 1.767690 0.000000 0.000000 
#    y 0.000000 1.735270 0.000000 
#    z 0.000000 0.000000 1.742690 
# 
# From -- ./inp_files/29901.got.cif
#   From: 2010.03.12/outbox.cif.g09.slc.cpg/sg64_15_cif.got.tgz:29901.got - 2010.04.10 20:19:32.
