data_PCOD8262618
_publ_section_title
;
Structure prediction by ZEFSAII (Michael W. Deem and Ramdas Pophale) SiO2 
 PCOD8262618
Probable space group: C M C A
;
_chemical_formula_sum "Si O2"
_cell_formula_units_Z 96
_cell_length_a 18.482190
_cell_length_b 21.801898
_cell_length_c 11.372776
_cell_angle_alpha 90.000000
_cell_angle_beta 90.000000
_cell_angle_gamma 90.000000
_cell_volume 4582.623937
_symmetry_space_group_name_H-M "C M C A"
_symmetry_group_IT_number 64
_symmetry_cell_setting 'orthorhombic'
loop_
_space_group_symop_operation_xyz
x,y,z
-x,1/2-y,1/2+z
x,-y,-z
-x,1/2+y,1/2-z
-x,-y,-z
x,1/2+y,1/2-z
-x,y,z
x,1/2-y,1/2+z
1/2+x,1/2+y,z
1/2-x,-y,1/2+z
1/2+x,1/2-y,-z
1/2-x,y,1/2-z
1/2-x,1/2-y,-z
1/2+x,y,1/2-z
1/2-x,1/2+y,z
1/2+x,-y,1/2+z
loop_
_atom_site_type_symbol
_atom_site_label
_atom_site_fract_x
_atom_site_fract_y
_atom_site_fract_z
Si Si1 0.833106 0.641907 0.611588
Si Si2 0.417509 0.410228 0.320266
Si Si3 0.174451 0.777241 0.705616
Si Si4 0.579469 0.692974 0.080769
Si Si5 0.922777 0.680057 0.025331
Si Si6 0.774985 0.966532 0.376907
O O1 0.895259 0.610908 0.690601
O O2 0.810780 0.709829 0.653177
O O3 0.867343 0.643160 0.479975
O O4 0.760700 0.601106 0.615566
O O5 0.500000 0.435631 0.319581
O O6 0.408100 0.350974 0.401464
O O7 0.362394 0.461739 0.369810
O O8 0.250000 0.804433 0.750000
O O9 0.114374 0.775918 0.805858
O O10 0.145302 0.828149 0.612204
O O11 0.500000 0.664794 0.110593
O O12 0.569102 0.746946 0.986914
O O13 0.000000 0.655365 0.077132
O O14 0.750000 0.997037 0.250000
O O15 0.753547 0.000000 0.500000
#
# Coordination Sequence:
#
# PCOD8262618 Si02
#       6
#    16  16  16  16  16  16
#     4  10  21  37  59  86 120 160 204 245 302 362
#     4  10  19  36  62  87 115 155 201 244 299 366
#     4  11  21  31  50  81 121 163 195 234 278 352
#     4  10  20  33  54  84 120 157 193 233 286 357
#     4   9  19  32  50  78 116 152 187 230 279 346
#     4  10  23  44  67  89 116 156 211 268 324 369
#
# _framework density 20.948696999999999
#
# number of rings (size 3 to 8) (size 9 to 14) (size 15 to 20)
#    0.000    2.000    1.667    2.500    2.333    3.000 
#    3.000    0.000    0.000   12.500    0.000    0.000 
#    0.000    0.000    0.000    0.000    0.000    0.000 
#
# Total GULP energy -594655.217455 kJ/mol
# GULP energy per Si atom -12388.650364 kJ/mol
# Density = 2.090102 g / cm^3
# Si number density = 20.948697 Si / 1000 Ang^3
#
#
#
# Elastic Constant Matrix: (Units=GPa)
#
#
# Indices 1 2 3 4 5 6 
#
# 1 143.3707 19.3899 36.4774 0.0000 0.0000 0.0000
# 2 19.3899 31.5822 30.0149 0.0000 0.0000 0.0000
# 3 36.4774 30.0149 97.8271 0.0000 0.0000 0.0000
# 4 0.0000 0.0000 0.0000 29.8420 0.0000 0.0000
# 5 0.0000 0.0000 0.0000 0.0000 34.2573 0.0000
# 6 0.0000 0.0000 0.0000 0.0000 0.0000 5.2535
#
#
#
# Elastic Compliance Matrix: (Units=1/GPa)
#
#
# Indices 1 2 3 4 5 6 
#
# 1 0.007889 -0.002891 -0.002055 0.000000 0.000000 0.000000
# 2 -0.002891 0.045756 -0.012961 0.000000 0.000000 0.000000
# 3 -0.002055 -0.012961 0.014965 0.000000 0.000000 0.000000
# 4 0.000000 0.000000 0.000000 0.033510 0.000000 0.000000
# 5 0.000000 0.000000 0.000000 0.000000 0.029191 0.000000
# 6 0.000000 0.000000 0.000000 0.000000 0.000000 0.190350
#
#
# Mechanical properties :
#
#
# Convention : Reuss Voigt Hill
#
# Bulk Modulus (GPa) = 30.49042 49.39382 39.94212
# Shear Modulus (GPa) = 13.57206 26.33042 19.95124
#
# Velocity S-wave (km/s) = 2.54809 3.54912 3.08942
# Velocity P-wave (km/s) = 4.82114 6.35804 5.64217
#
# Compressibility (1/GPa) = 0.03279719
#
# Stress axis : x y z
#
# Youngs Moduli (GPa) = 126.76517 21.85529 66.82367
#
# Poissons Ratio (x) = 0.06317 0.13730
# Poissons Ratio (y) = 0.36642 0.86608
# Poissons Ratio (z) = 0.26045 0.28326
#
# Static dielectric constant tensor:
#      x y z
#    x 4.114770 0.000000 0.000000 
#    y 0.000000 3.175440 0.000000 
#    z 0.000000 0.000000 3.919700 
# 
# 
# High freq. dielectric constant tensor:
#      x y z
#    x 1.840530 0.000000 0.000000 
#    y 0.000000 1.751260 0.000000 
#    z 0.000000 0.000000 1.826910 
# 
# From -- ./inp_files/16332.got.cif
#   From: 2010.03.12/outbox.cif.g09.slc.cpg/sg64_9_cif.got.tgz:16332.got - 2010.04.10 20:19:32.
