data_PCOD8262571
_publ_section_title
;
Structure prediction by ZEFSAII (Michael W. Deem and Ramdas Pophale) SiO2 
 PCOD8262571
Probable space group: C M C A
;
_chemical_formula_sum "Si O2"
_cell_formula_units_Z 96
_cell_length_a 10.950469
_cell_length_b 20.338000
_cell_length_c 21.592108
_cell_angle_alpha 90.000000
_cell_angle_beta 90.000000
_cell_angle_gamma 90.000000
_cell_volume 4808.792160
_symmetry_space_group_name_H-M "C M C A"
_symmetry_group_IT_number 64
_symmetry_cell_setting 'orthorhombic'
loop_
_space_group_symop_operation_xyz
x,y,z
-x,1/2-y,1/2+z
x,-y,-z
-x,1/2+y,1/2-z
-x,-y,-z
x,1/2+y,1/2-z
-x,y,z
x,1/2-y,1/2+z
1/2+x,1/2+y,z
1/2-x,-y,1/2+z
1/2+x,1/2-y,-z
1/2-x,y,1/2-z
1/2-x,1/2-y,-z
1/2+x,y,1/2-z
1/2-x,1/2+y,z
1/2+x,-y,1/2+z
loop_
_atom_site_type_symbol
_atom_site_label
_atom_site_fract_x
_atom_site_fract_y
_atom_site_fract_z
Si Si1 0.635793 0.424354 0.555799
Si Si2 0.794073 0.436490 0.079121
Si Si3 0.365346 0.177545 0.550694
Si Si4 0.365024 0.267296 0.789715
Si Si5 0.135780 0.386806 0.208848
Si Si6 0.216870 0.696629 0.416926
O O1 0.500000 0.441801 0.578965
O O2 0.725906 0.484679 0.574289
O O3 0.630353 0.413152 0.481520
O O4 0.677691 0.358018 0.589398
O O5 0.668201 0.394977 0.076619
O O6 0.864816 0.421028 0.142053
O O7 0.500000 0.193664 0.574929
O O8 0.274225 0.231073 0.578190
O O9 0.365514 0.179211 0.476077
O O10 0.500000 0.281085 0.759623
O O11 0.250000 0.294546 0.750000
O O12 0.346282 0.190345 0.800519
O O13 0.364913 0.304241 0.855611
O O14 0.250000 0.414172 0.250000
O O15 0.000000 0.401126 0.238237
#
# Coordination Sequence:
#
# PCOD8262571 Si02
#       6
#    16  16  16  16  16  16
#     4  10  20  34  58  85 113 149 187 232 287 347
#     4  10  19  36  55  83 113 147 189 234 284 338
#     4  10  20  33  55  83 113 148 185 233 285 340
#     4  10  21  37  57  83 113 152 193 237 290 339
#     4  10  20  35  56  81 110 145 189 237 280 330
#     4  10  20  36  53  84 113 145 185 233 284 344
#
# _framework density 19.963432999999998
#
# number of rings (size 3 to 8) (size 9 to 14) (size 15 to 20)
#    0.000    2.000    1.667    3.000    0.000    2.000 
#    0.000    8.333    0.000    2.000    0.000    0.000 
#    0.000    0.000    0.000    0.000    0.000    0.000 
#
# Total GULP energy -594863.438371 kJ/mol
# GULP energy per Si atom -12392.988299 kJ/mol
# Density = 1.991800 g / cm^3
# Si number density = 19.963433 Si / 1000 Ang^3
#
#
#
# Elastic Constant Matrix: (Units=GPa)
#
#
# Indices 1 2 3 4 5 6 
#
# 1 119.3500 29.2596 42.5589 0.0000 0.0000 0.0000
# 2 29.2596 81.1748 23.5510 0.0000 0.0000 0.0000
# 3 42.5589 23.5510 75.8382 0.0000 0.0000 0.0000
# 4 0.0000 0.0000 0.0000 23.0173 0.0000 0.0000
# 5 0.0000 0.0000 0.0000 0.0000 17.7037 0.0000
# 6 0.0000 0.0000 0.0000 0.0000 0.0000 17.3307
#
#
#
# Elastic Compliance Matrix: (Units=1/GPa)
#
#
# Indices 1 2 3 4 5 6 
#
# 1 0.010872 -0.002361 -0.005368 0.000000 0.000000 0.000000
# 2 -0.002361 0.014052 -0.003039 0.000000 0.000000 0.000000
# 3 -0.005368 -0.003039 0.017142 0.000000 0.000000 0.000000
# 4 0.000000 0.000000 0.000000 0.043446 0.000000 0.000000
# 5 0.000000 0.000000 0.000000 0.000000 0.056485 0.000000
# 6 0.000000 0.000000 0.000000 0.000000 0.000000 0.057701
#
#
# Mechanical properties :
#
#
# Convention : Reuss Voigt Hill
#
# Bulk Modulus (GPa) = 48.70892 51.90022 50.30457
# Shear Modulus (GPa) = 21.92250 23.67655 22.79953
#
# Velocity S-wave (km/s) = 3.31740 3.44757 3.38311
# Velocity P-wave (km/s) = 6.25505 6.47315 6.36503
#
# Compressibility (1/GPa) = 0.02053012
#
# Stress axis : x y z
#
# Youngs Moduli (GPa) = 91.98207 71.16514 58.33696
#
# Poissons Ratio (x) = 0.16805 0.31313
# Poissons Ratio (y) = 0.21721 0.17726
# Poissons Ratio (z) = 0.49373 0.21624
#
# Static dielectric constant tensor:
#      x y z
#    x 3.600500 0.000000 0.000000 
#    y 0.000000 3.486780 0.000000 
#    z 0.000000 0.000000 3.492780 
# 
# 
# High freq. dielectric constant tensor:
#      x y z
#    x 1.771810 0.000000 0.000000 
#    y 0.000000 1.759280 0.000000 
#    z 0.000000 0.000000 1.762540 
# 
# From -- ./inp_files/44337.got.cif
#   From: 2010.03.12/outbox.cif.g09.slc.cpg/sg64_23_cif.got.tgz:44337.got - 2010.04.10 20:19:32.
