data_PCOD8262832
_publ_section_title
;
Structure prediction by ZEFSAII (Michael W. Deem and Ramdas Pophale) SiO2 
 PCOD8262832
Probable space group: C M C A
;
_chemical_formula_sum "Si O2"
_cell_formula_units_Z 96
_cell_length_a 9.355414
_cell_length_b 32.520258
_cell_length_c 17.808762
_cell_angle_alpha 90.000000
_cell_angle_beta 90.000000
_cell_angle_gamma 90.000000
_cell_volume 5418.146245
_symmetry_space_group_name_H-M "C M C A"
_symmetry_group_IT_number 64
_symmetry_cell_setting 'orthorhombic'
loop_
_space_group_symop_operation_xyz
x,y,z
-x,1/2-y,1/2+z
x,-y,-z
-x,1/2+y,1/2-z
-x,-y,-z
x,1/2+y,1/2-z
-x,y,z
x,1/2-y,1/2+z
1/2+x,1/2+y,z
1/2-x,-y,1/2+z
1/2+x,1/2-y,-z
1/2-x,y,1/2-z
1/2-x,1/2-y,-z
1/2+x,y,1/2-z
1/2-x,1/2+y,z
1/2+x,-y,1/2+z
loop_
_atom_site_type_symbol
_atom_site_label
_atom_site_fract_x
_atom_site_fract_y
_atom_site_fract_z
Si Si1 0.333422 0.994402 0.584644
Si Si2 0.664770 0.873563 0.054458
Si Si3 0.168519 0.077457 0.827899
Si Si4 0.165139 0.084156 0.398557
Si Si5 0.332335 0.167841 0.176387
Si Si6 0.165864 0.710249 0.024548
O O1 0.500000 0.984413 0.583853
O O2 0.296634 0.034438 0.632451
O O3 0.275626 0.000000 0.500000
O O4 0.255628 0.955853 0.623188
O O5 0.500000 0.879251 0.079181
O O6 0.770423 0.885652 0.121507
O O7 0.698932 0.902174 0.983328
O O8 0.696110 0.826305 0.034106
O O9 0.250000 0.078271 0.750000
O O10 0.000000 0.084028 0.815978
O O11 0.208228 0.120746 0.342253
O O12 0.000000 0.072969 0.389426
O O13 0.500000 0.171990 0.190437
O O14 0.250000 0.182839 0.250000
O O15 0.284170 0.196682 0.107520
O O16 0.000000 0.721218 0.025604
O O17 0.250000 0.750000 0.000000
#
# Coordination Sequence:
#
# PCOD8262832 Si02
#       6
#    16  16  16  16  16  16
#     4  10  20  34  51  75 106 138 179 227 265 306
#     4   9  18  35  56  77 103 136 174 217 262 312
#     4  11  23  37  53  75 106 141 179 224 269 314
#     4   9  18  32  53  77 102 137 178 216 259 312
#     4   9  19  35  53  79 112 141 173 216 263 313
#     4   9  19  36  58  84 111 138 175 218 260 316
#
# _framework density 17.718236999999998
#
# number of rings (size 3 to 8) (size 9 to 14) (size 15 to 20)
#    0.000    2.500    1.667    2.500    0.000    4.333 
#    0.000    7.500    0.000    2.000    0.000    0.000 
#    0.000    0.000    0.000    0.000    0.000    0.000 
#
# Total GULP energy -595255.252141 kJ/mol
# GULP energy per Si atom -12401.151086 kJ/mol
# Density = 1.767791 g / cm^3
# Si number density = 17.718237 Si / 1000 Ang^3
#
#
#
# Elastic Constant Matrix: (Units=GPa)
#
#
# Indices 1 2 3 4 5 6 
#
# 1 74.3661 60.5256 61.0425 0.0000 0.0000 0.0000
# 2 60.5256 115.6277 53.8846 0.0000 0.0000 0.0000
# 3 61.0425 53.8846 119.8157 0.0000 0.0000 0.0000
# 4 0.0000 0.0000 0.0000 19.5167 0.0000 0.0000
# 5 0.0000 0.0000 0.0000 0.0000 29.7492 0.0000
# 6 0.0000 0.0000 0.0000 0.0000 0.0000 36.5233
#
#
#
# Elastic Compliance Matrix: (Units=1/GPa)
#
#
# Indices 1 2 3 4 5 6 
#
# 1 0.031950 -0.011562 -0.011078 0.000000 0.000000 0.000000
# 2 -0.011562 0.015126 -0.000912 0.000000 0.000000 0.000000
# 3 -0.011078 -0.000912 0.014400 0.000000 0.000000 0.000000
# 4 0.000000 0.000000 0.000000 0.051238 0.000000 0.000000
# 5 0.000000 0.000000 0.000000 0.000000 0.033614 0.000000
# 6 0.000000 0.000000 0.000000 0.000000 0.000000 0.027380
#
#
# Mechanical properties :
#
#
# Convention : Reuss Voigt Hill
#
# Bulk Modulus (GPa) = 69.57819 73.41278 71.49549
# Shear Modulus (GPa) = 22.16282 26.11494 24.13888
#
# Velocity S-wave (km/s) = 3.54057 3.84331 3.69504
# Velocity P-wave (km/s) = 7.48790 7.82420 7.65790
#
# Compressibility (1/GPa) = 0.01437232
#
# Stress axis : x y z
#
# Youngs Moduli (GPa) = 31.29856 66.11324 69.44348
#
# Poissons Ratio (x) = 0.76440 0.76930
# Poissons Ratio (y) = 0.36187 0.06333
# Poissons Ratio (z) = 0.34673 0.06029
#
# Static dielectric constant tensor:
#      x y z
#    x 3.174730 0.000000 0.000000 
#    y 0.000000 3.177380 0.000000 
#    z 0.000000 0.000000 3.234440 
# 
# 
# High freq. dielectric constant tensor:
#      x y z
#    x 1.683550 0.000000 0.000000 
#    y 0.000000 1.679740 0.000000 
#    z 0.000000 0.000000 1.679950 
# 
# From -- ./inp_files/37092.got.cif
#   From: 2010.03.12/outbox.cif.g09.slc.cpg/sg64_19_cif.got.tgz:37092.got - 2010.04.10 20:19:32.
