data_PCOD8262441
_publ_section_title
;
Structure prediction by ZEFSAII (Michael W. Deem and Ramdas Pophale) SiO2 
 PCOD8262441
Probable space group: C M C A
;
_chemical_formula_sum "Si O2"
_cell_formula_units_Z 56
_cell_length_a 22.186298
_cell_length_b 25.148752
_cell_length_c 5.079818
_cell_angle_alpha 90.000000
_cell_angle_beta 90.000000
_cell_angle_gamma 90.000000
_cell_volume 2834.323599
_symmetry_space_group_name_H-M "C M C A"
_symmetry_group_IT_number 64
_symmetry_cell_setting 'orthorhombic'
loop_
_space_group_symop_operation_xyz
x,y,z
-x,1/2-y,1/2+z
x,-y,-z
-x,1/2+y,1/2-z
-x,-y,-z
x,1/2+y,1/2-z
-x,y,z
x,1/2-y,1/2+z
1/2+x,1/2+y,z
1/2-x,-y,1/2+z
1/2+x,1/2-y,-z
1/2-x,y,1/2-z
1/2-x,1/2-y,-z
1/2+x,y,1/2-z
1/2-x,1/2+y,z
1/2+x,-y,1/2+z
loop_
_atom_site_type_symbol
_atom_site_label
_atom_site_fract_x
_atom_site_fract_y
_atom_site_fract_z
Si Si1 0.813840 0.397259 0.371200
Si Si2 0.000000 0.963049 0.747717
Si Si3 0.183237 0.725865 0.516658
Si Si4 0.128083 0.058870 0.381417
O O1 0.750000 0.415217 0.250000
O O2 0.813588 0.337120 0.469510
O O3 0.827888 0.432871 0.629933
O O4 0.860759 0.402297 0.129218
O O5 0.938869 0.928455 0.732778
O O6 0.000000 0.000000 0.500000
O O7 0.000000 0.000000 0.000000
O O8 0.148169 0.746341 0.258488
O O9 0.250000 0.750000 0.500000
O O10 0.136210 0.000000 0.500000
#
# Coordination Sequence:
#
# PCOD8262441 Si02
#       4
#    16   8  16  16
#     4  12  23  36  60  90 127 154 194 235 303 366
#     4  10  20  42  66  78 106 156 220 254 266 332
#     4  10  19  34  57  81 113 150 202 238 272 342
#     4  11  24  40  59  87 118 162 200 241 292 344
#
# _framework density 19.757801000000001
#
# number of rings (size 3 to 8) (size 9 to 14) (size 15 to 20)
#    0.000    1.143    2.857    6.857    4.000    2.286 
#    0.000    1.429    0.000    0.000    0.000   20.000 
#    0.000    0.000    0.000    0.000    0.000    0.000 
#
# Total GULP energy -346922.470993 kJ/mol
# GULP energy per Si atom -12390.088250 kJ/mol
# Density = 1.971283 g / cm^3
# Si number density = 19.757801 Si / 1000 Ang^3
#
#
#
# Elastic Constant Matrix: (Units=GPa)
#
#
# Indices 1 2 3 4 5 6 
#
# 1 84.3781 55.3503 49.4696 0.0000 0.0000 0.0000
# 2 55.3503 90.3004 51.8272 0.0000 0.0000 0.0000
# 3 49.4696 51.8272 200.9374 0.0000 0.0000 0.0000
# 4 0.0000 0.0000 0.0000 45.5886 0.0000 0.0000
# 5 0.0000 0.0000 0.0000 0.0000 31.4317 0.0000
# 6 0.0000 0.0000 0.0000 0.0000 0.0000 4.8993
#
#
#
# Elastic Compliance Matrix: (Units=1/GPa)
#
#
# Indices 1 2 3 4 5 6 
#
# 1 0.020568 -0.011386 -0.002127 0.000000 0.000000 0.000000
# 2 -0.011386 0.019302 -0.002175 0.000000 0.000000 0.000000
# 3 -0.002127 -0.002175 0.006061 0.000000 0.000000 0.000000
# 4 0.000000 0.000000 0.000000 0.021935 0.000000 0.000000
# 5 0.000000 0.000000 0.000000 0.000000 0.031815 0.000000
# 6 0.000000 0.000000 0.000000 0.000000 0.000000 0.204110
#
#
# Mechanical properties :
#
#
# Convention : Reuss Voigt Hill
#
# Bulk Modulus (GPa) = 68.70928 76.54557 72.62742
# Shear Modulus (GPa) = 14.70507 30.98184 22.84345
#
# Velocity S-wave (km/s) = 2.73108 3.96420 3.40394
# Velocity P-wave (km/s) = 6.69301 7.73170 7.23103
#
# Compressibility (1/GPa) = 0.01455407
#
# Stress axis : x y z
#
# Youngs Moduli (GPa) = 48.62027 51.80814 164.98057
#
# Poissons Ratio (x) = 0.58991 0.35087
# Poissons Ratio (y) = 0.55361 0.35887
# Poissons Ratio (z) = 0.10340 0.11270
#
# Static dielectric constant tensor:
#      x y z
#    x 9.485280 0.000000 0.000000 
#    y 0.000000 3.515010 0.000000 
#    z 0.000000 0.000000 2.738590 
# 
# 
# High freq. dielectric constant tensor:
#      x y z
#    x 1.725860 0.000000 0.000000 
#    y 0.000000 1.753040 0.000000 
#    z 0.000000 0.000000 1.818760 
# 
# From -- ./inp_files/1741.got.cif
#   From: 2010.03.12/outbox.cif.g09.slc.cpg/sg64_1_cif.got.tgz:1741.got - 2010.04.10 20:19:32.
