data_PCOD8262799
_publ_section_title
;
Structure prediction by ZEFSAII (Michael W. Deem and Ramdas Pophale) SiO2 
 PCOD8262799
Probable space group: C M C A
;
_chemical_formula_sum "Si O2"
_cell_formula_units_Z 80
_cell_length_a 9.269832
_cell_length_b 15.534794
_cell_length_c 28.416880
_cell_angle_alpha 90.000000
_cell_angle_beta 90.000000
_cell_angle_gamma 90.000000
_cell_volume 4092.170830
_symmetry_space_group_name_H-M "C M C A"
_symmetry_group_IT_number 64
_symmetry_cell_setting 'orthorhombic'
loop_
_space_group_symop_operation_xyz
x,y,z
-x,1/2-y,1/2+z
x,-y,-z
-x,1/2+y,1/2-z
-x,-y,-z
x,1/2+y,1/2-z
-x,y,z
x,1/2-y,1/2+z
1/2+x,1/2+y,z
1/2-x,-y,1/2+z
1/2+x,1/2-y,-z
1/2-x,y,1/2-z
1/2-x,1/2-y,-z
1/2+x,y,1/2-z
1/2-x,1/2+y,z
1/2+x,-y,1/2+z
loop_
_atom_site_type_symbol
_atom_site_label
_atom_site_fract_x
_atom_site_fract_y
_atom_site_fract_z
Si Si1 0.334197 0.971425 0.861320
Si Si2 0.164982 0.721027 0.545373
Si Si3 0.831466 0.473695 0.448856
Si Si4 0.165298 0.219871 0.353457
Si Si5 0.171476 0.633764 0.799399
O O1 0.500000 0.985418 0.874876
O O2 0.311429 0.878561 0.836217
O O3 0.245505 0.970041 0.909423
O O4 0.281972 0.047332 0.826872
O O5 0.250000 0.750000 0.500000
O O6 0.208166 0.625062 0.560510
O O7 0.197823 0.779803 0.590594
O O8 0.000000 0.724961 0.529894
O O9 0.772043 0.500000 0.500000
O O10 0.000000 0.493251 0.445119
O O11 0.275130 0.281572 0.326578
O O12 0.000000 0.250142 0.344160
O O13 0.250000 0.629740 0.750000
O O14 0.000000 0.639985 0.792482
#
# Coordination Sequence:
#
# PCOD8262799 Si02
#       5
#    16  16  16  16  16
#     4  10  22  39  61  89 120 155 199 247 298 356
#     4  10  20  33  53  82 118 160 199 244 295 349
#     4  10  20  34  54  84 121 160 202 246 296 353
#     4  10  21  40  62  87 121 158 199 249 299 353
#     4  11  24  42  64  90 118 154 198 248 303 360
#
# _framework density 19.549526
#
# number of rings (size 3 to 8) (size 9 to 14) (size 15 to 20)
#    0.000    1.800    2.000    1.800    0.000    4.400 
#    0.000    2.000    0.000    0.000    0.000    0.000 
#    0.000    0.000    0.000    0.000    0.000    0.000 
#
# Total GULP energy -496082.923005 kJ/mol
# GULP energy per Si atom -12402.073075 kJ/mol
# Density = 1.950503 g / cm^3
# Si number density = 19.549526 Si / 1000 Ang^3
#
#
#
# Elastic Constant Matrix: (Units=GPa)
#
#
# Indices 1 2 3 4 5 6 
#
# 1 70.4826 48.9862 50.3374 0.0000 0.0000 0.0000
# 2 48.9862 118.5320 53.9932 0.0000 0.0000 0.0000
# 3 50.3374 53.9932 101.9649 0.0000 0.0000 0.0000
# 4 0.0000 0.0000 0.0000 27.0671 0.0000 0.0000
# 5 0.0000 0.0000 0.0000 0.0000 39.3862 0.0000
# 6 0.0000 0.0000 0.0000 0.0000 0.0000 27.2987
#
#
#
# Elastic Compliance Matrix: (Units=1/GPa)
#
#
# Indices 1 2 3 4 5 6 
#
# 1 0.024945 -0.006194 -0.009035 0.000000 0.000000 0.000000
# 2 -0.006194 0.012656 -0.003644 0.000000 0.000000 0.000000
# 3 -0.009035 -0.003644 0.016197 0.000000 0.000000 0.000000
# 4 0.000000 0.000000 0.000000 0.036945 0.000000 0.000000
# 5 0.000000 0.000000 0.000000 0.000000 0.025390 0.000000
# 6 0.000000 0.000000 0.000000 0.000000 0.000000 0.036632
#
#
# Mechanical properties :
#
#
# Convention : Reuss Voigt Hill
#
# Bulk Modulus (GPa) = 62.29360 66.40146 64.34753
# Shear Modulus (GPa) = 25.52813 27.92790 26.72802
#
# Velocity S-wave (km/s) = 3.61753 3.78375 3.70157
# Velocity P-wave (km/s) = 7.02726 7.28893 7.15929
#
# Compressibility (1/GPa) = 0.01605301
#
# Stress axis : x y z
#
# Youngs Moduli (GPa) = 40.08776 79.01286 61.73831
#
# Poissons Ratio (x) = 0.48937 0.55782
# Poissons Ratio (y) = 0.24829 0.22498
# Poissons Ratio (z) = 0.36220 0.28794
#
# Static dielectric constant tensor:
#      x y z
#    x 3.495310 0.000000 0.000000 
#    y 0.000000 3.769010 0.000000 
#    z 0.000000 0.000000 3.424240 
# 
# 
# High freq. dielectric constant tensor:
#      x y z
#    x 1.755860 0.000000 0.000000 
#    y 0.000000 1.775380 0.000000 
#    z 0.000000 0.000000 1.756550 
# 
# From -- ./inp_files/47840.got.cif
#   From: 2010.03.12/outbox.cif.g09.slc.cpg/sg64_24_cif.got.tgz:47840.got - 2010.04.10 20:19:32.
