data_PCOD8262713
_publ_section_title
;
Structure prediction by ZEFSAII (Michael W. Deem and Ramdas Pophale) SiO2 
 PCOD8262713
Probable space group: C M C A
;
_chemical_formula_sum "Si O2"
_cell_formula_units_Z 80
_cell_length_a 23.766287
_cell_length_b 34.036644
_cell_length_c 5.149506
_cell_angle_alpha 90.000000
_cell_angle_beta 90.000000
_cell_angle_gamma 90.000000
_cell_volume 4165.562338
_symmetry_space_group_name_H-M "C M C A"
_symmetry_group_IT_number 64
_symmetry_cell_setting 'orthorhombic'
loop_
_space_group_symop_operation_xyz
x,y,z
-x,1/2-y,1/2+z
x,-y,-z
-x,1/2+y,1/2-z
-x,-y,-z
x,1/2+y,1/2-z
-x,y,z
x,1/2-y,1/2+z
1/2+x,1/2+y,z
1/2-x,-y,1/2+z
1/2+x,1/2-y,-z
1/2-x,y,1/2-z
1/2-x,1/2-y,-z
1/2+x,y,1/2-z
1/2-x,1/2+y,z
1/2+x,-y,1/2+z
loop_
_atom_site_type_symbol
_atom_site_label
_atom_site_fract_x
_atom_site_fract_y
_atom_site_fract_z
Si Si1 0.566148 0.860660 0.068710
Si Si2 0.563363 0.018062 0.251168
Si Si3 0.212971 0.545200 0.499279
Si Si4 0.396384 0.903318 0.585114
Si Si5 0.433166 0.772138 0.157488
O O1 0.500000 0.861963 0.997290
O O2 0.577800 0.888969 0.313429
O O3 0.585915 0.817301 0.150934
O O4 0.603376 0.870162 0.810436
O O5 0.500000 0.001597 0.242023
O O6 0.563651 0.064792 0.271821
O O7 0.595051 0.000000 0.500000
O O8 0.595555 0.000000 0.000000
O O9 0.191496 0.500000 0.500000
O O10 0.250000 0.555096 0.750000
O O11 0.162816 0.576615 0.478871
O O12 0.250000 0.553031 0.250000
O O13 0.500000 0.769361 0.157115
O O14 0.408151 0.751639 0.413386
#
# Coordination Sequence:
#
# PCOD8262713 Si02
#       5
#    16  16  16  16  16
#     4  11  22  34  52  82 117 148 176 211 260 319
#     4  10  20  32  46  67  99 140 177 203 239 303
#     4  10  22  40  59  77  99 134 184 237 282 321
#     4  12  22  35  54  77 108 139 176 224 278 318
#     4   9  17  31  50  72 105 148 183 208 241 297
#
# _framework density 19.205092
#
# number of rings (size 3 to 8) (size 9 to 14) (size 15 to 20)
#    0.000    1.600    0.000    6.000    0.000    7.200 
#    0.000    0.000    0.000    0.000    0.000    0.000 
#    0.000   56.000    0.000    0.000    0.000    0.000 
#
# Total GULP energy -495746.862470 kJ/mol
# GULP energy per Si atom -12393.671562 kJ/mol
# Density = 1.916138 g / cm^3
# Si number density = 19.205092 Si / 1000 Ang^3
#
#
#
# Elastic Constant Matrix: (Units=GPa)
#
#
# Indices 1 2 3 4 5 6 
#
# 1 64.5167 33.0951 34.2932 0.0000 0.0000 0.0000
# 2 33.0951 98.9672 39.4714 0.0000 0.0000 0.0000
# 3 34.2932 39.4714 160.2837 0.0000 0.0000 0.0000
# 4 0.0000 0.0000 0.0000 43.5508 0.0000 0.0000
# 5 0.0000 0.0000 0.0000 0.0000 26.1200 0.0000
# 6 0.0000 0.0000 0.0000 0.0000 0.0000 10.0231
#
#
#
# Elastic Compliance Matrix: (Units=1/GPa)
#
#
# Indices 1 2 3 4 5 6 
#
# 1 0.019853 -0.005483 -0.002897 0.000000 0.000000 0.000000
# 2 -0.005483 0.012719 -0.001959 0.000000 0.000000 0.000000
# 3 -0.002897 -0.001959 0.007341 0.000000 0.000000 0.000000
# 4 0.000000 0.000000 0.000000 0.022962 0.000000 0.000000
# 5 0.000000 0.000000 0.000000 0.000000 0.038285 0.000000
# 6 0.000000 0.000000 0.000000 0.000000 0.000000 0.099769
#
#
# Mechanical properties :
#
#
# Convention : Reuss Voigt Hill
#
# Bulk Modulus (GPa) = 51.99127 59.72078 55.85603
# Shear Modulus (GPa) = 21.92796 30.39932 26.16364
#
# Velocity S-wave (km/s) = 3.38269 3.98286 3.69498
# Velocity P-wave (km/s) = 6.51054 7.23289 6.88120
#
# Compressibility (1/GPa) = 0.01923400
#
# Stress axis : x y z
#
# Youngs Moduli (GPa) = 50.37123 78.62033 136.21658
#
# Poissons Ratio (x) = 0.43110 0.39465
# Poissons Ratio (y) = 0.27620 0.26686
# Poissons Ratio (z) = 0.14594 0.15402
#
# Static dielectric constant tensor:
#      x y z
#    x 3.029480 0.000000 0.000000 
#    y 0.000000 3.596480 0.000000 
#    z 0.000000 0.000000 3.308310 
# 
# 
# High freq. dielectric constant tensor:
#      x y z
#    x 1.697200 0.000000 0.000000 
#    y 0.000000 1.742850 0.000000 
#    z 0.000000 0.000000 1.779080 
# 
# From -- ./inp_files/2958.got.cif
#   From: 2010.03.12/outbox.cif.g09.slc.cpg/sg64_2_cif.got.tgz:2958.got - 2010.04.10 20:19:32.
