data_PCOD8262485
_publ_section_title
;
Structure prediction by ZEFSAII (Michael W. Deem and Ramdas Pophale) SiO2 
 PCOD8262485
Probable space group: C M C A
;
_chemical_formula_sum "Si O2"
_cell_formula_units_Z 96
_cell_length_a 16.326795
_cell_length_b 17.651593
_cell_length_c 16.789103
_cell_angle_alpha 90.000000
_cell_angle_beta 90.000000
_cell_angle_gamma 90.000000
_cell_volume 4838.517748
_symmetry_space_group_name_H-M "C M C A"
_symmetry_group_IT_number 64
_symmetry_cell_setting 'orthorhombic'
loop_
_space_group_symop_operation_xyz
x,y,z
-x,1/2-y,1/2+z
x,-y,-z
-x,1/2+y,1/2-z
-x,-y,-z
x,1/2+y,1/2-z
-x,y,z
x,1/2-y,1/2+z
1/2+x,1/2+y,z
1/2-x,-y,1/2+z
1/2+x,1/2-y,-z
1/2-x,y,1/2-z
1/2-x,1/2-y,-z
1/2+x,y,1/2-z
1/2-x,1/2+y,z
1/2+x,-y,1/2+z
loop_
_atom_site_type_symbol
_atom_site_label
_atom_site_fract_x
_atom_site_fract_y
_atom_site_fract_z
Si Si1 0.904293 0.180916 0.357533
Si Si2 0.155294 0.843777 0.165536
Si Si3 0.339533 0.099653 0.829767
Si Si4 0.596198 0.543476 0.250855
Si Si5 0.404469 0.416228 0.495647
Si Si6 0.406611 0.017885 0.585212
O O1 0.848936 0.255703 0.354702
O O2 0.889308 0.129873 0.278670
O O3 0.869994 0.136461 0.434321
O O4 0.000000 0.202885 0.365102
O O5 0.245255 0.879168 0.158837
O O6 0.122292 0.853195 0.256068
O O7 0.100453 0.892701 0.104663
O O8 0.352478 0.010669 0.810215
O O9 0.386137 0.121921 0.910581
O O10 0.500000 0.521925 0.258664
O O11 0.628497 0.531499 0.159945
O O12 0.363808 0.500000 0.500000
O O13 0.500000 0.424264 0.510749
O O14 0.500000 0.993774 0.575727
O O15 0.362192 0.000000 0.500000
#
# Coordination Sequence:
#
# PCOD8262485 Si02
#       6
#    16  16  16  16  16  16
#     4  10  20  36  58  86 116 143 184 241 291 329
#     4  10  22  37  53  81 119 155 184 223 286 340
#     4  10  20  37  57  80 113 149 190 223 272 344
#     4   9  17  34  62  86 106 144 193 239 281 324
#     4  10  19  34  61  90 110 138 189 243 283 326
#     4   9  18  35  57  80 111 151 197 233 270 340
#
# _framework density 19.840786999999999
#
# number of rings (size 3 to 8) (size 9 to 14) (size 15 to 20)
#    0.000    2.333    1.667    1.000    0.000    3.333 
#    3.000    6.667    0.000    0.000    0.000    0.000 
#    0.000    0.000    0.000    0.000    0.000    0.000 
#
# Total GULP energy -594932.039117 kJ/mol
# GULP energy per Si atom -12394.417482 kJ/mol
# Density = 1.979563 g / cm^3
# Si number density = 19.840787 Si / 1000 Ang^3
#
#
#
# Elastic Constant Matrix: (Units=GPa)
#
#
# Indices 1 2 3 4 5 6 
#
# 1 33.2064 26.0196 13.3464 0.0000 0.0000 0.0000
# 2 26.0196 130.8583 65.4188 0.0000 0.0000 0.0000
# 3 13.3464 65.4188 164.0994 0.0000 0.0000 0.0000
# 4 0.0000 0.0000 0.0000 26.3565 0.0000 0.0000
# 5 0.0000 0.0000 0.0000 0.0000 19.2885 0.0000
# 6 0.0000 0.0000 0.0000 0.0000 0.0000 26.2221
#
#
#
# Elastic Compliance Matrix: (Units=1/GPa)
#
#
# Indices 1 2 3 4 5 6 
#
# 1 0.035674 -0.007047 -0.000092 0.000000 0.000000 0.000000
# 2 -0.007047 0.010936 -0.003787 0.000000 0.000000 0.000000
# 3 -0.000092 -0.003787 0.007611 0.000000 0.000000 0.000000
# 4 0.000000 0.000000 0.000000 0.037941 0.000000 0.000000
# 5 0.000000 0.000000 0.000000 0.000000 0.051844 0.000000
# 6 0.000000 0.000000 0.000000 0.000000 0.000000 0.038136
#
#
# Mechanical properties :
#
#
# Convention : Reuss Voigt Hill
#
# Bulk Modulus (GPa) = 30.89370 59.74818 45.32094
# Shear Modulus (GPa) = 23.27926 29.26537 26.27232
#
# Velocity S-wave (km/s) = 3.42907 3.84475 3.64284
# Velocity P-wave (km/s) = 5.59309 7.06319 6.37069
#
# Compressibility (1/GPa) = 0.03236906
#
# Stress axis : x y z
#
# Youngs Moduli (GPa) = 28.03186 91.44026 131.39102
#
# Poissons Ratio (x) = 0.64441 0.01208
# Poissons Ratio (y) = 0.19755 0.49752
# Poissons Ratio (z) = 0.00258 0.34624
#
# Static dielectric constant tensor:
#      x y z
#    x 3.276800 0.000000 0.000000 
#    y 0.000000 3.446310 0.000000 
#    z 0.000000 0.000000 4.074500 
# 
# 
# High freq. dielectric constant tensor:
#      x y z
#    x 1.746300 0.000000 0.000000 
#    y 0.000000 1.753160 0.000000 
#    z 0.000000 0.000000 1.788760 
# 
# From -- ./inp_files/33296.got.cif
#   From: 2010.03.12/outbox.cif.g09.slc.cpg/sg64_17_cif.got.tgz:33296.got - 2010.04.10 20:19:32.
