data_PCOD8262611
_publ_section_title
;
Structure prediction by ZEFSAII (Michael W. Deem and Ramdas Pophale) SiO2 
 PCOD8262611
Probable space group: C M C A
;
_chemical_formula_sum "Si O2"
_cell_formula_units_Z 96
_cell_length_a 8.743898
_cell_length_b 19.794878
_cell_length_c 28.013564
_cell_angle_alpha 90.000000
_cell_angle_beta 90.000000
_cell_angle_gamma 90.000000
_cell_volume 4848.710753
_symmetry_space_group_name_H-M "C M C A"
_symmetry_group_IT_number 64
_symmetry_cell_setting 'orthorhombic'
loop_
_space_group_symop_operation_xyz
x,y,z
-x,1/2-y,1/2+z
x,-y,-z
-x,1/2+y,1/2-z
-x,-y,-z
x,1/2+y,1/2-z
-x,y,z
x,1/2-y,1/2+z
1/2+x,1/2+y,z
1/2-x,-y,1/2+z
1/2+x,1/2-y,-z
1/2-x,y,1/2-z
1/2-x,1/2-y,-z
1/2+x,y,1/2-z
1/2-x,1/2+y,z
1/2+x,-y,1/2+z
loop_
_atom_site_type_symbol
_atom_site_label
_atom_site_fract_x
_atom_site_fract_y
_atom_site_fract_z
Si Si1 0.179938 0.267133 0.949096
Si Si2 0.181082 0.076730 0.299396
Si Si3 0.677194 0.352501 0.394863
Si Si4 0.175764 0.489861 0.054541
Si Si5 0.179326 0.389558 0.604938
Si Si6 0.680028 0.578124 0.701375
O O1 0.221733 0.210785 0.910127
O O2 0.243441 0.338641 0.932014
O O3 0.000000 0.272666 0.954964
O O4 0.250000 0.250000 0.000000
O O5 0.250000 0.104929 0.250000
O O6 0.251769 0.120776 0.342215
O O7 0.000000 0.085073 0.299187
O O8 0.233436 0.999007 0.306462
O O9 0.500000 0.330701 0.393198
O O10 0.702323 0.411865 0.433056
O O11 0.735632 0.376795 0.343003
O O12 0.284618 0.534944 0.087314
O O13 0.000000 0.510652 0.064851
O O14 0.221515 0.500000 0.000000
O O15 0.000000 0.376479 0.606551
O O16 0.500000 0.580395 0.705630
O O17 0.750000 0.608220 0.750000
#
# Coordination Sequence:
#
# PCOD8262611 Si02
#       6
#    16  16  16  16  16  16
#     4  12  26  44  64  87 119 161 204 251 305 367
#     4  10  19  36  60  91 125 161 200 246 305 359
#     4  10  20  38  60  88 122 158 199 247 303 361
#     4  10  20  36  60  87 118 156 197 249 307 359
#     4  12  24  39  61  90 122 160 205 252 300 359
#     4   9  18  33  57  87 122 158 194 240 296 355
#
# _framework density 19.799077
#
# number of rings (size 3 to 8) (size 9 to 14) (size 15 to 20)
#    0.000    1.500    1.667    4.500    0.000    3.667 
#    0.000    0.833    0.000    2.000    0.000    0.000 
#    0.000    0.000    0.000    0.000    0.000    0.000 
#
# Total GULP energy -595451.326227 kJ/mol
# GULP energy per Si atom -12405.235963 kJ/mol
# Density = 1.975401 g / cm^3
# Si number density = 19.799077 Si / 1000 Ang^3
#
#
#
# Elastic Constant Matrix: (Units=GPa)
#
#
# Indices 1 2 3 4 5 6 
#
# 1 106.1336 20.1954 38.9936 0.0000 0.0000 0.0000
# 2 20.1954 42.8919 12.0684 0.0000 0.0000 0.0000
# 3 38.9936 12.0684 122.2600 0.0000 0.0000 0.0000
# 4 0.0000 0.0000 0.0000 30.1522 0.0000 0.0000
# 5 0.0000 0.0000 0.0000 0.0000 37.9953 0.0000
# 6 0.0000 0.0000 0.0000 0.0000 0.0000 28.9328
#
#
#
# Elastic Compliance Matrix: (Units=1/GPa)
#
#
# Indices 1 2 3 4 5 6 
#
# 1 0.011456 -0.004491 -0.003211 0.000000 0.000000 0.000000
# 2 -0.004491 0.025741 -0.001109 0.000000 0.000000 0.000000
# 3 -0.003211 -0.001109 0.009313 0.000000 0.000000 0.000000
# 4 0.000000 0.000000 0.000000 0.033165 0.000000 0.000000
# 5 0.000000 0.000000 0.000000 0.000000 0.026319 0.000000
# 6 0.000000 0.000000 0.000000 0.000000 0.000000 0.034563
#
#
# Mechanical properties :
#
#
# Convention : Reuss Voigt Hill
#
# Bulk Modulus (GPa) = 34.61421 45.97780 40.29600
# Shear Modulus (GPa) = 29.79624 32.75125 31.27374
#
# Velocity S-wave (km/s) = 3.88355 4.07157 3.97867
# Velocity P-wave (km/s) = 6.13433 6.73619 6.44229
#
# Compressibility (1/GPa) = 0.02888987
#
# Stress axis : x y z
#
# Youngs Moduli (GPa) = 87.28937 38.84883 107.38032
#
# Poissons Ratio (x) = 0.17446 0.34475
# Poissons Ratio (y) = 0.39199 0.11905
# Poissons Ratio (z) = 0.28025 0.04307
#
# Static dielectric constant tensor:
#      x y z
#    x 3.511620 0.000000 0.000000 
#    y 0.000000 3.451610 0.000000 
#    z 0.000000 0.000000 3.919760 
# 
# 
# High freq. dielectric constant tensor:
#      x y z
#    x 1.768520 0.000000 0.000000 
#    y 0.000000 1.751750 0.000000 
#    z 0.000000 0.000000 1.791340 
# 
# From -- ./inp_files/48053.got.cif
#   From: 2010.03.12/outbox.cif.g09.slc.cpg/sg64_25_cif.got.tgz:48053.got - 2010.04.10 20:19:32.
