data_PCOD8262377
_publ_section_title
;
Structure prediction by ZEFSAII (Michael W. Deem and Ramdas Pophale) SiO2 
 PCOD8262377
Probable space group: C M C A
;
_chemical_formula_sum "Si O2"
_cell_formula_units_Z 72
_cell_length_a 13.129150
_cell_length_b 27.127427
_cell_length_c 10.940932
_cell_angle_alpha 90.000000
_cell_angle_beta 90.000000
_cell_angle_gamma 90.000000
_cell_volume 3896.722978
_symmetry_space_group_name_H-M "C M C A"
_symmetry_group_IT_number 64
_symmetry_cell_setting 'orthorhombic'
loop_
_space_group_symop_operation_xyz
x,y,z
-x,1/2-y,1/2+z
x,-y,-z
-x,1/2+y,1/2-z
-x,-y,-z
x,1/2+y,1/2-z
-x,y,z
x,1/2-y,1/2+z
1/2+x,1/2+y,z
1/2-x,-y,1/2+z
1/2+x,1/2-y,-z
1/2-x,y,1/2-z
1/2-x,1/2-y,-z
1/2+x,y,1/2-z
1/2-x,1/2+y,z
1/2+x,-y,1/2+z
loop_
_atom_site_type_symbol
_atom_site_label
_atom_site_fract_x
_atom_site_fract_y
_atom_site_fract_z
Si Si1 0.750000 0.404768 0.250000
Si Si2 0.384179 0.555118 0.544685
Si Si3 0.784377 0.635468 0.118104
Si Si4 0.810706 0.243338 0.375040
Si Si5 0.886224 0.343241 0.423343
O O1 0.693044 0.439996 0.343961
O O2 0.836061 0.370982 0.309728
O O3 0.370399 0.500000 0.500000
O O4 0.500000 0.565243 0.585673
O O5 0.355644 0.594053 0.439660
O O6 0.750000 0.616114 0.250000
O O7 0.849642 0.686584 0.129212
O O8 0.681602 0.646604 0.042602
O O9 0.750000 0.254168 0.250000
O O10 0.750000 0.250000 0.500000
O O11 0.896872 0.285381 0.385947
O O12 0.000000 0.363339 0.447861
#
# Coordination Sequence:
#
# PCOD8262377 Si02
#       5
#     8  16  16  16  16
#     4  10  20  38  58  78 116 142 178 234 284 318
#     4  10  22  38  59  83 106 142 191 231 278 337
#     4   9  20  36  57  79 118 148 177 232 282 324
#     4   9  17  33  52  77 114 148 182 223 273 327
#     4  10  19  33  57  85 111 149 188 221 268 337
#
# _framework density 18.477065
#
# number of rings (size 3 to 8) (size 9 to 14) (size 15 to 20)
#    0.000    2.444    1.111    0.667    1.556    1.778 
#    0.000    8.889    0.000    3.333    0.000    0.000 
#    0.000    0.000    0.000    0.000    0.000    0.000 
#
# Total GULP energy -446077.494366 kJ/mol
# GULP energy per Si atom -12391.041510 kJ/mol
# Density = 1.843501 g / cm^3
# Si number density = 18.477065 Si / 1000 Ang^3
#
#
#
# Elastic Constant Matrix: (Units=GPa)
#
#
# Indices 1 2 3 4 5 6 
#
# 1 101.9826 53.5258 25.4696 0.0000 0.0000 0.0000
# 2 53.5258 108.4239 30.1556 0.0000 0.0000 0.0000
# 3 25.4696 30.1556 105.7268 0.0000 0.0000 0.0000
# 4 0.0000 0.0000 0.0000 12.1897 0.0000 0.0000
# 5 0.0000 0.0000 0.0000 0.0000 13.9511 0.0000
# 6 0.0000 0.0000 0.0000 0.0000 0.0000 15.5418
#
#
#
# Elastic Compliance Matrix: (Units=1/GPa)
#
#
# Indices 1 2 3 4 5 6 
#
# 1 0.013439 -0.006228 -0.001461 0.000000 0.000000 0.000000
# 2 -0.006228 0.012904 -0.002180 0.000000 0.000000 0.000000
# 3 -0.001461 -0.002180 0.010432 0.000000 0.000000 0.000000
# 4 0.000000 0.000000 0.000000 0.082036 0.000000 0.000000
# 5 0.000000 0.000000 0.000000 0.000000 0.071679 0.000000
# 6 0.000000 0.000000 0.000000 0.000000 0.000000 0.064342
#
#
# Mechanical properties :
#
#
# Convention : Reuss Voigt Hill
#
# Bulk Modulus (GPa) = 58.69711 59.38171 59.03941
# Shear Modulus (GPa) = 17.84112 22.13535 19.98824
#
# Velocity S-wave (km/s) = 3.11075 3.46496 3.29262
# Velocity P-wave (km/s) = 6.68871 6.94375 6.81743
#
# Compressibility (1/GPa) = 0.01703661
#
# Stress axis : x y z
#
# Youngs Moduli (GPa) = 74.40792 77.49452 95.85754
#
# Poissons Ratio (x) = 0.48266 0.14006
# Poissons Ratio (y) = 0.46343 0.20898
# Poissons Ratio (z) = 0.10872 0.16895
#
# Static dielectric constant tensor:
#      x y z
#    x 3.152760 0.000000 0.000000 
#    y 0.000000 3.576630 0.000000 
#    z 0.000000 0.000000 3.515570 
# 
# 
# High freq. dielectric constant tensor:
#      x y z
#    x 1.691870 0.000000 0.000000 
#    y 0.000000 1.723500 0.000000 
#    z 0.000000 0.000000 1.729450 
# 
# From -- ./inp_files/13073.got.cif
#   From: 2010.03.12/outbox.cif.g09.slc.cpg/sg64_7_cif.got.tgz:13073.got - 2010.04.10 20:19:32.
