data_PCOD8262803
_publ_section_title
;
Structure prediction by ZEFSAII (Michael W. Deem and Ramdas Pophale) SiO2 
 PCOD8262803
Probable space group: C M C A
;
_chemical_formula_sum "Si O2"
_cell_formula_units_Z 80
_cell_length_a 17.255622
_cell_length_b 24.511066
_cell_length_c 9.203121
_cell_angle_alpha 90.000000
_cell_angle_beta 90.000000
_cell_angle_gamma 90.000000
_cell_volume 3892.493984
_symmetry_space_group_name_H-M "C M C A"
_symmetry_group_IT_number 64
_symmetry_cell_setting 'orthorhombic'
loop_
_space_group_symop_operation_xyz
x,y,z
-x,1/2-y,1/2+z
x,-y,-z
-x,1/2+y,1/2-z
-x,-y,-z
x,1/2+y,1/2-z
-x,y,z
x,1/2-y,1/2+z
1/2+x,1/2+y,z
1/2-x,-y,1/2+z
1/2+x,1/2-y,-z
1/2-x,y,1/2-z
1/2-x,1/2-y,-z
1/2+x,y,1/2-z
1/2-x,1/2+y,z
1/2+x,-y,1/2+z
loop_
_atom_site_type_symbol
_atom_site_label
_atom_site_fract_x
_atom_site_fract_y
_atom_site_fract_z
Si Si1 0.415410 0.077771 0.747549
Si Si2 0.675895 0.478611 0.663159
Si Si3 0.409936 0.806503 0.314914
Si Si4 0.086137 0.622028 0.070117
Si Si5 0.162955 0.271424 0.021408
O O1 0.500000 0.058126 0.693826
O O2 0.386139 0.130165 0.655229
O O3 0.357667 0.027265 0.737124
O O4 0.421985 0.099068 0.910203
O O5 0.693372 0.500000 0.500000
O O6 0.750000 0.458086 0.750000
O O7 0.618351 0.427194 0.667907
O O8 0.500000 0.803487 0.267009
O O9 0.395231 0.775070 0.464140
O O10 0.355438 0.780491 0.190517
O O11 0.145029 0.673434 0.070652
O O12 0.000000 0.639142 0.126634
O O13 0.250000 0.250000 0.000000
#
# Coordination Sequence:
#
# PCOD8262803 Si02
#       5
#    16  16  16  16  16
#     4   8  16  32  55  78  99 133 182 226 261 310
#     4  10  20  33  54  81 108 137 173 222 274 319
#     4  10  20  36  56  78 108 146 186 224 270 333
#     4   9  18  35  56  76 103 143 188 221 255 321
#     4  11  22  35  54  82 112 142 179 228 278 321
#
# _framework density 20.552375999999999
#
# number of rings (size 3 to 8) (size 9 to 14) (size 15 to 20)
#    0.000    2.400    0.000    4.200    0.000    8.800 
#    0.000    0.000    0.000    4.800    0.000    0.000 
#    0.000    0.000    0.000    0.000    0.000    0.000 
#
# Total GULP energy -495765.969721 kJ/mol
# GULP energy per Si atom -12394.149243 kJ/mol
# Density = 2.050560 g / cm^3
# Si number density = 20.552376 Si / 1000 Ang^3
#
#
#
# Elastic Constant Matrix: (Units=GPa)
#
#
# Indices 1 2 3 4 5 6 
#
# 1 121.4568 52.7739 15.3712 0.0000 0.0000 0.0000
# 2 52.7739 131.8704 16.6795 0.0000 0.0000 0.0000
# 3 15.3712 16.6795 19.9284 0.0000 0.0000 0.0000
# 4 0.0000 0.0000 0.0000 24.9639 0.0000 0.0000
# 5 0.0000 0.0000 0.0000 0.0000 24.7869 0.0000
# 6 0.0000 0.0000 0.0000 0.0000 0.0000 30.2814
#
#
#
# Elastic Compliance Matrix: (Units=1/GPa)
#
#
# Indices 1 2 3 4 5 6 
#
# 1 0.010407 -0.003522 -0.005079 0.000000 0.000000 0.000000
# 2 -0.003522 0.009673 -0.005379 0.000000 0.000000 0.000000
# 3 -0.005079 -0.005379 0.058599 0.000000 0.000000 0.000000
# 4 0.000000 0.000000 0.000000 0.040058 0.000000 0.000000
# 5 0.000000 0.000000 0.000000 0.000000 0.040344 0.000000
# 6 0.000000 0.000000 0.000000 0.000000 0.000000 0.033024
#
#
# Mechanical properties :
#
#
# Convention : Reuss Voigt Hill
#
# Bulk Modulus (GPa) = 19.71678 49.21165 34.46422
# Shear Modulus (GPa) = 21.09960 28.56851 24.83405
#
# Velocity S-wave (km/s) = 3.20758 3.73236 3.47988
# Velocity P-wave (km/s) = 4.83035 6.52461 5.74033
#
# Compressibility (1/GPa) = 0.05071822
#
# Stress axis : x y z
#
# Youngs Moduli (GPa) = 96.09298 103.37829 17.06504
#
# Poissons Ratio (x) = 0.36413 0.08667
# Poissons Ratio (y) = 0.33847 0.09180
# Poissons Ratio (z) = 0.48804 0.55611
#
# Static dielectric constant tensor:
#      x y z
#    x 3.854410 0.000000 0.000000 
#    y 0.000000 4.197280 0.000000 
#    z 0.000000 0.000000 3.314280 
# 
# 
# High freq. dielectric constant tensor:
#      x y z
#    x 1.805670 0.000000 0.000000 
#    y 0.000000 1.817850 0.000000 
#    z 0.000000 0.000000 1.758160 
# 
# From -- ./inp_files/14411.got.cif
#   From: 2010.03.12/outbox.cif.g09.slc.cpg/sg64_8_cif.got.tgz:14411.got - 2010.04.10 20:19:32.
