data_PCOD8262553
_publ_section_title
;
Structure prediction by ZEFSAII (Michael W. Deem and Ramdas Pophale) SiO2 
 PCOD8262553
Probable space group: C M C A
;
_chemical_formula_sum "Si O2"
_cell_formula_units_Z 80
_cell_length_a 25.207518
_cell_length_b 17.093622
_cell_length_c 9.393902
_cell_angle_alpha 90.000000
_cell_angle_beta 90.000000
_cell_angle_gamma 90.000000
_cell_volume 4047.717618
_symmetry_space_group_name_H-M "C M C A"
_symmetry_group_IT_number 64
_symmetry_cell_setting 'orthorhombic'
loop_
_space_group_symop_operation_xyz
x,y,z
-x,1/2-y,1/2+z
x,-y,-z
-x,1/2+y,1/2-z
-x,-y,-z
x,1/2+y,1/2-z
-x,y,z
x,1/2-y,1/2+z
1/2+x,1/2+y,z
1/2-x,-y,1/2+z
1/2+x,1/2-y,-z
1/2-x,y,1/2-z
1/2-x,1/2-y,-z
1/2+x,y,1/2-z
1/2-x,1/2+y,z
1/2+x,-y,1/2+z
loop_
_atom_site_type_symbol
_atom_site_label
_atom_site_fract_x
_atom_site_fract_y
_atom_site_fract_z
Si Si1 0.060107 0.080413 0.193577
Si Si2 0.312237 0.318419 0.234655
Si Si3 0.135339 0.699794 0.446343
Si Si4 0.056747 0.672267 0.020649
Si Si5 0.618071 0.049156 0.862031
O O1 0.099218 0.124042 0.084351
O O2 0.052551 0.137234 0.324388
O O3 0.000000 0.061835 0.133501
O O4 0.092313 0.002821 0.237720
O O5 0.250000 0.313825 0.250000
O O6 0.337831 0.240786 0.308612
O O7 0.333095 0.398945 0.305226
O O8 0.321490 0.322236 0.065068
O O9 0.098585 0.759934 0.528721
O O10 0.000000 0.707129 0.973678
O O11 0.070613 0.605602 0.907744
O O12 0.638281 0.000000 0.000000
#
# Coordination Sequence:
#
# PCOD8262553 Si02
#       5
#    16  16  16  16  16
#     4  10  19  35  60  92 125 157 191 236 300 365
#     4  11  24  43  63  85 115 160 207 255 302 341
#     4  11  21  39  61  91 122 150 203 253 295 358
#     4   9  17  33  59  88 121 162 194 232 297 366
#     4   9  20  39  60  85 124 159 203 244 291 369
#
# _framework density 19.764226000000001
#
# number of rings (size 3 to 8) (size 9 to 14) (size 15 to 20)
#    0.000    2.000    2.000    1.800    0.000    3.200 
#    3.600    4.000    0.000    0.000    0.000    0.000 
#    0.000    0.000    0.000    0.000    0.000    0.000 
#
# Total GULP energy -495731.627489 kJ/mol
# GULP energy per Si atom -12393.290687 kJ/mol
# Density = 1.971924 g / cm^3
# Si number density = 19.764226 Si / 1000 Ang^3
#
#
#
# Elastic Constant Matrix: (Units=GPa)
#
#
# Indices 1 2 3 4 5 6 
#
# 1 121.1488 27.7593 41.1547 0.0000 0.0000 0.0000
# 2 27.7593 70.8841 33.6286 0.0000 0.0000 0.0000
# 3 41.1547 33.6286 78.8183 0.0000 0.0000 0.0000
# 4 0.0000 0.0000 0.0000 25.9616 0.0000 0.0000
# 5 0.0000 0.0000 0.0000 0.0000 41.7201 0.0000
# 6 0.0000 0.0000 0.0000 0.0000 0.0000 10.3521
#
#
#
# Elastic Compliance Matrix: (Units=1/GPa)
#
#
# Indices 1 2 3 4 5 6 
#
# 1 0.010223 -0.001844 -0.004551 0.000000 0.000000 0.000000
# 2 -0.001844 0.018021 -0.006726 0.000000 0.000000 0.000000
# 3 -0.004551 -0.006726 0.017933 0.000000 0.000000 0.000000
# 4 0.000000 0.000000 0.000000 0.038518 0.000000 0.000000
# 5 0.000000 0.000000 0.000000 0.000000 0.023969 0.000000
# 6 0.000000 0.000000 0.000000 0.000000 0.000000 0.096599
#
#
# Mechanical properties :
#
#
# Convention : Reuss Voigt Hill
#
# Bulk Modulus (GPa) = 50.16350 52.88182 51.52266
# Shear Modulus (GPa) = 20.99519 26.82734 23.91127
#
# Velocity S-wave (km/s) = 3.26280 3.68825 3.48203
# Velocity P-wave (km/s) = 6.29528 6.70462 6.50317
#
# Compressibility (1/GPa) = 0.01993481
#
# Stress axis : x y z
#
# Youngs Moduli (GPa) = 97.81960 55.49219 55.76249
#
# Poissons Ratio (x) = 0.10235 0.25377
# Poissons Ratio (y) = 0.18042 0.37504
# Poissons Ratio (z) = 0.44517 0.37322
#
# Static dielectric constant tensor:
#      x y z
#    x 3.509920 0.000000 0.000000 
#    y 0.000000 3.856820 0.000000 
#    z 0.000000 0.000000 3.883080 
# 
# 
# High freq. dielectric constant tensor:
#      x y z
#    x 1.766530 0.000000 0.000000 
#    y 0.000000 1.769780 0.000000 
#    z 0.000000 0.000000 1.766830 
# 
# From -- ./inp_files/10172.got.cif
#   From: 2010.03.12/outbox.cif.g09.slc.cpg/sg64_6_cif.got.tgz:10172.got - 2010.04.10 20:19:32.
