data_PCOD8262239
_publ_section_title
;
Structure prediction by ZEFSAII (Michael W. Deem and Ramdas Pophale) SiO2 
 PCOD8262239
Probable space group: C M C A
;
_chemical_formula_sum "Si O2"
_cell_formula_units_Z 112
_cell_length_a 20.522411
_cell_length_b 18.923695
_cell_length_c 16.126838
_cell_angle_alpha 90.000000
_cell_angle_beta 90.000000
_cell_angle_gamma 90.000000
_cell_volume 6263.016329
_symmetry_space_group_name_H-M "C M C A"
_symmetry_group_IT_number 64
_symmetry_cell_setting 'orthorhombic'
loop_
_space_group_symop_operation_xyz
x,y,z
-x,1/2-y,1/2+z
x,-y,-z
-x,1/2+y,1/2-z
-x,-y,-z
x,1/2+y,1/2-z
-x,y,z
x,1/2-y,1/2+z
1/2+x,1/2+y,z
1/2-x,-y,1/2+z
1/2+x,1/2-y,-z
1/2-x,y,1/2-z
1/2-x,1/2-y,-z
1/2+x,y,1/2-z
1/2-x,1/2+y,z
1/2+x,-y,1/2+z
loop_
_atom_site_type_symbol
_atom_site_label
_atom_site_fract_x
_atom_site_fract_y
_atom_site_fract_z
Si Si1 0.303038 0.725961 0.935077
Si Si2 0.755522 0.462048 0.579844
Si Si3 0.882016 0.377698 0.522875
Si Si4 0.072624 0.562972 0.644299
Si Si5 0.311256 0.852882 0.810511
Si Si6 0.707136 0.400435 0.172848
Si Si7 0.428170 0.901190 0.693972
O O1 0.322118 0.783103 0.865597
O O2 0.270980 0.656281 0.894803
O O3 0.250000 0.750000 0.000000
O O4 0.368224 0.699625 0.982752
O O5 0.723248 0.500000 0.500000
O O6 0.814080 0.412148 0.551762
O O7 0.700344 0.417810 0.627062
O O8 0.782523 0.519883 0.643354
O O9 0.916192 0.429350 0.455389
O O10 0.925184 0.363391 0.604005
O O11 0.129007 0.608329 0.690884
O O12 0.082090 0.483299 0.674463
O O13 0.000000 0.590503 0.666809
O O14 0.250000 0.841475 0.750000
O O15 0.375336 0.869877 0.757163
O O16 0.750000 0.381443 0.250000
O O17 0.500000 0.887285 0.731880
#
# Coordination Sequence:
#
# PCOD8262239 Si02
#       7
#    16  16  16  16  16  16  16
#     4  11  21  36  54  79 111 146 189 226 276 337
#     4  12  18  33  56  83 110 135 182 225 280 326
#     4  11  19  33  55  83 113 141 181 228 286 329
#     4  10  19  32  53  83 115 143 177 226 281 335
#     4  12  22  36  56  80 114 149 183 231 278 333
#     4  11  21  33  53  82 113 139 180 233 283 328
#     4  11  21  35  55  82 111 145 186 230 284 334
#
# _framework density 17.882757999999999
#
# number of rings (size 3 to 8) (size 9 to 14) (size 15 to 20)
#    0.000    0.857    7.143    2.571    0.000    1.143 
#    0.000    3.571    0.000    0.429    0.000    4.000 
#    0.000    0.000    0.000    0.000    0.000    0.000 
#
# Total GULP energy -693989.851856 kJ/mol
# GULP energy per Si atom -12392.675926 kJ/mol
# Density = 1.784206 g / cm^3
# Si number density = 17.882758 Si / 1000 Ang^3
#
#
#
# Elastic Constant Matrix: (Units=GPa)
#
#
# Indices 1 2 3 4 5 6 
#
# 1 120.5414 39.7445 53.4054 0.0000 0.0000 0.0000
# 2 39.7445 85.9389 27.8657 0.0000 0.0000 0.0000
# 3 53.4054 27.8657 67.0657 0.0000 0.0000 0.0000
# 4 0.0000 0.0000 0.0000 34.4610 0.0000 0.0000
# 5 0.0000 0.0000 0.0000 0.0000 25.8496 0.0000
# 6 0.0000 0.0000 0.0000 0.0000 0.0000 15.7737
#
#
#
# Elastic Compliance Matrix: (Units=1/GPa)
#
#
# Indices 1 2 3 4 5 6 
#
# 1 0.013537 -0.003196 -0.009452 0.000000 0.000000 0.000000
# 2 -0.003196 0.014202 -0.003356 0.000000 0.000000 0.000000
# 3 -0.009452 -0.003356 0.023832 0.000000 0.000000 0.000000
# 4 0.000000 0.000000 0.000000 0.029018 0.000000 0.000000
# 5 0.000000 0.000000 0.000000 0.000000 0.038685 0.000000
# 6 0.000000 0.000000 0.000000 0.000000 0.000000 0.063397
#
#
# Mechanical properties :
#
#
# Convention : Reuss Voigt Hill
#
# Bulk Modulus (GPa) = 51.11541 57.28637 54.20089
# Shear Modulus (GPa) = 22.60381 25.38555 23.99468
#
# Velocity S-wave (km/s) = 3.55913 3.77179 3.66700
# Velocity P-wave (km/s) = 6.74801 7.14650 6.95011
#
# Compressibility (1/GPa) = 0.01956357
#
# Stress axis : x y z
#
# Youngs Moduli (GPa) = 73.86965 70.41055 41.96010
#
# Poissons Ratio (x) = 0.22502 0.39661
# Poissons Ratio (y) = 0.23607 0.14083
# Poissons Ratio (z) = 0.69823 0.23631
#
# Static dielectric constant tensor:
#      x y z
#    x 3.382890 0.000000 0.000000 
#    y 0.000000 3.438640 0.000000 
#    z 0.000000 0.000000 3.749160 
# 
# 
# High freq. dielectric constant tensor:
#      x y z
#    x 1.673370 0.000000 0.000000 
#    y 0.000000 1.685000 0.000000 
#    z 0.000000 0.000000 1.693280 
# 
# From -- ./inp_files/34501.got.cif
#   From: 2010.03.12/outbox.cif.g09.slc.cpg/sg64_18_cif.got.tgz:34501.got - 2010.04.10 20:19:32.
