data_PCOD8262028
_publ_section_title
;
Structure prediction by ZEFSAII (Michael W. Deem and Ramdas Pophale) SiO2 
 PCOD8262028
Probable space group: C M C A
;
_chemical_formula_sum "Si O2"
_cell_formula_units_Z 80
_cell_length_a 9.307788
_cell_length_b 25.185389
_cell_length_c 19.821156
_cell_angle_alpha 90.000000
_cell_angle_beta 90.000000
_cell_angle_gamma 90.000000
_cell_volume 4646.480573
_symmetry_space_group_name_H-M "C M C A"
_symmetry_group_IT_number 64
_symmetry_cell_setting 'orthorhombic'
loop_
_space_group_symop_operation_xyz
x,y,z
-x,1/2-y,1/2+z
x,-y,-z
-x,1/2+y,1/2-z
-x,-y,-z
x,1/2+y,1/2-z
-x,y,z
x,1/2-y,1/2+z
1/2+x,1/2+y,z
1/2-x,-y,1/2+z
1/2+x,1/2-y,-z
1/2-x,y,1/2-z
1/2-x,1/2-y,-z
1/2+x,y,1/2-z
1/2-x,1/2+y,z
1/2+x,-y,1/2+z
loop_
_atom_site_type_symbol
_atom_site_label
_atom_site_fract_x
_atom_site_fract_y
_atom_site_fract_z
Si Si1 0.667725 0.307831 0.816278
Si Si2 0.331044 0.888621 0.569470
Si Si3 0.342005 0.495589 0.079955
Si Si4 0.833499 0.313519 0.184309
Si Si5 0.169158 0.604663 0.930791
O O1 0.500000 0.315350 0.802437
O O2 0.750000 0.327701 0.750000
O O3 0.718275 0.342843 0.879515
O O4 0.707869 0.247070 0.833084
O O5 0.500000 0.885314 0.551814
O O6 0.242778 0.880605 0.501102
O O7 0.295750 0.945555 0.604993
O O8 0.500000 0.480253 0.108519
O O9 0.227895 0.450649 0.100816
O O10 0.349727 0.500000 0.000000
O O11 0.750000 0.333972 0.250000
O O12 0.789954 0.348689 0.120474
O O13 0.000000 0.319267 0.201310
O O14 0.000000 0.598889 0.941934
#
# Coordination Sequence:
#
# PCOD8262028 Si02
#       5
#    16  16  16  16  16
#     4   9  18  34  52  69  93 124 157 193 233 277
#     4   9  18  32  50  71  95 124 156 190 231 280
#     4   8  15  29  47  67  93 125 156 185 227 280
#     4   9  19  34  50  69  94 124 157 193 233 277
#     4  10  19  30  47  73  99 121 153 196 233 269
#
# _framework density 17.217333
#
# number of rings (size 3 to 8) (size 9 to 14) (size 15 to 20)
#    0.000    3.000    0.000    1.800    0.000    6.800 
#    0.000    1.000    0.000    4.800    0.000    0.000 
#    0.000    0.000    0.000    0.000    0.000    0.000 
#
# Total GULP energy -495891.349832 kJ/mol
# GULP energy per Si atom -12397.283746 kJ/mol
# Density = 1.717815 g / cm^3
# Si number density = 17.217333 Si / 1000 Ang^3
#
#
#
# Elastic Constant Matrix: (Units=GPa)
#
#
# Indices 1 2 3 4 5 6 
#
# 1 72.6235 58.0208 60.5622 0.0000 0.0000 0.0000
# 2 58.0208 118.6154 75.8837 0.0000 0.0000 0.0000
# 3 60.5622 75.8837 100.1075 0.0000 0.0000 0.0000
# 4 0.0000 0.0000 0.0000 7.9117 0.0000 0.0000
# 5 0.0000 0.0000 0.0000 0.0000 27.6120 0.0000
# 6 0.0000 0.0000 0.0000 0.0000 0.0000 26.2990
#
#
#
# Elastic Compliance Matrix: (Units=1/GPa)
#
#
# Indices 1 2 3 4 5 6 
#
# 1 0.029777 -0.005904 -0.013539 0.000000 0.000000 0.000000
# 2 -0.005904 0.017539 -0.009723 0.000000 0.000000 0.000000
# 3 -0.013539 -0.009723 0.025550 0.000000 0.000000 0.000000
# 4 0.000000 0.000000 0.000000 0.126395 0.000000 0.000000
# 5 0.000000 0.000000 0.000000 0.000000 0.036216 0.000000
# 6 0.000000 0.000000 0.000000 0.000000 0.000000 0.038024
#
#
# Mechanical properties :
#
#
# Convention : Reuss Voigt Hill
#
# Bulk Modulus (GPa) = 68.80370 75.58664 72.19517
# Shear Modulus (GPa) = 14.85102 18.82320 16.83711
#
# Velocity S-wave (km/s) = 2.94013 3.31005 3.13056
# Velocity P-wave (km/s) = 7.18153 7.65541 7.42226
#
# Compressibility (1/GPa) = 0.01453410
#
# Stress axis : x y z
#
# Youngs Moduli (GPa) = 33.58331 57.01626 39.13872
#
# Poissons Ratio (x) = 0.33662 0.52989
# Poissons Ratio (y) = 0.19827 0.38055
# Poissons Ratio (z) = 0.45468 0.55438
#
# Static dielectric constant tensor:
#      x y z
#    x 3.205140 0.000000 0.000000 
#    y 0.000000 3.677440 0.000000 
#    z 0.000000 0.000000 2.980370 
# 
# 
# High freq. dielectric constant tensor:
#      x y z
#    x 1.663930 0.000000 0.000000 
#    y 0.000000 1.675320 0.000000 
#    z 0.000000 0.000000 1.637130 
# 
# From -- ./inp_files/29958.got.cif
#   From: 2010.03.12/outbox.cif.g09.slc.cpg/sg64_15_cif.got.tgz:29958.got - 2010.04.10 20:19:32.
