data_PCOD8262451
_publ_section_title
;
Structure prediction by ZEFSAII (Michael W. Deem and Ramdas Pophale) SiO2 
 PCOD8262451
Probable space group: C M C A
;
_chemical_formula_sum "Si O2"
_cell_formula_units_Z 112
_cell_length_a 15.637891
_cell_length_b 22.113322
_cell_length_c 15.923227
_cell_angle_alpha 90.000000
_cell_angle_beta 90.000000
_cell_angle_gamma 90.000000
_cell_volume 5506.342963
_symmetry_space_group_name_H-M "C M C A"
_symmetry_group_IT_number 64
_symmetry_cell_setting 'orthorhombic'
loop_
_space_group_symop_operation_xyz
x,y,z
-x,1/2-y,1/2+z
x,-y,-z
-x,1/2+y,1/2-z
-x,-y,-z
x,1/2+y,1/2-z
-x,y,z
x,1/2-y,1/2+z
1/2+x,1/2+y,z
1/2-x,-y,1/2+z
1/2+x,1/2-y,-z
1/2-x,y,1/2-z
1/2-x,1/2-y,-z
1/2+x,y,1/2-z
1/2-x,1/2+y,z
1/2+x,-y,1/2+z
loop_
_atom_site_type_symbol
_atom_site_label
_atom_site_fract_x
_atom_site_fract_y
_atom_site_fract_z
Si Si1 0.783002 0.222446 0.162068
Si Si2 0.902632 0.884122 0.860241
Si Si3 0.651778 0.863219 0.917994
Si Si4 0.404515 0.539955 0.295309
Si Si5 0.702786 0.568903 0.998605
Si Si6 0.201902 0.576506 0.832877
Si Si7 0.904104 0.676815 0.907366
O O1 0.750000 0.250704 0.250000
O O2 0.846799 0.167792 0.183107
O O3 0.701863 0.196820 0.111317
O O4 0.833412 0.271419 0.106780
O O5 0.888866 0.944382 0.803288
O O6 0.875367 0.894891 0.957681
O O7 0.000000 0.862725 0.860666
O O8 0.598261 0.895897 0.844886
O O9 0.714145 0.917326 0.946206
O O10 0.592924 0.842212 0.995028
O O11 0.500000 0.513026 0.307083
O O12 0.334172 0.491825 0.326235
O O13 0.676593 0.500000 0.000000
O O14 0.724921 0.586821 0.903386
O O15 0.250000 0.597096 0.750000
O O16 0.121285 0.619647 0.850115
O O17 0.000000 0.697805 0.882076
#
# Coordination Sequence:
#
# PCOD8262451 Si02
#       7
#    16  16  16  16  16  16  16
#     4  11  21  39  66  87 118 160 212 251 299 362
#     4  10  22  37  59  92 123 158 204 259 311 353
#     4  10  21  37  62  91 118 157 201 253 305 367
#     4  11  21  36  62  95 123 154 202 261 312 357
#     4  10  19  34  57  85 118 156 195 241 301 363
#     4  11  23  39  62  87 123 166 209 244 302 376
#     4  11  24  41  58  86 127 163 200 254 308 362
#
# _framework density 20.340178999999999
#
# number of rings (size 3 to 8) (size 9 to 14) (size 15 to 20)
#    0.000    1.429    2.857    3.000    2.000    0.286 
#    0.000    3.571    0.000    0.000    0.000    0.000 
#    0.000    0.000    0.000    0.000    0.000    0.000 
#
# Total GULP energy -694169.801626 kJ/mol
# GULP energy per Si atom -12395.889315 kJ/mol
# Density = 2.029388 g / cm^3
# Si number density = 20.340179 Si / 1000 Ang^3
#
#
#
# Elastic Constant Matrix: (Units=GPa)
#
#
# Indices 1 2 3 4 5 6 
#
# 1 88.8812 22.8620 43.5063 0.0000 0.0000 0.0000
# 2 22.8620 71.0995 21.9922 0.0000 0.0000 0.0000
# 3 43.5063 21.9922 118.1765 0.0000 0.0000 0.0000
# 4 0.0000 0.0000 0.0000 24.4963 0.0000 0.0000
# 5 0.0000 0.0000 0.0000 0.0000 20.2018 0.0000
# 6 0.0000 0.0000 0.0000 0.0000 0.0000 17.5494
#
#
#
# Elastic Compliance Matrix: (Units=1/GPa)
#
#
# Indices 1 2 3 4 5 6 
#
# 1 0.014366 -0.003166 -0.004700 0.000000 0.000000 0.000000
# 2 -0.003166 0.015621 -0.001742 0.000000 0.000000 0.000000
# 3 -0.004700 -0.001742 0.010516 0.000000 0.000000 0.000000
# 4 0.000000 0.000000 0.000000 0.040823 0.000000 0.000000
# 5 0.000000 0.000000 0.000000 0.000000 0.049500 0.000000
# 6 0.000000 0.000000 0.000000 0.000000 0.000000 0.056982
#
#
# Mechanical properties :
#
#
# Convention : Reuss Voigt Hill
#
# Bulk Modulus (GPa) = 46.97143 50.54200 48.75672
# Shear Modulus (GPa) = 23.35159 25.10262 24.22710
#
# Velocity S-wave (km/s) = 3.39197 3.51684 3.45497
# Velocity P-wave (km/s) = 6.20352 6.43376 6.31969
#
# Compressibility (1/GPa) = 0.02128954
#
# Stress axis : x y z
#
# Youngs Moduli (GPa) = 69.61074 64.01464 95.09173
#
# Poissons Ratio (x) = 0.20265 0.44689
# Poissons Ratio (y) = 0.22036 0.16562
# Poissons Ratio (z) = 0.32714 0.11149
#
# Static dielectric constant tensor:
#      x y z
#    x 3.551130 0.000000 0.000000 
#    y 0.000000 3.540310 0.000000 
#    z 0.000000 0.000000 3.816540 
# 
# 
# High freq. dielectric constant tensor:
#      x y z
#    x 1.787840 0.000000 0.000000 
#    y 0.000000 1.782130 0.000000 
#    z 0.000000 0.000000 1.798530 
# 
# From -- ./inp_files/24290.got.cif
#   From: 2010.03.12/outbox.cif.g09.slc.cpg/sg64_13_cif.got.tgz:24290.got - 2010.04.10 20:19:32.
