data_PCOD8262009
_publ_section_title
;
Structure prediction by ZEFSAII (Michael W. Deem and Ramdas Pophale) SiO2 
 PCOD8262009
Probable space group: C M C A
;
_chemical_formula_sum "Si O2"
_cell_formula_units_Z 96
_cell_length_a 22.890712
_cell_length_b 25.316848
_cell_length_c 9.528240
_cell_angle_alpha 90.000000
_cell_angle_beta 90.000000
_cell_angle_gamma 90.000000
_cell_volume 5521.812089
_symmetry_space_group_name_H-M "C M C A"
_symmetry_group_IT_number 64
_symmetry_cell_setting 'orthorhombic'
loop_
_space_group_symop_operation_xyz
x,y,z
-x,1/2-y,1/2+z
x,-y,-z
-x,1/2+y,1/2-z
-x,-y,-z
x,1/2+y,1/2-z
-x,y,z
x,1/2-y,1/2+z
1/2+x,1/2+y,z
1/2-x,-y,1/2+z
1/2+x,1/2-y,-z
1/2-x,y,1/2-z
1/2-x,1/2-y,-z
1/2+x,y,1/2-z
1/2-x,1/2+y,z
1/2+x,-y,1/2+z
loop_
_atom_site_type_symbol
_atom_site_label
_atom_site_fract_x
_atom_site_fract_y
_atom_site_fract_z
Si Si1 0.755342 0.698270 0.590550
Si Si2 0.066677 0.224665 0.062734
Si Si3 0.878245 0.351721 0.366214
Si Si4 0.932606 0.560401 0.468344
Si Si5 0.432768 0.133759 0.218120
Si Si6 0.368504 0.665968 0.552515
O O1 0.750000 0.717200 0.750000
O O2 0.750000 0.750000 0.500000
O O3 0.815153 0.666065 0.574610
O O4 0.701545 0.661460 0.542228
O O5 0.082614 0.186660 0.193763
O O6 0.110752 0.273321 0.055165
O O7 0.000000 0.244857 0.070582
O O8 0.074327 0.190804 0.920526
O O9 0.890695 0.409182 0.426286
O O10 0.886309 0.358971 0.200646
O O11 0.918053 0.500000 0.500000
O O12 0.919413 0.580765 0.309157
O O13 0.000000 0.573383 0.502160
O O14 0.500000 0.135262 0.172618
O O15 0.395106 0.132864 0.076063
#
# Coordination Sequence:
#
# PCOD8262009 Si02
#       6
#    16  16  16  16  16  16
#     4  10  21  33  49  73 105 143 181 212 248 306
#     4  10  19  30  46  71 105 143 173 203 253 319
#     4  10  20  34  51  74 103 138 176 216 260 311
#     4   9  19  38  60  77  97 132 178 223 268 319
#     4   9  19  32  49  77 106 134 174 217 261 317
#     4  11  20  30  48  74 109 138 170 214 259 310
#
# _framework density 17.385597000000001
#
# number of rings (size 3 to 8) (size 9 to 14) (size 15 to 20)
#    0.000    2.167    1.667    3.000    2.333    4.000 
#    0.000    0.833    0.000    9.000    0.000    0.000 
#    0.000    0.000    0.000    0.000    0.000    0.000 
#
# Total GULP energy -595017.303932 kJ/mol
# GULP energy per Si atom -12396.193832 kJ/mol
# Density = 1.734603 g / cm^3
# Si number density = 17.385597 Si / 1000 Ang^3
#
#
#
# Elastic Constant Matrix: (Units=GPa)
#
#
# Indices 1 2 3 4 5 6 
#
# 1 70.2440 48.4538 54.8229 0.0000 0.0000 0.0000
# 2 48.4538 101.6004 56.7043 0.0000 0.0000 0.0000
# 3 54.8229 56.7043 131.4107 0.0000 0.0000 0.0000
# 4 0.0000 0.0000 0.0000 13.7129 0.0000 0.0000
# 5 0.0000 0.0000 0.0000 0.0000 29.2377 0.0000
# 6 0.0000 0.0000 0.0000 0.0000 0.0000 15.8356
#
#
#
# Elastic Compliance Matrix: (Units=1/GPa)
#
#
# Indices 1 2 3 4 5 6 
#
# 1 0.025380 -0.008160 -0.007067 0.000000 0.000000 0.000000
# 2 -0.008160 0.015588 -0.003322 0.000000 0.000000 0.000000
# 3 -0.007067 -0.003322 0.011992 0.000000 0.000000 0.000000
# 4 0.000000 0.000000 0.000000 0.072924 0.000000 0.000000
# 5 0.000000 0.000000 0.000000 0.000000 0.034202 0.000000
# 6 0.000000 0.000000 0.000000 0.000000 0.000000 0.063149
#
#
# Mechanical properties :
#
#
# Convention : Reuss Voigt Hill
#
# Bulk Modulus (GPa) = 63.04549 69.24636 66.14593
# Shear Modulus (GPa) = 18.82376 21.30883 20.06630
#
# Velocity S-wave (km/s) = 3.29404 3.50474 3.40102
# Velocity P-wave (km/s) = 7.12807 7.50292 7.31790
#
# Compressibility (1/GPa) = 0.01586156
#
# Stress axis : x y z
#
# Youngs Moduli (GPa) = 39.40035 64.15182 83.39069
#
# Poissons Ratio (x) = 0.52346 0.58936
# Poissons Ratio (y) = 0.32149 0.27704
# Poissons Ratio (z) = 0.27846 0.21313
#
# Static dielectric constant tensor:
#      x y z
#    x 3.391340 0.000000 0.000000 
#    y 0.000000 2.964670 0.000000 
#    z 0.000000 0.000000 3.311890 
# 
# 
# High freq. dielectric constant tensor:
#      x y z
#    x 1.676490 0.000000 0.000000 
#    y 0.000000 1.633750 0.000000 
#    z 0.000000 0.000000 1.678940 
# 
# From -- ./inp_files/8397.got.cif
#   From: 2010.03.12/outbox.cif.g09.slc.cpg/sg64_5_cif.got.tgz:8397.got - 2010.04.10 20:19:32.
