data_PCOD8262375
_publ_section_title
;
Structure prediction by ZEFSAII (Michael W. Deem and Ramdas Pophale) SiO2 
 PCOD8262375
Probable space group: C M C A
;
_chemical_formula_sum "Si O2"
_cell_formula_units_Z 80
_cell_length_a 16.667026
_cell_length_b 18.260532
_cell_length_c 13.488004
_cell_angle_alpha 90.000000
_cell_angle_beta 90.000000
_cell_angle_gamma 90.000000
_cell_volume 4105.057314
_symmetry_space_group_name_H-M "C M C A"
_symmetry_group_IT_number 64
_symmetry_cell_setting 'orthorhombic'
loop_
_space_group_symop_operation_xyz
x,y,z
-x,1/2-y,1/2+z
x,-y,-z
-x,1/2+y,1/2-z
-x,-y,-z
x,1/2+y,1/2-z
-x,y,z
x,1/2-y,1/2+z
1/2+x,1/2+y,z
1/2-x,-y,1/2+z
1/2+x,1/2-y,-z
1/2-x,y,1/2-z
1/2-x,1/2-y,-z
1/2+x,y,1/2-z
1/2-x,1/2+y,z
1/2+x,-y,1/2+z
loop_
_atom_site_type_symbol
_atom_site_label
_atom_site_fract_x
_atom_site_fract_y
_atom_site_fract_z
Si Si1 0.340090 0.478477 0.712937
Si Si2 0.906509 0.883008 0.381600
Si Si3 0.405286 0.341138 0.602194
Si Si4 0.905494 0.186889 0.820052
Si Si5 0.092960 0.461927 0.404384
O O1 0.250000 0.482999 0.750000
O O2 0.356589 0.542413 0.632983
O O3 0.357077 0.401312 0.662820
O O4 0.397463 0.487212 0.808091
O O5 0.884706 0.846997 0.486180
O O6 0.884253 0.824243 0.296044
O O7 0.000000 0.904510 0.375556
O O8 0.500000 0.350207 0.621708
O O9 0.370879 0.263281 0.640025
O O10 0.868692 0.118425 0.882611
O O11 0.000000 0.187368 0.835629
O O12 0.134909 0.500000 0.500000
O O13 0.000000 0.451404 0.427570
#
# Coordination Sequence:
#
# PCOD8262375 Si02
#       5
#    16  16  16  16  16
#     4  11  22  34  50  74 107 141 177 217 258 312
#     4   9  18  35  58  80 104 136 175 220 268 315
#     4  10  19  33  57  83 106 136 176 222 268 315
#     4   8  16  31  52  82 109 128 165 222 273 314
#     4   9  18  34  55  75  99 135 177 218 263 315
#
# _framework density 19.488156
#
# number of rings (size 3 to 8) (size 9 to 14) (size 15 to 20)
#    0.000    2.600    0.000    3.600    0.000    4.800 
#    0.000   10.000    0.000    7.200    0.000    0.000 
#    0.000    0.000    0.000    0.000    0.000    0.000 
#
# Total GULP energy -495902.780515 kJ/mol
# GULP energy per Si atom -12397.569513 kJ/mol
# Density = 1.944380 g / cm^3
# Si number density = 19.488156 Si / 1000 Ang^3
#
#
#
# Elastic Constant Matrix: (Units=GPa)
#
#
# Indices 1 2 3 4 5 6 
#
# 1 35.5555 36.7049 21.5718 0.0000 0.0000 0.0000
# 2 36.7049 181.9398 109.8246 0.0000 0.0000 0.0000
# 3 21.5718 109.8246 139.8488 0.0000 0.0000 0.0000
# 4 0.0000 0.0000 0.0000 33.5487 0.0000 0.0000
# 5 0.0000 0.0000 0.0000 0.0000 12.3701 0.0000
# 6 0.0000 0.0000 0.0000 0.0000 0.0000 8.7309
#
#
#
# Elastic Compliance Matrix: (Units=1/GPa)
#
#
# Indices 1 2 3 4 5 6 
#
# 1 0.035529 -0.007338 0.000282 0.000000 0.000000 0.000000
# 2 -0.007338 0.011966 -0.008265 0.000000 0.000000 0.000000
# 3 0.000282 -0.008265 0.013597 0.000000 0.000000 0.000000
# 4 0.000000 0.000000 0.000000 0.029807 0.000000 0.000000
# 5 0.000000 0.000000 0.000000 0.000000 0.080840 0.000000
# 6 0.000000 0.000000 0.000000 0.000000 0.000000 0.114536
#
#
# Mechanical properties :
#
#
# Convention : Reuss Voigt Hill
#
# Bulk Modulus (GPa) = 32.83972 77.06076 54.95024
# Shear Modulus (GPa) = 15.28737 23.54611 19.41674
#
# Velocity S-wave (km/s) = 2.80383 3.47973 3.15990
# Velocity P-wave (km/s) = 5.23160 7.46812 6.44758
#
# Compressibility (1/GPa) = 0.03045093
#
# Stress axis : x y z
#
# Youngs Moduli (GPa) = 28.14595 83.57265 73.54302
#
# Poissons Ratio (x) = 0.61327 -0.02076
# Poissons Ratio (y) = 0.20654 0.60782
# Poissons Ratio (z) = -0.00795 0.69071
#
# Static dielectric constant tensor:
#      x y z
#    x 3.125440 0.000000 0.000000 
#    y 0.000000 3.825310 0.000000 
#    z 0.000000 0.000000 3.805160 
# 
# 
# High freq. dielectric constant tensor:
#      x y z
#    x 1.718790 0.000000 0.000000 
#    y 0.000000 1.759320 0.000000 
#    z 0.000000 0.000000 1.768660 
# 
# From -- ./inp_files/25278.got.cif
#   From: 2010.03.12/outbox.cif.g09.slc.cpg/sg64_13_cif.got.tgz:25278.got - 2010.04.10 20:19:32.
