data_PCOD8262782
_publ_section_title
;
Structure prediction by ZEFSAII (Michael W. Deem and Ramdas Pophale) SiO2 
 PCOD8262782
Probable space group: C M C A
;
_chemical_formula_sum "Si O2"
_cell_formula_units_Z 96
_cell_length_a 8.739070
_cell_length_b 29.564935
_cell_length_c 20.417491
_cell_angle_alpha 90.000000
_cell_angle_beta 90.000000
_cell_angle_gamma 90.000000
_cell_volume 5275.267895
_symmetry_space_group_name_H-M "C M C A"
_symmetry_group_IT_number 64
_symmetry_cell_setting 'orthorhombic'
loop_
_space_group_symop_operation_xyz
x,y,z
-x,1/2-y,1/2+z
x,-y,-z
-x,1/2+y,1/2-z
-x,-y,-z
x,1/2+y,1/2-z
-x,y,z
x,1/2-y,1/2+z
1/2+x,1/2+y,z
1/2-x,-y,1/2+z
1/2+x,1/2-y,-z
1/2-x,y,1/2-z
1/2-x,1/2-y,-z
1/2+x,y,1/2-z
1/2-x,1/2+y,z
1/2+x,-y,1/2+z
loop_
_atom_site_type_symbol
_atom_site_label
_atom_site_fract_x
_atom_site_fract_y
_atom_site_fract_z
Si Si1 0.821158 0.747062 0.183926
Si Si2 0.180335 0.716471 0.946995
Si Si3 0.819924 0.944992 0.817076
Si Si4 0.826431 0.134089 0.008880
Si Si5 0.321151 0.458582 0.547373
Si Si6 0.171822 0.157197 0.156266
O O1 0.750000 0.768127 0.250000
O O2 0.732937 0.770058 0.124810
O O3 0.792233 0.692999 0.184409
O O4 0.000000 0.757295 0.179131
O O5 0.000000 0.719857 0.952513
O O6 0.250000 0.750000 0.000000
O O7 0.233189 0.664917 0.958258
O O8 0.750000 0.965578 0.750000
O O9 0.748736 0.969052 0.880886
O O10 0.777584 0.892042 0.819308
O O11 0.000000 0.953165 0.818653
O O12 0.751855 0.085012 0.013516
O O13 0.822835 0.159465 0.078078
O O14 0.000000 0.128342 0.984135
O O15 0.283479 0.500000 0.500000
O O16 0.500000 0.450295 0.556041
O O17 0.000000 0.169248 0.180367
#
# Coordination Sequence:
#
# PCOD8262782 Si02
#       6
#    16  16  16  16  16  16
#     4  12  24  36  52  75 108 149 190 235 281 329
#     4  12  23  37  57  81 111 147 190 232 273 327
#     4  10  20  33  52  78 111 146 182 224 275 337
#     4  10  20  35  57  83 111 144 186 230 277 330
#     4  10  21  37  58  84 114 147 186 231 281 335
#     4   9  18  32  50  75 108 143 181 221 269 329
#
# _framework density 18.198128000000001
#
# number of rings (size 3 to 8) (size 9 to 14) (size 15 to 20)
#    0.000    1.500    1.667    6.000    0.000    6.000 
#    0.000    0.000    0.000    1.000    0.000    2.333 
#    0.000    0.000    0.000    0.000    0.000    0.000 
#
# Total GULP energy -595341.856572 kJ/mol
# GULP energy per Si atom -12402.955345 kJ/mol
# Density = 1.815671 g / cm^3
# Si number density = 18.198128 Si / 1000 Ang^3
#
#
#
# Elastic Constant Matrix: (Units=GPa)
#
#
# Indices 1 2 3 4 5 6 
#
# 1 150.6444 54.8757 70.4538 0.0000 0.0000 0.0000
# 2 54.8757 67.2434 52.4547 0.0000 0.0000 0.0000
# 3 70.4538 52.4547 133.2710 0.0000 0.0000 0.0000
# 4 0.0000 0.0000 0.0000 4.5307 0.0000 0.0000
# 5 0.0000 0.0000 0.0000 0.0000 33.4556 0.0000
# 6 0.0000 0.0000 0.0000 0.0000 0.0000 26.9521
#
#
#
# Elastic Compliance Matrix: (Units=1/GPa)
#
#
# Indices 1 2 3 4 5 6 
#
# 1 0.010247 -0.005970 -0.003068 0.000000 0.000000 0.000000
# 2 -0.005970 0.024938 -0.006660 0.000000 0.000000 0.000000
# 3 -0.003068 -0.006660 0.011746 0.000000 0.000000 0.000000
# 4 0.000000 0.000000 0.000000 0.220715 0.000000 0.000000
# 5 0.000000 0.000000 0.000000 0.000000 0.029890 0.000000
# 6 0.000000 0.000000 0.000000 0.000000 0.000000 0.037103
#
#
# Mechanical properties :
#
#
# Convention : Reuss Voigt Hill
#
# Bulk Modulus (GPa) = 64.35846 78.52524 71.44185
# Shear Modulus (GPa) = 13.46933 24.54600 19.00767
#
# Velocity S-wave (km/s) = 2.72352 3.67661 3.23536
# Velocity P-wave (km/s) = 6.73293 7.82733 7.30067
#
# Compressibility (1/GPa) = 0.01553797
#
# Stress axis : x y z
#
# Youngs Moduli (GPa) = 97.58532 40.09951 85.13231
#
# Poissons Ratio (x) = 0.23938 0.26116
# Poissons Ratio (y) = 0.58255 0.56695
# Poissons Ratio (z) = 0.29936 0.26705
#
# Static dielectric constant tensor:
#      x y z
#    x 3.506540 0.000000 0.000000 
#    y 0.000000 3.118290 0.000000 
#    z 0.000000 0.000000 3.499890 
# 
# 
# High freq. dielectric constant tensor:
#      x y z
#    x 1.722780 0.000000 0.000000 
#    y 0.000000 1.670700 0.000000 
#    z 0.000000 0.000000 1.709060 
# 
# From -- ./inp_files/37102.got.cif
#   From: 2010.03.12/outbox.cif.g09.slc.cpg/sg64_19_cif.got.tgz:37102.got - 2010.04.10 20:19:32.
