data_PCOD8262169
_publ_section_title
;
Structure prediction by ZEFSAII (Michael W. Deem and Ramdas Pophale) SiO2 
 PCOD8262169
Probable space group: C M C A
;
_chemical_formula_sum "Si O2"
_cell_formula_units_Z 96
_cell_length_a 9.120338
_cell_length_b 23.320056
_cell_length_c 25.703973
_cell_angle_alpha 90.000000
_cell_angle_beta 90.000000
_cell_angle_gamma 90.000000
_cell_volume 5466.895582
_symmetry_space_group_name_H-M "C M C A"
_symmetry_group_IT_number 64
_symmetry_cell_setting 'orthorhombic'
loop_
_space_group_symop_operation_xyz
x,y,z
-x,1/2-y,1/2+z
x,-y,-z
-x,1/2+y,1/2-z
-x,-y,-z
x,1/2+y,1/2-z
-x,y,z
x,1/2-y,1/2+z
1/2+x,1/2+y,z
1/2-x,-y,1/2+z
1/2+x,1/2-y,-z
1/2-x,y,1/2-z
1/2-x,1/2-y,-z
1/2+x,y,1/2-z
1/2-x,1/2+y,z
1/2+x,-y,1/2+z
loop_
_atom_site_type_symbol
_atom_site_label
_atom_site_fract_x
_atom_site_fract_y
_atom_site_fract_z
Si Si1 0.330446 0.854352 0.424146
Si Si2 0.665521 0.168982 0.461123
Si Si3 0.667070 0.414500 0.604588
Si Si4 0.825116 0.333486 0.804323
Si Si5 0.331285 0.529170 0.554447
Si Si6 0.827350 0.756821 0.373545
O O1 0.500000 0.856929 0.407383
O O2 0.309836 0.819386 0.478010
O O3 0.272366 0.918545 0.430687
O O4 0.238425 0.820739 0.379994
O O5 0.500000 0.151890 0.448951
O O6 0.757339 0.113608 0.445245
O O7 0.708980 0.224275 0.427408
O O8 0.500000 0.397329 0.597822
O O9 0.722170 0.387043 0.658844
O O10 0.690253 0.482860 0.601176
O O11 0.750000 0.347471 0.750000
O O12 0.757036 0.274662 0.826705
O O13 0.000000 0.327031 0.798359
O O14 0.284679 0.500000 0.500000
O O15 0.500000 0.549936 0.551251
O O16 0.000000 0.760134 0.361065
#
# Coordination Sequence:
#
# PCOD8262169 Si02
#       6
#    16  16  16  16  16  16
#     4  11  21  31  46  72 106 142 176 212 254 304
#     4   9  18  30  46  70 102 137 172 210 253 301
#     4   9  18  32  51  75 102 134 173 214 254 303
#     4  10  20  36  58  81 103 128 164 213 266 314
#     4  10  19  32  50  72 102 142 182 214 251 306
#     4  10  20  34  51  73 101 135 173 213 258 309
#
# _framework density 17.56024
#
# number of rings (size 3 to 8) (size 9 to 14) (size 15 to 20)
#    0.000    2.167    1.667    2.000    0.000    3.000 
#    0.000    0.000    0.000    1.000    0.000    4.667 
#    0.000    0.000    0.000    0.000    0.000    0.000 
#
# Total GULP energy -595079.237799 kJ/mol
# GULP energy per Si atom -12397.484121 kJ/mol
# Density = 1.752027 g / cm^3
# Si number density = 17.560240 Si / 1000 Ang^3
#
#
#
# Elastic Constant Matrix: (Units=GPa)
#
#
# Indices 1 2 3 4 5 6 
#
# 1 77.9258 36.8002 34.7508 0.0000 0.0000 0.0000
# 2 36.8002 78.5482 32.5373 0.0000 0.0000 0.0000
# 3 34.7508 32.5373 71.2542 0.0000 0.0000 0.0000
# 4 0.0000 0.0000 0.0000 17.4740 0.0000 0.0000
# 5 0.0000 0.0000 0.0000 0.0000 26.7867 0.0000
# 6 0.0000 0.0000 0.0000 0.0000 0.0000 30.7736
#
#
#
# Elastic Compliance Matrix: (Units=1/GPa)
#
#
# Indices 1 2 3 4 5 6 
#
# 1 0.018485 -0.006075 -0.006241 0.000000 0.000000 0.000000
# 2 -0.006075 0.017697 -0.005119 0.000000 0.000000 0.000000
# 3 -0.006241 -0.005119 0.019415 0.000000 0.000000 0.000000
# 4 0.000000 0.000000 0.000000 0.057228 0.000000 0.000000
# 5 0.000000 0.000000 0.000000 0.000000 0.037332 0.000000
# 6 0.000000 0.000000 0.000000 0.000000 0.000000 0.032495
#
#
# Mechanical properties :
#
#
# Convention : Reuss Voigt Hill
#
# Bulk Modulus (GPa) = 48.24269 48.43387 48.33828
# Shear Modulus (GPa) = 22.27855 23.24952 22.76403
#
# Velocity S-wave (km/s) = 3.56574 3.64261 3.60438
# Velocity P-wave (km/s) = 6.66970 6.73297 6.70141
#
# Compressibility (1/GPa) = 0.02072853
#
# Stress axis : x y z
#
# Youngs Moduli (GPa) = 54.09870 56.50528 51.50578
#
# Poissons Ratio (x) = 0.34327 0.32145
# Poissons Ratio (y) = 0.32865 0.26363
# Poissons Ratio (z) = 0.33763 0.28922
#
# Static dielectric constant tensor:
#      x y z
#    x 3.299450 0.000000 0.000000 
#    y 0.000000 3.187780 0.000000 
#    z 0.000000 0.000000 3.137500 
# 
# 
# High freq. dielectric constant tensor:
#      x y z
#    x 1.688890 0.000000 0.000000 
#    y 0.000000 1.672600 0.000000 
#    z 0.000000 0.000000 1.647760 
# 
# From -- ./inp_files/42950.got.cif
#   From: 2010.03.12/outbox.cif.g09.slc.cpg/sg64_22_cif.got.tgz:42950.got - 2010.04.10 20:19:32.
