data_PCOD8262091
_publ_section_title
;
Structure prediction by ZEFSAII (Michael W. Deem and Ramdas Pophale) SiO2 
 PCOD8262091
Probable space group: C M C A
;
_chemical_formula_sum "Si O2"
_cell_formula_units_Z 96
_cell_length_a 9.322287
_cell_length_b 31.801198
_cell_length_c 18.619620
_cell_angle_alpha 90.000000
_cell_angle_beta 90.000000
_cell_angle_gamma 90.000000
_cell_volume 5519.970585
_symmetry_space_group_name_H-M "C M C A"
_symmetry_group_IT_number 64
_symmetry_cell_setting 'orthorhombic'
loop_
_space_group_symop_operation_xyz
x,y,z
-x,1/2-y,1/2+z
x,-y,-z
-x,1/2+y,1/2-z
-x,-y,-z
x,1/2+y,1/2-z
-x,y,z
x,1/2-y,1/2+z
1/2+x,1/2+y,z
1/2-x,-y,1/2+z
1/2+x,1/2-y,-z
1/2-x,y,1/2-z
1/2-x,1/2-y,-z
1/2+x,y,1/2-z
1/2-x,1/2+y,z
1/2+x,-y,1/2+z
loop_
_atom_site_type_symbol
_atom_site_label
_atom_site_fract_x
_atom_site_fract_y
_atom_site_fract_z
Si Si1 0.667049 0.540797 0.044374
Si Si2 0.665612 0.837575 0.909021
Si Si3 0.670839 0.421076 0.674528
Si Si4 0.665057 0.126123 0.533059
Si Si5 0.334174 0.758762 0.819570
Si Si6 0.166889 0.836529 0.179563
O O1 0.500000 0.538352 0.067546
O O2 0.763858 0.546546 0.115608
O O3 0.715727 0.500000 0.000000
O O4 0.695138 0.578424 0.988764
O O5 0.500000 0.841458 0.928283
O O6 0.706215 0.873606 0.851034
O O7 0.707836 0.791413 0.881500
O O8 0.750935 0.842183 0.982299
O O9 0.500000 0.428793 0.682452
O O10 0.750000 0.429052 0.750000
O O11 0.500000 0.138644 0.525577
O O12 0.715466 0.133124 0.614913
O O13 0.500000 0.762677 0.800171
O O14 0.250000 0.773341 0.750000
O O15 0.293013 0.711386 0.842331
O O16 0.250000 0.851469 0.250000
O O17 0.000000 0.840779 0.196894
#
# Coordination Sequence:
#
# PCOD8262091 Si02
#       6
#    16  16  16  16  16  16
#     4   9  18  34  54  72  94 125 157 192 237 286
#     4   9  18  30  45  68  96 124 154 189 228 272
#     4  10  19  31  49  73 100 127 156 191 231 277
#     4   9  18  32  49  69  92 119 153 191 233 281
#     4   9  17  29  44  64  92 124 157 191 226 266
#     4   9  18  32  48  66  90 121 156 193 230 269
#
# _framework density 17.391397000000001
#
# number of rings (size 3 to 8) (size 9 to 14) (size 15 to 20)
#    0.000    2.833    0.000    1.000    0.000    3.000 
#    0.000    0.833    0.000    2.000    0.000    0.000 
#    0.000    0.000    0.000    0.000    0.000    0.000 
#
# Total GULP energy -595147.097113 kJ/mol
# GULP energy per Si atom -12398.897857 kJ/mol
# Density = 1.735181 g / cm^3
# Si number density = 17.391397 Si / 1000 Ang^3
#
#
#
# Elastic Constant Matrix: (Units=GPa)
#
#
# Indices 1 2 3 4 5 6 
#
# 1 60.2452 35.9178 67.0017 0.0000 0.0000 0.0000
# 2 35.9178 65.7310 64.7285 0.0000 0.0000 0.0000
# 3 67.0017 64.7285 157.3149 0.0000 0.0000 0.0000
# 4 0.0000 0.0000 0.0000 12.0970 0.0000 0.0000
# 5 0.0000 0.0000 0.0000 0.0000 35.3972 0.0000
# 6 0.0000 0.0000 0.0000 0.0000 0.0000 19.8422
#
#
#
# Elastic Compliance Matrix: (Units=1/GPa)
#
#
# Indices 1 2 3 4 5 6 
#
# 1 0.033416 -0.007136 -0.011296 0.000000 0.000000 0.000000
# 2 -0.007136 0.027101 -0.008111 0.000000 0.000000 0.000000
# 3 -0.011296 -0.008111 0.014505 0.000000 0.000000 0.000000
# 4 0.000000 0.000000 0.000000 0.082665 0.000000 0.000000
# 5 0.000000 0.000000 0.000000 0.000000 0.028251 0.000000
# 6 0.000000 0.000000 0.000000 0.000000 0.000000 0.050398
#
#
# Mechanical properties :
#
#
# Convention : Reuss Voigt Hill
#
# Bulk Modulus (GPa) = 45.58932 68.73191 57.16061
# Shear Modulus (GPa) = 16.85009 21.17684 19.01346
#
# Velocity S-wave (km/s) = 3.11605 3.49329 3.31005
# Velocity P-wave (km/s) = 6.26235 7.47510 6.89544
#
# Compressibility (1/GPa) = 0.02193496
#
# Stress axis : x y z
#
# Youngs Moduli (GPa) = 29.92566 36.89938 68.94050
#
# Poissons Ratio (x) = 0.26332 0.77875
# Poissons Ratio (y) = 0.21355 0.55921
# Poissons Ratio (z) = 0.33804 0.29931
#
# Static dielectric constant tensor:
#      x y z
#    x 3.245800 0.000000 0.000000 
#    y 0.000000 3.237090 0.000000 
#    z 0.000000 0.000000 3.281110 
# 
# 
# High freq. dielectric constant tensor:
#      x y z
#    x 1.671510 0.000000 0.000000 
#    y 0.000000 1.660250 0.000000 
#    z 0.000000 0.000000 1.668850 
# 
# From -- ./inp_files/37058.got.cif
#   From: 2010.03.12/outbox.cif.g09.slc.cpg/sg64_19_cif.got.tgz:37058.got - 2010.04.10 20:19:32.
