data_PCOD8262492
_publ_section_title
;
Structure prediction by ZEFSAII (Michael W. Deem and Ramdas Pophale) SiO2 
 PCOD8262492
Probable space group: C M C A
;
_chemical_formula_sum "Si O2"
_cell_formula_units_Z 72
_cell_length_a 31.022869
_cell_length_b 23.005129
_cell_length_c 5.188222
_cell_angle_alpha 90.000000
_cell_angle_beta 90.000000
_cell_angle_gamma 90.000000
_cell_volume 3702.756754
_symmetry_space_group_name_H-M "C M C A"
_symmetry_group_IT_number 64
_symmetry_cell_setting 'orthorhombic'
loop_
_space_group_symop_operation_xyz
x,y,z
-x,1/2-y,1/2+z
x,-y,-z
-x,1/2+y,1/2-z
-x,-y,-z
x,1/2+y,1/2-z
-x,y,z
x,1/2-y,1/2+z
1/2+x,1/2+y,z
1/2-x,-y,1/2+z
1/2+x,1/2-y,-z
1/2-x,y,1/2-z
1/2-x,1/2-y,-z
1/2+x,y,1/2-z
1/2-x,1/2+y,z
1/2+x,-y,1/2+z
loop_
_atom_site_type_symbol
_atom_site_label
_atom_site_fract_x
_atom_site_fract_y
_atom_site_fract_z
Si Si1 0.000000 0.714384 0.043533
Si Si2 0.702026 0.194413 0.674872
Si Si3 0.166193 0.320733 0.831671
Si Si4 0.426550 0.128201 0.091555
Si Si5 0.549821 0.561923 0.901072
O O1 0.000000 0.733095 0.341505
O O2 0.957426 0.677852 0.981594
O O3 0.750000 0.215660 0.750000
O O4 0.695338 0.158077 0.411309
O O5 0.671123 0.250692 0.638142
O O6 0.686090 0.152729 0.905686
O O7 0.117799 0.342819 0.816668
O O8 0.422888 0.082354 0.852353
O O9 0.446766 0.103378 0.352421
O O10 0.500000 0.557264 0.813599
O O11 0.567837 0.500000 0.000000
#
# Coordination Sequence:
#
# PCOD8262492 Si02
#       5
#     8  16  16  16  16
#     4  12  26  36  53  74 121 166 190 226 268 350
#     4  10  19  35  52  77 111 155 192 222 265 329
#     4  10  20  30  52  75 110 143 181 230 271 319
#     4  12  23  39  54  85 114 146 206 234 289 349
#     4  11  22  41  62  79 103 147 200 262 302 327
#
# _framework density 19.444972
#
# number of rings (size 3 to 8) (size 9 to 14) (size 15 to 20)
#    0.000    1.111    2.222    6.667    6.222    1.778 
#    0.000    0.000    0.000    0.000    0.000    0.000 
#    0.000   80.000    0.000    0.000    0.000    0.000 
#
# Total GULP energy -446016.360638 kJ/mol
# GULP energy per Si atom -12389.343351 kJ/mol
# Density = 1.940071 g / cm^3
# Si number density = 19.444972 Si / 1000 Ang^3
#
#
#
# Elastic Constant Matrix: (Units=GPa)
#
#
# Indices 1 2 3 4 5 6 
#
# 1 92.6447 35.6488 26.2237 0.0000 0.0000 0.0000
# 2 35.6488 52.3355 15.5557 0.0000 0.0000 0.0000
# 3 26.2237 15.5557 158.9891 0.0000 0.0000 0.0000
# 4 0.0000 0.0000 0.0000 26.5476 0.0000 0.0000
# 5 0.0000 0.0000 0.0000 0.0000 21.2902 0.0000
# 6 0.0000 0.0000 0.0000 0.0000 0.0000 4.3409
#
#
#
# Elastic Compliance Matrix: (Units=1/GPa)
#
#
# Indices 1 2 3 4 5 6 
#
# 1 0.014975 -0.009749 -0.001516 0.000000 0.000000 0.000000
# 2 -0.009749 0.026027 -0.000938 0.000000 0.000000 0.000000
# 3 -0.001516 -0.000938 0.006632 0.000000 0.000000 0.000000
# 4 0.000000 0.000000 0.000000 0.037668 0.000000 0.000000
# 5 0.000000 0.000000 0.000000 0.000000 0.046970 0.000000
# 6 0.000000 0.000000 0.000000 0.000000 0.000000 0.230368
#
#
# Mechanical properties :
#
#
# Convention : Reuss Voigt Hill
#
# Bulk Modulus (GPa) = 43.05583 50.98063 47.01823
# Shear Modulus (GPa) = 12.66497 25.53848 19.10172
#
# Velocity S-wave (km/s) = 2.55487 3.62798 3.13764
# Velocity P-wave (km/s) = 5.55820 6.62000 6.11220
#
# Compressibility (1/GPa) = 0.02322566
#
# Stress axis : x y z
#
# Youngs Moduli (GPa) = 66.78011 38.42117 150.79293
#
# Poissons Ratio (x) = 0.37458 0.22860
# Poissons Ratio (y) = 0.65107 0.14152
# Poissons Ratio (z) = 0.10124 0.03606
#
# Static dielectric constant tensor:
#      x y z
#    x 3.404200 0.000000 0.000000 
#    y 0.000000 3.190060 0.000000 
#    z 0.000000 0.000000 4.636970 
# 
# 
# High freq. dielectric constant tensor:
#      x y z
#    x 1.739670 0.000000 0.000000 
#    y 0.000000 1.697070 0.000000 
#    z 0.000000 0.000000 1.804580 
# 
# From -- ./inp_files/2824.got.cif
#   From: 2010.03.12/outbox.cif.g09.slc.cpg/sg64_2_cif.got.tgz:2824.got - 2010.04.10 20:19:32.
