data_PCOD8262328
_publ_section_title
;
Structure prediction by ZEFSAII (Michael W. Deem and Ramdas Pophale) SiO2 
 PCOD8262328
Probable space group: C M C A
;
_chemical_formula_sum "Si O2"
_cell_formula_units_Z 96
_cell_length_a 19.248147
_cell_length_b 10.243576
_cell_length_c 24.357640
_cell_angle_alpha 90.000000
_cell_angle_beta 90.000000
_cell_angle_gamma 90.000000
_cell_volume 4802.592387
_symmetry_space_group_name_H-M "C M C A"
_symmetry_group_IT_number 64
_symmetry_cell_setting 'orthorhombic'
loop_
_space_group_symop_operation_xyz
x,y,z
-x,1/2-y,1/2+z
x,-y,-z
-x,1/2+y,1/2-z
-x,-y,-z
x,1/2+y,1/2-z
-x,y,z
x,1/2-y,1/2+z
1/2+x,1/2+y,z
1/2-x,-y,1/2+z
1/2+x,1/2-y,-z
1/2-x,y,1/2-z
1/2-x,1/2-y,-z
1/2+x,y,1/2-z
1/2-x,1/2+y,z
1/2+x,-y,1/2+z
loop_
_atom_site_type_symbol
_atom_site_label
_atom_site_fract_x
_atom_site_fract_y
_atom_site_fract_z
Si Si1 0.077435 0.898021 0.636054
Si Si2 0.577052 0.783890 0.464981
Si Si3 0.711837 0.286420 0.363014
Si Si4 0.923431 0.329378 0.081025
Si Si5 0.721528 0.375245 0.030169
Si Si6 0.214184 0.446867 0.807623
O O1 0.088811 0.778563 0.594815
O O2 0.133506 0.899821 0.685881
O O3 0.000000 0.893944 0.662418
O O4 0.087163 0.020762 0.596356
O O5 0.500000 0.848493 0.467289
O O6 0.585259 0.681565 0.515322
O O7 0.637720 0.889534 0.471777
O O8 0.634643 0.249784 0.384833
O O9 0.753881 0.368258 0.407910
O O10 0.744084 0.145248 0.350146
O O11 0.714829 0.395522 0.314754
O O12 0.000000 0.278905 0.099075
O O13 0.754046 0.500000 0.000000
O O14 0.750000 0.250000 0.000000
O O15 0.250000 0.413884 0.750000
#
# Coordination Sequence:
#
# PCOD8262328 Si02
#       6
#    16  16  16  16  16  16
#     4   9  18  34  57  85 116 151 193 241 287 344
#     4  10  19  33  54  84 120 158 189 227 284 354
#     4  11  22  38  60  84 120 151 192 244 294 344
#     4   9  18  31  54  85 119 155 191 227 277 349
#     4  12  24  36  57  88 125 158 192 229 287 358
#     4  11  23  40  62  85 110 150 202 255 298 337
#
# _framework density 19.989204999999998
#
# number of rings (size 3 to 8) (size 9 to 14) (size 15 to 20)
#    0.000    1.667    3.333    2.000    2.333    2.333 
#    0.000    0.833    0.000    5.000    0.000    0.000 
#    0.000    0.000    0.000    0.000    0.000    0.000 
#
# Total GULP energy -594635.559230 kJ/mol
# GULP energy per Si atom -12388.240817 kJ/mol
# Density = 1.994371 g / cm^3
# Si number density = 19.989205 Si / 1000 Ang^3
#
#
#
# Elastic Constant Matrix: (Units=GPa)
#
#
# Indices 1 2 3 4 5 6 
#
# 1 157.0575 19.9124 41.0948 0.0000 0.0000 0.0000
# 2 19.9124 48.7584 3.1559 0.0000 0.0000 0.0000
# 3 41.0948 3.1559 79.3337 0.0000 0.0000 0.0000
# 4 0.0000 0.0000 0.0000 21.8047 0.0000 0.0000
# 5 0.0000 0.0000 0.0000 0.0000 33.9613 0.0000
# 6 0.0000 0.0000 0.0000 0.0000 0.0000 21.9399
#
#
#
# Elastic Compliance Matrix: (Units=1/GPa)
#
#
# Indices 1 2 3 4 5 6 
#
# 1 0.007758 -0.002916 -0.003903 0.000000 0.000000 0.000000
# 2 -0.002916 0.021658 0.000649 0.000000 0.000000 0.000000
# 3 -0.003903 0.000649 0.014601 0.000000 0.000000 0.000000
# 4 0.000000 0.000000 0.000000 0.045862 0.000000 0.000000
# 5 0.000000 0.000000 0.000000 0.000000 0.029445 0.000000
# 6 0.000000 0.000000 0.000000 0.000000 0.000000 0.045579
#
#
# Mechanical properties :
#
#
# Convention : Reuss Voigt Hill
#
# Bulk Modulus (GPa) = 31.56803 45.94176 38.75489
# Shear Modulus (GPa) = 26.62395 30.27362 28.44879
#
# Velocity S-wave (km/s) = 3.65350 3.89588 3.77664
# Velocity P-wave (km/s) = 5.79864 6.57802 6.20059
#
# Compressibility (1/GPa) = 0.03167762
#
# Stress axis : x y z
#
# Youngs Moduli (GPa) = 128.90120 46.17231 68.48984
#
# Poissons Ratio (x) = 0.13462 0.26729
# Poissons Ratio (y) = 0.37583 -0.04443
# Poissons Ratio (z) = 0.50305 -0.02995
#
# Static dielectric constant tensor:
#      x y z
#    x 4.638940 0.000000 0.000000 
#    y 0.000000 3.325490 0.000000 
#    z 0.000000 0.000000 3.448370 
# 
# 
# High freq. dielectric constant tensor:
#      x y z
#    x 1.803950 0.000000 0.000000 
#    y 0.000000 1.758350 0.000000 
#    z 0.000000 0.000000 1.748850 
# 
# From -- ./inp_files/40843.got.cif
#   From: 2010.03.12/outbox.cif.g09.slc.cpg/sg64_21_cif.got.tgz:40843.got - 2010.04.10 20:19:32.
