data_PCOD8262214
_publ_section_title
;
Structure prediction by ZEFSAII (Michael W. Deem and Ramdas Pophale) SiO2 
 PCOD8262214
Probable space group: C M C A
;
_chemical_formula_sum "Si O2"
_cell_formula_units_Z 128
_cell_length_a 17.532677
_cell_length_b 23.717714
_cell_length_c 17.820661
_cell_angle_alpha 90.000000
_cell_angle_beta 90.000000
_cell_angle_gamma 90.000000
_cell_volume 7410.454901
_symmetry_space_group_name_H-M "C M C A"
_symmetry_group_IT_number 64
_symmetry_cell_setting 'orthorhombic'
loop_
_space_group_symop_operation_xyz
x,y,z
-x,1/2-y,1/2+z
x,-y,-z
-x,1/2+y,1/2-z
-x,-y,-z
x,1/2+y,1/2-z
-x,y,z
x,1/2-y,1/2+z
1/2+x,1/2+y,z
1/2-x,-y,1/2+z
1/2+x,1/2-y,-z
1/2-x,y,1/2-z
1/2-x,1/2-y,-z
1/2+x,y,1/2-z
1/2-x,1/2+y,z
1/2+x,-y,1/2+z
loop_
_atom_site_type_symbol
_atom_site_label
_atom_site_fract_x
_atom_site_fract_y
_atom_site_fract_z
Si Si1 0.808431 0.062384 0.181914
Si Si2 0.257501 0.622547 0.635719
Si Si3 0.821450 0.311687 0.696587
Si Si4 0.873490 0.872310 0.244921
Si Si5 0.083773 0.507965 0.778650
Si Si6 0.913624 0.247749 0.815389
Si Si7 0.270405 0.740704 0.915160
Si Si8 0.301856 0.005910 0.914768
O O1 0.750000 0.063590 0.250000
O O2 0.839448 0.125674 0.164538
O O3 0.878690 0.023397 0.207525
O O4 0.766907 0.036818 0.107909
O O5 0.193289 0.602676 0.693460
O O6 0.333587 0.645395 0.677130
O O7 0.226719 0.673709 0.587691
O O8 0.273071 0.569707 0.583772
O O9 0.750000 0.316174 0.750000
O O10 0.892438 0.286256 0.743361
O O11 0.798628 0.269220 0.630319
O O12 0.913935 0.818049 0.208926
O O13 0.927721 0.925650 0.259817
O O14 0.129825 0.497889 0.855657
O O15 0.000000 0.482130 0.791037
O O16 0.853784 0.260845 0.883448
O O17 0.000000 0.262901 0.841156
O O18 0.250000 0.750000 0.000000
O O19 0.330922 0.000000 0.000000
#
# Coordination Sequence:
#
# PCOD8262214 Si02
#       8
#    16  16  16  16  16  16  16  16
#     4   9  18  34  52  73  99 134 179 213 243 297
#     4   9  16  30  53  76  98 126 176 217 249 299
#     4   9  18  34  53  74  99 134 176 213 251 304
#     4   9  15  30  53  78 101 122 169 222 258 293
#     4  10  19  32  52  77 105 134 167 214 265 308
#     4  10  19  33  54  79 104 134 173 220 264 304
#     4  10  20  33  53  78 104 139 172 212 259 316
#     4  10  20  32  51  78 103 137 172 214 256 308
#
# _framework density 17.272893
#
# number of rings (size 3 to 8) (size 9 to 14) (size 15 to 20)
#    0.000    2.500    2.500    0.375    1.750    0.750 
#    0.000    0.625    0.000    0.375    0.000    0.000 
#    0.000    0.000    0.000    0.000    0.000    0.000 
#
# Total GULP energy -792878.265853 kJ/mol
# GULP energy per Si atom -12388.722904 kJ/mol
# Density = 1.723358 g / cm^3
# Si number density = 17.272893 Si / 1000 Ang^3
#
#
#
# Elastic Constant Matrix: (Units=GPa)
#
#
# Indices 1 2 3 4 5 6 
#
# 1 99.3116 33.2198 32.9792 0.0000 0.0000 0.0000
# 2 33.2198 80.2175 33.8916 0.0000 0.0000 0.0000
# 3 32.9792 33.8916 85.8961 0.0000 0.0000 0.0000
# 4 0.0000 0.0000 0.0000 17.6729 0.0000 0.0000
# 5 0.0000 0.0000 0.0000 0.0000 12.3397 0.0000
# 6 0.0000 0.0000 0.0000 0.0000 0.0000 13.2311
#
#
#
# Elastic Compliance Matrix: (Units=1/GPa)
#
#
# Indices 1 2 3 4 5 6 
#
# 1 0.012416 -0.003753 -0.003286 0.000000 0.000000 0.000000
# 2 -0.003753 0.016095 -0.004909 0.000000 0.000000 0.000000
# 3 -0.003286 -0.004909 0.014841 0.000000 0.000000 0.000000
# 4 0.000000 0.000000 0.000000 0.056584 0.000000 0.000000
# 5 0.000000 0.000000 0.000000 0.000000 0.081039 0.000000
# 6 0.000000 0.000000 0.000000 0.000000 0.000000 0.075580
#
#
# Mechanical properties :
#
#
# Convention : Reuss Voigt Hill
#
# Bulk Modulus (GPa) = 51.40383 51.73405 51.56894
# Shear Modulus (GPa) = 17.42549 19.67105 18.54827
#
# Velocity S-wave (km/s) = 3.17966 3.37833 3.28050
# Velocity P-wave (km/s) = 6.58063 6.72559 6.65351
#
# Compressibility (1/GPa) = 0.01945380
#
# Stress axis : x y z
#
# Youngs Moduli (GPa) = 80.54076 62.13253 67.38232
#
# Poissons Ratio (x) = 0.23321 0.22142
# Poissons Ratio (y) = 0.30230 0.33080
# Poissons Ratio (z) = 0.26466 0.30503
#
# Static dielectric constant tensor:
#      x y z
#    x 3.053270 0.000000 0.000000 
#    y 0.000000 3.639650 0.000000 
#    z 0.000000 0.000000 2.979080 
# 
# 
# High freq. dielectric constant tensor:
#      x y z
#    x 1.645050 0.000000 0.000000 
#    y 0.000000 1.679400 0.000000 
#    z 0.000000 0.000000 1.638820 
# 
# From -- ./inp_files/33783.got.cif
#   From: 2010.03.12/outbox.cif.g09.slc.cpg/sg64_17_cif.got.tgz:33783.got - 2010.04.10 20:19:32.
