data_PCOD8262133
_publ_section_title
;
Structure prediction by ZEFSAII (Michael W. Deem and Ramdas Pophale) SiO2 
 PCOD8262133
Probable space group: C M C A
;
_chemical_formula_sum "Si O2"
_cell_formula_units_Z 104
_cell_length_a 13.228946
_cell_length_b 21.703199
_cell_length_c 20.140792
_cell_angle_alpha 90.000000
_cell_angle_beta 90.000000
_cell_angle_gamma 90.000000
_cell_volume 5782.631806
_symmetry_space_group_name_H-M "C M C A"
_symmetry_group_IT_number 64
_symmetry_cell_setting 'orthorhombic'
loop_
_space_group_symop_operation_xyz
x,y,z
-x,1/2-y,1/2+z
x,-y,-z
-x,1/2+y,1/2-z
-x,-y,-z
x,1/2+y,1/2-z
-x,y,z
x,1/2-y,1/2+z
1/2+x,1/2+y,z
1/2-x,-y,1/2+z
1/2+x,1/2-y,-z
1/2-x,y,1/2-z
1/2-x,1/2-y,-z
1/2+x,y,1/2-z
1/2-x,1/2+y,z
1/2+x,-y,1/2+z
loop_
_atom_site_type_symbol
_atom_site_label
_atom_site_fract_x
_atom_site_fract_y
_atom_site_fract_z
Si Si1 0.115110 0.463089 0.320221
Si Si2 0.250000 0.438743 0.750000
Si Si3 0.117507 0.727799 0.645938
Si Si4 0.888771 0.150852 0.726135
Si Si5 0.882686 0.867970 0.646684
Si Si6 0.746160 0.126612 0.603700
Si Si7 0.383177 0.428837 0.506703
O O1 0.175999 0.522680 0.297068
O O2 0.111632 0.415975 0.259496
O O3 0.175829 0.432690 0.381529
O O4 0.000000 0.480272 0.341884
O O5 0.180063 0.395914 0.793993
O O6 0.141936 0.702949 0.720216
O O7 0.153160 0.797781 0.636956
O O8 0.174987 0.686011 0.590886
O O9 0.000000 0.720061 0.630336
O O10 0.811785 0.147583 0.666497
O O11 0.000000 0.165571 0.697769
O O12 0.861661 0.907366 0.581041
O O13 0.000000 0.870402 0.666544
O O14 0.816077 0.113108 0.541227
O O15 0.352254 0.500000 0.500000
O O16 0.500000 0.419324 0.486726
#
# Coordination Sequence:
#
# PCOD8262133 Si02
#       7
#    16   8  16  16  16  16  16
#     4  10  19  31  50  82 111 136 180 232 280 326
#     4  12  20  34  58  78 106 152 188 226 276 340
#     4   9  19  35  54  78 111 143 181 230 283 331
#     4   9  17  29  51  82 108 136 179 233 278 318
#     4  10  23  39  56  80 112 149 185 230 284 331
#     4  11  18  32  58  81 109 144 186 227 275 327
#     4  10  22  38  56  82 115 149 189 231 273 330
#
# _framework density 17.98489
#
# number of rings (size 3 to 8) (size 9 to 14) (size 15 to 20)
#    0.000    2.000    1.538    4.615    2.154    0.615 
#    0.000    0.000    0.000   10.154    0.000    0.000 
#    0.000    0.000    0.000    0.000    0.000    0.000 
#
# Total GULP energy -644695.500440 kJ/mol
# GULP energy per Si atom -12397.990393 kJ/mol
# Density = 1.794396 g / cm^3
# Si number density = 17.984890 Si / 1000 Ang^3
#
#
#
# Elastic Constant Matrix: (Units=GPa)
#
#
# Indices 1 2 3 4 5 6 
#
# 1 93.5602 47.9495 36.7755 0.0000 0.0000 0.0000
# 2 47.9495 125.3993 45.1800 0.0000 0.0000 0.0000
# 3 36.7755 45.1800 57.3848 0.0000 0.0000 0.0000
# 4 0.0000 0.0000 0.0000 10.8928 0.0000 0.0000
# 5 0.0000 0.0000 0.0000 0.0000 29.7042 0.0000
# 6 0.0000 0.0000 0.0000 0.0000 0.0000 38.7450
#
#
#
# Elastic Compliance Matrix: (Units=1/GPa)
#
#
# Indices 1 2 3 4 5 6 
#
# 1 0.015157 -0.003205 -0.007190 0.000000 0.000000 0.000000
# 2 -0.003205 0.011810 -0.007244 0.000000 0.000000 0.000000
# 3 -0.007190 -0.007244 0.027738 0.000000 0.000000 0.000000
# 4 0.000000 0.000000 0.000000 0.091804 0.000000 0.000000
# 5 0.000000 0.000000 0.000000 0.000000 0.033665 0.000000
# 6 0.000000 0.000000 0.000000 0.000000 0.000000 0.025810
#
#
# Mechanical properties :
#
#
# Convention : Reuss Voigt Hill
#
# Bulk Modulus (GPa) = 51.47792 59.57270 55.52531
# Shear Modulus (GPa) = 20.18263 25.63103 22.90683
#
# Velocity S-wave (km/s) = 3.35356 3.77920 3.57272
# Velocity P-wave (km/s) = 6.60910 7.22764 6.92528
#
# Compressibility (1/GPa) = 0.01942581
#
# Stress axis : x y z
#
# Youngs Moduli (GPa) = 65.97548 84.67306 36.05225
#
# Poissons Ratio (x) = 0.27139 0.25922
# Poissons Ratio (y) = 0.21146 0.26117
# Poissons Ratio (z) = 0.47437 0.61339
#
# Static dielectric constant tensor:
#      x y z
#    x 3.892780 0.000000 0.000000 
#    y 0.000000 3.446030 0.000000 
#    z 0.000000 0.000000 2.987730 
# 
# 
# High freq. dielectric constant tensor:
#      x y z
#    x 1.715470 0.000000 0.000000 
#    y 0.000000 1.695750 0.000000 
#    z 0.000000 0.000000 1.661730 
# 
# From -- ./inp_files/32396.got.cif
#   From: 2010.03.12/outbox.cif.g09.slc.cpg/sg64_17_cif.got.tgz:32396.got - 2010.04.10 20:19:32.
