data_PCOD8262002
_publ_section_title
;
Structure prediction by ZEFSAII (Michael W. Deem and Ramdas Pophale) SiO2 
 PCOD8262002
Probable space group: C M C A
;
_chemical_formula_sum "Si O2"
_cell_formula_units_Z 128
_cell_length_a 21.330101
_cell_length_b 27.892522
_cell_length_c 13.138572
_cell_angle_alpha 90.000000
_cell_angle_beta 90.000000
_cell_angle_gamma 90.000000
_cell_volume 7816.797503
_symmetry_space_group_name_H-M "C M C A"
_symmetry_group_IT_number 64
_symmetry_cell_setting 'orthorhombic'
loop_
_space_group_symop_operation_xyz
x,y,z
-x,1/2-y,1/2+z
x,-y,-z
-x,1/2+y,1/2-z
-x,-y,-z
x,1/2+y,1/2-z
-x,y,z
x,1/2-y,1/2+z
1/2+x,1/2+y,z
1/2-x,-y,1/2+z
1/2+x,1/2-y,-z
1/2-x,y,1/2-z
1/2-x,1/2-y,-z
1/2+x,y,1/2-z
1/2-x,1/2+y,z
1/2+x,-y,1/2+z
loop_
_atom_site_type_symbol
_atom_site_label
_atom_site_fract_x
_atom_site_fract_y
_atom_site_fract_z
Si Si1 0.692896 0.674095 0.182724
Si Si2 0.859577 0.667272 0.892935
Si Si3 0.425749 0.431103 0.420050
Si Si4 0.929226 0.122733 0.252806
Si Si5 0.269468 0.801673 0.462268
Si Si6 0.856015 0.766572 0.212443
Si Si7 0.427245 0.967636 0.866172
Si Si8 0.568467 0.301592 0.581732
O O1 0.750000 0.650632 0.250000
O O2 0.626714 0.645923 0.188331
O O3 0.686882 0.728202 0.226518
O O4 0.707729 0.670740 0.063271
O O5 0.887022 0.614402 0.881796
O O6 0.784839 0.667222 0.908137
O O7 0.881171 0.694596 0.791600
O O8 0.884374 0.697766 0.988463
O O9 0.500000 0.418718 0.417184
O O10 0.398598 0.445024 0.531033
O O11 0.407746 0.476805 0.347450
O O12 0.912753 0.066308 0.269148
O O13 0.930415 0.146644 0.364455
O O14 0.000000 0.128757 0.203994
O O15 0.250000 0.750000 0.500000
O O16 0.321612 0.795630 0.376404
O O17 0.914330 0.738962 0.163305
O O18 0.500000 0.968462 0.890907
O O19 0.500000 0.290043 0.538407
#
# Coordination Sequence:
#
# PCOD8262002 Si02
#       8
#    16  16  16  16  16  16  16  16
#     4  11  19  31  51  74  98 128 177 212 248 299
#     4  12  20  30  51  70  97 132 171 202 250 298
#     4   9  17  28  47  77 103 127 155 199 256 309
#     4   9  17  30  50  74 101 131 162 206 259 306
#     4  12  20  34  49  67  95 131 175 216 238 286
#     4  11  21  34  47  68  95 135 171 206 242 293
#     4   8  14  28  49  74 103 125 155 198 248 309
#     4  10  19  30  45  70 101 127 157 200 248 294
#
# _framework density 16.374991999999999
#
# number of rings (size 3 to 8) (size 9 to 14) (size 15 to 20)
#    0.000    1.750    5.000    2.250    0.000    1.000 
#    0.000    3.125    0.000    1.500    0.000    0.000 
#    0.000    3.000    0.000    0.000    0.000    0.000 
#
# Total GULP energy -793032.079715 kJ/mol
# GULP energy per Si atom -12391.126246 kJ/mol
# Density = 1.633772 g / cm^3
# Si number density = 16.374992 Si / 1000 Ang^3
#
#
#
# Elastic Constant Matrix: (Units=GPa)
#
#
# Indices 1 2 3 4 5 6 
#
# 1 61.7193 38.6301 9.3788 0.0000 0.0000 0.0000
# 2 38.6301 108.6192 33.1471 0.0000 0.0000 0.0000
# 3 9.3788 33.1471 62.0169 0.0000 0.0000 0.0000
# 4 0.0000 0.0000 0.0000 18.6725 0.0000 0.0000
# 5 0.0000 0.0000 0.0000 0.0000 16.9817 0.0000
# 6 0.0000 0.0000 0.0000 0.0000 0.0000 19.7524
#
#
#
# Elastic Compliance Matrix: (Units=1/GPa)
#
#
# Indices 1 2 3 4 5 6 
#
# 1 0.020890 -0.007726 0.000970 0.000000 0.000000 0.000000
# 2 -0.007726 0.013858 -0.006238 0.000000 0.000000 0.000000
# 3 0.000970 -0.006238 0.019312 0.000000 0.000000 0.000000
# 4 0.000000 0.000000 0.000000 0.053555 0.000000 0.000000
# 5 0.000000 0.000000 0.000000 0.000000 0.058887 0.000000
# 6 0.000000 0.000000 0.000000 0.000000 0.000000 0.050627
#
#
# Mechanical properties :
#
#
# Convention : Reuss Voigt Hill
#
# Bulk Modulus (GPa) = 35.62218 43.85191 39.73704
# Shear Modulus (GPa) = 19.80398 21.16130 20.48264
#
# Velocity S-wave (km/s) = 3.48142 3.59875 3.54057
# Velocity P-wave (km/s) = 6.16130 6.64123 6.40576
#
# Compressibility (1/GPa) = 0.02807240
#
# Stress axis : x y z
#
# Youngs Moduli (GPa) = 47.86876 72.16123 51.78040
#
# Poissons Ratio (x) = 0.55749 -0.05023
# Poissons Ratio (y) = 0.36982 0.32303
# Poissons Ratio (z) = -0.04643 0.45018
#
# Static dielectric constant tensor:
#      x y z
#    x 3.069890 0.000000 0.000000 
#    y 0.000000 3.134480 0.000000 
#    z 0.000000 0.000000 3.549650 
# 
# 
# High freq. dielectric constant tensor:
#      x y z
#    x 1.620750 0.000000 0.000000 
#    y 0.000000 1.613520 0.000000 
#    z 0.000000 0.000000 1.607370 
# 
# From -- ./inp_files/18748.got.cif
#   From: 2010.03.12/outbox.cif.g09.slc.cpg/sg64_10_cif.got.tgz:18748.got - 2010.04.10 20:19:32.
