data_PCOD8262667
_publ_section_title
;
Structure prediction by ZEFSAII (Michael W. Deem and Ramdas Pophale) SiO2 
 PCOD8262667
Probable space group: C M C A
;
_chemical_formula_sum "Si O2"
_cell_formula_units_Z 88
_cell_length_a 14.986080
_cell_length_b 15.247847
_cell_length_c 19.063927
_cell_angle_alpha 90.000000
_cell_angle_beta 90.000000
_cell_angle_gamma 90.000000
_cell_volume 4356.211313
_symmetry_space_group_name_H-M "C M C A"
_symmetry_group_IT_number 64
_symmetry_cell_setting 'orthorhombic'
loop_
_space_group_symop_operation_xyz
x,y,z
-x,1/2-y,1/2+z
x,-y,-z
-x,1/2+y,1/2-z
-x,-y,-z
x,1/2+y,1/2-z
-x,y,z
x,1/2-y,1/2+z
1/2+x,1/2+y,z
1/2-x,-y,1/2+z
1/2+x,1/2-y,-z
1/2-x,y,1/2-z
1/2-x,1/2-y,-z
1/2+x,y,1/2-z
1/2-x,1/2+y,z
1/2+x,-y,1/2+z
loop_
_atom_site_type_symbol
_atom_site_label
_atom_site_fract_x
_atom_site_fract_y
_atom_site_fract_z
Si Si1 0.138136 0.213640 0.893697
Si Si2 0.000000 0.467669 0.180417
Si Si3 0.648505 0.146084 0.756949
Si Si4 0.399667 0.593414 0.021810
Si Si5 0.500000 0.355400 0.452179
Si Si6 0.500000 0.139210 0.105495
Si Si7 0.158213 0.746404 0.392814
O O1 0.114406 0.173000 0.818695
O O2 0.242592 0.222209 0.910251
O O3 0.091219 0.306963 0.890608
O O4 0.096539 0.153318 0.953118
O O5 0.910610 0.436256 0.219200
O O6 0.000000 0.433227 0.101941
O O7 0.000000 0.571997 0.170705
O O8 0.750000 0.113835 0.750000
O O9 0.637856 0.228675 0.811307
O O10 0.500000 0.574582 0.047840
O O11 0.349769 0.642541 0.087265
O O12 0.353841 0.500000 0.000000
O O13 0.500000 0.402083 0.527595
O O14 0.588040 0.295089 0.443276
#
# Coordination Sequence:
#
# PCOD8262667 Si02
#       7
#    16   8  16  16   8   8  16
#     4  11  21  40  62  86 123 161 200 258 312 363
#     4  10  22  39  61  90 119 161 193 251 318 355
#     4   9  21  41  63  85 119 159 205 250 305 369
#     4  11  22  39  60  90 122 160 209 257 306 370
#     4  10  19  38  62  84 120 151 205 253 299 369
#     4  12  22  37  57  92 122 153 205 249 306 370
#     4  10  19  40  64  84 118 165 201 251 313 371
#
# _framework density 20.201039999999999
#
# number of rings (size 3 to 8) (size 9 to 14) (size 15 to 20)
#    0.000    1.636    3.636    1.364    0.000    0.000 
#   13.091    0.909    0.000    0.000    0.000    0.000 
#    0.000    0.000    0.000    0.000    0.000    0.000 
#
# Total GULP energy -545360.418668 kJ/mol
# GULP energy per Si atom -12394.554970 kJ/mol
# Density = 2.015506 g / cm^3
# Si number density = 20.201040 Si / 1000 Ang^3
#
#
#
# Elastic Constant Matrix: (Units=GPa)
#
#
# Indices 1 2 3 4 5 6 
#
# 1 112.0279 40.4768 38.8356 0.0000 0.0000 0.0000
# 2 40.4768 117.8728 40.4280 0.0000 0.0000 0.0000
# 3 38.8356 40.4280 106.6793 0.0000 0.0000 0.0000
# 4 0.0000 0.0000 0.0000 27.0763 0.0000 0.0000
# 5 0.0000 0.0000 0.0000 0.0000 24.2115 0.0000
# 6 0.0000 0.0000 0.0000 0.0000 0.0000 15.6125
#
#
#
# Elastic Compliance Matrix: (Units=1/GPa)
#
#
# Indices 1 2 3 4 5 6 
#
# 1 0.010939 -0.002748 -0.002941 0.000000 0.000000 0.000000
# 2 -0.002748 0.010441 -0.002957 0.000000 0.000000 0.000000
# 3 -0.002941 -0.002957 0.011565 0.000000 0.000000 0.000000
# 4 0.000000 0.000000 0.000000 0.036933 0.000000 0.000000
# 5 0.000000 0.000000 0.000000 0.000000 0.041303 0.000000
# 6 0.000000 0.000000 0.000000 0.000000 0.000000 0.064051
#
#
# Mechanical properties :
#
#
# Convention : Reuss Voigt Hill
#
# Bulk Modulus (GPa) = 63.87891 64.00674 63.94282
# Shear Modulus (GPa) = 25.28576 27.83604 26.56090
#
# Velocity S-wave (km/s) = 3.54178 3.71610 3.62999
# Velocity P-wave (km/s) = 6.95815 7.08281 7.02076
#
# Compressibility (1/GPa) = 0.01565462
#
# Stress axis : x y z
#
# Youngs Moduli (GPa) = 91.41980 95.77351 86.46808
#
# Poissons Ratio (x) = 0.26315 0.25429
# Poissons Ratio (y) = 0.25118 0.25566
# Poissons Ratio (z) = 0.26885 0.28317
#
# Static dielectric constant tensor:
#      x y z
#    x 3.743170 0.000000 0.000000 
#    y 0.000000 3.536840 0.000000 
#    z 0.000000 0.000000 3.843120 
# 
# 
# High freq. dielectric constant tensor:
#      x y z
#    x 1.796200 0.000000 0.000000 
#    y 0.000000 1.764390 0.000000 
#    z 0.000000 0.000000 1.798020 
# 
# From -- ./inp_files/33163.got.cif
#   From: 2010.03.12/outbox.cif.g09.slc.cpg/sg64_17_cif.got.tgz:33163.got - 2010.04.10 20:19:32.
