data_PCOD8262073
_publ_section_title
;
Structure prediction by ZEFSAII (Michael W. Deem and Ramdas Pophale) SiO2 
 PCOD8262073
Probable space group: C M C A
;
_chemical_formula_sum "Si O2"
_cell_formula_units_Z 80
_cell_length_a 9.113214
_cell_length_b 31.672386
_cell_length_c 14.086995
_cell_angle_alpha 90.000000
_cell_angle_beta 90.000000
_cell_angle_gamma 90.000000
_cell_volume 4066.031237
_symmetry_space_group_name_H-M "C M C A"
_symmetry_group_IT_number 64
_symmetry_cell_setting 'orthorhombic'
loop_
_space_group_symop_operation_xyz
x,y,z
-x,1/2-y,1/2+z
x,-y,-z
-x,1/2+y,1/2-z
-x,-y,-z
x,1/2+y,1/2-z
-x,y,z
x,1/2-y,1/2+z
1/2+x,1/2+y,z
1/2-x,-y,1/2+z
1/2+x,1/2-y,-z
1/2-x,y,1/2-z
1/2-x,1/2-y,-z
1/2+x,y,1/2-z
1/2-x,1/2+y,z
1/2+x,-y,1/2+z
loop_
_atom_site_type_symbol
_atom_site_label
_atom_site_fract_x
_atom_site_fract_y
_atom_site_fract_z
Si Si1 0.829967 0.939165 0.337093
Si Si2 0.836579 0.482069 0.605092
Si Si3 0.330887 0.905127 0.958275
Si Si4 0.329824 0.689536 0.480869
Si Si5 0.827321 0.232281 0.851526
O O1 0.750000 0.914933 0.250000
O O2 0.794826 0.913664 0.431795
O O3 0.000000 0.941763 0.315205
O O4 0.767280 0.986779 0.336830
O O5 0.843269 0.500000 0.500000
O O6 0.768232 0.434971 0.607816
O O7 0.000000 0.480146 0.649130
O O8 0.500000 0.915685 0.936603
O O9 0.292305 0.856449 0.938363
O O10 0.500000 0.692639 0.510813
O O11 0.234815 0.697440 0.575504
O O12 0.291445 0.722069 0.396913
O O13 0.750000 0.228442 0.750000
O O14 0.000000 0.225039 0.838120
#
# Coordination Sequence:
#
# PCOD8262073 Si02
#       5
#    16  16  16  16  16
#     4  10  19  31  48  70  98 131 167 208 254 302
#     4   9  17  30  48  69  94 126 163 199 238 289
#     4   9  18  33  52  73  99 131 166 208 256 303
#     4   9  19  36  56  79 106 138 177 218 263 315
#     4  10  20  35  56  79 106 139 174 215 263 318
#
# _framework density 19.675204999999998
#
# number of rings (size 3 to 8) (size 9 to 14) (size 15 to 20)
#    0.000    2.600    0.000    1.800    0.000    5.600 
#    0.000    3.000    0.000    2.400    0.000    0.000 
#    0.000    0.000    0.000    0.000    0.000    0.000 
#
# Total GULP energy -495930.678793 kJ/mol
# GULP energy per Si atom -12398.266970 kJ/mol
# Density = 1.963042 g / cm^3
# Si number density = 19.675205 Si / 1000 Ang^3
#
#
#
# Elastic Constant Matrix: (Units=GPa)
#
#
# Indices 1 2 3 4 5 6 
#
# 1 78.1243 7.0020 13.5916 0.0000 0.0000 0.0000
# 2 7.0020 68.9641 -17.4529 0.0000 0.0000 0.0000
# 3 13.5916 -17.4529 39.9651 0.0000 0.0000 0.0000
# 4 0.0000 0.0000 0.0000 12.4063 0.0000 0.0000
# 5 0.0000 0.0000 0.0000 0.0000 30.6766 0.0000
# 6 0.0000 0.0000 0.0000 0.0000 0.0000 27.5319
#
#
#
# Elastic Compliance Matrix: (Units=1/GPa)
#
#
# Indices 1 2 3 4 5 6 
#
# 1 0.014130 -0.002980 -0.006107 0.000000 0.000000 0.000000
# 2 -0.002980 0.016930 0.008407 0.000000 0.000000 0.000000
# 3 -0.006107 0.008407 0.030770 0.000000 0.000000 0.000000
# 4 0.000000 0.000000 0.000000 0.080604 0.000000 0.000000
# 5 0.000000 0.000000 0.000000 0.000000 0.032598 0.000000
# 6 0.000000 0.000000 0.000000 0.000000 0.000000 0.036321
#
#
# Mechanical properties :
#
#
# Convention : Reuss Voigt Hill
#
# Bulk Modulus (GPa) = 16.53691 21.48166 19.00929
# Shear Modulus (GPa) = 21.47120 26.38382 23.92751
#
# Velocity S-wave (km/s) = 3.30704 3.66590 3.49108
# Velocity P-wave (km/s) = 4.79638 5.37217 5.09242
#
# Compressibility (1/GPa) = 0.06047078
#
# Stress axis : x y z
#
# Youngs Moduli (GPa) = 70.77341 59.06513 32.49917
#
# Poissons Ratio (x) = 0.17602 0.19846
# Poissons Ratio (y) = 0.21091 -0.27322
# Poissons Ratio (z) = 0.43219 -0.49656
#
# Static dielectric constant tensor:
#      x y z
#    x 3.697200 0.000000 0.000000 
#    y 0.000000 3.562190 0.000000 
#    z 0.000000 0.000000 3.499100 
# 
# 
# High freq. dielectric constant tensor:
#      x y z
#    x 1.773210 0.000000 0.000000 
#    y 0.000000 1.757230 0.000000 
#    z 0.000000 0.000000 1.754270 
# 
# From -- ./inp_files/29997.got.cif
#   From: 2010.03.12/outbox.cif.g09.slc.cpg/sg64_15_cif.got.tgz:29997.got - 2010.04.10 20:19:32.
