data_PCOD8262021
_publ_section_title
;
Structure prediction by ZEFSAII (Michael W. Deem and Ramdas Pophale) SiO2 
 PCOD8262021
Probable space group: C M C A
;
_chemical_formula_sum "Si O2"
_cell_formula_units_Z 80
_cell_length_a 9.282724
_cell_length_b 19.290006
_cell_length_c 25.716671
_cell_angle_alpha 90.000000
_cell_angle_beta 90.000000
_cell_angle_gamma 90.000000
_cell_volume 4604.924875
_symmetry_space_group_name_H-M "C M C A"
_symmetry_group_IT_number 64
_symmetry_cell_setting 'orthorhombic'
loop_
_space_group_symop_operation_xyz
x,y,z
-x,1/2-y,1/2+z
x,-y,-z
-x,1/2+y,1/2-z
-x,-y,-z
x,1/2+y,1/2-z
-x,y,z
x,1/2-y,1/2+z
1/2+x,1/2+y,z
1/2-x,-y,1/2+z
1/2+x,1/2-y,-z
1/2-x,y,1/2-z
1/2-x,1/2-y,-z
1/2+x,y,1/2-z
1/2-x,1/2+y,z
1/2+x,-y,1/2+z
loop_
_atom_site_type_symbol
_atom_site_label
_atom_site_fract_x
_atom_site_fract_y
_atom_site_fract_z
Si Si1 0.158612 0.418005 0.993866
Si Si2 0.667575 0.165003 0.300724
Si Si3 0.830404 0.075793 0.607275
Si Si4 0.331675 0.176535 0.800959
Si Si5 0.830085 0.067493 0.104408
O O1 0.272056 0.398079 0.949151
O O2 0.000000 0.389343 0.978575
O O3 0.151448 0.500000 0.000000
O O4 0.206019 0.389929 0.050845
O O5 0.500000 0.157822 0.288710
O O6 0.750000 0.137278 0.250000
O O7 0.710749 0.244204 0.313067
O O8 0.713398 0.119290 0.349709
O O9 0.781603 0.130926 0.650244
O O10 0.000000 0.058088 0.610360
O O11 0.742511 0.005722 0.616757
O O12 0.500000 0.168336 0.790398
O O13 0.250000 0.149076 0.750000
O O14 0.000000 0.057280 0.099128
#
# Coordination Sequence:
#
# PCOD8262021 Si02
#       5
#    16  16  16  16  16
#     4   8  15  29  47  67  92 124 157 184 222 276
#     4   9  19  34  50  68  92 124 157 189 230 276
#     4   9  18  32  50  70  93 123 156 190 228 273
#     4   9  18  34  52  68  91 123 157 192 230 273
#     4  10  19  30  47  72  98 121 150 192 234 270
#
# _framework density 17.372703999999999
#
# number of rings (size 3 to 8) (size 9 to 14) (size 15 to 20)
#    0.000    3.000    0.000    1.800    0.000    6.800 
#    0.000    5.000    0.000    0.000    0.000    0.000 
#    0.000    0.000    0.000    0.000    0.000    0.000 
#
# Total GULP energy -495885.658195 kJ/mol
# GULP energy per Si atom -12397.141455 kJ/mol
# Density = 1.733316 g / cm^3
# Si number density = 17.372704 Si / 1000 Ang^3
#
#
#
# Elastic Constant Matrix: (Units=GPa)
#
#
# Indices 1 2 3 4 5 6 
#
# 1 65.5831 41.4006 72.0324 0.0000 0.0000 0.0000
# 2 41.4006 63.3895 74.6862 0.0000 0.0000 0.0000
# 3 72.0324 74.6862 185.8444 0.0000 0.0000 0.0000
# 4 0.0000 0.0000 0.0000 11.3258 0.0000 0.0000
# 5 0.0000 0.0000 0.0000 0.0000 34.8853 0.0000
# 6 0.0000 0.0000 0.0000 0.0000 0.0000 17.8485
#
#
#
# Elastic Compliance Matrix: (Units=1/GPa)
#
#
# Indices 1 2 3 4 5 6 
#
# 1 0.030287 -0.011300 -0.007198 0.000000 0.000000 0.000000
# 2 -0.011300 0.034179 -0.009356 0.000000 0.000000 0.000000
# 3 -0.007198 -0.009356 0.011930 0.000000 0.000000 0.000000
# 4 0.000000 0.000000 0.000000 0.088294 0.000000 0.000000
# 5 0.000000 0.000000 0.000000 0.000000 0.028665 0.000000
# 6 0.000000 0.000000 0.000000 0.000000 0.000000 0.056027
#
#
# Mechanical properties :
#
#
# Convention : Reuss Voigt Hill
#
# Bulk Modulus (GPa) = 48.33551 76.78394 62.55973
# Shear Modulus (GPa) = 16.02633 21.25844 18.64239
#
# Velocity S-wave (km/s) = 3.04056 3.50189 3.27935
# Velocity P-wave (km/s) = 6.34112 7.78749 7.10122
#
# Compressibility (1/GPa) = 0.02068872
#
# Stress axis : x y z
#
# Youngs Moduli (GPa) = 33.01756 29.25789 83.81908
#
# Poissons Ratio (x) = 0.33062 0.60331
# Poissons Ratio (y) = 0.37311 0.78418
# Poissons Ratio (z) = 0.23765 0.27373
#
# Static dielectric constant tensor:
#      x y z
#    x 3.209940 0.000000 0.000000 
#    y 0.000000 3.021660 0.000000 
#    z 0.000000 0.000000 3.724150 
# 
# 
# High freq. dielectric constant tensor:
#      x y z
#    x 1.669150 0.000000 0.000000 
#    y 0.000000 1.640490 0.000000 
#    z 0.000000 0.000000 1.686080 
# 
# From -- ./inp_files/47800.got.cif
#   From: 2010.03.12/outbox.cif.g09.slc.cpg/sg64_24_cif.got.tgz:47800.got - 2010.04.10 20:19:32.
