data_PCOD8262457
_publ_section_title
;
Structure prediction by ZEFSAII (Michael W. Deem and Ramdas Pophale) SiO2 
 PCOD8262457
Probable space group: C M C A
;
_chemical_formula_sum "Si O2"
_cell_formula_units_Z 88
_cell_length_a 13.837004
_cell_length_b 13.225294
_cell_length_c 24.254259
_cell_angle_alpha 90.000000
_cell_angle_beta 90.000000
_cell_angle_gamma 90.000000
_cell_volume 4438.491705
_symmetry_space_group_name_H-M "C M C A"
_symmetry_group_IT_number 64
_symmetry_cell_setting 'orthorhombic'
loop_
_space_group_symop_operation_xyz
x,y,z
-x,1/2-y,1/2+z
x,-y,-z
-x,1/2+y,1/2-z
-x,-y,-z
x,1/2+y,1/2-z
-x,y,z
x,1/2-y,1/2+z
1/2+x,1/2+y,z
1/2-x,-y,1/2+z
1/2+x,1/2-y,-z
1/2-x,y,1/2-z
1/2-x,1/2-y,-z
1/2+x,y,1/2-z
1/2-x,1/2+y,z
1/2+x,-y,1/2+z
loop_
_atom_site_type_symbol
_atom_site_label
_atom_site_fract_x
_atom_site_fract_y
_atom_site_fract_z
Si Si1 0.108315 0.481940 0.310966
Si Si2 0.395792 0.612918 0.928634
Si Si3 0.760005 0.000000 0.500000
Si Si4 0.202358 0.804044 0.551938
Si Si5 0.888610 0.278010 0.259176
Si Si6 0.776515 0.679967 0.328673
O O1 0.110650 0.415517 0.365652
O O2 0.131480 0.398008 0.264661
O O3 0.190539 0.566812 0.311925
O O4 0.000000 0.528858 0.302735
O O5 0.500000 0.581254 0.953698
O O6 0.308499 0.560154 0.959062
O O7 0.389244 0.735624 0.932094
O O8 0.825400 0.919224 0.533867
O O9 0.250000 0.750000 0.500000
O O10 0.273970 0.809145 0.605011
O O11 0.857750 0.255101 0.196035
O O12 0.826260 0.206226 0.300361
O O13 0.000000 0.251224 0.270043
#
# Coordination Sequence:
#
# PCOD8262457 Si02
#       6
#    16  16   8  16  16  16
#     4  10  20  37  60  89 120 156 204 247 297 364
#     4  10  19  34  58  84 117 156 199 247 293 349
#     4  10  19  36  57  86 116 156 206 250 291 362
#     4  10  21  36  57  89 120 154 200 247 305 358
#     4  10  23  40  61  89 119 158 205 252 301 361
#     4  11  21  38  62  87 121 162 197 248 306 360
#
# _framework density 19.826554000000002
#
# number of rings (size 3 to 8) (size 9 to 14) (size 15 to 20)
#    0.000    1.818    3.636    0.818    0.000    2.909 
#    0.000    1.364    0.000    1.091    0.000    0.000 
#    0.000    0.000    0.000    0.000    0.000    0.000 
#
# Total GULP energy -545080.501306 kJ/mol
# GULP energy per Si atom -12388.193212 kJ/mol
# Density = 1.978143 g / cm^3
# Si number density = 19.826554 Si / 1000 Ang^3
#
#
#
# Elastic Constant Matrix: (Units=GPa)
#
#
# Indices 1 2 3 4 5 6 
#
# 1 88.6115 39.9700 19.8015 0.0000 0.0000 0.0000
# 2 39.9700 118.7840 43.9683 0.0000 0.0000 0.0000
# 3 19.8015 43.9683 101.6519 0.0000 0.0000 0.0000
# 4 0.0000 0.0000 0.0000 38.5529 0.0000 0.0000
# 5 0.0000 0.0000 0.0000 0.0000 18.6098 0.0000
# 6 0.0000 0.0000 0.0000 0.0000 0.0000 47.1995
#
#
#
# Elastic Compliance Matrix: (Units=1/GPa)
#
#
# Indices 1 2 3 4 5 6 
#
# 1 0.013357 -0.004205 -0.000783 0.000000 0.000000 0.000000
# 2 -0.004205 0.011347 -0.004089 0.000000 0.000000 0.000000
# 3 -0.000783 -0.004089 0.011759 0.000000 0.000000 0.000000
# 4 0.000000 0.000000 0.000000 0.025938 0.000000 0.000000
# 5 0.000000 0.000000 0.000000 0.000000 0.053735 0.000000
# 6 0.000000 0.000000 0.000000 0.000000 0.000000 0.021187
#
#
# Mechanical properties :
#
#
# Convention : Reuss Voigt Hill
#
# Bulk Modulus (GPa) = 54.61805 57.39189 56.00497
# Shear Modulus (GPa) = 30.94461 34.55964 32.75213
#
# Velocity S-wave (km/s) = 3.95494 4.17957 4.06881
# Velocity P-wave (km/s) = 6.96155 7.23198 7.09805
#
# Compressibility (1/GPa) = 0.01830897
#
# Stress axis : x y z
#
# Youngs Moduli (GPa) = 74.86830 88.12917 85.04343
#
# Poissons Ratio (x) = 0.37054 0.06661
# Poissons Ratio (y) = 0.31479 0.34774
# Poissons Ratio (z) = 0.05864 0.36036
#
# Static dielectric constant tensor:
#      x y z
#    x 3.637210 0.000000 0.000000 
#    y 0.000000 4.123370 0.000000 
#    z 0.000000 0.000000 3.888540 
# 
# 
# High freq. dielectric constant tensor:
#      x y z
#    x 1.747330 0.000000 0.000000 
#    y 0.000000 1.784670 0.000000 
#    z 0.000000 0.000000 1.775680 
# 
# From -- ./inp_files/49943.got.cif
#   From: 2010.03.12/outbox.cif.g09.slc.cpg/sg64_25_cif.got.tgz:49943.got - 2010.04.10 20:19:32.
