data_PCOD8262960
_publ_section_title
;
Structure prediction by ZEFSAII (Michael W. Deem and Ramdas Pophale) SiO2 
 PCOD8262960
Probable space group: C M C A
;
_chemical_formula_sum "Si O2"
_cell_formula_units_Z 80
_cell_length_a 22.430606
_cell_length_b 8.994727
_cell_length_c 21.615587
_cell_angle_alpha 90.000000
_cell_angle_beta 90.000000
_cell_angle_gamma 90.000000
_cell_volume 4361.099821
_symmetry_space_group_name_H-M "C M C A"
_symmetry_group_IT_number 64
_symmetry_cell_setting 'orthorhombic'
loop_
_space_group_symop_operation_xyz
x,y,z
-x,1/2-y,1/2+z
x,-y,-z
-x,1/2+y,1/2-z
-x,-y,-z
x,1/2+y,1/2-z
-x,y,z
x,1/2-y,1/2+z
1/2+x,1/2+y,z
1/2-x,-y,1/2+z
1/2+x,1/2-y,-z
1/2-x,y,1/2-z
1/2-x,1/2-y,-z
1/2+x,y,1/2-z
1/2-x,1/2+y,z
1/2+x,-y,1/2+z
loop_
_atom_site_type_symbol
_atom_site_label
_atom_site_fract_x
_atom_site_fract_y
_atom_site_fract_z
Si Si1 0.136756 0.586507 0.939295
Si Si2 0.432059 0.835121 0.494839
Si Si3 0.567786 0.163237 0.128107
Si Si4 0.287548 0.121298 0.824126
Si Si5 0.323338 0.293949 0.711827
O O1 0.106902 0.738822 0.958901
O O2 0.087726 0.492344 0.901833
O O3 0.192333 0.622754 0.895307
O O4 0.160258 0.500000 0.000000
O O5 0.500000 0.823989 0.517689
O O6 0.426646 0.788679 0.423710
O O7 0.406696 0.000000 0.500000
O O8 0.500000 0.148221 0.152398
O O9 0.609899 0.209695 0.185001
O O10 0.325601 0.241057 0.783427
O O11 0.218689 0.173520 0.823376
O O12 0.294922 0.957469 0.794904
#
# Coordination Sequence:
#
# PCOD8262960 Si02
#       5
#    16  16  16  16  16
#     4   9  18  34  54  77 104 139 178 214 262 319
#     4   9  17  29  48  75 104 135 170 210 257 305
#     4   9  18  34  53  73 102 136 170 209 255 311
#     4  10  20  35  55  76 104 137 177 218 263 319
#     4  10  20  35  54  76 100 136 175 213 263 315
#
# _framework density 18.343997000000002
#
# number of rings (size 3 to 8) (size 9 to 14) (size 15 to 20)
#    0.000    2.600    0.000    3.000    0.000    5.600 
#    0.000   15.000    0.000    0.000    0.000    0.000 
#    0.000    0.000    0.000    0.000    0.000    0.000 
#
# Total GULP energy -495842.720790 kJ/mol
# GULP energy per Si atom -12396.068020 kJ/mol
# Density = 1.830225 g / cm^3
# Si number density = 18.343997 Si / 1000 Ang^3
#
#
#
# Elastic Constant Matrix: (Units=GPa)
#
#
# Indices 1 2 3 4 5 6 
#
# 1 108.5411 30.9191 58.0294 0.0000 0.0000 0.0000
# 2 30.9191 115.8780 36.5949 0.0000 0.0000 0.0000
# 3 58.0294 36.5949 105.4777 0.0000 0.0000 0.0000
# 4 0.0000 0.0000 0.0000 20.5183 0.0000 0.0000
# 5 0.0000 0.0000 0.0000 0.0000 38.6393 0.0000
# 6 0.0000 0.0000 0.0000 0.0000 0.0000 22.8479
#
#
#
# Elastic Compliance Matrix: (Units=1/GPa)
#
#
# Indices 1 2 3 4 5 6 
#
# 1 0.013247 -0.001385 -0.006808 0.000000 0.000000 0.000000
# 2 -0.001385 0.009836 -0.002651 0.000000 0.000000 0.000000
# 3 -0.006808 -0.002651 0.014146 0.000000 0.000000 0.000000
# 4 0.000000 0.000000 0.000000 0.048737 0.000000 0.000000
# 5 0.000000 0.000000 0.000000 0.000000 0.025880 0.000000
# 6 0.000000 0.000000 0.000000 0.000000 0.000000 0.043768
#
#
# Mechanical properties :
#
#
# Convention : Reuss Voigt Hill
#
# Bulk Modulus (GPa) = 64.33866 64.55373 64.44620
# Shear Modulus (GPa) = 27.40006 30.02466 28.71236
#
# Velocity S-wave (km/s) = 3.86901 4.05007 3.96058
# Velocity P-wave (km/s) = 7.42351 7.55896 7.49154
#
# Compressibility (1/GPa) = 0.01554275
#
# Stress axis : x y z
#
# Youngs Moduli (GPa) = 75.48820 101.66309 70.69333
#
# Poissons Ratio (x) = 0.14078 0.48125
# Poissons Ratio (y) = 0.10454 0.18740
# Poissons Ratio (z) = 0.51389 0.26949
#
# Static dielectric constant tensor:
#      x y z
#    x 3.284040 0.000000 0.000000 
#    y 0.000000 3.564130 0.000000 
#    z 0.000000 0.000000 3.349450 
# 
# 
# High freq. dielectric constant tensor:
#      x y z
#    x 1.696630 0.000000 0.000000 
#    y 0.000000 1.722000 0.000000 
#    z 0.000000 0.000000 1.701460 
# 
# From -- ./inp_files/35366.got.cif
#   From: 2010.03.12/outbox.cif.g09.slc.cpg/sg64_18_cif.got.tgz:35366.got - 2010.04.10 20:19:32.
