data_PCOD8262067
_publ_section_title
;
Structure prediction by ZEFSAII (Michael W. Deem and Ramdas Pophale) SiO2 
 PCOD8262067
Probable space group: C M C A
;
_chemical_formula_sum "Si O2"
_cell_formula_units_Z 128
_cell_length_a 19.071056
_cell_length_b 18.001263
_cell_length_c 23.376316
_cell_angle_alpha 90.000000
_cell_angle_beta 90.000000
_cell_angle_gamma 90.000000
_cell_volume 8025.161627
_symmetry_space_group_name_H-M "C M C A"
_symmetry_group_IT_number 64
_symmetry_cell_setting 'orthorhombic'
loop_
_space_group_symop_operation_xyz
x,y,z
-x,1/2-y,1/2+z
x,-y,-z
-x,1/2+y,1/2-z
-x,-y,-z
x,1/2+y,1/2-z
-x,y,z
x,1/2-y,1/2+z
1/2+x,1/2+y,z
1/2-x,-y,1/2+z
1/2+x,1/2-y,-z
1/2-x,y,1/2-z
1/2-x,1/2-y,-z
1/2+x,y,1/2-z
1/2-x,1/2+y,z
1/2+x,-y,1/2+z
loop_
_atom_site_type_symbol
_atom_site_label
_atom_site_fract_x
_atom_site_fract_y
_atom_site_fract_z
Si Si1 0.920735 0.002018 0.402335
Si Si2 0.169152 0.259411 0.846415
Si Si3 0.579460 0.496154 0.267872
Si Si4 0.326457 0.750345 0.654952
Si Si5 0.825780 0.136620 0.758300
Si Si6 0.331684 0.633014 0.243147
Si Si7 0.418522 0.159371 0.931500
Si Si8 0.081229 0.338995 0.937302
O O1 0.886111 0.924027 0.423059
O O2 0.000000 0.999904 0.425267
O O3 0.915327 0.006584 0.334996
O O4 0.886086 0.077665 0.427606
O O5 0.248694 0.265222 0.869554
O O6 0.161188 0.176865 0.819454
O O7 0.146882 0.318958 0.798332
O O8 0.119515 0.275247 0.900564
O O9 0.500000 0.500930 0.246228
O O10 0.609202 0.417087 0.249603
O O11 0.624520 0.558574 0.237552
O O12 0.322952 0.696351 0.708504
O O13 0.351847 0.827413 0.683138
O O14 0.377507 0.720046 0.606002
O O15 0.750000 0.095370 0.750000
O O16 0.250000 0.614461 0.250000
O O17 0.500000 0.160219 0.912084
O O18 0.409642 0.183599 0.996879
O O19 0.000000 0.339799 0.918616
#
# Coordination Sequence:
#
# PCOD8262067 Si02
#       8
#    16  16  16  16  16  16  16  16
#     4   9  17  29  44  68  97 120 148 183 224 278
#     4   9  18  32  48  68  92 122 157 191 228 272
#     4  11  19  28  47  73  94 123 156 183 226 282
#     4   9  18  32  48  68  92 122 157 191 228 272
#     4   9  18  32  48  67  95 124 152 188 232 276
#     4   9  18  32  48  67  95 124 152 188 232 276
#     4  10  19  31  48  69  95 126 155 187 231 275
#     4  10  19  31  48  69  95 126 155 187 231 275
#
# _framework density 15.949833999999999
#
# number of rings (size 3 to 8) (size 9 to 14) (size 15 to 20)
#    0.000    2.500    2.500    2.250    0.000    3.000 
#    0.000    2.500    0.000    0.000    0.000    0.875 
#    0.000    3.000    0.000    0.000    0.000    0.000 
#
# Total GULP energy -793140.401397 kJ/mol
# GULP energy per Si atom -12392.818772 kJ/mol
# Density = 1.591353 g / cm^3
# Si number density = 15.949834 Si / 1000 Ang^3
#
#
#
# Elastic Constant Matrix: (Units=GPa)
#
#
# Indices 1 2 3 4 5 6 
#
# 1 58.1973 23.3690 32.2311 0.0000 0.0000 0.0000
# 2 23.3690 33.0981 13.0090 0.0000 0.0000 0.0000
# 3 32.2311 13.0090 64.0966 0.0000 0.0000 0.0000
# 4 0.0000 0.0000 0.0000 6.7285 0.0000 0.0000
# 5 0.0000 0.0000 0.0000 0.0000 23.5696 0.0000
# 6 0.0000 0.0000 0.0000 0.0000 0.0000 15.5725
#
#
#
# Elastic Compliance Matrix: (Units=1/GPa)
#
#
# Indices 1 2 3 4 5 6 
#
# 1 0.030588 -0.016899 -0.011951 0.000000 0.000000 0.000000
# 2 -0.016899 0.042169 -0.000061 0.000000 0.000000 0.000000
# 3 -0.011951 -0.000061 0.021623 0.000000 0.000000 0.000000
# 4 0.000000 0.000000 0.000000 0.148621 0.000000 0.000000
# 5 0.000000 0.000000 0.000000 0.000000 0.042428 0.000000
# 6 0.000000 0.000000 0.000000 0.000000 0.000000 0.064216
#
#
# Mechanical properties :
#
#
# Convention : Reuss Voigt Hill
#
# Bulk Modulus (GPa) = 27.35406 32.51225 29.93316
# Shear Modulus (GPa) = 11.91462 14.95965 13.43714
#
# Velocity S-wave (km/s) = 2.73611 3.06587 2.90567
# Velocity P-wave (km/s) = 5.21239 5.74117 5.48316
#
# Compressibility (1/GPa) = 0.03655764
#
# Stress axis : x y z
#
# Youngs Moduli (GPa) = 32.69302 23.71424 46.24609
#
# Poissons Ratio (x) = 0.40075 0.55270
# Poissons Ratio (y) = 0.55248 0.00281
# Poissons Ratio (z) = 0.39072 0.00144
#
# Static dielectric constant tensor:
#      x y z
#    x 3.184030 0.000000 0.000000 
#    y 0.000000 3.034630 0.000000 
#    z 0.000000 0.000000 2.893280 
# 
# 
# High freq. dielectric constant tensor:
#      x y z
#    x 1.596610 0.000000 0.000000 
#    y 0.000000 1.606990 0.000000 
#    z 0.000000 0.000000 1.596990 
# 
# From -- ./inp_files/35178.got.cif
#   From: 2010.03.12/outbox.cif.g09.slc.cpg/sg64_18_cif.got.tgz:35178.got - 2010.04.10 20:19:32.
