data_PCOD8262659
_publ_section_title
;
Structure prediction by ZEFSAII (Michael W. Deem and Ramdas Pophale) SiO2 
 PCOD8262659
Probable space group: C M C A
;
_chemical_formula_sum "Si O2"
_cell_formula_units_Z 112
_cell_length_a 29.719591
_cell_length_b 11.272261
_cell_length_c 17.632053
_cell_angle_alpha 90.000000
_cell_angle_beta 90.000000
_cell_angle_gamma 90.000000
_cell_volume 5906.860942
_symmetry_space_group_name_H-M "C M C A"
_symmetry_group_IT_number 64
_symmetry_cell_setting 'orthorhombic'
loop_
_space_group_symop_operation_xyz
x,y,z
-x,1/2-y,1/2+z
x,-y,-z
-x,1/2+y,1/2-z
-x,-y,-z
x,1/2+y,1/2-z
-x,y,z
x,1/2-y,1/2+z
1/2+x,1/2+y,z
1/2-x,-y,1/2+z
1/2+x,1/2-y,-z
1/2-x,y,1/2-z
1/2-x,1/2-y,-z
1/2+x,y,1/2-z
1/2-x,1/2+y,z
1/2+x,-y,1/2+z
loop_
_atom_site_type_symbol
_atom_site_label
_atom_site_fract_x
_atom_site_fract_y
_atom_site_fract_z
Si Si1 0.877934 0.240807 0.967174
Si Si2 0.621752 0.128367 0.826083
Si Si3 0.320449 0.958042 0.921086
Si Si4 0.344615 0.093344 0.661512
Si Si5 0.829323 0.829318 0.887274
Si Si6 0.448193 0.117312 0.949589
Si Si7 0.735947 0.281080 0.665719
O O1 0.860183 0.365763 0.937174
O O2 0.880950 0.147655 0.897720
O O3 0.843554 0.180127 0.025566
O O4 0.925654 0.270037 0.006982
O O5 0.627346 0.084691 0.740049
O O6 0.633763 0.268131 0.831531
O O7 0.573295 0.101234 0.864877
O O8 0.658980 0.070992 0.880217
O O9 0.283717 0.902554 0.866605
O O10 0.297977 0.000000 0.000000
O O11 0.299644 0.173838 0.663275
O O12 0.326773 0.965297 0.638016
O O13 0.781695 0.759200 0.881026
O O14 0.500000 0.148587 0.937364
O O15 0.441820 0.000000 0.000000
O O16 0.750000 0.310537 0.750000
#
# Coordination Sequence:
#
# PCOD8262659 Si02
#       7
#    16  16  16  16  16  16  16
#     4  10  21  41  59  88 122 160 200 251 315 359
#     4  11  21  39  60  88 123 158 198 255 314 355
#     4  11  20  37  61  82 114 161 201 254 301 356
#     4  11  25  37  60  84 124 171 205 251 310 368
#     4  11  23  38  58  85 118 165 213 252 291 364
#     4  10  19  37  70  99 118 148 202 258 305 375
#     4  11  24  38  55  86 121 164 214 258 297 343
#
# _framework density 18.961001
#
# number of rings (size 3 to 8) (size 9 to 14) (size 15 to 20)
#    0.000    1.286    5.714    1.286    4.000    4.000 
#    0.000    0.714    0.000   12.000    0.000    0.000 
#    0.000    0.000    0.000    0.000    0.000    0.000 
#
# Total GULP energy -694123.378823 kJ/mol
# GULP energy per Si atom -12395.060336 kJ/mol
# Density = 1.891785 g / cm^3
# Si number density = 18.961001 Si / 1000 Ang^3
#
#
#
# Elastic Constant Matrix: (Units=GPa)
#
#
# Indices 1 2 3 4 5 6 
#
# 1 129.3967 36.6556 58.9795 0.0000 0.0000 0.0000
# 2 36.6556 80.5285 40.0384 0.0000 0.0000 0.0000
# 3 58.9795 40.0384 133.0671 0.0000 0.0000 0.0000
# 4 0.0000 0.0000 0.0000 27.6148 0.0000 0.0000
# 5 0.0000 0.0000 0.0000 0.0000 6.7168 0.0000
# 6 0.0000 0.0000 0.0000 0.0000 0.0000 18.7196
#
#
#
# Elastic Compliance Matrix: (Units=1/GPa)
#
#
# Indices 1 2 3 4 5 6 
#
# 1 0.010201 -0.002817 -0.003674 0.000000 0.000000 0.000000
# 2 -0.002817 0.015380 -0.003379 0.000000 0.000000 0.000000
# 3 -0.003674 -0.003379 0.010160 0.000000 0.000000 0.000000
# 4 0.000000 0.000000 0.000000 0.036213 0.000000 0.000000
# 5 0.000000 0.000000 0.000000 0.000000 0.148880 0.000000
# 6 0.000000 0.000000 0.000000 0.000000 0.000000 0.053420
#
#
# Mechanical properties :
#
#
# Convention : Reuss Voigt Hill
#
# Bulk Modulus (GPa) = 62.49383 68.25994 65.37689
# Shear Modulus (GPa) = 16.70416 24.43149 20.56783
#
# Velocity S-wave (km/s) = 2.97134 3.59348 3.29712
# Velocity P-wave (km/s) = 6.69347 7.30040 7.00351
#
# Compressibility (1/GPa) = 0.01600158
#
# Stress axis : x y z
#
# Youngs Moduli (GPa) = 98.03385 65.01852 98.42409
#
# Poissons Ratio (x) = 0.18313 0.36158
# Poissons Ratio (y) = 0.27612 0.33261
# Poissons Ratio (z) = 0.36015 0.21972
#
# Static dielectric constant tensor:
#      x y z
#    x 3.373390 0.000000 0.000000 
#    y 0.000000 3.498170 0.000000 
#    z 0.000000 0.000000 3.777350 
# 
# 
# High freq. dielectric constant tensor:
#      x y z
#    x 1.703400 0.000000 0.000000 
#    y 0.000000 1.742030 0.000000 
#    z 0.000000 0.000000 1.747880 
# 
# From -- ./inp_files/28379.got.cif
#   From: 2010.03.12/outbox.cif.g09.slc.cpg/sg64_15_cif.got.tgz:28379.got - 2010.04.10 20:19:32.
