data_PCOD8262506
_publ_section_title
;
Structure prediction by ZEFSAII (Michael W. Deem and Ramdas Pophale) SiO2 
 PCOD8262506
Probable space group: C M C A
;
_chemical_formula_sum "Si O2"
_cell_formula_units_Z 96
_cell_length_a 8.592030
_cell_length_b 23.675327
_cell_length_c 26.012062
_cell_angle_alpha 90.000000
_cell_angle_beta 90.000000
_cell_angle_gamma 90.000000
_cell_volume 5291.350757
_symmetry_space_group_name_H-M "C M C A"
_symmetry_group_IT_number 64
_symmetry_cell_setting 'orthorhombic'
loop_
_space_group_symop_operation_xyz
x,y,z
-x,1/2-y,1/2+z
x,-y,-z
-x,1/2+y,1/2-z
-x,-y,-z
x,1/2+y,1/2-z
-x,y,z
x,1/2-y,1/2+z
1/2+x,1/2+y,z
1/2-x,-y,1/2+z
1/2+x,1/2-y,-z
1/2-x,y,1/2-z
1/2-x,1/2-y,-z
1/2+x,y,1/2-z
1/2-x,1/2+y,z
1/2+x,-y,1/2+z
loop_
_atom_site_type_symbol
_atom_site_label
_atom_site_fract_x
_atom_site_fract_y
_atom_site_fract_z
Si Si1 0.185128 0.357867 0.928141
Si Si2 0.183118 0.020329 0.056173
Si Si3 0.814609 0.242903 0.123183
Si Si4 0.824575 0.677596 0.963937
Si Si5 0.322468 0.919968 0.113678
Si Si6 0.684242 0.834232 0.306211
O O1 0.237934 0.422037 0.925664
O O2 0.256206 0.321847 0.880565
O O3 0.000000 0.355957 0.926425
O O4 0.255128 0.329100 0.980347
O O5 0.000000 0.029266 0.054276
O O6 0.227823 0.976430 0.100855
O O7 0.244457 0.000000 0.000000
O O8 0.744985 0.275911 0.072977
O O9 0.746049 0.273897 0.173078
O O10 0.000000 0.246840 0.126535
O O11 0.817387 0.616657 0.937825
O O12 0.000000 0.697434 0.972559
O O13 0.500000 0.934337 0.128991
O O14 0.242422 0.886756 0.160072
O O15 0.500000 0.833273 0.305550
O O16 0.750000 0.843804 0.250000
#
# Coordination Sequence:
#
# PCOD8262506 Si02
#       6
#    16  16  16  16  16  16
#     4  11  20  32  50  75 108 152 191 225 269 323
#     4  11  22  34  50  77 112 153 194 231 271 324
#     4  10  20  35  52  78 110 143 181 228 276 328
#     4   8  16  29  48  73 105 143 181 220 266 316
#     4  10  19  35  56  81 110 145 186 232 277 324
#     4  11  22  39  62  87 110 139 178 228 283 335
#
# _framework density 18.142814999999999
#
# number of rings (size 3 to 8) (size 9 to 14) (size 15 to 20)
#    0.000    1.833    1.667    5.000    0.000    0.667 
#    0.000    1.667    0.000    1.000    0.000    7.000 
#    0.000    0.000    0.000    0.000    0.000    0.000 
#
# Total GULP energy -595067.129114 kJ/mol
# GULP energy per Si atom -12397.231857 kJ/mol
# Density = 1.810152 g / cm^3
# Si number density = 18.142815 Si / 1000 Ang^3
#
#
#
# Elastic Constant Matrix: (Units=GPa)
#
#
# Indices 1 2 3 4 5 6 
#
# 1 92.1815 23.6043 37.0959 0.0000 0.0000 0.0000
# 2 23.6043 86.5561 44.1050 0.0000 0.0000 0.0000
# 3 37.0959 44.1050 92.0864 0.0000 0.0000 0.0000
# 4 0.0000 0.0000 0.0000 16.6939 0.0000 0.0000
# 5 0.0000 0.0000 0.0000 0.0000 25.1244 0.0000
# 6 0.0000 0.0000 0.0000 0.0000 0.0000 31.8475
#
#
#
# Elastic Compliance Matrix: (Units=1/GPa)
#
#
# Indices 1 2 3 4 5 6 
#
# 1 0.013035 -0.001163 -0.004694 0.000000 0.000000 0.000000
# 2 -0.001163 0.015387 -0.006901 0.000000 0.000000 0.000000
# 3 -0.004694 -0.006901 0.016056 0.000000 0.000000 0.000000
# 4 0.000000 0.000000 0.000000 0.059902 0.000000 0.000000
# 5 0.000000 0.000000 0.000000 0.000000 0.039802 0.000000
# 6 0.000000 0.000000 0.000000 0.000000 0.000000 0.031400
#
#
# Mechanical properties :
#
#
# Convention : Reuss Voigt Hill
#
# Bulk Modulus (GPa) = 52.73875 53.38158 53.06017
# Shear Modulus (GPa) = 24.10598 25.80109 24.95353
#
# Velocity S-wave (km/s) = 3.64906 3.77518 3.71265
# Velocity P-wave (km/s) = 6.84733 6.96344 6.90563
#
# Compressibility (1/GPa) = 0.01896139
#
# Stress axis : x y z
#
# Youngs Moduli (GPa) = 76.71715 64.99080 62.28363
#
# Poissons Ratio (x) = 0.07557 0.29236
# Poissons Ratio (y) = 0.08921 0.42983
# Poissons Ratio (z) = 0.36011 0.44851
#
# Static dielectric constant tensor:
#      x y z
#    x 3.293710 0.000000 0.000000 
#    y 0.000000 3.373000 0.000000 
#    z 0.000000 0.000000 3.192670 
# 
# 
# High freq. dielectric constant tensor:
#      x y z
#    x 1.705950 0.000000 0.000000 
#    y 0.000000 1.704820 0.000000 
#    z 0.000000 0.000000 1.672750 
# 
# From -- ./inp_files/43055.got.cif
#   From: 2010.03.12/outbox.cif.g09.slc.cpg/sg64_22_cif.got.tgz:43055.got - 2010.04.10 20:19:32.
