data_PCOD8262212
_publ_section_title
;
Structure prediction by ZEFSAII (Michael W. Deem and Ramdas Pophale) SiO2 
 PCOD8262212
Probable space group: C M C A
;
_chemical_formula_sum "Si O2"
_cell_formula_units_Z 112
_cell_length_a 17.499530
_cell_length_b 19.176568
_cell_length_c 19.134202
_cell_angle_alpha 90.000000
_cell_angle_beta 90.000000
_cell_angle_gamma 90.000000
_cell_volume 6421.073245
_symmetry_space_group_name_H-M "C M C A"
_symmetry_group_IT_number 64
_symmetry_cell_setting 'orthorhombic'
loop_
_space_group_symop_operation_xyz
x,y,z
-x,1/2-y,1/2+z
x,-y,-z
-x,1/2+y,1/2-z
-x,-y,-z
x,1/2+y,1/2-z
-x,y,z
x,1/2-y,1/2+z
1/2+x,1/2+y,z
1/2-x,-y,1/2+z
1/2+x,1/2-y,-z
1/2-x,y,1/2-z
1/2-x,1/2-y,-z
1/2+x,y,1/2-z
1/2-x,1/2+y,z
1/2+x,-y,1/2+z
loop_
_atom_site_type_symbol
_atom_site_label
_atom_site_fract_x
_atom_site_fract_y
_atom_site_fract_z
Si Si1 0.662629 0.346401 0.741573
Si Si2 0.409227 0.868077 0.260029
Si Si3 0.910321 0.210777 0.012151
Si Si4 0.909065 0.942931 0.945854
Si Si5 0.089869 0.477877 0.706769
Si Si6 0.333785 0.767264 0.367672
Si Si7 0.154404 0.270314 0.147532
O O1 0.750000 0.367688 0.750000
O O2 0.614148 0.417183 0.739911
O O3 0.647533 0.306236 0.669249
O O4 0.636716 0.297389 0.805575
O O5 0.500000 0.860344 0.261551
O O6 0.375799 0.829586 0.327664
O O7 0.376242 0.838149 0.187859
O O8 0.381436 0.948022 0.264614
O O9 0.863764 0.238094 0.945962
O O10 0.000000 0.211946 0.995543
O O11 0.880766 0.133321 0.030850
O O12 0.891651 0.262764 0.075643
O O13 0.874937 0.961568 0.869795
O O14 0.000000 0.944561 0.944273
O O15 0.876899 0.000000 0.000000
O O16 0.000000 0.479037 0.700415
O O17 0.243636 0.781076 0.366347
#
# Coordination Sequence:
#
# PCOD8262212 Si02
#       7
#    16  16  16  16  16  16  16
#     4   9  19  34  52  74 103 137 177 211 256 316
#     4  10  20  34  54  80 107 136 180 222 263 317
#     4  11  20  32  54  80 107 140 176 220 268 312
#     4   9  17  29  47  74 106 132 162 208 267 319
#     4  10  19  32  52  77 104 136 170 218 268 309
#     4  10  21  35  52  78 109 141 175 219 266 314
#     4  10  20  36  53  76 107 145 178 214 263 318
#
# _framework density 17.442567
#
# number of rings (size 3 to 8) (size 9 to 14) (size 15 to 20)
#    0.000    2.143    1.429    3.429    0.000    6.286 
#    0.000    0.000    0.000    0.857    0.000    3.000 
#    0.000    0.000    0.000    0.000    0.000    0.000 
#
# Total GULP energy -694508.032359 kJ/mol
# GULP energy per Si atom -12401.929149 kJ/mol
# Density = 1.740287 g / cm^3
# Si number density = 17.442567 Si / 1000 Ang^3
#
#
#
# Elastic Constant Matrix: (Units=GPa)
#
#
# Indices 1 2 3 4 5 6 
#
# 1 45.6228 27.5537 27.1141 0.0000 0.0000 0.0000
# 2 27.5537 113.5168 64.2559 0.0000 0.0000 0.0000
# 3 27.1141 64.2559 112.1022 0.0000 0.0000 0.0000
# 4 0.0000 0.0000 0.0000 25.6153 0.0000 0.0000
# 5 0.0000 0.0000 0.0000 0.0000 29.1390 0.0000
# 6 0.0000 0.0000 0.0000 0.0000 0.0000 21.0358
#
#
#
# Elastic Compliance Matrix: (Units=1/GPa)
#
#
# Indices 1 2 3 4 5 6 
#
# 1 0.026894 -0.004213 -0.004090 0.000000 0.000000 0.000000
# 2 -0.004213 0.013700 -0.006834 0.000000 0.000000 0.000000
# 3 -0.004090 -0.006834 0.013827 0.000000 0.000000 0.000000
# 4 0.000000 0.000000 0.000000 0.039039 0.000000 0.000000
# 5 0.000000 0.000000 0.000000 0.000000 0.034318 0.000000
# 6 0.000000 0.000000 0.000000 0.000000 0.000000 0.047538
#
#
# Mechanical properties :
#
#
# Convention : Reuss Voigt Hill
#
# Bulk Modulus (GPa) = 41.41221 56.56547 48.98884
# Shear Modulus (GPa) = 23.40399 25.31256 24.35827
#
# Velocity S-wave (km/s) = 3.66700 3.81359 3.74101
# Velocity P-wave (km/s) = 6.45931 7.20356 6.84156
#
# Compressibility (1/GPa) = 0.02414747
#
# Stress axis : x y z
#
# Youngs Moduli (GPa) = 37.18312 72.99224 72.32322
#
# Poissons Ratio (x) = 0.30749 0.29581
# Poissons Ratio (y) = 0.15664 0.49425
# Poissons Ratio (z) = 0.15208 0.49882
#
# Static dielectric constant tensor:
#      x y z
#    x 3.076900 0.000000 0.000000 
#    y 0.000000 3.289620 0.000000 
#    z 0.000000 0.000000 3.278180 
# 
# 
# High freq. dielectric constant tensor:
#      x y z
#    x 1.661400 0.000000 0.000000 
#    y 0.000000 1.670960 0.000000 
#    z 0.000000 0.000000 1.672730 
# 
# From -- ./inp_files/33598.got.cif
#   From: 2010.03.12/outbox.cif.g09.slc.cpg/sg64_17_cif.got.tgz:33598.got - 2010.04.10 20:19:32.
