data_PCOD8262820
_publ_section_title
;
Structure prediction by ZEFSAII (Michael W. Deem and Ramdas Pophale) SiO2 
 PCOD8262820
Probable space group: C M C A
;
_chemical_formula_sum "Si O2"
_cell_formula_units_Z 120
_cell_length_a 26.777684
_cell_length_b 8.935285
_cell_length_c 29.228199
_cell_angle_alpha 90.000000
_cell_angle_beta 90.000000
_cell_angle_gamma 90.000000
_cell_volume 6993.321224
_symmetry_space_group_name_H-M "C M C A"
_symmetry_group_IT_number 64
_symmetry_cell_setting 'orthorhombic'
loop_
_space_group_symop_operation_xyz
x,y,z
-x,1/2-y,1/2+z
x,-y,-z
-x,1/2+y,1/2-z
-x,-y,-z
x,1/2+y,1/2-z
-x,y,z
x,1/2-y,1/2+z
1/2+x,1/2+y,z
1/2-x,-y,1/2+z
1/2+x,1/2-y,-z
1/2-x,y,1/2-z
1/2-x,1/2-y,-z
1/2+x,y,1/2-z
1/2-x,1/2+y,z
1/2+x,-y,1/2+z
loop_
_atom_site_type_symbol
_atom_site_label
_atom_site_fract_x
_atom_site_fract_y
_atom_site_fract_z
Si Si1 0.689175 0.679468 0.292112
Si Si2 0.789822 0.742176 0.560797
Si Si3 0.343472 0.853177 0.206087
Si Si4 0.149540 0.393361 0.367486
Si Si5 0.219825 0.176019 0.144595
Si Si6 0.236732 0.500000 0.000000
Si Si7 0.055436 0.584655 0.685285
Si Si8 0.943875 0.723157 0.268245
O O1 0.658728 0.527939 0.284169
O O2 0.689148 0.764304 0.243902
O O3 0.659690 0.783234 0.326334
O O4 0.743654 0.640701 0.312536
O O5 0.842262 0.693666 0.584377
O O6 0.748768 0.770520 0.599838
O O7 0.772494 0.606879 0.529012
O O8 0.798027 0.894966 0.532005
O O9 0.317417 0.811239 0.157899
O O10 0.401495 0.807689 0.202703
O O11 0.187922 0.529974 0.366572
O O12 0.092041 0.439126 0.358408
O O13 0.064500 0.737619 0.714320
O O14 0.062631 0.453385 0.722932
O O15 0.000000 0.581768 0.664051
O O16 0.000000 0.775392 0.282970
#
# Coordination Sequence:
#
# PCOD8262820 Si02
#       8
#    16  16  16  16  16   8  16  16
#     4  11  23  32  47  69 101 145 182 211 252 303
#     4  10  21  36  57  80 109 136 166 207 259 320
#     4  12  21  34  48  69 100 145 183 216 256 295
#     4  11  20  36  52  76 106 136 175 218 260 302
#     4  11  22  35  49  74 109 138 171 211 251 303
#     4  10  20  38  58  80 106 136 166 200 258 336
#     4  10  20  35  52  71  98 140 186 230 261 292
#     4  10  20  34  50  68  95 138 190 229 257 287
#
# _framework density 17.159229
#
# number of rings (size 3 to 8) (size 9 to 14) (size 15 to 20)
#    0.000    1.333    4.000    3.600    1.867    1.067 
#    0.000    0.000    0.000    0.000    0.000    0.933 
#    0.000    0.000    0.000    0.533    0.000    0.000 
#
# Total GULP energy -743653.323632 kJ/mol
# GULP energy per Si atom -12394.222061 kJ/mol
# Density = 1.712017 g / cm^3
# Si number density = 17.159229 Si / 1000 Ang^3
#
#
#
# Elastic Constant Matrix: (Units=GPa)
#
#
# Indices 1 2 3 4 5 6 
#
# 1 93.3784 13.6929 37.9748 0.0000 0.0000 0.0000
# 2 13.6929 88.8906 36.6900 0.0000 0.0000 0.0000
# 3 37.9748 36.6900 73.9439 0.0000 0.0000 0.0000
# 4 0.0000 0.0000 0.0000 29.9151 0.0000 0.0000
# 5 0.0000 0.0000 0.0000 0.0000 25.5494 0.0000
# 6 0.0000 0.0000 0.0000 0.0000 0.0000 19.2815
#
#
#
# Elastic Compliance Matrix: (Units=1/GPa)
#
#
# Indices 1 2 3 4 5 6 
#
# 1 0.013605 0.000991 -0.007479 0.000000 0.000000 0.000000
# 2 0.000991 0.014219 -0.007565 0.000000 0.000000 0.000000
# 3 -0.007479 -0.007565 0.021118 0.000000 0.000000 0.000000
# 4 0.000000 0.000000 0.000000 0.033428 0.000000 0.000000
# 5 0.000000 0.000000 0.000000 0.000000 0.039140 0.000000
# 6 0.000000 0.000000 0.000000 0.000000 0.000000 0.051863
#
#
# Mechanical properties :
#
#
# Convention : Reuss Voigt Hill
#
# Bulk Modulus (GPa) = 47.98886 48.10316 48.04601
# Shear Modulus (GPa) = 23.98953 26.13955 25.06454
#
# Velocity S-wave (km/s) = 3.74311 3.90725 3.82606
# Velocity P-wave (km/s) = 6.83438 6.96058 6.89777
#
# Compressibility (1/GPa) = 0.02083817
#
# Stress axis : x y z
#
# Youngs Moduli (GPa) = 73.50088 70.32657 47.35279
#
# Poissons Ratio (x) = -0.06971 0.35415
# Poissons Ratio (y) = -0.07285 0.35820
# Poissons Ratio (z) = 0.54971 0.53199
#
# Static dielectric constant tensor:
#      x y z
#    x 3.335600 0.000000 0.000000 
#    y 0.000000 3.424760 0.000000 
#    z 0.000000 0.000000 3.171640 
# 
# 
# High freq. dielectric constant tensor:
#      x y z
#    x 1.652280 0.000000 0.000000 
#    y 0.000000 1.680420 0.000000 
#    z 0.000000 0.000000 1.628450 
# 
# From -- ./inp_files/51251.got.cif
#   From: 2010.03.12/outbox.cif.g09.slc.cpg/sg64_26_cif.got.tgz:51251.got - 2010.04.10 20:19:32.
