data_PCOD8262500
_publ_section_title
;
Structure prediction by ZEFSAII (Michael W. Deem and Ramdas Pophale) SiO2 
 PCOD8262500
Probable space group: C M C A
;
_chemical_formula_sum "Si O2"
_cell_formula_units_Z 104
_cell_length_a 26.972615
_cell_length_b 15.256167
_cell_length_c 12.849217
_cell_angle_alpha 90.000000
_cell_angle_beta 90.000000
_cell_angle_gamma 90.000000
_cell_volume 5287.436334
_symmetry_space_group_name_H-M "C M C A"
_symmetry_group_IT_number 64
_symmetry_cell_setting 'orthorhombic'
loop_
_space_group_symop_operation_xyz
x,y,z
-x,1/2-y,1/2+z
x,-y,-z
-x,1/2+y,1/2-z
-x,-y,-z
x,1/2+y,1/2-z
-x,y,z
x,1/2-y,1/2+z
1/2+x,1/2+y,z
1/2-x,-y,1/2+z
1/2+x,1/2-y,-z
1/2-x,y,1/2-z
1/2-x,1/2-y,-z
1/2+x,y,1/2-z
1/2-x,1/2+y,z
1/2+x,-y,1/2+z
loop_
_atom_site_type_symbol
_atom_site_label
_atom_site_fract_x
_atom_site_fract_y
_atom_site_fract_z
Si Si1 0.787090 0.145138 0.439449
Si Si2 0.000000 0.635654 0.537917
Si Si3 0.150405 0.162073 0.257090
Si Si4 0.595531 0.989675 0.218856
Si Si5 0.500000 0.540175 0.167452
Si Si6 0.865613 0.000000 0.500000
Si Si7 0.817932 0.320631 0.532420
Si Si8 0.101238 0.821939 0.136442
O O1 0.797313 0.171696 0.318765
O O2 0.829190 0.077757 0.471106
O O3 0.795231 0.226089 0.514823
O O4 0.729789 0.113409 0.454702
O O5 0.000000 0.542658 0.592914
O O6 0.000000 0.623900 0.411589
O O7 0.950684 0.686800 0.574638
O O8 0.138318 0.058727 0.254902
O O9 0.152823 0.191083 0.139028
O O10 0.110730 0.226099 0.314482
O O11 0.546245 0.039705 0.255204
O O12 0.597835 0.972989 0.094697
O O13 0.601170 0.896557 0.275561
O O14 0.855432 0.352043 0.443035
#
# Coordination Sequence:
#
# PCOD8262500 Si02
#       8
#    16   8  16  16   8   8  16  16
#     4   9  20  34  52  77 107 145 180 224 279 330
#     4   9  18  35  56  80 113 140 173 226 276 321
#     4  10  20  34  54  80 109 143 186 229 274 333
#     4  10  21  36  56  80 110 145 185 229 278 332
#     4   9  18  34  56  82 107 140 179 222 274 327
#     4  10  20  37  54  76 112 145 182 230 274 332
#     4  10  19  35  55  77 109 143 182 228 277 331
#     4  10  21  36  56  81 109 146 184 225 279 333
#
# _framework density 19.669267000000001
#
# number of rings (size 3 to 8) (size 9 to 14) (size 15 to 20)
#    0.000    2.308    0.000    2.308    0.000    4.000 
#    0.000    4.615    0.000    4.615    0.000    0.000 
#    0.000    0.000    0.000    0.000    0.000    0.000 
#
# Total GULP energy -644300.489305 kJ/mol
# GULP energy per Si atom -12390.394025 kJ/mol
# Density = 1.962450 g / cm^3
# Si number density = 19.669267 Si / 1000 Ang^3
#
#
#
# Elastic Constant Matrix: (Units=GPa)
#
#
# Indices 1 2 3 4 5 6 
#
# 1 112.1721 12.3721 53.0176 0.0000 0.0000 0.0000
# 2 12.3721 50.7577 17.3377 0.0000 0.0000 0.0000
# 3 53.0176 17.3377 134.9494 0.0000 0.0000 0.0000
# 4 0.0000 0.0000 0.0000 22.3756 0.0000 0.0000
# 5 0.0000 0.0000 0.0000 0.0000 21.2927 0.0000
# 6 0.0000 0.0000 0.0000 0.0000 0.0000 18.1016
#
#
#
# Elastic Compliance Matrix: (Units=1/GPa)
#
#
# Indices 1 2 3 4 5 6 
#
# 1 0.011025 -0.001263 -0.004169 0.000000 0.000000 0.000000
# 2 -0.001263 0.020750 -0.002170 0.000000 0.000000 0.000000
# 3 -0.004169 -0.002170 0.009327 0.000000 0.000000 0.000000
# 4 0.000000 0.000000 0.000000 0.044692 0.000000 0.000000
# 5 0.000000 0.000000 0.000000 0.000000 0.046965 0.000000
# 6 0.000000 0.000000 0.000000 0.000000 0.000000 0.055244
#
#
# Mechanical properties :
#
#
# Convention : Reuss Voigt Hill
#
# Bulk Modulus (GPa) = 38.61265 51.48156 45.04710
# Shear Modulus (GPa) = 23.60293 26.69742 25.15018
#
# Velocity S-wave (km/s) = 3.46785 3.68817 3.57971
# Velocity P-wave (km/s) = 5.97563 6.66088 6.32754
#
# Compressibility (1/GPa) = 0.02589825
#
# Stress axis : x y z
#
# Youngs Moduli (GPa) = 90.70595 48.19171 107.21794
#
# Poissons Ratio (x) = 0.06088 0.44699
# Poissons Ratio (y) = 0.11458 0.23263
# Poissons Ratio (z) = 0.37815 0.10456
#
# Static dielectric constant tensor:
#      x y z
#    x 3.854430 0.000000 0.000000 
#    y 0.000000 3.401600 0.000000 
#    z 0.000000 0.000000 3.878820 
# 
# 
# High freq. dielectric constant tensor:
#      x y z
#    x 1.767580 0.000000 0.000000 
#    y 0.000000 1.747610 0.000000 
#    z 0.000000 0.000000 1.778550 
# 
# From -- ./inp_files/19228.got.cif
#   From: 2010.03.12/outbox.cif.g09.slc.cpg/sg64_10_cif.got.tgz:19228.got - 2010.04.10 20:19:32.
