data_PCOD8262199
_publ_section_title
;
Structure prediction by ZEFSAII (Michael W. Deem and Ramdas Pophale) SiO2 
 PCOD8262199
Probable space group: C M C A
;
_chemical_formula_sum "Si O2"
_cell_formula_units_Z 96
_cell_length_a 9.260449
_cell_length_b 29.691575
_cell_length_c 18.613032
_cell_angle_alpha 90.000000
_cell_angle_beta 90.000000
_cell_angle_gamma 90.000000
_cell_volume 5117.789322
_symmetry_space_group_name_H-M "C M C A"
_symmetry_group_IT_number 64
_symmetry_cell_setting 'orthorhombic'
loop_
_space_group_symop_operation_xyz
x,y,z
-x,1/2-y,1/2+z
x,-y,-z
-x,1/2+y,1/2-z
-x,-y,-z
x,1/2+y,1/2-z
-x,y,z
x,1/2-y,1/2+z
1/2+x,1/2+y,z
1/2-x,-y,1/2+z
1/2+x,1/2-y,-z
1/2-x,y,1/2-z
1/2-x,1/2-y,-z
1/2+x,y,1/2-z
1/2-x,1/2+y,z
1/2+x,-y,1/2+z
loop_
_atom_site_type_symbol
_atom_site_label
_atom_site_fract_x
_atom_site_fract_y
_atom_site_fract_z
Si Si1 0.167541 0.157034 0.934393
Si Si2 0.164856 0.610599 0.182383
Si Si3 0.833761 0.266401 0.324390
Si Si4 0.670195 0.029307 0.096470
Si Si5 0.666918 0.312128 0.571076
Si Si6 0.170759 0.434221 0.055000
O O1 0.186337 0.185160 0.861262
O O2 0.244265 0.109587 0.919241
O O3 0.000000 0.149464 0.952969
O O4 0.239196 0.185103 0.999120
O O5 0.250000 0.630282 0.250000
O O6 0.223517 0.560339 0.162618
O O7 0.187092 0.641197 0.112833
O O8 0.000000 0.609497 0.206408
O O9 0.750000 0.264820 0.250000
O O10 0.775094 0.228298 0.379038
O O11 0.000000 0.256007 0.306894
O O12 0.500000 0.033692 0.088783
O O13 0.710189 0.976646 0.107387
O O14 0.730078 0.050562 0.022655
O O15 0.500000 0.304190 0.549672
O O16 0.000000 0.423395 0.055661
#
# Coordination Sequence:
#
# PCOD8262199 Si02
#       6
#    16  16  16  16  16  16
#     4  11  22  35  54  85 116 139 177 230 276 320
#     4  10  19  32  51  78 109 140 177 221 271 328
#     4  10  23  40  57  80 110 145 183 226 272 324
#     4   8  15  30  53  77 101 135 181 222 258 317
#     4  10  20  37  59  80 105 142 186 225 268 326
#     4   9  16  32  57  78 100 138 182 221 264 315
#
# _framework density 18.758099999999999
#
# number of rings (size 3 to 8) (size 9 to 14) (size 15 to 20)
#    0.000    2.333    1.667    2.500    0.000    2.667 
#    0.000    3.333    0.000    4.000    0.000    0.000 
#    0.000    0.000    0.000    0.000    0.000    0.000 
#
# Total GULP energy -595011.931306 kJ/mol
# GULP energy per Si atom -12396.081902 kJ/mol
# Density = 1.871541 g / cm^3
# Si number density = 18.758100 Si / 1000 Ang^3
#
#
#
# Elastic Constant Matrix: (Units=GPa)
#
#
# Indices 1 2 3 4 5 6 
#
# 1 66.9893 38.3716 32.3653 0.0000 0.0000 0.0000
# 2 38.3716 119.7303 24.0085 0.0000 0.0000 0.0000
# 3 32.3653 24.0085 55.8023 0.0000 0.0000 0.0000
# 4 0.0000 0.0000 0.0000 16.6104 0.0000 0.0000
# 5 0.0000 0.0000 0.0000 0.0000 28.0401 0.0000
# 6 0.0000 0.0000 0.0000 0.0000 0.0000 27.9543
#
#
#
# Elastic Compliance Matrix: (Units=1/GPa)
#
#
# Indices 1 2 3 4 5 6 
#
# 1 0.023389 -0.005227 -0.011317 0.000000 0.000000 0.000000
# 2 -0.005227 0.010309 -0.001404 0.000000 0.000000 0.000000
# 3 -0.011317 -0.001404 0.025088 0.000000 0.000000 0.000000
# 4 0.000000 0.000000 0.000000 0.060203 0.000000 0.000000
# 5 0.000000 0.000000 0.000000 0.000000 0.035663 0.000000
# 6 0.000000 0.000000 0.000000 0.000000 0.000000 0.035773
#
#
# Mechanical properties :
#
#
# Convention : Reuss Voigt Hill
#
# Bulk Modulus (GPa) = 43.68474 48.00144 45.84309
# Shear Modulus (GPa) = 21.37203 24.37273 22.87238
#
# Velocity S-wave (km/s) = 3.37909 3.60852 3.49568
# Velocity P-wave (km/s) = 6.20994 6.55798 6.38633
#
# Compressibility (1/GPa) = 0.02289129
#
# Stress axis : x y z
#
# Youngs Moduli (GPa) = 42.75459 97.00614 39.85922
#
# Poissons Ratio (x) = 0.50701 0.45109
# Poissons Ratio (y) = 0.22346 0.05595
# Poissons Ratio (z) = 0.48386 0.13618
#
# Static dielectric constant tensor:
#      x y z
#    x 3.201460 0.000000 0.000000 
#    y 0.000000 3.752660 0.000000 
#    z 0.000000 0.000000 3.267430 
# 
# 
# High freq. dielectric constant tensor:
#      x y z
#    x 1.703890 0.000000 0.000000 
#    y 0.000000 1.746660 0.000000 
#    z 0.000000 0.000000 1.708290 
# 
# From -- ./inp_files/37053.got.cif
#   From: 2010.03.12/outbox.cif.g09.slc.cpg/sg64_19_cif.got.tgz:37053.got - 2010.04.10 20:19:32.
