data_PCOD8262740
_publ_section_title
;
Structure prediction by ZEFSAII (Michael W. Deem and Ramdas Pophale) SiO2 
 PCOD8262740
Probable space group: C M C A
;
_chemical_formula_sum "Si O2"
_cell_formula_units_Z 88
_cell_length_a 19.937220
_cell_length_b 22.896928
_cell_length_c 10.438842
_cell_angle_alpha 90.000000
_cell_angle_beta 90.000000
_cell_angle_gamma 90.000000
_cell_volume 4765.342760
_symmetry_space_group_name_H-M "C M C A"
_symmetry_group_IT_number 64
_symmetry_cell_setting 'orthorhombic'
loop_
_space_group_symop_operation_xyz
x,y,z
-x,1/2-y,1/2+z
x,-y,-z
-x,1/2+y,1/2-z
-x,-y,-z
x,1/2+y,1/2-z
-x,y,z
x,1/2-y,1/2+z
1/2+x,1/2+y,z
1/2-x,-y,1/2+z
1/2+x,1/2-y,-z
1/2-x,y,1/2-z
1/2-x,1/2-y,-z
1/2+x,y,1/2-z
1/2-x,1/2+y,z
1/2+x,-y,1/2+z
loop_
_atom_site_type_symbol
_atom_site_label
_atom_site_fract_x
_atom_site_fract_y
_atom_site_fract_z
Si Si1 0.141350 0.276871 0.279892
Si Si2 0.575577 0.777974 0.538848
Si Si3 0.319605 0.409517 0.185207
Si Si4 0.847323 0.111323 0.092761
Si Si5 0.750000 0.189973 0.250000
Si Si6 0.076512 0.496070 0.653256
O O1 0.086097 0.263825 0.388657
O O2 0.118735 0.261260 0.136165
O O3 0.165251 0.343452 0.273799
O O4 0.200530 0.233522 0.325560
O O5 0.500000 0.765222 0.575811
O O6 0.591772 0.846239 0.554273
O O7 0.250000 0.430807 0.250000
O O8 0.383231 0.450851 0.221967
O O9 0.312257 0.416188 0.032351
O O10 0.788599 0.147750 0.155594
O O11 0.880519 0.062470 0.184925
O O12 0.073111 0.500000 0.500000
O O13 0.000000 0.494068 0.707883
#
# Coordination Sequence:
#
# PCOD8262740 Si02
#       6
#    16  16  16  16   8  16
#     4  10  21  33  54  77 110 145 172 225 266 321
#     4  10  20  34  53  80 108 143 183 220 268 322
#     4  10  20  32  53  80 108 137 174 218 272 319
#     4   9  20  33  54  76 103 141 176 222 264 316
#     4  10  20  34  52  78 108 138 180 210 268 316
#     4   9  18  34  53  77 104 134 176 224 265 309
#
# _framework density 18.466667999999999
#
# number of rings (size 3 to 8) (size 9 to 14) (size 15 to 20)
#    0.000    2.364    0.909    1.091    3.818    7.273 
#    0.000    0.000    0.000    0.000    0.000    1.273 
#    0.000    0.000    0.000    0.000    0.000    0.000 
#
# Total GULP energy -545251.108532 kJ/mol
# GULP energy per Si atom -12392.070648 kJ/mol
# Density = 1.842464 g / cm^3
# Si number density = 18.466668 Si / 1000 Ang^3
#
#
#
# Elastic Constant Matrix: (Units=GPa)
#
#
# Indices 1 2 3 4 5 6 
#
# 1 136.0297 56.0604 27.0527 0.0000 0.0000 0.0000
# 2 56.0604 104.7200 22.0269 0.0000 0.0000 0.0000
# 3 27.0527 22.0269 52.6864 0.0000 0.0000 0.0000
# 4 0.0000 0.0000 0.0000 14.5154 0.0000 0.0000
# 5 0.0000 0.0000 0.0000 0.0000 26.2074 0.0000
# 6 0.0000 0.0000 0.0000 0.0000 0.0000 25.4901
#
#
#
# Elastic Compliance Matrix: (Units=1/GPa)
#
#
# Indices 1 2 3 4 5 6 
#
# 1 0.009884 -0.004631 -0.003139 0.000000 0.000000 0.000000
# 2 -0.004631 0.012640 -0.002906 0.000000 0.000000 0.000000
# 3 -0.003139 -0.002906 0.021807 0.000000 0.000000 0.000000
# 4 0.000000 0.000000 0.000000 0.068893 0.000000 0.000000
# 5 0.000000 0.000000 0.000000 0.000000 0.038157 0.000000
# 6 0.000000 0.000000 0.000000 0.000000 0.000000 0.039231
#
#
# Mechanical properties :
#
#
# Convention : Reuss Voigt Hill
#
# Bulk Modulus (GPa) = 43.52008 55.96847 49.74428
# Shear Modulus (GPa) = 22.76615 25.79564 24.28089
#
# Velocity S-wave (km/s) = 3.51497 3.74153 3.63002
# Velocity P-wave (km/s) = 6.33177 7.00279 6.67572
#
# Compressibility (1/GPa) = 0.02297790
#
# Stress axis : x y z
#
# Youngs Moduli (GPa) = 101.17194 79.11512 45.85647
#
# Poissons Ratio (x) = 0.36639 0.14395
# Poissons Ratio (y) = 0.46854 0.13328
# Poissons Ratio (z) = 0.31758 0.22995
#
# Static dielectric constant tensor:
#      x y z
#    x 3.548430 0.000000 0.000000 
#    y 0.000000 3.573990 0.000000 
#    z 0.000000 0.000000 3.128630 
# 
# 
# High freq. dielectric constant tensor:
#      x y z
#    x 1.723120 0.000000 0.000000 
#    y 0.000000 1.724240 0.000000 
#    z 0.000000 0.000000 1.679640 
# 
# From -- ./inp_files/8224.got.cif
#   From: 2010.03.12/outbox.cif.g09.slc.cpg/sg64_5_cif.got.tgz:8224.got - 2010.04.10 20:19:32.
