data_PCOD8262744
_publ_section_title
;
Structure prediction by ZEFSAII (Michael W. Deem and Ramdas Pophale) SiO2 
 PCOD8262744
Probable space group: C M C A
;
_chemical_formula_sum "Si O2"
_cell_formula_units_Z 72
_cell_length_a 9.184716
_cell_length_b 17.868794
_cell_length_c 23.147309
_cell_angle_alpha 90.000000
_cell_angle_beta 90.000000
_cell_angle_gamma 90.000000
_cell_volume 3798.931681
_symmetry_space_group_name_H-M "C M C A"
_symmetry_group_IT_number 64
_symmetry_cell_setting 'orthorhombic'
loop_
_space_group_symop_operation_xyz
x,y,z
-x,1/2-y,1/2+z
x,-y,-z
-x,1/2+y,1/2-z
-x,-y,-z
x,1/2+y,1/2-z
-x,y,z
x,1/2-y,1/2+z
1/2+x,1/2+y,z
1/2-x,-y,1/2+z
1/2+x,1/2-y,-z
1/2-x,y,1/2-z
1/2-x,1/2-y,-z
1/2+x,y,1/2-z
1/2-x,1/2+y,z
1/2+x,-y,1/2+z
loop_
_atom_site_type_symbol
_atom_site_label
_atom_site_fract_x
_atom_site_fract_y
_atom_site_fract_z
Si Si1 0.836824 0.094977 0.843368
Si Si2 0.750000 0.481782 0.750000
Si Si3 0.159533 0.125492 0.348591
Si Si4 0.327545 0.242158 0.808876
Si Si5 0.833055 0.996428 0.433727
O O1 0.729452 0.162513 0.829136
O O2 0.000000 0.124661 0.854391
O O3 0.846703 0.035573 0.790793
O O4 0.775209 0.059981 0.901937
O O5 0.842015 0.428987 0.792573
O O6 0.282704 0.189769 0.350985
O O7 0.185532 0.078431 0.406570
O O8 0.000000 0.163503 0.349958
O O9 0.500000 0.238140 0.801530
O O10 0.250000 0.265327 0.750000
O O11 0.000000 0.968464 0.427055
O O12 0.785248 0.000000 0.500000
#
# Coordination Sequence:
#
# PCOD8262744 Si02
#       5
#    16   8  16  16  16
#     4  11  22  36  58  86 117 151 192 237 286 341
#     4  10  20  32  56  82 118 146 186 230 288 340
#     4  10  20  35  57  84 115 149 188 231 282 339
#     4  12  24  37  55  82 119 155 189 230 284 344
#     4   9  20  40  63  86 115 151 193 241 289 337
#
# _framework density 18.952697000000001
#
# number of rings (size 3 to 8) (size 9 to 14) (size 15 to 20)
#    0.000    1.556    2.222    3.333    0.000    5.778 
#    0.000    1.111    0.000    0.000    0.000    0.000 
#    0.000    0.000    0.000    0.000    0.000    0.000 
#
# Total GULP energy -446311.995929 kJ/mol
# GULP energy per Si atom -12397.555442 kJ/mol
# Density = 1.890956 g / cm^3
# Si number density = 18.952697 Si / 1000 Ang^3
#
#
#
# Elastic Constant Matrix: (Units=GPa)
#
#
# Indices 1 2 3 4 5 6 
#
# 1 147.4054 46.2608 27.7943 0.0000 0.0000 0.0000
# 2 46.2608 92.6156 22.5343 0.0000 0.0000 0.0000
# 3 27.7943 22.5343 97.2237 0.0000 0.0000 0.0000
# 4 0.0000 0.0000 0.0000 16.3351 0.0000 0.0000
# 5 0.0000 0.0000 0.0000 0.0000 20.2806 0.0000
# 6 0.0000 0.0000 0.0000 0.0000 0.0000 31.5074
#
#
#
# Elastic Compliance Matrix: (Units=1/GPa)
#
#
# Indices 1 2 3 4 5 6 
#
# 1 0.008243 -0.003756 -0.001486 0.000000 0.000000 0.000000
# 2 -0.003756 0.013154 -0.001975 0.000000 0.000000 0.000000
# 3 -0.001486 -0.001975 0.011168 0.000000 0.000000 0.000000
# 4 0.000000 0.000000 0.000000 0.061218 0.000000 0.000000
# 5 0.000000 0.000000 0.000000 0.000000 0.049308 0.000000
# 6 0.000000 0.000000 0.000000 0.000000 0.000000 0.031739
#
#
# Mechanical properties :
#
#
# Convention : Reuss Voigt Hill
#
# Bulk Modulus (GPa) = 55.15324 58.93597 57.04460
# Shear Modulus (GPa) = 25.60075 29.66831 27.63453
#
# Velocity S-wave (km/s) = 3.67927 3.96079 3.82262
# Velocity P-wave (km/s) = 6.87117 7.21672 7.04606
#
# Compressibility (1/GPa) = 0.01813130
#
# Stress axis : x y z
#
# Youngs Moduli (GPa) = 121.31694 76.02355 89.54034
#
# Poissons Ratio (x) = 0.28552 0.13306
# Poissons Ratio (y) = 0.45563 0.17685
# Poissons Ratio (z) = 0.18028 0.15015
#
# Static dielectric constant tensor:
#      x y z
#    x 3.424570 0.000000 0.000000 
#    y 0.000000 3.486520 0.000000 
#    z 0.000000 0.000000 3.412570 
# 
# 
# High freq. dielectric constant tensor:
#      x y z
#    x 1.739860 0.000000 0.000000 
#    y 0.000000 1.739110 0.000000 
#    z 0.000000 0.000000 1.717260 
# 
# From -- ./inp_files/36545.got.cif
#   From: 2010.03.12/outbox.cif.g09.slc.cpg/sg64_19_cif.got.tgz:36545.got - 2010.04.10 20:19:32.
