data_PCOD8262411
_publ_section_title
;
Structure prediction by ZEFSAII (Michael W. Deem and Ramdas Pophale) SiO2 
 PCOD8262411
Probable space group: C M C A
;
_chemical_formula_sum "Si O2"
_cell_formula_units_Z 80
_cell_length_a 8.904605
_cell_length_b 15.514244
_cell_length_c 28.973485
_cell_angle_alpha 90.000000
_cell_angle_beta 90.000000
_cell_angle_gamma 90.000000
_cell_volume 4002.635226
_symmetry_space_group_name_H-M "C M C A"
_symmetry_group_IT_number 64
_symmetry_cell_setting 'orthorhombic'
loop_
_space_group_symop_operation_xyz
x,y,z
-x,1/2-y,1/2+z
x,-y,-z
-x,1/2+y,1/2-z
-x,-y,-z
x,1/2+y,1/2-z
-x,y,z
x,1/2-y,1/2+z
1/2+x,1/2+y,z
1/2-x,-y,1/2+z
1/2+x,1/2-y,-z
1/2-x,y,1/2-z
1/2-x,1/2-y,-z
1/2+x,y,1/2-z
1/2-x,1/2+y,z
1/2+x,-y,1/2+z
loop_
_atom_site_type_symbol
_atom_site_label
_atom_site_fract_x
_atom_site_fract_y
_atom_site_fract_z
Si Si1 0.324931 0.980736 0.858819
Si Si2 0.169550 0.726715 0.546764
Si Si3 0.829020 0.474713 0.449522
Si Si4 0.176082 0.212043 0.357655
Si Si5 0.321944 0.627967 0.799533
O O1 0.500000 0.003974 0.853679
O O2 0.291129 0.884361 0.839526
O O3 0.279141 0.980546 0.912475
O O4 0.224411 0.047325 0.830806
O O5 0.250000 0.750000 0.500000
O O6 0.179567 0.626509 0.557816
O O7 0.245300 0.774188 0.590963
O O8 0.000000 0.757749 0.539999
O O9 0.768427 0.500000 0.500000
O O10 0.000000 0.508172 0.443144
O O11 0.240125 0.282831 0.321789
O O12 0.000000 0.229818 0.362616
O O13 0.500000 0.628086 0.794549
O O14 0.250000 0.616293 0.750000
#
# Coordination Sequence:
#
# PCOD8262411 Si02
#       5
#    16  16  16  16  16
#     4  11  22  38  62  92 122 157 203 251 302 359
#     4  10  19  34  54  81 118 160 199 243 296 350
#     4  10  20  35  56  84 122 165 205 248 302 359
#     4   9  20  39  61  84 121 161 196 245 302 355
#     4  11  23  44  67  89 121 159 200 250 307 363
#
# _framework density 19.986833000000001
#
# number of rings (size 3 to 8) (size 9 to 14) (size 15 to 20)
#    0.000    1.800    2.000    2.400    0.000    2.000 
#    0.000    7.000    0.000    0.000    0.000    0.000 
#    0.000    0.000    0.000    0.000    0.000    0.000 
#
# Total GULP energy -496011.174863 kJ/mol
# GULP energy per Si atom -12400.279372 kJ/mol
# Density = 1.994134 g / cm^3
# Si number density = 19.986833 Si / 1000 Ang^3
#
#
#
# Elastic Constant Matrix: (Units=GPa)
#
#
# Indices 1 2 3 4 5 6 
#
# 1 61.0270 31.0933 31.9758 0.0000 0.0000 0.0000
# 2 31.0933 109.3481 43.6997 0.0000 0.0000 0.0000
# 3 31.9758 43.6997 121.3168 0.0000 0.0000 0.0000
# 4 0.0000 0.0000 0.0000 27.7075 0.0000 0.0000
# 5 0.0000 0.0000 0.0000 0.0000 34.2761 0.0000
# 6 0.0000 0.0000 0.0000 0.0000 0.0000 21.4167
#
#
#
# Elastic Compliance Matrix: (Units=1/GPa)
#
#
# Indices 1 2 3 4 5 6 
#
# 1 0.020616 -0.004311 -0.003881 0.000000 0.000000 0.000000
# 2 -0.004311 0.011585 -0.003037 0.000000 0.000000 0.000000
# 3 -0.003881 -0.003037 0.010360 0.000000 0.000000 0.000000
# 4 0.000000 0.000000 0.000000 0.036091 0.000000 0.000000
# 5 0.000000 0.000000 0.000000 0.000000 0.029175 0.000000
# 6 0.000000 0.000000 0.000000 0.000000 0.000000 0.046693
#
#
# Mechanical properties :
#
#
# Convention : Reuss Voigt Hill
#
# Bulk Modulus (GPa) = 49.74412 56.13661 52.94037
# Shear Modulus (GPa) = 27.22161 29.00826 28.11493
#
# Velocity S-wave (km/s) = 3.69450 3.81382 3.75463
# Velocity P-wave (km/s) = 6.56823 6.89502 6.73361
#
# Compressibility (1/GPa) = 0.02010288
#
# Stress axis : x y z
#
# Youngs Moduli (GPa) = 48.50541 86.32184 96.52909
#
# Poissons Ratio (x) = 0.37216 0.37462
# Poissons Ratio (y) = 0.20912 0.29311
# Poissons Ratio (z) = 0.18824 0.26212
#
# Static dielectric constant tensor:
#      x y z
#    x 3.465260 0.000000 0.000000 
#    y 0.000000 4.603720 0.000000 
#    z 0.000000 0.000000 4.583930 
# 
# 
# High freq. dielectric constant tensor:
#      x y z
#    x 1.757370 0.000000 0.000000 
#    y 0.000000 1.791960 0.000000 
#    z 0.000000 0.000000 1.783880 
# 
# From -- ./inp_files/47805.got.cif
#   From: 2010.03.12/outbox.cif.g09.slc.cpg/sg64_24_cif.got.tgz:47805.got - 2010.04.10 20:19:32.
