data_PCOD8262661
_publ_section_title
;
Structure prediction by ZEFSAII (Michael W. Deem and Ramdas Pophale) SiO2 
 PCOD8262661
Probable space group: C M C A
;
_chemical_formula_sum "Si O2"
_cell_formula_units_Z 104
_cell_length_a 15.006720
_cell_length_b 16.465065
_cell_length_c 21.291662
_cell_angle_alpha 90.000000
_cell_angle_beta 90.000000
_cell_angle_gamma 90.000000
_cell_volume 5260.884803
_symmetry_space_group_name_H-M "C M C A"
_symmetry_group_IT_number 64
_symmetry_cell_setting 'orthorhombic'
loop_
_space_group_symop_operation_xyz
x,y,z
-x,1/2-y,1/2+z
x,-y,-z
-x,1/2+y,1/2-z
-x,-y,-z
x,1/2+y,1/2-z
-x,y,z
x,1/2-y,1/2+z
1/2+x,1/2+y,z
1/2-x,-y,1/2+z
1/2+x,1/2-y,-z
1/2-x,y,1/2-z
1/2-x,1/2-y,-z
1/2+x,y,1/2-z
1/2-x,1/2+y,z
1/2+x,-y,1/2+z
loop_
_atom_site_type_symbol
_atom_site_label
_atom_site_fract_x
_atom_site_fract_y
_atom_site_fract_z
Si Si1 0.099057 0.948035 0.338978
Si Si2 0.900997 0.883223 0.896361
Si Si3 0.772702 0.114991 0.892023
Si Si4 0.163882 0.000000 0.000000
Si Si5 0.400781 0.066056 0.050745
Si Si6 0.233162 0.213648 0.433462
Si Si7 0.898614 0.980695 0.197363
O O1 0.170147 0.885837 0.368364
O O2 0.128033 0.978379 0.270209
O O3 0.000000 0.907624 0.338744
O O4 0.097777 0.028917 0.380252
O O5 0.824982 0.816087 0.902244
O O6 0.000000 0.843638 0.898405
O O7 0.885863 0.928549 0.829892
O O8 0.896720 0.948197 0.953081
O O9 0.803346 0.208979 0.895120
O O10 0.835546 0.080113 0.838992
O O11 0.778357 0.063757 0.957601
O O12 0.500000 0.094593 0.030205
O O13 0.337107 0.142511 0.057349
O O14 0.365359 0.000000 0.000000
O O15 0.250000 0.250000 0.500000
O O16 0.000000 0.951911 0.187100
#
# Coordination Sequence:
#
# PCOD8262661 Si02
#       7
#    16  16  16   8  16  16  16
#     4  10  21  39  64  87 114 157 209 250 292 360
#     4  10  21  37  60  86 116 156 200 250 302 350
#     4  11  22  36  60  87 123 157 195 244 306 355
#     4  10  19  38  59  82 116 152 201 250 283 356
#     4  10  22  40  63  87 116 158 204 250 303 358
#     4  12  24  36  55  89 127 156 194 250 303 363
#     4   9  20  40  64  88 112 154 210 254 295 355
#
# _framework density 19.768536999999998
#
# number of rings (size 3 to 8) (size 9 to 14) (size 15 to 20)
#    0.000    1.692    1.538    3.462    2.154    2.462 
#    0.000    3.077    0.000    3.692    0.000    0.000 
#    0.000    0.000    0.000    0.000    0.000    0.000 
#
# Total GULP energy -644472.190014 kJ/mol
# GULP energy per Si atom -12393.695962 kJ/mol
# Density = 1.972354 g / cm^3
# Si number density = 19.768537 Si / 1000 Ang^3
#
#
#
# Elastic Constant Matrix: (Units=GPa)
#
#
# Indices 1 2 3 4 5 6 
#
# 1 123.7186 69.1755 39.7738 0.0000 0.0000 0.0000
# 2 69.1755 124.4351 48.3621 0.0000 0.0000 0.0000
# 3 39.7738 48.3621 115.3294 0.0000 0.0000 0.0000
# 4 0.0000 0.0000 0.0000 16.7643 0.0000 0.0000
# 5 0.0000 0.0000 0.0000 0.0000 26.7839 0.0000
# 6 0.0000 0.0000 0.0000 0.0000 0.0000 -11.1824
#
#
#
# Elastic Compliance Matrix: (Units=1/GPa)
#
#
# Indices 1 2 3 4 5 6 
#
# 1 0.011970 -0.006033 -0.001598 0.000000 0.000000 0.000000
# 2 -0.006033 0.012642 -0.003221 0.000000 0.000000 0.000000
# 3 -0.001598 -0.003221 0.010572 0.000000 0.000000 0.000000
# 4 0.000000 0.000000 0.000000 0.059651 0.000000 0.000000
# 5 0.000000 0.000000 0.000000 0.000000 0.037336 0.000000
# 6 0.000000 0.000000 0.000000 0.000000 0.000000 -0.089426
#
#
# Mechanical properties :
#
#
# Convention : Reuss Voigt Hill
#
# Bulk Modulus (GPa) = 74.18079 75.34510 74.76294
# Shear Modulus (GPa) = 72.52457 20.21793 46.37125
#
# Velocity S-wave (km/s) = 6.06354 3.20149 4.84851
# Velocity P-wave (km/s) = 9.30742 7.20156 8.32138
#
# Compressibility (1/GPa) = 0.01348058
#
# Stress axis : x y z
#
# Youngs Moduli (GPa) = 83.54200 79.10166 94.58504
#
# Poissons Ratio (x) = 0.47724 0.15116
# Poissons Ratio (y) = 0.50403 0.30462
# Poissons Ratio (z) = 0.13351 0.25475
#
# Static dielectric constant tensor:
#      x y z
#    x 3.816910 0.000000 0.000000 
#    y 0.000000 2.858710 0.000000 
#    z 0.000000 0.000000 3.814370 
# 
# 
# High freq. dielectric constant tensor:
#      x y z
#    x 1.786790 0.000000 0.000000 
#    y 0.000000 1.744520 0.000000 
#    z 0.000000 0.000000 1.776960 
# 
# From -- ./inp_files/39441.got.cif
#   From: 2010.03.12/outbox.cif.g09.slc.cpg/sg64_20_cif.got.tgz:39441.got - 2010.04.10 20:19:32.
