data_PCOD8262156
_publ_section_title
;
Structure prediction by ZEFSAII (Michael W. Deem and Ramdas Pophale) SiO2 
 PCOD8262156
Probable space group: C M C A
;
_chemical_formula_sum "Si O2"
_cell_formula_units_Z 120
_cell_length_a 19.049074
_cell_length_b 15.985704
_cell_length_c 21.490100
_cell_angle_alpha 90.000000
_cell_angle_beta 90.000000
_cell_angle_gamma 90.000000
_cell_volume 6544.011779
_symmetry_space_group_name_H-M "C M C A"
_symmetry_group_IT_number 64
_symmetry_cell_setting 'orthorhombic'
loop_
_space_group_symop_operation_xyz
x,y,z
-x,1/2-y,1/2+z
x,-y,-z
-x,1/2+y,1/2-z
-x,-y,-z
x,1/2+y,1/2-z
-x,y,z
x,1/2-y,1/2+z
1/2+x,1/2+y,z
1/2-x,-y,1/2+z
1/2+x,1/2-y,-z
1/2-x,y,1/2-z
1/2-x,1/2-y,-z
1/2+x,y,1/2-z
1/2-x,1/2+y,z
1/2+x,-y,1/2+z
loop_
_atom_site_type_symbol
_atom_site_label
_atom_site_fract_x
_atom_site_fract_y
_atom_site_fract_z
Si Si1 0.581865 0.742634 0.413653
Si Si2 0.206297 0.309284 0.151960
Si Si3 0.674818 0.270755 0.971896
Si Si4 0.168330 0.450092 0.232558
Si Si5 0.750000 0.820658 0.750000
Si Si6 0.787942 0.548126 0.440244
Si Si7 0.164078 0.402916 0.845276
Si Si8 0.849586 0.405986 0.364859
O O1 0.500000 0.727741 0.419576
O O2 0.614885 0.739028 0.481986
O O3 0.611425 0.665036 0.373201
O O4 0.595871 0.833897 0.384220
O O5 0.163403 0.280955 0.091457
O O6 0.159363 0.359595 0.200575
O O7 0.231025 0.227398 0.187306
O O8 0.272660 0.365098 0.132844
O O9 0.669027 0.370104 0.961526
O O10 0.750000 0.250000 0.000000
O O11 0.250000 0.471047 0.250000
O O12 0.132002 0.509408 0.179628
O O13 0.126911 0.441739 0.297537
O O14 0.813346 0.875592 0.724593
O O15 0.754686 0.500000 0.500000
O O16 0.726551 0.576468 0.393421
O O17 0.845820 0.486133 0.410060
#
# Coordination Sequence:
#
# PCOD8262156 Si02
#       8
#    16  16  16  16   8  16  16  16
#     4  12  26  43  60  85 129 176 209 247 316 385
#     4  11  18  30  57  89 123 149 191 256 308 353
#     4  12  21  37  58  88 118 155 214 259 297 356
#     4  10  19  31  56  96 125 144 187 258 320 357
#     4  12  16  30  56  96 120 146 190 254 318 358
#     4  12  20  31  59  95 119 147 203 265 314 345
#     4  12  21  33  59  93 128 154 198 264 312 366
#     4  11  19  37  56  92 124 155 198 254 315 360
#
# _framework density 18.337375999999999
#
# number of rings (size 3 to 8) (size 9 to 14) (size 15 to 20)
#    0.000    0.533   12.000    0.000    0.000    0.000 
#    0.000    2.000    0.000    6.800    0.000    0.000 
#    0.000    0.000    0.000    0.000    0.000    0.000 
#
# Total GULP energy -743375.360593 kJ/mol
# GULP energy per Si atom -12389.589343 kJ/mol
# Density = 1.829564 g / cm^3
# Si number density = 18.337376 Si / 1000 Ang^3
#
#
#
# Elastic Constant Matrix: (Units=GPa)
#
#
# Indices 1 2 3 4 5 6 
#
# 1 66.6017 26.0131 34.9351 0.0000 0.0000 0.0000
# 2 26.0131 78.2546 35.7900 0.0000 0.0000 0.0000
# 3 34.9351 35.7900 121.5745 0.0000 0.0000 0.0000
# 4 0.0000 0.0000 0.0000 65.0163 0.0000 0.0000
# 5 0.0000 0.0000 0.0000 0.0000 13.8774 0.0000
# 6 0.0000 0.0000 0.0000 0.0000 0.0000 13.7482
#
#
#
# Elastic Compliance Matrix: (Units=1/GPa)
#
#
# Indices 1 2 3 4 5 6 
#
# 1 0.018900 -0.004390 -0.004139 0.000000 0.000000 0.000000
# 2 -0.004390 0.015787 -0.003386 0.000000 0.000000 0.000000
# 3 -0.004139 -0.003386 0.010411 0.000000 0.000000 0.000000
# 4 0.000000 0.000000 0.000000 0.015381 0.000000 0.000000
# 5 0.000000 0.000000 0.000000 0.000000 0.072059 0.000000
# 6 0.000000 0.000000 0.000000 0.000000 0.000000 0.072737
#
#
# Mechanical properties :
#
#
# Convention : Reuss Voigt Hill
#
# Bulk Modulus (GPa) = 47.01635 51.10077 49.05856
# Shear Modulus (GPa) = 21.16902 29.84123 25.50513
#
# Velocity S-wave (km/s) = 3.40136 4.03841 3.73350
# Velocity P-wave (km/s) = 6.41256 7.04787 6.73771
#
# Compressibility (1/GPa) = 0.02126920
#
# Stress axis : x y z
#
# Youngs Moduli (GPa) = 52.90969 63.34474 96.04787
#
# Poissons Ratio (x) = 0.27807 0.39752
# Poissons Ratio (y) = 0.23227 0.32521
# Poissons Ratio (z) = 0.21898 0.21448
#
# Static dielectric constant tensor:
#      x y z
#    x 2.527840 0.000000 0.000000 
#    y 0.000000 3.878950 0.000000 
#    z 0.000000 0.000000 3.895000 
# 
# 
# High freq. dielectric constant tensor:
#      x y z
#    x 1.617970 0.000000 0.000000 
#    y 0.000000 1.742000 0.000000 
#    z 0.000000 0.000000 1.739810 
# 
# From -- ./inp_files/46441.got.cif
#   From: 2010.03.12/outbox.cif.g09.slc.cpg/sg64_24_cif.got.tgz:46441.got - 2010.04.10 20:19:32.
