data_PCOD8262604
_publ_section_title
;
Structure prediction by ZEFSAII (Michael W. Deem and Ramdas Pophale) SiO2 
 PCOD8262604
Probable space group: C M C A
;
_chemical_formula_sum "Si O2"
_cell_formula_units_Z 88
_cell_length_a 15.017214
_cell_length_b 28.162385
_cell_length_c 9.430394
_cell_angle_alpha 90.000000
_cell_angle_beta 90.000000
_cell_angle_gamma 90.000000
_cell_volume 3988.307533
_symmetry_space_group_name_H-M "C M C A"
_symmetry_group_IT_number 64
_symmetry_cell_setting 'orthorhombic'
loop_
_space_group_symop_operation_xyz
x,y,z
-x,1/2-y,1/2+z
x,-y,-z
-x,1/2+y,1/2-z
-x,-y,-z
x,1/2+y,1/2-z
-x,y,z
x,1/2-y,1/2+z
1/2+x,1/2+y,z
1/2-x,-y,1/2+z
1/2+x,1/2-y,-z
1/2-x,y,1/2-z
1/2-x,1/2-y,-z
1/2+x,y,1/2-z
1/2-x,1/2+y,z
1/2+x,-y,1/2+z
loop_
_atom_site_type_symbol
_atom_site_label
_atom_site_fract_x
_atom_site_fract_y
_atom_site_fract_z
Si Si1 0.397736 0.419090 0.352987
Si Si2 0.101007 0.905212 0.674418
Si Si3 0.837830 0.224153 0.952269
Si Si4 0.394155 0.006808 0.341649
Si Si5 0.250000 0.150572 0.750000
Si Si6 0.851880 0.300849 0.752662
O O1 0.500000 0.404561 0.311172
O O2 0.393568 0.429471 0.520200
O O3 0.365191 0.464245 0.261901
O O4 0.326035 0.378414 0.329906
O O5 0.144678 0.943366 0.782353
O O6 0.146650 0.854112 0.687166
O O7 0.000000 0.895480 0.718329
O O8 0.808750 0.179333 0.860965
O O9 0.897195 0.262325 0.860792
O O10 0.750000 0.250000 0.000000
O O11 0.891425 0.205347 0.092634
O O12 0.500000 0.009733 0.344115
O O13 0.355386 0.000000 0.500000
O O14 0.750000 0.284757 0.750000
#
# Coordination Sequence:
#
# PCOD8262604 Si02
#       6
#    16  16  16  16   8  16
#     4  10  22  40  63  90 123 164 206 252 308 370
#     4  10  21  39  63  88 121 163 205 250 308 372
#     4  10  19  36  60  82 117 159 202 247 311 363
#     4   9  19  38  60  86 124 162 197 249 312 362
#     4  12  22  38  66  92 122 162 212 256 306 370
#     4  10  20  36  58  84 112 158 200 243 303 365
#
# _framework density 22.064496999999999
#
# number of rings (size 3 to 8) (size 9 to 14) (size 15 to 20)
#    0.000    2.000    2.727    2.727    2.545    2.182 
#    1.636    1.818    0.000    1.091    0.000    0.000 
#    0.000    0.000    0.000    0.000    0.000    0.000 
#
# Total GULP energy -545168.111534 kJ/mol
# GULP energy per Si atom -12390.184353 kJ/mol
# Density = 2.201428 g / cm^3
# Si number density = 22.064497 Si / 1000 Ang^3
#
#
#
# Elastic Constant Matrix: (Units=GPa)
#
#
# Indices 1 2 3 4 5 6 
#
# 1 28.6571 10.8795 10.2398 0.0000 0.0000 0.0000
# 2 10.8795 156.9771 83.9271 0.0000 0.0000 0.0000
# 3 10.2398 83.9271 175.5537 0.0000 0.0000 0.0000
# 4 0.0000 0.0000 0.0000 50.6248 0.0000 0.0000
# 5 0.0000 0.0000 0.0000 0.0000 13.2429 0.0000
# 6 0.0000 0.0000 0.0000 0.0000 0.0000 48.0234
#
#
#
# Elastic Compliance Matrix: (Units=1/GPa)
#
#
# Indices 1 2 3 4 5 6 
#
# 1 0.036032 -0.001845 -0.001220 0.000000 0.000000 0.000000
# 2 -0.001845 0.008652 -0.004029 0.000000 0.000000 0.000000
# 3 -0.001220 -0.004029 0.007693 0.000000 0.000000 0.000000
# 4 0.000000 0.000000 0.000000 0.019753 0.000000 0.000000
# 5 0.000000 0.000000 0.000000 0.000000 0.075512 0.000000
# 6 0.000000 0.000000 0.000000 0.000000 0.000000 0.020823
#
#
# Mechanical properties :
#
#
# Convention : Reuss Voigt Hill
#
# Bulk Modulus (GPa) = 26.18464 63.47562 44.83013
# Shear Modulus (GPa) = 25.59081 39.45433 32.52257
#
# Velocity S-wave (km/s) = 3.40930 4.23322 3.84341
# Velocity P-wave (km/s) = 5.23363 7.26115 6.32910
#
# Compressibility (1/GPa) = 0.03819033
#
# Stress axis : x y z
#
# Youngs Moduli (GPa) = 27.75337 115.57780 129.98134
#
# Poissons Ratio (x) = 0.21326 0.15852
# Poissons Ratio (y) = 0.05121 0.52366
# Poissons Ratio (z) = 0.03385 0.46563
#
# Static dielectric constant tensor:
#      x y z
#    x 3.523950 0.000000 0.000000 
#    y 0.000000 3.950930 0.000000 
#    z 0.000000 0.000000 5.862890 
# 
# 
# High freq. dielectric constant tensor:
#      x y z
#    x 1.823990 0.000000 0.000000 
#    y 0.000000 1.875170 0.000000 
#    z 0.000000 0.000000 1.889660 
# 
# From -- ./inp_files/7324.got.cif
#   From: 2010.03.12/outbox.cif.g09.slc.cpg/sg64_4_cif.got.tgz:7324.got - 2010.04.10 20:19:32.
