data_PCOD8262392
_publ_section_title
;
Structure prediction by ZEFSAII (Michael W. Deem and Ramdas Pophale) SiO2 
 PCOD8262392
Probable space group: C M C A
;
_chemical_formula_sum "Si O2"
_cell_formula_units_Z 96
_cell_length_a 9.004724
_cell_length_b 23.780633
_cell_length_c 25.369002
_cell_angle_alpha 90.000000
_cell_angle_beta 90.000000
_cell_angle_gamma 90.000000
_cell_volume 5432.468282
_symmetry_space_group_name_H-M "C M C A"
_symmetry_group_IT_number 64
_symmetry_cell_setting 'orthorhombic'
loop_
_space_group_symop_operation_xyz
x,y,z
-x,1/2-y,1/2+z
x,-y,-z
-x,1/2+y,1/2-z
-x,-y,-z
x,1/2+y,1/2-z
-x,y,z
x,1/2-y,1/2+z
1/2+x,1/2+y,z
1/2-x,-y,1/2+z
1/2+x,1/2-y,-z
1/2-x,y,1/2-z
1/2-x,1/2-y,-z
1/2+x,y,1/2-z
1/2-x,1/2+y,z
1/2+x,-y,1/2+z
loop_
_atom_site_type_symbol
_atom_site_label
_atom_site_fract_x
_atom_site_fract_y
_atom_site_fract_z
Si Si1 0.324791 0.020237 0.056584
Si Si2 0.324466 0.331552 0.194146
Si Si3 0.334576 0.675997 0.530225
Si Si4 0.171953 0.754436 0.876300
Si Si5 0.329018 0.363548 0.931938
Si Si6 0.833550 0.413479 0.117327
O O1 0.500000 0.026398 0.051254
O O2 0.262921 0.079950 0.075369
O O3 0.281617 0.976693 0.103216
O O4 0.258812 0.000000 0.000000
O O5 0.500000 0.329910 0.200135
O O6 0.250000 0.341214 0.250000
O O7 0.269797 0.271824 0.170462
O O8 0.279232 0.384173 0.157528
O O9 0.500000 0.687948 0.507906
O O10 0.280672 0.725663 0.568634
O O11 0.218172 0.671326 0.483317
O O12 0.335511 0.617444 0.561328
O O13 0.196624 0.821614 0.881872
O O14 0.000000 0.739440 0.864662
O O15 0.500000 0.379874 0.937381
O O16 0.000000 0.412668 0.141845
#
# Coordination Sequence:
#
# PCOD8262392 Si02
#       6
#    16  16  16  16  16  16
#     4  10  19  34  52  71 104 151 187 212 254 309
#     4  11  22  37  60  84 104 129 167 217 272 321
#     4   9  16  30  49  68 100 143 180 211 252 309
#     4   9  20  36  50  71 105 140 173 214 264 312
#     4  11  21  30  46  74 108 142 178 219 257 299
#     4   9  18  34  54  76 105 140 179 219 259 306
#
# _framework density 17.671524999999999
#
# number of rings (size 3 to 8) (size 9 to 14) (size 15 to 20)
#    0.000    2.167    1.667    3.500    0.000    5.000 
#    0.000    0.000    0.000    1.000    0.000    7.000 
#    0.000    0.000    0.000    0.000    0.000    0.000 
#
# Total GULP energy -595089.761872 kJ/mol
# GULP energy per Si atom -12397.703372 kJ/mol
# Density = 1.763130 g / cm^3
# Si number density = 17.671525 Si / 1000 Ang^3
#
#
#
# Elastic Constant Matrix: (Units=GPa)
#
#
# Indices 1 2 3 4 5 6 
#
# 1 80.2565 40.3514 43.2818 0.0000 0.0000 0.0000
# 2 40.3514 103.5421 31.3299 0.0000 0.0000 0.0000
# 3 43.2818 31.3299 68.8887 0.0000 0.0000 0.0000
# 4 0.0000 0.0000 0.0000 9.2849 0.0000 0.0000
# 5 0.0000 0.0000 0.0000 0.0000 26.5521 0.0000
# 6 0.0000 0.0000 0.0000 0.0000 0.0000 29.4445
#
#
#
# Elastic Compliance Matrix: (Units=1/GPa)
#
#
# Indices 1 2 3 4 5 6 
#
# 1 0.020713 -0.004794 -0.010833 0.000000 0.000000 0.000000
# 2 -0.004794 0.012309 -0.002586 0.000000 0.000000 0.000000
# 3 -0.010833 -0.002586 0.022499 0.000000 0.000000 0.000000
# 4 0.000000 0.000000 0.000000 0.107702 0.000000 0.000000
# 5 0.000000 0.000000 0.000000 0.000000 0.037662 0.000000
# 6 0.000000 0.000000 0.000000 0.000000 0.000000 0.033962
#
#
# Mechanical properties :
#
#
# Convention : Reuss Voigt Hill
#
# Bulk Modulus (GPa) = 52.37325 53.62371 52.99848
# Shear Modulus (GPa) = 18.00919 22.23792 20.12356
#
# Velocity S-wave (km/s) = 3.19581 3.55125 3.37821
# Velocity P-wave (km/s) = 6.58172 6.87210 6.72847
#
# Compressibility (1/GPa) = 0.01909372
#
# Stress axis : x y z
#
# Youngs Moduli (GPa) = 48.27961 81.24401 44.44735
#
# Poissons Ratio (x) = 0.38948 0.48151
# Poissons Ratio (y) = 0.23145 0.11493
# Poissons Ratio (z) = 0.52302 0.21008
#
# Static dielectric constant tensor:
#      x y z
#    x 3.194120 0.000000 0.000000 
#    y 0.000000 3.400820 0.000000 
#    z 0.000000 0.000000 2.985910 
# 
# 
# High freq. dielectric constant tensor:
#      x y z
#    x 1.680640 0.000000 0.000000 
#    y 0.000000 1.690110 0.000000 
#    z 0.000000 0.000000 1.645360 
# 
# From -- ./inp_files/43033.got.cif
#   From: 2010.03.12/outbox.cif.g09.slc.cpg/sg64_22_cif.got.tgz:43033.got - 2010.04.10 20:19:32.
