data_PCOD8262951
_publ_section_title
;
Structure prediction by ZEFSAII (Michael W. Deem and Ramdas Pophale) SiO2 
 PCOD8262951
Probable space group: C M C A
;
_chemical_formula_sum "Si O2"
_cell_formula_units_Z 104
_cell_length_a 8.847035
_cell_length_b 27.695554
_cell_length_c 20.824999
_cell_angle_alpha 90.000000
_cell_angle_beta 90.000000
_cell_angle_gamma 90.000000
_cell_volume 5102.614883
_symmetry_space_group_name_H-M "C M C A"
_symmetry_group_IT_number 64
_symmetry_cell_setting 'orthorhombic'
loop_
_space_group_symop_operation_xyz
x,y,z
-x,1/2-y,1/2+z
x,-y,-z
-x,1/2+y,1/2-z
-x,-y,-z
x,1/2+y,1/2-z
-x,y,z
x,1/2-y,1/2+z
1/2+x,1/2+y,z
1/2-x,-y,1/2+z
1/2+x,1/2-y,-z
1/2-x,y,1/2-z
1/2-x,1/2-y,-z
1/2+x,y,1/2-z
1/2-x,1/2+y,z
1/2+x,-y,1/2+z
loop_
_atom_site_type_symbol
_atom_site_label
_atom_site_fract_x
_atom_site_fract_y
_atom_site_fract_z
Si Si1 0.167250 0.695824 0.853146
Si Si2 0.250000 0.622900 0.750000
Si Si3 0.324696 0.129619 0.550000
Si Si4 0.178861 0.207278 0.317164
Si Si5 0.334624 0.050426 0.647849
Si Si6 0.177947 0.045045 0.318055
Si Si7 0.678104 0.626621 0.098824
O O1 0.150820 0.656365 0.796765
O O2 0.227443 0.672408 0.918777
O O3 0.281101 0.737485 0.831555
O O4 0.000000 0.717296 0.865721
O O5 0.353110 0.588913 0.794488
O O6 0.500000 0.142192 0.560922
O O7 0.285647 0.078245 0.583072
O O8 0.282377 0.125592 0.476015
O O9 0.250000 0.190196 0.250000
O O10 0.245838 0.174310 0.372992
O O11 0.000000 0.201214 0.313203
O O12 0.500000 0.025946 0.639328
O O13 0.210329 0.010308 0.663424
O O14 0.250000 0.058597 0.250000
O O15 0.249341 0.078897 0.371679
O O16 0.000000 0.053318 0.313904
O O17 0.500000 0.627348 0.111946
#
# Coordination Sequence:
#
# PCOD8262951 Si02
#       7
#    16   8  16  16  16  16  16
#     4  11  22  37  63  96 129 164 205 255 310 369
#     4  10  20  34  62  92 130 160 200 250 308 364
#     4   9  22  42  64  92 126 167 209 254 309 371
#     4  12  25  42  65  94 126 162 208 260 313 370
#     4  10  20  37  62  93 127 160 202 251 307 367
#     4  12  25  41  63  93 125 162 208 258 311 368
#     4  11  24  45  67  87 122 168 213 258 308 367
#
# _framework density 20.381706000000001
#
# number of rings (size 3 to 8) (size 9 to 14) (size 15 to 20)
#    0.000    1.231    1.538    4.615    0.000    6.154 
#    0.000    3.077    0.000    0.000    0.000    0.000 
#    0.000    0.000    0.000    0.000    0.000    0.000 
#
# Total GULP energy -644956.839641 kJ/mol
# GULP energy per Si atom -12403.016147 kJ/mol
# Density = 2.033532 g / cm^3
# Si number density = 20.381706 Si / 1000 Ang^3
#
#
#
# Elastic Constant Matrix: (Units=GPa)
#
#
# Indices 1 2 3 4 5 6 
#
# 1 139.3797 37.5970 63.4934 0.0000 0.0000 0.0000
# 2 37.5970 99.0260 58.6028 0.0000 0.0000 0.0000
# 3 63.4934 58.6028 162.7267 0.0000 0.0000 0.0000
# 4 0.0000 0.0000 0.0000 29.0924 0.0000 0.0000
# 5 0.0000 0.0000 0.0000 0.0000 26.4851 0.0000
# 6 0.0000 0.0000 0.0000 0.0000 0.0000 33.7547
#
#
#
# Elastic Compliance Matrix: (Units=1/GPa)
#
#
# Indices 1 2 3 4 5 6 
#
# 1 0.008943 -0.001691 -0.002881 0.000000 0.000000 0.000000
# 2 -0.001691 0.013153 -0.004077 0.000000 0.000000 0.000000
# 3 -0.002881 -0.004077 0.008738 0.000000 0.000000 0.000000
# 4 0.000000 0.000000 0.000000 0.034373 0.000000 0.000000
# 5 0.000000 0.000000 0.000000 0.000000 0.037757 0.000000
# 6 0.000000 0.000000 0.000000 0.000000 0.000000 0.029625
#
#
# Mechanical properties :
#
#
# Convention : Reuss Voigt Hill
#
# Bulk Modulus (GPa) = 73.87260 80.05764 76.96512
# Shear Modulus (GPa) = 32.38377 33.96238 33.17307
#
# Velocity S-wave (km/s) = 3.99038 4.08648 4.03872
# Velocity P-wave (km/s) = 7.58644 7.85049 7.71960
#
# Compressibility (1/GPa) = 0.01353682
#
# Stress axis : x y z
#
# Youngs Moduli (GPa) = 111.82062 76.02789 114.44911
#
# Poissons Ratio (x) = 0.12854 0.32967
# Poissons Ratio (y) = 0.18905 0.46663
# Poissons Ratio (z) = 0.32210 0.30998
#
# Static dielectric constant tensor:
#      x y z
#    x 3.624200 0.000000 0.000000 
#    y 0.000000 3.677860 0.000000 
#    z 0.000000 0.000000 3.814230 
# 
# 
# High freq. dielectric constant tensor:
#      x y z
#    x 1.801420 0.000000 0.000000 
#    y 0.000000 1.798380 0.000000 
#    z 0.000000 0.000000 1.800610 
# 
# From -- ./inp_files/37223.got.cif
#   From: 2010.03.12/outbox.cif.g09.slc.cpg/sg64_19_cif.got.tgz:37223.got - 2010.04.10 20:19:32.
