data_PCOD8262461
_publ_section_title
;
Structure prediction by ZEFSAII (Michael W. Deem and Ramdas Pophale) SiO2 
 PCOD8262461
Probable space group: C M C A
;
_chemical_formula_sum "Si O2"
_cell_formula_units_Z 96
_cell_length_a 8.863681
_cell_length_b 23.150028
_cell_length_c 23.507020
_cell_angle_alpha 90.000000
_cell_angle_beta 90.000000
_cell_angle_gamma 90.000000
_cell_volume 4823.510353
_symmetry_space_group_name_H-M "C M C A"
_symmetry_group_IT_number 64
_symmetry_cell_setting 'orthorhombic'
loop_
_space_group_symop_operation_xyz
x,y,z
-x,1/2-y,1/2+z
x,-y,-z
-x,1/2+y,1/2-z
-x,-y,-z
x,1/2+y,1/2-z
-x,y,z
x,1/2-y,1/2+z
1/2+x,1/2+y,z
1/2-x,-y,1/2+z
1/2+x,1/2-y,-z
1/2-x,y,1/2-z
1/2-x,1/2-y,-z
1/2+x,y,1/2-z
1/2-x,1/2+y,z
1/2+x,-y,1/2+z
loop_
_atom_site_type_symbol
_atom_site_label
_atom_site_fract_x
_atom_site_fract_y
_atom_site_fract_z
Si Si1 0.673054 0.948327 0.868573
Si Si2 0.175750 0.377655 0.532739
Si Si3 0.324766 0.857747 0.408863
Si Si4 0.679420 0.057644 0.687432
Si Si5 0.180478 0.270859 0.917553
Si Si6 0.830900 0.332821 0.806671
O O1 0.500000 0.967692 0.878207
O O2 0.734914 0.922970 0.928120
O O3 0.683198 0.900637 0.819356
O O4 0.773281 0.000161 0.845610
O O5 0.200997 0.395336 0.466454
O O6 0.236988 0.311535 0.536273
O O7 0.000000 0.379263 0.549345
O O8 0.500000 0.848055 0.397964
O O9 0.260353 0.890191 0.352996
O O10 0.254718 0.794098 0.418143
O O11 0.500000 0.057603 0.693887
O O12 0.750000 0.063146 0.750000
O O13 0.238028 0.296725 0.858055
O O14 0.000000 0.275901 0.926207
O O15 0.750000 0.314749 0.750000
O O16 0.000000 0.313070 0.797851
#
# Coordination Sequence:
#
# PCOD8262461 Si02
#       6
#    16  16  16  16  16  16
#     4  10  21  38  57  80 109 144 182 229 284 334
#     4  10  19  34  58  87 111 139 181 230 279 330
#     4   9  20  37  57  79 111 151 185 219 272 335
#     4  11  23  40  59  81 110 148 188 227 269 323
#     4   9  18  35  54  77 111 149 183 223 275 332
#     4   9  18  30  49  74 102 135 175 221 271 319
#
# _framework density 19.902518000000001
#
# number of rings (size 3 to 8) (size 9 to 14) (size 15 to 20)
#    0.000    2.333    0.000    3.500    0.000    6.000 
#    0.000    9.167    0.000    0.000    0.000    0.000 
#    0.000    0.000    0.000    0.000    0.000    0.000 
#
# Total GULP energy -594923.940364 kJ/mol
# GULP energy per Si atom -12394.248758 kJ/mol
# Density = 1.985722 g / cm^3
# Si number density = 19.902518 Si / 1000 Ang^3
#
#
#
# Elastic Constant Matrix: (Units=GPa)
#
#
# Indices 1 2 3 4 5 6 
#
# 1 67.0447 23.5057 37.5320 0.0000 0.0000 0.0000
# 2 23.5057 77.2443 59.0176 0.0000 0.0000 0.0000
# 3 37.5320 59.0176 120.2082 0.0000 0.0000 0.0000
# 4 0.0000 0.0000 0.0000 6.8159 0.0000 0.0000
# 5 0.0000 0.0000 0.0000 0.0000 32.2152 0.0000
# 6 0.0000 0.0000 0.0000 0.0000 0.0000 16.4230
#
#
#
# Elastic Compliance Matrix: (Units=1/GPa)
#
#
# Indices 1 2 3 4 5 6 
#
# 1 0.018251 -0.001920 -0.004756 0.000000 0.000000 0.000000
# 2 -0.001920 0.020919 -0.009671 0.000000 0.000000 0.000000
# 3 -0.004756 -0.009671 0.014552 0.000000 0.000000 0.000000
# 4 0.000000 0.000000 0.000000 0.146716 0.000000 0.000000
# 5 0.000000 0.000000 0.000000 0.000000 0.031041 0.000000
# 6 0.000000 0.000000 0.000000 0.000000 0.000000 0.060890
#
#
# Mechanical properties :
#
#
# Convention : Reuss Voigt Hill
#
# Bulk Modulus (GPa) = 47.55529 56.06753 51.81141
# Shear Modulus (GPa) = 15.05695 20.72029 17.88862
#
# Velocity S-wave (km/s) = 2.75350 3.23009 3.00127
# Velocity P-wave (km/s) = 5.83567 6.49181 6.17246
#
# Compressibility (1/GPa) = 0.02102816
#
# Stress axis : x y z
#
# Youngs Moduli (GPa) = 54.79183 47.80272 68.72010
#
# Poissons Ratio (x) = 0.09180 0.32680
# Poissons Ratio (y) = 0.10522 0.66459
# Poissons Ratio (z) = 0.26057 0.46230
#
# Static dielectric constant tensor:
#      x y z
#    x 3.487180 0.000000 0.000000 
#    y 0.000000 3.688910 0.000000 
#    z 0.000000 0.000000 5.445890 
# 
# 
# High freq. dielectric constant tensor:
#      x y z
#    x 1.761410 0.000000 0.000000 
#    y 0.000000 1.768720 0.000000 
#    z 0.000000 0.000000 1.788950 
# 
# From -- ./inp_files/43068.got.cif
#   From: 2010.03.12/outbox.cif.g09.slc.cpg/sg64_22_cif.got.tgz:43068.got - 2010.04.10 20:19:32.
