data_PCOD8262732
_publ_section_title
;
Structure prediction by ZEFSAII (Michael W. Deem and Ramdas Pophale) SiO2 
 PCOD8262732
Probable space group: C M C A
;
_chemical_formula_sum "Si O2"
_cell_formula_units_Z 96
_cell_length_a 9.080062
_cell_length_b 23.151328
_cell_length_c 26.080761
_cell_angle_alpha 90.000000
_cell_angle_beta 90.000000
_cell_angle_gamma 90.000000
_cell_volume 5482.580048
_symmetry_space_group_name_H-M "C M C A"
_symmetry_group_IT_number 64
_symmetry_cell_setting 'orthorhombic'
loop_
_space_group_symop_operation_xyz
x,y,z
-x,1/2-y,1/2+z
x,-y,-z
-x,1/2+y,1/2-z
-x,-y,-z
x,1/2+y,1/2-z
-x,y,z
x,1/2-y,1/2+z
1/2+x,1/2+y,z
1/2-x,-y,1/2+z
1/2+x,1/2-y,-z
1/2-x,y,1/2-z
1/2-x,1/2-y,-z
1/2+x,y,1/2-z
1/2-x,1/2+y,z
1/2+x,-y,1/2+z
loop_
_atom_site_type_symbol
_atom_site_label
_atom_site_fract_x
_atom_site_fract_y
_atom_site_fract_z
Si Si1 0.664775 0.075450 0.888738
Si Si2 0.673841 0.479499 0.944160
Si Si3 0.825691 0.333332 0.196100
Si Si4 0.830915 0.360907 0.932277
Si Si5 0.164962 0.680904 0.958788
Si Si6 0.329879 0.250371 0.123446
O O1 0.500000 0.051774 0.879396
O O2 0.717578 0.112223 0.839428
O O3 0.669655 0.115513 0.938590
O O4 0.771303 0.021697 0.899013
O O5 0.500000 0.479615 0.944176
O O6 0.727021 0.415934 0.929043
O O7 0.733804 0.500000 0.000000
O O8 0.750000 0.344072 0.250000
O O9 0.766203 0.274038 0.170768
O O10 0.000000 0.327200 0.202248
O O11 0.806182 0.318758 0.883254
O O12 0.000000 0.381850 0.935589
O O13 0.791170 0.322016 0.981813
O O14 0.283376 0.719385 0.929536
O O15 0.000000 0.706296 0.950242
O O16 0.500000 0.264864 0.133978
#
# Coordination Sequence:
#
# PCOD8262732 Si02
#       6
#    16  16  16  16  16  16
#     4   9  18  33  53  75 103 139 176 213 258 311
#     4  11  22  32  47  75 107 142 183 222 258 300
#     4  10  21  38  60  83 104 132 169 215 271 320
#     4  10  20  33  49  70 103 147 183 209 252 309
#     4   9  17  30  48  71 102 141 178 212 253 304
#     4  10  20  32  50  77 105 135 173 217 262 310
#
# _framework density 17.510003999999999
#
# number of rings (size 3 to 8) (size 9 to 14) (size 15 to 20)
#    0.000    2.167    1.667    3.000    0.000    6.000 
#    0.000    0.000    0.000    1.000    0.000    4.667 
#    0.000    0.000    0.000    0.000    0.000    0.000 
#
# Total GULP energy -595138.245065 kJ/mol
# GULP energy per Si atom -12398.713439 kJ/mol
# Density = 1.747015 g / cm^3
# Si number density = 17.510004 Si / 1000 Ang^3
#
#
#
# Elastic Constant Matrix: (Units=GPa)
#
#
# Indices 1 2 3 4 5 6 
#
# 1 85.1952 48.1971 42.6744 0.0000 0.0000 0.0000
# 2 48.1971 87.7136 39.8721 0.0000 0.0000 0.0000
# 3 42.6744 39.8721 89.2067 0.0000 0.0000 0.0000
# 4 0.0000 0.0000 0.0000 14.6861 0.0000 0.0000
# 5 0.0000 0.0000 0.0000 0.0000 25.3882 0.0000
# 6 0.0000 0.0000 0.0000 0.0000 0.0000 30.3624
#
#
#
# Elastic Compliance Matrix: (Units=1/GPa)
#
#
# Indices 1 2 3 4 5 6 
#
# 1 0.018995 -0.007915 -0.005549 0.000000 0.000000 0.000000
# 2 -0.007915 0.017606 -0.004083 0.000000 0.000000 0.000000
# 3 -0.005549 -0.004083 0.015689 0.000000 0.000000 0.000000
# 4 0.000000 0.000000 0.000000 0.068092 0.000000 0.000000
# 5 0.000000 0.000000 0.000000 0.000000 0.039388 0.000000
# 6 0.000000 0.000000 0.000000 0.000000 0.000000 0.032935
#
#
# Mechanical properties :
#
#
# Convention : Reuss Voigt Hill
#
# Bulk Modulus (GPa) = 58.15154 58.17806 58.16480
# Shear Modulus (GPa) = 21.41039 22.84547 22.12793
#
# Velocity S-wave (km/s) = 3.50058 3.61600 3.55876
# Velocity P-wave (km/s) = 7.04424 7.12261 7.08354
#
# Compressibility (1/GPa) = 0.01719645
#
# Stress axis : x y z
#
# Youngs Moduli (GPa) = 52.64546 56.79946 63.73763
#
# Poissons Ratio (x) = 0.44957 0.35368
# Poissons Ratio (y) = 0.41669 0.26023
# Poissons Ratio (z) = 0.29213 0.23190
#
# Static dielectric constant tensor:
#      x y z
#    x 3.244420 0.000000 0.000000 
#    y 0.000000 3.138600 0.000000 
#    z 0.000000 0.000000 3.072200 
# 
# 
# High freq. dielectric constant tensor:
#      x y z
#    x 1.683280 0.000000 0.000000 
#    y 0.000000 1.668790 0.000000 
#    z 0.000000 0.000000 1.648220 
# 
# From -- ./inp_files/43072.got.cif
#   From: 2010.03.12/outbox.cif.g09.slc.cpg/sg64_22_cif.got.tgz:43072.got - 2010.04.10 20:19:32.
