data_PCOD8262802
_publ_section_title
;
Structure prediction by ZEFSAII (Michael W. Deem and Ramdas Pophale) SiO2 
 PCOD8262802
Probable space group: C M C A
;
_chemical_formula_sum "Si O2"
_cell_formula_units_Z 80
_cell_length_a 8.608991
_cell_length_b 25.689662
_cell_length_c 19.545563
_cell_angle_alpha 90.000000
_cell_angle_beta 90.000000
_cell_angle_gamma 90.000000
_cell_volume 4322.737152
_symmetry_space_group_name_H-M "C M C A"
_symmetry_group_IT_number 64
_symmetry_cell_setting 'orthorhombic'
loop_
_space_group_symop_operation_xyz
x,y,z
-x,1/2-y,1/2+z
x,-y,-z
-x,1/2+y,1/2-z
-x,-y,-z
x,1/2+y,1/2-z
-x,y,z
x,1/2-y,1/2+z
1/2+x,1/2+y,z
1/2-x,-y,1/2+z
1/2+x,1/2-y,-z
1/2-x,y,1/2-z
1/2-x,1/2-y,-z
1/2+x,y,1/2-z
1/2-x,1/2+y,z
1/2+x,-y,1/2+z
loop_
_atom_site_type_symbol
_atom_site_label
_atom_site_fract_x
_atom_site_fract_y
_atom_site_fract_z
Si Si1 0.320788 0.751603 0.675815
Si Si2 0.682763 0.644841 0.325786
Si Si3 0.181930 0.443604 0.429795
Si Si4 0.816644 0.446374 0.924560
Si Si5 0.318596 0.363258 0.325671
O O1 0.500000 0.766085 0.681594
O O2 0.250000 0.746829 0.750000
O O3 0.236521 0.800396 0.638927
O O4 0.296249 0.694838 0.641565
O O5 0.500000 0.644171 0.321344
O O6 0.750000 0.638177 0.250000
O O7 0.743064 0.597977 0.373010
O O8 0.273986 0.429339 0.498672
O O9 0.230233 0.500659 0.403479
O O10 0.223456 0.402336 0.372234
O O11 0.000000 0.442517 0.445228
O O12 0.000000 0.455252 0.919502
O O13 0.500000 0.378146 0.323618
O O14 0.250000 0.366807 0.250000
#
# Coordination Sequence:
#
# PCOD8262802 Si02
#       5
#    16  16  16  16  16
#     4   9  17  30  51  76 105 138 170 208 256 306
#     4  10  20  33  54  80 106 137 172 212 258 305
#     4  11  22  36  56  79 103 137 176 217 264 314
#     4  10  21  38  56  75 104 141 176 215 262 313
#     4  10  20  35  55  80 108 139 174 214 259 308
#
# _framework density 18.506792000000001
#
# number of rings (size 3 to 8) (size 9 to 14) (size 15 to 20)
#    0.000    2.000    0.000    6.600    0.000    6.400 
#    0.000    3.000    0.000    0.000    0.000    0.000 
#    0.000    0.000    0.000    0.000    0.000    0.000 
#
# Total GULP energy -495851.948046 kJ/mol
# GULP energy per Si atom -12396.298701 kJ/mol
# Density = 1.846467 g / cm^3
# Si number density = 18.506792 Si / 1000 Ang^3
#
#
#
# Elastic Constant Matrix: (Units=GPa)
#
#
# Indices 1 2 3 4 5 6 
#
# 1 71.1629 32.1070 12.1424 0.0000 0.0000 0.0000
# 2 32.1070 138.6275 62.4677 0.0000 0.0000 0.0000
# 3 12.1424 62.4677 60.5749 0.0000 0.0000 0.0000
# 4 0.0000 0.0000 0.0000 -7.1363 0.0000 0.0000
# 5 0.0000 0.0000 0.0000 0.0000 25.8457 0.0000
# 6 0.0000 0.0000 0.0000 0.0000 0.0000 19.1534
#
#
#
# Elastic Compliance Matrix: (Units=1/GPa)
#
#
# Indices 1 2 3 4 5 6 
#
# 1 0.015733 -0.004152 0.001128 0.000000 0.000000 0.000000
# 2 -0.004152 0.014572 -0.014195 0.000000 0.000000 0.000000
# 3 0.001128 -0.014195 0.030920 0.000000 0.000000 0.000000
# 4 0.000000 0.000000 0.000000 -0.140129 0.000000 0.000000
# 5 0.000000 0.000000 0.000000 0.000000 0.038691 0.000000
# 6 0.000000 0.000000 0.000000 0.000000 0.000000 0.052210
#
#
# Mechanical properties :
#
#
# Convention : Reuss Voigt Hill
#
# Bulk Modulus (GPa) = 37.33012 53.75549 45.54280
# Shear Modulus (GPa) = 90.31191 18.48244 54.39717
#
# Velocity S-wave (km/s) = 6.99323 3.16362 5.42742
# Velocity P-wave (km/s) = 9.24239 6.51568 7.99612
#
# Compressibility (1/GPa) = 0.02678802
#
# Stress axis : x y z
#
# Youngs Moduli (GPa) = 63.55990 68.62691 32.34117
#
# Poissons Ratio (x) = 0.28496 -0.03649
# Poissons Ratio (y) = 0.26392 0.45907
# Poissons Ratio (z) = -0.07172 0.97412
#
# Static dielectric constant tensor:
#      x y z
#    x 3.551260 0.000000 0.000000 
#    y 0.000000 4.048150 0.000000 
#    z 0.000000 0.000000 3.204840 
# 
# 
# High freq. dielectric constant tensor:
#      x y z
#    x 1.736830 0.000000 0.000000 
#    y 0.000000 1.737410 0.000000 
#    z 0.000000 0.000000 1.684350 
# 
# From -- ./inp_files/29817.got.cif
#   From: 2010.03.12/outbox.cif.g09.slc.cpg/sg64_15_cif.got.tgz:29817.got - 2010.04.10 20:19:32.
