data_PCOD8262851
_publ_section_title
;
Structure prediction by ZEFSAII (Michael W. Deem and Ramdas Pophale) SiO2 
 PCOD8262851
Probable space group: C M C A
;
_chemical_formula_sum "Si O2"
_cell_formula_units_Z 96
_cell_length_a 8.470726
_cell_length_b 19.771690
_cell_length_c 30.474264
_cell_angle_alpha 90.000000
_cell_angle_beta 90.000000
_cell_angle_gamma 90.000000
_cell_volume 5103.847061
_symmetry_space_group_name_H-M "C M C A"
_symmetry_group_IT_number 64
_symmetry_cell_setting 'orthorhombic'
loop_
_space_group_symop_operation_xyz
x,y,z
-x,1/2-y,1/2+z
x,-y,-z
-x,1/2+y,1/2-z
-x,-y,-z
x,1/2+y,1/2-z
-x,y,z
x,1/2-y,1/2+z
1/2+x,1/2+y,z
1/2-x,-y,1/2+z
1/2+x,1/2-y,-z
1/2-x,y,1/2-z
1/2-x,1/2-y,-z
1/2+x,y,1/2-z
1/2-x,1/2+y,z
1/2+x,-y,1/2+z
loop_
_atom_site_type_symbol
_atom_site_label
_atom_site_fract_x
_atom_site_fract_y
_atom_site_fract_z
Si Si1 0.686760 0.548643 0.796234
Si Si2 0.813838 0.804853 0.630846
Si Si3 0.684924 0.798636 0.536960
Si Si4 0.314115 0.950340 0.627726
Si Si5 0.186624 0.200927 0.796185
Si Si6 0.184629 0.556513 0.034455
O O1 0.500000 0.546917 0.794998
O O2 0.750000 0.520487 0.750000
O O3 0.750160 0.500860 0.834989
O O4 0.750399 0.624818 0.804421
O O5 0.772237 0.779749 0.582136
O O6 0.724540 0.874125 0.642196
O O7 0.751641 0.748708 0.664878
O O8 0.000000 0.816894 0.634659
O O9 0.500000 0.787819 0.543183
O O10 0.750000 0.750000 0.500000
O O11 0.718837 0.875840 0.523474
O O12 0.500000 0.958047 0.620097
O O13 0.224666 0.969896 0.583046
O O14 0.250000 0.229264 0.750000
O O15 0.000000 0.201015 0.794866
O O16 0.000000 0.572870 0.030852
O O17 0.237989 0.500000 0.000000
#
# Coordination Sequence:
#
# PCOD8262851 Si02
#       6
#    16  16  16  16  16  16
#     4   9  19  35  53  75 102 133 172 213 256 307
#     4  10  20  35  54  77 106 138 174 216 262 311
#     4  11  22  37  57  80 108 141 178 219 265 316
#     4  10  20  34  53  77 105 137 174 214 258 311
#     4   9  19  35  54  76 103 136 173 215 260 308
#     4  10  21  37  56  80 109 139 176 219 263 314
#
# _framework density 18.809342000000001
#
# number of rings (size 3 to 8) (size 9 to 14) (size 15 to 20)
#    0.000    2.167    0.000    5.000    0.000    6.000 
#    0.000    5.000    0.000    0.000    0.000    0.000 
#    0.000    0.000    0.000    0.000    0.000    0.000 
#
# Total GULP energy -595319.784357 kJ/mol
# GULP energy per Si atom -12402.495507 kJ/mol
# Density = 1.876653 g / cm^3
# Si number density = 18.809342 Si / 1000 Ang^3
#
#
#
# Elastic Constant Matrix: (Units=GPa)
#
#
# Indices 1 2 3 4 5 6 
#
# 1 32.0510 8.9335 9.2616 0.0000 0.0000 0.0000
# 2 8.9335 99.9767 96.9284 0.0000 0.0000 0.0000
# 3 9.2616 96.9284 148.4095 0.0000 0.0000 0.0000
# 4 0.0000 0.0000 0.0000 45.9576 0.0000 0.0000
# 5 0.0000 0.0000 0.0000 0.0000 32.7011 0.0000
# 6 0.0000 0.0000 0.0000 0.0000 0.0000 27.9991
#
#
#
# Elastic Compliance Matrix: (Units=1/GPa)
#
#
# Indices 1 2 3 4 5 6 
#
# 1 0.032004 -0.002517 -0.000353 0.000000 0.000000 0.000000
# 2 -0.002517 0.027467 -0.017782 0.000000 0.000000 0.000000
# 3 -0.000353 -0.017782 0.018374 0.000000 0.000000 0.000000
# 4 0.000000 0.000000 0.000000 0.021759 0.000000 0.000000
# 5 0.000000 0.000000 0.000000 0.000000 0.030580 0.000000
# 6 0.000000 0.000000 0.000000 0.000000 0.000000 0.035715
#
#
# Mechanical properties :
#
#
# Convention : Reuss Voigt Hill
#
# Bulk Modulus (GPa) = 27.36739 56.74271 42.05505
# Shear Modulus (GPa) = 22.79097 32.35247 27.57172
#
# Velocity S-wave (km/s) = 3.48470 4.15181 3.83280
# Velocity P-wave (km/s) = 5.54728 7.29494 6.48030
#
# Compressibility (1/GPa) = 0.03653984
#
# Stress axis : x y z
#
# Youngs Moduli (GPa) = 31.24612 36.40697 54.42487
#
# Poissons Ratio (x) = 0.09165 0.01922
# Poissons Ratio (y) = 0.07866 0.96779
# Poissons Ratio (z) = 0.01103 0.64740
#
# Static dielectric constant tensor:
#      x y z
#    x 3.443370 0.000000 0.000000 
#    y 0.000000 3.597340 0.000000 
#    z 0.000000 0.000000 3.602320 
# 
# 
# High freq. dielectric constant tensor:
#      x y z
#    x 1.734130 0.000000 0.000000 
#    y 0.000000 1.728570 0.000000 
#    z 0.000000 0.000000 1.737120 
# 
# From -- ./inp_files/48057.got.cif
#   From: 2010.03.12/outbox.cif.g09.slc.cpg/sg64_25_cif.got.tgz:48057.got - 2010.04.10 20:19:32.
