data_PCOD8262116
_publ_section_title
;
Structure prediction by ZEFSAII (Michael W. Deem and Ramdas Pophale) SiO2 
 PCOD8262116
Probable space group: C M C A
;
_chemical_formula_sum "Si O2"
_cell_formula_units_Z 128
_cell_length_a 9.287047
_cell_length_b 28.722474
_cell_length_c 27.816331
_cell_angle_alpha 90.000000
_cell_angle_beta 90.000000
_cell_angle_gamma 90.000000
_cell_volume 7419.921899
_symmetry_space_group_name_H-M "C M C A"
_symmetry_group_IT_number 64
_symmetry_cell_setting 'orthorhombic'
loop_
_space_group_symop_operation_xyz
x,y,z
-x,1/2-y,1/2+z
x,-y,-z
-x,1/2+y,1/2-z
-x,-y,-z
x,1/2+y,1/2-z
-x,y,z
x,1/2-y,1/2+z
1/2+x,1/2+y,z
1/2-x,-y,1/2+z
1/2+x,1/2-y,-z
1/2-x,y,1/2-z
1/2-x,1/2-y,-z
1/2+x,y,1/2-z
1/2-x,1/2+y,z
1/2+x,-y,1/2+z
loop_
_atom_site_type_symbol
_atom_site_label
_atom_site_fract_x
_atom_site_fract_y
_atom_site_fract_z
Si Si1 0.666712 0.072396 0.972320
Si Si2 0.334514 0.919563 0.570043
Si Si3 0.167323 0.930883 0.202827
Si Si4 0.163163 0.178108 0.531342
Si Si5 0.331376 0.823793 0.297579
Si Si6 0.332701 0.731373 0.889626
Si Si7 0.333410 0.169203 0.078106
Si Si8 0.664711 0.518174 0.892795
O O1 0.500000 0.059695 0.981126
O O2 0.682694 0.124695 0.952425
O O3 0.733155 0.037720 0.933904
O O4 0.750708 0.066202 0.022012
O O5 0.500000 0.908610 0.557047
O O6 0.263226 0.874308 0.595100
O O7 0.323813 0.962209 0.607502
O O8 0.250000 0.948189 0.250000
O O9 0.205344 0.877373 0.190653
O O10 0.217944 0.962723 0.158504
O O11 0.000000 0.937047 0.213559
O O12 0.261842 0.210759 0.563038
O O13 0.210221 0.183560 0.475978
O O14 0.000000 0.194777 0.538497
O O15 0.500000 0.816033 0.289266
O O16 0.250000 0.806869 0.250000
O O17 0.271762 0.792491 0.341437
O O18 0.500000 0.720118 0.894606
O O19 0.304333 0.786873 0.887163
O O20 0.500000 0.153514 0.079081
O O21 0.500000 0.534270 0.902588
#
# Coordination Sequence:
#
# PCOD8262116 Si02
#       8
#    16  16  16  16  16  16  16  16
#     4  10  20  32  47  71 102 132 162 196 235 283
#     4  10  20  33  49  69  95 129 166 201 239 281
#     4   9  18  33  51  72  99 125 152 191 238 288
#     4   9  18  30  44  68 100 128 156 192 232 275
#     4   9  18  32  50  72  96 122 150 185 234 285
#     4  10  19  31  50  72  94 125 162 196 235 283
#     4   9  19  34  48  67  97 128 161 200 236 276
#     4  10  20  33  50  72  97 126 162 202 241 285
#
# _framework density 17.250855000000001
#
# number of rings (size 3 to 8) (size 9 to 14) (size 15 to 20)
#    0.000    2.500    0.000    3.000    0.000    7.500 
#    0.000    2.500    0.000    0.750    0.000    5.250 
#    0.000    0.000    0.000    0.000    0.000    0.000 
#
# Total GULP energy -793684.194903 kJ/mol
# GULP energy per Si atom -12401.315545 kJ/mol
# Density = 1.721159 g / cm^3
# Si number density = 17.250855 Si / 1000 Ang^3
#
#
#
# Elastic Constant Matrix: (Units=GPa)
#
#
# Indices 1 2 3 4 5 6 
#
# 1 69.1343 44.9902 37.3532 0.0000 0.0000 0.0000
# 2 44.9902 95.4512 57.3772 0.0000 0.0000 0.0000
# 3 37.3532 57.3772 80.1158 0.0000 0.0000 0.0000
# 4 0.0000 0.0000 0.0000 28.7864 0.0000 0.0000
# 5 0.0000 0.0000 0.0000 0.0000 25.3991 0.0000
# 6 0.0000 0.0000 0.0000 0.0000 0.0000 26.0500
#
#
#
# Elastic Compliance Matrix: (Units=1/GPa)
#
#
# Indices 1 2 3 4 5 6 
#
# 1 0.021930 -0.007358 -0.004955 0.000000 0.000000 0.000000
# 2 -0.007358 0.020865 -0.011512 0.000000 0.000000 0.000000
# 3 -0.004955 -0.011512 0.023037 0.000000 0.000000 0.000000
# 4 0.000000 0.000000 0.000000 0.034739 0.000000 0.000000
# 5 0.000000 0.000000 0.000000 0.000000 0.039372 0.000000
# 6 0.000000 0.000000 0.000000 0.000000 0.000000 0.038388
#
#
# Mechanical properties :
#
#
# Convention : Reuss Voigt Hill
#
# Bulk Modulus (GPa) = 55.00181 58.23807 56.61994
# Shear Modulus (GPa) = 21.54784 23.04581 22.29683
#
# Velocity S-wave (km/s) = 3.53808 3.65899 3.59904
# Velocity P-wave (km/s) = 6.97448 7.18914 7.08263
#
# Compressibility (1/GPa) = 0.01818122
#
# Stress axis : x y z
#
# Youngs Moduli (GPa) = 45.59928 47.92706 43.40814
#
# Poissons Ratio (x) = 0.35265 0.21509
# Poissons Ratio (y) = 0.33552 0.49973
# Poissons Ratio (z) = 0.22595 0.55176
#
# Static dielectric constant tensor:
#      x y z
#    x 3.232800 0.000000 0.000000 
#    y 0.000000 3.311380 0.000000 
#    z 0.000000 0.000000 3.070260 
# 
# 
# High freq. dielectric constant tensor:
#      x y z
#    x 1.669160 0.000000 0.000000 
#    y 0.000000 1.665790 0.000000 
#    z 0.000000 0.000000 1.640190 
# 
# From -- ./inp_files/44586.got.cif
#   From: 2010.03.12/outbox.cif.g09.slc.cpg/sg64_23_cif.got.tgz:44586.got - 2010.04.10 20:19:32.
