data_PCOD8262029
_publ_section_title
;
Structure prediction by ZEFSAII (Michael W. Deem and Ramdas Pophale) SiO2 
 PCOD8262029
Probable space group: C M C A
;
_chemical_formula_sum "Si O2"
_cell_formula_units_Z 96
_cell_length_a 8.784807
_cell_length_b 25.110010
_cell_length_c 23.801148
_cell_angle_alpha 90.000000
_cell_angle_beta 90.000000
_cell_angle_gamma 90.000000
_cell_volume 5250.214114
_symmetry_space_group_name_H-M "C M C A"
_symmetry_group_IT_number 64
_symmetry_cell_setting 'orthorhombic'
loop_
_space_group_symop_operation_xyz
x,y,z
-x,1/2-y,1/2+z
x,-y,-z
-x,1/2+y,1/2-z
-x,-y,-z
x,1/2+y,1/2-z
-x,y,z
x,1/2-y,1/2+z
1/2+x,1/2+y,z
1/2-x,-y,1/2+z
1/2+x,1/2-y,-z
1/2-x,y,1/2-z
1/2-x,1/2-y,-z
1/2+x,y,1/2-z
1/2-x,1/2+y,z
1/2+x,-y,1/2+z
loop_
_atom_site_type_symbol
_atom_site_label
_atom_site_fract_x
_atom_site_fract_y
_atom_site_fract_z
Si Si1 0.179460 0.097330 0.379375
Si Si2 0.824634 0.413339 0.392531
Si Si3 0.681975 0.004104 0.310698
Si Si4 0.836884 0.439736 0.999422
Si Si5 0.821761 0.193253 0.067661
Si Si6 0.820207 0.694718 0.560946
O O1 0.261701 0.061712 0.332333
O O2 0.229847 0.073582 0.438827
O O3 0.239180 0.158060 0.384008
O O4 0.000000 0.096223 0.367588
O O5 0.749460 0.454608 0.348164
O O6 0.794474 0.431009 0.455753
O O7 0.773176 0.351001 0.393293
O O8 0.000000 0.416442 0.379335
O O9 0.500000 0.004640 0.309105
O O10 0.750000 0.993857 0.250000
O O11 0.000000 0.409216 0.011319
O O12 0.882170 0.500000 0.000000
O O13 0.772478 0.253684 0.079058
O O14 0.000000 0.187517 0.076800
O O15 0.774962 0.177015 0.003265
O O16 0.000000 0.706778 0.562397
#
# Coordination Sequence:
#
# PCOD8262029 Si02
#       6
#    16  16  16  16  16  16
#     4  11  21  34  54  79 111 146 179 219 269 323
#     4  10  20  34  54  78 107 143 179 219 267 323
#     4  11  24  40  58  79 105 140 183 228 274 321
#     4  10  19  30  47  77 111 141 173 213 265 324
#     4  10  19  31  50  78 112 147 182 219 263 320
#     4   9  18  32  49  75 112 147 180 218 264 321
#
# _framework density 18.284969
#
# number of rings (size 3 to 8) (size 9 to 14) (size 15 to 20)
#    0.000    1.833    3.333    1.500    0.000    3.000 
#    0.000    0.000    0.000    1.000    0.000    4.667 
#    0.000    0.000    0.000    0.000    0.000    0.000 
#
# Total GULP energy -594647.548952 kJ/mol
# GULP energy per Si atom -12388.490603 kJ/mol
# Density = 1.824335 g / cm^3
# Si number density = 18.284969 Si / 1000 Ang^3
#
#
#
# Elastic Constant Matrix: (Units=GPa)
#
#
# Indices 1 2 3 4 5 6 
#
# 1 54.6076 40.6843 24.6313 0.0000 0.0000 0.0000
# 2 40.6843 101.1251 39.9248 0.0000 0.0000 0.0000
# 3 24.6313 39.9248 70.7380 0.0000 0.0000 0.0000
# 4 0.0000 0.0000 0.0000 16.5878 0.0000 0.0000
# 5 0.0000 0.0000 0.0000 0.0000 25.5142 0.0000
# 6 0.0000 0.0000 0.0000 0.0000 0.0000 28.1830
#
#
#
# Elastic Compliance Matrix: (Units=1/GPa)
#
#
# Indices 1 2 3 4 5 6 
#
# 1 0.027097 -0.009234 -0.004224 0.000000 0.000000 0.000000
# 2 -0.009234 0.015871 -0.005742 0.000000 0.000000 0.000000
# 3 -0.004224 -0.005742 0.018848 0.000000 0.000000 0.000000
# 4 0.000000 0.000000 0.000000 0.060285 0.000000 0.000000
# 5 0.000000 0.000000 0.000000 0.000000 0.039194 0.000000
# 6 0.000000 0.000000 0.000000 0.000000 0.000000 0.035482
#
#
# Mechanical properties :
#
#
# Convention : Reuss Voigt Hill
#
# Bulk Modulus (GPa) = 42.70495 48.55016 45.62756
# Shear Modulus (GPa) = 20.57755 22.13903 21.35829
#
# Velocity S-wave (km/s) = 3.35831 3.48340 3.42142
# Velocity P-wave (km/s) = 6.20029 6.54128 6.37307
#
# Compressibility (1/GPa) = 0.02341649
#
# Stress axis : x y z
#
# Youngs Moduli (GPa) = 36.90407 63.00849 53.05529
#
# Poissons Ratio (x) = 0.58183 0.22408
# Poissons Ratio (y) = 0.34078 0.30465
# Poissons Ratio (z) = 0.15587 0.36181
#
# Static dielectric constant tensor:
#      x y z
#    x 3.339300 0.000000 0.000000 
#    y 0.000000 3.634220 0.000000 
#    z 0.000000 0.000000 3.112480 
# 
# 
# High freq. dielectric constant tensor:
#      x y z
#    x 1.712920 0.000000 0.000000 
#    y 0.000000 1.721440 0.000000 
#    z 0.000000 0.000000 1.662120 
# 
# From -- ./inp_files/37045.got.cif
#   From: 2010.03.12/outbox.cif.g09.slc.cpg/sg64_19_cif.got.tgz:37045.got - 2010.04.10 20:19:32.
