data_PCOD8262058
_publ_section_title
;
Structure prediction by ZEFSAII (Michael W. Deem and Ramdas Pophale) SiO2 
 PCOD8262058
Probable space group: C M C A
;
_chemical_formula_sum "Si O2"
_cell_formula_units_Z 80
_cell_length_a 7.917579
_cell_length_b 30.779978
_cell_length_c 19.009534
_cell_angle_alpha 90.000000
_cell_angle_beta 90.000000
_cell_angle_gamma 90.000000
_cell_volume 4632.678705
_symmetry_space_group_name_H-M "C M C A"
_symmetry_group_IT_number 64
_symmetry_cell_setting 'orthorhombic'
loop_
_space_group_symop_operation_xyz
x,y,z
-x,1/2-y,1/2+z
x,-y,-z
-x,1/2+y,1/2-z
-x,-y,-z
x,1/2+y,1/2-z
-x,y,z
x,1/2-y,1/2+z
1/2+x,1/2+y,z
1/2-x,-y,1/2+z
1/2+x,1/2-y,-z
1/2-x,y,1/2-z
1/2-x,1/2-y,-z
1/2+x,y,1/2-z
1/2-x,1/2+y,z
1/2+x,-y,1/2+z
loop_
_atom_site_type_symbol
_atom_site_label
_atom_site_fract_x
_atom_site_fract_y
_atom_site_fract_z
Si Si1 0.500000 0.970366 0.104154
Si Si2 0.802483 0.670530 0.823415
Si Si3 0.500000 0.936020 0.945362
Si Si4 0.685448 0.918831 0.369401
Si Si5 0.186157 0.884296 0.973677
Si Si6 0.802050 0.796394 0.471807
O O1 0.668058 0.954174 0.145173
O O2 0.500000 0.022446 0.105481
O O3 0.500000 0.951402 0.025762
O O4 0.750000 0.694058 0.750000
O O5 0.711681 0.623860 0.822506
O O6 0.742515 0.699225 0.890237
O O7 0.000000 0.662599 0.828752
O O8 0.332939 0.907355 0.927987
O O9 0.500000 0.938718 0.352083
O O10 0.694735 0.904980 0.449887
O O11 0.000000 0.892358 0.939942
O O12 0.214515 0.832619 0.979560
O O13 0.750000 0.750000 0.500000
O O14 0.000000 0.803822 0.477806
#
# Coordination Sequence:
#
# PCOD8262058 Si02
#       6
#     8  16   8  16  16  16
#     4   9  16  26  40  60  87 118 152 186 224 275
#     4  10  19  31  47  68  96 130 163 202 247 295
#     4   9  16  26  40  60  87 118 152 190 226 274
#     4   9  16  27  42  60  87 122 154 186 228 281
#     4   9  16  27  42  60  87 122 156 188 235 285
#     4  10  19  31  47  68  96 130 166 207 252 303
#
# _framework density 17.268628
#
# number of rings (size 3 to 8) (size 9 to 14) (size 15 to 20)
#    0.000    2.600    2.000    1.200    0.000    3.200 
#    0.000    4.000    0.000    0.000    0.000    0.000 
#    0.000    1.600    1.600    0.000    0.400    0.000 
#
# Total GULP energy -495757.599159 kJ/mol
# GULP energy per Si atom -12393.939979 kJ/mol
# Density = 1.722932 g / cm^3
# Si number density = 17.268628 Si / 1000 Ang^3
#
#
#
# Elastic Constant Matrix: (Units=GPa)
#
#
# Indices 1 2 3 4 5 6 
#
# 1 135.0813 62.7514 20.0022 0.0000 0.0000 0.0000
# 2 62.7514 112.9350 32.6486 0.0000 0.0000 0.0000
# 3 20.0022 32.6486 44.4753 0.0000 0.0000 0.0000
# 4 0.0000 0.0000 0.0000 11.1738 0.0000 0.0000
# 5 0.0000 0.0000 0.0000 0.0000 14.2051 0.0000
# 6 0.0000 0.0000 0.0000 0.0000 0.0000 24.6578
#
#
#
# Elastic Compliance Matrix: (Units=1/GPa)
#
#
# Indices 1 2 3 4 5 6 
#
# 1 0.009989 -0.005397 -0.000531 0.000000 0.000000 0.000000
# 2 -0.005397 0.014156 -0.007964 0.000000 0.000000 0.000000
# 3 -0.000531 -0.007964 0.028570 0.000000 0.000000 0.000000
# 4 0.000000 0.000000 0.000000 0.089495 0.000000 0.000000
# 5 0.000000 0.000000 0.000000 0.000000 0.070397 0.000000
# 6 0.000000 0.000000 0.000000 0.000000 0.000000 0.040555
#
#
# Mechanical properties :
#
#
# Convention : Reuss Voigt Hill
#
# Bulk Modulus (GPa) = 40.11154 58.14398 49.12776
# Shear Modulus (GPa) = 17.28581 21.81330 19.54955
#
# Velocity S-wave (km/s) = 3.16728 3.55797 3.36830
# Velocity P-wave (km/s) = 6.05425 7.11493 6.60592
#
# Compressibility (1/GPa) = 0.02493048
#
# Stress axis : x y z
#
# Youngs Moduli (GPa) = 100.11513 70.64298 35.00223
#
# Poissons Ratio (x) = 0.38123 0.01857
# Poissons Ratio (y) = 0.54028 0.27877
# Poissons Ratio (z) = 0.05312 0.56263
#
# Static dielectric constant tensor:
#      x y z
#    x 3.610030 0.000000 0.000000 
#    y 0.000000 2.923990 0.000000 
#    z 0.000000 0.000000 2.759010 
# 
# 
# High freq. dielectric constant tensor:
#      x y z
#    x 1.692520 0.000000 0.000000 
#    y 0.000000 1.640940 0.000000 
#    z 0.000000 0.000000 1.605970 
# 
# From -- ./inp_files/29853.got.cif
#   From: 2010.03.12/outbox.cif.g09.slc.cpg/sg64_15_cif.got.tgz:29853.got - 2010.04.10 20:19:32.
