data_PCOD8262688
_publ_section_title
;
Structure prediction by ZEFSAII (Michael W. Deem and Ramdas Pophale) SiO2 
 PCOD8262688
Probable space group: C M C A
;
_chemical_formula_sum "Si O2"
_cell_formula_units_Z 64
_cell_length_a 16.379344
_cell_length_b 9.878623
_cell_length_c 18.007593
_cell_angle_alpha 90.000000
_cell_angle_beta 90.000000
_cell_angle_gamma 90.000000
_cell_volume 2913.725147
_symmetry_space_group_name_H-M "C M C A"
_symmetry_group_IT_number 64
_symmetry_cell_setting 'orthorhombic'
loop_
_space_group_symop_operation_xyz
x,y,z
-x,1/2-y,1/2+z
x,-y,-z
-x,1/2+y,1/2-z
-x,-y,-z
x,1/2+y,1/2-z
-x,y,z
x,1/2-y,1/2+z
1/2+x,1/2+y,z
1/2-x,-y,1/2+z
1/2+x,1/2-y,-z
1/2-x,y,1/2-z
1/2-x,1/2-y,-z
1/2+x,y,1/2-z
1/2-x,1/2+y,z
1/2+x,-y,1/2+z
loop_
_atom_site_type_symbol
_atom_site_label
_atom_site_fract_x
_atom_site_fract_y
_atom_site_fract_z
Si Si1 0.593447 0.720913 0.181885
Si Si2 0.905812 0.098447 0.431361
Si Si3 0.903401 0.145318 0.021334
Si Si4 0.839323 0.499301 0.781012
O O1 0.500000 0.767345 0.174358
O O2 0.631910 0.695754 0.100254
O O3 0.598298 0.584120 0.229612
O O4 0.641437 0.841433 0.223117
O O5 0.880992 0.249658 0.456251
O O6 0.000000 0.092034 0.404939
O O7 0.891637 0.000000 0.500000
O O8 0.846914 0.053790 0.365138
O O9 0.000000 0.131664 0.030456
O O10 0.864817 0.000000 0.000000
O O11 0.750000 0.470367 0.750000
#
# Coordination Sequence:
#
# PCOD8262688 Si02
#       4
#    16  16  16  16
#     4  11  23  43  69  97 131 181 236 280 335 414
#     4  10  19  39  70  99 130 178 237 285 332 405
#     4   9  19  36  64 102 131 161 225 298 339 385
#     4  12  26  43  63  99 143 180 218 282 355 415
#
# _framework density 21.965009999999999
#
# number of rings (size 3 to 8) (size 9 to 14) (size 15 to 20)
#    0.000    1.500    2.500    3.000    3.500    0.000 
#    0.000    2.500    0.000    0.000    0.000    0.000 
#    0.000    0.000    0.000    0.000    0.000    0.000 
#
# Total GULP energy -396913.552718 kJ/mol
# GULP energy per Si atom -12403.548522 kJ/mol
# Density = 2.191502 g / cm^3
# Si number density = 21.965010 Si / 1000 Ang^3
#
#
#
# Elastic Constant Matrix: (Units=GPa)
#
#
# Indices 1 2 3 4 5 6 
#
# 1 62.4058 32.3775 47.3045 0.0000 0.0000 0.0000
# 2 32.3775 162.7039 53.3635 0.0000 0.0000 0.0000
# 3 47.3045 53.3635 125.5734 0.0000 0.0000 0.0000
# 4 0.0000 0.0000 0.0000 39.7212 0.0000 0.0000
# 5 0.0000 0.0000 0.0000 0.0000 29.7537 0.0000
# 6 0.0000 0.0000 0.0000 0.0000 0.0000 21.3581
#
#
#
# Elastic Compliance Matrix: (Units=1/GPa)
#
#
# Indices 1 2 3 4 5 6 
#
# 1 0.022983 -0.002015 -0.007802 0.000000 0.000000 0.000000
# 2 -0.002015 0.007318 -0.002351 0.000000 0.000000 0.000000
# 3 -0.007802 -0.002351 0.011902 0.000000 0.000000 0.000000
# 4 0.000000 0.000000 0.000000 0.025175 0.000000 0.000000
# 5 0.000000 0.000000 0.000000 0.000000 0.033609 0.000000
# 6 0.000000 0.000000 0.000000 0.000000 0.000000 0.046821
#
#
# Mechanical properties :
#
#
# Convention : Reuss Voigt Hill
#
# Bulk Modulus (GPa) = 55.96603 68.53043 62.24823
# Shear Modulus (GPa) = 28.07423 32.67579 30.37501
#
# Velocity S-wave (km/s) = 3.57898 3.86116 3.72275
# Velocity P-wave (km/s) = 6.52792 7.15162 6.84687
#
# Compressibility (1/GPa) = 0.01786798
#
# Stress axis : x y z
#
# Youngs Moduli (GPa) = 43.50977 136.64717 84.02289
#
# Poissons Ratio (x) = 0.27531 0.65553
# Poissons Ratio (y) = 0.08766 0.19753
# Poissons Ratio (z) = 0.33946 0.32125
#
# Static dielectric constant tensor:
#      x y z
#    x 3.464610 0.000000 0.000000 
#    y 0.000000 4.188520 0.000000 
#    z 0.000000 0.000000 4.030580 
# 
# 
# High freq. dielectric constant tensor:
#      x y z
#    x 1.823680 0.000000 0.000000 
#    y 0.000000 1.881810 0.000000 
#    z 0.000000 0.000000 1.872220 
# 
# From -- ./inp_files/33880.got.cif
#   From: 2010.03.12/outbox.cif.g09.slc.cpg/sg64_17_cif.got.tgz:33880.got - 2010.04.10 20:19:32.
