data_PCOD8262852
_publ_section_title
;
Structure prediction by ZEFSAII (Michael W. Deem and Ramdas Pophale) SiO2 
 PCOD8262852
Probable space group: C M C A
;
_chemical_formula_sum "Si O2"
_cell_formula_units_Z 96
_cell_length_a 8.672311
_cell_length_b 19.802502
_cell_length_c 30.534631
_cell_angle_alpha 90.000000
_cell_angle_beta 90.000000
_cell_angle_gamma 90.000000
_cell_volume 5243.817707
_symmetry_space_group_name_H-M "C M C A"
_symmetry_group_IT_number 64
_symmetry_cell_setting 'orthorhombic'
loop_
_space_group_symop_operation_xyz
x,y,z
-x,1/2-y,1/2+z
x,-y,-z
-x,1/2+y,1/2-z
-x,-y,-z
x,1/2+y,1/2-z
-x,y,z
x,1/2-y,1/2+z
1/2+x,1/2+y,z
1/2-x,-y,1/2+z
1/2+x,1/2-y,-z
1/2-x,y,1/2-z
1/2-x,1/2-y,-z
1/2+x,y,1/2-z
1/2-x,1/2+y,z
1/2+x,-y,1/2+z
loop_
_atom_site_type_symbol
_atom_site_label
_atom_site_fract_x
_atom_site_fract_y
_atom_site_fract_z
Si Si1 0.317828 0.203060 0.703932
Si Si2 0.318320 0.443075 0.966099
Si Si3 0.316953 0.702942 0.129716
Si Si4 0.317609 0.951121 0.295664
Si Si5 0.817935 0.200789 0.464110
Si Si6 0.818680 0.448635 0.631914
O O1 0.500000 0.211917 0.704697
O O2 0.250000 0.228767 0.750000
O O3 0.246829 0.246409 0.665385
O O4 0.267031 0.125834 0.695449
O O5 0.500000 0.427687 0.969162
O O6 0.228267 0.375009 0.977348
O O7 0.272623 0.468821 0.917575
O O8 0.265449 0.500000 0.000000
O O9 0.500000 0.707323 0.127360
O O10 0.250429 0.722818 0.082586
O O11 0.261190 0.627259 0.142170
O O12 0.500000 0.956975 0.293363
O O13 0.250000 0.977627 0.250000
O O14 0.245472 0.997926 0.334078
O O15 0.750000 0.250000 0.500000
O O16 0.000000 0.207940 0.462435
O O17 0.000000 0.451831 0.637487
#
# Coordination Sequence:
#
# PCOD8262852 Si02
#       6
#    16  16  16  16  16  16
#     4  10  20  34  53  77 106 140 177 218 263 314
#     4   9  18  34  56  80 107 140 176 216 267 322
#     4  10  20  36  56  78 106 138 175 220 269 321
#     4   9  18  33  51  72 100 134 172 212 254 303
#     4  11  22  37  56  79 109 143 182 225 270 322
#     4   8  16  32  52  74 100 131 167 209 256 305
#
# _framework density 18.307272000000001
#
# number of rings (size 3 to 8) (size 9 to 14) (size 15 to 20)
#    0.000    2.500    0.000    3.500    0.000    3.000 
#    0.000    9.167    0.000    0.000    0.000    0.000 
#    0.000    0.000    0.000    0.000    0.000    0.000 
#
# Total GULP energy -595195.336398 kJ/mol
# GULP energy per Si atom -12399.902842 kJ/mol
# Density = 1.826560 g / cm^3
# Si number density = 18.307272 Si / 1000 Ang^3
#
#
#
# Elastic Constant Matrix: (Units=GPa)
#
#
# Indices 1 2 3 4 5 6 
#
# 1 68.7618 33.9168 46.5066 0.0000 0.0000 0.0000
# 2 33.9168 107.9513 111.1082 0.0000 0.0000 0.0000
# 3 46.5066 111.1082 176.5606 0.0000 0.0000 0.0000
# 4 0.0000 0.0000 0.0000 46.5825 0.0000 0.0000
# 5 0.0000 0.0000 0.0000 0.0000 31.4419 0.0000
# 6 0.0000 0.0000 0.0000 0.0000 0.0000 25.3003
#
#
#
# Elastic Compliance Matrix: (Units=1/GPa)
#
#
# Indices 1 2 3 4 5 6 
#
# 1 0.017875 -0.002186 -0.003333 0.000000 0.000000 0.000000
# 2 -0.002186 0.026561 -0.016139 0.000000 0.000000 0.000000
# 3 -0.003333 -0.016139 0.016698 0.000000 0.000000 0.000000
# 4 0.000000 0.000000 0.000000 0.021467 0.000000 0.000000
# 5 0.000000 0.000000 0.000000 0.000000 0.031805 0.000000
# 6 0.000000 0.000000 0.000000 0.000000 0.000000 0.039525
#
#
# Mechanical properties :
#
#
# Convention : Reuss Voigt Hill
#
# Bulk Modulus (GPa) = 56.12030 81.81521 68.96775
# Shear Modulus (GPa) = 24.60798 31.44774 28.02786
#
# Velocity S-wave (km/s) = 3.67026 4.14910 3.91700
# Velocity P-wave (km/s) = 6.97727 8.23046 7.62964
#
# Compressibility (1/GPa) = 0.01781886
#
# Stress axis : x y z
#
# Youngs Moduli (GPa) = 55.94317 37.64910 59.88832
#
# Poissons Ratio (x) = 0.08229 0.19960
# Poissons Ratio (y) = 0.12228 0.96653
# Poissons Ratio (z) = 0.18645 0.60762
#
# Static dielectric constant tensor:
#      x y z
#    x 3.260910 0.000000 0.000000 
#    y 0.000000 3.635490 0.000000 
#    z 0.000000 0.000000 3.426560 
# 
# 
# High freq. dielectric constant tensor:
#      x y z
#    x 1.699550 0.000000 0.000000 
#    y 0.000000 1.710220 0.000000 
#    z 0.000000 0.000000 1.719720 
# 
# From -- ./inp_files/48076.got.cif
#   From: 2010.03.12/outbox.cif.g09.slc.cpg/sg64_25_cif.got.tgz:48076.got - 2010.04.10 20:19:32.
