data_PCOD8262308
_publ_section_title
;
Structure prediction by ZEFSAII (Michael W. Deem and Ramdas Pophale) SiO2 
 PCOD8262308
Probable space group: C M C A
;
_chemical_formula_sum "Si O2"
_cell_formula_units_Z 80
_cell_length_a 9.506601
_cell_length_b 15.580188
_cell_length_c 28.520255
_cell_angle_alpha 90.000000
_cell_angle_beta 90.000000
_cell_angle_gamma 90.000000
_cell_volume 4224.267040
_symmetry_space_group_name_H-M "C M C A"
_symmetry_group_IT_number 64
_symmetry_cell_setting 'orthorhombic'
loop_
_space_group_symop_operation_xyz
x,y,z
-x,1/2-y,1/2+z
x,-y,-z
-x,1/2+y,1/2-z
-x,-y,-z
x,1/2+y,1/2-z
-x,y,z
x,1/2-y,1/2+z
1/2+x,1/2+y,z
1/2-x,-y,1/2+z
1/2+x,1/2-y,-z
1/2-x,y,1/2-z
1/2-x,1/2-y,-z
1/2+x,y,1/2-z
1/2-x,1/2+y,z
1/2+x,-y,1/2+z
loop_
_atom_site_type_symbol
_atom_site_label
_atom_site_fract_x
_atom_site_fract_y
_atom_site_fract_z
Si Si1 0.166027 0.955151 0.854275
Si Si2 0.337392 0.776966 0.455376
Si Si3 0.834097 0.470243 0.450606
Si Si4 0.162983 0.207952 0.355843
Si Si5 0.335401 0.624627 0.797278
O O1 0.245467 0.870625 0.835452
O O2 0.000000 0.938215 0.852823
O O3 0.221221 0.973337 0.907159
O O4 0.207041 0.035927 0.822236
O O5 0.500000 0.773332 0.469808
O O6 0.250000 0.750000 0.500000
O O7 0.293462 0.872480 0.440476
O O8 0.304983 0.716522 0.411209
O O9 0.765287 0.500000 0.500000
O O10 0.000000 0.481908 0.453137
O O11 0.206308 0.295826 0.330353
O O12 0.000000 0.187344 0.346893
O O13 0.500000 0.625939 0.785780
O O14 0.250000 0.633854 0.750000
#
# Coordination Sequence:
#
# PCOD8262308 Si02
#       5
#    16  16  16  16  16
#     4  10  20  37  60  85 112 148 194 236 278 340
#     4  10  19  33  53  80 114 151 189 232 280 335
#     4   9  16  29  52  79 108 145 187 225 267 327
#     4  10  21  38  58  83 118 152 185 236 293 338
#     4  10  22  41  62  84 114 151 192 238 289 341
#
# _framework density 18.938196000000001
#
# number of rings (size 3 to 8) (size 9 to 14) (size 15 to 20)
#    0.000    2.200    2.000    1.200    0.000    4.800 
#    0.000    5.000    0.000    3.600    0.000    0.000 
#    0.000    0.000    0.000    0.000    0.000    0.000 
#
# Total GULP energy -495976.315512 kJ/mol
# GULP energy per Si atom -12399.407888 kJ/mol
# Density = 1.889509 g / cm^3
# Si number density = 18.938196 Si / 1000 Ang^3
#
#
#
# Elastic Constant Matrix: (Units=GPa)
#
#
# Indices 1 2 3 4 5 6 
#
# 1 52.8813 60.2306 47.7084 0.0000 0.0000 0.0000
# 2 60.2306 143.8175 47.3642 0.0000 0.0000 0.0000
# 3 47.7084 47.3642 105.3640 0.0000 0.0000 0.0000
# 4 0.0000 0.0000 0.0000 25.7907 0.0000 0.0000
# 5 0.0000 0.0000 0.0000 0.0000 30.8482 0.0000
# 6 0.0000 0.0000 0.0000 0.0000 0.0000 31.9703
#
#
#
# Elastic Compliance Matrix: (Units=1/GPa)
#
#
# Indices 1 2 3 4 5 6 
#
# 1 0.052625 -0.016658 -0.016340 0.000000 0.000000 0.000000
# 2 -0.016658 0.013434 0.001503 0.000000 0.000000 0.000000
# 3 -0.016340 0.001503 0.016214 0.000000 0.000000 0.000000
# 4 0.000000 0.000000 0.000000 0.038774 0.000000 0.000000
# 5 0.000000 0.000000 0.000000 0.000000 0.032417 0.000000
# 6 0.000000 0.000000 0.000000 0.000000 0.000000 0.031279
#
#
# Mechanical properties :
#
#
# Convention : Reuss Voigt Hill
#
# Bulk Modulus (GPa) = 51.85634 68.07436 59.96535
# Shear Modulus (GPa) = 19.67263 27.50583 23.58923
#
# Velocity S-wave (km/s) = 3.22651 3.81517 3.53312
# Velocity P-wave (km/s) = 6.42820 7.44520 6.95531
#
# Compressibility (1/GPa) = 0.01928404
#
# Stress axis : x y z
#
# Youngs Moduli (GPa) = 19.00232 74.43553 61.67572
#
# Poissons Ratio (x) = 1.23994 1.00780
# Poissons Ratio (y) = 0.31654 -0.09273
# Poissons Ratio (z) = 0.31050 -0.11191
#
# Static dielectric constant tensor:
#      x y z
#    x 3.142080 0.000000 0.000000 
#    y 0.000000 2.858460 0.000000 
#    z 0.000000 0.000000 3.179700 
# 
# 
# High freq. dielectric constant tensor:
#      x y z
#    x 1.703880 0.000000 0.000000 
#    y 0.000000 1.748960 0.000000 
#    z 0.000000 0.000000 1.738950 
# 
# From -- ./inp_files/47843.got.cif
#   From: 2010.03.12/outbox.cif.g09.slc.cpg/sg64_24_cif.got.tgz:47843.got - 2010.04.10 20:19:32.
