data_PCOD8262488
_publ_section_title
;
Structure prediction by ZEFSAII (Michael W. Deem and Ramdas Pophale) SiO2 
 PCOD8262488
Probable space group: C M C A
;
_chemical_formula_sum "Si O2"
_cell_formula_units_Z 80
_cell_length_a 12.644823
_cell_length_b 18.469326
_cell_length_c 15.755577
_cell_angle_alpha 90.000000
_cell_angle_beta 90.000000
_cell_angle_gamma 90.000000
_cell_volume 3679.578852
_symmetry_space_group_name_H-M "C M C A"
_symmetry_group_IT_number 64
_symmetry_cell_setting 'orthorhombic'
loop_
_space_group_symop_operation_xyz
x,y,z
-x,1/2-y,1/2+z
x,-y,-z
-x,1/2+y,1/2-z
-x,-y,-z
x,1/2+y,1/2-z
-x,y,z
x,1/2-y,1/2+z
1/2+x,1/2+y,z
1/2-x,-y,1/2+z
1/2+x,1/2-y,-z
1/2-x,y,1/2-z
1/2-x,1/2-y,-z
1/2+x,y,1/2-z
1/2-x,1/2+y,z
1/2+x,-y,1/2+z
loop_
_atom_site_type_symbol
_atom_site_label
_atom_site_fract_x
_atom_site_fract_y
_atom_site_fract_z
Si Si1 0.621365 0.557305 0.392051
Si Si2 0.803255 0.407877 0.074171
Si Si3 0.122316 0.738733 0.870836
Si Si4 0.124650 0.807476 0.047508
Si Si5 0.126744 0.700764 0.195864
O O1 0.500000 0.536292 0.374923
O O2 0.630354 0.587427 0.487440
O O3 0.693328 0.485576 0.378699
O O4 0.660663 0.619031 0.327267
O O5 0.857064 0.347187 0.133316
O O6 0.681540 0.385544 0.055213
O O7 0.174371 0.779910 0.789449
O O8 0.000000 0.754471 0.861814
O O9 0.162209 0.770360 0.960231
O O10 0.169357 0.757664 0.124811
O O11 0.000000 0.820011 0.052410
O O12 0.000000 0.707259 0.192866
#
# Coordination Sequence:
#
# PCOD8262488 Si02
#       5
#    16  16  16  16  16
#     4  10  20  37  62  92 122 150 196 259 310 355
#     4  11  20  34  61  92 117 157 199 248 308 358
#     4  10  19  34  61  93 123 158 200 245 299 359
#     4  10  21  38  58  86 123 161 204 248 291 357
#     4   9  19  36  61  89 121 159 196 247 303 351
#
# _framework density 21.741617999999999
#
# number of rings (size 3 to 8) (size 9 to 14) (size 15 to 20)
#    0.000    2.000    2.000    3.000    0.000    0.800 
#    0.000    2.000   17.600    0.000    0.000    1.400 
#    0.000    0.000    0.000    0.000    0.000    0.000 
#
# Total GULP energy -496081.163384 kJ/mol
# GULP energy per Si atom -12402.029085 kJ/mol
# Density = 2.169213 g / cm^3
# Si number density = 21.741618 Si / 1000 Ang^3
#
#
#
# Elastic Constant Matrix: (Units=GPa)
#
#
# Indices 1 2 3 4 5 6 
#
# 1 61.9981 49.7495 45.3913 0.0000 0.0000 0.0000
# 2 49.7495 197.6788 87.7319 0.0000 0.0000 0.0000
# 3 45.3913 87.7319 147.8904 0.0000 0.0000 0.0000
# 4 0.0000 0.0000 0.0000 39.5439 0.0000 0.0000
# 5 0.0000 0.0000 0.0000 0.0000 31.4453 0.0000
# 6 0.0000 0.0000 0.0000 0.0000 0.0000 42.2833
#
#
#
# Elastic Compliance Matrix: (Units=1/GPa)
#
#
# Indices 1 2 3 4 5 6 
#
# 1 0.022477 -0.003522 -0.004809 0.000000 0.000000 0.000000
# 2 -0.003522 0.007419 -0.003320 0.000000 0.000000 0.000000
# 3 -0.004809 -0.003320 0.010207 0.000000 0.000000 0.000000
# 4 0.000000 0.000000 0.000000 0.025288 0.000000 0.000000
# 5 0.000000 0.000000 0.000000 0.000000 0.031801 0.000000
# 6 0.000000 0.000000 0.000000 0.000000 0.000000 0.023650
#
#
# Mechanical properties :
#
#
# Convention : Reuss Voigt Hill
#
# Bulk Modulus (GPa) = 59.52355 85.92363 72.72359
# Shear Modulus (GPa) = 33.39013 37.63416 35.51215
#
# Velocity S-wave (km/s) = 3.92314 4.16501 4.04588
# Velocity P-wave (km/s) = 6.92521 7.92060 7.43957
#
# Compressibility (1/GPa) = 0.01680007
#
# Stress axis : x y z
#
# Youngs Moduli (GPa) = 44.48989 134.79811 97.97039
#
# Poissons Ratio (x) = 0.47481 0.47116
# Poissons Ratio (y) = 0.15671 0.32523
# Poissons Ratio (z) = 0.21396 0.44749
#
# Static dielectric constant tensor:
#      x y z
#    x 3.972390 0.000000 0.000000 
#    y 0.000000 3.893560 0.000000 
#    z 0.000000 0.000000 4.176470 
# 
# 
# High freq. dielectric constant tensor:
#      x y z
#    x 1.883450 0.000000 0.000000 
#    y 0.000000 1.839100 0.000000 
#    z 0.000000 0.000000 1.846330 
# 
# From -- ./inp_files/32026.got.cif
#   From: 2010.03.12/outbox.cif.g09.slc.cpg/sg64_17_cif.got.tgz:32026.got - 2010.04.10 20:19:32.
