data_PCOD8262269
_publ_section_title
;
Structure prediction by ZEFSAII (Michael W. Deem and Ramdas Pophale) SiO2 
 PCOD8262269
Probable space group: C M C A
;
_chemical_formula_sum "Si O2"
_cell_formula_units_Z 128
_cell_length_a 22.959161
_cell_length_b 17.403847
_cell_length_c 18.785897
_cell_angle_alpha 90.000000
_cell_angle_beta 90.000000
_cell_angle_gamma 90.000000
_cell_volume 7506.425991
_symmetry_space_group_name_H-M "C M C A"
_symmetry_group_IT_number 64
_symmetry_cell_setting 'orthorhombic'
loop_
_space_group_symop_operation_xyz
x,y,z
-x,1/2-y,1/2+z
x,-y,-z
-x,1/2+y,1/2-z
-x,-y,-z
x,1/2+y,1/2-z
-x,y,z
x,1/2-y,1/2+z
1/2+x,1/2+y,z
1/2-x,-y,1/2+z
1/2+x,1/2-y,-z
1/2-x,y,1/2-z
1/2-x,1/2-y,-z
1/2+x,y,1/2-z
1/2-x,1/2+y,z
1/2+x,-y,1/2+z
loop_
_atom_site_type_symbol
_atom_site_label
_atom_site_fract_x
_atom_site_fract_y
_atom_site_fract_z
Si Si1 0.434454 0.101690 0.831240
Si Si2 0.213902 0.073734 0.467451
Si Si3 0.768587 0.813197 0.864495
Si Si4 0.350365 0.689656 0.562916
Si Si5 0.065500 0.281930 0.937051
Si Si6 0.837018 0.824451 0.728583
Si Si7 0.391237 0.063407 0.130550
Si Si8 0.933895 0.789552 0.209385
O O1 0.500000 0.122312 0.854444
O O2 0.391981 0.152175 0.879007
O O3 0.425432 0.126483 0.747325
O O4 0.427164 0.011088 0.845336
O O5 0.260186 0.118565 0.420094
O O6 0.191465 0.126723 0.530308
O O7 0.158792 0.039661 0.424453
O O8 0.246926 0.000000 0.500000
O O9 0.804833 0.746415 0.900742
O O10 0.803974 0.848054 0.799323
O O11 0.705390 0.786728 0.832744
O O12 0.388837 0.730659 0.501171
O O13 0.070194 0.368051 0.904022
O O14 0.078383 0.216978 0.875958
O O15 0.000000 0.271980 0.966488
O O16 0.862050 0.904890 0.701890
O O17 0.888617 0.766288 0.748665
O O18 0.000000 0.760454 0.222700
#
# Coordination Sequence:
#
# PCOD8262269 Si02
#       8
#    16  16  16  16  16  16  16  16
#     4  11  20  31  53  83 111 134 170 222 267 313
#     4  10  19  33  49  71 104 140 170 216 260 313
#     4  10  20  34  55  74 102 139 182 219 255 304
#     4  11  20  33  52  79 107 136 176 218 267 309
#     4   9  18  32  51  75 107 142 172 205 261 322
#     4   9  18  36  55  73  99 138 178 217 257 303
#     4   9  18  32  51  73 106 136 170 210 266 319
#     4   9  18  33  52  75 105 136 169 214 258 305
#
# _framework density 17.052056
#
# number of rings (size 3 to 8) (size 9 to 14) (size 15 to 20)
#    0.000    2.250    2.500    1.875    0.000    0.500 
#    0.000    4.375    2.750    0.000    0.000    0.000 
#    0.000    4.500    0.000    0.000    0.000    0.000 
#
# Total GULP energy -792921.136293 kJ/mol
# GULP energy per Si atom -12389.392755 kJ/mol
# Density = 1.701324 g / cm^3
# Si number density = 17.052056 Si / 1000 Ang^3
#
#
#
# Elastic Constant Matrix: (Units=GPa)
#
#
# Indices 1 2 3 4 5 6 
#
# 1 83.7585 36.3708 39.4166 0.0000 0.0000 0.0000
# 2 36.3708 69.9647 54.3850 0.0000 0.0000 0.0000
# 3 39.4166 54.3850 84.4404 0.0000 0.0000 0.0000
# 4 0.0000 0.0000 0.0000 26.2678 0.0000 0.0000
# 5 0.0000 0.0000 0.0000 0.0000 24.3016 0.0000
# 6 0.0000 0.0000 0.0000 0.0000 0.0000 26.1319
#
#
#
# Elastic Compliance Matrix: (Units=1/GPa)
#
#
# Indices 1 2 3 4 5 6 
#
# 1 0.016154 -0.005079 -0.004270 0.000000 0.000000 0.000000
# 2 -0.005079 0.030219 -0.017093 0.000000 0.000000 0.000000
# 3 -0.004270 -0.017093 0.024844 0.000000 0.000000 0.000000
# 4 0.000000 0.000000 0.000000 0.038069 0.000000 0.000000
# 5 0.000000 0.000000 0.000000 0.000000 0.041150 0.000000
# 6 0.000000 0.000000 0.000000 0.000000 0.000000 0.038267
#
#
# Mechanical properties :
#
#
# Convention : Reuss Voigt Hill
#
# Bulk Modulus (GPa) = 54.53737 55.38983 54.96360
# Shear Modulus (GPa) = 20.18595 22.53968 21.36281
#
# Velocity S-wave (km/s) = 3.44435 3.63962 3.54333
# Velocity P-wave (km/s) = 6.91884 7.08631 7.00308
#
# Compressibility (1/GPa) = 0.01833605
#
# Stress axis : x y z
#
# Youngs Moduli (GPa) = 61.90563 33.09135 40.25052
#
# Poissons Ratio (x) = 0.16806 0.17185
# Poissons Ratio (y) = 0.31439 0.68798
# Poissons Ratio (z) = 0.26431 0.56562
#
# Static dielectric constant tensor:
#      x y z
#    x 3.314400 0.000000 0.000000 
#    y 0.000000 2.978310 0.000000 
#    z 0.000000 0.000000 3.416130 
# 
# 
# High freq. dielectric constant tensor:
#      x y z
#    x 1.664570 0.000000 0.000000 
#    y 0.000000 1.627830 0.000000 
#    z 0.000000 0.000000 1.663330 
# 
# From -- ./inp_files/35169.got.cif
#   From: 2010.03.12/outbox.cif.g09.slc.cpg/sg64_18_cif.got.tgz:35169.got - 2010.04.10 20:19:32.
