data_PCOD8262704
_publ_section_title
;
Structure prediction by ZEFSAII (Michael W. Deem and Ramdas Pophale) SiO2 
 PCOD8262704
Probable space group: C M C A
;
_chemical_formula_sum "Si O2"
_cell_formula_units_Z 112
_cell_length_a 22.490673
_cell_length_b 11.907483
_cell_length_c 23.626326
_cell_angle_alpha 90.000000
_cell_angle_beta 90.000000
_cell_angle_gamma 90.000000
_cell_volume 6327.302726
_symmetry_space_group_name_H-M "C M C A"
_symmetry_group_IT_number 64
_symmetry_cell_setting 'orthorhombic'
loop_
_space_group_symop_operation_xyz
x,y,z
-x,1/2-y,1/2+z
x,-y,-z
-x,1/2+y,1/2-z
-x,-y,-z
x,1/2+y,1/2-z
-x,y,z
x,1/2-y,1/2+z
1/2+x,1/2+y,z
1/2-x,-y,1/2+z
1/2+x,1/2-y,-z
1/2-x,y,1/2-z
1/2-x,1/2-y,-z
1/2+x,y,1/2-z
1/2-x,1/2+y,z
1/2+x,-y,1/2+z
loop_
_atom_site_type_symbol
_atom_site_label
_atom_site_fract_x
_atom_site_fract_y
_atom_site_fract_z
Si Si1 0.066758 0.653430 0.549561
Si Si2 0.361466 0.195708 0.322044
Si Si3 0.566871 0.607505 0.074724
Si Si4 0.069546 0.371482 0.244760
Si Si5 0.843101 0.440253 0.784829
Si Si6 0.738069 0.137161 0.812761
Si Si7 0.639267 0.787673 0.348305
O O1 0.083377 0.671723 0.483659
O O2 0.070493 0.523721 0.564758
O O3 0.113222 0.720464 0.588531
O O4 0.000000 0.698280 0.560775
O O5 0.385661 0.137962 0.377973
O O6 0.415387 0.259814 0.290600
O O7 0.333599 0.103971 0.279245
O O8 0.311143 0.283597 0.341418
O O9 0.500000 0.641223 0.093487
O O10 0.099289 0.479192 0.215094
O O11 0.093952 0.355925 0.308347
O O12 0.000000 0.392870 0.247326
O O13 0.785592 0.509821 0.806157
O O14 0.851976 0.339458 0.828322
O O15 0.750000 0.186942 0.750000
O O16 0.798470 0.143932 0.848860
#
# Coordination Sequence:
#
# PCOD8262704 Si02
#       7
#    16  16  16  16  16  16  16
#     4   9  19  35  53  80 106 134 179 222 264 310
#     4  10  20  33  52  76 102 139 174 213 262 313
#     4   9  18  34  57  78 104 138 176 222 265 309
#     4  10  20  31  46  74 107 133 167 210 260 325
#     4  10  21  32  50  76 106 137 170 212 262 320
#     4  11  21  35  50  76 106 138 175 208 257 320
#     4  11  21  33  53  75 104 140 174 216 264 312
#
# _framework density 17.701066000000001
#
# number of rings (size 3 to 8) (size 9 to 14) (size 15 to 20)
#    0.000    2.000    4.286    2.571    2.000    4.571 
#    0.000    0.714    0.000    3.429    0.000    9.000 
#    0.000    0.000    0.000    0.000    0.000    0.000 
#
# Total GULP energy -694314.409024 kJ/mol
# GULP energy per Si atom -12398.471590 kJ/mol
# Density = 1.766078 g / cm^3
# Si number density = 17.701066 Si / 1000 Ang^3
#
#
#
# Elastic Constant Matrix: (Units=GPa)
#
#
# Indices 1 2 3 4 5 6 
#
# 1 99.8532 35.3368 28.7575 0.0000 0.0000 0.0000
# 2 35.3368 75.8434 24.6991 0.0000 0.0000 0.0000
# 3 28.7575 24.6991 78.1851 0.0000 0.0000 0.0000
# 4 0.0000 0.0000 0.0000 21.9387 0.0000 0.0000
# 5 0.0000 0.0000 0.0000 0.0000 22.9264 0.0000
# 6 0.0000 0.0000 0.0000 0.0000 0.0000 20.3418
#
#
#
# Elastic Compliance Matrix: (Units=1/GPa)
#
#
# Indices 1 2 3 4 5 6 
#
# 1 0.012635 -0.004875 -0.003107 0.000000 0.000000 0.000000
# 2 -0.004875 0.016578 -0.003444 0.000000 0.000000 0.000000
# 3 -0.003107 -0.003444 0.015021 0.000000 0.000000 0.000000
# 4 0.000000 0.000000 0.000000 0.045581 0.000000 0.000000
# 5 0.000000 0.000000 0.000000 0.000000 0.043618 0.000000
# 6 0.000000 0.000000 0.000000 0.000000 0.000000 0.049160
#
#
# Mechanical properties :
#
#
# Convention : Reuss Voigt Hill
#
# Bulk Modulus (GPa) = 46.76946 47.94096 47.35521
# Shear Modulus (GPa) = 23.52143 24.04728 23.78436
#
# Velocity S-wave (km/s) = 3.64925 3.68981 3.66958
# Velocity P-wave (km/s) = 6.65095 6.73019 6.69069
#
# Compressibility (1/GPa) = 0.02138147
#
# Stress axis : x y z
#
# Youngs Moduli (GPa) = 79.14693 60.32121 66.57334
#
# Poissons Ratio (x) = 0.29406 0.20686
# Poissons Ratio (y) = 0.38583 0.22928
# Poissons Ratio (z) = 0.24593 0.20775
#
# Static dielectric constant tensor:
#      x y z
#    x 3.388050 0.000000 0.000000 
#    y 0.000000 3.220140 0.000000 
#    z 0.000000 0.000000 3.241320 
# 
# 
# High freq. dielectric constant tensor:
#      x y z
#    x 1.689720 0.000000 0.000000 
#    y 0.000000 1.679130 0.000000 
#    z 0.000000 0.000000 1.655360 
# 
# From -- ./inp_files/46678.got.cif
#   From: 2010.03.12/outbox.cif.g09.slc.cpg/sg64_24_cif.got.tgz:46678.got - 2010.04.10 20:19:32.
