data_PCOD8262106
_publ_section_title
;
Structure prediction by ZEFSAII (Michael W. Deem and Ramdas Pophale) SiO2 
 PCOD8262106
Probable space group: C M C A
;
_chemical_formula_sum "Si O2"
_cell_formula_units_Z 96
_cell_length_a 8.744657
_cell_length_b 23.623040
_cell_length_c 25.816089
_cell_angle_alpha 90.000000
_cell_angle_beta 90.000000
_cell_angle_gamma 90.000000
_cell_volume 5332.968449
_symmetry_space_group_name_H-M "C M C A"
_symmetry_group_IT_number 64
_symmetry_cell_setting 'orthorhombic'
loop_
_space_group_symop_operation_xyz
x,y,z
-x,1/2-y,1/2+z
x,-y,-z
-x,1/2+y,1/2-z
-x,-y,-z
x,1/2+y,1/2-z
-x,y,z
x,1/2-y,1/2+z
1/2+x,1/2+y,z
1/2-x,-y,1/2+z
1/2+x,1/2-y,-z
1/2-x,y,1/2-z
1/2-x,1/2-y,-z
1/2+x,y,1/2-z
1/2-x,1/2+y,z
1/2+x,-y,1/2+z
loop_
_atom_site_type_symbol
_atom_site_label
_atom_site_fract_x
_atom_site_fract_y
_atom_site_fract_z
Si Si1 0.819358 0.729214 0.554097
Si Si2 0.820945 0.413047 0.694180
Si Si3 0.173037 0.389674 0.072204
Si Si4 0.673941 0.424167 0.541862
Si Si5 0.179844 0.008005 0.883332
Si Si6 0.318973 0.829521 0.605106
O O1 0.750000 0.750000 0.500000
O O2 0.778788 0.664938 0.567278
O O3 0.750027 0.766567 0.601278
O O4 0.000000 0.736474 0.551393
O O5 0.750000 0.406531 0.750000
O O6 0.765002 0.470750 0.666024
O O7 0.774377 0.358523 0.659724
O O8 0.000000 0.415607 0.700928
O O9 0.236672 0.431047 0.117322
O O10 0.000000 0.371026 0.085299
O O11 0.178345 0.426772 0.020004
O O12 0.500000 0.430777 0.562117
O O13 0.778088 0.473747 0.564808
O O14 0.742022 0.363758 0.558249
O O15 0.000000 0.018218 0.882417
O O16 0.500000 0.828837 0.596794
#
# Coordination Sequence:
#
# PCOD8262106 Si02
#       6
#    16  16  16  16  16  16
#     4  12  23  35  53  77 109 150 188 223 264 316
#     4   9  20  37  59  84 107 136 174 223 278 328
#     4  11  22  34  50  75 108 146 186 220 260 315
#     4  10  19  31  49  74 106 143 182 219 260 312
#     4  10  21  35  51  76 108 140 178 222 272 322
#     4  10  20  35  54  79 110 142 182 226 270 318
#
# _framework density 18.001232000000002
#
# number of rings (size 3 to 8) (size 9 to 14) (size 15 to 20)
#    0.000    1.667    1.667    5.000    0.000    8.000 
#    0.000    0.000    0.000    1.000    0.000    7.000 
#    0.000    0.000    0.000    0.000    0.000    0.000 
#
# Total GULP energy -595194.492381 kJ/mol
# GULP energy per Si atom -12399.885258 kJ/mol
# Density = 1.796026 g / cm^3
# Si number density = 18.001232 Si / 1000 Ang^3
#
#
#
# Elastic Constant Matrix: (Units=GPa)
#
#
# Indices 1 2 3 4 5 6 
#
# 1 75.6780 10.8460 41.3932 0.0000 0.0000 0.0000
# 2 10.8460 80.3096 47.1605 0.0000 0.0000 0.0000
# 3 41.3932 47.1605 91.3132 0.0000 0.0000 0.0000
# 4 0.0000 0.0000 0.0000 15.3159 0.0000 0.0000
# 5 0.0000 0.0000 0.0000 0.0000 26.1056 0.0000
# 6 0.0000 0.0000 0.0000 0.0000 0.0000 35.6768
#
#
#
# Elastic Compliance Matrix: (Units=1/GPa)
#
#
# Indices 1 2 3 4 5 6 
#
# 1 0.018204 0.003427 -0.010022 0.000000 0.000000 0.000000
# 2 0.003427 0.018517 -0.011117 0.000000 0.000000 0.000000
# 3 -0.010022 -0.011117 0.021236 0.000000 0.000000 0.000000
# 4 0.000000 0.000000 0.000000 0.065291 0.000000 0.000000
# 5 0.000000 0.000000 0.000000 0.000000 0.038306 0.000000
# 6 0.000000 0.000000 0.000000 0.000000 0.000000 0.028029
#
#
# Mechanical properties :
#
#
# Convention : Reuss Voigt Hill
#
# Bulk Modulus (GPa) = 44.37909 49.56668 46.97289
# Shear Modulus (GPa) = 21.50351 25.27976 23.39164
#
# Velocity S-wave (km/s) = 3.45999 3.75151 3.60869
# Velocity P-wave (km/s) = 6.37722 6.80882 6.59655
#
# Compressibility (1/GPa) = 0.02253313
#
# Stress axis : x y z
#
# Youngs Moduli (GPa) = 54.93158 54.00360 47.08988
#
# Poissons Ratio (x) = -0.18506 0.47194
# Poissons Ratio (y) = -0.18824 0.52350
# Poissons Ratio (z) = 0.55053 0.60036
#
# Static dielectric constant tensor:
#      x y z
#    x 3.431170 0.000000 0.000000 
#    y 0.000000 3.484480 0.000000 
#    z 0.000000 0.000000 0.777620 
# 
# 
# High freq. dielectric constant tensor:
#      x y z
#    x 1.712120 0.000000 0.000000 
#    y 0.000000 1.702950 0.000000 
#    z 0.000000 0.000000 1.655970 
# 
# From -- ./inp_files/42949.got.cif
#   From: 2010.03.12/outbox.cif.g09.slc.cpg/sg64_22_cif.got.tgz:42949.got - 2010.04.10 20:19:32.
