data_PCOD8262543
_publ_section_title
;
Structure prediction by ZEFSAII (Michael W. Deem and Ramdas Pophale) SiO2 
 PCOD8262543
Probable space group: C M C A
;
_chemical_formula_sum "Si O2"
_cell_formula_units_Z 88
_cell_length_a 12.163802
_cell_length_b 17.301642
_cell_length_c 20.388871
_cell_angle_alpha 90.000000
_cell_angle_beta 90.000000
_cell_angle_gamma 90.000000
_cell_volume 4290.914311
_symmetry_space_group_name_H-M "C M C A"
_symmetry_group_IT_number 64
_symmetry_cell_setting 'orthorhombic'
loop_
_space_group_symop_operation_xyz
x,y,z
-x,1/2-y,1/2+z
x,-y,-z
-x,1/2+y,1/2-z
-x,-y,-z
x,1/2+y,1/2-z
-x,y,z
x,1/2-y,1/2+z
1/2+x,1/2+y,z
1/2-x,-y,1/2+z
1/2+x,1/2-y,-z
1/2-x,y,1/2-z
1/2-x,1/2-y,-z
1/2+x,y,1/2-z
1/2-x,1/2+y,z
1/2+x,-y,1/2+z
loop_
_atom_site_type_symbol
_atom_site_label
_atom_site_fract_x
_atom_site_fract_y
_atom_site_fract_z
Si Si1 0.630010 0.022922 0.134205
Si Si2 0.750000 0.607889 0.250000
Si Si3 0.772817 0.131716 0.674824
Si Si4 0.780466 0.347171 0.950329
Si Si5 0.626055 0.814444 0.435933
Si Si6 0.622839 0.210411 0.338430
O O1 0.500000 0.024618 0.145946
O O2 0.696231 0.056470 0.194847
O O3 0.659661 0.072483 0.068958
O O4 0.673539 0.935478 0.130097
O O5 0.651190 0.662422 0.226340
O O6 0.750000 0.105267 0.750000
O O7 0.662490 0.163836 0.638575
O O8 0.861779 0.199641 0.676695
O O9 0.868962 0.277220 0.953313
O O10 0.694426 0.320666 0.896959
O O11 0.712642 0.359538 0.017366
O O12 0.500000 0.841761 0.445774
O O13 0.500000 0.194179 0.359880
#
# Coordination Sequence:
#
# PCOD8262543 Si02
#       6
#    16   8  16  16  16  16
#     4  11  22  39  60  85 124 162 194 248 306 354
#     4  10  20  36  56  88 116 148 208 248 286 362
#     4  11  23  40  55  89 126 157 207 244 289 373
#     4   9  21  39  62  95 118 148 210 251 297 373
#     4  10  21  41  67  89 120 160 200 258 308 349
#     4  10  19  35  59  84 117 156 194 249 302 348
#
# _framework density 20.508448999999999
#
# number of rings (size 3 to 8) (size 9 to 14) (size 15 to 20)
#    0.000    1.818    1.818    2.182    0.000    2.182 
#    0.000    6.364    0.000    0.000    0.000    0.000 
#    0.000    0.000    0.000    0.000    0.000    0.000 
#
# Total GULP energy -545430.240201 kJ/mol
# GULP energy per Si atom -12396.141823 kJ/mol
# Density = 2.046177 g / cm^3
# Si number density = 20.508449 Si / 1000 Ang^3
#
#
#
# Elastic Constant Matrix: (Units=GPa)
#
#
# Indices 1 2 3 4 5 6 
#
# 1 117.5567 28.3130 17.3823 0.0000 0.0000 0.0000
# 2 28.3130 83.6538 5.5433 0.0000 0.0000 0.0000
# 3 17.3823 5.5433 71.1741 0.0000 0.0000 0.0000
# 4 0.0000 0.0000 0.0000 35.3308 0.0000 0.0000
# 5 0.0000 0.0000 0.0000 0.0000 8.2029 0.0000
# 6 0.0000 0.0000 0.0000 0.0000 0.0000 13.1876
#
#
#
# Elastic Compliance Matrix: (Units=1/GPa)
#
#
# Indices 1 2 3 4 5 6 
#
# 1 0.009562 -0.003098 -0.002094 0.000000 0.000000 0.000000
# 2 -0.003098 0.013019 -0.000257 0.000000 0.000000 0.000000
# 3 -0.002094 -0.000257 0.014582 0.000000 0.000000 0.000000
# 4 0.000000 0.000000 0.000000 0.028304 0.000000 0.000000
# 5 0.000000 0.000000 0.000000 0.000000 0.121908 0.000000
# 6 0.000000 0.000000 0.000000 0.000000 0.000000 0.075829
#
#
# Mechanical properties :
#
#
# Convention : Reuss Voigt Hill
#
# Bulk Modulus (GPa) = 38.07361 41.65130 39.86245
# Shear Modulus (GPa) = 17.67679 26.08734 21.88206
#
# Velocity S-wave (km/s) = 2.93904 3.57042 3.27001
# Velocity P-wave (km/s) = 5.48839 6.11152 5.80832
#
# Compressibility (1/GPa) = 0.02626491
#
# Stress axis : x y z
#
# Youngs Moduli (GPa) = 104.57829 76.80792 68.57994
#
# Poissons Ratio (x) = 0.23792 0.14361
# Poissons Ratio (y) = 0.32394 0.01766
# Poissons Ratio (z) = 0.21899 0.01978
#
# Static dielectric constant tensor:
#      x y z
#    x 3.596110 0.000000 0.000000 
#    y 0.000000 3.885340 0.000000 
#    z 0.000000 0.000000 3.887430 
# 
# 
# High freq. dielectric constant tensor:
#      x y z
#    x 1.794010 0.000000 0.000000 
#    y 0.000000 1.801480 0.000000 
#    z 0.000000 0.000000 1.804590 
# 
# From -- ./inp_files/38109.got.cif
#   From: 2010.03.12/outbox.cif.g09.slc.cpg/sg64_20_cif.got.tgz:38109.got - 2010.04.10 20:19:32.
