data_PCOD8262000
_publ_section_title
;
Structure prediction by ZEFSAII (Michael W. Deem and Ramdas Pophale) SiO2 
 PCOD8262000
Probable space group: C M C A
;
_chemical_formula_sum "Si O2"
_cell_formula_units_Z 96
_cell_length_a 7.970548
_cell_length_b 30.756261
_cell_length_c 21.441930
_cell_angle_alpha 90.000000
_cell_angle_beta 90.000000
_cell_angle_gamma 90.000000
_cell_volume 5256.365947
_symmetry_space_group_name_H-M "C M C A"
_symmetry_group_IT_number 64
_symmetry_cell_setting 'orthorhombic'
loop_
_space_group_symop_operation_xyz
x,y,z
-x,1/2-y,1/2+z
x,-y,-z
-x,1/2+y,1/2-z
-x,-y,-z
x,1/2+y,1/2-z
-x,y,z
x,1/2-y,1/2+z
1/2+x,1/2+y,z
1/2-x,-y,1/2+z
1/2+x,1/2-y,-z
1/2-x,y,1/2-z
1/2-x,1/2-y,-z
1/2+x,y,1/2-z
1/2-x,1/2+y,z
1/2+x,-y,1/2+z
loop_
_atom_site_type_symbol
_atom_site_label
_atom_site_fract_x
_atom_site_fract_y
_atom_site_fract_z
Si Si1 0.688138 0.758942 0.317410
Si Si2 0.185636 0.585391 0.399096
Si Si3 0.000000 0.063018 0.556878
Si Si4 0.696037 0.785271 0.449029
Si Si5 0.000000 0.533475 0.086125
Si Si6 0.312681 0.384080 0.037810
Si Si7 0.193765 0.336012 0.685744
O O1 0.500000 0.775201 0.320514
O O2 0.750000 0.776317 0.250000
O O3 0.779977 0.777660 0.380006
O O4 0.696764 0.707034 0.321887
O O5 0.329444 0.550715 0.380942
O O6 0.176256 0.592133 0.472248
O O7 0.235375 0.631461 0.369771
O O8 0.000000 0.570048 0.375046
O O9 0.000000 0.051060 0.484145
O O10 0.833036 0.090524 0.575894
O O11 0.000000 0.018220 0.594878
O O12 0.500000 0.779270 0.442191
O O13 0.750000 0.750000 0.500000
O O14 0.742693 0.833908 0.471016
O O15 0.500000 0.387161 0.069421
O O16 0.250000 0.359241 0.750000
O O17 0.000000 0.322154 0.686758
#
# Coordination Sequence:
#
# PCOD8262000 Si02
#       7
#    16  16   8  16   8  16  16
#     4  10  20  33  48  69 100 136 174 212 251 295
#     4   9  18  30  47  70  99 131 160 192 250 301
#     4   9  18  32  48  76  93 128 160 192 252 300
#     4  10  21  33  49  74 102 134 173 213 259 299
#     4   9  18  30  50  70 101 120 158 202 234 305
#     4   9  18  33  48  69 102 131 161 205 246 298
#     4  10  19  30  45  67  96 131 168 199 242 295
#
# _framework density 18.263569
#
# number of rings (size 3 to 8) (size 9 to 14) (size 15 to 20)
#    0.000    2.500    0.000    3.000    3.500    3.333 
#    0.000    3.333    0.000    0.000    0.000    1.167 
#    0.000    0.000    0.000    0.000    0.000    0.000 
#
# Total GULP energy -594682.917201 kJ/mol
# GULP energy per Si atom -12389.227442 kJ/mol
# Density = 1.822200 g / cm^3
# Si number density = 18.263569 Si / 1000 Ang^3
#
#
#
# Elastic Constant Matrix: (Units=GPa)
#
#
# Indices 1 2 3 4 5 6 
#
# 1 95.1468 52.5881 21.1874 0.0000 0.0000 0.0000
# 2 52.5881 90.4487 9.0689 0.0000 0.0000 0.0000
# 3 21.1874 9.0689 58.4250 0.0000 0.0000 0.0000
# 4 0.0000 0.0000 0.0000 14.6912 0.0000 0.0000
# 5 0.0000 0.0000 0.0000 0.0000 16.8296 0.0000
# 6 0.0000 0.0000 0.0000 0.0000 0.0000 19.9612
#
#
#
# Elastic Compliance Matrix: (Units=1/GPa)
#
#
# Indices 1 2 3 4 5 6 
#
# 1 0.016620 -0.009202 -0.004599 0.000000 0.000000 0.000000
# 2 -0.009202 0.016326 0.000803 0.000000 0.000000 0.000000
# 3 -0.004599 0.000803 0.018659 0.000000 0.000000 0.000000
# 4 0.000000 0.000000 0.000000 0.068068 0.000000 0.000000
# 5 0.000000 0.000000 0.000000 0.000000 0.059419 0.000000
# 6 0.000000 0.000000 0.000000 0.000000 0.000000 0.050097
#
#
# Mechanical properties :
#
#
# Convention : Reuss Voigt Hill
#
# Bulk Modulus (GPa) = 39.04874 45.52325 42.28599
# Shear Modulus (GPa) = 18.95940 21.04147 20.00043
#
# Velocity S-wave (km/s) = 3.22545 3.39794 3.31282
# Velocity P-wave (km/s) = 5.94125 6.35409 6.15114
#
# Compressibility (1/GPa) = 0.02560902
#
# Stress axis : x y z
#
# Youngs Moduli (GPa) = 60.16783 61.25309 53.59328
#
# Poissons Ratio (x) = 0.56366 0.24647
# Poissons Ratio (y) = 0.55367 -0.04303
# Poissons Ratio (z) = 0.27670 -0.04918
#
# Static dielectric constant tensor:
#      x y z
#    x 3.740370 0.000000 0.000000 
#    y 0.000000 3.210990 0.000000 
#    z 0.000000 0.000000 3.518350 
# 
# 
# High freq. dielectric constant tensor:
#      x y z
#    x 1.721690 0.000000 0.000000 
#    y 0.000000 1.681480 0.000000 
#    z 0.000000 0.000000 1.674500 
# 
# From -- ./inp_files/43108.got.cif
#   From: 2010.03.12/outbox.cif.g09.slc.cpg/sg64_22_cif.got.tgz:43108.got - 2010.04.10 20:19:32.
