data_PCOD8262693
_publ_section_title
;
Structure prediction by ZEFSAII (Michael W. Deem and Ramdas Pophale) SiO2 
 PCOD8262693
Probable space group: C M C A
;
_chemical_formula_sum "Si O2"
_cell_formula_units_Z 88
_cell_length_a 30.804268
_cell_length_b 10.509354
_cell_length_c 13.913401
_cell_angle_alpha 90.000000
_cell_angle_beta 90.000000
_cell_angle_gamma 90.000000
_cell_volume 4504.226449
_symmetry_space_group_name_H-M "C M C A"
_symmetry_group_IT_number 64
_symmetry_cell_setting 'orthorhombic'
loop_
_space_group_symop_operation_xyz
x,y,z
-x,1/2-y,1/2+z
x,-y,-z
-x,1/2+y,1/2-z
-x,-y,-z
x,1/2+y,1/2-z
-x,y,z
x,1/2-y,1/2+z
1/2+x,1/2+y,z
1/2-x,-y,1/2+z
1/2+x,1/2-y,-z
1/2-x,y,1/2-z
1/2-x,1/2-y,-z
1/2+x,y,1/2-z
1/2-x,1/2+y,z
1/2+x,-y,1/2+z
loop_
_atom_site_type_symbol
_atom_site_label
_atom_site_fract_x
_atom_site_fract_y
_atom_site_fract_z
Si Si1 0.500000 0.240676 0.341094
Si Si2 0.062088 0.275170 0.322430
Si Si3 0.000000 0.136978 0.454030
Si Si4 0.000000 0.527957 0.608370
Si Si5 0.715169 0.640352 0.015544
Si Si6 0.836826 0.187400 0.830821
Si Si7 0.298812 0.574749 0.225220
O O1 0.456333 0.285625 0.286595
O O2 0.500000 0.269539 0.454121
O O3 0.500000 0.091432 0.323062
O O4 0.042355 0.157745 0.385871
O O5 0.044802 0.399711 0.374215
O O6 0.113344 0.275616 0.320695
O O7 0.000000 0.000000 0.500000
O O8 0.000000 0.500000 0.500000
O O9 0.695964 0.643983 0.122430
O O10 0.736656 0.500000 0.000000
O O11 0.750000 0.750000 0.000000
O O12 0.675683 0.659871 0.941163
O O13 0.812368 0.316285 0.799912
O O14 0.825834 0.058702 0.769641
O O15 0.250000 0.533565 0.250000
#
# Coordination Sequence:
#
# PCOD8262693 Si02
#       7
#     8  16   8   8  16  16  16
#     4  10  21  39  66  84 123 168 194 259 313 370
#     4  10  25  38  62  98 121 164 212 256 316 377
#     4  10  22  42  64  90 133 166 205 257 318 384
#     4  10  19  40  64  84 123 162 208 242 308 386
#     4  10  22  40  63  87 122 167 209 260 318 376
#     4  11  25  41  63  96 130 163 215 270 312 386
#     4  11  23  41  66  90 126 172 214 263 325 382
#
# _framework density 19.537206999999999
#
# number of rings (size 3 to 8) (size 9 to 14) (size 15 to 20)
#    0.000    1.818    3.636    0.545   10.182    3.636 
#    0.000    0.909    0.000    0.000    0.000    0.000 
#    0.000    0.000    0.000    0.000    0.000    0.000 
#
# Total GULP energy -545135.742824 kJ/mol
# GULP energy per Si atom -12389.448701 kJ/mol
# Density = 1.949274 g / cm^3
# Si number density = 19.537207 Si / 1000 Ang^3
#
#
#
# Elastic Constant Matrix: (Units=GPa)
#
#
# Indices 1 2 3 4 5 6 
#
# 1 125.8824 39.1208 18.7901 0.0000 0.0000 0.0000
# 2 39.1208 117.8611 9.0310 0.0000 0.0000 0.0000
# 3 18.7901 9.0310 77.9071 0.0000 0.0000 0.0000
# 4 0.0000 0.0000 0.0000 37.5806 0.0000 0.0000
# 5 0.0000 0.0000 0.0000 0.0000 10.9587 0.0000
# 6 0.0000 0.0000 0.0000 0.0000 0.0000 37.7189
#
#
#
# Elastic Compliance Matrix: (Units=1/GPa)
#
#
# Indices 1 2 3 4 5 6 
#
# 1 0.009118 -0.002884 -0.001865 0.000000 0.000000 0.000000
# 2 -0.002884 0.009473 -0.000403 0.000000 0.000000 0.000000
# 3 -0.001865 -0.000403 0.013332 0.000000 0.000000 0.000000
# 4 0.000000 0.000000 0.000000 0.026609 0.000000 0.000000
# 5 0.000000 0.000000 0.000000 0.000000 0.091252 0.000000
# 6 0.000000 0.000000 0.000000 0.000000 0.000000 0.026512
#
#
# Mechanical properties :
#
#
# Convention : Reuss Voigt Hill
#
# Bulk Modulus (GPa) = 46.25169 50.61495 48.43332
# Shear Modulus (GPa) = 25.79899 34.23222 30.01561
#
# Velocity S-wave (km/s) = 3.63782 4.19042 3.92386
# Velocity P-wave (km/s) = 6.43195 7.02680 6.73595
#
# Compressibility (1/GPa) = 0.02162083
#
# Stress axis : x y z
#
# Youngs Moduli (GPa) = 109.66727 105.56776 75.00602
#
# Poissons Ratio (x) = 0.30443 0.13988
# Poissons Ratio (y) = 0.31625 0.03019
# Poissons Ratio (z) = 0.20453 0.04250
#
# Static dielectric constant tensor:
#      x y z
#    x 3.029490 0.000000 0.000000 
#    y 0.000000 3.230820 0.000000 
#    z 0.000000 0.000000 3.774500 
# 
# 
# High freq. dielectric constant tensor:
#      x y z
#    x 1.735450 0.000000 0.000000 
#    y 0.000000 1.777960 0.000000 
#    z 0.000000 0.000000 1.775170 
# 
# From -- ./inp_files/28316.got.cif
#   From: 2010.03.12/outbox.cif.g09.slc.cpg/sg64_15_cif.got.tgz:28316.got - 2010.04.10 20:19:32.
