data_PCOD8262198
_publ_section_title
;
Structure prediction by ZEFSAII (Michael W. Deem and Ramdas Pophale) SiO2 
 PCOD8262198
Probable space group: C M C A
;
_chemical_formula_sum "Si O2"
_cell_formula_units_Z 72
_cell_length_a 29.329050
_cell_length_b 12.691193
_cell_length_c 7.717556
_cell_angle_alpha 90.000000
_cell_angle_beta 90.000000
_cell_angle_gamma 90.000000
_cell_volume 2872.633588
_symmetry_space_group_name_H-M "C M C A"
_symmetry_group_IT_number 64
_symmetry_cell_setting 'orthorhombic'
loop_
_space_group_symop_operation_xyz
x,y,z
-x,1/2-y,1/2+z
x,-y,-z
-x,1/2+y,1/2-z
-x,-y,-z
x,1/2+y,1/2-z
-x,y,z
x,1/2-y,1/2+z
1/2+x,1/2+y,z
1/2-x,-y,1/2+z
1/2+x,1/2-y,-z
1/2-x,y,1/2-z
1/2-x,1/2-y,-z
1/2+x,y,1/2-z
1/2-x,1/2+y,z
1/2+x,-y,1/2+z
loop_
_atom_site_type_symbol
_atom_site_label
_atom_site_fract_x
_atom_site_fract_y
_atom_site_fract_z
Si Si1 0.552730 0.113770 0.108946
Si Si2 0.598692 0.286160 0.935377
Si Si3 0.805510 0.626710 0.505217
Si Si4 0.551110 0.926414 0.333949
Si Si5 0.750000 0.252062 0.250000
O O1 0.500000 0.141457 0.072974
O O2 0.585170 0.161980 0.955675
O O3 0.567079 0.160896 0.293957
O O4 0.558906 0.986891 0.146981
O O5 0.585582 0.329707 0.131655
O O6 0.651543 0.314624 0.916503
O O7 0.811495 0.500000 0.500000
O O8 0.792993 0.671615 0.696873
O O9 0.762349 0.667887 0.398346
O O10 0.500000 0.881995 0.333909
O O11 0.559476 0.000000 0.500000
#
# Coordination Sequence:
#
# PCOD8262198 Si02
#       5
#    16  16  16  16   8
#     4  10  19  32  51  77 111 148 185 228 276 327
#     4  11  20  33  55  81 107 144 192 234 279 339
#     4  11  22  40  64  89 120 155 197 251 308 367
#     4   8  15  29  48  71 103 143 182 217 262 322
#     4  10  24  42  62  90 120 154 196 246 316 382
#
# _framework density 25.064108000000001
#
# number of rings (size 3 to 8) (size 9 to 14) (size 15 to 20)
#    0.000    2.000    0.000    7.333    0.000    0.000 
#    0.000    1.111    0.000    9.333    0.000    0.000 
#    0.000    0.000    0.000    0.000    0.000    0.000 
#
# Total GULP energy -445972.444070 kJ/mol
# GULP energy per Si atom -12388.123446 kJ/mol
# Density = 2.500706 g / cm^3
# Si number density = 25.064108 Si / 1000 Ang^3
#
#
#
# Elastic Constant Matrix: (Units=GPa)
#
#
# Indices 1 2 3 4 5 6 
#
# 1 85.9784 61.4952 -0.6545 0.0000 0.0000 0.0000
# 2 61.4952 145.9279 6.6424 0.0000 0.0000 0.0000
# 3 -0.6545 6.6424 45.5463 0.0000 0.0000 0.0000
# 4 0.0000 0.0000 0.0000 41.7952 0.0000 0.0000
# 5 0.0000 0.0000 0.0000 0.0000 25.2098 0.0000
# 6 0.0000 0.0000 0.0000 0.0000 0.0000 37.7874
#
#
#
# Elastic Compliance Matrix: (Units=1/GPa)
#
#
# Indices 1 2 3 4 5 6 
#
# 1 0.016722 -0.007105 0.001276 0.000000 0.000000 0.000000
# 2 -0.007105 0.009917 -0.001548 0.000000 0.000000 0.000000
# 3 0.001276 -0.001548 0.022200 0.000000 0.000000 0.000000
# 4 0.000000 0.000000 0.000000 0.023926 0.000000 0.000000
# 5 0.000000 0.000000 0.000000 0.000000 0.039667 0.000000
# 6 0.000000 0.000000 0.000000 0.000000 0.000000 0.026464
#
#
# Mechanical properties :
#
#
# Convention : Reuss Voigt Hill
#
# Bulk Modulus (GPa) = 29.33797 45.82432 37.58114
# Shear Modulus (GPa) = 30.30074 34.95643 32.62858
#
# Velocity S-wave (km/s) = 3.48074 3.73859 3.61197
# Velocity P-wave (km/s) = 5.28059 6.07936 5.69400
#
# Compressibility (1/GPa) = 0.03408553
#
# Stress axis : x y z
#
# Youngs Moduli (GPa) = 59.80023 100.83388 45.04538
#
# Poissons Ratio (x) = 0.71643 -0.05750
# Poissons Ratio (y) = 0.42488 0.06975
# Poissons Ratio (z) = -0.07633 0.15613
#
# Static dielectric constant tensor:
#      x y z
#    x 4.093030 0.000000 0.000000 
#    y 0.000000 5.698100 0.000000 
#    z 0.000000 0.000000 5.038710 
# 
# 
# High freq. dielectric constant tensor:
#      x y z
#    x 1.958340 0.000000 0.000000 
#    y 0.000000 2.030280 0.000000 
#    z 0.000000 0.000000 2.041940 
# 
# From -- ./inp_files/9992.got.cif
#   From: 2010.03.12/outbox.cif.g09.slc.cpg/sg64_5_cif.got.tgz:9992.got - 2010.04.10 20:19:32.
