data_PCOD8262940
_publ_section_title
;
Structure prediction by ZEFSAII (Michael W. Deem and Ramdas Pophale) SiO2 
 PCOD8262940
Probable space group: C M C A
;
_chemical_formula_sum "Si O2"
_cell_formula_units_Z 80
_cell_length_a 8.800484
_cell_length_b 15.506777
_cell_length_c 28.652659
_cell_angle_alpha 90.000000
_cell_angle_beta 90.000000
_cell_angle_gamma 90.000000
_cell_volume 3910.146510
_symmetry_space_group_name_H-M "C M C A"
_symmetry_group_IT_number 64
_symmetry_cell_setting 'orthorhombic'
loop_
_space_group_symop_operation_xyz
x,y,z
-x,1/2-y,1/2+z
x,-y,-z
-x,1/2+y,1/2-z
-x,-y,-z
x,1/2+y,1/2-z
-x,y,z
x,1/2-y,1/2+z
1/2+x,1/2+y,z
1/2-x,-y,1/2+z
1/2+x,1/2-y,-z
1/2-x,y,1/2-z
1/2-x,1/2-y,-z
1/2+x,y,1/2-z
1/2-x,1/2+y,z
1/2+x,-y,1/2+z
loop_
_atom_site_type_symbol
_atom_site_label
_atom_site_fract_x
_atom_site_fract_y
_atom_site_fract_z
Si Si1 0.321452 0.251760 0.800331
Si Si2 0.674092 0.599842 0.855539
Si Si3 0.824194 0.408471 0.635012
Si Si4 0.674589 0.156924 0.945212
Si Si5 0.175436 0.838512 0.549560
O O1 0.500000 0.253147 0.794464
O O2 0.250000 0.260527 0.750000
O O3 0.275411 0.161935 0.824016
O O4 0.265161 0.332668 0.831127
O O5 0.500000 0.628242 0.849759
O O6 0.698811 0.500732 0.839610
O O7 0.720163 0.604284 0.909893
O O8 0.723723 0.408916 0.587821
O O9 0.000000 0.394872 0.621695
O O10 0.500000 0.146705 0.929775
O O11 0.716348 0.257234 0.942323
O O12 0.701060 0.122293 0.997828
O O13 0.000000 0.811248 0.555834
#
# Coordination Sequence:
#
# PCOD8262940 Si02
#       5
#    16  16  16  16  16
#     4  11  24  44  67  90 119 157 197 252 310 363
#     4  11  23  40  63  93 124 161 204 249 301 360
#     4  10  23  41  62  90 126 160 200 250 303 358
#     4  10  20  35  56  87 125 164 205 251 299 352
#     4  10  20  34  58  88 121 164 209 248 296 357
#
# _framework density 20.459592000000001
#
# number of rings (size 3 to 8) (size 9 to 14) (size 15 to 20)
#    0.000    1.600    2.000    2.400    0.000    6.400 
#    0.000    6.000    0.000    0.000    0.000    0.000 
#    0.000    0.000    0.000    0.000    0.000    0.000 
#
# Total GULP energy -496108.897798 kJ/mol
# GULP energy per Si atom -12402.722445 kJ/mol
# Density = 2.041303 g / cm^3
# Si number density = 20.459592 Si / 1000 Ang^3
#
#
#
# Elastic Constant Matrix: (Units=GPa)
#
#
# Indices 1 2 3 4 5 6 
#
# 1 59.2958 23.8614 37.4856 0.0000 0.0000 0.0000
# 2 23.8614 87.6293 36.5399 0.0000 0.0000 0.0000
# 3 37.4856 36.5399 115.4138 0.0000 0.0000 0.0000
# 4 0.0000 0.0000 0.0000 10.8992 0.0000 0.0000
# 5 0.0000 0.0000 0.0000 0.0000 38.1970 0.0000
# 6 0.0000 0.0000 0.0000 0.0000 0.0000 28.1806
#
#
#
# Elastic Compliance Matrix: (Units=1/GPa)
#
#
# Indices 1 2 3 4 5 6 
#
# 1 0.022109 -0.003486 -0.006077 0.000000 0.000000 0.000000
# 2 -0.003486 0.013697 -0.003204 0.000000 0.000000 0.000000
# 3 -0.006077 -0.003204 0.011653 0.000000 0.000000 0.000000
# 4 0.000000 0.000000 0.000000 0.091750 0.000000 0.000000
# 5 0.000000 0.000000 0.000000 0.000000 0.026180 0.000000
# 6 0.000000 0.000000 0.000000 0.000000 0.000000 0.035485
#
#
# Mechanical properties :
#
#
# Convention : Reuss Voigt Hill
#
# Bulk Modulus (GPa) = 45.61228 50.90142 48.25685
# Shear Modulus (GPa) = 21.39330 26.41884 23.90607
#
# Velocity S-wave (km/s) = 3.23714 3.59732 3.42197
# Velocity P-wave (km/s) = 6.02614 6.49518 6.26505
#
# Compressibility (1/GPa) = 0.02192392
#
# Stress axis : x y z
#
# Youngs Moduli (GPa) = 45.22950 73.00813 85.81657
#
# Poissons Ratio (x) = 0.25453 0.52153
# Poissons Ratio (y) = 0.15768 0.27497
# Poissons Ratio (z) = 0.27487 0.23393
#
# Static dielectric constant tensor:
#      x y z
#    x 3.698100 0.000000 0.000000 
#    y 0.000000 3.601260 0.000000 
#    z 0.000000 0.000000 3.790950 
# 
# 
# High freq. dielectric constant tensor:
#      x y z
#    x 1.806990 0.000000 0.000000 
#    y 0.000000 1.793040 0.000000 
#    z 0.000000 0.000000 1.796640 
# 
# From -- ./inp_files/51743.got.cif
#   From: 2010.03.12/outbox.cif.g09.slc.cpg/sg64_26_cif.got.tgz:51743.got - 2010.04.10 20:19:32.
