data_PCOD8262417
_publ_section_title
;
Structure prediction by ZEFSAII (Michael W. Deem and Ramdas Pophale) SiO2 
 PCOD8262417
Probable space group: C M C A
;
_chemical_formula_sum "Si O2"
_cell_formula_units_Z 96
_cell_length_a 9.901291
_cell_length_b 20.267927
_cell_length_c 24.570331
_cell_angle_alpha 90.000000
_cell_angle_beta 90.000000
_cell_angle_gamma 90.000000
_cell_volume 4930.740688
_symmetry_space_group_name_H-M "C M C A"
_symmetry_group_IT_number 64
_symmetry_cell_setting 'orthorhombic'
loop_
_space_group_symop_operation_xyz
x,y,z
-x,1/2-y,1/2+z
x,-y,-z
-x,1/2+y,1/2-z
-x,-y,-z
x,1/2+y,1/2-z
-x,y,z
x,1/2-y,1/2+z
1/2+x,1/2+y,z
1/2-x,-y,1/2+z
1/2+x,1/2-y,-z
1/2-x,y,1/2-z
1/2-x,1/2-y,-z
1/2+x,y,1/2-z
1/2-x,1/2+y,z
1/2+x,-y,1/2+z
loop_
_atom_site_type_symbol
_atom_site_label
_atom_site_fract_x
_atom_site_fract_y
_atom_site_fract_z
Si Si1 0.152552 0.671034 0.887300
Si Si2 0.151646 0.851502 0.512947
Si Si3 0.652886 0.024172 0.866889
Si Si4 0.653175 0.100466 0.200827
Si Si5 0.150270 0.283046 0.879822
Si Si6 0.147354 0.459769 0.552625
O O1 0.171988 0.602052 0.854687
O O2 0.249202 0.725525 0.860283
O O3 0.000000 0.696410 0.880726
O O4 0.188686 0.665661 0.951233
O O5 0.155049 0.789460 0.554307
O O6 0.265233 0.897095 0.538033
O O7 0.000000 0.883220 0.514596
O O8 0.500000 0.012795 0.889932
O O9 0.674870 0.976547 0.815026
O O10 0.766803 0.007790 0.909873
O O11 0.500000 0.111813 0.220222
O O12 0.750000 0.119758 0.250000
O O13 0.688087 0.147209 0.149151
O O14 0.000000 0.261880 0.861686
O O15 0.112591 0.500000 0.500000
O O16 0.000000 0.439920 0.578545
#
# Coordination Sequence:
#
# PCOD8262417 Si02
#       6
#    16  16  16  16  16  16
#     4  10  21  34  56  86 116 155 190 223 272 334
#     4  10  19  34  55  79 113 160 196 222 269 334
#     4  10  20  38  60  80 110 149 191 231 279 342
#     4  10  22  41  64  86 106 140 188 239 291 339
#     4  10  21  37  57  82 116 153 188 231 279 331
#     4  11  21  30  48  83 119 150 187 233 276 318
#
# _framework density 19.46969
#
# number of rings (size 3 to 8) (size 9 to 14) (size 15 to 20)
#    0.000    1.833    3.333    1.000    0.000    4.000 
#    0.000    0.833    0.000    4.000    0.000    0.000 
#    0.000    0.000    0.000    0.000    0.000    0.000 
#
# Total GULP energy -594813.066153 kJ/mol
# GULP energy per Si atom -12391.938878 kJ/mol
# Density = 1.942538 g / cm^3
# Si number density = 19.469690 Si / 1000 Ang^3
#
#
#
# Elastic Constant Matrix: (Units=GPa)
#
#
# Indices 1 2 3 4 5 6 
#
# 1 116.4164 58.0442 26.5065 0.0000 0.0000 0.0000
# 2 58.0442 111.4717 22.6242 0.0000 0.0000 0.0000
# 3 26.5065 22.6242 54.6004 0.0000 0.0000 0.0000
# 4 0.0000 0.0000 0.0000 14.3619 0.0000 0.0000
# 5 0.0000 0.0000 0.0000 0.0000 27.2177 0.0000
# 6 0.0000 0.0000 0.0000 0.0000 0.0000 35.0361
#
#
#
# Elastic Compliance Matrix: (Units=1/GPa)
#
#
# Indices 1 2 3 4 5 6 
#
# 1 0.012217 -0.005631 -0.003597 0.000000 0.000000 0.000000
# 2 -0.005631 0.012390 -0.002400 0.000000 0.000000 0.000000
# 3 -0.003597 -0.002400 0.021056 0.000000 0.000000 0.000000
# 4 0.000000 0.000000 0.000000 0.069629 0.000000 0.000000
# 5 0.000000 0.000000 0.000000 0.000000 0.036741 0.000000
# 6 0.000000 0.000000 0.000000 0.000000 0.000000 0.028542
#
#
# Mechanical properties :
#
#
# Convention : Reuss Voigt Hill
#
# Bulk Modulus (GPa) = 44.63285 55.20426 49.91856
# Shear Modulus (GPa) = 23.66305 27.01073 25.33689
#
# Velocity S-wave (km/s) = 3.49001 3.72872 3.61134
# Velocity P-wave (km/s) = 6.26213 6.85225 6.56382
#
# Compressibility (1/GPa) = 0.02240502
#
# Stress axis : x y z
#
# Youngs Moduli (GPa) = 81.85609 80.70877 47.49270
#
# Poissons Ratio (x) = 0.45448 0.17085
# Poissons Ratio (y) = 0.46094 0.11400
# Poissons Ratio (z) = 0.29447 0.19373
#
# Static dielectric constant tensor:
#      x y z
#    x 3.815540 0.000000 0.000000 
#    y 0.000000 3.433380 0.000000 
#    z 0.000000 0.000000 3.106680 
# 
# 
# High freq. dielectric constant tensor:
#      x y z
#    x 1.773220 0.000000 0.000000 
#    y 0.000000 1.749300 0.000000 
#    z 0.000000 0.000000 1.717150 
# 
# From -- ./inp_files/48153.got.cif
#   From: 2010.03.12/outbox.cif.g09.slc.cpg/sg64_25_cif.got.tgz:48153.got - 2010.04.10 20:19:32.
