data_PCOD8262264
_publ_section_title
;
Structure prediction by ZEFSAII (Michael W. Deem and Ramdas Pophale) SiO2 
 PCOD8262264
Probable space group: C M C A
;
_chemical_formula_sum "Si O2"
_cell_formula_units_Z 80
_cell_length_a 9.189753
_cell_length_b 15.514049
_cell_length_c 28.390435
_cell_angle_alpha 90.000000
_cell_angle_beta 90.000000
_cell_angle_gamma 90.000000
_cell_volume 4047.632220
_symmetry_space_group_name_H-M "C M C A"
_symmetry_group_IT_number 64
_symmetry_cell_setting 'orthorhombic'
loop_
_space_group_symop_operation_xyz
x,y,z
-x,1/2-y,1/2+z
x,-y,-z
-x,1/2+y,1/2-z
-x,-y,-z
x,1/2+y,1/2-z
-x,y,z
x,1/2-y,1/2+z
1/2+x,1/2+y,z
1/2-x,-y,1/2+z
1/2+x,1/2-y,-z
1/2-x,y,1/2-z
1/2-x,1/2-y,-z
1/2+x,y,1/2-z
1/2-x,1/2+y,z
1/2+x,-y,1/2+z
loop_
_atom_site_type_symbol
_atom_site_label
_atom_site_fract_x
_atom_site_fract_y
_atom_site_fract_z
Si Si1 0.832615 0.916426 0.352327
Si Si2 0.835136 0.171376 0.552243
Si Si3 0.667496 0.155004 0.053150
Si Si4 0.828825 0.417068 0.637256
Si Si5 0.829212 0.255349 0.701077
O O1 0.809770 0.899993 0.407945
O O2 0.778975 0.833631 0.322979
O O3 0.000000 0.937065 0.340843
O O4 0.735701 0.998131 0.337337
O O5 0.721881 0.247724 0.560056
O O6 0.812288 0.127075 0.501362
O O7 0.000000 0.209130 0.556536
O O8 0.500000 0.150118 0.068761
O O9 0.759554 0.090416 0.085370
O O10 0.783982 0.333605 0.667201
O O11 0.000000 0.427411 0.632435
O O12 0.750000 0.268072 0.750000
O O13 0.000000 0.255807 0.710209
#
# Coordination Sequence:
#
# PCOD8262264 Si02
#       5
#    16  16  16  16  16
#     4  10  21  40  62  86 118 156 194 237 291 350
#     4   9  18  35  57  83 121 159 195 239 291 345
#     4  10  19  32  57  88 117 158 201 238 284 345
#     4  11  23  40  60  87 122 157 194 242 292 345
#     4  10  23  43  65  85 115 152 190 242 301 351
#
# _framework density 19.764641000000001
#
# number of rings (size 3 to 8) (size 9 to 14) (size 15 to 20)
#    0.000    2.000    2.000    1.200    0.000    5.600 
#    0.000    8.000    0.000    0.000    0.000    0.000 
#    0.000    0.000    0.000    0.000    0.000    0.000 
#
# Total GULP energy -496106.151264 kJ/mol
# GULP energy per Si atom -12402.653782 kJ/mol
# Density = 1.971966 g / cm^3
# Si number density = 19.764641 Si / 1000 Ang^3
#
#
#
# Elastic Constant Matrix: (Units=GPa)
#
#
# Indices 1 2 3 4 5 6 
#
# 1 80.7437 48.7408 41.1402 0.0000 0.0000 0.0000
# 2 48.7408 104.8158 25.3855 0.0000 0.0000 0.0000
# 3 41.1402 25.3855 84.0008 0.0000 0.0000 0.0000
# 4 0.0000 0.0000 0.0000 11.2276 0.0000 0.0000
# 5 0.0000 0.0000 0.0000 0.0000 32.7286 0.0000
# 6 0.0000 0.0000 0.0000 0.0000 0.0000 36.1837
#
#
#
# Elastic Compliance Matrix: (Units=1/GPa)
#
#
# Indices 1 2 3 4 5 6 
#
# 1 0.021265 -0.007948 -0.008013 0.000000 0.000000 0.000000
# 2 -0.007948 0.013265 -0.000116 0.000000 0.000000 0.000000
# 3 -0.008013 -0.000116 0.015864 0.000000 0.000000 0.000000
# 4 0.000000 0.000000 0.000000 0.089066 0.000000 0.000000
# 5 0.000000 0.000000 0.000000 0.000000 0.030554 0.000000
# 6 0.000000 0.000000 0.000000 0.000000 0.000000 0.027637
#
#
# Mechanical properties :
#
#
# Convention : Reuss Voigt Hill
#
# Bulk Modulus (GPa) = 54.82433 55.56592 55.19512
# Shear Modulus (GPa) = 21.19673 26.31424 23.75548
#
# Velocity S-wave (km/s) = 3.27839 3.65277 3.47063
# Velocity P-wave (km/s) = 6.49071 6.77976 6.63681
#
# Compressibility (1/GPa) = 0.01824008
#
# Stress axis : x y z
#
# Youngs Moduli (GPa) = 47.02461 75.38867 63.03517
#
# Poissons Ratio (x) = 0.59919 0.50510
# Poissons Ratio (y) = 0.37375 0.00731
# Poissons Ratio (z) = 0.37681 0.00875
#
# Static dielectric constant tensor:
#      x y z
#    x 3.561200 0.000000 0.000000 
#    y 0.000000 3.478800 0.000000 
#    z 0.000000 0.000000 3.639030 
# 
# 
# High freq. dielectric constant tensor:
#      x y z
#    x 1.769110 0.000000 0.000000 
#    y 0.000000 1.764100 0.000000 
#    z 0.000000 0.000000 1.769660 
# 
# From -- ./inp_files/47894.got.cif
#   From: 2010.03.12/outbox.cif.g09.slc.cpg/sg64_24_cif.got.tgz:47894.got - 2010.04.10 20:19:32.
