data_PCOD8262777
_publ_section_title
;
Structure prediction by ZEFSAII (Michael W. Deem and Ramdas Pophale) SiO2 
 PCOD8262777
Probable space group: C M C A
;
_chemical_formula_sum "Si O2"
_cell_formula_units_Z 128
_cell_length_a 17.666414
_cell_length_b 22.994729
_cell_length_c 18.171079
_cell_angle_alpha 90.000000
_cell_angle_beta 90.000000
_cell_angle_gamma 90.000000
_cell_volume 7381.717417
_symmetry_space_group_name_H-M "C M C A"
_symmetry_group_IT_number 64
_symmetry_cell_setting 'orthorhombic'
loop_
_space_group_symop_operation_xyz
x,y,z
-x,1/2-y,1/2+z
x,-y,-z
-x,1/2+y,1/2-z
-x,-y,-z
x,1/2+y,1/2-z
-x,y,z
x,1/2-y,1/2+z
1/2+x,1/2+y,z
1/2-x,-y,1/2+z
1/2+x,1/2-y,-z
1/2-x,y,1/2-z
1/2-x,1/2-y,-z
1/2+x,y,1/2-z
1/2-x,1/2+y,z
1/2+x,-y,1/2+z
loop_
_atom_site_type_symbol
_atom_site_label
_atom_site_fract_x
_atom_site_fract_y
_atom_site_fract_z
Si Si1 0.294934 0.329225 0.061510
Si Si2 0.085001 0.167313 0.815046
Si Si3 0.086344 0.274356 0.719830
Si Si4 0.189134 0.846427 0.685486
Si Si5 0.785621 0.034521 0.923989
Si Si6 0.201213 0.777664 0.909030
Si Si7 0.184769 0.023134 0.309868
Si Si8 0.912765 0.534882 0.694421
O O1 0.359044 0.314991 0.120416
O O2 0.275676 0.397303 0.059893
O O3 0.220600 0.290691 0.080517
O O4 0.327040 0.308089 0.983402
O O5 0.099139 0.207970 0.744651
O O6 0.099239 0.102388 0.786832
O O7 0.000000 0.175163 0.845691
O O8 0.112715 0.316256 0.785970
O O9 0.132681 0.285660 0.646417
O O10 0.000000 0.288803 0.702045
O O11 0.250000 0.845688 0.750000
O O12 0.222900 0.811199 0.616781
O O13 0.169160 0.911844 0.661165
O O14 0.710308 0.015210 0.879771
O O15 0.860834 0.019222 0.876290
O O16 0.792794 0.000000 0.000000
O O17 0.250000 0.022033 0.250000
O O18 0.110128 0.998848 0.269069
O O19 0.000000 0.519991 0.674992
#
# Coordination Sequence:
#
# PCOD8262777 Si02
#       8
#    16  16  16  16  16  16  16  16
#     4  10  20  33  52  76 104 136 177 211 265 312
#     4   9  18  33  52  76 107 135 169 217 265 308
#     4  10  20  33  52  77 104 138 174 215 264 312
#     4   9  17  32  50  72 104 134 168 214 256 299
#     4  10  20  34  53  78 105 141 175 218 265 318
#     4  10  20  33  51  77 104 137 173 219 258 314
#     4   9  18  32  51  76 104 139 174 212 256 309
#     4   9  19  34  53  79 106 136 175 221 265 310
#
# _framework density 17.340138
#
# number of rings (size 3 to 8) (size 9 to 14) (size 15 to 20)
#    0.000    2.500    1.250    0.750    1.750    2.250 
#    0.000    0.000    0.000    0.375    0.000    0.000 
#    0.000    0.000    0.000    0.000    0.000    0.000 
#
# Total GULP energy -793510.756546 kJ/mol
# GULP energy per Si atom -12398.605571 kJ/mol
# Density = 1.730067 g / cm^3
# Si number density = 17.340138 Si / 1000 Ang^3
#
#
#
# Elastic Constant Matrix: (Units=GPa)
#
#
# Indices 1 2 3 4 5 6 
#
# 1 77.6975 37.5168 46.6357 0.0000 0.0000 0.0000
# 2 37.5168 104.5715 35.3655 0.0000 0.0000 0.0000
# 3 46.6357 35.3655 77.2781 0.0000 0.0000 0.0000
# 4 0.0000 0.0000 0.0000 25.8766 0.0000 0.0000
# 5 0.0000 0.0000 0.0000 0.0000 18.7868 0.0000
# 6 0.0000 0.0000 0.0000 0.0000 0.0000 19.8299
#
#
#
# Elastic Compliance Matrix: (Units=1/GPa)
#
#
# Indices 1 2 3 4 5 6 
#
# 1 0.021462 -0.003927 -0.011155 0.000000 0.000000 0.000000
# 2 -0.003927 0.012033 -0.003136 0.000000 0.000000 0.000000
# 3 -0.011155 -0.003136 0.021107 0.000000 0.000000 0.000000
# 4 0.000000 0.000000 0.000000 0.038645 0.000000 0.000000
# 5 0.000000 0.000000 0.000000 0.000000 0.053229 0.000000
# 6 0.000000 0.000000 0.000000 0.000000 0.000000 0.050429
#
#
# Mechanical properties :
#
#
# Convention : Reuss Voigt Hill
#
# Bulk Modulus (GPa) = 55.05117 55.39812 55.22464
# Shear Modulus (GPa) = 20.88587 22.23394 21.55990
#
# Velocity S-wave (km/s) = 3.47433 3.58470 3.52995
# Velocity P-wave (km/s) = 6.92180 7.01076 6.96642
#
# Compressibility (1/GPa) = 0.01816492
#
# Stress axis : x y z
#
# Youngs Moduli (GPa) = 46.59396 83.10748 47.37728
#
# Poissons Ratio (x) = 0.32640 0.52847
# Poissons Ratio (y) = 0.18300 0.14860
# Poissons Ratio (z) = 0.51973 0.26066
#
# Static dielectric constant tensor:
#      x y z
#    x 3.117890 0.000000 0.000000 
#    y 0.000000 3.415740 0.000000 
#    z 0.000000 0.000000 3.158130 
# 
# 
# High freq. dielectric constant tensor:
#      x y z
#    x 1.651060 0.000000 0.000000 
#    y 0.000000 1.682900 0.000000 
#    z 0.000000 0.000000 1.661000 
# 
# From -- ./inp_files/33762.got.cif
#   From: 2010.03.12/outbox.cif.g09.slc.cpg/sg64_17_cif.got.tgz:33762.got - 2010.04.10 20:19:32.
