data_PCOD8262266
_publ_section_title
;
Structure prediction by ZEFSAII (Michael W. Deem and Ramdas Pophale) SiO2 
 PCOD8262266
Probable space group: C M C A
;
_chemical_formula_sum "Si O2"
_cell_formula_units_Z 72
_cell_length_a 20.019840
_cell_length_b 9.418079
_cell_length_c 18.466364
_cell_angle_alpha 90.000000
_cell_angle_beta 90.000000
_cell_angle_gamma 90.000000
_cell_volume 3481.804027
_symmetry_space_group_name_H-M "C M C A"
_symmetry_group_IT_number 64
_symmetry_cell_setting 'orthorhombic'
loop_
_space_group_symop_operation_xyz
x,y,z
-x,1/2-y,1/2+z
x,-y,-z
-x,1/2+y,1/2-z
-x,-y,-z
x,1/2+y,1/2-z
-x,y,z
x,1/2-y,1/2+z
1/2+x,1/2+y,z
1/2-x,-y,1/2+z
1/2+x,1/2-y,-z
1/2-x,y,1/2-z
1/2-x,1/2-y,-z
1/2+x,y,1/2-z
1/2-x,1/2+y,z
1/2+x,-y,1/2+z
loop_
_atom_site_type_symbol
_atom_site_label
_atom_site_fract_x
_atom_site_fract_y
_atom_site_fract_z
Si Si1 0.247726 0.831812 0.913306
Si Si2 0.209438 0.425076 0.178667
Si Si3 0.387073 0.796414 0.975338
Si Si4 0.425727 0.046903 0.880422
Si Si5 0.859313 0.500000 0.500000
O O1 0.229917 0.674666 0.887728
O O2 0.305685 0.817950 0.974710
O O3 0.273958 0.914009 0.842535
O O4 0.183900 0.918867 0.939983
O O5 0.250000 0.380847 0.250000
O O6 0.127832 0.418441 0.183544
O O7 0.418855 0.884929 0.909486
O O8 0.415046 0.848577 0.051743
O O9 0.403604 0.627670 0.964519
O O10 0.500000 0.068772 0.848501
#
# Coordination Sequence:
#
# PCOD8262266 Si02
#       5
#    16  16  16  16   8
#     4  11  20  34  55  91 124 147 196 259 308 343
#     4  11  22  37  60  86 117 160 207 252 291 350
#     4  10  19  32  58  89 123 154 189 245 306 360
#     4  10  21  39  59  85 120 162 198 237 304 374
#     4  12  18  30  55  92 125 148 188 258 312 340
#
# _framework density 20.678934000000002
#
# number of rings (size 3 to 8) (size 9 to 14) (size 15 to 20)
#    0.000    1.333    4.444    5.333    0.000    0.000 
#    0.000    2.222    0.000   13.333    0.000    0.000 
#    0.000    0.000    0.000    0.000    0.000    0.000 
#
# Total GULP energy -446134.862103 kJ/mol
# GULP energy per Si atom -12392.635058 kJ/mol
# Density = 2.063187 g / cm^3
# Si number density = 20.678934 Si / 1000 Ang^3
#
#
#
# Elastic Constant Matrix: (Units=GPa)
#
#
# Indices 1 2 3 4 5 6 
#
# 1 142.7033 21.6887 41.6397 0.0000 0.0000 0.0000
# 2 21.6887 138.3057 19.0838 0.0000 0.0000 0.0000
# 3 41.6397 19.0838 68.8477 0.0000 0.0000 0.0000
# 4 0.0000 0.0000 0.0000 19.1253 0.0000 0.0000
# 5 0.0000 0.0000 0.0000 0.0000 20.4908 0.0000
# 6 0.0000 0.0000 0.0000 0.0000 0.0000 15.5783
#
#
#
# Elastic Compliance Matrix: (Units=1/GPa)
#
#
# Indices 1 2 3 4 5 6 
#
# 1 0.008566 -0.000653 -0.004999 0.000000 0.000000 0.000000
# 2 -0.000653 0.007568 -0.001703 0.000000 0.000000 0.000000
# 3 -0.004999 -0.001703 0.018020 0.000000 0.000000 0.000000
# 4 0.000000 0.000000 0.000000 0.052287 0.000000 0.000000
# 5 0.000000 0.000000 0.000000 0.000000 0.048802 0.000000
# 6 0.000000 0.000000 0.000000 0.000000 0.000000 0.064192
#
#
# Mechanical properties :
#
#
# Convention : Reuss Voigt Hill
#
# Bulk Modulus (GPa) = 51.43217 57.18681 54.30949
# Shear Modulus (GPa) = 22.66274 28.86852 25.76563
#
# Velocity S-wave (km/s) = 3.31408 3.74041 3.53368
# Velocity P-wave (km/s) = 6.29046 6.80947 6.55511
#
# Compressibility (1/GPa) = 0.01944308
#
# Stress axis : x y z
#
# Youngs Moduli (GPa) = 116.74534 132.13976 55.49256
#
# Poissons Ratio (x) = 0.08634 0.27743
# Poissons Ratio (y) = 0.07628 0.09448
# Poissons Ratio (z) = 0.58366 0.22497
#
# Static dielectric constant tensor:
#      x y z
#    x 3.788830 0.000000 0.000000 
#    y 0.000000 4.326920 0.000000 
#    z 0.000000 0.000000 3.197380 
# 
# 
# High freq. dielectric constant tensor:
#      x y z
#    x 1.791920 0.000000 0.000000 
#    y 0.000000 1.830700 0.000000 
#    z 0.000000 0.000000 1.757270 
# 
# From -- ./inp_files/40701.got.cif
#   From: 2010.03.12/outbox.cif.g09.slc.cpg/sg64_21_cif.got.tgz:40701.got - 2010.04.10 20:19:32.
