data_PCOD8262059
_publ_section_title
;
Structure prediction by ZEFSAII (Michael W. Deem and Ramdas Pophale) SiO2 
 PCOD8262059
Probable space group: C M C A
;
_chemical_formula_sum "Si O2"
_cell_formula_units_Z 96
_cell_length_a 9.290062
_cell_length_b 23.558929
_cell_length_c 26.103532
_cell_angle_alpha 90.000000
_cell_angle_beta 90.000000
_cell_angle_gamma 90.000000
_cell_volume 5713.121106
_symmetry_space_group_name_H-M "C M C A"
_symmetry_group_IT_number 64
_symmetry_cell_setting 'orthorhombic'
loop_
_space_group_symop_operation_xyz
x,y,z
-x,1/2-y,1/2+z
x,-y,-z
-x,1/2+y,1/2-z
-x,-y,-z
x,1/2+y,1/2-z
-x,y,z
x,1/2-y,1/2+z
1/2+x,1/2+y,z
1/2-x,-y,1/2+z
1/2+x,1/2-y,-z
1/2-x,y,1/2-z
1/2-x,1/2-y,-z
1/2+x,y,1/2-z
1/2-x,1/2+y,z
1/2+x,-y,1/2+z
loop_
_atom_site_type_symbol
_atom_site_label
_atom_site_fract_x
_atom_site_fract_y
_atom_site_fract_z
Si Si1 0.668677 0.727314 0.549716
Si Si2 0.829987 0.412749 0.696753
Si Si3 0.830163 0.401057 0.066751
Si Si4 0.836276 0.423308 0.531089
Si Si5 0.161695 0.011090 0.879769
Si Si6 0.331643 0.833516 0.609903
O O1 0.500000 0.729042 0.536720
O O2 0.750000 0.750000 0.500000
O O3 0.718760 0.664765 0.566345
O O4 0.704004 0.767639 0.598951
O O5 0.750000 0.412487 0.750000
O O6 0.786746 0.469676 0.665820
O O7 0.774082 0.357472 0.664324
O O8 0.000000 0.410412 0.706462
O O9 0.763875 0.433401 0.116306
O O10 0.000000 0.407462 0.068614
O O11 0.768180 0.431985 0.016741
O O12 0.832497 0.478668 0.566212
O O13 0.770880 0.369935 0.562390
O O14 0.000000 0.412267 0.511813
O O15 0.000000 0.032008 0.868684
O O16 0.500000 0.847005 0.610594
#
# Coordination Sequence:
#
# PCOD8262059 Si02
#       6
#    16  16  16  16  16  16
#     4  10  19  31  47  68  97 134 169 198 232 281
#     4   9  18  34  56  77  92 115 155 203 252 295
#     4  11  21  28  41  70 102 129 160 198 241 274
#     4   9  16  29  48  65  88 130 170 192 222 281
#     4   9  19  33  48  67  92 127 166 192 229 296
#     4   8  15  30  50  69  93 126 162 195 233 286
#
# _framework density 16.803425000000001
#
# number of rings (size 3 to 8) (size 9 to 14) (size 15 to 20)
#    0.000    2.667    1.667    3.000    0.000    4.000 
#    0.000    3.333    0.000    1.000    0.000    4.667 
#    0.000    0.000    0.000    0.000    0.000    0.000 
#
# Total GULP energy -594867.369637 kJ/mol
# GULP energy per Si atom -12393.070201 kJ/mol
# Density = 1.676518 g / cm^3
# Si number density = 16.803425 Si / 1000 Ang^3
#
#
#
# Elastic Constant Matrix: (Units=GPa)
#
#
# Indices 1 2 3 4 5 6 
#
# 1 51.8309 40.3598 38.0821 0.0000 0.0000 0.0000
# 2 40.3598 104.2611 53.9029 0.0000 0.0000 0.0000
# 3 38.0821 53.9029 102.5929 0.0000 0.0000 0.0000
# 4 0.0000 0.0000 0.0000 15.8200 0.0000 0.0000
# 5 0.0000 0.0000 0.0000 0.0000 26.7537 0.0000
# 6 0.0000 0.0000 0.0000 0.0000 0.0000 21.8101
#
#
#
# Elastic Compliance Matrix: (Units=1/GPa)
#
#
# Indices 1 2 3 4 5 6 
#
# 1 0.031016 -0.008312 -0.007146 0.000000 0.000000 0.000000
# 2 -0.008312 0.015396 -0.005004 0.000000 0.000000 0.000000
# 3 -0.007146 -0.005004 0.015029 0.000000 0.000000 0.000000
# 4 0.000000 0.000000 0.000000 0.063211 0.000000 0.000000
# 5 0.000000 0.000000 0.000000 0.000000 0.037378 0.000000
# 6 0.000000 0.000000 0.000000 0.000000 0.000000 0.045850
#
#
# Mechanical properties :
#
#
# Convention : Reuss Voigt Hill
#
# Bulk Modulus (GPa) = 48.73865 58.15273 53.44569
# Shear Modulus (GPa) = 19.55853 21.29943 20.42898
#
# Velocity S-wave (km/s) = 3.41539 3.56415 3.49056
# Velocity P-wave (km/s) = 6.67992 7.18473 6.93692
#
# Compressibility (1/GPa) = 0.02051760
#
# Stress axis : x y z
#
# Youngs Moduli (GPa) = 32.24104 64.95268 66.53925
#
# Poissons Ratio (x) = 0.53989 0.47548
# Poissons Ratio (y) = 0.26799 0.33294
# Poissons Ratio (z) = 0.23039 0.32500
#
# Static dielectric constant tensor:
#      x y z
#    x 2.976810 0.000000 0.000000 
#    y 0.000000 3.384530 0.000000 
#    z 0.000000 0.000000 2.958660 
# 
# 
# High freq. dielectric constant tensor:
#      x y z
#    x 1.629920 0.000000 0.000000 
#    y 0.000000 1.653240 0.000000 
#    z 0.000000 0.000000 1.616960 
# 
# From -- ./inp_files/48359.got.cif
#   From: 2010.03.12/outbox.cif.g09.slc.cpg/sg64_25_cif.got.tgz:48359.got - 2010.04.10 20:19:32.
