data_PCOD8262819
_publ_section_title
;
Structure prediction by ZEFSAII (Michael W. Deem and Ramdas Pophale) SiO2 
 PCOD8262819
Probable space group: C M C A
;
_chemical_formula_sum "Si O2"
_cell_formula_units_Z 104
_cell_length_a 13.312176
_cell_length_b 28.211085
_cell_length_c 14.983750
_cell_angle_alpha 90.000000
_cell_angle_beta 90.000000
_cell_angle_gamma 90.000000
_cell_volume 5627.161227
_symmetry_space_group_name_H-M "C M C A"
_symmetry_group_IT_number 64
_symmetry_cell_setting 'orthorhombic'
loop_
_space_group_symop_operation_xyz
x,y,z
-x,1/2-y,1/2+z
x,-y,-z
-x,1/2+y,1/2-z
-x,-y,-z
x,1/2+y,1/2-z
-x,y,z
x,1/2-y,1/2+z
1/2+x,1/2+y,z
1/2-x,-y,1/2+z
1/2+x,1/2-y,-z
1/2-x,y,1/2-z
1/2-x,1/2-y,-z
1/2+x,y,1/2-z
1/2-x,1/2+y,z
1/2+x,-y,1/2+z
loop_
_atom_site_type_symbol
_atom_site_label
_atom_site_fract_x
_atom_site_fract_y
_atom_site_fract_z
Si Si1 0.612917 0.271020 0.632618
Si Si2 0.768943 0.319308 0.349272
Si Si3 0.117113 0.904124 0.094692
Si Si4 0.250000 0.167834 0.250000
Si Si5 0.719834 0.599381 0.089187
Si Si6 0.388073 0.006215 0.395633
Si Si7 0.387053 0.351611 0.490539
O O1 0.500000 0.255821 0.659900
O O2 0.677221 0.225083 0.602893
O O3 0.659811 0.299212 0.716097
O O4 0.610852 0.303969 0.546862
O O5 0.750000 0.301202 0.250000
O O6 0.843948 0.363515 0.340440
O O7 0.669458 0.337531 0.399544
O O8 0.000000 0.907265 0.099777
O O9 0.157333 0.954909 0.132951
O O10 0.144408 0.890517 0.992393
O O11 0.295680 0.135906 0.329768
O O12 0.694439 0.546791 0.127424
O O13 0.831513 0.606182 0.046421
O O14 0.500000 0.017661 0.354493
O O15 0.403239 0.000000 0.500000
O O16 0.500000 0.369163 0.468666
#
# Coordination Sequence:
#
# PCOD8262819 Si02
#       7
#    16  16  16   8  16  16  16
#     4  10  20  36  53  73 105 139 176 216 262 312
#     4  11  21  35  54  77 104 138 175 218 265 311
#     4   9  18  33  54  80 105 135 176 218 259 309
#     4  10  20  34  48  80 108 134 172 218 262 316
#     4   9  17  31  54  76 105 138 169 213 259 315
#     4   8  14  28  52  79 103 129 168 216 261 304
#     4   9  20  36  54  74 104 143 176 215 259 313
#
# _framework density 18.481788000000002
#
# number of rings (size 3 to 8) (size 9 to 14) (size 15 to 20)
#    0.000    2.615    0.769    2.308    0.000    2.462 
#    1.385    0.000    0.000   11.538    0.000    0.000 
#    0.000    0.000    0.000    0.000    0.000    0.000 
#
# Total GULP energy -644272.642549 kJ/mol
# GULP energy per Si atom -12389.858511 kJ/mol
# Density = 1.843972 g / cm^3
# Si number density = 18.481788 Si / 1000 Ang^3
#
#
#
# Elastic Constant Matrix: (Units=GPa)
#
#
# Indices 1 2 3 4 5 6 
#
# 1 92.6955 62.9239 24.2894 0.0000 0.0000 0.0000
# 2 62.9239 123.4202 15.9894 0.0000 0.0000 0.0000
# 3 24.2894 15.9894 48.5579 0.0000 0.0000 0.0000
# 4 0.0000 0.0000 0.0000 14.0411 0.0000 0.0000
# 5 0.0000 0.0000 0.0000 0.0000 16.5282 0.0000
# 6 0.0000 0.0000 0.0000 0.0000 0.0000 20.4558
#
#
#
# Elastic Compliance Matrix: (Units=1/GPa)
#
#
# Indices 1 2 3 4 5 6 
#
# 1 0.018178 -0.008450 -0.006310 0.000000 0.000000 0.000000
# 2 -0.008450 0.012392 0.000146 0.000000 0.000000 0.000000
# 3 -0.006310 0.000146 0.023702 0.000000 0.000000 0.000000
# 4 0.000000 0.000000 0.000000 0.071219 0.000000 0.000000
# 5 0.000000 0.000000 0.000000 0.000000 0.060503 0.000000
# 6 0.000000 0.000000 0.000000 0.000000 0.000000 0.048886
#
#
# Mechanical properties :
#
#
# Convention : Reuss Voigt Hill
#
# Bulk Modulus (GPa) = 39.93012 52.34211 46.13612
# Shear Modulus (GPa) = 18.35168 20.96976 19.66072
#
# Velocity S-wave (km/s) = 3.15455 3.37206 3.26512
# Velocity P-wave (km/s) = 5.90933 6.59875 6.26353
#
# Compressibility (1/GPa) = 0.02504375
#
# Stress axis : x y z
#
# Youngs Moduli (GPa) = 55.01276 80.70008 42.19021
#
# Poissons Ratio (x) = 0.68192 0.26623
# Poissons Ratio (y) = 0.46486 -0.00618
# Poissons Ratio (z) = 0.34714 -0.01182
#
# Static dielectric constant tensor:
#      x y z
#    x 3.592950 0.000000 0.000000 
#    y 0.000000 4.104460 0.000000 
#    z 0.000000 0.000000 3.118960 
# 
# 
# High freq. dielectric constant tensor:
#      x y z
#    x 1.709640 0.000000 0.000000 
#    y 0.000000 1.725520 0.000000 
#    z 0.000000 0.000000 1.688800 
# 
# From -- ./inp_files/22715.got.cif
#   From: 2010.03.12/outbox.cif.g09.slc.cpg/sg64_12_cif.got.tgz:22715.got - 2010.04.10 20:19:32.
