data_PCOD8262414
_publ_section_title
;
Structure prediction by ZEFSAII (Michael W. Deem and Ramdas Pophale) SiO2 
 PCOD8262414
Probable space group: C M C A
;
_chemical_formula_sum "Si O2"
_cell_formula_units_Z 96
_cell_length_a 10.980626
_cell_length_b 18.990448
_cell_length_c 24.100022
_cell_angle_alpha 90.000000
_cell_angle_beta 90.000000
_cell_angle_gamma 90.000000
_cell_volume 5025.505458
_symmetry_space_group_name_H-M "C M C A"
_symmetry_group_IT_number 64
_symmetry_cell_setting 'orthorhombic'
loop_
_space_group_symop_operation_xyz
x,y,z
-x,1/2-y,1/2+z
x,-y,-z
-x,1/2+y,1/2-z
-x,-y,-z
x,1/2+y,1/2-z
-x,y,z
x,1/2-y,1/2+z
1/2+x,1/2+y,z
1/2-x,-y,1/2+z
1/2+x,1/2-y,-z
1/2-x,y,1/2-z
1/2-x,1/2-y,-z
1/2+x,y,1/2-z
1/2-x,1/2+y,z
1/2+x,-y,1/2+z
loop_
_atom_site_type_symbol
_atom_site_label
_atom_site_fract_x
_atom_site_fract_y
_atom_site_fract_z
Si Si1 0.863137 0.087432 0.784629
Si Si2 0.756560 0.072250 0.100018
Si Si3 0.000000 0.465303 0.910096
Si Si4 0.500000 0.898657 0.030614
Si Si5 0.864679 0.422566 0.716327
Si Si6 0.754752 0.832762 0.494819
Si Si7 0.362341 0.926733 0.409911
O O1 0.750000 0.121948 0.750000
O O2 0.828442 0.100738 0.848641
O O3 0.000000 0.118645 0.770961
O O4 0.867865 0.005026 0.771078
O O5 0.617466 0.064561 0.122274
O O6 0.843841 0.091018 0.150936
O O7 0.786068 0.996086 0.072519
O O8 0.766694 0.133509 0.055010
O O9 0.000000 0.550260 0.915451
O O10 0.000000 0.439569 0.973075
O O11 0.617499 0.849958 0.033733
O O12 0.750000 0.388113 0.750000
O O13 0.000000 0.391102 0.731360
O O14 0.750000 0.750000 0.500000
O O15 0.653248 0.863229 0.453257
O O16 0.500000 0.952791 0.410075
#
# Coordination Sequence:
#
# PCOD8262414 Si02
#       7
#    16  16   8   8  16  16  16
#     4   8  15  30  48  75 107 132 166 214 263 313
#     4  10  19  34  55  78 108 141 180 221 268 321
#     4   9  16  30  56  72 101 139 177 223 258 313
#     4   9  18  36  48  74 102 133 187 219 256 322
#     4   9  18  31  50  80 110 136 174 222 270 323
#     4  11  23  36  52  77 108 145 179 224 270 319
#     4  10  20  34  54  79 107 140 177 218 268 322
#
# _framework density 19.102554999999999
#
# number of rings (size 3 to 8) (size 9 to 14) (size 15 to 20)
#    0.000    2.500    1.667    2.000    2.333    2.000 
#    6.000    0.000    0.000    1.000    0.000    2.333 
#    0.000    0.000    0.000    0.000    0.000    0.000 
#
# Total GULP energy -594837.111414 kJ/mol
# GULP energy per Si atom -12392.439821 kJ/mol
# Density = 1.905908 g / cm^3
# Si number density = 19.102555 Si / 1000 Ang^3
#
#
#
# Elastic Constant Matrix: (Units=GPa)
#
#
# Indices 1 2 3 4 5 6 
#
# 1 133.2910 24.3913 50.7188 0.0000 0.0000 0.0000
# 2 24.3913 82.2238 34.5301 0.0000 0.0000 0.0000
# 3 50.7188 34.5301 65.4889 0.0000 0.0000 0.0000
# 4 0.0000 0.0000 0.0000 5.5219 0.0000 0.0000
# 5 0.0000 0.0000 0.0000 0.0000 30.9404 0.0000
# 6 0.0000 0.0000 0.0000 0.0000 0.0000 8.7643
#
#
#
# Elastic Compliance Matrix: (Units=1/GPa)
#
#
# Indices 1 2 3 4 5 6 
#
# 1 0.010647 0.000391 -0.008452 0.000000 0.000000 0.000000
# 2 0.000391 0.015635 -0.008547 0.000000 0.000000 0.000000
# 3 -0.008452 -0.008547 0.026322 0.000000 0.000000 0.000000
# 4 0.000000 0.000000 0.000000 0.181098 0.000000 0.000000
# 5 0.000000 0.000000 0.000000 0.000000 0.032320 0.000000
# 6 0.000000 0.000000 0.000000 0.000000 0.000000 0.114100
#
#
# Mechanical properties :
#
#
# Convention : Reuss Voigt Hill
#
# Bulk Modulus (GPa) = 51.57615 55.58711 53.58163
# Shear Modulus (GPa) = 11.91044 20.46954 16.18999
#
# Velocity S-wave (km/s) = 2.49971 3.27702 2.91440
# Velocity P-wave (km/s) = 5.94892 6.59401 6.27975
#
# Compressibility (1/GPa) = 0.01938881
#
# Stress axis : x y z
#
# Youngs Moduli (GPa) = 93.92480 63.95847 37.99147
#
# Poissons Ratio (x) = -0.02501 0.32109
# Poissons Ratio (y) = -0.03672 0.32470
# Poissons Ratio (z) = 0.79383 0.54663
#
# Static dielectric constant tensor:
#      x y z
#    x 4.087040 0.000000 0.000000 
#    y 0.000000 2.893290 0.000000 
#    z 0.000000 0.000000 3.370010 
# 
# 
# High freq. dielectric constant tensor:
#      x y z
#    x 1.769670 0.000000 0.000000 
#    y 0.000000 1.671750 0.000000 
#    z 0.000000 0.000000 1.733020 
# 
# From -- ./inp_files/44255.got.cif
#   From: 2010.03.12/outbox.cif.g09.slc.cpg/sg64_23_cif.got.tgz:44255.got - 2010.04.10 20:19:32.
