data_PCOD8262462
_publ_section_title
;
Structure prediction by ZEFSAII (Michael W. Deem and Ramdas Pophale) SiO2 
 PCOD8262462
Probable space group: C M C A
;
_chemical_formula_sum "Si O2"
_cell_formula_units_Z 112
_cell_length_a 16.276568
_cell_length_b 22.708450
_cell_length_c 16.296809
_cell_angle_alpha 90.000000
_cell_angle_beta 90.000000
_cell_angle_gamma 90.000000
_cell_volume 6023.555335
_symmetry_space_group_name_H-M "C M C A"
_symmetry_group_IT_number 64
_symmetry_cell_setting 'orthorhombic'
loop_
_space_group_symop_operation_xyz
x,y,z
-x,1/2-y,1/2+z
x,-y,-z
-x,1/2+y,1/2-z
-x,-y,-z
x,1/2+y,1/2-z
-x,y,z
x,1/2-y,1/2+z
1/2+x,1/2+y,z
1/2-x,-y,1/2+z
1/2+x,1/2-y,-z
1/2-x,y,1/2-z
1/2-x,1/2-y,-z
1/2+x,y,1/2-z
1/2-x,1/2+y,z
1/2+x,-y,1/2+z
loop_
_atom_site_type_symbol
_atom_site_label
_atom_site_fract_x
_atom_site_fract_y
_atom_site_fract_z
Si Si1 0.826391 0.155059 0.417617
Si Si2 0.091119 0.985329 0.827130
Si Si3 0.091307 0.138391 0.251187
Si Si4 0.671290 0.936882 0.203773
Si Si5 0.251820 0.971567 0.915244
Si Si6 0.097968 0.334299 0.095413
Si Si7 0.703555 0.268525 0.829748
O O1 0.894298 0.149403 0.347179
O O2 0.770429 0.097229 0.418735
O O3 0.874930 0.163616 0.501524
O O4 0.768506 0.211912 0.399885
O O5 0.101847 0.930208 0.766713
O O6 0.154369 0.980592 0.902317
O O7 0.000000 0.988585 0.865207
O O8 0.105966 0.043823 0.772772
O O9 0.156290 0.172674 0.196234
O O10 0.000000 0.160559 0.229439
O O11 0.750000 0.907803 0.250000
O O12 0.629124 0.892311 0.141391
O O13 0.699838 0.996109 0.157501
O O14 0.279703 0.000000 0.000000
O O15 0.138932 0.278069 0.137117
O O16 0.000000 0.329374 0.102000
O O17 0.750000 0.241876 0.750000
#
# Coordination Sequence:
#
# PCOD8262462 Si02
#       7
#    16  16  16  16  16  16  16
#     4  11  21  37  57  87 112 150 188 237 284 339
#     4  10  20  34  57  84 113 147 189 240 278 325
#     4  10  19  34  58  87 111 139 188 243 281 320
#     4  10  21  36  59  84 118 151 191 222 281 348
#     4  11  20  36  57  84 115 148 192 231 282 344
#     4  12  24  39  56  84 121 154 185 232 290 340
#     4  10  22  39  63  81 109 148 202 230 276 334
#
# _framework density 18.593668999999998
#
# number of rings (size 3 to 8) (size 9 to 14) (size 15 to 20)
#    0.000    1.429    4.286    2.143    0.000    0.286 
#    0.000    0.714    0.000    0.000    0.000    0.000 
#    0.000    0.000    0.000    0.000    0.000    0.000 
#
# Total GULP energy -694420.550376 kJ/mol
# GULP energy per Si atom -12400.366971 kJ/mol
# Density = 1.855135 g / cm^3
# Si number density = 18.593669 Si / 1000 Ang^3
#
#
#
# Elastic Constant Matrix: (Units=GPa)
#
#
# Indices 1 2 3 4 5 6 
#
# 1 99.3975 32.9302 25.0883 0.0000 0.0000 0.0000
# 2 32.9302 69.2689 21.7354 0.0000 0.0000 0.0000
# 3 25.0883 21.7354 69.5503 0.0000 0.0000 0.0000
# 4 0.0000 0.0000 0.0000 25.1041 0.0000 0.0000
# 5 0.0000 0.0000 0.0000 0.0000 27.4017 0.0000
# 6 0.0000 0.0000 0.0000 0.0000 0.0000 24.9717
#
#
#
# Elastic Compliance Matrix: (Units=1/GPa)
#
#
# Indices 1 2 3 4 5 6 
#
# 1 0.012458 -0.005003 -0.002930 0.000000 0.000000 0.000000
# 2 -0.005003 0.018015 -0.003825 0.000000 0.000000 0.000000
# 3 -0.002930 -0.003825 0.016631 0.000000 0.000000 0.000000
# 4 0.000000 0.000000 0.000000 0.039834 0.000000 0.000000
# 5 0.000000 0.000000 0.000000 0.000000 0.036494 0.000000
# 6 0.000000 0.000000 0.000000 0.000000 0.000000 0.040045
#
#
# Mechanical properties :
#
#
# Convention : Reuss Voigt Hill
#
# Bulk Modulus (GPa) = 42.39727 44.19161 43.29444
# Shear Modulus (GPa) = 25.65996 26.05969 25.85982
#
# Velocity S-wave (km/s) = 3.71892 3.74777 3.73337
# Velocity P-wave (km/s) = 6.42588 6.52275 6.47450
#
# Compressibility (1/GPa) = 0.02358642
#
# Stress axis : x y z
#
# Youngs Moduli (GPa) = 80.27182 55.50880 60.13022
#
# Poissons Ratio (x) = 0.27770 0.17620
# Poissons Ratio (y) = 0.40159 0.23002
# Poissons Ratio (z) = 0.23522 0.21234
#
# Static dielectric constant tensor:
#      x y z
#    x 3.519950 0.000000 0.000000 
#    y 0.000000 3.258050 0.000000 
#    z 0.000000 0.000000 3.414890 
# 
# 
# High freq. dielectric constant tensor:
#      x y z
#    x 1.729620 0.000000 0.000000 
#    y 0.000000 1.714070 0.000000 
#    z 0.000000 0.000000 1.720460 
# 
# From -- ./inp_files/24204.got.cif
#   From: 2010.03.12/outbox.cif.g09.slc.cpg/sg64_13_cif.got.tgz:24204.got - 2010.04.10 20:19:32.
