data_PCOD8262674
_publ_section_title
;
Structure prediction by ZEFSAII (Michael W. Deem and Ramdas Pophale) SiO2 
 PCOD8262674
Probable space group: C M C A
;
_chemical_formula_sum "Si O2"
_cell_formula_units_Z 104
_cell_length_a 13.849990
_cell_length_b 16.760572
_cell_length_c 22.471297
_cell_angle_alpha 90.000000
_cell_angle_beta 90.000000
_cell_angle_gamma 90.000000
_cell_volume 5216.346543
_symmetry_space_group_name_H-M "C M C A"
_symmetry_group_IT_number 64
_symmetry_cell_setting 'orthorhombic'
loop_
_space_group_symop_operation_xyz
x,y,z
-x,1/2-y,1/2+z
x,-y,-z
-x,1/2+y,1/2-z
-x,-y,-z
x,1/2+y,1/2-z
-x,y,z
x,1/2-y,1/2+z
1/2+x,1/2+y,z
1/2-x,-y,1/2+z
1/2+x,1/2-y,-z
1/2-x,y,1/2-z
1/2-x,1/2-y,-z
1/2+x,y,1/2-z
1/2-x,1/2+y,z
1/2+x,-y,1/2+z
loop_
_atom_site_type_symbol
_atom_site_label
_atom_site_fract_x
_atom_site_fract_y
_atom_site_fract_z
Si Si1 0.887941 0.475049 0.797949
Si Si2 0.608133 0.110495 0.408501
Si Si3 0.387502 0.208653 0.219464
Si Si4 0.216204 0.919314 0.389060
Si Si5 0.105930 0.033980 0.826522
Si Si6 0.300550 0.248915 0.843803
Si Si7 0.717314 0.500000 0.000000
O O1 0.860602 0.384059 0.785427
O O2 0.831577 0.506618 0.854908
O O3 0.857403 0.529012 0.741473
O O4 0.000000 0.483878 0.811336
O O5 0.500000 0.139710 0.425502
O O6 0.677225 0.184932 0.393798
O O7 0.650370 0.059448 0.462694
O O8 0.602668 0.056666 0.349670
O O9 0.500000 0.225726 0.203033
O O10 0.368343 0.238813 0.286381
O O11 0.313184 0.252240 0.174306
O O12 0.326293 0.910947 0.366392
O O13 0.167943 0.834385 0.375250
O O14 0.214943 0.944287 0.458344
O O15 0.000000 0.073277 0.829289
#
# Coordination Sequence:
#
# PCOD8262674 Si02
#       7
#    16  16  16  16  16  16   8
#     4  10  20  36  60  85 114 157 198 233 284 361
#     4  10  19  38  64  91 118 150 198 251 298 347
#     4  10  21  37  56  87 126 160 188 227 295 371
#     4  11  24  38  57  87 120 155 202 245 296 349
#     4   9  18  33  58  87 116 152 193 237 289 353
#     4  11  23  35  58  91 123 155 188 245 308 357
#     4  10  23  42  63  80 110 164 211 256 287 344
#
# _framework density 19.937325000000001
#
# number of rings (size 3 to 8) (size 9 to 14) (size 15 to 20)
#    0.000    1.846    1.538    3.000    6.462    3.077 
#    0.000    0.385    0.000    2.769    0.000    0.000 
#    0.000    0.000    0.000    0.000    0.000    0.000 
#
# Total GULP energy -644671.901143 kJ/mol
# GULP energy per Si atom -12397.536560 kJ/mol
# Density = 1.989195 g / cm^3
# Si number density = 19.937325 Si / 1000 Ang^3
#
#
#
# Elastic Constant Matrix: (Units=GPa)
#
#
# Indices 1 2 3 4 5 6 
#
# 1 64.2512 29.4254 40.7711 0.0000 0.0000 0.0000
# 2 29.4254 105.4870 47.4823 0.0000 0.0000 0.0000
# 3 40.7711 47.4823 116.0238 0.0000 0.0000 0.0000
# 4 0.0000 0.0000 0.0000 27.8604 0.0000 0.0000
# 5 0.0000 0.0000 0.0000 0.0000 18.7779 0.0000
# 6 0.0000 0.0000 0.0000 0.0000 0.0000 14.1629
#
#
#
# Elastic Compliance Matrix: (Units=1/GPa)
#
#
# Indices 1 2 3 4 5 6 
#
# 1 0.020817 -0.003082 -0.006054 0.000000 0.000000 0.000000
# 2 -0.003082 0.012077 -0.003859 0.000000 0.000000 0.000000
# 3 -0.006054 -0.003859 0.012326 0.000000 0.000000 0.000000
# 4 0.000000 0.000000 0.000000 0.035893 0.000000 0.000000
# 5 0.000000 0.000000 0.000000 0.000000 0.053254 0.000000
# 6 0.000000 0.000000 0.000000 0.000000 0.000000 0.070607
#
#
# Mechanical properties :
#
#
# Convention : Reuss Voigt Hill
#
# Bulk Modulus (GPa) = 52.00450 57.90216 54.95333
# Shear Modulus (GPa) = 21.06387 23.36579 22.21483
#
# Velocity S-wave (km/s) = 3.25392 3.42711 3.34163
# Velocity P-wave (km/s) = 6.34491 6.69068 6.52009
#
# Compressibility (1/GPa) = 0.01922910
#
# Stress axis : x y z
#
# Youngs Moduli (GPa) = 48.03805 82.80392 81.13117
#
# Poissons Ratio (x) = 0.25519 0.49116
# Poissons Ratio (y) = 0.14804 0.31312
# Poissons Ratio (z) = 0.29082 0.31957
#
# Static dielectric constant tensor:
#      x y z
#    x 3.731670 0.000000 0.000000 
#    y 0.000000 3.491120 0.000000 
#    z 0.000000 0.000000 3.477720 
# 
# 
# High freq. dielectric constant tensor:
#      x y z
#    x 1.780640 0.000000 0.000000 
#    y 0.000000 1.771330 0.000000 
#    z 0.000000 0.000000 1.755190 
# 
# From -- ./inp_files/45251.got.cif
#   From: 2010.03.12/outbox.cif.g09.slc.cpg/sg64_23_cif.got.tgz:45251.got - 2010.04.10 20:19:32.
