data_PCOD8262598
_publ_section_title
;
Structure prediction by ZEFSAII (Michael W. Deem and Ramdas Pophale) SiO2 
 PCOD8262598
Probable space group: C M C A
;
_chemical_formula_sum "Si O2"
_cell_formula_units_Z 80
_cell_length_a 8.532922
_cell_length_b 28.968889
_cell_length_c 15.660857
_cell_angle_alpha 90.000000
_cell_angle_beta 90.000000
_cell_angle_gamma 90.000000
_cell_volume 3871.195814
_symmetry_space_group_name_H-M "C M C A"
_symmetry_group_IT_number 64
_symmetry_cell_setting 'orthorhombic'
loop_
_space_group_symop_operation_xyz
x,y,z
-x,1/2-y,1/2+z
x,-y,-z
-x,1/2+y,1/2-z
-x,-y,-z
x,1/2+y,1/2-z
-x,y,z
x,1/2-y,1/2+z
1/2+x,1/2+y,z
1/2-x,-y,1/2+z
1/2+x,1/2-y,-z
1/2-x,y,1/2-z
1/2-x,1/2-y,-z
1/2+x,y,1/2-z
1/2-x,1/2+y,z
1/2+x,-y,1/2+z
loop_
_atom_site_type_symbol
_atom_site_label
_atom_site_fract_x
_atom_site_fract_y
_atom_site_fract_z
Si Si1 0.185090 0.642062 0.660938
Si Si2 0.685569 0.801059 0.499967
Si Si3 0.814098 0.139880 0.161642
Si Si4 0.316988 0.949945 0.911633
Si Si5 0.816654 0.955356 0.096484
O O1 0.250000 0.661763 0.750000
O O2 0.253155 0.672521 0.583109
O O3 0.239212 0.588991 0.650279
O O4 0.000000 0.645646 0.660394
O O5 0.500000 0.799806 0.497722
O O6 0.750000 0.750000 0.500000
O O7 0.743662 0.827408 0.584793
O O8 0.750000 0.161541 0.250000
O O9 0.736014 0.089576 0.153165
O O10 0.000000 0.135105 0.163388
O O11 0.500000 0.946365 0.932350
O O12 0.279393 0.000100 0.870602
O O13 0.216997 0.944574 0.997604
O O14 0.000000 0.964829 0.107586
#
# Coordination Sequence:
#
# PCOD8262598 Si02
#       5
#    16  16  16  16  16
#     4  10  22  40  62  90 122 159 201 245 297 357
#     4  10  23  44  66  89 120 156 198 249 309 366
#     4  11  23  42  64  90 124 161 204 251 304 365
#     4  11  21  34  57  91 124 160 208 251 297 360
#     4  10  19  36  59  84 123 168 205 249 302 354
#
# _framework density 20.665448999999999
#
# number of rings (size 3 to 8) (size 9 to 14) (size 15 to 20)
#    0.000    1.600    2.000    4.200    0.000    5.600 
#    0.000    6.000    0.000    0.000    0.000    0.000 
#    0.000    0.000    0.000    0.000    0.000    0.000 
#
# Total GULP energy -496117.866004 kJ/mol
# GULP energy per Si atom -12402.946650 kJ/mol
# Density = 2.061841 g / cm^3
# Si number density = 20.665449 Si / 1000 Ang^3
#
#
#
# Elastic Constant Matrix: (Units=GPa)
#
#
# Indices 1 2 3 4 5 6 
#
# 1 50.1812 35.5934 23.0197 0.0000 0.0000 0.0000
# 2 35.5934 140.4154 80.6394 0.0000 0.0000 0.0000
# 3 23.0197 80.6394 156.0456 0.0000 0.0000 0.0000
# 4 0.0000 0.0000 0.0000 14.8800 0.0000 0.0000
# 5 0.0000 0.0000 0.0000 0.0000 31.3575 0.0000
# 6 0.0000 0.0000 0.0000 0.0000 0.0000 34.0411
#
#
#
# Elastic Compliance Matrix: (Units=1/GPa)
#
#
# Indices 1 2 3 4 5 6 
#
# 1 0.024332 -0.005839 -0.000572 0.000000 0.000000 0.000000
# 2 -0.005839 0.011529 -0.005096 0.000000 0.000000 0.000000
# 3 -0.000572 -0.005096 0.009126 0.000000 0.000000 0.000000
# 4 0.000000 0.000000 0.000000 0.067204 0.000000 0.000000
# 5 0.000000 0.000000 0.000000 0.000000 0.031890 0.000000
# 6 0.000000 0.000000 0.000000 0.000000 0.000000 0.029376
#
#
# Mechanical properties :
#
#
# Convention : Reuss Voigt Hill
#
# Bulk Modulus (GPa) = 45.51237 69.46079 57.48658
# Shear Modulus (GPa) = 24.53424 29.88170 27.20797
#
# Velocity S-wave (km/s) = 3.44933 3.80672 3.63242
# Velocity P-wave (km/s) = 6.15914 7.28056 6.74320
#
# Compressibility (1/GPa) = 0.02197205
#
# Stress axis : x y z
#
# Youngs Moduli (GPa) = 41.09814 86.74037 109.57346
#
# Poissons Ratio (x) = 0.50652 0.06265
# Poissons Ratio (y) = 0.23999 0.55841
# Poissons Ratio (z) = 0.02350 0.44205
#
# Static dielectric constant tensor:
#      x y z
#    x 3.557100 0.000000 0.000000 
#    y 0.000000 -6.798150 0.000000 
#    z 0.000000 0.000000 3.919590 
# 
# 
# High freq. dielectric constant tensor:
#      x y z
#    x 1.803200 0.000000 0.000000 
#    y 0.000000 1.808600 0.000000 
#    z 0.000000 0.000000 1.807710 
# 
# From -- ./inp_files/29991.got.cif
#   From: 2010.03.12/outbox.cif.g09.slc.cpg/sg64_15_cif.got.tgz:29991.got - 2010.04.10 20:19:32.
