data_PCOD8262213
_publ_section_title
;
Structure prediction by ZEFSAII (Michael W. Deem and Ramdas Pophale) SiO2 
 PCOD8262213
Probable space group: C M C A
;
_chemical_formula_sum "Si O2"
_cell_formula_units_Z 112
_cell_length_a 15.584797
_cell_length_b 23.982255
_cell_length_c 15.340101
_cell_angle_alpha 90.000000
_cell_angle_beta 90.000000
_cell_angle_gamma 90.000000
_cell_volume 5733.494302
_symmetry_space_group_name_H-M "C M C A"
_symmetry_group_IT_number 64
_symmetry_cell_setting 'orthorhombic'
loop_
_space_group_symop_operation_xyz
x,y,z
-x,1/2-y,1/2+z
x,-y,-z
-x,1/2+y,1/2-z
-x,-y,-z
x,1/2+y,1/2-z
-x,y,z
x,1/2-y,1/2+z
1/2+x,1/2+y,z
1/2-x,-y,1/2+z
1/2+x,1/2-y,-z
1/2-x,y,1/2-z
1/2-x,1/2-y,-z
1/2+x,y,1/2-z
1/2-x,1/2+y,z
1/2+x,-y,1/2+z
loop_
_atom_site_type_symbol
_atom_site_label
_atom_site_fract_x
_atom_site_fract_y
_atom_site_fract_z
Si Si1 0.747935 0.458258 0.564247
Si Si2 0.097558 0.005065 0.326674
Si Si3 0.162378 0.402630 0.711114
Si Si4 0.597204 0.193347 0.404182
Si Si5 0.677888 0.701304 0.682889
Si Si6 0.599949 0.898544 0.289088
Si Si7 0.291701 0.859429 0.450150
O O1 0.797682 0.500000 0.500000
O O2 0.658327 0.489186 0.588902
O O3 0.807244 0.452184 0.647868
O O4 0.738418 0.399052 0.515618
O O5 0.127611 0.954027 0.264229
O O6 0.000000 0.994955 0.357229
O O7 0.103907 0.065738 0.281009
O O8 0.250000 0.375018 0.750000
O O9 0.105226 0.357524 0.663028
O O10 0.500000 0.198746 0.435437
O O11 0.621137 0.247929 0.349967
O O12 0.651118 0.182690 0.491891
O O13 0.750000 0.723168 0.750000
O O14 0.619064 0.655143 0.729410
O O15 0.720751 0.676652 0.597121
O O16 0.500000 0.900506 0.312769
O O17 0.652140 0.894274 0.379863
#
# Coordination Sequence:
#
# PCOD8262213 Si02
#       7
#    16  16  16  16  16  16  16
#     4  10  19  32  52  77 104 137 176 216 264 321
#     4  10  20  34  53  78 110 142 176 222 270 321
#     4   9  19  34  53  75 102 138 177 216 265 325
#     4  11  21  35  55  79 108 138 176 227 278 322
#     4  10  21  37  58  79 106 145 187 225 269 330
#     4  10  20  36  58  84 111 143 186 231 278 327
#     4  10  21  36  55  79 109 143 180 224 273 329
#
# _framework density 19.534334999999999
#
# number of rings (size 3 to 8) (size 9 to 14) (size 15 to 20)
#    0.000    2.000    0.000    3.857    0.000    4.286 
#    0.000    1.429    0.000    6.857    0.000    0.000 
#    0.000    0.000    0.000    0.000    0.000    0.000 
#
# Total GULP energy -694193.052920 kJ/mol
# GULP energy per Si atom -12396.304516 kJ/mol
# Density = 1.948987 g / cm^3
# Si number density = 19.534335 Si / 1000 Ang^3
#
#
#
# Elastic Constant Matrix: (Units=GPa)
#
#
# Indices 1 2 3 4 5 6 
#
# 1 67.3913 23.2863 15.8450 0.0000 0.0000 0.0000
# 2 23.2863 67.8620 19.3892 0.0000 0.0000 0.0000
# 3 15.8450 19.3892 76.7583 0.0000 0.0000 0.0000
# 4 0.0000 0.0000 0.0000 31.8623 0.0000 0.0000
# 5 0.0000 0.0000 0.0000 0.0000 18.7033 0.0000
# 6 0.0000 0.0000 0.0000 0.0000 0.0000 22.7922
#
#
#
# Elastic Compliance Matrix: (Units=1/GPa)
#
#
# Indices 1 2 3 4 5 6 
#
# 1 0.017178 -0.005261 -0.002217 0.000000 0.000000 0.000000
# 2 -0.005261 0.017493 -0.003333 0.000000 0.000000 0.000000
# 3 -0.002217 -0.003333 0.014327 0.000000 0.000000 0.000000
# 4 0.000000 0.000000 0.000000 0.031385 0.000000 0.000000
# 5 0.000000 0.000000 0.000000 0.000000 0.053466 0.000000
# 6 0.000000 0.000000 0.000000 0.000000 0.000000 0.043875
#
#
# Mechanical properties :
#
#
# Convention : Reuss Voigt Hill
#
# Bulk Modulus (GPa) = 36.52719 36.56143 36.54431
# Shear Modulus (GPa) = 23.98402 24.90430 24.44416
#
# Velocity S-wave (km/s) = 3.50778 3.57445 3.54127
# Velocity P-wave (km/s) = 5.92837 5.98270 5.95560
#
# Compressibility (1/GPa) = 0.02737686
#
# Stress axis : x y z
#
# Youngs Moduli (GPa) = 58.21448 57.16474 69.79619
#
# Poissons Ratio (x) = 0.30074 0.15474
# Poissons Ratio (y) = 0.30627 0.23262
# Poissons Ratio (z) = 0.12906 0.19052
#
# Static dielectric constant tensor:
#      x y z
#    x 3.410140 0.000000 0.000000 
#    y 0.000000 3.535620 0.000000 
#    z 0.000000 0.000000 3.717870 
# 
# 
# High freq. dielectric constant tensor:
#      x y z
#    x 1.749470 0.000000 0.000000 
#    y 0.000000 1.760900 0.000000 
#    z 0.000000 0.000000 1.771970 
# 
# From -- ./inp_files/24267.got.cif
#   From: 2010.03.12/outbox.cif.g09.slc.cpg/sg64_13_cif.got.tgz:24267.got - 2010.04.10 20:19:32.
