data_PCOD8262794
_publ_section_title
;
Structure prediction by ZEFSAII (Michael W. Deem and Ramdas Pophale) SiO2 
 PCOD8262794
Probable space group: C M C A
;
_chemical_formula_sum "Si O2"
_cell_formula_units_Z 80
_cell_length_a 8.706730
_cell_length_b 19.602088
_cell_length_c 25.478495
_cell_angle_alpha 90.000000
_cell_angle_beta 90.000000
_cell_angle_gamma 90.000000
_cell_volume 4348.416975
_symmetry_space_group_name_H-M "C M C A"
_symmetry_group_IT_number 64
_symmetry_cell_setting 'orthorhombic'
loop_
_space_group_symop_operation_xyz
x,y,z
-x,1/2-y,1/2+z
x,-y,-z
-x,1/2+y,1/2-z
-x,-y,-z
x,1/2+y,1/2-z
-x,y,z
x,1/2-y,1/2+z
1/2+x,1/2+y,z
1/2-x,-y,1/2+z
1/2+x,1/2-y,-z
1/2-x,y,1/2-z
1/2-x,1/2-y,-z
1/2+x,y,1/2-z
1/2-x,1/2+y,z
1/2+x,-y,1/2+z
loop_
_atom_site_type_symbol
_atom_site_label
_atom_site_fract_x
_atom_site_fract_y
_atom_site_fract_z
Si Si1 0.321828 0.067604 0.607913
Si Si2 0.319185 0.678128 0.194400
Si Si3 0.830969 0.919336 0.495709
Si Si4 0.180575 0.921356 0.611374
Si Si5 0.180824 0.822165 0.194605
O O1 0.500000 0.048211 0.610330
O O2 0.285154 0.101114 0.550873
O O3 0.274996 0.121778 0.651827
O O4 0.221546 0.000678 0.618011
O O5 0.500000 0.684889 0.200338
O O6 0.250000 0.655227 0.250000
O O7 0.279009 0.621310 0.152097
O O8 0.251067 0.750429 0.176226
O O9 0.775330 0.893525 0.553027
O O10 0.000000 0.889447 0.482701
O O11 0.842273 0.000000 0.500000
O O12 0.000000 0.912414 0.621980
O O13 0.250000 0.846043 0.250000
O O14 0.000000 0.813103 0.200569
#
# Coordination Sequence:
#
# PCOD8262794 Si02
#       5
#    16  16  16  16  16
#     4  10  20  33  53  81 109 137 174 218 260 308
#     4  11  22  37  57  78 103 137 175 214 261 313
#     4   8  16  31  51  75 104 139 173 210 260 309
#     4  10  20  35  55  79 108 139 174 216 259 307
#     4  10  21  37  55  76 104 138 174 213 260 310
#
# _framework density 18.397499
#
# number of rings (size 3 to 8) (size 9 to 14) (size 15 to 20)
#    0.000    2.200    0.000    6.000    0.000    8.400 
#    0.000    3.000    0.000    0.000    0.000    0.000 
#    0.000    0.000    0.000    0.000    0.000    0.000 
#
# Total GULP energy -495949.718627 kJ/mol
# GULP energy per Si atom -12398.742966 kJ/mol
# Density = 1.835563 g / cm^3
# Si number density = 18.397499 Si / 1000 Ang^3
#
#
#
# Elastic Constant Matrix: (Units=GPa)
#
#
# Indices 1 2 3 4 5 6 
#
# 1 89.7189 33.9672 48.5717 0.0000 0.0000 0.0000
# 2 33.9672 66.3869 63.2395 0.0000 0.0000 0.0000
# 3 48.5717 63.2395 130.3989 0.0000 0.0000 0.0000
# 4 0.0000 0.0000 0.0000 -11.0947 0.0000 0.0000
# 5 0.0000 0.0000 0.0000 0.0000 35.3907 0.0000
# 6 0.0000 0.0000 0.0000 0.0000 0.0000 28.4639
#
#
#
# Elastic Compliance Matrix: (Units=1/GPa)
#
#
# Indices 1 2 3 4 5 6 
#
# 1 0.014579 -0.004250 -0.003370 0.000000 0.000000 0.000000
# 2 -0.004250 0.029236 -0.012596 0.000000 0.000000 0.000000
# 3 -0.003370 -0.012596 0.015032 0.000000 0.000000 0.000000
# 4 0.000000 0.000000 0.000000 -0.090134 0.000000 0.000000
# 5 0.000000 0.000000 0.000000 0.000000 0.028256 0.000000
# 6 0.000000 0.000000 0.000000 0.000000 0.000000 0.035132
#
#
# Mechanical properties :
#
#
# Convention : Reuss Voigt Hill
#
# Bulk Modulus (GPa) = 54.29532 64.22904 59.26218
# Shear Modulus (GPa) = 63.55563 19.93374 41.74468
#
# Velocity S-wave (km/s) = 5.88394 3.29523 4.76861
# Velocity P-wave (km/s) = 8.70273 7.03318 7.91212
#
# Compressibility (1/GPa) = 0.01841779
#
# Stress axis : x y z
#
# Youngs Moduli (GPa) = 68.59181 34.20427 66.52297
#
# Poissons Ratio (x) = 0.14536 0.22415
# Poissons Ratio (y) = 0.29149 0.83790
# Poissons Ratio (z) = 0.23112 0.43083
#
# Static dielectric constant tensor:
#      x y z
#    x 3.465810 0.000000 0.000000 
#    y 0.000000 3.119850 0.000000 
#    z 0.000000 0.000000 3.779010 
# 
# 
# High freq. dielectric constant tensor:
#      x y z
#    x 1.725970 0.000000 0.000000 
#    y 0.000000 1.684970 0.000000 
#    z 0.000000 0.000000 1.726820 
# 
# From -- ./inp_files/47824.got.cif
#   From: 2010.03.12/outbox.cif.g09.slc.cpg/sg64_24_cif.got.tgz:47824.got - 2010.04.10 20:19:32.
