data_PCOD8262415
_publ_section_title
;
Structure prediction by ZEFSAII (Michael W. Deem and Ramdas Pophale) SiO2 
 PCOD8262415
Probable space group: C M C A
;
_chemical_formula_sum "Si O2"
_cell_formula_units_Z 72
_cell_length_a 10.711846
_cell_length_b 20.782996
_cell_length_c 16.042333
_cell_angle_alpha 90.000000
_cell_angle_beta 90.000000
_cell_angle_gamma 90.000000
_cell_volume 3571.412394
_symmetry_space_group_name_H-M "C M C A"
_symmetry_group_IT_number 64
_symmetry_cell_setting 'orthorhombic'
loop_
_space_group_symop_operation_xyz
x,y,z
-x,1/2-y,1/2+z
x,-y,-z
-x,1/2+y,1/2-z
-x,-y,-z
x,1/2+y,1/2-z
-x,y,z
x,1/2-y,1/2+z
1/2+x,1/2+y,z
1/2-x,-y,1/2+z
1/2+x,1/2-y,-z
1/2-x,y,1/2-z
1/2-x,1/2-y,-z
1/2+x,y,1/2-z
1/2-x,1/2+y,z
1/2+x,-y,1/2+z
loop_
_atom_site_type_symbol
_atom_site_label
_atom_site_fract_x
_atom_site_fract_y
_atom_site_fract_z
Si Si1 0.137386 0.234890 0.398965
Si Si2 0.359488 0.068380 0.370927
Si Si3 0.250000 0.161853 0.250000
Si Si4 0.743690 0.144634 0.525494
Si Si5 0.140097 0.475633 0.093244
O O1 0.217272 0.209975 0.323098
O O2 0.157602 0.191114 0.480419
O O3 0.156487 0.310044 0.418471
O O4 0.000000 0.224515 0.366946
O O5 0.500000 0.038095 0.373838
O O6 0.355347 0.115756 0.290959
O O7 0.338098 0.105272 0.458364
O O8 0.248188 0.015796 0.358722
O O9 0.817881 0.098600 0.589347
O O10 0.000000 0.482205 0.134553
O O11 0.129824 0.500000 0.000000
#
# Coordination Sequence:
#
# PCOD8262415 Si02
#       5
#    16  16   8  16  16
#     4  10  19  34  55  78 110 146 179 221 269 322
#     4  10  20  34  55  82 109 139 182 231 272 318
#     4  10  22  36  52  76 108 148 184 218 270 332
#     4   9  19  33  55  84 108 138 181 225 272 321
#     4   9  18  33  54  79 107 138 171 213 268 324
#
# _framework density 20.160091000000001
#
# number of rings (size 3 to 8) (size 9 to 14) (size 15 to 20)
#    0.000    2.444    0.000    2.000    0.000   11.111 
#    0.000    4.444    0.000    0.000    0.000    0.000 
#    0.000    0.000    0.000    0.000    0.000    0.000 
#
# Total GULP energy -445997.451397 kJ/mol
# GULP energy per Si atom -12388.818094 kJ/mol
# Density = 2.011421 g / cm^3
# Si number density = 20.160091 Si / 1000 Ang^3
#
#
#
# Elastic Constant Matrix: (Units=GPa)
#
#
# Indices 1 2 3 4 5 6 
#
# 1 138.8031 40.4912 13.4369 0.0000 0.0000 0.0000
# 2 40.4912 108.6003 23.9071 0.0000 0.0000 0.0000
# 3 13.4369 23.9071 51.0683 0.0000 0.0000 0.0000
# 4 0.0000 0.0000 0.0000 21.9298 0.0000 0.0000
# 5 0.0000 0.0000 0.0000 0.0000 8.5417 0.0000
# 6 0.0000 0.0000 0.0000 0.0000 0.0000 22.6877
#
#
#
# Elastic Compliance Matrix: (Units=1/GPa)
#
#
# Indices 1 2 3 4 5 6 
#
# 1 0.008113 -0.002849 -0.000801 0.000000 0.000000 0.000000
# 2 -0.002849 0.011266 -0.004525 0.000000 0.000000 0.000000
# 3 -0.000801 -0.004525 0.021911 0.000000 0.000000 0.000000
# 4 0.000000 0.000000 0.000000 0.045600 0.000000 0.000000
# 5 0.000000 0.000000 0.000000 0.000000 0.117073 0.000000
# 6 0.000000 0.000000 0.000000 0.000000 0.000000 0.044077
#
#
# Mechanical properties :
#
#
# Convention : Reuss Voigt Hill
#
# Bulk Modulus (GPa) = 40.09449 50.46024 45.27737
# Shear Modulus (GPa) = 18.33505 25.34092 21.83798
#
# Velocity S-wave (km/s) = 3.01902 3.54924 3.29481
# Velocity P-wave (km/s) = 5.66426 6.47150 6.08129
#
# Compressibility (1/GPa) = 0.02494108
#
# Stress axis : x y z
#
# Youngs Moduli (GPa) = 123.25939 88.76117 45.64007
#
# Poissons Ratio (x) = 0.25284 0.03656
# Poissons Ratio (y) = 0.35111 0.20650
# Poissons Ratio (z) = 0.09875 0.40161
#
# Static dielectric constant tensor:
#      x y z
#    x 3.773570 0.000000 0.000000 
#    y 0.000000 3.832870 0.000000 
#    z 0.000000 0.000000 3.451700 
# 
# 
# High freq. dielectric constant tensor:
#      x y z
#    x 1.784720 0.000000 0.000000 
#    y 0.000000 1.787700 0.000000 
#    z 0.000000 0.000000 1.757740 
# 
# From -- ./inp_files/29499.got.cif
#   From: 2010.03.12/outbox.cif.g09.slc.cpg/sg64_15_cif.got.tgz:29499.got - 2010.04.10 20:19:32.
