data_PCOD8262699
_publ_section_title
;
Structure prediction by ZEFSAII (Michael W. Deem and Ramdas Pophale) SiO2 
 PCOD8262699
Probable space group: C M C A
;
_chemical_formula_sum "Si O2"
_cell_formula_units_Z 56
_cell_length_a 27.030171
_cell_length_b 18.219055
_cell_length_c 5.078581
_cell_angle_alpha 90.000000
_cell_angle_beta 90.000000
_cell_angle_gamma 90.000000
_cell_volume 2501.019188
_symmetry_space_group_name_H-M "C M C A"
_symmetry_group_IT_number 64
_symmetry_cell_setting 'orthorhombic'
loop_
_space_group_symop_operation_xyz
x,y,z
-x,1/2-y,1/2+z
x,-y,-z
-x,1/2+y,1/2-z
-x,-y,-z
x,1/2+y,1/2-z
-x,y,z
x,1/2-y,1/2+z
1/2+x,1/2+y,z
1/2-x,-y,1/2+z
1/2+x,1/2-y,-z
1/2-x,y,1/2-z
1/2-x,1/2-y,-z
1/2+x,y,1/2-z
1/2-x,1/2+y,z
1/2+x,-y,1/2+z
loop_
_atom_site_type_symbol
_atom_site_label
_atom_site_fract_x
_atom_site_fract_y
_atom_site_fract_z
Si Si1 0.303274 0.551175 0.749922
Si Si2 0.098371 0.413990 0.064082
Si Si3 0.557347 0.203050 0.276298
Si Si4 0.000000 0.551027 0.747207
O O1 0.299519 0.500000 0.500000
O O2 0.250000 0.593889 0.750000
O O3 0.350169 0.606547 0.713416
O O4 0.312951 0.500000 0.000000
O O5 0.091627 0.367092 0.796309
O O6 0.049764 0.398462 0.250044
O O7 0.100433 0.500000 0.000000
O O8 0.500000 0.178353 0.255260
O O9 0.570167 0.266650 0.063675
O O10 0.000000 0.500000 0.500000
O O11 0.000000 0.500000 0.000000
#
# Coordination Sequence:
#
# PCOD8262699 Si02
#       4
#    16  16  16   8
#     4   9  18  32  51  78 109 138 173 221 274 319
#     4  10  20  36  57  83 108 141 183 228 266 317
#     4  10  22  38  53  75 110 149 179 214 270 330
#     4  10  20  30  46  78 108 128 163 220 265 298
#
# _framework density 22.390874
#
# number of rings (size 3 to 8) (size 9 to 14) (size 15 to 20)
#    0.000    2.286    1.429    0.857    0.000    9.143 
#    0.000    0.000    0.000    1.714    0.000    0.000 
#    0.000    0.000    0.000    0.000    0.000    0.000 
#
# Total GULP energy -346921.548580 kJ/mol
# GULP energy per Si atom -12390.055306 kJ/mol
# Density = 2.233991 g / cm^3
# Si number density = 22.390874 Si / 1000 Ang^3
#
#
#
# Elastic Constant Matrix: (Units=GPa)
#
#
# Indices 1 2 3 4 5 6 
#
# 1 196.9473 -1.4767 -4.4773 0.0000 0.0000 0.0000
# 2 -1.4767 55.8232 -16.3930 0.0000 0.0000 0.0000
# 3 -4.4773 -16.3930 70.4315 0.0000 0.0000 0.0000
# 4 0.0000 0.0000 0.0000 13.6996 0.0000 0.0000
# 5 0.0000 0.0000 0.0000 0.0000 23.3463 0.0000
# 6 0.0000 0.0000 0.0000 0.0000 0.0000 8.1411
#
#
#
# Elastic Compliance Matrix: (Units=1/GPa)
#
#
# Indices 1 2 3 4 5 6 
#
# 1 0.005088 0.000246 0.000381 0.000000 0.000000 0.000000
# 2 0.000246 0.019240 0.004494 0.000000 0.000000 0.000000
# 3 0.000381 0.004494 0.015268 0.000000 0.000000 0.000000
# 4 0.000000 0.000000 0.000000 0.072995 0.000000 0.000000
# 5 0.000000 0.000000 0.000000 0.000000 0.042833 0.000000
# 6 0.000000 0.000000 0.000000 0.000000 0.000000 0.122833
#
#
# Mechanical properties :
#
#
# Convention : Reuss Voigt Hill
#
# Bulk Modulus (GPa) = 20.06497 30.94534 25.50515
# Shear Modulus (GPa) = 17.56678 32.07401 24.82039
#
# Velocity S-wave (km/s) = 2.80402 3.78889 3.33303
# Velocity P-wave (km/s) = 4.41181 5.74382 5.12130
#
# Compressibility (1/GPa) = 0.04983811
#
# Stress axis : x y z
#
# Youngs Moduli (GPa) = 196.54071 51.97545 65.49510
#
# Poissons Ratio (x) = -0.01281 -0.02494
# Poissons Ratio (y) = -0.04843 -0.29432
# Poissons Ratio (z) = -0.07484 -0.23356
#
# Static dielectric constant tensor:
#      x y z
#    x 9.130330 0.000000 0.000000 
#    y 0.000000 3.633890 0.000000 
#    z 0.000000 0.000000 4.092480 
# 
# 
# High freq. dielectric constant tensor:
#      x y z
#    x 1.884840 0.000000 0.000000 
#    y 0.000000 1.833830 0.000000 
#    z 0.000000 0.000000 1.897560 
# 
# From -- ./inp_files/2697.got.cif
#   From: 2010.03.12/outbox.cif.g09.slc.cpg/sg64_2_cif.got.tgz:2697.got - 2010.04.10 20:19:32.
