data_PCOD8262345
_publ_section_title
;
Structure prediction by ZEFSAII (Michael W. Deem and Ramdas Pophale) SiO2 
 PCOD8262345
Probable space group: C M C A
;
_chemical_formula_sum "Si O2"
_cell_formula_units_Z 96
_cell_length_a 8.915743
_cell_length_b 20.634647
_cell_length_c 28.164662
_cell_angle_alpha 90.000000
_cell_angle_beta 90.000000
_cell_angle_gamma 90.000000
_cell_volume 5181.543264
_symmetry_space_group_name_H-M "C M C A"
_symmetry_group_IT_number 64
_symmetry_cell_setting 'orthorhombic'
loop_
_space_group_symop_operation_xyz
x,y,z
-x,1/2-y,1/2+z
x,-y,-z
-x,1/2+y,1/2-z
-x,-y,-z
x,1/2+y,1/2-z
-x,y,z
x,1/2-y,1/2+z
1/2+x,1/2+y,z
1/2-x,-y,1/2+z
1/2+x,1/2-y,-z
1/2-x,y,1/2-z
1/2-x,1/2-y,-z
1/2+x,y,1/2-z
1/2-x,1/2+y,z
1/2+x,-y,1/2+z
loop_
_atom_site_type_symbol
_atom_site_label
_atom_site_fract_x
_atom_site_fract_y
_atom_site_fract_z
Si Si1 0.822212 0.254029 0.448568
Si Si2 0.323356 0.923895 0.200956
Si Si3 0.175737 0.073324 0.297920
Si Si4 0.822135 0.128386 0.394981
Si Si5 0.323430 0.882377 0.392828
Si Si6 0.828852 0.500939 0.944054
O O1 0.750000 0.250000 0.500000
O O2 0.758219 0.194540 0.417026
O O3 0.772480 0.319214 0.422003
O O4 0.000000 0.249850 0.454655
O O5 0.500000 0.913442 0.204170
O O6 0.250000 0.899719 0.250000
O O7 0.257849 0.881410 0.158050
O O8 0.280036 0.998853 0.191493
O O9 0.250000 0.099450 0.250000
O O10 0.235330 0.117885 0.341075
O O11 0.000000 0.079569 0.291341
O O12 0.000000 0.130834 0.395153
O O13 0.767120 0.067997 0.426398
O O14 0.500000 0.883186 0.383954
O O15 0.277056 0.943937 0.423644
O O16 0.000000 0.513101 0.926400
O O17 0.819434 0.500000 0.000000
#
# Coordination Sequence:
#
# PCOD8262345 Si02
#       6
#    16  16  16  16  16  16
#     4  10  22  39  58  78 108 148 187 227 274 328
#     4  10  19  34  57  84 112 144 184 226 274 328
#     4   9  17  31  53  79 106 134 173 219 268 317
#     4   9  17  34  55  77 104 140 182 224 268 320
#     4  11  22  35  53  82 116 147 180 225 282 333
#     4  10  19  33  56  80 102 138 188 234 276 325
#
# _framework density 18.5273
#
# number of rings (size 3 to 8) (size 9 to 14) (size 15 to 20)
#    0.000    2.167    1.667    2.000    0.000    3.667 
#    0.000    2.500    0.000    2.000    0.000    0.000 
#    0.000    0.000    0.000    0.000    0.000    0.000 
#
# Total GULP energy -595255.963106 kJ/mol
# GULP energy per Si atom -12401.165898 kJ/mol
# Density = 1.848513 g / cm^3
# Si number density = 18.527300 Si / 1000 Ang^3
#
#
#
# Elastic Constant Matrix: (Units=GPa)
#
#
# Indices 1 2 3 4 5 6 
#
# 1 46.8555 27.7057 42.9284 0.0000 0.0000 0.0000
# 2 27.7057 112.3417 71.4716 0.0000 0.0000 0.0000
# 3 42.9284 71.4716 164.3111 0.0000 0.0000 0.0000
# 4 0.0000 0.0000 0.0000 35.8362 0.0000 0.0000
# 5 0.0000 0.0000 0.0000 0.0000 35.7939 0.0000
# 6 0.0000 0.0000 0.0000 0.0000 0.0000 21.5869
#
#
#
# Elastic Compliance Matrix: (Units=1/GPa)
#
#
# Indices 1 2 3 4 5 6 
#
# 1 0.028872 -0.003210 -0.006147 0.000000 0.000000 0.000000
# 2 -0.003210 0.012664 -0.004670 0.000000 0.000000 0.000000
# 3 -0.006147 -0.004670 0.009723 0.000000 0.000000 0.000000
# 4 0.000000 0.000000 0.000000 0.027905 0.000000 0.000000
# 5 0.000000 0.000000 0.000000 0.000000 0.027938 0.000000
# 6 0.000000 0.000000 0.000000 0.000000 0.000000 0.046324
#
#
# Mechanical properties :
#
#
# Convention : Reuss Voigt Hill
#
# Bulk Modulus (GPa) = 43.09249 67.52442 55.30846
# Shear Modulus (GPa) = 26.42499 30.73690 28.58095
#
# Velocity S-wave (km/s) = 3.78070 4.07751 3.93191
# Velocity P-wave (km/s) = 6.50905 7.66114 7.10847
#
# Compressibility (1/GPa) = 0.02320590
#
# Stress axis : x y z
#
# Youngs Moduli (GPa) = 34.63575 78.96382 102.84524
#
# Poissons Ratio (x) = 0.25345 0.63219
# Poissons Ratio (y) = 0.11117 0.48029
# Poissons Ratio (z) = 0.21291 0.36876
#
# Static dielectric constant tensor:
#      x y z
#    x 3.227770 0.000000 0.000000 
#    y 0.000000 3.497600 0.000000 
#    z 0.000000 0.000000 3.591230 
# 
# 
# High freq. dielectric constant tensor:
#      x y z
#    x 1.700070 0.000000 0.000000 
#    y 0.000000 1.704830 0.000000 
#    z 0.000000 0.000000 1.738630 
# 
# From -- ./inp_files/48071.got.cif
#   From: 2010.03.12/outbox.cif.g09.slc.cpg/sg64_25_cif.got.tgz:48071.got - 2010.04.10 20:19:32.
