data_PCOD8262778
_publ_section_title
;
Structure prediction by ZEFSAII (Michael W. Deem and Ramdas Pophale) SiO2 
 PCOD8262778
Probable space group: C M C A
;
_chemical_formula_sum "Si O2"
_cell_formula_units_Z 96
_cell_length_a 8.545859
_cell_length_b 23.301499
_cell_length_c 25.595604
_cell_angle_alpha 90.000000
_cell_angle_beta 90.000000
_cell_angle_gamma 90.000000
_cell_volume 5096.886537
_symmetry_space_group_name_H-M "C M C A"
_symmetry_group_IT_number 64
_symmetry_cell_setting 'orthorhombic'
loop_
_space_group_symop_operation_xyz
x,y,z
-x,1/2-y,1/2+z
x,-y,-z
-x,1/2+y,1/2-z
-x,-y,-z
x,1/2+y,1/2-z
-x,y,z
x,1/2-y,1/2+z
1/2+x,1/2+y,z
1/2-x,-y,1/2+z
1/2+x,1/2-y,-z
1/2-x,y,1/2-z
1/2-x,1/2-y,-z
1/2+x,y,1/2-z
1/2-x,1/2+y,z
1/2+x,-y,1/2+z
loop_
_atom_site_type_symbol
_atom_site_label
_atom_site_fract_x
_atom_site_fract_y
_atom_site_fract_z
Si Si1 0.319708 0.364510 0.096277
Si Si2 0.679898 0.254282 0.444150
Si Si3 0.321121 0.643026 0.409087
Si Si4 0.184088 0.819192 0.306213
Si Si5 0.816140 0.933503 0.995033
Si Si6 0.179034 0.304818 0.803879
O O1 0.500000 0.380162 0.103077
O O2 0.292938 0.297858 0.085103
O O3 0.236681 0.369743 0.152959
O O4 0.250762 0.402192 0.047810
O O5 0.500000 0.275154 0.442420
O O6 0.750000 0.250000 0.500000
O O7 0.694762 0.191178 0.421837
O O8 0.500000 0.658029 0.425103
O O9 0.269234 0.586922 0.441612
O O10 0.308061 0.642297 0.345707
O O11 0.250000 0.836730 0.250000
O O12 0.237746 0.754496 0.322223
O O13 0.000000 0.818650 0.304601
O O14 0.000000 0.921322 0.989379
O O15 0.777044 0.000000 0.000000
O O16 0.250000 0.328492 0.750000
O O17 0.000000 0.287656 0.794370
#
# Coordination Sequence:
#
# PCOD8262778 Si02
#       6
#    16  16  16  16  16  16
#     4  11  21  35  55  80 113 146 184 228 274 335
#     4  12  22  32  50  79 113 147 182 221 276 336
#     4  11  22  35  55  81 113 148 184 228 277 330
#     4  11  21  33  52  79 114 151 186 221 272 328
#     4  10  23  41  60  81 107 144 188 234 285 336
#     4  10  20  33  51  78 114 149 184 221 268 325
#
# _framework density 18.835028000000001
#
# number of rings (size 3 to 8) (size 9 to 14) (size 15 to 20)
#    0.000    1.167    3.333    5.500    0.000    3.000 
#    0.000    0.000    0.000    1.000    0.000    2.333 
#    0.000    0.000    0.000    0.000    0.000    0.000 
#
# Total GULP energy -594627.604629 kJ/mol
# GULP energy per Si atom -12388.075096 kJ/mol
# Density = 1.879216 g / cm^3
# Si number density = 18.835028 Si / 1000 Ang^3
#
#
#
# Elastic Constant Matrix: (Units=GPa)
#
#
# Indices 1 2 3 4 5 6 
#
# 1 106.3982 25.1298 49.9360 0.0000 0.0000 0.0000
# 2 25.1298 74.2145 52.3666 0.0000 0.0000 0.0000
# 3 49.9360 52.3666 154.4503 0.0000 0.0000 0.0000
# 4 0.0000 0.0000 0.0000 17.6284 0.0000 0.0000
# 5 0.0000 0.0000 0.0000 0.0000 31.2797 0.0000
# 6 0.0000 0.0000 0.0000 0.0000 0.0000 18.5702
#
#
#
# Elastic Compliance Matrix: (Units=1/GPa)
#
#
# Indices 1 2 3 4 5 6 
#
# 1 0.011228 -0.001631 -0.003077 0.000000 0.000000 0.000000
# 2 -0.001631 0.017949 -0.005558 0.000000 0.000000 0.000000
# 3 -0.003077 -0.005558 0.009354 0.000000 0.000000 0.000000
# 4 0.000000 0.000000 0.000000 0.056727 0.000000 0.000000
# 5 0.000000 0.000000 0.000000 0.000000 0.031970 0.000000
# 6 0.000000 0.000000 0.000000 0.000000 0.000000 0.053850
#
#
# Mechanical properties :
#
#
# Convention : Reuss Voigt Hill
#
# Bulk Modulus (GPa) = 55.56072 65.54753 60.55412
# Shear Modulus (GPa) = 24.08381 27.33772 25.71077
#
# Velocity S-wave (km/s) = 3.57973 3.81390 3.69867
# Velocity P-wave (km/s) = 6.82998 7.36687 7.10350
#
# Compressibility (1/GPa) = 0.01799833
#
# Stress axis : x y z
#
# Youngs Moduli (GPa) = 89.06261 55.71470 106.90516
#
# Poissons Ratio (x) = 0.09084 0.32899
# Poissons Ratio (y) = 0.14522 0.59421
# Poissons Ratio (z) = 0.27408 0.30968
#
# Static dielectric constant tensor:
#      x y z
#    x 3.433480 0.000000 0.000000 
#    y 0.000000 3.048470 0.000000 
#    z 0.000000 0.000000 3.689750 
# 
# 
# High freq. dielectric constant tensor:
#      x y z
#    x 1.742000 0.000000 0.000000 
#    y 0.000000 1.670660 0.000000 
#    z 0.000000 0.000000 1.756280 
# 
# From -- ./inp_files/48380.got.cif
#   From: 2010.03.12/outbox.cif.g09.slc.cpg/sg64_25_cif.got.tgz:48380.got - 2010.04.10 20:19:32.
