data_PCOD8262775
_publ_section_title
;
Structure prediction by ZEFSAII (Michael W. Deem and Ramdas Pophale) SiO2 
 PCOD8262775
Probable space group: C M C A
;
_chemical_formula_sum "Si O2"
_cell_formula_units_Z 96
_cell_length_a 9.017297
_cell_length_b 29.411297
_cell_length_c 20.536984
_cell_angle_alpha 90.000000
_cell_angle_beta 90.000000
_cell_angle_gamma 90.000000
_cell_volume 5446.621746
_symmetry_space_group_name_H-M "C M C A"
_symmetry_group_IT_number 64
_symmetry_cell_setting 'orthorhombic'
loop_
_space_group_symop_operation_xyz
x,y,z
-x,1/2-y,1/2+z
x,-y,-z
-x,1/2+y,1/2-z
-x,-y,-z
x,1/2+y,1/2-z
-x,y,z
x,1/2-y,1/2+z
1/2+x,1/2+y,z
1/2-x,-y,1/2+z
1/2+x,1/2-y,-z
1/2-x,y,1/2-z
1/2-x,1/2-y,-z
1/2+x,y,1/2-z
1/2-x,1/2+y,z
1/2+x,-y,1/2+z
loop_
_atom_site_type_symbol
_atom_site_label
_atom_site_fract_x
_atom_site_fract_y
_atom_site_fract_z
Si Si1 0.334484 0.655664 0.841342
Si Si2 0.832976 0.371893 0.485229
Si Si3 0.674258 0.947732 0.315354
Si Si4 0.825563 0.782402 0.948323
Si Si5 0.326487 0.244319 0.812610
Si Si6 0.826386 0.460790 0.050731
O O1 0.500000 0.669523 0.818191
O O2 0.292261 0.605847 0.815919
O O3 0.215831 0.690989 0.813771
O O4 0.326398 0.656678 0.919008
O O5 0.786477 0.335642 0.540586
O O6 0.720858 0.413879 0.483822
O O7 0.000000 0.390772 0.496067
O O8 0.500000 0.958452 0.314634
O O9 0.750000 0.968295 0.250000
O O10 0.742502 0.969729 0.380891
O O11 0.766787 0.769794 0.876639
O O12 0.000000 0.774053 0.954382
O O13 0.750000 0.750000 0.000000
O O14 0.500000 0.249389 0.805441
O O15 0.250000 0.267576 0.750000
O O16 0.000000 0.459156 0.065873
O O17 0.784496 0.500000 0.000000
#
# Coordination Sequence:
#
# PCOD8262775 Si02
#       6
#    16  16  16  16  16  16
#     4   9  17  30  48  71 101 134 167 205 251 304
#     4   9  18  33  53  76 102 132 171 217 262 312
#     4  10  20  33  51  76 107 140 172 210 259 316
#     4  10  20  34  52  75 101 134 176 216 255 303
#     4  11  22  32  46  69 100 138 175 213 257 302
#     4  10  21  36  55  80 108 136 173 219 265 318
#
# _framework density 17.625605
#
# number of rings (size 3 to 8) (size 9 to 14) (size 15 to 20)
#    0.000    2.167    1.667    3.000    0.000    7.333 
#    0.000    0.000    0.000    1.000    0.000    4.667 
#    0.000    0.000    0.000    0.000    0.000    0.000 
#
# Total GULP energy -595154.320702 kJ/mol
# GULP energy per Si atom -12399.048348 kJ/mol
# Density = 1.758549 g / cm^3
# Si number density = 17.625605 Si / 1000 Ang^3
#
#
#
# Elastic Constant Matrix: (Units=GPa)
#
#
# Indices 1 2 3 4 5 6 
#
# 1 79.5754 34.1341 63.1794 0.0000 0.0000 0.0000
# 2 34.1341 58.5587 55.7980 0.0000 0.0000 0.0000
# 3 63.1794 55.7980 147.6378 0.0000 0.0000 0.0000
# 4 0.0000 0.0000 0.0000 19.5659 0.0000 0.0000
# 5 0.0000 0.0000 0.0000 0.0000 30.4903 0.0000
# 6 0.0000 0.0000 0.0000 0.0000 0.0000 21.5920
#
#
#
# Elastic Compliance Matrix: (Units=1/GPa)
#
#
# Indices 1 2 3 4 5 6 
#
# 1 0.020108 -0.005504 -0.006525 0.000000 0.000000 0.000000
# 2 -0.005504 0.028194 -0.008300 0.000000 0.000000 0.000000
# 3 -0.006525 -0.008300 0.012703 0.000000 0.000000 0.000000
# 4 0.000000 0.000000 0.000000 0.051109 0.000000 0.000000
# 5 0.000000 0.000000 0.000000 0.000000 0.032797 0.000000
# 6 0.000000 0.000000 0.000000 0.000000 0.000000 0.046313
#
#
# Mechanical properties :
#
#
# Convention : Reuss Voigt Hill
#
# Bulk Modulus (GPa) = 49.14808 65.77722 57.46265
# Shear Modulus (GPa) = 20.94985 23.17365 22.06175
#
# Velocity S-wave (km/s) = 3.45135 3.62991 3.54176
# Velocity P-wave (km/s) = 6.62023 7.41407 7.02837
#
# Compressibility (1/GPa) = 0.02034668
#
# Stress axis : x y z
#
# Youngs Moduli (GPa) = 49.73142 35.46835 78.72433
#
# Poissons Ratio (x) = 0.19521 0.51366
# Poissons Ratio (y) = 0.27371 0.65344
# Poissons Ratio (z) = 0.32449 0.29440
#
# Static dielectric constant tensor:
#      x y z
#    x 3.264160 0.000000 0.000000 
#    y 0.000000 2.996810 0.000000 
#    z 0.000000 0.000000 3.546360 
# 
# 
# High freq. dielectric constant tensor:
#      x y z
#    x 1.686810 0.000000 0.000000 
#    y 0.000000 1.643310 0.000000 
#    z 0.000000 0.000000 1.689010 
# 
# From -- ./inp_files/36958.got.cif
#   From: 2010.03.12/outbox.cif.g09.slc.cpg/sg64_19_cif.got.tgz:36958.got - 2010.04.10 20:19:32.
