data_PCOD8262684
_publ_section_title
;
Structure prediction by ZEFSAII (Michael W. Deem and Ramdas Pophale) SiO2 
 PCOD8262684
Probable space group: C M C A
;
_chemical_formula_sum "Si O2"
_cell_formula_units_Z 72
_cell_length_a 9.967217
_cell_length_b 11.648303
_cell_length_c 23.970461
_cell_angle_alpha 90.000000
_cell_angle_beta 90.000000
_cell_angle_gamma 90.000000
_cell_volume 2782.998416
_symmetry_space_group_name_H-M "C M C A"
_symmetry_group_IT_number 64
_symmetry_cell_setting 'orthorhombic'
loop_
_space_group_symop_operation_xyz
x,y,z
-x,1/2-y,1/2+z
x,-y,-z
-x,1/2+y,1/2-z
-x,-y,-z
x,1/2+y,1/2-z
-x,y,z
x,1/2-y,1/2+z
1/2+x,1/2+y,z
1/2-x,-y,1/2+z
1/2+x,1/2-y,-z
1/2-x,y,1/2-z
1/2-x,1/2-y,-z
1/2+x,y,1/2-z
1/2-x,1/2+y,z
1/2+x,-y,1/2+z
loop_
_atom_site_type_symbol
_atom_site_label
_atom_site_fract_x
_atom_site_fract_y
_atom_site_fract_z
Si Si1 0.713019 0.583374 0.076220
Si Si2 0.000000 0.997087 0.422175
Si Si3 0.500000 0.359404 0.309842
Si Si4 0.500000 0.750476 0.528231
Si Si5 0.261475 0.816659 0.688713
Si Si6 0.000000 0.093568 0.931062
Si Si7 0.000000 0.327314 0.313555
O O1 0.870058 0.572554 0.060239
O O2 0.638011 0.698528 0.054879
O O3 0.708050 0.584249 0.143996
O O4 0.633704 0.475082 0.050768
O O5 0.000000 0.961767 0.355871
O O6 0.000000 0.884504 0.461243
O O7 0.370643 0.282180 0.317431
O O8 0.500000 0.400156 0.244565
O O9 0.500000 0.783706 0.462131
O O10 0.250000 0.874137 0.750000
O O11 0.122847 0.756361 0.676469
O O12 0.000000 0.086590 0.864692
#
# Coordination Sequence:
#
# PCOD8262684 Si02
#       7
#    16   8   8   8  16   8   8
#     4  11  23  43  69  99 135 177 234 276 343 416
#     4  12  24  42  75 106 129 184 232 281 352 407
#     4  10  19  39  65  95 140 176 216 283 345 408
#     4  11  26  52  66  94 150 178 225 302 336 394
#     4  10  20  38  65  97 140 176 212 285 347 396
#     4  11  25  45  66  94 136 187 228 283 347 401
#     4  10  22  38  63  99 131 177 227 269 344 417
#
# _framework density 25.871376000000001
#
# number of rings (size 3 to 8) (size 9 to 14) (size 15 to 20)
#    0.000    1.333    2.222    4.000    0.000    2.667 
#    4.000    2.222    0.000    0.000    0.000    0.000 
#    0.000    0.000    0.000    0.000    0.000    0.000 
#
# Total GULP energy -446132.660503 kJ/mol
# GULP energy per Si atom -12392.573903 kJ/mol
# Density = 2.581249 g / cm^3
# Si number density = 25.871376 Si / 1000 Ang^3
#
#
#
# Elastic Constant Matrix: (Units=GPa)
#
#
# Indices 1 2 3 4 5 6 
#
# 1 220.6685 39.3195 29.8947 0.0000 0.0000 0.0000
# 2 39.3195 41.0265 -14.8600 0.0000 0.0000 0.0000
# 3 29.8947 -14.8600 82.4850 0.0000 0.0000 0.0000
# 4 0.0000 0.0000 0.0000 37.3732 0.0000 0.0000
# 5 0.0000 0.0000 0.0000 0.0000 46.5058 0.0000
# 6 0.0000 0.0000 0.0000 0.0000 0.0000 14.9579
#
#
#
# Elastic Compliance Matrix: (Units=1/GPa)
#
#
# Indices 1 2 3 4 5 6 
#
# 1 0.006340 -0.007391 -0.003629 0.000000 0.000000 0.000000
# 2 -0.007391 0.034692 0.008929 0.000000 0.000000 0.000000
# 3 -0.003629 0.008929 0.015047 0.000000 0.000000 0.000000
# 4 0.000000 0.000000 0.000000 0.026757 0.000000 0.000000
# 5 0.000000 0.000000 0.000000 0.000000 0.021503 0.000000
# 6 0.000000 0.000000 0.000000 0.000000 0.000000 0.066854
#
#
# Mechanical properties :
#
#
# Convention : Reuss Voigt Hill
#
# Bulk Modulus (GPa) = 19.26933 50.32094 34.79513
# Shear Modulus (GPa) = 25.95020 39.08909 32.51964
#
# Velocity S-wave (km/s) = 3.17053 3.89125 3.54923
# Velocity P-wave (km/s) = 4.56807 6.29934 5.50223
#
# Compressibility (1/GPa) = 0.05189594
#
# Stress axis : x y z
#
# Youngs Moduli (GPa) = 157.71958 28.82498 66.45685
#
# Poissons Ratio (x) = 0.21305 0.24120
# Poissons Ratio (y) = 1.16573 -0.59337
# Poissons Ratio (z) = 0.57244 -0.25737
#
# Static dielectric constant tensor:
#      x y z
#    x 4.801510 0.000000 0.000000 
#    y 0.000000 4.012080 0.000000 
#    z 0.000000 0.000000 5.207160 
# 
# 
# High freq. dielectric constant tensor:
#      x y z
#    x 2.057620 0.000000 0.000000 
#    y 0.000000 1.995620 0.000000 
#    z 0.000000 0.000000 2.061400 
# 
# From -- ./inp_files/47669.got.cif
#   From: 2010.03.12/outbox.cif.g09.slc.cpg/sg64_24_cif.got.tgz:47669.got - 2010.04.10 20:19:32.
