data_PCOD8262788
_publ_section_title
;
Structure prediction by ZEFSAII (Michael W. Deem and Ramdas Pophale) SiO2 
 PCOD8262788
Probable space group: C M C A
;
_chemical_formula_sum "Si O2"
_cell_formula_units_Z 96
_cell_length_a 8.589987
_cell_length_b 23.935887
_cell_length_c 24.976466
_cell_angle_alpha 90.000000
_cell_angle_beta 90.000000
_cell_angle_gamma 90.000000
_cell_volume 5135.385153
_symmetry_space_group_name_H-M "C M C A"
_symmetry_group_IT_number 64
_symmetry_cell_setting 'orthorhombic'
loop_
_space_group_symop_operation_xyz
x,y,z
-x,1/2-y,1/2+z
x,-y,-z
-x,1/2+y,1/2-z
-x,-y,-z
x,1/2+y,1/2-z
-x,y,z
x,1/2-y,1/2+z
1/2+x,1/2+y,z
1/2-x,-y,1/2+z
1/2+x,1/2-y,-z
1/2-x,y,1/2-z
1/2-x,1/2-y,-z
1/2+x,y,1/2-z
1/2-x,1/2+y,z
1/2+x,-y,1/2+z
loop_
_atom_site_type_symbol
_atom_site_label
_atom_site_fract_x
_atom_site_fract_y
_atom_site_fract_z
Si Si1 0.682088 0.443588 0.807090
Si Si2 0.682967 0.563074 0.691836
Si Si3 0.317881 0.388155 0.092466
Si Si4 0.317225 0.688615 0.500460
Si Si5 0.669540 0.000494 0.059998
Si Si6 0.320804 0.386172 0.911681
O O1 0.500000 0.456919 0.801472
O O2 0.750000 0.425579 0.750000
O O3 0.762803 0.501022 0.828716
O O4 0.711527 0.391109 0.847402
O O5 0.500000 0.565193 0.695705
O O6 0.750000 0.575159 0.750000
O O7 0.742614 0.612143 0.652106
O O8 0.500000 0.377510 0.097047
O O9 0.248792 0.342170 0.052647
O O10 0.279739 0.448398 0.069866
O O11 0.500000 0.690484 0.506663
O O12 0.250000 0.750000 0.500000
O O13 0.278318 0.659982 0.443215
O O14 0.500000 0.999307 0.091789
O O15 0.777468 0.053422 0.067794
O O16 0.615318 0.000000 0.000000
O O17 0.500000 0.372899 0.923932
#
# Coordination Sequence:
#
# PCOD8262788 Si02
#       6
#    16  16  16  16  16  16
#     4  10  20  33  52  81 119 157 194 232 280 339
#     4  11  21  34  54  82 120 158 195 234 282 342
#     4  12  23  37  58  84 117 154 192 236 289 346
#     4  12  26  44  63  85 112 148 194 242 295 348
#     4  11  21  32  51  82 116 151 190 232 285 346
#     4  11  22  36  57  84 117 154 191 236 288 344
#
# _framework density 18.693826999999999
#
# number of rings (size 3 to 8) (size 9 to 14) (size 15 to 20)
#    0.000    0.833    3.333    7.000    0.000    2.667 
#    0.000    0.000    0.000    1.000    0.000    4.667 
#    0.000    0.000    0.000    0.000    0.000    0.000 
#
# Total GULP energy -594861.384747 kJ/mol
# GULP energy per Si atom -12392.945516 kJ/mol
# Density = 1.865128 g / cm^3
# Si number density = 18.693827 Si / 1000 Ang^3
#
#
#
# Elastic Constant Matrix: (Units=GPa)
#
#
# Indices 1 2 3 4 5 6 
#
# 1 165.5731 43.1699 64.5479 0.0000 0.0000 0.0000
# 2 43.1699 107.9858 58.7015 0.0000 0.0000 0.0000
# 3 64.5479 58.7015 127.0479 0.0000 0.0000 0.0000
# 4 0.0000 0.0000 0.0000 7.0358 0.0000 0.0000
# 5 0.0000 0.0000 0.0000 0.0000 34.3701 0.0000
# 6 0.0000 0.0000 0.0000 0.0000 0.0000 30.1201
#
#
#
# Elastic Compliance Matrix: (Units=1/GPa)
#
#
# Indices 1 2 3 4 5 6 
#
# 1 0.007658 -0.001264 -0.003307 0.000000 0.000000 0.000000
# 2 -0.001264 0.012575 -0.005168 0.000000 0.000000 0.000000
# 3 -0.003307 -0.005168 0.011939 0.000000 0.000000 0.000000
# 4 0.000000 0.000000 0.000000 0.142131 0.000000 0.000000
# 5 0.000000 0.000000 0.000000 0.000000 0.029095 0.000000
# 6 0.000000 0.000000 0.000000 0.000000 0.000000 0.033200
#
#
# Mechanical properties :
#
#
# Convention : Reuss Voigt Hill
#
# Bulk Modulus (GPa) = 78.77338 81.49395 80.13366
# Shear Modulus (GPa) = 19.20798 29.91768 24.56283
#
# Velocity S-wave (km/s) = 3.20895 4.00485 3.62878
# Velocity P-wave (km/s) = 7.48064 8.06683 7.77926
#
# Compressibility (1/GPa) = 0.01269464
#
# Stress axis : x y z
#
# Youngs Moduli (GPa) = 130.57628 79.52173 83.75896
#
# Poissons Ratio (x) = 0.10051 0.27698
# Poissons Ratio (y) = 0.16504 0.43287
# Poissons Ratio (z) = 0.43180 0.41098
#
# Static dielectric constant tensor:
#      x y z
#    x 3.592300 0.000000 0.000000 
#    y 0.000000 3.064000 0.000000 
#    z 0.000000 0.000000 4.103860 
# 
# 
# High freq. dielectric constant tensor:
#      x y z
#    x 1.754450 0.000000 0.000000 
#    y 0.000000 1.675560 0.000000 
#    z 0.000000 0.000000 1.747900 
# 
# From -- ./inp_files/48339.got.cif
#   From: 2010.03.12/outbox.cif.g09.slc.cpg/sg64_25_cif.got.tgz:48339.got - 2010.04.10 20:19:32.
