data_PCOD8262920
_publ_section_title
;
Structure prediction by ZEFSAII (Michael W. Deem and Ramdas Pophale) SiO2 
 PCOD8262920
Probable space group: C M C A
;
_chemical_formula_sum "Si O2"
_cell_formula_units_Z 112
_cell_length_a 14.727100
_cell_length_b 25.175878
_cell_length_c 14.575967
_cell_angle_alpha 90.000000
_cell_angle_beta 90.000000
_cell_angle_gamma 90.000000
_cell_volume 5404.297365
_symmetry_space_group_name_H-M "C M C A"
_symmetry_group_IT_number 64
_symmetry_cell_setting 'orthorhombic'
loop_
_space_group_symop_operation_xyz
x,y,z
-x,1/2-y,1/2+z
x,-y,-z
-x,1/2+y,1/2-z
-x,-y,-z
x,1/2+y,1/2-z
-x,y,z
x,1/2-y,1/2+z
1/2+x,1/2+y,z
1/2-x,-y,1/2+z
1/2+x,1/2-y,-z
1/2-x,y,1/2-z
1/2-x,1/2-y,-z
1/2+x,y,1/2-z
1/2-x,1/2+y,z
1/2+x,-y,1/2+z
loop_
_atom_site_type_symbol
_atom_site_label
_atom_site_fract_x
_atom_site_fract_y
_atom_site_fract_z
Si Si1 0.107989 0.227584 0.684317
Si Si2 0.898557 0.753710 0.614811
Si Si3 0.225022 0.872452 0.354061
Si Si4 0.855663 0.348712 0.661998
Si Si5 0.654061 0.634308 0.360265
Si Si6 0.401428 0.147697 0.533102
Si Si7 0.896235 0.441281 0.021740
O O1 0.128765 0.221271 0.792950
O O2 0.169666 0.182961 0.634530
O O3 0.145670 0.284840 0.655401
O O4 0.000000 0.220534 0.661377
O O5 0.842283 0.806705 0.594793
O O6 0.889044 0.711994 0.532192
O O7 0.000000 0.775323 0.627314
O O8 0.250000 0.886096 0.250000
O O9 0.317170 0.876985 0.413366
O O10 0.160955 0.918267 0.394036
O O11 0.758843 0.377390 0.656751
O O12 0.898548 0.365105 0.761121
O O13 0.908257 0.370773 0.573093
O O14 0.609397 0.592992 0.428701
O O15 0.500000 0.133126 0.578582
O O16 0.000000 0.443219 0.054583
O O17 0.859509 0.500000 0.000000
#
# Coordination Sequence:
#
# PCOD8262920 Si02
#       7
#    16  16  16  16  16  16  16
#     4  10  20  34  56  92 136 174 211 248 303 384
#     4   9  18  31  51  86 131 169 203 244 298 375
#     4  12  24  41  65  93 126 172 211 266 324 376
#     4  10  21  35  58  93 131 172 207 250 306 387
#     4  10  20  38  63  89 122 168 213 262 313 377
#     4  11  22  36  56  91 133 171 208 250 306 386
#     4  11  26  48  71  96 122 158 220 283 336 387
#
# _framework density 20.724247999999999
#
# number of rings (size 3 to 8) (size 9 to 14) (size 15 to 20)
#    0.000    1.571    2.857    2.143    4.000    3.429 
#    2.571    0.000    0.000    0.429    0.000    0.000 
#    0.000    0.000    0.000    0.000    0.000    0.000 
#
# Total GULP energy -693898.180396 kJ/mol
# GULP energy per Si atom -12391.038936 kJ/mol
# Density = 2.067708 g / cm^3
# Si number density = 20.724248 Si / 1000 Ang^3
#
#
#
# Elastic Constant Matrix: (Units=GPa)
#
#
# Indices 1 2 3 4 5 6 
#
# 1 90.7941 30.7574 33.6832 0.0000 0.0000 0.0000
# 2 30.7574 75.9648 33.2043 0.0000 0.0000 0.0000
# 3 33.6832 33.2043 126.7256 0.0000 0.0000 0.0000
# 4 0.0000 0.0000 0.0000 22.1607 0.0000 0.0000
# 5 0.0000 0.0000 0.0000 0.0000 26.0975 0.0000
# 6 0.0000 0.0000 0.0000 0.0000 0.0000 21.6754
#
#
#
# Elastic Compliance Matrix: (Units=1/GPa)
#
#
# Indices 1 2 3 4 5 6 
#
# 1 0.013389 -0.004365 -0.002415 0.000000 0.000000 0.000000
# 2 -0.004365 0.016290 -0.003108 0.000000 0.000000 0.000000
# 3 -0.002415 -0.003108 0.009347 0.000000 0.000000 0.000000
# 4 0.000000 0.000000 0.000000 0.045125 0.000000 0.000000
# 5 0.000000 0.000000 0.000000 0.000000 0.038318 0.000000
# 6 0.000000 0.000000 0.000000 0.000000 0.000000 0.046135
#
#
# Mechanical properties :
#
#
# Convention : Reuss Voigt Hill
#
# Bulk Modulus (GPa) = 51.94942 54.30826 53.12884
# Shear Modulus (GPa) = 25.66780 27.04271 26.35525
#
# Velocity S-wave (km/s) = 3.52311 3.61623 3.56997
# Velocity P-wave (km/s) = 6.45532 6.61047 6.53335
#
# Compressibility (1/GPa) = 0.01924949
#
# Stress axis : x y z
#
# Youngs Moduli (GPa) = 74.69029 61.38745 106.98317
#
# Poissons Ratio (x) = 0.26798 0.25835
# Poissons Ratio (y) = 0.32605 0.33250
# Poissons Ratio (z) = 0.18037 0.19079
#
# Static dielectric constant tensor:
#      x y z
#    x 3.860410 0.000000 0.000000 
#    y 0.000000 3.248280 0.000000 
#    z 0.000000 0.000000 3.951460 
# 
# 
# High freq. dielectric constant tensor:
#      x y z
#    x 1.825010 0.000000 0.000000 
#    y 0.000000 1.746380 0.000000 
#    z 0.000000 0.000000 1.821050 
# 
# From -- ./inp_files/24201.got.cif
#   From: 2010.03.12/outbox.cif.g09.slc.cpg/sg64_13_cif.got.tgz:24201.got - 2010.04.10 20:19:32.
