data_PCOD8262621
_publ_section_title
;
Structure prediction by ZEFSAII (Michael W. Deem and Ramdas Pophale) SiO2 
 PCOD8262621
Probable space group: C M C A
;
_chemical_formula_sum "Si O2"
_cell_formula_units_Z 104
_cell_length_a 19.492603
_cell_length_b 21.120195
_cell_length_c 13.443534
_cell_angle_alpha 90.000000
_cell_angle_beta 90.000000
_cell_angle_gamma 90.000000
_cell_volume 5534.535931
_symmetry_space_group_name_H-M "C M C A"
_symmetry_group_IT_number 64
_symmetry_cell_setting 'orthorhombic'
loop_
_space_group_symop_operation_xyz
x,y,z
-x,1/2-y,1/2+z
x,-y,-z
-x,1/2+y,1/2-z
-x,-y,-z
x,1/2+y,1/2-z
-x,y,z
x,1/2-y,1/2+z
1/2+x,1/2+y,z
1/2-x,-y,1/2+z
1/2+x,1/2-y,-z
1/2-x,y,1/2-z
1/2-x,1/2-y,-z
1/2+x,y,1/2-z
1/2-x,1/2+y,z
1/2+x,-y,1/2+z
loop_
_atom_site_type_symbol
_atom_site_label
_atom_site_fract_x
_atom_site_fract_y
_atom_site_fract_z
Si Si1 0.250000 0.878859 0.250000
Si Si2 0.669633 0.953563 0.908973
Si Si3 0.197301 0.988403 0.119720
Si Si4 0.077466 0.302502 0.748354
Si Si5 0.316978 0.190284 0.084313
Si Si6 0.576906 0.053375 0.270825
Si Si7 0.689510 0.766590 0.132854
O O1 0.204558 0.918235 0.168557
O O2 0.299330 0.834388 0.184554
O O3 0.690938 0.883431 0.943656
O O4 0.601747 0.955829 0.842165
O O5 0.733401 0.977339 0.840981
O O6 0.654382 0.000000 0.000000
O O7 0.125579 0.017654 0.152285
O O8 0.200983 0.000000 0.000000
O O9 0.113008 0.299533 0.855766
O O10 0.078430 0.372809 0.703038
O O11 0.117984 0.259349 0.671954
O O12 0.000000 0.277303 0.759952
O O13 0.253575 0.218080 0.150356
O O14 0.322151 0.229354 0.984169
O O15 0.500000 0.025842 0.280624
#
# Coordination Sequence:
#
# PCOD8262621 Si02
#       7
#     8  16  16  16  16  16  16
#     4  12  22  38  62  94 120 150 202 258 286 356
#     4  10  19  36  62  90 113 151 199 250 298 349
#     4  11  22  37  61  86 120 152 193 246 302 346
#     4  10  21  39  59  82 117 157 197 239 291 358
#     4  10  21  36  61  88 117 153 200 244 302 346
#     4  10  21  38  59  84 117 155 194 239 296 360
#     4  11  21  37  61  87 120 156 197 248 291 349
#
# _framework density 18.791097000000001
#
# number of rings (size 3 to 8) (size 9 to 14) (size 15 to 20)
#    0.000    1.538    3.077    2.769    0.000    4.923 
#    0.000    0.769    0.000    0.000    0.000    0.000 
#    0.000    0.000    0.000    0.000    0.000    0.000 
#
# Total GULP energy -644520.643405 kJ/mol
# GULP energy per Si atom -12394.627758 kJ/mol
# Density = 1.874833 g / cm^3
# Si number density = 18.791097 Si / 1000 Ang^3
#
#
#
# Elastic Constant Matrix: (Units=GPa)
#
#
# Indices 1 2 3 4 5 6 
#
# 1 155.9696 57.1040 40.4680 0.0000 0.0000 0.0000
# 2 57.1040 99.9164 47.5339 0.0000 0.0000 0.0000
# 3 40.4680 47.5339 84.8668 0.0000 0.0000 0.0000
# 4 0.0000 0.0000 0.0000 24.8405 0.0000 0.0000
# 5 0.0000 0.0000 0.0000 0.0000 21.7341 0.0000
# 6 0.0000 0.0000 0.0000 0.0000 0.0000 29.3526
#
#
#
# Elastic Compliance Matrix: (Units=1/GPa)
#
#
# Indices 1 2 3 4 5 6 
#
# 1 0.008299 -0.003900 -0.001773 0.000000 0.000000 0.000000
# 2 -0.003900 0.015476 -0.006809 0.000000 0.000000 0.000000
# 3 -0.001773 -0.006809 0.016442 0.000000 0.000000 0.000000
# 4 0.000000 0.000000 0.000000 0.040257 0.000000 0.000000
# 5 0.000000 0.000000 0.000000 0.000000 0.046011 0.000000
# 6 0.000000 0.000000 0.000000 0.000000 0.000000 0.034069
#
#
# Mechanical properties :
#
#
# Convention : Reuss Voigt Hill
#
# Bulk Modulus (GPa) = 65.55398 70.10718 67.83058
# Shear Modulus (GPa) = 26.23267 28.22858 27.23062
#
# Velocity S-wave (km/s) = 3.74038 3.88007 3.81087
# Velocity P-wave (km/s) = 7.32225 7.58043 7.45246
#
# Compressibility (1/GPa) = 0.01525460
#
# Stress axis : x y z
#
# Youngs Moduli (GPa) = 120.49158 64.61520 60.81860
#
# Poissons Ratio (x) = 0.25197 0.10785
# Poissons Ratio (y) = 0.46987 0.41410
# Poissons Ratio (z) = 0.21367 0.43995
#
# Static dielectric constant tensor:
#      x y z
#    x 3.508240 0.000000 0.000000 
#    y 0.000000 3.606640 0.000000 
#    z 0.000000 0.000000 3.419010 
# 
# 
# High freq. dielectric constant tensor:
#      x y z
#    x 1.720370 0.000000 0.000000 
#    y 0.000000 1.729220 0.000000 
#    z 0.000000 0.000000 1.738570 
# 
# From -- ./inp_files/25619.got.cif
#   From: 2010.03.12/outbox.cif.g09.slc.cpg/sg64_13_cif.got.tgz:25619.got - 2010.04.10 20:19:32.
