data_PCOD8262236
_publ_section_title
;
Structure prediction by ZEFSAII (Michael W. Deem and Ramdas Pophale) SiO2 
 PCOD8262236
Probable space group: C M C A
;
_chemical_formula_sum "Si O2"
_cell_formula_units_Z 80
_cell_length_a 16.600623
_cell_length_b 12.472521
_cell_length_c 21.167776
_cell_angle_alpha 90.000000
_cell_angle_beta 90.000000
_cell_angle_gamma 90.000000
_cell_volume 4382.822291
_symmetry_space_group_name_H-M "C M C A"
_symmetry_group_IT_number 64
_symmetry_cell_setting 'orthorhombic'
loop_
_space_group_symop_operation_xyz
x,y,z
-x,1/2-y,1/2+z
x,-y,-z
-x,1/2+y,1/2-z
-x,-y,-z
x,1/2+y,1/2-z
-x,y,z
x,1/2-y,1/2+z
1/2+x,1/2+y,z
1/2-x,-y,1/2+z
1/2+x,1/2-y,-z
1/2-x,y,1/2-z
1/2-x,1/2-y,-z
1/2+x,y,1/2-z
1/2-x,1/2+y,z
1/2+x,-y,1/2+z
loop_
_atom_site_type_symbol
_atom_site_label
_atom_site_fract_x
_atom_site_fract_y
_atom_site_fract_z
Si Si1 0.095747 0.004181 0.570599
Si Si2 0.903874 0.869750 0.198348
Si Si3 0.350400 0.398104 0.809629
Si Si4 0.335180 0.652622 0.330052
Si Si5 0.591891 0.179296 0.837397
O O1 0.125551 0.902614 0.609803
O O2 0.000000 0.001343 0.567242
O O3 0.132206 0.000000 0.500000
O O4 0.130019 0.111808 0.604775
O O5 0.854965 0.778608 0.160180
O O6 0.871140 0.860043 0.270526
O O7 0.000000 0.852258 0.192709
O O8 0.878260 0.984080 0.168593
O O9 0.374492 0.387007 0.735755
O O10 0.258369 0.374613 0.825533
O O11 0.398383 0.306584 0.848165
O O12 0.500000 0.146473 0.835241
#
# Coordination Sequence:
#
# PCOD8262236 Si02
#       5
#    16  16  16  16  16
#     4  10  20  36  57  77 105 147 190 224 254 313
#     4  10  19  32  53  80 111 141 172 222 278 328
#     4  10  20  31  54  80 113 138 166 224 285 325
#     4  10  21  32  52  81 111 137 177 219 274 328
#     4   9  18  32  52  77 106 139 181 219 264 324
#
# _framework density 18.253077999999999
#
# number of rings (size 3 to 8) (size 9 to 14) (size 15 to 20)
#    0.000    2.200    2.000    1.200    2.800    3.200 
#    0.000    1.000    0.000    0.000    0.000    5.600 
#    0.000    0.000    0.000    0.000    0.000    0.000 
#
# Total GULP energy -495786.197772 kJ/mol
# GULP energy per Si atom -12394.654944 kJ/mol
# Density = 1.821153 g / cm^3
# Si number density = 18.253078 Si / 1000 Ang^3
#
#
#
# Elastic Constant Matrix: (Units=GPa)
#
#
# Indices 1 2 3 4 5 6 
#
# 1 44.0446 27.4681 18.9752 0.0000 0.0000 0.0000
# 2 27.4681 174.4179 60.7929 0.0000 0.0000 0.0000
# 3 18.9752 60.7929 103.8399 0.0000 0.0000 0.0000
# 4 0.0000 0.0000 0.0000 23.8568 0.0000 0.0000
# 5 0.0000 0.0000 0.0000 0.0000 5.2078 0.0000
# 6 0.0000 0.0000 0.0000 0.0000 0.0000 30.1344
#
#
#
# Elastic Compliance Matrix: (Units=1/GPa)
#
#
# Indices 1 2 3 4 5 6 
#
# 1 0.025874 -0.003049 -0.002943 0.000000 0.000000 0.000000
# 2 -0.003049 0.007562 -0.003870 0.000000 0.000000 0.000000
# 3 -0.002943 -0.003870 0.012434 0.000000 0.000000 0.000000
# 4 0.000000 0.000000 0.000000 0.041917 0.000000 0.000000
# 5 0.000000 0.000000 0.000000 0.000000 0.192020 0.000000
# 6 0.000000 0.000000 0.000000 0.000000 0.000000 0.033185
#
#
# Mechanical properties :
#
#
# Convention : Reuss Voigt Hill
#
# Bulk Modulus (GPa) = 38.24752 59.64164 48.94458
# Shear Modulus (GPa) = 14.64422 26.17753 20.41088
#
# Velocity S-wave (km/s) = 2.83554 3.79112 3.34760
# Velocity P-wave (km/s) = 5.63204 7.20480 6.46642
#
# Compressibility (1/GPa) = 0.02614549
#
# Stress axis : x y z
#
# Youngs Moduli (GPa) = 38.64940 132.23146 80.42544
#
# Poissons Ratio (x) = 0.40316 0.23670
# Poissons Ratio (y) = 0.11784 0.31127
# Poissons Ratio (z) = 0.11375 0.51178
#
# Static dielectric constant tensor:
#      x y z
#    x 3.176980 0.000000 0.000000 
#    y 0.000000 3.554990 0.000000 
#    z 0.000000 0.000000 3.265100 
# 
# 
# High freq. dielectric constant tensor:
#      x y z
#    x 1.696610 0.000000 0.000000 
#    y 0.000000 1.723790 0.000000 
#    z 0.000000 0.000000 1.658560 
# 
# From -- ./inp_files/44965.got.cif
#   From: 2010.03.12/outbox.cif.g09.slc.cpg/sg64_23_cif.got.tgz:44965.got - 2010.04.10 20:19:32.
