data_PCOD8262486
_publ_section_title
;
Structure prediction by ZEFSAII (Michael W. Deem and Ramdas Pophale) SiO2 
 PCOD8262486
Probable space group: C M C A
;
_chemical_formula_sum "Si O2"
_cell_formula_units_Z 72
_cell_length_a 24.693805
_cell_length_b 9.389833
_cell_length_c 15.476763
_cell_angle_alpha 90.000000
_cell_angle_beta 90.000000
_cell_angle_gamma 90.000000
_cell_volume 3588.607949
_symmetry_space_group_name_H-M "C M C A"
_symmetry_group_IT_number 64
_symmetry_cell_setting 'orthorhombic'
loop_
_space_group_symop_operation_xyz
x,y,z
-x,1/2-y,1/2+z
x,-y,-z
-x,1/2+y,1/2-z
-x,-y,-z
x,1/2+y,1/2-z
-x,y,z
x,1/2-y,1/2+z
1/2+x,1/2+y,z
1/2-x,-y,1/2+z
1/2+x,1/2-y,-z
1/2-x,y,1/2-z
1/2-x,1/2-y,-z
1/2+x,y,1/2-z
1/2-x,1/2+y,z
1/2+x,-y,1/2+z
loop_
_atom_site_type_symbol
_atom_site_label
_atom_site_fract_x
_atom_site_fract_y
_atom_site_fract_z
Si Si1 0.625356 0.394581 0.725065
Si Si2 0.062625 0.124949 0.828432
Si Si3 0.773239 0.953879 0.343474
Si Si4 0.606600 0.000000 0.500000
Si Si5 0.814799 0.669273 0.395096
O O1 0.587182 0.523936 0.754682
O O2 0.591261 0.278504 0.672150
O O3 0.672334 0.453987 0.663412
O O4 0.652392 0.316572 0.806018
O O5 0.069342 0.052885 0.921931
O O6 0.000000 0.147314 0.807775
O O7 0.750000 0.904225 0.250000
O O8 0.727693 0.041438 0.392523
O O9 0.784116 0.818994 0.405819
O O10 0.643626 0.134662 0.471996
#
# Coordination Sequence:
#
# PCOD8262486 Si02
#       5
#    16  16  16   8  16
#     4  10  20  37  63  92 116 151 205 250 292 355
#     4  11  22  41  65  88 116 158 205 254 303 349
#     4  10  19  34  61  90 121 155 193 247 291 352
#     4  10  25  40  58  88 130 160 195 248 306 358
#     4  10  21  36  58  88 123 159 194 231 300 360
#
# _framework density 20.063490000000002
#
# number of rings (size 3 to 8) (size 9 to 14) (size 15 to 20)
#    0.000    1.778    2.222    3.000    6.222    0.889 
#    0.000    0.000    0.000    1.333    0.000    0.000 
#    0.000    0.000    0.000    0.000    0.000    0.000 
#
# Total GULP energy -446508.033657 kJ/mol
# GULP energy per Si atom -12403.000935 kJ/mol
# Density = 2.001782 g / cm^3
# Si number density = 20.063490 Si / 1000 Ang^3
#
#
#
# Elastic Constant Matrix: (Units=GPa)
#
#
# Indices 1 2 3 4 5 6 
#
# 1 100.2159 21.7390 4.3411 0.0000 0.0000 0.0000
# 2 21.7390 86.1267 5.3650 0.0000 0.0000 0.0000
# 3 4.3411 5.3650 28.3195 0.0000 0.0000 0.0000
# 4 0.0000 0.0000 0.0000 19.2829 0.0000 0.0000
# 5 0.0000 0.0000 0.0000 0.0000 22.2950 0.0000
# 6 0.0000 0.0000 0.0000 0.0000 0.0000 31.7252
#
#
#
# Elastic Compliance Matrix: (Units=1/GPa)
#
#
# Indices 1 2 3 4 5 6 
#
# 1 0.010592 -0.002603 -0.001131 0.000000 0.000000 0.000000
# 2 -0.002603 0.012389 -0.001948 0.000000 0.000000 0.000000
# 3 -0.001131 -0.001948 0.035854 0.000000 0.000000 0.000000
# 4 0.000000 0.000000 0.000000 0.051860 0.000000 0.000000
# 5 0.000000 0.000000 0.000000 0.000000 0.044853 0.000000
# 6 0.000000 0.000000 0.000000 0.000000 0.000000 0.031521
#
#
# Mechanical properties :
#
#
# Convention : Reuss Voigt Hill
#
# Bulk Modulus (GPa) = 21.06517 30.83914 25.95216
# Shear Modulus (GPa) = 23.33661 26.87507 25.10584
#
# Velocity S-wave (km/s) = 3.41418 3.66389 3.54124
# Velocity P-wave (km/s) = 5.10531 5.77087 5.44826
#
# Compressibility (1/GPa) = 0.04747173
#
# Stress axis : x y z
#
# Youngs Moduli (GPa) = 94.41003 80.71556 27.89108
#
# Poissons Ratio (x) = 0.21011 0.03153
# Poissons Ratio (y) = 0.24576 0.05433
# Poissons Ratio (z) = 0.10673 0.15724
#
# Static dielectric constant tensor:
#      x y z
#    x 3.667380 0.000000 0.000000 
#    y 0.000000 3.580980 0.000000 
#    z 0.000000 0.000000 3.339560 
# 
# 
# High freq. dielectric constant tensor:
#      x y z
#    x 1.788580 0.000000 0.000000 
#    y 0.000000 1.788220 0.000000 
#    z 0.000000 0.000000 1.757900 
# 
# From -- ./inp_files/27794.got.cif
#   From: 2010.03.12/outbox.cif.g09.slc.cpg/sg64_14_cif.got.tgz:27794.got - 2010.04.10 20:19:32.
