data_PCOD8262650
_publ_section_title
;
Structure prediction by ZEFSAII (Michael W. Deem and Ramdas Pophale) SiO2 
 PCOD8262650
Probable space group: C M C A
;
_chemical_formula_sum "Si O2"
_cell_formula_units_Z 112
_cell_length_a 17.891277
_cell_length_b 14.002911
_cell_length_c 21.972966
_cell_angle_alpha 90.000000
_cell_angle_beta 90.000000
_cell_angle_gamma 90.000000
_cell_volume 5504.886282
_symmetry_space_group_name_H-M "C M C A"
_symmetry_group_IT_number 64
_symmetry_cell_setting 'orthorhombic'
loop_
_space_group_symop_operation_xyz
x,y,z
-x,1/2-y,1/2+z
x,-y,-z
-x,1/2+y,1/2-z
-x,-y,-z
x,1/2+y,1/2-z
-x,y,z
x,1/2-y,1/2+z
1/2+x,1/2+y,z
1/2-x,-y,1/2+z
1/2+x,1/2-y,-z
1/2-x,y,1/2-z
1/2-x,1/2-y,-z
1/2+x,y,1/2-z
1/2-x,1/2+y,z
1/2+x,-y,1/2+z
loop_
_atom_site_type_symbol
_atom_site_label
_atom_site_fract_x
_atom_site_fract_y
_atom_site_fract_z
Si Si1 0.415129 0.900570 0.770377
Si Si2 0.860371 0.396350 0.206557
Si Si3 0.586713 0.389372 0.508398
Si Si4 0.084764 0.264010 0.106143
Si Si5 0.165799 0.188067 0.374771
Si Si6 0.305580 0.609032 0.838090
Si Si7 0.323724 0.100404 0.351269
O O1 0.500000 0.885830 0.747206
O O2 0.398730 0.826557 0.824699
O O3 0.356876 0.883366 0.716048
O O4 0.406723 0.006183 0.798826
O O5 0.904783 0.312881 0.172054
O O6 0.780570 0.409803 0.175441
O O7 0.851179 0.367147 0.276758
O O8 0.604537 0.500000 0.500000
O O9 0.500000 0.372647 0.525312
O O10 0.609434 0.337371 0.446049
O O11 0.639757 0.348519 0.560190
O O12 0.133167 0.167325 0.100734
O O13 0.000000 0.232431 0.097708
O O14 0.183876 0.300791 0.382402
O O15 0.237353 0.129942 0.350687
O O16 0.335043 0.511021 0.869269
#
# Coordination Sequence:
#
# PCOD8262650 Si02
#       7
#    16  16  16  16  16  16  16
#     4  11  22  37  62  95 127 166 209 256 317 378
#     4  10  19  37  62  92 129 164 204 258 312 367
#     4  10  24  44  66  95 125 161 218 273 314 369
#     4  11  22  40  64  89 124 170 212 258 317 374
#     4  12  22  39  66  88 127 166 209 263 319 369
#     4  10  22  37  60  95 128 162 202 256 315 375
#     4  11  23  39  59  92 130 163 205 254 314 385
#
# _framework density 20.345561
#
# number of rings (size 3 to 8) (size 9 to 14) (size 15 to 20)
#    0.000    1.286    2.857    3.429    2.000    1.714 
#    0.000    8.571    0.000    1.714    0.000    0.000 
#    0.000    0.000    0.000    0.000    0.000    0.000 
#
# Total GULP energy -694555.760089 kJ/mol
# GULP energy per Si atom -12402.781430 kJ/mol
# Density = 2.029925 g / cm^3
# Si number density = 20.345561 Si / 1000 Ang^3
#
#
#
# Elastic Constant Matrix: (Units=GPa)
#
#
# Indices 1 2 3 4 5 6 
#
# 1 92.0522 46.7429 46.9792 0.0000 0.0000 0.0000
# 2 46.7429 157.3666 56.8802 0.0000 0.0000 0.0000
# 3 46.9792 56.8802 79.0697 0.0000 0.0000 0.0000
# 4 0.0000 0.0000 0.0000 33.1601 0.0000 0.0000
# 5 0.0000 0.0000 0.0000 0.0000 21.6503 0.0000
# 6 0.0000 0.0000 0.0000 0.0000 0.0000 32.3350
#
#
#
# Elastic Compliance Matrix: (Units=1/GPa)
#
#
# Indices 1 2 3 4 5 6 
#
# 1 0.015949 -0.001773 -0.008200 0.000000 0.000000 0.000000
# 2 -0.001773 0.008785 -0.005266 0.000000 0.000000 0.000000
# 3 -0.008200 -0.005266 0.021307 0.000000 0.000000 0.000000
# 4 0.000000 0.000000 0.000000 0.030157 0.000000 0.000000
# 5 0.000000 0.000000 0.000000 0.000000 0.046189 0.000000
# 6 0.000000 0.000000 0.000000 0.000000 0.000000 0.030926
#
#
# Mechanical properties :
#
#
# Convention : Reuss Voigt Hill
#
# Bulk Modulus (GPa) = 64.25915 69.96591 67.11253
# Shear Modulus (GPa) = 26.45796 29.28815 27.87305
#
# Velocity S-wave (km/s) = 3.61006 3.79824 3.70534
# Velocity P-wave (km/s) = 7.00208 7.32795 7.16687
#
# Compressibility (1/GPa) = 0.01556199
#
# Stress axis : x y z
#
# Youngs Moduli (GPa) = 62.69994 113.83509 46.93209
#
# Poissons Ratio (x) = 0.20187 0.38486
# Poissons Ratio (y) = 0.11119 0.24713
# Poissons Ratio (z) = 0.51417 0.59943
#
# Static dielectric constant tensor:
#      x y z
#    x 3.678730 0.000000 0.000000 
#    y 0.000000 3.918920 0.000000 
#    z 0.000000 0.000000 3.448600 
# 
# 
# High freq. dielectric constant tensor:
#      x y z
#    x 1.794440 0.000000 0.000000 
#    y 0.000000 1.809060 0.000000 
#    z 0.000000 0.000000 1.765890 
# 
# From -- ./inp_files/45287.got.cif
#   From: 2010.03.12/outbox.cif.g09.slc.cpg/sg64_23_cif.got.tgz:45287.got - 2010.04.10 20:19:32.
