data_PCOD8262637
_publ_section_title
;
Structure prediction by ZEFSAII (Michael W. Deem and Ramdas Pophale) SiO2 
 PCOD8262637
Probable space group: C M C A
;
_chemical_formula_sum "Si O2"
_cell_formula_units_Z 96
_cell_length_a 15.695151
_cell_length_b 20.865909
_cell_length_c 13.783244
_cell_angle_alpha 90.000000
_cell_angle_beta 90.000000
_cell_angle_gamma 90.000000
_cell_volume 4513.924094
_symmetry_space_group_name_H-M "C M C A"
_symmetry_group_IT_number 64
_symmetry_cell_setting 'orthorhombic'
loop_
_space_group_symop_operation_xyz
x,y,z
-x,1/2-y,1/2+z
x,-y,-z
-x,1/2+y,1/2-z
-x,-y,-z
x,1/2+y,1/2-z
-x,y,z
x,1/2-y,1/2+z
1/2+x,1/2+y,z
1/2-x,-y,1/2+z
1/2+x,1/2-y,-z
1/2-x,y,1/2-z
1/2-x,1/2-y,-z
1/2+x,y,1/2-z
1/2-x,1/2+y,z
1/2+x,-y,1/2+z
loop_
_atom_site_type_symbol
_atom_site_label
_atom_site_fract_x
_atom_site_fract_y
_atom_site_fract_z
Si Si1 0.906242 0.939975 0.432599
Si Si2 0.403928 0.197129 0.174938
Si Si3 0.151530 0.460044 0.274989
Si Si4 0.320490 0.175726 0.667863
Si Si5 0.227930 0.653059 0.016071
Si Si6 0.169197 0.596942 0.318023
O O1 0.905777 0.960139 0.320997
O O2 0.828706 0.892830 0.449799
O O3 0.000000 0.910824 0.456723
O O4 0.888424 0.000000 0.500000
O O5 0.500000 0.186508 0.137540
O O6 0.390323 0.271822 0.201667
O O7 0.336202 0.186977 0.089482
O O8 0.390410 0.150964 0.267940
O O9 0.250000 0.462696 0.250000
O O10 0.135152 0.395084 0.338095
O O11 0.125086 0.526650 0.329032
O O12 0.250000 0.175380 0.750000
O O13 0.277521 0.196056 0.564018
O O14 0.302759 0.617960 0.075132
O O15 0.250000 0.588756 0.250000
#
# Coordination Sequence:
#
# PCOD8262637 Si02
#       6
#    16  16  16  16  16  16
#     4  11  21  33  58  96 130 158 203 265 319 363
#     4  11  24  42  62  91 125 164 212 268 319 369
#     4  10  19  37  59  90 125 165 203 250 315 377
#     4  11  22  40  62  91 127 166 211 259 313 375
#     4  11  21  39  65  90 124 165 219 253 313 376
#     4   9  20  38  64  88 124 166 206 253 310 384
#
# _framework density 21.267527000000001
#
# number of rings (size 3 to 8) (size 9 to 14) (size 15 to 20)
#    0.000    1.500    3.333    5.500    0.000    2.667 
#    0.000    2.500    0.000    0.000    0.000    3.500 
#    0.000    0.000    0.000    0.000    0.000    0.000 
#
# Total GULP energy -594735.793332 kJ/mol
# GULP energy per Si atom -12390.329028 kJ/mol
# Density = 2.121912 g / cm^3
# Si number density = 21.267527 Si / 1000 Ang^3
#
#
#
# Elastic Constant Matrix: (Units=GPa)
#
#
# Indices 1 2 3 4 5 6 
#
# 1 59.4560 46.8415 18.9457 0.0000 0.0000 0.0000
# 2 46.8415 142.7359 24.5057 0.0000 0.0000 0.0000
# 3 18.9457 24.5057 80.3388 0.0000 0.0000 0.0000
# 4 0.0000 0.0000 0.0000 19.1841 0.0000 0.0000
# 5 0.0000 0.0000 0.0000 0.0000 87.3967 0.0000
# 6 0.0000 0.0000 0.0000 0.0000 0.0000 12.4379
#
#
#
# Elastic Compliance Matrix: (Units=1/GPa)
#
#
# Indices 1 2 3 4 5 6 
#
# 1 0.023517 -0.007139 -0.003368 0.000000 0.000000 0.000000
# 2 -0.007139 0.009560 -0.001233 0.000000 0.000000 0.000000
# 3 -0.003368 -0.001233 0.013618 0.000000 0.000000 0.000000
# 4 0.000000 0.000000 0.000000 0.052127 0.000000 0.000000
# 5 0.000000 0.000000 0.000000 0.000000 0.011442 0.000000
# 6 0.000000 0.000000 0.000000 0.000000 0.000000 0.080400
#
#
# Mechanical properties :
#
#
# Convention : Reuss Voigt Hill
#
# Bulk Modulus (GPa) = 43.07574 51.45738 47.26656
# Shear Modulus (GPa) = 22.53454 36.61959 29.57706
#
# Velocity S-wave (km/s) = 3.25864 4.15403 3.73327
# Velocity P-wave (km/s) = 5.86997 6.87428 6.39188
#
# Compressibility (1/GPa) = 0.02321492
#
# Stress axis : x y z
#
# Youngs Moduli (GPa) = 42.52240 104.59743 73.43469
#
# Poissons Ratio (x) = 0.74675 0.24734
# Poissons Ratio (y) = 0.30358 0.09052
# Poissons Ratio (z) = 0.14322 0.12893
#
# Static dielectric constant tensor:
#      x y z
#    x 3.610660 0.000000 0.000000 
#    y 0.000000 4.437020 0.000000 
#    z 0.000000 0.000000 3.764880 
# 
# 
# High freq. dielectric constant tensor:
#      x y z
#    x 1.806090 0.000000 0.000000 
#    y 0.000000 1.846840 0.000000 
#    z 0.000000 0.000000 1.822670 
# 
# From -- ./inp_files/23940.got.cif
#   From: 2010.03.12/outbox.cif.g09.slc.cpg/sg64_12_cif.got.tgz:23940.got - 2010.04.10 20:19:32.
