data_PCOD8262876
_publ_section_title
;
Structure prediction by ZEFSAII (Michael W. Deem and Ramdas Pophale) SiO2 
 PCOD8262876
Probable space group: C M C A
;
_chemical_formula_sum "Si O2"
_cell_formula_units_Z 88
_cell_length_a 11.059118
_cell_length_b 17.307931
_cell_length_c 22.921426
_cell_angle_alpha 90.000000
_cell_angle_beta 90.000000
_cell_angle_gamma 90.000000
_cell_volume 4387.400494
_symmetry_space_group_name_H-M "C M C A"
_symmetry_group_IT_number 64
_symmetry_cell_setting 'orthorhombic'
loop_
_space_group_symop_operation_xyz
x,y,z
-x,1/2-y,1/2+z
x,-y,-z
-x,1/2+y,1/2-z
-x,-y,-z
x,1/2+y,1/2-z
-x,y,z
x,1/2-y,1/2+z
1/2+x,1/2+y,z
1/2-x,-y,1/2+z
1/2+x,1/2-y,-z
1/2-x,y,1/2-z
1/2-x,1/2-y,-z
1/2+x,y,1/2-z
1/2-x,1/2+y,z
1/2+x,-y,1/2+z
loop_
_atom_site_type_symbol
_atom_site_label
_atom_site_fract_x
_atom_site_fract_y
_atom_site_fract_z
Si Si1 0.631422 0.157686 0.025858
Si Si2 0.863865 0.919721 0.102441
Si Si3 0.365095 0.707926 0.210663
Si Si4 0.771894 0.000000 0.500000
Si Si5 0.863761 0.972431 0.788261
Si Si6 0.289332 0.776218 0.093224
O O1 0.500000 0.177760 0.050902
O O2 0.647430 0.065143 0.031472
O O3 0.726582 0.200527 0.066573
O O4 0.633595 0.184565 0.958213
O O5 0.802517 0.839024 0.119237
O O6 0.000000 0.897840 0.089381
O O7 0.812159 0.954282 0.043780
O O8 0.849123 0.982719 0.152066
O O9 0.500000 0.723569 0.239032
O O10 0.250000 0.736751 0.250000
O O11 0.348516 0.617574 0.198831
O O12 0.368684 0.749973 0.148153
O O13 0.750000 0.001703 0.750000
O O14 0.000000 0.988671 0.761509
#
# Coordination Sequence:
#
# PCOD8262876 Si02
#       6
#    16  16  16   8  16  16
#     4  10  20  35  54  78 111 145 182 228 276 332
#     4  10  20  35  55  79 108 140 180 227 274 328
#     4  10  21  38  59  82 110 145 185 228 275 328
#     4  10  20  34  54  80 106 142 184 224 278 330
#     4   9  19  37  58  80 106 140 183 227 270 321
#     4  10  21  35  54  81 110 144 182 223 278 333
#
# _framework density 20.057435000000002
#
# number of rings (size 3 to 8) (size 9 to 14) (size 15 to 20)
#    0.000    2.182    0.000    2.727    0.000    2.182 
#    0.000   16.364    0.000    0.000    0.000    0.000 
#    0.000    0.000    0.000    0.000    0.000    0.000 
#
# Total GULP energy -545278.454769 kJ/mol
# GULP energy per Si atom -12392.692154 kJ/mol
# Density = 2.001178 g / cm^3
# Si number density = 20.057435 Si / 1000 Ang^3
#
#
#
# Elastic Constant Matrix: (Units=GPa)
#
#
# Indices 1 2 3 4 5 6 
#
# 1 124.1756 19.5805 28.9641 0.0000 0.0000 0.0000
# 2 19.5805 72.1025 8.6306 0.0000 0.0000 0.0000
# 3 28.9641 8.6306 58.1319 0.0000 0.0000 0.0000
# 4 0.0000 0.0000 0.0000 21.4573 0.0000 0.0000
# 5 0.0000 0.0000 0.0000 0.0000 23.6081 0.0000
# 6 0.0000 0.0000 0.0000 0.0000 0.0000 3.8052
#
#
#
# Elastic Compliance Matrix: (Units=1/GPa)
#
#
# Indices 1 2 3 4 5 6 
#
# 1 0.009394 -0.002027 -0.004380 0.000000 0.000000 0.000000
# 2 -0.002027 0.014557 -0.001151 0.000000 0.000000 0.000000
# 3 -0.004380 -0.001151 0.019555 0.000000 0.000000 0.000000
# 4 0.000000 0.000000 0.000000 0.046604 0.000000 0.000000
# 5 0.000000 0.000000 0.000000 0.000000 0.042358 0.000000
# 6 0.000000 0.000000 0.000000 0.000000 0.000000 0.262800
#
#
# Mechanical properties :
#
#
# Convention : Reuss Voigt Hill
#
# Bulk Modulus (GPa) = 35.22240 40.97337 38.09788
# Shear Modulus (GPa) = 11.90904 22.92311 17.41608
#
# Velocity S-wave (km/s) = 2.43934 3.38431 2.94991
# Velocity P-wave (km/s) = 5.05299 5.97861 5.53518
#
# Compressibility (1/GPa) = 0.02839103
#
# Stress axis : x y z
#
# Youngs Moduli (GPa) = 106.44747 68.69358 51.13679
#
# Poissons Ratio (x) = 0.13924 0.22397
# Poissons Ratio (y) = 0.21576 0.05888
# Poissons Ratio (z) = 0.46621 0.07909
#
# Static dielectric constant tensor:
#      x y z
#    x 3.889390 0.000000 0.000000 
#    y 0.000000 3.799660 0.000000 
#    z 0.000000 0.000000 3.400450 
# 
# 
# High freq. dielectric constant tensor:
#      x y z
#    x 1.793080 0.000000 0.000000 
#    y 0.000000 1.791010 0.000000 
#    z 0.000000 0.000000 1.761970 
# 
# From -- ./inp_files/44072.got.cif
#   From: 2010.03.12/outbox.cif.g09.slc.cpg/sg64_23_cif.got.tgz:44072.got - 2010.04.10 20:19:32.
