data_PCOD8262195
_publ_section_title
;
Structure prediction by ZEFSAII (Michael W. Deem and Ramdas Pophale) SiO2 
 PCOD8262195
Probable space group: C M C A
;
_chemical_formula_sum "Si O2"
_cell_formula_units_Z 80
_cell_length_a 8.919759
_cell_length_b 25.144120
_cell_length_c 20.074432
_cell_angle_alpha 90.000000
_cell_angle_beta 90.000000
_cell_angle_gamma 90.000000
_cell_volume 4502.283384
_symmetry_space_group_name_H-M "C M C A"
_symmetry_group_IT_number 64
_symmetry_cell_setting 'orthorhombic'
loop_
_space_group_symop_operation_xyz
x,y,z
-x,1/2-y,1/2+z
x,-y,-z
-x,1/2+y,1/2-z
-x,-y,-z
x,1/2+y,1/2-z
-x,y,z
x,1/2-y,1/2+z
1/2+x,1/2+y,z
1/2-x,-y,1/2+z
1/2+x,1/2-y,-z
1/2-x,y,1/2-z
1/2-x,1/2-y,-z
1/2+x,y,1/2-z
1/2-x,1/2+y,z
1/2+x,-y,1/2+z
loop_
_atom_site_type_symbol
_atom_site_label
_atom_site_fract_x
_atom_site_fract_y
_atom_site_fract_z
Si Si1 0.822815 0.845196 0.394988
Si Si2 0.676770 0.022864 0.430906
Si Si3 0.328286 0.128795 0.046318
Si Si4 0.825536 0.244488 0.429268
Si Si5 0.321624 0.560045 0.819818
O O1 0.776635 0.862370 0.469806
O O2 0.758594 0.785685 0.380094
O O3 0.744480 0.883687 0.342513
O O4 0.000000 0.845215 0.383997
O O5 0.500000 0.024641 0.434677
O O6 0.733746 0.082553 0.418925
O O7 0.743848 0.000000 0.500000
O O8 0.730895 0.985351 0.371179
O O9 0.500000 0.111076 0.046458
O O10 0.305466 0.182367 0.090665
O O11 0.750000 0.250000 0.500000
O O12 0.000000 0.259584 0.433954
O O13 0.500000 0.564280 0.814338
O O14 0.250000 0.543709 0.750000
#
# Coordination Sequence:
#
# PCOD8262195 Si02
#       5
#    16  16  16  16  16
#     4  10  19  32  51  77 106 139 176 217 268 320
#     4  10  20  34  53  78 106 139 179 224 273 321
#     4   9  18  30  49  78 108 138 173 217 266 314
#     4   9  17  29  46  74 107 138 171 211 262 315
#     4  11  23  38  55  77 107 143 180 222 271 326
#
# _framework density 17.768761000000001
#
# number of rings (size 3 to 8) (size 9 to 14) (size 15 to 20)
#    0.000    2.200    2.000    3.000    0.000    6.000 
#    0.000    0.000    0.000    1.200    0.000    2.800 
#    0.000    0.000    0.000    0.000    0.000    0.000 
#
# Total GULP energy -495899.891347 kJ/mol
# GULP energy per Si atom -12397.497284 kJ/mol
# Density = 1.772832 g / cm^3
# Si number density = 17.768761 Si / 1000 Ang^3
#
#
#
# Elastic Constant Matrix: (Units=GPa)
#
#
# Indices 1 2 3 4 5 6 
#
# 1 69.4643 46.9225 38.5493 0.0000 0.0000 0.0000
# 2 46.9225 135.2172 55.3737 0.0000 0.0000 0.0000
# 3 38.5493 55.3737 88.6877 0.0000 0.0000 0.0000
# 4 0.0000 0.0000 0.0000 21.8679 0.0000 0.0000
# 5 0.0000 0.0000 0.0000 0.0000 24.1256 0.0000
# 6 0.0000 0.0000 0.0000 0.0000 0.0000 37.7114
#
#
#
# Elastic Compliance Matrix: (Units=1/GPa)
#
#
# Indices 1 2 3 4 5 6 
#
# 1 0.021044 -0.004779 -0.006164 0.000000 0.000000 0.000000
# 2 -0.004779 0.011021 -0.004804 0.000000 0.000000 0.000000
# 3 -0.006164 -0.004804 0.016954 0.000000 0.000000 0.000000
# 4 0.000000 0.000000 0.000000 0.045729 0.000000 0.000000
# 5 0.000000 0.000000 0.000000 0.000000 0.041450 0.000000
# 6 0.000000 0.000000 0.000000 0.000000 0.000000 0.026517
#
#
# Mechanical properties :
#
#
# Convention : Reuss Voigt Hill
#
# Bulk Modulus (GPa) = 57.05514 63.89558 60.47536
# Shear Modulus (GPa) = 24.99366 26.90921 25.95143
#
# Velocity S-wave (km/s) = 3.75454 3.89577 3.82581
# Velocity P-wave (km/s) = 7.13968 7.50157 7.32286
#
# Compressibility (1/GPa) = 0.01752690
#
# Stress axis : x y z
#
# Youngs Moduli (GPa) = 47.51882 90.73470 58.98256
#
# Poissons Ratio (x) = 0.43359 0.36354
# Poissons Ratio (y) = 0.22707 0.28336
# Poissons Ratio (z) = 0.29289 0.43590
#
# Static dielectric constant tensor:
#      x y z
#    x 3.327600 0.000000 0.000000 
#    y 0.000000 3.696880 0.000000 
#    z 0.000000 0.000000 2.978100 
# 
# 
# High freq. dielectric constant tensor:
#      x y z
#    x 1.696340 0.000000 0.000000 
#    y 0.000000 1.703440 0.000000 
#    z 0.000000 0.000000 1.636040 
# 
# From -- ./inp_files/29750.got.cif
#   From: 2010.03.12/outbox.cif.g09.slc.cpg/sg64_15_cif.got.tgz:29750.got - 2010.04.10 20:19:32.
