data_PCOD8262265
_publ_section_title
;
Structure prediction by ZEFSAII (Michael W. Deem and Ramdas Pophale) SiO2 
 PCOD8262265
Probable space group: C M C A
;
_chemical_formula_sum "Si O2"
_cell_formula_units_Z 112
_cell_length_a 17.029534
_cell_length_b 23.232588
_cell_length_c 14.601475
_cell_angle_alpha 90.000000
_cell_angle_beta 90.000000
_cell_angle_gamma 90.000000
_cell_volume 5776.929719
_symmetry_space_group_name_H-M "C M C A"
_symmetry_group_IT_number 64
_symmetry_cell_setting 'orthorhombic'
loop_
_space_group_symop_operation_xyz
x,y,z
-x,1/2-y,1/2+z
x,-y,-z
-x,1/2+y,1/2-z
-x,-y,-z
x,1/2+y,1/2-z
-x,y,z
x,1/2-y,1/2+z
1/2+x,1/2+y,z
1/2-x,-y,1/2+z
1/2+x,1/2-y,-z
1/2-x,y,1/2-z
1/2-x,1/2-y,-z
1/2+x,y,1/2-z
1/2-x,1/2+y,z
1/2+x,-y,1/2+z
loop_
_atom_site_type_symbol
_atom_site_label
_atom_site_fract_x
_atom_site_fract_y
_atom_site_fract_z
Si Si1 0.592228 0.764738 0.097162
Si Si2 0.199989 0.891260 0.164535
Si Si3 0.089017 0.964614 0.279649
Si Si4 0.589121 0.799655 0.772245
Si Si5 0.350520 0.890765 0.062041
Si Si6 0.587690 0.296364 0.084623
Si Si7 0.906876 0.413555 0.860726
O O1 0.500000 0.780867 0.105545
O O2 0.628794 0.735939 0.189142
O O3 0.639986 0.822226 0.073733
O O4 0.606970 0.716196 0.020732
O O5 0.250000 0.866848 0.250000
O O6 0.146776 0.944974 0.197750
O O7 0.260843 0.909691 0.085251
O O8 0.145659 0.841519 0.127449
O O9 0.091600 0.921822 0.366357
O O10 0.000000 0.965788 0.242373
O O11 0.116468 0.027556 0.311427
O O12 0.500000 0.809205 0.740405
O O13 0.595420 0.764496 0.865547
O O14 0.625849 0.862196 0.795363
O O15 0.367065 0.911563 0.959898
O O16 0.500000 0.321390 0.096387
O O17 0.000000 0.407095 0.875829
#
# Coordination Sequence:
#
# PCOD8262265 Si02
#       7
#    16  16  16  16  16  16  16
#     4  10  19  32  57  88 118 152 191 237 290 348
#     4  10  22  36  55  80 117 154 187 233 290 356
#     4  10  20  35  60  85 109 146 202 250 289 341
#     4   9  17  31  53  83 116 146 182 240 294 336
#     4  11  20  34  56  85 121 147 187 240 303 354
#     4  10  19  35  59  83 113 150 195 239 283 348
#     4  10  19  34  59  88 114 145 195 255 297 335
#
# _framework density 19.387460999999998
#
# number of rings (size 3 to 8) (size 9 to 14) (size 15 to 20)
#    0.000    2.000    1.429    3.857    0.000    2.857 
#    0.000    0.000   15.714    0.000    0.000    5.000 
#    0.000    0.000    0.000    0.000    0.000    0.000 
#
# Total GULP energy -694290.398822 kJ/mol
# GULP energy per Si atom -12398.042836 kJ/mol
# Density = 1.934333 g / cm^3
# Si number density = 19.387461 Si / 1000 Ang^3
#
#
#
# Elastic Constant Matrix: (Units=GPa)
#
#
# Indices 1 2 3 4 5 6 
#
# 1 85.7028 46.7683 43.0074 0.0000 0.0000 0.0000
# 2 46.7683 99.4553 38.8846 0.0000 0.0000 0.0000
# 3 43.0074 38.8846 84.7437 0.0000 0.0000 0.0000
# 4 0.0000 0.0000 0.0000 26.3180 0.0000 0.0000
# 5 0.0000 0.0000 0.0000 0.0000 28.9442 0.0000
# 6 0.0000 0.0000 0.0000 0.0000 0.0000 8.3599
#
#
#
# Elastic Compliance Matrix: (Units=1/GPa)
#
#
# Indices 1 2 3 4 5 6 
#
# 1 0.018208 -0.006031 -0.006473 0.000000 0.000000 0.000000
# 2 -0.006031 0.014251 -0.003478 0.000000 0.000000 0.000000
# 3 -0.006473 -0.003478 0.016681 0.000000 0.000000 0.000000
# 4 0.000000 0.000000 0.000000 0.037997 0.000000 0.000000
# 5 0.000000 0.000000 0.000000 0.000000 0.034549 0.000000
# 6 0.000000 0.000000 0.000000 0.000000 0.000000 0.119618
#
#
# Mechanical properties :
#
#
# Convention : Reuss Voigt Hill
#
# Bulk Modulus (GPa) = 58.22393 58.58028 58.40211
# Shear Modulus (GPa) = 17.92154 22.14053 20.03103
#
# Velocity S-wave (km/s) = 3.04367 3.38302 3.21782
# Velocity P-wave (km/s) = 6.51528 6.74840 6.63286
#
# Compressibility (1/GPa) = 0.01717507
#
# Stress axis : x y z
#
# Youngs Moduli (GPa) = 54.92145 70.17136 59.94759
#
# Poissons Ratio (x) = 0.42323 0.38804
# Poissons Ratio (y) = 0.33125 0.20850
# Poissons Ratio (z) = 0.35550 0.24406
#
# Static dielectric constant tensor:
#      x y z
#    x 3.458830 0.000000 0.000000 
#    y 0.000000 3.531590 0.000000 
#    z 0.000000 0.000000 3.575280 
# 
# 
# High freq. dielectric constant tensor:
#      x y z
#    x 1.734710 0.000000 0.000000 
#    y 0.000000 1.750770 0.000000 
#    z 0.000000 0.000000 1.751880 
# 
# From -- ./inp_files/24247.got.cif
#   From: 2010.03.12/outbox.cif.g09.slc.cpg/sg64_13_cif.got.tgz:24247.got - 2010.04.10 20:19:32.
