data_PCOD8262586
_publ_section_title
;
Structure prediction by ZEFSAII (Michael W. Deem and Ramdas Pophale) SiO2 
 PCOD8262586
Probable space group: C M C A
;
_chemical_formula_sum "Si O2"
_cell_formula_units_Z 80
_cell_length_a 15.961573
_cell_length_b 19.527123
_cell_length_c 14.338315
_cell_angle_alpha 90.000000
_cell_angle_beta 90.000000
_cell_angle_gamma 90.000000
_cell_volume 4469.017626
_symmetry_space_group_name_H-M "C M C A"
_symmetry_group_IT_number 64
_symmetry_cell_setting 'orthorhombic'
loop_
_space_group_symop_operation_xyz
x,y,z
-x,1/2-y,1/2+z
x,-y,-z
-x,1/2+y,1/2-z
-x,-y,-z
x,1/2+y,1/2-z
-x,y,z
x,1/2-y,1/2+z
1/2+x,1/2+y,z
1/2-x,-y,1/2+z
1/2+x,1/2-y,-z
1/2-x,y,1/2-z
1/2-x,1/2-y,-z
1/2+x,y,1/2-z
1/2-x,1/2+y,z
1/2+x,-y,1/2+z
loop_
_atom_site_type_symbol
_atom_site_label
_atom_site_fract_x
_atom_site_fract_y
_atom_site_fract_z
Si Si1 0.195759 0.141223 0.158252
Si Si2 0.731501 0.673747 0.525194
Si Si3 0.598031 0.715353 0.655796
Si Si4 0.331809 0.619460 0.807571
Si Si5 0.402801 0.011314 0.395629
O O1 0.250000 0.140633 0.250000
O O2 0.140879 0.210330 0.156115
O O3 0.135404 0.076504 0.156194
O O4 0.260506 0.132359 0.071386
O O5 0.750000 0.750000 0.500000
O O6 0.639790 0.668814 0.573553
O O7 0.804822 0.650956 0.594450
O O8 0.500000 0.722896 0.636022
O O9 0.614051 0.676808 0.753550
O O10 0.250000 0.596914 0.750000
O O11 0.387768 0.553354 0.828388
O O12 0.500000 0.025980 0.405000
O O13 0.364976 0.000000 0.500000
#
# Coordination Sequence:
#
# PCOD8262586 Si02
#       5
#    16  16  16  16  16
#     4  11  21  38  57  81 114 153 193 234 282 346
#     4   9  18  34  54  78 109 146 184 224 273 335
#     4  10  20  35  57  86 115 147 188 238 285 335
#     4  10  19  36  58  81 112 151 191 228 281 346
#     4  11  22  36  56  85 115 148 189 240 290 335
#
# _framework density 17.901026000000002
#
# number of rings (size 3 to 8) (size 9 to 14) (size 15 to 20)
#    0.000    1.800    2.000    4.800    0.000    0.000 
#    0.000    7.000    0.000    0.000    0.000    7.000 
#    0.000    0.000    0.000    0.000    0.000    0.000 
#
# Total GULP energy -495834.999048 kJ/mol
# GULP energy per Si atom -12395.874976 kJ/mol
# Density = 1.786028 g / cm^3
# Si number density = 17.901026 Si / 1000 Ang^3
#
#
#
# Elastic Constant Matrix: (Units=GPa)
#
#
# Indices 1 2 3 4 5 6 
#
# 1 110.7397 43.4701 55.9793 0.0000 0.0000 0.0000
# 2 43.4701 102.0723 38.1838 0.0000 0.0000 0.0000
# 3 55.9793 38.1838 125.3827 0.0000 0.0000 0.0000
# 4 0.0000 0.0000 0.0000 29.1308 0.0000 0.0000
# 5 0.0000 0.0000 0.0000 0.0000 17.8232 0.0000
# 6 0.0000 0.0000 0.0000 0.0000 0.0000 26.6741
#
#
#
# Elastic Compliance Matrix: (Units=1/GPa)
#
#
# Indices 1 2 3 4 5 6 
#
# 1 0.012816 -0.003744 -0.004582 0.000000 0.000000 0.000000
# 2 -0.003744 0.012150 -0.002029 0.000000 0.000000 0.000000
# 3 -0.004582 -0.002029 0.010639 0.000000 0.000000 0.000000
# 4 0.000000 0.000000 0.000000 0.034328 0.000000 0.000000
# 5 0.000000 0.000000 0.000000 0.000000 0.056107 0.000000
# 6 0.000000 0.000000 0.000000 0.000000 0.000000 0.037490
#
#
# Mechanical properties :
#
#
# Convention : Reuss Voigt Hill
#
# Bulk Modulus (GPa) = 67.12996 68.16234 67.64615
# Shear Modulus (GPa) = 26.42657 28.09641 27.26149
#
# Velocity S-wave (km/s) = 3.84638 3.96604 3.90667
# Velocity P-wave (km/s) = 7.57022 7.68978 7.63023
#
# Compressibility (1/GPa) = 0.01489648
#
# Stress axis : x y z
#
# Youngs Moduli (GPa) = 78.02771 82.30205 93.99407
#
# Poissons Ratio (x) = 0.30814 0.43065
# Poissons Ratio (y) = 0.29214 0.19068
# Poissons Ratio (z) = 0.35750 0.16696
#
# Static dielectric constant tensor:
#      x y z
#    x 3.331300 0.000000 0.000000 
#    y 0.000000 3.380750 0.000000 
#    z 0.000000 0.000000 3.801630 
# 
# 
# High freq. dielectric constant tensor:
#      x y z
#    x 1.679770 0.000000 0.000000 
#    y 0.000000 1.693820 0.000000 
#    z 0.000000 0.000000 1.704760 
# 
# From -- ./inp_files/14452.got.cif
#   From: 2010.03.12/outbox.cif.g09.slc.cpg/sg64_8_cif.got.tgz:14452.got - 2010.04.10 20:19:32.
