data_PCOD8262180
_publ_section_title
;
Structure prediction by ZEFSAII (Michael W. Deem and Ramdas Pophale) SiO2 
 PCOD8262180
Probable space group: C M C A
;
_chemical_formula_sum "Si O2"
_cell_formula_units_Z 96
_cell_length_a 9.162791
_cell_length_b 29.300035
_cell_length_c 20.385471
_cell_angle_alpha 90.000000
_cell_angle_beta 90.000000
_cell_angle_gamma 90.000000
_cell_volume 5472.889377
_symmetry_space_group_name_H-M "C M C A"
_symmetry_group_IT_number 64
_symmetry_cell_setting 'orthorhombic'
loop_
_space_group_symop_operation_xyz
x,y,z
-x,1/2-y,1/2+z
x,-y,-z
-x,1/2+y,1/2-z
-x,-y,-z
x,1/2+y,1/2-z
-x,y,z
x,1/2-y,1/2+z
1/2+x,1/2+y,z
1/2-x,-y,1/2+z
1/2+x,1/2-y,-z
1/2-x,y,1/2-z
1/2-x,1/2-y,-z
1/2+x,y,1/2-z
1/2-x,1/2+y,z
1/2+x,-y,1/2+z
loop_
_atom_site_type_symbol
_atom_site_label
_atom_site_fract_x
_atom_site_fract_y
_atom_site_fract_z
Si Si1 0.825208 0.715140 0.049164
Si Si2 0.834040 0.502087 0.688113
Si Si3 0.165787 0.386579 0.976096
Si Si4 0.325582 0.803322 0.683941
Si Si5 0.336100 0.596670 0.146762
Si Si6 0.167150 0.031426 0.561201
O O1 0.784588 0.665895 0.017889
O O2 0.750551 0.720231 0.120819
O O3 0.000000 0.723096 0.054216
O O4 0.750000 0.750000 0.000000
O O5 0.750000 0.523408 0.750000
O O6 0.819278 0.447197 0.693014
O O7 0.770692 0.521772 0.621525
O O8 0.000000 0.518075 0.692482
O O9 0.246029 0.413236 0.918362
O O10 0.000000 0.387910 0.953769
O O11 0.190029 0.415054 0.042831
O O12 0.500000 0.793742 0.684218
O O13 0.250000 0.783384 0.750000
O O14 0.286396 0.857225 0.683296
O O15 0.500000 0.603448 0.122497
O O16 0.000000 0.021508 0.581149
O O17 0.212549 0.000000 0.500000
#
# Coordination Sequence:
#
# PCOD8262180 Si02
#       6
#    16  16  16  16  16  16
#     4  10  20  35  55  79 106 136 172 214 262 312
#     4  11  22  33  47  70 102 140 178 218 259 302
#     4   9  18  32  52  76 101 133 170 210 254 303
#     4  10  19  32  50  75 106 139 171 208 256 311
#     4   9  18  30  46  71 103 136 170 207 250 302
#     4  10  19  33  53  75 101 135 174 211 251 301
#
# _framework density 17.541008999999999
#
# number of rings (size 3 to 8) (size 9 to 14) (size 15 to 20)
#    0.000    2.167    1.667    2.000    0.000    3.000 
#    0.000    0.000    0.000    1.000    0.000    4.667 
#    0.000    0.000    0.000    0.000    0.000    0.000 
#
# Total GULP energy -595015.369642 kJ/mol
# GULP energy per Si atom -12396.153534 kJ/mol
# Density = 1.750108 g / cm^3
# Si number density = 17.541009 Si / 1000 Ang^3
#
#
#
# Elastic Constant Matrix: (Units=GPa)
#
#
# Indices 1 2 3 4 5 6 
#
# 1 105.7122 32.9844 79.2388 0.0000 0.0000 0.0000
# 2 32.9844 53.8615 42.1043 0.0000 0.0000 0.0000
# 3 79.2388 42.1043 133.7188 0.0000 0.0000 0.0000
# 4 0.0000 0.0000 0.0000 18.6940 0.0000 0.0000
# 5 0.0000 0.0000 0.0000 0.0000 36.7511 0.0000
# 6 0.0000 0.0000 0.0000 0.0000 0.0000 17.5868
#
#
#
# Elastic Compliance Matrix: (Units=1/GPa)
#
#
# Indices 1 2 3 4 5 6 
#
# 1 0.017493 -0.003461 -0.009276 0.000000 0.000000 0.000000
# 2 -0.003461 0.025313 -0.005919 0.000000 0.000000 0.000000
# 3 -0.009276 -0.005919 0.014839 0.000000 0.000000 0.000000
# 4 0.000000 0.000000 0.000000 0.053493 0.000000 0.000000
# 5 0.000000 0.000000 0.000000 0.000000 0.027210 0.000000
# 6 0.000000 0.000000 0.000000 0.000000 0.000000 0.056861
#
#
# Mechanical properties :
#
#
# Convention : Reuss Voigt Hill
#
# Bulk Modulus (GPa) = 49.18448 66.88305 58.03377
# Shear Modulus (GPa) = 20.89441 23.87070 22.38256
#
# Velocity S-wave (km/s) = 3.45508 3.69297 3.57601
# Velocity P-wave (km/s) = 6.63456 7.50975 7.08568
#
# Compressibility (1/GPa) = 0.02033162
#
# Stress axis : x y z
#
# Youngs Moduli (GPa) = 57.16734 39.50540 67.39074
#
# Poissons Ratio (x) = 0.13674 0.62510
# Poissons Ratio (y) = 0.19787 0.39890
# Poissons Ratio (z) = 0.53027 0.23384
#
# Static dielectric constant tensor:
#      x y z
#    x 3.352730 0.000000 0.000000 
#    y 0.000000 3.198020 0.000000 
#    z 0.000000 0.000000 3.118630 
# 
# 
# High freq. dielectric constant tensor:
#      x y z
#    x 1.690270 0.000000 0.000000 
#    y 0.000000 1.648840 0.000000 
#    z 0.000000 0.000000 1.669820 
# 
# From -- ./inp_files/36939.got.cif
#   From: 2010.03.12/outbox.cif.g09.slc.cpg/sg64_19_cif.got.tgz:36939.got - 2010.04.10 20:19:32.
