data_PCOD8262737
_publ_section_title
;
Structure prediction by ZEFSAII (Michael W. Deem and Ramdas Pophale) SiO2 
 PCOD8262737
Probable space group: C M C A
;
_chemical_formula_sum "Si O2"
_cell_formula_units_Z 96
_cell_length_a 20.215202
_cell_length_b 12.163956
_cell_length_c 22.381507
_cell_angle_alpha 90.000000
_cell_angle_beta 90.000000
_cell_angle_gamma 90.000000
_cell_volume 5503.541570
_symmetry_space_group_name_H-M "C M C A"
_symmetry_group_IT_number 64
_symmetry_cell_setting 'orthorhombic'
loop_
_space_group_symop_operation_xyz
x,y,z
-x,1/2-y,1/2+z
x,-y,-z
-x,1/2+y,1/2-z
-x,-y,-z
x,1/2+y,1/2-z
-x,y,z
x,1/2-y,1/2+z
1/2+x,1/2+y,z
1/2-x,-y,1/2+z
1/2+x,1/2-y,-z
1/2-x,y,1/2-z
1/2-x,1/2-y,-z
1/2+x,y,1/2-z
1/2-x,1/2+y,z
1/2+x,-y,1/2+z
loop_
_atom_site_type_symbol
_atom_site_label
_atom_site_fract_x
_atom_site_fract_y
_atom_site_fract_z
Si Si1 0.575627 0.529493 0.684206
Si Si2 0.813168 0.873837 0.822281
Si Si3 0.926079 0.757690 0.384183
Si Si4 0.617246 0.410501 0.184826
Si Si5 0.668956 0.173491 0.187170
Si Si6 0.000000 0.450048 0.404177
Si Si7 0.500000 0.171831 0.480333
O O1 0.500000 0.491013 0.680645
O O2 0.593370 0.618301 0.633050
O O3 0.588483 0.585481 0.748315
O O4 0.619003 0.423138 0.669893
O O5 0.869513 0.825396 0.864316
O O6 0.739332 0.847768 0.845500
O O7 0.822213 0.819654 0.757886
O O8 0.820907 0.005804 0.818867
O O9 0.935183 0.740242 0.456294
O O10 0.000000 0.731016 0.355165
O O11 0.640535 0.289721 0.166003
O O12 0.563654 0.448818 0.137232
O O13 0.000000 0.556396 0.445110
O O14 0.000000 0.343640 0.448674
#
# Coordination Sequence:
#
# PCOD8262737 Si02
#       7
#    16  16  16  16  16   8   8
#     4  10  20  32  52  80 111 143 176 204 269 327
#     4  10  20  33  48  76 111 149 170 205 263 324
#     4   9  17  34  56  74  99 141 179 217 253 321
#     4  11  20  33  53  79 111 136 173 225 268 304
#     4  10  23  30  49  79 118 144 169 209 262 332
#     4  11  20  33  55  87 101 129 179 245 264 303
#     4   9  20  35  55  83 101 133 187 221 282 295
#
# _framework density 17.443313
#
# number of rings (size 3 to 8) (size 9 to 14) (size 15 to 20)
#    0.500    1.500    4.167    0.000    3.500    2.000 
#    0.000    0.000    0.000    3.000    4.333    0.000 
#    0.000    0.000    0.000    0.000    0.000    0.000 
#
# Total GULP energy -594789.408477 kJ/mol
# GULP energy per Si atom -12391.446010 kJ/mol
# Density = 1.740361 g / cm^3
# Si number density = 17.443313 Si / 1000 Ang^3
#
#
#
# Elastic Constant Matrix: (Units=GPa)
#
#
# Indices 1 2 3 4 5 6 
#
# 1 94.6717 39.6110 7.1076 0.0000 0.0000 0.0000
# 2 39.6110 94.2139 2.5863 0.0000 0.0000 0.0000
# 3 7.1076 2.5863 21.7068 0.0000 0.0000 0.0000
# 4 0.0000 0.0000 0.0000 17.8436 0.0000 0.0000
# 5 0.0000 0.0000 0.0000 0.0000 0.4650 0.0000
# 6 0.0000 0.0000 0.0000 0.0000 0.0000 10.0098
#
#
#
# Elastic Compliance Matrix: (Units=1/GPa)
#
#
# Indices 1 2 3 4 5 6 
#
# 1 0.013099 -0.005407 -0.003645 0.000000 0.000000 0.000000
# 2 -0.005407 0.012881 0.000236 0.000000 0.000000 0.000000
# 3 -0.003645 0.000236 0.047234 0.000000 0.000000 0.000000
# 4 0.000000 0.000000 0.000000 0.056042 0.000000 0.000000
# 5 0.000000 0.000000 0.000000 0.000000 2.150582 0.000000
# 6 0.000000 0.000000 0.000000 0.000000 0.000000 0.099902
#
#
# Mechanical properties :
#
#
# Convention : Reuss Voigt Hill
#
# Bulk Modulus (GPa) = 17.99162 34.35579 26.17371
# Shear Modulus (GPa) = 2.06962 16.41618 9.24290
#
# Velocity S-wave (km/s) = 1.09044 3.07109 2.30441
# Velocity P-wave (km/s) = 3.45284 5.68453 4.70298
#
# Compressibility (1/GPa) = 0.05558145
#
# Stress axis : x y z
#
# Youngs Moduli (GPa) = 76.34261 77.63337 21.17122
#
# Poissons Ratio (x) = 0.41978 0.07716
# Poissons Ratio (y) = 0.41280 -0.00499
# Poissons Ratio (z) = 0.27825 -0.01831
#
# Static dielectric constant tensor:
#      x y z
#    x 3.312260 0.000000 0.000000 
#    y 0.000000 3.257830 0.000000 
#    z 0.000000 0.000000 3.044060 
# 
# 
# High freq. dielectric constant tensor:
#      x y z
#    x 1.675060 0.000000 0.000000 
#    y 0.000000 1.682890 0.000000 
#    z 0.000000 0.000000 1.624470 
# 
# From -- ./inp_files/50401.got.cif
#   From: 2010.03.12/outbox.cif.g09.slc.cpg/sg64_26_cif.got.tgz:50401.got - 2010.04.10 20:19:32.
