data_PCOD8262361
_publ_section_title
;
Structure prediction by ZEFSAII (Michael W. Deem and Ramdas Pophale) SiO2 
 PCOD8262361
Probable space group: C M C A
;
_chemical_formula_sum "Si O2"
_cell_formula_units_Z 112
_cell_length_a 19.536627
_cell_length_b 24.690029
_cell_length_c 11.196587
_cell_angle_alpha 90.000000
_cell_angle_beta 90.000000
_cell_angle_gamma 90.000000
_cell_volume 5400.784442
_symmetry_space_group_name_H-M "C M C A"
_symmetry_group_IT_number 64
_symmetry_cell_setting 'orthorhombic'
loop_
_space_group_symop_operation_xyz
x,y,z
-x,1/2-y,1/2+z
x,-y,-z
-x,1/2+y,1/2-z
-x,-y,-z
x,1/2+y,1/2-z
-x,y,z
x,1/2-y,1/2+z
1/2+x,1/2+y,z
1/2-x,-y,1/2+z
1/2+x,1/2-y,-z
1/2-x,y,1/2-z
1/2-x,1/2-y,-z
1/2+x,y,1/2-z
1/2-x,1/2+y,z
1/2+x,-y,1/2+z
loop_
_atom_site_type_symbol
_atom_site_label
_atom_site_fract_x
_atom_site_fract_y
_atom_site_fract_z
Si Si1 0.685732 0.197956 0.164744
Si Si2 0.924089 0.885116 0.638159
Si Si3 0.325773 0.817759 0.303133
Si Si4 0.377435 0.895606 0.120088
Si Si5 0.578129 0.501981 0.247641
Si Si6 0.243953 0.625041 0.505033
Si Si7 0.288850 0.024653 0.373486
O O1 0.750000 0.196740 0.250000
O O2 0.627454 0.155458 0.206036
O O3 0.651019 0.257342 0.159335
O O4 0.714785 0.178991 0.036199
O O5 0.920131 0.878010 0.495654
O O6 0.000000 0.870815 0.682547
O O7 0.904783 0.947055 0.667199
O O8 0.250000 0.814296 0.250000
O O9 0.379558 0.844895 0.212480
O O10 0.322186 0.856678 0.419524
O O11 0.412391 0.947855 0.176713
O O12 0.298017 0.908722 0.086877
O O13 0.500000 0.504419 0.199087
O O14 0.632203 0.505395 0.138929
O O15 0.219244 0.589435 0.391809
O O16 0.250000 0.007263 0.250000
O O17 0.261521 0.000000 0.500000
#
# Coordination Sequence:
#
# PCOD8262361 Si02
#       7
#    16  16  16  16  16  16  16
#     4  10  19  34  57  84 116 150 193 246 302 360
#     4  10  21  37  57  83 116 156 202 249 299 359
#     4   9  19  34  55  85 115 149 191 245 302 355
#     4  10  19  35  57  84 116 154 201 249 300 357
#     4  11  23  39  59  85 119 158 198 244 301 362
#     4  10  19  33  56  85 118 151 196 248 301 355
#     4  12  24  39  61  90 124 160 202 250 303 362
#
# _framework density 20.737729000000002
#
# number of rings (size 3 to 8) (size 9 to 14) (size 15 to 20)
#    0.000    1.714    0.000    6.000    0.000    3.714 
#    0.000    1.429    0.000    2.571    0.000    0.000 
#    0.000    0.000    0.000    0.000    0.000    0.000 
#
# Total GULP energy -694033.145545 kJ/mol
# GULP energy per Si atom -12393.449028 kJ/mol
# Density = 2.069053 g / cm^3
# Si number density = 20.737729 Si / 1000 Ang^3
#
#
#
# Elastic Constant Matrix: (Units=GPa)
#
#
# Indices 1 2 3 4 5 6 
#
# 1 77.9638 47.6825 24.6470 0.0000 0.0000 0.0000
# 2 47.6825 113.8305 38.0077 0.0000 0.0000 0.0000
# 3 24.6470 38.0077 93.0812 0.0000 0.0000 0.0000
# 4 0.0000 0.0000 0.0000 34.1922 0.0000 0.0000
# 5 0.0000 0.0000 0.0000 0.0000 27.0262 0.0000
# 6 0.0000 0.0000 0.0000 0.0000 0.0000 18.7798
#
#
#
# Elastic Compliance Matrix: (Units=1/GPa)
#
#
# Indices 1 2 3 4 5 6 
#
# 1 0.017531 -0.006708 -0.001903 0.000000 0.000000 0.000000
# 2 -0.006708 0.012739 -0.003425 0.000000 0.000000 0.000000
# 3 -0.001903 -0.003425 0.012646 0.000000 0.000000 0.000000
# 4 0.000000 0.000000 0.000000 0.029246 0.000000 0.000000
# 5 0.000000 0.000000 0.000000 0.000000 0.037001 0.000000
# 6 0.000000 0.000000 0.000000 0.000000 0.000000 0.053249
#
#
# Mechanical properties :
#
#
# Convention : Reuss Voigt Hill
#
# Bulk Modulus (GPa) = 53.07113 56.17222 54.62168
# Shear Modulus (GPa) = 25.93837 27.63554 26.78696
#
# Velocity S-wave (km/s) = 3.54048 3.65447 3.59792
# Velocity P-wave (km/s) = 6.50849 6.70467 6.60731
#
# Compressibility (1/GPa) = 0.01884264
#
# Stress axis : x y z
#
# Youngs Moduli (GPa) = 57.04293 78.50133 79.07754
#
# Poissons Ratio (x) = 0.52659 0.15047
# Poissons Ratio (y) = 0.38265 0.27087
# Poissons Ratio (z) = 0.10854 0.26889
#
# Static dielectric constant tensor:
#      x y z
#    x 3.589080 0.000000 0.000000 
#    y 0.000000 4.018610 0.000000 
#    z 0.000000 0.000000 3.794560 
# 
# 
# High freq. dielectric constant tensor:
#      x y z
#    x 1.781740 0.000000 0.000000 
#    y 0.000000 1.817750 0.000000 
#    z 0.000000 0.000000 1.802530 
# 
# From -- ./inp_files/17542.got.cif
#   From: 2010.03.12/outbox.cif.g09.slc.cpg/sg64_9_cif.got.tgz:17542.got - 2010.04.10 20:19:32.
