data_PCOD8262376
_publ_section_title
;
Structure prediction by ZEFSAII (Michael W. Deem and Ramdas Pophale) SiO2 
 PCOD8262376
Probable space group: C M C A
;
_chemical_formula_sum "Si O2"
_cell_formula_units_Z 96
_cell_length_a 18.423752
_cell_length_b 9.704235
_cell_length_c 26.617682
_cell_angle_alpha 90.000000
_cell_angle_beta 90.000000
_cell_angle_gamma 90.000000
_cell_volume 4758.933282
_symmetry_space_group_name_H-M "C M C A"
_symmetry_group_IT_number 64
_symmetry_cell_setting 'orthorhombic'
loop_
_space_group_symop_operation_xyz
x,y,z
-x,1/2-y,1/2+z
x,-y,-z
-x,1/2+y,1/2-z
-x,-y,-z
x,1/2+y,1/2-z
-x,y,z
x,1/2-y,1/2+z
1/2+x,1/2+y,z
1/2-x,-y,1/2+z
1/2+x,1/2-y,-z
1/2-x,y,1/2-z
1/2-x,1/2-y,-z
1/2+x,y,1/2-z
1/2-x,1/2+y,z
1/2+x,-y,1/2+z
loop_
_atom_site_type_symbol
_atom_site_label
_atom_site_fract_x
_atom_site_fract_y
_atom_site_fract_z
Si Si1 0.214339 0.743414 0.918173
Si Si2 0.344474 0.654277 0.988078
Si Si3 0.913435 0.388352 0.295772
Si Si4 0.808490 0.455947 0.869842
Si Si5 0.580587 0.254188 0.100784
Si Si6 0.666841 0.626155 0.260035
O O1 0.283238 0.719152 0.953116
O O2 0.196369 0.615067 0.883633
O O3 0.233212 0.873581 0.881901
O O4 0.148288 0.772168 0.957282
O O5 0.416427 0.668719 0.953651
O O6 0.322562 0.500000 0.000000
O O7 0.894451 0.357100 0.354276
O O8 0.869328 0.526439 0.281543
O O9 0.883225 0.261883 0.262519
O O10 0.000000 0.406879 0.286686
O O11 0.872467 0.384513 0.901382
O O12 0.831526 0.455601 0.812165
O O13 0.500000 0.205243 0.111983
O O14 0.750000 0.669593 0.250000
#
# Coordination Sequence:
#
# PCOD8262376 Si02
#       6
#    16  16  16  16  16  16
#     4  10  20  35  56  86 116 152 188 237 301 359
#     4  10  19  33  57  84 115 153 194 235 291 360
#     4  10  22  43  62  84 122 170 201 240 311 378
#     4  10  22  37  59  82 121 151 192 244 305 355
#     4   9  21  39  59  81 115 160 198 239 295 355
#     4  11  24  36  62  94 121 151 205 263 301 349
#
# _framework density 20.172588999999999
#
# number of rings (size 3 to 8) (size 9 to 14) (size 15 to 20)
#    0.000    2.000    1.667    1.000    9.333    1.000 
#    0.000    1.667    0.000    0.000    0.000    0.000 
#    0.000    0.000    0.000    0.000    0.000    0.000 
#
# Total GULP energy -594843.570155 kJ/mol
# GULP energy per Si atom -12392.574378 kJ/mol
# Density = 2.012668 g / cm^3
# Si number density = 20.172589 Si / 1000 Ang^3
#
#
#
# Elastic Constant Matrix: (Units=GPa)
#
#
# Indices 1 2 3 4 5 6 
#
# 1 76.6467 13.8160 21.1675 0.0000 0.0000 0.0000
# 2 13.8160 71.8476 25.7624 0.0000 0.0000 0.0000
# 3 21.1675 25.7624 54.9950 0.0000 0.0000 0.0000
# 4 0.0000 0.0000 0.0000 32.7597 0.0000 0.0000
# 5 0.0000 0.0000 0.0000 0.0000 27.2642 0.0000
# 6 0.0000 0.0000 0.0000 0.0000 0.0000 15.7418
#
#
#
# Elastic Compliance Matrix: (Units=1/GPa)
#
#
# Indices 1 2 3 4 5 6 
#
# 1 0.014653 -0.000956 -0.005192 0.000000 0.000000 0.000000
# 2 -0.000956 0.016791 -0.007498 0.000000 0.000000 0.000000
# 3 -0.005192 -0.007498 0.023694 0.000000 0.000000 0.000000
# 4 0.000000 0.000000 0.000000 0.030525 0.000000 0.000000
# 5 0.000000 0.000000 0.000000 0.000000 0.036678 0.000000
# 6 0.000000 0.000000 0.000000 0.000000 0.000000 0.063525
#
#
# Mechanical properties :
#
#
# Convention : Reuss Voigt Hill
#
# Bulk Modulus (GPa) = 35.91124 36.10902 36.01013
# Shear Modulus (GPa) = 22.47796 24.66936 23.57366
#
# Velocity S-wave (km/s) = 3.34171 3.50081 3.42219
# Velocity P-wave (km/s) = 5.72101 5.85490 5.78834
#
# Compressibility (1/GPa) = 0.02784643
#
# Stress axis : x y z
#
# Youngs Moduli (GPa) = 68.24487 59.55719 42.20446
#
# Poissons Ratio (x) = 0.05694 0.21913
# Poissons Ratio (y) = 0.06524 0.31643
# Poissons Ratio (z) = 0.35434 0.44654
#
# Static dielectric constant tensor:
#      x y z
#    x 3.661910 0.000000 0.000000 
#    y 0.000000 3.534470 0.000000 
#    z 0.000000 0.000000 4.284180 
# 
# 
# High freq. dielectric constant tensor:
#      x y z
#    x 1.765140 0.000000 0.000000 
#    y 0.000000 1.780690 0.000000 
#    z 0.000000 0.000000 1.799870 
# 
# From -- ./inp_files/50683.got.cif
#   From: 2010.03.12/outbox.cif.g09.slc.cpg/sg64_26_cif.got.tgz:50683.got - 2010.04.10 20:19:32.
