data_PCOD8262211
_publ_section_title
;
Structure prediction by ZEFSAII (Michael W. Deem and Ramdas Pophale) SiO2 
 PCOD8262211
Probable space group: C M C A
;
_chemical_formula_sum "Si O2"
_cell_formula_units_Z 96
_cell_length_a 9.098095
_cell_length_b 29.798340
_cell_length_c 19.445901
_cell_angle_alpha 90.000000
_cell_angle_beta 90.000000
_cell_angle_gamma 90.000000
_cell_volume 5271.941821
_symmetry_space_group_name_H-M "C M C A"
_symmetry_group_IT_number 64
_symmetry_cell_setting 'orthorhombic'
loop_
_space_group_symop_operation_xyz
x,y,z
-x,1/2-y,1/2+z
x,-y,-z
-x,1/2+y,1/2-z
-x,-y,-z
x,1/2+y,1/2-z
-x,y,z
x,1/2-y,1/2+z
1/2+x,1/2+y,z
1/2-x,-y,1/2+z
1/2+x,1/2-y,-z
1/2-x,y,1/2-z
1/2-x,1/2-y,-z
1/2+x,y,1/2-z
1/2-x,1/2+y,z
1/2+x,-y,1/2+z
loop_
_atom_site_type_symbol
_atom_site_label
_atom_site_fract_x
_atom_site_fract_y
_atom_site_fract_z
Si Si1 0.324921 0.480901 0.428325
Si Si2 0.172940 0.141893 0.409920
Si Si3 0.671690 0.815793 0.180708
Si Si4 0.827547 0.945571 0.677409
Si Si5 0.172309 0.712269 0.320100
Si Si6 0.674616 0.619245 0.562282
O O1 0.261797 0.500000 0.500000
O O2 0.500000 0.482332 0.431272
O O3 0.268718 0.511640 0.365572
O O4 0.266563 0.430249 0.417967
O O5 0.213144 0.099062 0.364116
O O6 0.261300 0.184780 0.383168
O O7 0.230526 0.133081 0.486940
O O8 0.000000 0.152300 0.407996
O O9 0.500000 0.823895 0.191067
O O10 0.750000 0.831903 0.250000
O O11 0.706980 0.764122 0.164427
O O12 0.734776 0.845318 0.117952
O O13 0.750000 0.944549 0.750000
O O14 0.000000 0.949044 0.689844
O O15 0.250000 0.696453 0.250000
O O16 0.000000 0.702835 0.312687
O O17 0.500000 0.618877 0.561499
#
# Coordination Sequence:
#
# PCOD8262211 Si02
#       6
#    16  16  16  16  16  16
#     4   9  15  29  52  75  98 129 170 207 240 290
#     4  10  19  32  52  77 103 133 169 208 252 302
#     4   9  19  35  53  74 101 133 170 213 255 299
#     4  10  20  32  50  77 104 131 166 208 250 295
#     4  10  20  34  51  72 101 136 171 208 254 302
#     4   9  17  31  53  77 101 132 170 210 252 301
#
# _framework density 18.209607999999999
#
# number of rings (size 3 to 8) (size 9 to 14) (size 15 to 20)
#    0.000    2.500    1.667    1.000    0.000    4.000 
#    0.000    0.833    0.000    1.500    0.000    0.000 
#    0.000    0.000    0.000    0.000    0.000    0.000 
#
# Total GULP energy -595238.715878 kJ/mol
# GULP energy per Si atom -12400.806581 kJ/mol
# Density = 1.816816 g / cm^3
# Si number density = 18.209608 Si / 1000 Ang^3
#
#
#
# Elastic Constant Matrix: (Units=GPa)
#
#
# Indices 1 2 3 4 5 6 
#
# 1 32.6202 37.5108 42.8137 0.0000 0.0000 0.0000
# 2 37.5108 127.4011 93.7743 0.0000 0.0000 0.0000
# 3 42.8137 93.7743 180.8220 0.0000 0.0000 0.0000
# 4 0.0000 0.0000 0.0000 40.2315 0.0000 0.0000
# 5 0.0000 0.0000 0.0000 0.0000 25.2507 0.0000
# 6 0.0000 0.0000 0.0000 0.0000 0.0000 16.7662
#
#
#
# Elastic Compliance Matrix: (Units=1/GPa)
#
#
# Indices 1 2 3 4 5 6 
#
# 1 0.051260 -0.009962 -0.006971 0.000000 0.000000 0.000000
# 2 -0.009962 0.014631 -0.005229 0.000000 0.000000 0.000000
# 3 -0.006971 -0.005229 0.009893 0.000000 0.000000 0.000000
# 4 0.000000 0.000000 0.000000 0.024856 0.000000 0.000000
# 5 0.000000 0.000000 0.000000 0.000000 0.039603 0.000000
# 6 0.000000 0.000000 0.000000 0.000000 0.000000 0.059644
#
#
# Mechanical properties :
#
#
# Convention : Reuss Voigt Hill
#
# Bulk Modulus (GPa) = 31.78562 76.56009 54.17286
# Shear Modulus (GPa) = 19.63120 27.56599 23.59859
#
# Velocity S-wave (km/s) = 3.28696 3.89500 3.60382
# Velocity P-wave (km/s) = 5.64790 7.89703 6.86520
#
# Compressibility (1/GPa) = 0.03146077
#
# Stress axis : x y z
#
# Youngs Moduli (GPa) = 19.50832 68.34756 101.08554
#
# Poissons Ratio (x) = 0.68085 0.70466
# Poissons Ratio (y) = 0.19433 0.52858
# Poissons Ratio (z) = 0.13599 0.35739
#
# Static dielectric constant tensor:
#      x y z
#    x 2.968760 0.000000 0.000000 
#    y 0.000000 3.561540 0.000000 
#    z 0.000000 0.000000 3.481360 
# 
# 
# High freq. dielectric constant tensor:
#      x y z
#    x 1.665170 0.000000 0.000000 
#    y 0.000000 1.716820 0.000000 
#    z 0.000000 0.000000 1.713120 
# 
# From -- ./inp_files/37018.got.cif
#   From: 2010.03.12/outbox.cif.g09.slc.cpg/sg64_19_cif.got.tgz:37018.got - 2010.04.10 20:19:32.
