data_PCOD8262489
_publ_section_title
;
Structure prediction by ZEFSAII (Michael W. Deem and Ramdas Pophale) SiO2 
 PCOD8262489
Probable space group: C M C A
;
_chemical_formula_sum "Si O2"
_cell_formula_units_Z 88
_cell_length_a 13.757088
_cell_length_b 13.592903
_cell_length_c 21.909954
_cell_angle_alpha 90.000000
_cell_angle_beta 90.000000
_cell_angle_gamma 90.000000
_cell_volume 4097.134290
_symmetry_space_group_name_H-M "C M C A"
_symmetry_group_IT_number 64
_symmetry_cell_setting 'orthorhombic'
loop_
_space_group_symop_operation_xyz
x,y,z
-x,1/2-y,1/2+z
x,-y,-z
-x,1/2+y,1/2-z
-x,-y,-z
x,1/2+y,1/2-z
-x,y,z
x,1/2-y,1/2+z
1/2+x,1/2+y,z
1/2-x,-y,1/2+z
1/2+x,1/2-y,-z
1/2-x,y,1/2-z
1/2-x,1/2-y,-z
1/2+x,y,1/2-z
1/2-x,1/2+y,z
1/2+x,-y,1/2+z
loop_
_atom_site_type_symbol
_atom_site_label
_atom_site_fract_x
_atom_site_fract_y
_atom_site_fract_z
Si Si1 0.774302 0.954651 0.346081
Si Si2 0.887341 0.038703 0.933727
Si Si3 0.607498 0.400576 0.462797
Si Si4 0.886389 0.732670 0.065611
Si Si5 0.116102 0.139883 0.307974
Si Si6 0.250000 0.712935 0.750000
O O1 0.676556 0.003017 0.376951
O O2 0.837958 0.914629 0.400633
O O3 0.752769 0.857047 0.308250
O O4 0.831710 0.033041 0.303546
O O5 0.864126 0.153336 0.934386
O O6 0.000000 0.012877 0.921417
O O7 0.853531 0.000000 0.000000
O O8 0.603864 0.500000 0.500000
O O9 0.500000 0.365374 0.444572
O O10 0.660039 0.318315 0.505480
O O11 0.848284 0.682059 0.127106
O O12 0.000000 0.710279 0.062838
O O13 0.155942 0.214806 0.256164
O O14 0.000000 0.129047 0.300575
#
# Coordination Sequence:
#
# PCOD8262489 Si02
#       6
#    16  16  16  16  16   8
#     4  12  24  41  68 100 131 177 239 284 330 407
#     4  10  22  40  64  98 140 182 221 276 351 418
#     4  10  19  34  62 101 132 159 208 278 350 407
#     4   9  18  37  64  93 129 170 208 265 347 410
#     4  11  24  46  70  95 134 179 224 282 344 400
#     4  12  28  46  64  96 134 184 236 270 334 406
#
# _framework density 21.478427
#
# number of rings (size 3 to 8) (size 9 to 14) (size 15 to 20)
#    0.000    1.455    3.636    1.636    0.000    3.636 
#    0.000    2.727    0.000    0.000    0.000    0.000 
#    0.000    0.000    0.000    0.000    0.000    0.000 
#
# Total GULP energy -545374.908338 kJ/mol
# GULP energy per Si atom -12394.884280 kJ/mol
# Density = 2.142954 g / cm^3
# Si number density = 21.478427 Si / 1000 Ang^3
#
#
#
# Elastic Constant Matrix: (Units=GPa)
#
#
# Indices 1 2 3 4 5 6 
#
# 1 113.4338 36.4815 42.3966 0.0000 0.0000 0.0000
# 2 36.4815 77.5593 14.7668 0.0000 0.0000 0.0000
# 3 42.3966 14.7668 69.2832 0.0000 0.0000 0.0000
# 4 0.0000 0.0000 0.0000 47.6809 0.0000 0.0000
# 5 0.0000 0.0000 0.0000 0.0000 56.7154 0.0000
# 6 0.0000 0.0000 0.0000 0.0000 0.0000 30.4775
#
#
#
# Elastic Compliance Matrix: (Units=1/GPa)
#
#
# Indices 1 2 3 4 5 6 
#
# 1 0.012925 -0.004767 -0.006893 0.000000 0.000000 0.000000
# 2 -0.004767 0.015197 -0.000322 0.000000 0.000000 0.000000
# 3 -0.006893 -0.000322 0.018720 0.000000 0.000000 0.000000
# 4 0.000000 0.000000 0.000000 0.020973 0.000000 0.000000
# 5 0.000000 0.000000 0.000000 0.000000 0.017632 0.000000
# 6 0.000000 0.000000 0.000000 0.000000 0.000000 0.032811
#
#
# Mechanical properties :
#
#
# Convention : Reuss Voigt Hill
#
# Bulk Modulus (GPa) = 43.71032 49.72956 46.71994
# Shear Modulus (GPa) = 33.36686 38.08350 35.72518
#
# Velocity S-wave (km/s) = 3.94573 4.21539 4.08279
# Velocity P-wave (km/s) = 6.41509 6.84808 6.63512
#
# Compressibility (1/GPa) = 0.02287789
#
# Stress axis : x y z
#
# Youngs Moduli (GPa) = 77.36744 65.80249 53.41774
#
# Poissons Ratio (x) = 0.31369 0.36823
# Poissons Ratio (y) = 0.36883 0.01719
# Poissons Ratio (z) = 0.53332 0.02118
#
# Static dielectric constant tensor:
#      x y z
#    x 4.151670 0.000000 0.000000 
#    y 0.000000 4.065200 0.000000 
#    z 0.000000 0.000000 3.703850 
# 
# 
# High freq. dielectric constant tensor:
#      x y z
#    x 1.842530 0.000000 0.000000 
#    y 0.000000 1.845360 0.000000 
#    z 0.000000 0.000000 1.837850 
# 
# From -- ./inp_files/39089.got.cif
#   From: 2010.03.12/outbox.cif.g09.slc.cpg/sg64_20_cif.got.tgz:39089.got - 2010.04.10 20:19:32.
