data_PCOD8262884
_publ_section_title
;
Structure prediction by ZEFSAII (Michael W. Deem and Ramdas Pophale) SiO2 
 PCOD8262884
Probable space group: C M C A
;
_chemical_formula_sum "Si O2"
_cell_formula_units_Z 64
_cell_length_a 23.237250
_cell_length_b 7.897717
_cell_length_c 16.239860
_cell_angle_alpha 90.000000
_cell_angle_beta 90.000000
_cell_angle_gamma 90.000000
_cell_volume 2980.358991
_symmetry_space_group_name_H-M "C M C A"
_symmetry_group_IT_number 64
_symmetry_cell_setting 'orthorhombic'
loop_
_space_group_symop_operation_xyz
x,y,z
-x,1/2-y,1/2+z
x,-y,-z
-x,1/2+y,1/2-z
-x,-y,-z
x,1/2+y,1/2-z
-x,y,z
x,1/2-y,1/2+z
1/2+x,1/2+y,z
1/2-x,-y,1/2+z
1/2+x,1/2-y,-z
1/2-x,y,1/2-z
1/2-x,1/2-y,-z
1/2+x,y,1/2-z
1/2-x,1/2+y,z
1/2+x,-y,1/2+z
loop_
_atom_site_type_symbol
_atom_site_label
_atom_site_fract_x
_atom_site_fract_y
_atom_site_fract_z
Si Si1 0.672639 0.138105 0.096768
Si Si2 0.773349 0.032938 0.840169
Si Si3 0.862065 0.159294 0.056346
Si Si4 0.437419 0.447688 0.406496
O O1 0.697456 0.283509 0.156495
O O2 0.718149 0.982625 0.099085
O O3 0.611060 0.072229 0.132563
O O4 0.668007 0.201649 0.002962
O O5 0.750000 0.990661 0.750000
O O6 0.819870 0.893997 0.869938
O O7 0.917049 0.250825 0.097796
O O8 0.881317 0.000000 0.000000
O O9 0.445488 0.500000 0.500000
O O10 0.500000 0.464637 0.361711
#
# Coordination Sequence:
#
# PCOD8262884 Si02
#       4
#    16  16  16  16
#     4  10  20  34  54  80 113 149 185 230 285 339
#     4  11  21  34  54  81 113 145 185 235 285 341
#     4   9  19  34  55  86 118 147 182 229 285 342
#     4   9  18  34  56  81 110 146 188 232 276 329
#
# _framework density 21.473924
#
# number of rings (size 3 to 8) (size 9 to 14) (size 15 to 20)
#    0.000    2.250    0.000    3.000    0.000    7.500 
#    0.000    5.000    0.000    6.000    0.000    0.000 
#    0.000    0.000    0.000    0.000    0.000    1.750 
#
# Total GULP energy -396507.084537 kJ/mol
# GULP energy per Si atom -12390.846392 kJ/mol
# Density = 2.142505 g / cm^3
# Si number density = 21.473924 Si / 1000 Ang^3
#
#
#
# Elastic Constant Matrix: (Units=GPa)
#
#
# Indices 1 2 3 4 5 6 
#
# 1 199.0559 102.3757 31.7769 0.0000 0.0000 0.0000
# 2 102.3757 122.5210 40.9305 0.0000 0.0000 0.0000
# 3 31.7769 40.9305 54.8057 0.0000 0.0000 0.0000
# 4 0.0000 0.0000 0.0000 18.8939 0.0000 0.0000
# 5 0.0000 0.0000 0.0000 0.0000 8.2800 0.0000
# 6 0.0000 0.0000 0.0000 0.0000 0.0000 24.0773
#
#
#
# Elastic Compliance Matrix: (Units=1/GPa)
#
#
# Indices 1 2 3 4 5 6 
#
# 1 0.008821 -0.007544 0.000520 0.000000 0.000000 0.000000
# 2 -0.007544 0.017327 -0.008566 0.000000 0.000000 0.000000
# 3 0.000520 -0.008566 0.024343 0.000000 0.000000 0.000000
# 4 0.000000 0.000000 0.000000 0.052927 0.000000 0.000000
# 5 0.000000 0.000000 0.000000 0.000000 0.120772 0.000000
# 6 0.000000 0.000000 0.000000 0.000000 0.000000 0.041533
#
#
# Mechanical properties :
#
#
# Convention : Reuss Voigt Hill
#
# Bulk Modulus (GPa) = 51.78885 80.72767 66.25826
# Shear Modulus (GPa) = 16.48314 23.67021 20.07667
#
# Velocity S-wave (km/s) = 2.77354 3.32366 3.06098
# Velocity P-wave (km/s) = 5.86738 7.23905 6.58901
#
# Compressibility (1/GPa) = 0.01930918
#
# Stress axis : x y z
#
# Youngs Moduli (GPa) = 113.37024 57.71272 41.08036
#
# Poissons Ratio (x) = 0.43538 -0.02135
# Poissons Ratio (y) = 0.85526 0.35191
# Poissons Ratio (z) = -0.05892 0.49439
#
# Static dielectric constant tensor:
#      x y z
#    x 4.517280 0.000000 0.000000 
#    y 0.000000 4.313000 0.000000 
#    z 0.000000 0.000000 3.318440 
# 
# 
# High freq. dielectric constant tensor:
#      x y z
#    x 1.836460 0.000000 0.000000 
#    y 0.000000 1.862540 0.000000 
#    z 0.000000 0.000000 1.794390 
# 
# From -- ./inp_files/26909.got.cif
#   From: 2010.03.12/outbox.cif.g09.slc.cpg/sg64_14_cif.got.tgz:26909.got - 2010.04.10 20:19:32.
