data_PCOD8262035
_publ_section_title
;
Structure prediction by ZEFSAII (Michael W. Deem and Ramdas Pophale) SiO2 
 PCOD8262035
Probable space group: C M C A
;
_chemical_formula_sum "Si O2"
_cell_formula_units_Z 96
_cell_length_a 14.206762
_cell_length_b 21.283105
_cell_length_c 12.795463
_cell_angle_alpha 90.000000
_cell_angle_beta 90.000000
_cell_angle_gamma 90.000000
_cell_volume 3868.887469
_symmetry_space_group_name_H-M "C M C A"
_symmetry_group_IT_number 64
_symmetry_cell_setting 'orthorhombic'
loop_
_space_group_symop_operation_xyz
x,y,z
-x,1/2-y,1/2+z
x,-y,-z
-x,1/2+y,1/2-z
-x,-y,-z
x,1/2+y,1/2-z
-x,y,z
x,1/2-y,1/2+z
1/2+x,1/2+y,z
1/2-x,-y,1/2+z
1/2+x,1/2-y,-z
1/2-x,y,1/2-z
1/2-x,1/2-y,-z
1/2+x,y,1/2-z
1/2-x,1/2+y,z
1/2+x,-y,1/2+z
loop_
_atom_site_type_symbol
_atom_site_label
_atom_site_fract_x
_atom_site_fract_y
_atom_site_fract_z
Si Si1 0.728086 0.547770 0.095340
Si Si2 0.895679 0.038648 0.781236
Si Si3 0.389731 0.866493 0.900829
Si Si4 0.604096 0.134164 0.530399
Si Si5 0.888736 0.647312 0.861859
Si Si6 0.888120 0.235988 0.814823
O O1 0.675408 0.518045 0.194802
O O2 0.831826 0.571315 0.131617
O O3 0.739237 0.500000 0.000000
O O4 0.670354 0.610232 0.062544
O O5 0.905824 0.080379 0.883781
O O6 0.852035 0.080697 0.686263
O O7 0.000000 0.012291 0.752889
O O8 0.500000 0.882340 0.894716
O O9 0.360401 0.808895 0.825340
O O10 0.358888 0.847067 0.018559
O O11 0.500000 0.148659 0.483386
O O12 0.649520 0.195668 0.585763
O O13 0.848520 0.706716 0.794416
O O14 0.000000 0.646644 0.847647
O O15 0.000000 0.228522 0.818623
#
# Coordination Sequence:
#
# PCOD8262035 Si02
#       6
#    16  16  16  16  16  16
#     4  10  19  30  48  76 107 144 188 232 281 335
#     4   8  14  28  52  79 105 134 176 236 293 334
#     4  10  20  33  53  81 112 152 195 228 273 344
#     4   8  14  27  49  76 104 134 173 227 289 342
#     4   8  15  31  56  82 107 142 190 239 287 340
#     4   8  15  30  52  77 107 142 181 231 286 336
#
# _framework density 24.813333
#
# number of rings (size 3 to 8) (size 9 to 14) (size 15 to 20)
#    0.000    3.333    0.000    2.500    0.000    3.000 
#    0.000    7.500    0.000    8.000    0.000   14.000 
#    0.000    4.000    0.000    0.000    0.000    0.000 
#
# Total GULP energy -595013.062620 kJ/mol
# GULP energy per Si atom -12396.105471 kJ/mol
# Density = 2.475686 g / cm^3
# Si number density = 24.813333 Si / 1000 Ang^3
#
#
#
# Elastic Constant Matrix: (Units=GPa)
#
#
# Indices 1 2 3 4 5 6 
#
# 1 86.2419 51.9920 29.3609 0.0000 0.0000 0.0000
# 2 51.9920 110.3149 37.0455 0.0000 0.0000 0.0000
# 3 29.3609 37.0455 72.6669 0.0000 0.0000 0.0000
# 4 0.0000 0.0000 0.0000 14.5754 0.0000 0.0000
# 5 0.0000 0.0000 0.0000 0.0000 21.6685 0.0000
# 6 0.0000 0.0000 0.0000 0.0000 0.0000 31.7465
#
#
#
# Elastic Compliance Matrix: (Units=1/GPa)
#
#
# Indices 1 2 3 4 5 6 
#
# 1 0.016839 -0.006819 -0.003327 0.000000 0.000000 0.000000
# 2 -0.006819 0.013699 -0.004228 0.000000 0.000000 0.000000
# 3 -0.003327 -0.004228 0.017262 0.000000 0.000000 0.000000
# 4 0.000000 0.000000 0.000000 0.068609 0.000000 0.000000
# 5 0.000000 0.000000 0.000000 0.000000 0.046150 0.000000
# 6 0.000000 0.000000 0.000000 0.000000 0.000000 0.031500
#
#
# Mechanical properties :
#
#
# Convention : Reuss Voigt Hill
#
# Bulk Modulus (GPa) = 52.49452 56.22452 54.35952
# Shear Modulus (GPa) = 21.81911 23.65310 22.73610
#
# Velocity S-wave (km/s) = 2.96857 3.09081 3.03031
# Velocity P-wave (km/s) = 5.74034 5.95363 5.84796
#
# Compressibility (1/GPa) = 0.01904961
#
# Stress axis : x y z
#
# Youngs Moduli (GPa) = 59.38603 72.99959 57.93228
#
# Poissons Ratio (x) = 0.49778 0.19277
# Poissons Ratio (y) = 0.40495 0.24496
# Poissons Ratio (z) = 0.19761 0.30867
#
# Static dielectric constant tensor:
#      x y z
#    x 4.524370 0.000000 0.000000 
#    y 0.000000 4.495530 0.000000 
#    z 0.000000 0.000000 4.317710 
# 
# 
# High freq. dielectric constant tensor:
#      x y z
#    x 1.982360 0.000000 0.000000 
#    y 0.000000 1.972900 0.000000 
#    z 0.000000 0.000000 1.968600 
# 
# From -- ./inp_files/23856.got.cif
#   From: 2010.03.12/outbox.cif.g09.slc.cpg/sg64_12_cif.got.tgz:23856.got - 2010.04.10 20:19:32.
