data_PCOD8262930
_publ_section_title
;
Structure prediction by ZEFSAII (Michael W. Deem and Ramdas Pophale) SiO2 
 PCOD8262930
Probable space group: C M C A
;
_chemical_formula_sum "Si O2"
_cell_formula_units_Z 96
_cell_length_a 8.949266
_cell_length_b 20.444121
_cell_length_c 28.001825
_cell_angle_alpha 90.000000
_cell_angle_beta 90.000000
_cell_angle_gamma 90.000000
_cell_volume 5123.210457
_symmetry_space_group_name_H-M "C M C A"
_symmetry_group_IT_number 64
_symmetry_cell_setting 'orthorhombic'
loop_
_space_group_symop_operation_xyz
x,y,z
-x,1/2-y,1/2+z
x,-y,-z
-x,1/2+y,1/2-z
-x,-y,-z
x,1/2+y,1/2-z
-x,y,z
x,1/2-y,1/2+z
1/2+x,1/2+y,z
1/2-x,-y,1/2+z
1/2+x,1/2-y,-z
1/2-x,y,1/2-z
1/2-x,1/2-y,-z
1/2+x,y,1/2-z
1/2-x,1/2+y,z
1/2+x,-y,1/2+z
loop_
_atom_site_type_symbol
_atom_site_label
_atom_site_fract_x
_atom_site_fract_y
_atom_site_fract_z
Si Si1 0.676137 0.826074 0.299544
Si Si2 0.673556 0.995265 0.444681
Si Si3 0.675471 0.748620 0.550677
Si Si4 0.676255 0.122122 0.890893
Si Si5 0.175226 0.675565 0.200872
Si Si6 0.826017 0.628044 0.389537
O O1 0.500000 0.836223 0.295899
O O2 0.750000 0.848006 0.250000
O O3 0.741612 0.873309 0.340119
O O4 0.718368 0.750729 0.310983
O O5 0.500000 0.975646 0.440072
O O6 0.774573 0.942206 0.418704
O O7 0.720570 0.000000 0.500000
O O8 0.708727 0.063612 0.419523
O O9 0.500000 0.751480 0.543218
O O10 0.750000 0.750000 0.500000
O O11 0.726911 0.683747 0.577803
O O12 0.732935 0.811023 0.579831
O O13 0.500000 0.120996 0.882041
O O14 0.250000 0.653090 0.250000
O O15 0.236030 0.627546 0.159936
O O16 0.000000 0.666388 0.206021
O O17 0.000000 0.635197 0.377388
#
# Coordination Sequence:
#
# PCOD8262930 Si02
#       6
#    16  16  16  16  16  16
#     4  10  20  35  58  87 118 152 189 233 287 345
#     4  10  22  40  61  82 113 158 199 237 288 346
#     4  10  21  35  55  82 111 145 188 238 287 334
#     4  11  22  37  58  85 117 151 190 240 290 342
#     4  10  20  34  57  87 117 150 186 233 286 342
#     4  10  20  37  58  82 114 151 191 236 283 339
#
# _framework density 18.738251000000002
#
# number of rings (size 3 to 8) (size 9 to 14) (size 15 to 20)
#    0.000    1.833    1.667    2.500    0.000    5.667 
#    0.000    0.833    0.000    4.000    0.000    0.000 
#    0.000    0.000    0.000    0.000    0.000    0.000 
#
# Total GULP energy -595449.201684 kJ/mol
# GULP energy per Si atom -12405.191702 kJ/mol
# Density = 1.869560 g / cm^3
# Si number density = 18.738251 Si / 1000 Ang^3
#
#
#
# Elastic Constant Matrix: (Units=GPa)
#
#
# Indices 1 2 3 4 5 6 
#
# 1 71.1710 38.3237 62.8320 0.0000 0.0000 0.0000
# 2 38.3237 94.2550 58.0895 0.0000 0.0000 0.0000
# 3 62.8320 58.0895 170.0080 0.0000 0.0000 0.0000
# 4 0.0000 0.0000 0.0000 30.6576 0.0000 0.0000
# 5 0.0000 0.0000 0.0000 0.0000 40.2244 0.0000
# 6 0.0000 0.0000 0.0000 0.0000 0.0000 28.6005
#
#
#
# Elastic Compliance Matrix: (Units=1/GPa)
#
#
# Indices 1 2 3 4 5 6 
#
# 1 0.022660 -0.005133 -0.006621 0.000000 0.000000 0.000000
# 2 -0.005133 0.014602 -0.003092 0.000000 0.000000 0.000000
# 3 -0.006621 -0.003092 0.009386 0.000000 0.000000 0.000000
# 4 0.000000 0.000000 0.000000 0.032618 0.000000 0.000000
# 5 0.000000 0.000000 0.000000 0.000000 0.024861 0.000000
# 6 0.000000 0.000000 0.000000 0.000000 0.000000 0.034964
#
#
# Mechanical properties :
#
#
# Convention : Reuss Voigt Hill
#
# Bulk Modulus (GPa) = 58.97799 72.65827 65.81813
# Shear Modulus (GPa) = 28.66399 31.64242 30.15321
#
# Velocity S-wave (km/s) = 3.91539 4.11378 4.01581
# Velocity P-wave (km/s) = 7.20995 7.83733 7.53018
#
# Compressibility (1/GPa) = 0.01695548
#
# Stress axis : x y z
#
# Youngs Moduli (GPa) = 44.13141 68.48192 106.54584
#
# Poissons Ratio (x) = 0.35151 0.70541
# Poissons Ratio (y) = 0.22652 0.32948
# Poissons Ratio (z) = 0.29218 0.21177
#
# Static dielectric constant tensor:
#      x y z
#    x 3.422330 0.000000 0.000000 
#    y 0.000000 3.348430 0.000000 
#    z 0.000000 0.000000 3.497980 
# 
# 
# High freq. dielectric constant tensor:
#      x y z
#    x 1.729600 0.000000 0.000000 
#    y 0.000000 1.713460 0.000000 
#    z 0.000000 0.000000 1.743240 
# 
# From -- ./inp_files/48042.got.cif
#   From: 2010.03.12/outbox.cif.g09.slc.cpg/sg64_25_cif.got.tgz:48042.got - 2010.04.10 20:19:32.
