data_PCOD8262279
_publ_section_title
;
Structure prediction by ZEFSAII (Michael W. Deem and Ramdas Pophale) SiO2 
 PCOD8262279
Probable space group: C M C A
;
_chemical_formula_sum "Si O2"
_cell_formula_units_Z 80
_cell_length_a 7.703071
_cell_length_b 19.202106
_cell_length_c 29.205907
_cell_angle_alpha 90.000000
_cell_angle_beta 90.000000
_cell_angle_gamma 90.000000
_cell_volume 4319.997162
_symmetry_space_group_name_H-M "C M C A"
_symmetry_group_IT_number 64
_symmetry_cell_setting 'orthorhombic'
loop_
_space_group_symop_operation_xyz
x,y,z
-x,1/2-y,1/2+z
x,-y,-z
-x,1/2+y,1/2-z
-x,-y,-z
x,1/2+y,1/2-z
-x,y,z
x,1/2-y,1/2+z
1/2+x,1/2+y,z
1/2-x,-y,1/2+z
1/2+x,1/2-y,-z
1/2-x,y,1/2-z
1/2-x,1/2-y,-z
1/2+x,y,1/2-z
1/2-x,1/2+y,z
1/2+x,-y,1/2+z
loop_
_atom_site_type_symbol
_atom_site_label
_atom_site_fract_x
_atom_site_fract_y
_atom_site_fract_z
Si Si1 0.296106 0.163939 0.300288
Si Si2 0.500000 0.080068 0.447560
Si Si3 0.797779 0.087057 0.616672
Si Si4 0.202763 0.320263 0.200298
Si Si5 0.807214 0.925921 0.616406
Si Si6 0.000000 0.915052 0.049348
O O1 0.500000 0.160574 0.309486
O O2 0.250000 0.135295 0.250000
O O3 0.219813 0.242445 0.305265
O O4 0.199726 0.115683 0.336441
O O5 0.671245 0.104844 0.420246
O O6 0.500000 0.115469 0.497747
O O7 0.500000 0.997801 0.452785
O O8 0.727565 0.128961 0.660810
O O9 0.676020 0.110726 0.574414
O O10 0.000000 0.102861 0.604946
O O11 0.766760 0.006201 0.627726
O O12 0.250000 0.351562 0.250000
O O13 0.000000 0.314786 0.195457
O O14 0.000000 0.918537 0.595219
#
# Coordination Sequence:
#
# PCOD8262279 Si02
#       6
#    16   8  16  16  16   8
#     4  10  19  33  51  74 105 138 175 210 246 303
#     4   9  18  34  52  79 104 128 173 210 256 310
#     4   9  19  34  51  78 106 131 170 212 256 303
#     4   9  19  33  50  74 103 137 174 209 248 301
#     4  10  19  33  53  77 106 135 167 212 258 300
#     4   9  18  32  56  77 100 136 165 212 262 302
#
# _framework density 18.518529999999998
#
# number of rings (size 3 to 8) (size 9 to 14) (size 15 to 20)
#    0.000    2.600    1.000    0.600    1.400    2.400 
#    0.000    6.000    0.000    1.200    0.000    0.000 
#    0.000    0.000    0.000    0.000    0.000    0.000 
#
# Total GULP energy -495920.099451 kJ/mol
# GULP energy per Si atom -12398.002486 kJ/mol
# Density = 1.847638 g / cm^3
# Si number density = 18.518530 Si / 1000 Ang^3
#
#
#
# Elastic Constant Matrix: (Units=GPa)
#
#
# Indices 1 2 3 4 5 6 
#
# 1 96.9608 27.2084 59.4753 0.0000 0.0000 0.0000
# 2 27.2084 47.1609 50.7482 0.0000 0.0000 0.0000
# 3 59.4753 50.7482 166.9031 0.0000 0.0000 0.0000
# 4 0.0000 0.0000 0.0000 13.4793 0.0000 0.0000
# 5 0.0000 0.0000 0.0000 0.0000 30.5713 0.0000
# 6 0.0000 0.0000 0.0000 0.0000 0.0000 15.8672
#
#
#
# Elastic Compliance Matrix: (Units=1/GPa)
#
#
# Indices 1 2 3 4 5 6 
#
# 1 0.013672 -0.003931 -0.003677 0.000000 0.000000 0.000000
# 2 -0.003931 0.032646 -0.008525 0.000000 0.000000 0.000000
# 3 -0.003677 -0.008525 0.009894 0.000000 0.000000 0.000000
# 4 0.000000 0.000000 0.000000 0.074188 0.000000 0.000000
# 5 0.000000 0.000000 0.000000 0.000000 0.032710 0.000000
# 6 0.000000 0.000000 0.000000 0.000000 0.000000 0.063023
#
#
# Mechanical properties :
#
#
# Convention : Reuss Voigt Hill
#
# Bulk Modulus (GPa) = 41.76237 65.09873 53.43055
# Shear Modulus (GPa) = 18.77008 23.55641 21.16325
#
# Velocity S-wave (km/s) = 3.18714 3.57044 3.38422
# Velocity P-wave (km/s) = 6.01202 7.22683 6.64723
#
# Compressibility (1/GPa) = 0.02394500
#
# Stress axis : x y z
#
# Youngs Moduli (GPa) = 73.14313 30.63167 101.07350
#
# Poissons Ratio (x) = 0.12043 0.37160
# Poissons Ratio (y) = 0.28756 0.86168
# Poissons Ratio (z) = 0.26891 0.26114
#
# Static dielectric constant tensor:
#      x y z
#    x 3.503960 0.000000 0.000000 
#    y 0.000000 3.331480 0.000000 
#    z 0.000000 0.000000 3.322170 
# 
# 
# High freq. dielectric constant tensor:
#      x y z
#    x 1.730310 0.000000 0.000000 
#    y 0.000000 1.686370 0.000000 
#    z 0.000000 0.000000 1.712650 
# 
# From -- ./inp_files/42777.got.cif
#   From: 2010.03.12/outbox.cif.g09.slc.cpg/sg64_22_cif.got.tgz:42777.got - 2010.04.10 20:19:32.
