data_PCOD8262669
_publ_section_title
;
Structure prediction by ZEFSAII (Michael W. Deem and Ramdas Pophale) SiO2 
 PCOD8262669
Probable space group: C M C A
;
_chemical_formula_sum "Si O2"
_cell_formula_units_Z 96
_cell_length_a 13.801061
_cell_length_b 23.317036
_cell_length_c 15.403119
_cell_angle_alpha 90.000000
_cell_angle_beta 90.000000
_cell_angle_gamma 90.000000
_cell_volume 4956.721171
_symmetry_space_group_name_H-M "C M C A"
_symmetry_group_IT_number 64
_symmetry_cell_setting 'orthorhombic'
loop_
_space_group_symop_operation_xyz
x,y,z
-x,1/2-y,1/2+z
x,-y,-z
-x,1/2+y,1/2-z
-x,-y,-z
x,1/2+y,1/2-z
-x,y,z
x,1/2-y,1/2+z
1/2+x,1/2+y,z
1/2-x,-y,1/2+z
1/2+x,1/2-y,-z
1/2-x,y,1/2-z
1/2-x,1/2-y,-z
1/2+x,y,1/2-z
1/2-x,1/2+y,z
1/2+x,-y,1/2+z
loop_
_atom_site_type_symbol
_atom_site_label
_atom_site_fract_x
_atom_site_fract_y
_atom_site_fract_z
Si Si1 0.703764 0.749362 0.906136
Si Si2 0.293126 0.434905 0.509644
Si Si3 0.706060 0.638057 0.161066
Si Si4 0.500000 0.180845 0.871242
Si Si5 0.294618 0.137582 0.837022
Si Si6 0.500000 0.693682 0.176866
Si Si7 0.500000 0.393738 0.540992
Si Si8 0.000000 0.283537 0.870065
O O1 0.735774 0.803493 0.850395
O O2 0.730142 0.692960 0.854552
O O3 0.589275 0.753176 0.917458
O O4 0.750000 0.750000 0.000000
O O5 0.258737 0.500000 0.500000
O O6 0.224832 0.404459 0.580443
O O7 0.282679 0.406075 0.416016
O O8 0.405263 0.433459 0.539894
O O9 0.750000 0.610578 0.250000
O O10 0.592086 0.652222 0.164262
O O11 0.405399 0.157128 0.821405
O O12 0.500000 0.250119 0.885713
O O13 0.500000 0.154431 0.966764
O O14 0.250000 0.108702 0.750000
O O15 0.500000 0.727649 0.267780
O O16 0.500000 0.353390 0.625656
#
# Coordination Sequence:
#
# PCOD8262669 Si02
#       8
#    16  16  16   8  16   8   8   8
#     4  12  21  37  61  94 131 162 192 254 313 375
#     4  11  24  42  63  87 118 162 217 266 309 364
#     4  12  23  40  62  91 127 165 210 254 318 377
#     4  10  20  33  58  88 119 155 193 237 308 380
#     4  11  22  39  59  89 126 157 199 252 311 374
#     4  12  22  34  59  91 128 169 193 245 310 390
#     4  10  19  38  62  86 113 152 203 266 311 355
#     4  12  22  35  60  95 128 162 207 242 307 391
#
# _framework density 19.367640999999999
#
# number of rings (size 3 to 8) (size 9 to 14) (size 15 to 20)
#    0.000    0.667    6.667    2.750    0.000    0.667 
#    0.000    1.250    0.000    2.000    0.000    0.000 
#    0.000    0.000    0.000    0.000    0.000    0.000 
#
# Total GULP energy -595263.331400 kJ/mol
# GULP energy per Si atom -12401.319404 kJ/mol
# Density = 1.932356 g / cm^3
# Si number density = 19.367641 Si / 1000 Ang^3
#
#
#
# Elastic Constant Matrix: (Units=GPa)
#
#
# Indices 1 2 3 4 5 6 
#
# 1 167.0930 42.3993 53.3873 0.0000 0.0000 0.0000
# 2 42.3993 109.9752 35.4995 0.0000 0.0000 0.0000
# 3 53.3873 35.4995 107.2384 0.0000 0.0000 0.0000
# 4 0.0000 0.0000 0.0000 -3.7986 0.0000 0.0000
# 5 0.0000 0.0000 0.0000 0.0000 30.4326 0.0000
# 6 0.0000 0.0000 0.0000 0.0000 0.0000 19.8932
#
#
#
# Elastic Compliance Matrix: (Units=1/GPa)
#
#
# Indices 1 2 3 4 5 6 
#
# 1 0.007447 -0.001875 -0.003087 0.000000 0.000000 0.000000
# 2 -0.001875 0.010653 -0.002593 0.000000 0.000000 0.000000
# 3 -0.003087 -0.002593 0.011720 0.000000 0.000000 0.000000
# 4 0.000000 0.000000 0.000000 -0.263252 0.000000 0.000000
# 5 0.000000 0.000000 0.000000 0.000000 0.032860 0.000000
# 6 0.000000 0.000000 0.000000 0.000000 0.000000 0.050268
#
#
# Mechanical properties :
#
#
# Convention : Reuss Voigt Hill
#
# Bulk Modulus (GPa) = 67.97806 71.87541 69.92674
# Shear Modulus (GPa) = -38.37516 26.17346 -6.10085
#
# Velocity S-wave (km/s) = -4.45613 3.68013 -1.77676
# Velocity P-wave (km/s) = 2.94939 7.43300 5.65457
#
# Compressibility (1/GPa) = 0.01471063
#
# Stress axis : x y z
#
# Youngs Moduli (GPa) = 134.29028 93.87258 85.32355
#
# Poissons Ratio (x) = 0.17597 0.26336
# Poissons Ratio (y) = 0.25174 0.22126
# Poissons Ratio (z) = 0.41450 0.24343
#
# Static dielectric constant tensor:
#      x y z
#    x 3.002890 0.000000 0.000000 
#    y 0.000000 3.265490 0.000000 
#    z 0.000000 0.000000 3.692300 
# 
# 
# High freq. dielectric constant tensor:
#      x y z
#    x 1.765110 0.000000 0.000000 
#    y 0.000000 1.720710 0.000000 
#    z 0.000000 0.000000 1.764950 
# 
# From -- ./inp_files/24003.got.cif
#   From: 2010.03.12/outbox.cif.g09.slc.cpg/sg64_13_cif.got.tgz:24003.got - 2010.04.10 20:19:32.
