data_PCOD8262128
_publ_section_title
;
Structure prediction by ZEFSAII (Michael W. Deem and Ramdas Pophale) SiO2 
 PCOD8262128
Probable space group: C M C A
;
_chemical_formula_sum "Si O2"
_cell_formula_units_Z 80
_cell_length_a 9.178402
_cell_length_b 19.234737
_cell_length_c 25.554436
_cell_angle_alpha 90.000000
_cell_angle_beta 90.000000
_cell_angle_gamma 90.000000
_cell_volume 4511.486145
_symmetry_space_group_name_H-M "C M C A"
_symmetry_group_IT_number 64
_symmetry_cell_setting 'orthorhombic'
loop_
_space_group_symop_operation_xyz
x,y,z
-x,1/2-y,1/2+z
x,-y,-z
-x,1/2+y,1/2-z
-x,-y,-z
x,1/2+y,1/2-z
-x,y,z
x,1/2-y,1/2+z
1/2+x,1/2+y,z
1/2-x,-y,1/2+z
1/2+x,1/2-y,-z
1/2-x,y,1/2-z
1/2-x,1/2-y,-z
1/2+x,y,1/2-z
1/2-x,1/2+y,z
1/2+x,-y,1/2+z
loop_
_atom_site_type_symbol
_atom_site_label
_atom_site_fract_x
_atom_site_fract_y
_atom_site_fract_z
Si Si1 0.329458 0.620824 0.962613
Si Si2 0.328852 0.485712 0.392633
Si Si3 0.167353 0.379174 0.196116
Si Si4 0.169277 0.724995 0.891796
Si Si5 0.332573 0.120031 0.415206
O O1 0.500000 0.615966 0.950168
O O2 0.251689 0.552087 0.940614
O O3 0.265144 0.690565 0.937220
O O4 0.297170 0.625032 0.023751
O O5 0.500000 0.485424 0.404325
O O6 0.292371 0.446201 0.338756
O O7 0.270101 0.563819 0.387382
O O8 0.250000 0.381683 0.250000
O O9 0.208741 0.309618 0.163890
O O10 0.000000 0.379314 0.211112
O O11 0.203765 0.806429 0.888248
O O12 0.000000 0.711036 0.905754
O O13 0.500000 0.098999 0.405966
#
# Coordination Sequence:
#
# PCOD8262128 Si02
#       5
#    16  16  16  16  16
#     4  10  19  31  50  76 104 138 176 204 237 292
#     4  10  21  35  51  74 103 134 170 209 249 296
#     4   9  19  36  56  74  93 124 166 209 254 303
#     4   9  19  35  52  74 104 134 166 205 250 297
#     4  10  20  33  50  75 108 139 166 204 249 292
#
# _framework density 17.732516
#
# number of rings (size 3 to 8) (size 9 to 14) (size 15 to 20)
#    0.000    2.400    0.000    3.600    0.000    8.800 
#    0.000    1.000    0.000    4.800    0.000    0.000 
#    0.000    0.000    0.000    0.000    0.000    0.000 
#
# Total GULP energy -496091.075944 kJ/mol
# GULP energy per Si atom -12402.276899 kJ/mol
# Density = 1.769216 g / cm^3
# Si number density = 17.732516 Si / 1000 Ang^3
#
#
#
# Elastic Constant Matrix: (Units=GPa)
#
#
# Indices 1 2 3 4 5 6 
#
# 1 88.0872 68.9056 65.2005 0.0000 0.0000 0.0000
# 2 68.9056 142.9492 67.0224 0.0000 0.0000 0.0000
# 3 65.2005 67.0224 113.9083 0.0000 0.0000 0.0000
# 4 0.0000 0.0000 0.0000 10.6077 0.0000 0.0000
# 5 0.0000 0.0000 0.0000 0.0000 30.0344 0.0000
# 6 0.0000 0.0000 0.0000 0.0000 0.0000 34.6037
#
#
#
# Elastic Compliance Matrix: (Units=1/GPa)
#
#
# Indices 1 2 3 4 5 6 
#
# 1 0.023949 -0.007066 -0.009551 0.000000 0.000000 0.000000
# 2 -0.007066 0.011745 -0.002866 0.000000 0.000000 0.000000
# 3 -0.009551 -0.002866 0.015932 0.000000 0.000000 0.000000
# 4 0.000000 0.000000 0.000000 0.094271 0.000000 0.000000
# 5 0.000000 0.000000 0.000000 0.000000 0.033295 0.000000
# 6 0.000000 0.000000 0.000000 0.000000 0.000000 0.028899
#
#
# Mechanical properties :
#
#
# Convention : Reuss Voigt Hill
#
# Bulk Modulus (GPa) = 78.98567 83.02242 81.00404
# Shear Modulus (GPa) = 19.89827 24.63689 22.26758
#
# Velocity S-wave (km/s) = 3.35346 3.73146 3.54750
# Velocity P-wave (km/s) = 7.72229 8.09234 7.90948
#
# Compressibility (1/GPa) = 0.01266052
#
# Stress axis : x y z
#
# Youngs Moduli (GPa) = 41.75511 85.13900 62.76620
#
# Poissons Ratio (x) = 0.60162 0.59946
# Poissons Ratio (y) = 0.29506 0.17990
# Poissons Ratio (z) = 0.39879 0.24402
#
# Static dielectric constant tensor:
#      x y z
#    x 3.333570 0.000000 0.000000 
#    y 0.000000 3.565140 0.000000 
#    z 0.000000 0.000000 3.069370 
# 
# 
# High freq. dielectric constant tensor:
#      x y z
#    x 1.691600 0.000000 0.000000 
#    y 0.000000 1.693030 0.000000 
#    z 0.000000 0.000000 1.667420 
# 
# From -- ./inp_files/47789.got.cif
#   From: 2010.03.12/outbox.cif.g09.slc.cpg/sg64_24_cif.got.tgz:47789.got - 2010.04.10 20:19:32.
