data_PCOD8262595
_publ_section_title
;
Structure prediction by ZEFSAII (Michael W. Deem and Ramdas Pophale) SiO2 
 PCOD8262595
Probable space group: C M C A
;
_chemical_formula_sum "Si O2"
_cell_formula_units_Z 96
_cell_length_a 17.699074
_cell_length_b 29.651369
_cell_length_c 9.158841
_cell_angle_alpha 90.000000
_cell_angle_beta 90.000000
_cell_angle_gamma 90.000000
_cell_volume 4806.576006
_symmetry_space_group_name_H-M "C M C A"
_symmetry_group_IT_number 64
_symmetry_cell_setting 'orthorhombic'
loop_
_space_group_symop_operation_xyz
x,y,z
-x,1/2-y,1/2+z
x,-y,-z
-x,1/2+y,1/2-z
-x,-y,-z
x,1/2+y,1/2-z
-x,y,z
x,1/2-y,1/2+z
1/2+x,1/2+y,z
1/2-x,-y,1/2+z
1/2+x,1/2-y,-z
1/2-x,y,1/2-z
1/2-x,1/2-y,-z
1/2+x,y,1/2-z
1/2-x,1/2+y,z
1/2+x,-y,1/2+z
loop_
_atom_site_type_symbol
_atom_site_label
_atom_site_fract_x
_atom_site_fract_y
_atom_site_fract_z
Si Si1 0.666678 0.543082 0.920434
Si Si2 0.173995 0.779180 0.827975
Si Si3 0.177019 0.618485 0.341773
Si Si4 0.585397 0.220027 0.045628
Si Si5 0.842032 0.040680 0.597057
Si Si6 0.584348 0.118073 0.066272
O O1 0.753669 0.532498 0.893231
O O2 0.625364 0.545116 0.762349
O O3 0.629431 0.500000 0.000000
O O4 0.658429 0.588556 0.016043
O O5 0.250000 0.760930 0.750000
O O6 0.190325 0.829604 0.889772
O O7 0.104067 0.777275 0.716669
O O8 0.149717 0.747692 0.961396
O O9 0.250000 0.600601 0.250000
O O10 0.104382 0.616668 0.237305
O O11 0.500000 0.238560 0.021027
O O12 0.590879 0.167942 0.998250
O O13 0.856884 0.088092 0.521324
O O14 0.878794 0.000000 0.500000
O O15 0.500000 0.099033 0.048024
#
# Coordination Sequence:
#
# PCOD8262595 Si02
#       6
#    16  16  16  16  16  16
#     4  10  20  33  58  86 110 145 191 237 280 334
#     4  10  21  36  57  84 114 149 193 247 292 338
#     4  10  19  36  59  83 114 146 192 240 286 336
#     4  10  21  38  57  81 114 154 193 233 291 357
#     4  10  20  35  56  84 113 147 188 232 283 341
#     4  10  21  37  56  80 114 153 185 230 292 347
#
# _framework density 19.972636000000001
#
# number of rings (size 3 to 8) (size 9 to 14) (size 15 to 20)
#    0.000    2.000    1.667    2.000    2.333    2.333 
#    3.000    0.833    0.000    2.000    0.000    0.000 
#    0.000    0.000    0.000    0.000    0.000    0.000 
#
# Total GULP energy -595018.762423 kJ/mol
# GULP energy per Si atom -12396.224217 kJ/mol
# Density = 1.992718 g / cm^3
# Si number density = 19.972636 Si / 1000 Ang^3
#
#
#
# Elastic Constant Matrix: (Units=GPa)
#
#
# Indices 1 2 3 4 5 6 
#
# 1 50.6902 22.1649 15.8416 0.0000 0.0000 0.0000
# 2 22.1649 96.8830 61.3367 0.0000 0.0000 0.0000
# 3 15.8416 61.3367 124.1946 0.0000 0.0000 0.0000
# 4 0.0000 0.0000 0.0000 35.0773 0.0000 0.0000
# 5 0.0000 0.0000 0.0000 0.0000 21.0883 0.0000
# 6 0.0000 0.0000 0.0000 0.0000 0.0000 15.7835
#
#
#
# Elastic Compliance Matrix: (Units=1/GPa)
#
#
# Indices 1 2 3 4 5 6 
#
# 1 0.021939 -0.004725 -0.000465 0.000000 0.000000 0.000000
# 2 -0.004725 0.016035 -0.007317 0.000000 0.000000 0.000000
# 3 -0.000465 -0.007317 0.011725 0.000000 0.000000 0.000000
# 4 0.000000 0.000000 0.000000 0.028509 0.000000 0.000000
# 5 0.000000 0.000000 0.000000 0.000000 0.047420 0.000000
# 6 0.000000 0.000000 0.000000 0.000000 0.000000 0.063357
#
#
# Mechanical properties :
#
#
# Convention : Reuss Voigt Hill
#
# Bulk Modulus (GPa) = 40.50915 52.27270 46.39092
# Shear Modulus (GPa) = 22.49973 25.88479 24.19226
#
# Velocity S-wave (km/s) = 3.36002 3.60392 3.48411
# Velocity P-wave (km/s) = 5.94805 6.59899 6.28196
#
# Compressibility (1/GPa) = 0.02468578
#
# Stress axis : x y z
#
# Youngs Moduli (GPa) = 45.58101 62.36450 85.29054
#
# Poissons Ratio (x) = 0.29466 0.03965
# Poissons Ratio (y) = 0.21536 0.62403
# Poissons Ratio (z) = 0.02119 0.45629
#
# Static dielectric constant tensor:
#      x y z
#    x 3.411810 0.000000 0.000000 
#    y 0.000000 3.577730 0.000000 
#    z 0.000000 0.000000 3.713430 
# 
# 
# High freq. dielectric constant tensor:
#      x y z
#    x 1.757060 0.000000 0.000000 
#    y 0.000000 1.779030 0.000000 
#    z 0.000000 0.000000 1.775220 
# 
# From -- ./inp_files/8443.got.cif
#   From: 2010.03.12/outbox.cif.g09.slc.cpg/sg64_5_cif.got.tgz:8443.got - 2010.04.10 20:19:32.
