data_PCOD8262822
_publ_section_title
;
Structure prediction by ZEFSAII (Michael W. Deem and Ramdas Pophale) SiO2 
 PCOD8262822
Probable space group: C M C A
;
_chemical_formula_sum "Si O2"
_cell_formula_units_Z 96
_cell_length_a 9.397235
_cell_length_b 29.659969
_cell_length_c 20.331859
_cell_angle_alpha 90.000000
_cell_angle_beta 90.000000
_cell_angle_gamma 90.000000
_cell_volume 5666.930280
_symmetry_space_group_name_H-M "C M C A"
_symmetry_group_IT_number 64
_symmetry_cell_setting 'orthorhombic'
loop_
_space_group_symop_operation_xyz
x,y,z
-x,1/2-y,1/2+z
x,-y,-z
-x,1/2+y,1/2-z
-x,-y,-z
x,1/2+y,1/2-z
-x,y,z
x,1/2-y,1/2+z
1/2+x,1/2+y,z
1/2-x,-y,1/2+z
1/2+x,1/2-y,-z
1/2-x,y,1/2-z
1/2-x,1/2-y,-z
1/2+x,y,1/2-z
1/2-x,1/2+y,z
1/2+x,-y,1/2+z
loop_
_atom_site_type_symbol
_atom_site_label
_atom_site_fract_x
_atom_site_fract_y
_atom_site_fract_z
Si Si1 0.668340 0.786849 0.958279
Si Si2 0.339486 0.613266 0.492379
Si Si3 0.659884 0.408901 0.656445
Si Si4 0.666832 0.506150 0.189452
Si Si5 0.666306 0.537252 0.948615
Si Si6 0.664909 0.693343 0.312322
O O1 0.500000 0.780086 0.965226
O O2 0.713917 0.835304 0.987304
O O3 0.712016 0.783373 0.881119
O O4 0.750000 0.750000 0.000000
O O5 0.500000 0.611934 0.519500
O O6 0.330875 0.589843 0.421870
O O7 0.240728 0.585424 0.541893
O O8 0.500000 0.423122 0.678332
O O9 0.776827 0.442712 0.684676
O O10 0.697253 0.359617 0.683010
O O11 0.500000 0.507385 0.203496
O O12 0.750000 0.482416 0.250000
O O13 0.703713 0.478537 0.124409
O O14 0.500000 0.544513 0.959800
O O15 0.724315 0.500000 0.000000
O O16 0.500000 0.702596 0.299651
O O17 0.750000 0.713832 0.250000
#
# Coordination Sequence:
#
# PCOD8262822 Si02
#       6
#    16  16  16  16  16  16
#     4   9  19  35  53  77 105 131 165 209 254 302
#     4   9  18  32  52  76 101 130 166 207 248 296
#     4   9  17  30  47  70 100 132 163 197 242 295
#     4  11  22  33  46  67  99 134 169 211 250 293
#     4  10  20  34  50  72 101 131 169 211 247 289
#     4   9  18  31  47  71 103 132 162 200 243 298
#
# _framework density 16.940389
#
# number of rings (size 3 to 8) (size 9 to 14) (size 15 to 20)
#    0.000    2.500    1.667    3.000    0.000    5.000 
#    0.000    3.333    0.000    1.000    0.000    0.000 
#    0.000    0.000    0.000    0.000    0.000    0.000 
#
# Total GULP energy -595102.676878 kJ/mol
# GULP energy per Si atom -12397.972435 kJ/mol
# Density = 1.690183 g / cm^3
# Si number density = 16.940389 Si / 1000 Ang^3
#
#
#
# Elastic Constant Matrix: (Units=GPa)
#
#
# Indices 1 2 3 4 5 6 
#
# 1 72.0772 45.3189 67.0978 0.0000 0.0000 0.0000
# 2 45.3189 79.1604 61.7774 0.0000 0.0000 0.0000
# 3 67.0978 61.7774 131.0251 0.0000 0.0000 0.0000
# 4 0.0000 0.0000 0.0000 23.7152 0.0000 0.0000
# 5 0.0000 0.0000 0.0000 0.0000 32.2034 0.0000
# 6 0.0000 0.0000 0.0000 0.0000 0.0000 28.3253
#
#
#
# Elastic Compliance Matrix: (Units=1/GPa)
#
#
# Indices 1 2 3 4 5 6 
#
# 1 0.029434 -0.008049 -0.011278 0.000000 0.000000 0.000000
# 2 -0.008049 0.022188 -0.006339 0.000000 0.000000 0.000000
# 3 -0.011278 -0.006339 0.016396 0.000000 0.000000 0.000000
# 4 0.000000 0.000000 0.000000 0.042167 0.000000 0.000000
# 5 0.000000 0.000000 0.000000 0.000000 0.031053 0.000000
# 6 0.000000 0.000000 0.000000 0.000000 0.000000 0.035304
#
#
# Mechanical properties :
#
#
# Convention : Reuss Voigt Hill
#
# Bulk Modulus (GPa) = 59.93357 70.07232 65.00295
# Shear Modulus (GPa) = 21.41903 24.05335 22.73619
#
# Velocity S-wave (km/s) = 3.55966 3.77222 3.66748
# Velocity P-wave (km/s) = 7.23539 7.77346 7.50925
#
# Compressibility (1/GPa) = 0.01668514
#
# Stress axis : x y z
#
# Youngs Moduli (GPa) = 33.97458 45.06901 60.98871
#
# Poissons Ratio (x) = 0.36278 0.68782
# Poissons Ratio (y) = 0.27347 0.38664
# Poissons Ratio (z) = 0.38316 0.28571
#
# Static dielectric constant tensor:
#      x y z
#    x 3.096420 0.000000 0.000000 
#    y 0.000000 2.897700 0.000000 
#    z 0.000000 0.000000 3.299410 
# 
# 
# High freq. dielectric constant tensor:
#      x y z
#    x 1.653260 0.000000 0.000000 
#    y 0.000000 1.620260 0.000000 
#    z 0.000000 0.000000 1.657350 
# 
# From -- ./inp_files/37030.got.cif
#   From: 2010.03.12/outbox.cif.g09.slc.cpg/sg64_19_cif.got.tgz:37030.got - 2010.04.10 20:19:32.
