data_PCOD8262063
_publ_section_title
;
Structure prediction by ZEFSAII (Michael W. Deem and Ramdas Pophale) SiO2 
 PCOD8262063
Probable space group: C M C A
;
_chemical_formula_sum "Si O2"
_cell_formula_units_Z 96
_cell_length_a 8.800386
_cell_length_b 27.277996
_cell_length_c 23.801907
_cell_angle_alpha 90.000000
_cell_angle_beta 90.000000
_cell_angle_gamma 90.000000
_cell_volume 5713.811868
_symmetry_space_group_name_H-M "C M C A"
_symmetry_group_IT_number 64
_symmetry_cell_setting 'orthorhombic'
loop_
_space_group_symop_operation_xyz
x,y,z
-x,1/2-y,1/2+z
x,-y,-z
-x,1/2+y,1/2-z
-x,-y,-z
x,1/2+y,1/2-z
-x,y,z
x,1/2-y,1/2+z
1/2+x,1/2+y,z
1/2-x,-y,1/2+z
1/2+x,1/2-y,-z
1/2-x,y,1/2-z
1/2-x,1/2-y,-z
1/2+x,y,1/2-z
1/2-x,1/2+y,z
1/2+x,-y,1/2+z
loop_
_atom_site_type_symbol
_atom_site_label
_atom_site_fract_x
_atom_site_fract_y
_atom_site_fract_z
Si Si1 0.320998 0.182681 0.807717
Si Si2 0.819667 0.483011 0.081628
Si Si3 0.676009 0.818432 0.527366
Si Si4 0.823509 0.732351 0.587320
Si Si5 0.178998 0.071509 0.692682
Si Si6 0.821553 0.930697 0.978090
O O1 0.500000 0.185309 0.802388
O O2 0.250000 0.202933 0.750000
O O3 0.269237 0.216775 0.858343
O O4 0.264261 0.127010 0.818526
O O5 0.766284 0.462662 0.141733
O O6 0.738279 0.535310 0.072629
O O7 0.000000 0.489395 0.077792
O O8 0.766931 0.444510 0.034664
O O9 0.500000 0.806718 0.538823
O O10 0.776530 0.787462 0.570734
O O11 0.718208 0.804369 0.463468
O O12 0.715573 0.874980 0.537638
O O13 0.000000 0.730893 0.602079
O O14 0.250000 0.050535 0.750000
O O15 0.000000 0.070272 0.698806
O O16 0.000000 0.939055 0.987792
#
# Coordination Sequence:
#
# PCOD8262063 Si02
#       6
#    16  16  16  16  16  16
#     4  10  19  32  49  70  97 126 157 192 232 278
#     4  10  19  31  47  70  98 125 155 193 237 280
#     4   9  19  33  48  69  97 126 157 194 234 280
#     4  10  19  31  49  72  96 124 157 193 236 281
#     4   9  19  32  48  70  95 125 157 191 232 277
#     4  10  19  31  48  70  95 126 160 192 231 277
#
# _framework density 16.801393999999998
#
# number of rings (size 3 to 8) (size 9 to 14) (size 15 to 20)
#    0.000    2.333    0.000    4.000    0.000    4.000 
#    0.000    0.000    0.000    1.000    0.000    2.333 
#    0.000    0.000    0.000    0.000    0.000    0.000 
#
# Total GULP energy -595312.799702 kJ/mol
# GULP energy per Si atom -12402.349994 kJ/mol
# Density = 1.676315 g / cm^3
# Si number density = 16.801394 Si / 1000 Ang^3
#
#
#
# Elastic Constant Matrix: (Units=GPa)
#
#
# Indices 1 2 3 4 5 6 
#
# 1 48.1023 29.8413 31.8465 0.0000 0.0000 0.0000
# 2 29.8413 100.5495 54.5128 0.0000 0.0000 0.0000
# 3 31.8465 54.5128 121.6154 0.0000 0.0000 0.0000
# 4 0.0000 0.0000 0.0000 20.6542 0.0000 0.0000
# 5 0.0000 0.0000 0.0000 0.0000 31.1513 0.0000
# 6 0.0000 0.0000 0.0000 0.0000 0.0000 27.0590
#
#
#
# Elastic Compliance Matrix: (Units=1/GPa)
#
#
# Indices 1 2 3 4 5 6 
#
# 1 0.027338 -0.005591 -0.004653 0.000000 0.000000 0.000000
# 2 -0.005591 0.014281 -0.004937 0.000000 0.000000 0.000000
# 3 -0.004653 -0.004937 0.011654 0.000000 0.000000 0.000000
# 4 0.000000 0.000000 0.000000 0.048416 0.000000 0.000000
# 5 0.000000 0.000000 0.000000 0.000000 0.032101 0.000000
# 6 0.000000 0.000000 0.000000 0.000000 0.000000 0.036956
#
#
# Mechanical properties :
#
#
# Convention : Reuss Voigt Hill
#
# Bulk Modulus (GPa) = 43.64655 55.85206 49.74930
# Shear Modulus (GPa) = 23.95246 26.04399 24.99822
#
# Velocity S-wave (km/s) = 3.77984 3.94141 3.86147
# Velocity P-wave (km/s) = 6.71445 7.35035 7.03959
#
# Compressibility (1/GPa) = 0.02291132
#
# Stress axis : x y z
#
# Youngs Moduli (GPa) = 36.57937 70.02073 85.80613
#
# Poissons Ratio (x) = 0.39148 0.39923
# Poissons Ratio (y) = 0.20451 0.42367
# Poissons Ratio (z) = 0.17019 0.34573
#
# Static dielectric constant tensor:
#      x y z
#    x 3.196290 0.000000 0.000000 
#    y 0.000000 3.148740 0.000000 
#    z 0.000000 0.000000 3.111030 
# 
# 
# High freq. dielectric constant tensor:
#      x y z
#    x 1.659030 0.000000 0.000000 
#    y 0.000000 1.636920 0.000000 
#    z 0.000000 0.000000 1.638140 
# 
# From -- ./inp_files/43176.got.cif
#   From: 2010.03.12/outbox.cif.g09.slc.cpg/sg64_22_cif.got.tgz:43176.got - 2010.04.10 20:19:32.
