data_PCOD8262014
_publ_section_title
;
Structure prediction by ZEFSAII (Michael W. Deem and Ramdas Pophale) SiO2 
 PCOD8262014
Probable space group: C M C A
;
_chemical_formula_sum "Si O2"
_cell_formula_units_Z 96
_cell_length_a 9.364966
_cell_length_b 23.406749
_cell_length_c 23.346055
_cell_angle_alpha 90.000000
_cell_angle_beta 90.000000
_cell_angle_gamma 90.000000
_cell_volume 5117.534832
_symmetry_space_group_name_H-M "C M C A"
_symmetry_group_IT_number 64
_symmetry_cell_setting 'orthorhombic'
loop_
_space_group_symop_operation_xyz
x,y,z
-x,1/2-y,1/2+z
x,-y,-z
-x,1/2+y,1/2-z
-x,-y,-z
x,1/2+y,1/2-z
-x,y,z
x,1/2-y,1/2+z
1/2+x,1/2+y,z
1/2-x,-y,1/2+z
1/2+x,1/2-y,-z
1/2-x,y,1/2-z
1/2-x,1/2-y,-z
1/2+x,y,1/2-z
1/2-x,1/2+y,z
1/2+x,-y,1/2+z
loop_
_atom_site_type_symbol
_atom_site_label
_atom_site_fract_x
_atom_site_fract_y
_atom_site_fract_z
Si Si1 0.161415 0.340888 0.198556
Si Si2 0.167544 0.440973 0.690102
Si Si3 0.165391 0.869126 0.030859
Si Si4 0.167794 0.356639 0.594275
Si Si5 0.164943 0.936264 0.141043
Si Si6 0.837919 0.770718 0.414930
O O1 0.250000 0.312364 0.250000
O O2 0.236064 0.400629 0.183425
O O3 0.167265 0.296067 0.148110
O O4 0.000000 0.354322 0.217405
O O5 0.250000 0.440782 0.750000
O O6 0.229906 0.390816 0.648986
O O7 0.196499 0.497907 0.653311
O O8 0.000000 0.433966 0.703380
O O9 0.206075 0.919767 0.075214
O O10 0.247297 0.809966 0.042597
O O11 0.000000 0.853401 0.036255
O O12 0.202249 0.889040 0.965962
O O13 0.230068 0.292501 0.589808
O O14 0.000000 0.353148 0.604311
O O15 0.000000 0.920956 0.152866
O O16 0.000000 0.768541 0.438235
#
# Coordination Sequence:
#
# PCOD8262014 Si02
#       6
#    16  16  16  16  16  16
#     4  10  19  30  47  70  96 127 163 204 247 288
#     4  10  21  36  52  71  98 132 167 201 239 285
#     4   9  17  31  53  78 100 124 158 200 244 290
#     4   9  18  33  52  73  99 130 162 198 240 287
#     4   9  18  32  51  75  99 124 159 202 246 291
#     4   9  18  32  49  71 100 131 160 196 245 292
#
# _framework density 18.759032000000001
#
# number of rings (size 3 to 8) (size 9 to 14) (size 15 to 20)
#    0.000    2.667    0.000    1.500    0.000    4.000 
#    0.000    5.000    0.000    0.000    0.000    5.833 
#    0.000    0.000    0.000    0.000    0.000    0.000 
#
# Total GULP energy -594979.868060 kJ/mol
# GULP energy per Si atom -12395.413918 kJ/mol
# Density = 1.871634 g / cm^3
# Si number density = 18.759032 Si / 1000 Ang^3
#
#
#
# Elastic Constant Matrix: (Units=GPa)
#
#
# Indices 1 2 3 4 5 6 
#
# 1 60.3477 30.5965 41.1266 0.0000 0.0000 0.0000
# 2 30.5965 101.1185 64.5492 0.0000 0.0000 0.0000
# 3 41.1266 64.5492 123.0920 0.0000 0.0000 0.0000
# 4 0.0000 0.0000 0.0000 13.0999 0.0000 0.0000
# 5 0.0000 0.0000 0.0000 0.0000 25.3947 0.0000
# 6 0.0000 0.0000 0.0000 0.0000 0.0000 19.0848
#
#
#
# Elastic Compliance Matrix: (Units=1/GPa)
#
#
# Indices 1 2 3 4 5 6 
#
# 1 0.022029 -0.002957 -0.005810 0.000000 0.000000 0.000000
# 2 -0.002957 0.015263 -0.007016 0.000000 0.000000 0.000000
# 3 -0.005810 -0.007016 0.013744 0.000000 0.000000 0.000000
# 4 0.000000 0.000000 0.000000 0.076336 0.000000 0.000000
# 5 0.000000 0.000000 0.000000 0.000000 0.039378 0.000000
# 6 0.000000 0.000000 0.000000 0.000000 0.000000 0.052398
#
#
# Mechanical properties :
#
#
# Convention : Reuss Voigt Hill
#
# Bulk Modulus (GPa) = 51.35793 61.90031 56.62912
# Shear Modulus (GPa) = 19.43991 21.40162 20.42076
#
# Velocity S-wave (km/s) = 3.22265 3.38134 3.30295
# Velocity P-wave (km/s) = 6.42530 6.95082 6.69322
#
# Compressibility (1/GPa) = 0.01947119
#
# Stress axis : x y z
#
# Youngs Moduli (GPa) = 45.39467 65.51954 72.75871
#
# Poissons Ratio (x) = 0.19374 0.42269
# Poissons Ratio (y) = 0.13423 0.51045
# Poissons Ratio (z) = 0.26372 0.45967
#
# Static dielectric constant tensor:
#      x y z
#    x 3.417310 0.000000 0.000000 
#    y 0.000000 3.444450 0.000000 
#    z 0.000000 0.000000 3.667720 
# 
# 
# High freq. dielectric constant tensor:
#      x y z
#    x 1.705790 0.000000 0.000000 
#    y 0.000000 1.718200 0.000000 
#    z 0.000000 0.000000 1.741880 
# 
# From -- ./inp_files/42980.got.cif
#   From: 2010.03.12/outbox.cif.g09.slc.cpg/sg64_22_cif.got.tgz:42980.got - 2010.04.10 20:19:32.
