data_PCOD8262551
_publ_section_title
;
Structure prediction by ZEFSAII (Michael W. Deem and Ramdas Pophale) SiO2 
 PCOD8262551
Probable space group: C M C A
;
_chemical_formula_sum "Si O2"
_cell_formula_units_Z 80
_cell_length_a 9.120858
_cell_length_b 24.919730
_cell_length_c 18.728363
_cell_angle_alpha 90.000000
_cell_angle_beta 90.000000
_cell_angle_gamma 90.000000
_cell_volume 4256.756867
_symmetry_space_group_name_H-M "C M C A"
_symmetry_group_IT_number 64
_symmetry_cell_setting 'orthorhombic'
loop_
_space_group_symop_operation_xyz
x,y,z
-x,1/2-y,1/2+z
x,-y,-z
-x,1/2+y,1/2-z
-x,-y,-z
x,1/2+y,1/2-z
-x,y,z
x,1/2-y,1/2+z
1/2+x,1/2+y,z
1/2-x,-y,1/2+z
1/2+x,1/2-y,-z
1/2-x,y,1/2-z
1/2-x,1/2-y,-z
1/2+x,y,1/2-z
1/2-x,1/2+y,z
1/2+x,-y,1/2+z
loop_
_atom_site_type_symbol
_atom_site_label
_atom_site_fract_x
_atom_site_fract_y
_atom_site_fract_z
Si Si1 0.171460 0.592754 0.600076
Si Si2 0.330152 0.311068 0.324687
Si Si3 0.826513 0.482814 0.675216
Si Si4 0.172528 0.898317 0.938713
Si Si5 0.330382 0.778494 0.564325
O O1 0.264128 0.643064 0.625776
O O2 0.215638 0.541557 0.646806
O O3 0.213504 0.581323 0.517887
O O4 0.000000 0.606490 0.607489
O O5 0.500000 0.323926 0.311782
O O6 0.250000 0.309045 0.250000
O O7 0.306919 0.253879 0.362591
O O8 0.750000 0.472181 0.750000
O O9 0.761645 0.439306 0.619397
O O10 0.000000 0.477399 0.684597
O O11 0.234338 0.838344 0.925049
O O12 0.000000 0.898378 0.928506
O O13 0.500000 0.781500 0.542539
O O14 0.250000 0.750000 0.500000
#
# Coordination Sequence:
#
# PCOD8262551 Si02
#       5
#    16  16  16  16  16
#     4  10  19  35  60  83 107 143 185 231 277 325
#     4  11  23  36  54  83 115 147 184 226 274 329
#     4  10  21  36  55  81 111 145 185 226 275 331
#     4   9  18  35  59  82 107 142 185 227 273 330
#     4  10  20  36  58  82 109 142 183 228 273 324
#
# _framework density 18.793648999999998
#
# number of rings (size 3 to 8) (size 9 to 14) (size 15 to 20)
#    0.000    2.000    2.000    1.800    0.000    6.400 
#    0.000    2.000    0.000    2.400    0.000    0.000 
#    0.000    0.000    0.000    0.000    0.000    0.000 
#
# Total GULP energy -496060.567425 kJ/mol
# GULP energy per Si atom -12401.514186 kJ/mol
# Density = 1.875087 g / cm^3
# Si number density = 18.793649 Si / 1000 Ang^3
#
#
#
# Elastic Constant Matrix: (Units=GPa)
#
#
# Indices 1 2 3 4 5 6 
#
# 1 49.1723 28.3872 34.7658 0.0000 0.0000 0.0000
# 2 28.3872 84.1543 36.8314 0.0000 0.0000 0.0000
# 3 34.7658 36.8314 124.1735 0.0000 0.0000 0.0000
# 4 0.0000 0.0000 0.0000 34.2891 0.0000 0.0000
# 5 0.0000 0.0000 0.0000 0.0000 30.6262 0.0000
# 6 0.0000 0.0000 0.0000 0.0000 0.0000 23.8144
#
#
#
# Elastic Compliance Matrix: (Units=1/GPa)
#
#
# Indices 1 2 3 4 5 6 
#
# 1 0.028590 -0.007057 -0.005911 0.000000 0.000000 0.000000
# 2 -0.007057 0.015398 -0.002591 0.000000 0.000000 0.000000
# 3 -0.005911 -0.002591 0.010477 0.000000 0.000000 0.000000
# 4 0.000000 0.000000 0.000000 0.029164 0.000000 0.000000
# 5 0.000000 0.000000 0.000000 0.000000 0.032652 0.000000
# 6 0.000000 0.000000 0.000000 0.000000 0.000000 0.041991
#
#
# Mechanical properties :
#
#
# Convention : Reuss Voigt Hill
#
# Bulk Modulus (GPa) = 42.83522 50.82986 46.83254
# Shear Modulus (GPa) = 25.35852 28.24700 26.80276
#
# Velocity S-wave (km/s) = 3.67728 3.88107 3.78055
# Velocity P-wave (km/s) = 6.39310 6.86940 6.63553
#
# Compressibility (1/GPa) = 0.02334527
#
# Stress axis : x y z
#
# Youngs Moduli (GPa) = 34.97720 64.94555 95.44782
#
# Poissons Ratio (x) = 0.45831 0.56423
# Poissons Ratio (y) = 0.24683 0.24734
# Poissons Ratio (z) = 0.20676 0.16830
#
# Static dielectric constant tensor:
#      x y z
#    x 3.246770 0.000000 0.000000 
#    y 0.000000 3.859860 0.000000 
#    z 0.000000 0.000000 3.553830 
# 
# 
# High freq. dielectric constant tensor:
#      x y z
#    x 1.704040 0.000000 0.000000 
#    y 0.000000 1.744260 0.000000 
#    z 0.000000 0.000000 1.740470 
# 
# From -- ./inp_files/29751.got.cif
#   From: 2010.03.12/outbox.cif.g09.slc.cpg/sg64_15_cif.got.tgz:29751.got - 2010.04.10 20:19:32.
