data_PCOD8262186
_publ_section_title
;
Structure prediction by ZEFSAII (Michael W. Deem and Ramdas Pophale) SiO2 
 PCOD8262186
Probable space group: C M C A
;
_chemical_formula_sum "Si O2"
_cell_formula_units_Z 80
_cell_length_a 8.844285
_cell_length_b 20.068361
_cell_length_c 27.933533
_cell_angle_alpha 90.000000
_cell_angle_beta 90.000000
_cell_angle_gamma 90.000000
_cell_volume 4957.931269
_symmetry_space_group_name_H-M "C M C A"
_symmetry_group_IT_number 64
_symmetry_cell_setting 'orthorhombic'
loop_
_space_group_symop_operation_xyz
x,y,z
-x,1/2-y,1/2+z
x,-y,-z
-x,1/2+y,1/2-z
-x,-y,-z
x,1/2+y,1/2-z
-x,y,z
x,1/2-y,1/2+z
1/2+x,1/2+y,z
1/2-x,-y,1/2+z
1/2+x,1/2-y,-z
1/2-x,y,1/2-z
1/2-x,1/2-y,-z
1/2+x,y,1/2-z
1/2-x,1/2+y,z
1/2+x,-y,1/2+z
loop_
_atom_site_type_symbol
_atom_site_label
_atom_site_fract_x
_atom_site_fract_y
_atom_site_fract_z
Si Si1 0.677381 0.932282 0.700133
Si Si2 0.323675 0.086370 0.700547
Si Si3 0.328904 0.766013 0.549372
Si Si4 0.179268 0.173038 0.366624
Si Si5 0.171031 0.804531 0.358383
O O1 0.500000 0.917568 0.701827
O O2 0.750000 0.908838 0.750000
O O3 0.754125 0.892995 0.656990
O O4 0.713525 0.009521 0.690578
O O5 0.500000 0.099965 0.703867
O O6 0.250000 0.110649 0.750000
O O7 0.254788 0.128427 0.657049
O O8 0.500000 0.790198 0.539790
O O9 0.250000 0.750000 0.500000
O O10 0.238069 0.824092 0.578088
O O11 0.328077 0.699915 0.583364
O O12 0.241801 0.238622 0.338346
O O13 0.000000 0.171407 0.365027
O O14 0.000000 0.804245 0.338480
#
# Coordination Sequence:
#
# PCOD8262186 Si02
#       5
#    16  16  16  16  16
#     4  10  20  34  50  72 101 134 169 203 244 293
#     4  10  20  33  51  72 100 135 168 202 244 293
#     4   9  18  32  52  76 100 128 160 203 250 297
#     4  10  19  32  51  75 100 130 166 205 247 290
#     4   9  19  33  50  74 101 128 164 206 245 290
#
# _framework density 16.135763000000001
#
# number of rings (size 3 to 8) (size 9 to 14) (size 15 to 20)
#    1.200    1.200    0.000    3.600    0.000    3.200 
#    0.000    4.000    0.000    1.200    0.000    8.400 
#    0.000    0.000    0.000    0.000    0.000    0.000 
#
# Total GULP energy -495746.466837 kJ/mol
# GULP energy per Si atom -12393.661671 kJ/mol
# Density = 1.609904 g / cm^3
# Si number density = 16.135763 Si / 1000 Ang^3
#
#
#
# Elastic Constant Matrix: (Units=GPa)
#
#
# Indices 1 2 3 4 5 6 
#
# 1 134.7878 50.2455 48.0968 0.0000 0.0000 0.0000
# 2 50.2455 67.1349 44.1221 0.0000 0.0000 0.0000
# 3 48.0968 44.1221 86.6957 0.0000 0.0000 0.0000
# 4 0.0000 0.0000 0.0000 13.4622 0.0000 0.0000
# 5 0.0000 0.0000 0.0000 0.0000 33.1015 0.0000
# 6 0.0000 0.0000 0.0000 0.0000 0.0000 30.0167
#
#
#
# Elastic Compliance Matrix: (Units=1/GPa)
#
#
# Indices 1 2 3 4 5 6 
#
# 1 0.010725 -0.006185 -0.002802 0.000000 0.000000 0.000000
# 2 -0.006185 0.025948 -0.009775 0.000000 0.000000 0.000000
# 3 -0.002802 -0.009775 0.018064 0.000000 0.000000 0.000000
# 4 0.000000 0.000000 0.000000 0.074282 0.000000 0.000000
# 5 0.000000 0.000000 0.000000 0.000000 0.030210 0.000000
# 6 0.000000 0.000000 0.000000 0.000000 0.000000 0.033315
#
#
# Mechanical properties :
#
#
# Convention : Reuss Voigt Hill
#
# Bulk Modulus (GPa) = 58.09436 63.72746 60.91091
# Shear Modulus (GPa) = 21.20401 25.05970 23.13186
#
# Velocity S-wave (km/s) = 3.62899 3.94516 3.79037
# Velocity P-wave (km/s) = 7.32400 7.76741 7.54896
#
# Compressibility (1/GPa) = 0.01721338
#
# Stress axis : x y z
#
# Youngs Moduli (GPa) = 93.24426 38.53795 55.35966
#
# Poissons Ratio (x) = 0.23836 0.15512
# Poissons Ratio (y) = 0.57672 0.54112
# Poissons Ratio (z) = 0.26127 0.37670
#
# Static dielectric constant tensor:
#      x y z
#    x 3.241680 0.000000 0.000000 
#    y 0.000000 2.877160 0.000000 
#    z 0.000000 0.000000 2.866720 
# 
# 
# High freq. dielectric constant tensor:
#      x y z
#    x 1.645530 0.000000 0.000000 
#    y 0.000000 1.599430 0.000000 
#    z 0.000000 0.000000 1.601360 
# 
# From -- ./inp_files/51744.got.cif
#   From: 2010.03.12/outbox.cif.g09.slc.cpg/sg64_26_cif.got.tgz:51744.got - 2010.04.10 20:19:32.
