data_PCOD8262601
_publ_section_title
;
Structure prediction by ZEFSAII (Michael W. Deem and Ramdas Pophale) SiO2 
 PCOD8262601
Probable space group: C M C A
;
_chemical_formula_sum "Si O2"
_cell_formula_units_Z 88
_cell_length_a 14.311796
_cell_length_b 18.274727
_cell_length_c 17.359241
_cell_angle_alpha 90.000000
_cell_angle_beta 90.000000
_cell_angle_gamma 90.000000
_cell_volume 4540.208189
_symmetry_space_group_name_H-M "C M C A"
_symmetry_group_IT_number 64
_symmetry_cell_setting 'orthorhombic'
loop_
_space_group_symop_operation_xyz
x,y,z
-x,1/2-y,1/2+z
x,-y,-z
-x,1/2+y,1/2-z
-x,-y,-z
x,1/2+y,1/2-z
-x,y,z
x,1/2-y,1/2+z
1/2+x,1/2+y,z
1/2-x,-y,1/2+z
1/2+x,1/2-y,-z
1/2-x,y,1/2-z
1/2-x,1/2-y,-z
1/2+x,y,1/2-z
1/2-x,1/2+y,z
1/2+x,-y,1/2+z
loop_
_atom_site_type_symbol
_atom_site_label
_atom_site_fract_x
_atom_site_fract_y
_atom_site_fract_z
Si Si1 0.000000 0.290554 0.415949
Si Si2 0.500000 0.377262 0.561785
Si Si3 0.645148 0.811989 0.542416
Si Si4 0.500000 0.695772 0.742244
Si Si5 0.500000 0.524513 0.289352
Si Si6 0.500000 0.349451 0.832502
Si Si7 0.323131 0.144028 0.965863
Si Si8 0.659262 0.591880 0.696547
O O1 0.090433 0.317221 0.461850
O O2 0.000000 0.325709 0.332055
O O3 0.000000 0.203827 0.404407
O O4 0.500000 0.433171 0.631010
O O5 0.588464 0.390860 0.507718
O O6 0.591298 0.848405 0.613431
O O7 0.661620 0.727221 0.562637
O O8 0.739535 0.857448 0.528241
O O9 0.500000 0.782039 0.726591
O O10 0.594554 0.663395 0.706338
O O11 0.500000 0.576611 0.215534
O O12 0.595007 0.477947 0.285206
O O13 0.303548 0.093632 0.891406
O O14 0.750000 0.592516 0.750000
#
# Coordination Sequence:
#
# PCOD8262601 Si02
#       8
#     8   8  16   8   8   8  16  16
#     4   9  17  32  59  87 118 144 195 248 306 358
#     4  10  20  36  59  84 115 157 198 247 293 362
#     4   9  19  34  60  91 124 148 195 262 308 360
#     4  11  19  37  64  90 115 157 202 256 308 364
#     4  11  26  41  57  86 128 166 202 250 305 376
#     4  11  20  40  61  92 124 159 196 262 319 353
#     4  10  19  36  59  90 117 156 200 250 308 360
#     4  11  24  40  60  85 125 164 204 248 302 369
#
# _framework density 19.382370999999999
#
# number of rings (size 3 to 8) (size 9 to 14) (size 15 to 20)
#    0.000    1.818    2.727    2.727    0.000    2.909 
#    0.000    0.909    0.000   18.545    0.000    0.000 
#    0.000    0.000    0.000    0.000    0.000    0.000 
#
# Total GULP energy -545618.699844 kJ/mol
# GULP energy per Si atom -12400.424996 kJ/mol
# Density = 1.933826 g / cm^3
# Si number density = 19.382371 Si / 1000 Ang^3
#
#
#
# Elastic Constant Matrix: (Units=GPa)
#
#
# Indices 1 2 3 4 5 6 
#
# 1 154.2518 40.3800 63.9919 0.0000 0.0000 0.0000
# 2 40.3800 67.6474 43.9690 0.0000 0.0000 0.0000
# 3 63.9919 43.9690 134.0800 0.0000 0.0000 0.0000
# 4 0.0000 0.0000 0.0000 31.5158 0.0000 0.0000
# 5 0.0000 0.0000 0.0000 0.0000 37.9715 0.0000
# 6 0.0000 0.0000 0.0000 0.0000 0.0000 -0.4741
#
#
#
# Elastic Compliance Matrix: (Units=1/GPa)
#
#
# Indices 1 2 3 4 5 6 
#
# 1 0.008573 -0.003124 -0.003067 0.000000 0.000000 0.000000
# 2 -0.003124 0.019925 -0.005043 0.000000 0.000000 0.000000
# 3 -0.003067 -0.005043 0.010576 0.000000 0.000000 0.000000
# 4 0.000000 0.000000 0.000000 0.031730 0.000000 0.000000
# 5 0.000000 0.000000 0.000000 0.000000 0.026336 0.000000
# 6 0.000000 0.000000 0.000000 0.000000 0.000000 -2.109398
#
#
# Mechanical properties :
#
#
# Convention : Reuss Voigt Hill
#
# Bulk Modulus (GPa) = 60.22032 72.51788 66.36910
# Shear Modulus (GPa) = -2.51984 27.64519 12.56268
#
# Velocity S-wave (km/s) = -1.14144 3.78074 2.54864
# Velocity P-wave (km/s) = 5.42217 7.52026 6.55569
#
# Compressibility (1/GPa) = 0.01660569
#
# Stress axis : x y z
#
# Youngs Moduli (GPa) = 116.64348 50.18788 94.55414
#
# Poissons Ratio (x) = 0.15678 0.29002
# Poissons Ratio (y) = 0.36437 0.47685
# Poissons Ratio (z) = 0.35778 0.25311
#
# Static dielectric constant tensor:
#      x y z
#    x 3.588750 0.000000 0.000000 
#    y 0.000000 3.277540 0.000000 
#    z 0.000000 0.000000 3.482870 
# 
# 
# High freq. dielectric constant tensor:
#      x y z
#    x 1.762350 0.000000 0.000000 
#    y 0.000000 1.728500 0.000000 
#    z 0.000000 0.000000 1.765440 
# 
# From -- ./inp_files/23822.got.cif
#   From: 2010.03.12/outbox.cif.g09.slc.cpg/sg64_12_cif.got.tgz:23822.got - 2010.04.10 20:19:32.
