data_PCOD8262205
_publ_section_title
;
Structure prediction by ZEFSAII (Michael W. Deem and Ramdas Pophale) SiO2 
 PCOD8262205
Probable space group: C M C A
;
_chemical_formula_sum "Si O2"
_cell_formula_units_Z 64
_cell_length_a 8.839399
_cell_length_b 24.730976
_cell_length_c 15.095108
_cell_angle_alpha 90.000000
_cell_angle_beta 90.000000
_cell_angle_gamma 90.000000
_cell_volume 3299.895739
_symmetry_space_group_name_H-M "C M C A"
_symmetry_group_IT_number 64
_symmetry_cell_setting 'orthorhombic'
loop_
_space_group_symop_operation_xyz
x,y,z
-x,1/2-y,1/2+z
x,-y,-z
-x,1/2+y,1/2-z
-x,-y,-z
x,1/2+y,1/2-z
-x,y,z
x,1/2-y,1/2+z
1/2+x,1/2+y,z
1/2-x,-y,1/2+z
1/2+x,1/2-y,-z
1/2-x,y,1/2-z
1/2-x,1/2-y,-z
1/2+x,y,1/2-z
1/2-x,1/2+y,z
1/2+x,-y,1/2+z
loop_
_atom_site_type_symbol
_atom_site_label
_atom_site_fract_x
_atom_site_fract_y
_atom_site_fract_z
Si Si1 0.679017 0.639307 0.653520
Si Si2 0.176925 0.245122 0.845499
Si Si3 0.677240 0.364473 0.654718
Si Si4 0.320256 0.060570 0.999407
O O1 0.500000 0.643416 0.662147
O O2 0.750000 0.629482 0.750000
O O3 0.740760 0.694636 0.606254
O O4 0.729624 0.589730 0.591230
O O5 0.250000 0.246219 0.750000
O O6 0.209420 0.304419 0.886338
O O7 0.000000 0.232590 0.839571
O O8 0.500000 0.372215 0.668448
O O9 0.750000 0.374331 0.750000
O O10 0.744329 0.407285 0.584619
O O11 0.500000 0.059651 0.006027
O O12 0.253048 0.000000 0.000000
#
# Coordination Sequence:
#
# PCOD8262205 Si02
#       4
#    16  16  16  16
#     4  10  19  32  52  75 100 131 164 200 244 293
#     4   9  16  28  48  74 102 127 157 199 245 295
#     4   9  18  33  53  76 100 129 164 201 245 294
#     4   9  19  35  52  71  98 133 170 203 241 294
#
# _framework density 19.394552000000001
#
# number of rings (size 3 to 8) (size 9 to 14) (size 15 to 20)
#    0.000    2.750    0.000    3.000    0.000    3.000 
#    0.000    2.500    0.000    5.250    0.000    0.000 
#    0.000    0.000    0.000    0.000    0.000    0.000 
#
# Total GULP energy -396496.539674 kJ/mol
# GULP energy per Si atom -12390.516865 kJ/mol
# Density = 1.935041 g / cm^3
# Si number density = 19.394552 Si / 1000 Ang^3
#
#
#
# Elastic Constant Matrix: (Units=GPa)
#
#
# Indices 1 2 3 4 5 6 
#
# 1 63.5892 46.7385 33.8371 0.0000 0.0000 0.0000
# 2 46.7385 203.1461 89.6491 0.0000 0.0000 0.0000
# 3 33.8371 89.6491 112.7951 0.0000 0.0000 0.0000
# 4 0.0000 0.0000 0.0000 34.3802 0.0000 0.0000
# 5 0.0000 0.0000 0.0000 0.0000 14.3097 0.0000
# 6 0.0000 0.0000 0.0000 0.0000 0.0000 17.9367
#
#
#
# Elastic Compliance Matrix: (Units=1/GPa)
#
#
# Indices 1 2 3 4 5 6 
#
# 1 0.019821 -0.002982 -0.003576 0.000000 0.000000 0.000000
# 2 -0.002982 0.008031 -0.005488 0.000000 0.000000 0.000000
# 3 -0.003576 -0.005488 0.014300 0.000000 0.000000 0.000000
# 4 0.000000 0.000000 0.000000 0.029087 0.000000 0.000000
# 5 0.000000 0.000000 0.000000 0.000000 0.069883 0.000000
# 6 0.000000 0.000000 0.000000 0.000000 0.000000 0.055751
#
#
# Mechanical properties :
#
#
# Convention : Reuss Voigt Hill
#
# Bulk Modulus (GPa) = 55.37265 79.99775 67.68520
# Shear Modulus (GPa) = 22.02799 27.27902 24.65351
#
# Velocity S-wave (km/s) = 3.37379 3.75444 3.56920
# Velocity P-wave (km/s) = 6.61734 7.75445 7.20836
#
# Compressibility (1/GPa) = 0.01805946
#
# Stress axis : x y z
#
# Youngs Moduli (GPa) = 50.45258 124.52374 69.92922
#
# Poissons Ratio (x) = 0.37136 0.25004
# Poissons Ratio (y) = 0.15046 0.38378
# Poissons Ratio (z) = 0.18040 0.68339
#
# Static dielectric constant tensor:
#      x y z
#    x 3.359440 0.000000 0.000000 
#    y 0.000000 4.566220 0.000000 
#    z 0.000000 0.000000 3.386600 
# 
# 
# High freq. dielectric constant tensor:
#      x y z
#    x 1.733390 0.000000 0.000000 
#    y 0.000000 1.767660 0.000000 
#    z 0.000000 0.000000 1.739580 
# 
# From -- ./inp_files/20864.got.cif
#   From: 2010.03.12/outbox.cif.g09.slc.cpg/sg64_11_cif.got.tgz:20864.got - 2010.04.10 20:19:32.
