data_PCOD8262716
_publ_section_title
;
Structure prediction by ZEFSAII (Michael W. Deem and Ramdas Pophale) SiO2 
 PCOD8262716
Probable space group: C M C A
;
_chemical_formula_sum "Si O2"
_cell_formula_units_Z 96
_cell_length_a 9.021389
_cell_length_b 26.784794
_cell_length_c 23.604181
_cell_angle_alpha 90.000000
_cell_angle_beta 90.000000
_cell_angle_gamma 90.000000
_cell_volume 5703.620965
_symmetry_space_group_name_H-M "C M C A"
_symmetry_group_IT_number 64
_symmetry_cell_setting 'orthorhombic'
loop_
_space_group_symop_operation_xyz
x,y,z
-x,1/2-y,1/2+z
x,-y,-z
-x,1/2+y,1/2-z
-x,-y,-z
x,1/2+y,1/2-z
-x,y,z
x,1/2-y,1/2+z
1/2+x,1/2+y,z
1/2-x,-y,1/2+z
1/2+x,1/2-y,-z
1/2-x,y,1/2-z
1/2-x,1/2-y,-z
1/2+x,y,1/2-z
1/2-x,1/2+y,z
1/2+x,-y,1/2+z
loop_
_atom_site_type_symbol
_atom_site_label
_atom_site_fract_x
_atom_site_fract_y
_atom_site_fract_z
Si Si1 0.829041 0.476620 0.088503
Si Si2 0.329031 0.422899 0.527000
Si Si3 0.328990 0.175794 0.483032
Si Si4 0.825784 0.813912 0.192042
Si Si5 0.826859 0.928818 0.192373
Si Si6 0.171580 0.274433 0.084746
O O1 0.799207 0.534209 0.073093
O O2 0.727378 0.463003 0.141216
O O3 0.000000 0.468183 0.104697
O O4 0.785682 0.442319 0.035277
O O5 0.500000 0.406529 0.528480
O O6 0.226267 0.376200 0.543275
O O7 0.500000 0.172286 0.501001
O O8 0.234237 0.186870 0.538943
O O9 0.304038 0.217980 0.435905
O O10 0.750000 0.796388 0.250000
O O11 0.786112 0.871449 0.179106
O O12 0.760337 0.779642 0.142766
O O13 0.000000 0.805046 0.196849
O O14 0.750000 0.946877 0.250000
O O15 0.000000 0.936318 0.200364
O O16 0.000000 0.287170 0.094589
#
# Coordination Sequence:
#
# PCOD8262716 Si02
#       6
#    16  16  16  16  16  16
#     4   9  18  32  49  71  98 127 159 193 233 283
#     4   9  18  32  50  71  97 129 159 191 236 285
#     4  10  20  32  48  72  99 127 161 199 238 282
#     4  10  20  33  50  73  99 127 160 196 237 285
#     4  10  20  32  48  71  97 126 158 194 236 280
#     4  10  20  33  49  70  98 130 161 196 239 284
#
# _framework density 16.831413000000001
#
# number of rings (size 3 to 8) (size 9 to 14) (size 15 to 20)
#    0.000    2.333    0.000    4.000    0.000    8.000 
#    0.000    1.667    0.000    1.000    0.000    7.000 
#    0.000    0.000    0.000    0.000    0.000    0.000 
#
# Total GULP energy -595391.165555 kJ/mol
# GULP energy per Si atom -12403.982616 kJ/mol
# Density = 1.679310 g / cm^3
# Si number density = 16.831413 Si / 1000 Ang^3
#
#
#
# Elastic Constant Matrix: (Units=GPa)
#
#
# Indices 1 2 3 4 5 6 
#
# 1 93.3944 44.7821 57.5978 0.0000 0.0000 0.0000
# 2 44.7821 81.3960 37.9137 0.0000 0.0000 0.0000
# 3 57.5978 37.9137 113.1526 0.0000 0.0000 0.0000
# 4 0.0000 0.0000 0.0000 20.5957 0.0000 0.0000
# 5 0.0000 0.0000 0.0000 0.0000 35.1833 0.0000
# 6 0.0000 0.0000 0.0000 0.0000 0.0000 30.4728
#
#
#
# Elastic Compliance Matrix: (Units=1/GPa)
#
#
# Indices 1 2 3 4 5 6 
#
# 1 0.018308 -0.006792 -0.007043 0.000000 0.000000 0.000000
# 2 -0.006792 0.017077 -0.002265 0.000000 0.000000 0.000000
# 3 -0.007043 -0.002265 0.013182 0.000000 0.000000 0.000000
# 4 0.000000 0.000000 0.000000 0.048554 0.000000 0.000000
# 5 0.000000 0.000000 0.000000 0.000000 0.028423 0.000000
# 6 0.000000 0.000000 0.000000 0.000000 0.000000 0.032816
#
#
# Mechanical properties :
#
#
# Convention : Reuss Voigt Hill
#
# Bulk Modulus (GPa) = 61.09953 63.17002 62.13478
# Shear Modulus (GPa) = 25.50832 27.09367 26.30100
#
# Velocity S-wave (km/s) = 3.89719 4.01647 3.95728
# Velocity P-wave (km/s) = 7.52532 7.68908 7.60764
#
# Compressibility (1/GPa) = 0.01636674
#
# Stress axis : x y z
#
# Youngs Moduli (GPa) = 54.62211 58.55776 75.86220
#
# Poissons Ratio (x) = 0.39770 0.53433
# Poissons Ratio (y) = 0.37097 0.17182
# Poissons Ratio (z) = 0.38473 0.13263
#
# Static dielectric constant tensor:
#      x y z
#    x 3.186750 0.000000 0.000000 
#    y 0.000000 3.050410 0.000000 
#    z 0.000000 0.000000 3.031920 
# 
# 
# High freq. dielectric constant tensor:
#      x y z
#    x 1.661090 0.000000 0.000000 
#    y 0.000000 1.636520 0.000000 
#    z 0.000000 0.000000 1.638740 
# 
# From -- ./inp_files/36975.got.cif
#   From: 2010.03.12/outbox.cif.g09.slc.cpg/sg64_19_cif.got.tgz:36975.got - 2010.04.10 20:19:32.
