data_PCOD8262383
_publ_section_title
;
Structure prediction by ZEFSAII (Michael W. Deem and Ramdas Pophale) SiO2 
 PCOD8262383
Probable space group: C M C A
;
_chemical_formula_sum "Si O2"
_cell_formula_units_Z 96
_cell_length_a 8.968558
_cell_length_b 29.453561
_cell_length_c 18.657624
_cell_angle_alpha 90.000000
_cell_angle_beta 90.000000
_cell_angle_gamma 90.000000
_cell_volume 4928.522768
_symmetry_space_group_name_H-M "C M C A"
_symmetry_group_IT_number 64
_symmetry_cell_setting 'orthorhombic'
loop_
_space_group_symop_operation_xyz
x,y,z
-x,1/2-y,1/2+z
x,-y,-z
-x,1/2+y,1/2-z
-x,-y,-z
x,1/2+y,1/2-z
-x,y,z
x,1/2-y,1/2+z
1/2+x,1/2+y,z
1/2-x,-y,1/2+z
1/2+x,1/2-y,-z
1/2-x,y,1/2-z
1/2-x,1/2-y,-z
1/2+x,y,1/2-z
1/2-x,1/2+y,z
1/2+x,-y,1/2+z
loop_
_atom_site_type_symbol
_atom_site_label
_atom_site_fract_x
_atom_site_fract_y
_atom_site_fract_z
Si Si1 0.326686 0.525798 0.592428
Si Si2 0.675732 0.558962 0.050812
Si Si3 0.327177 0.661786 0.080229
Si Si4 0.671339 0.112048 0.823113
Si Si5 0.824975 0.767775 0.674505
Si Si6 0.326401 0.682345 0.920529
O O1 0.500000 0.515284 0.578837
O O2 0.260171 0.551206 0.523534
O O3 0.237450 0.478822 0.606798
O O4 0.305457 0.558696 0.660511
O O5 0.500000 0.552910 0.038484
O O6 0.713621 0.608642 0.080427
O O7 0.500000 0.669282 0.097858
O O8 0.231971 0.684579 0.143174
O O9 0.285478 0.685013 0.004396
O O10 0.500000 0.124899 0.814746
O O11 0.750000 0.125836 0.750000
O O12 0.736735 0.140626 0.888165
O O13 0.750000 0.756385 0.750000
O O14 0.779687 0.728821 0.618060
O O15 0.000000 0.770571 0.686622
O O16 0.500000 0.671449 0.910422
#
# Coordination Sequence:
#
# PCOD8262383 Si02
#       6
#    16  16  16  16  16  16
#     4  10  20  34  53  81 115 149 189 234 279 336
#     4  10  19  33  58  85 111 147 185 231 285 336
#     4  10  21  38  61  89 118 149 192 241 288 344
#     4  11  23  36  55  83 117 157 195 239 293 346
#     4  11  24  40  60  84 115 155 194 238 292 346
#     4  10  21  39  61  87 117 150 191 240 290 346
#
# _framework density 19.478453999999999
#
# number of rings (size 3 to 8) (size 9 to 14) (size 15 to 20)
#    0.000    1.667    1.667    4.000    0.000    6.667 
#    0.000    0.833    0.000    2.000    0.000    0.000 
#    0.000    0.000    0.000    0.000    0.000    0.000 
#
# Total GULP energy -595312.756661 kJ/mol
# GULP energy per Si atom -12402.349097 kJ/mol
# Density = 1.943412 g / cm^3
# Si number density = 19.478454 Si / 1000 Ang^3
#
#
#
# Elastic Constant Matrix: (Units=GPa)
#
#
# Indices 1 2 3 4 5 6 
#
# 1 78.7429 44.1881 30.1291 0.0000 0.0000 0.0000
# 2 44.1881 109.3641 23.7886 0.0000 0.0000 0.0000
# 3 30.1291 23.7886 53.2051 0.0000 0.0000 0.0000
# 4 0.0000 0.0000 0.0000 18.7947 0.0000 0.0000
# 5 0.0000 0.0000 0.0000 0.0000 27.9913 0.0000
# 6 0.0000 0.0000 0.0000 0.0000 0.0000 33.5548
#
#
#
# Elastic Compliance Matrix: (Units=1/GPa)
#
#
# Indices 1 2 3 4 5 6 
#
# 1 0.019185 -0.005969 -0.008195 0.000000 0.000000 0.000000
# 2 -0.005969 0.011986 -0.001979 0.000000 0.000000 0.000000
# 3 -0.008195 -0.001979 0.024321 0.000000 0.000000 0.000000
# 4 0.000000 0.000000 0.000000 0.053206 0.000000 0.000000
# 5 0.000000 0.000000 0.000000 0.000000 0.035725 0.000000
# 6 0.000000 0.000000 0.000000 0.000000 0.000000 0.029802
#
#
# Mechanical properties :
#
#
# Convention : Reuss Voigt Hill
#
# Bulk Modulus (GPa) = 43.09355 48.61376 45.85365
# Shear Modulus (GPa) = 23.33755 25.61524 24.47640
#
# Velocity S-wave (km/s) = 3.46514 3.63030 3.54868
# Velocity P-wave (km/s) = 6.17911 6.52564 6.35474
#
# Compressibility (1/GPa) = 0.02320533
#
# Stress axis : x y z
#
# Youngs Moduli (GPa) = 52.12429 83.43096 41.11701
#
# Poissons Ratio (x) = 0.49800 0.33697
# Poissons Ratio (y) = 0.31113 0.08137
# Poissons Ratio (z) = 0.42717 0.16510
#
# Static dielectric constant tensor:
#      x y z
#    x 3.596050 0.000000 0.000000 
#    y 0.000000 3.775230 0.000000 
#    z 0.000000 0.000000 3.365300 
# 
# 
# High freq. dielectric constant tensor:
#      x y z
#    x 1.767190 0.000000 0.000000 
#    y 0.000000 1.769250 0.000000 
#    z 0.000000 0.000000 1.739300 
# 
# From -- ./inp_files/37001.got.cif
#   From: 2010.03.12/outbox.cif.g09.slc.cpg/sg64_19_cif.got.tgz:37001.got - 2010.04.10 20:19:32.
