data_PCOD8262200
_publ_section_title
;
Structure prediction by ZEFSAII (Michael W. Deem and Ramdas Pophale) SiO2 
 PCOD8262200
Probable space group: C M C A
;
_chemical_formula_sum "Si O2"
_cell_formula_units_Z 96
_cell_length_a 8.812056
_cell_length_b 22.949729
_cell_length_c 23.590666
_cell_angle_alpha 90.000000
_cell_angle_beta 90.000000
_cell_angle_gamma 90.000000
_cell_volume 4770.841757
_symmetry_space_group_name_H-M "C M C A"
_symmetry_group_IT_number 64
_symmetry_cell_setting 'orthorhombic'
loop_
_space_group_symop_operation_xyz
x,y,z
-x,1/2-y,1/2+z
x,-y,-z
-x,1/2+y,1/2-z
-x,-y,-z
x,1/2+y,1/2-z
-x,y,z
x,1/2-y,1/2+z
1/2+x,1/2+y,z
1/2-x,-y,1/2+z
1/2+x,1/2-y,-z
1/2-x,y,1/2-z
1/2-x,1/2-y,-z
1/2+x,y,1/2-z
1/2-x,1/2+y,z
1/2+x,-y,1/2+z
loop_
_atom_site_type_symbol
_atom_site_label
_atom_site_fract_x
_atom_site_fract_y
_atom_site_fract_z
Si Si1 0.173150 0.340693 0.193790
Si Si2 0.178183 0.435800 0.688540
Si Si3 0.319013 0.886287 0.026924
Si Si4 0.180429 0.358134 0.585118
Si Si5 0.179323 0.945184 0.130314
Si Si6 0.828176 0.770826 0.415235
O O1 0.250000 0.315974 0.250000
O O2 0.269751 0.395473 0.173351
O O3 0.181133 0.287484 0.150462
O O4 0.000000 0.360798 0.203573
O O5 0.250000 0.426439 0.750000
O O6 0.225235 0.382848 0.646838
O O7 0.235352 0.494543 0.657883
O O8 0.000000 0.438647 0.697913
O O9 0.500000 0.888150 0.029759
O O10 0.256970 0.936156 0.068897
O O11 0.254173 0.822681 0.047358
O O12 0.257501 0.897623 0.963746
O O13 0.249093 0.292584 0.578399
O O14 0.000000 0.360644 0.577536
O O15 0.000000 0.943952 0.121601
O O16 0.000000 0.764250 0.435531
#
# Coordination Sequence:
#
# PCOD8262200 Si02
#       6
#    16  16  16  16  16  16
#     4  10  19  32  51  79 108 138 178 225 271 320
#     4  10  23  39  57  79 106 141 182 219 260 312
#     4  10  20  35  56  85 111 136 173 221 269 317
#     4  10  20  37  57  78 107 145 179 215 261 316
#     4  10  20  36  56  79 105 139 178 221 269 318
#     4   8  17  33  53  76 107 141 177 218 263 312
#
# _framework density 20.122235
#
# number of rings (size 3 to 8) (size 9 to 14) (size 15 to 20)
#    0.000    2.333    0.000    3.500    0.000    4.667 
#    0.000    7.500    0.000    0.000    0.000    0.000 
#    0.000    0.000    0.000    0.000    0.000    0.000 
#
# Total GULP energy -595066.826626 kJ/mol
# GULP energy per Si atom -12397.225555 kJ/mol
# Density = 2.007644 g / cm^3
# Si number density = 20.122235 Si / 1000 Ang^3
#
#
#
# Elastic Constant Matrix: (Units=GPa)
#
#
# Indices 1 2 3 4 5 6 
#
# 1 55.5376 18.8784 42.0731 0.0000 0.0000 0.0000
# 2 18.8784 61.7480 37.1315 0.0000 0.0000 0.0000
# 3 42.0731 37.1315 147.9801 0.0000 0.0000 0.0000
# 4 0.0000 0.0000 0.0000 17.1753 0.0000 0.0000
# 5 0.0000 0.0000 0.0000 0.0000 37.9314 0.0000
# 6 0.0000 0.0000 0.0000 0.0000 0.0000 18.2256
#
#
#
# Elastic Compliance Matrix: (Units=1/GPa)
#
#
# Indices 1 2 3 4 5 6 
#
# 1 0.023666 -0.003756 -0.005786 0.000000 0.000000 0.000000
# 2 -0.003756 0.019669 -0.003867 0.000000 0.000000 0.000000
# 3 -0.005786 -0.003867 0.009373 0.000000 0.000000 0.000000
# 4 0.000000 0.000000 0.000000 0.058223 0.000000 0.000000
# 5 0.000000 0.000000 0.000000 0.000000 0.026363 0.000000
# 6 0.000000 0.000000 0.000000 0.000000 0.000000 0.054868
#
#
# Mechanical properties :
#
#
# Convention : Reuss Voigt Hill
#
# Bulk Modulus (GPa) = 38.62685 51.27019 44.94852
# Shear Modulus (GPa) = 21.96727 25.81196 23.88961
#
# Velocity S-wave (km/s) = 3.30766 3.58545 3.44935
# Velocity P-wave (km/s) = 5.81595 6.53263 6.18468
#
# Compressibility (1/GPa) = 0.02588873
#
# Stress axis : x y z
#
# Youngs Moduli (GPa) = 42.25485 50.84185 106.68735
#
# Poissons Ratio (x) = 0.19096 0.61731
# Poissons Ratio (y) = 0.15871 0.41261
# Poissons Ratio (z) = 0.24449 0.19663
#
# Static dielectric constant tensor:
#      x y z
#    x 3.442080 0.000000 0.000000 
#    y 0.000000 3.748610 0.000000 
#    z 0.000000 0.000000 3.735830 
# 
# 
# High freq. dielectric constant tensor:
#      x y z
#    x 1.768360 0.000000 0.000000 
#    y 0.000000 1.777580 0.000000 
#    z 0.000000 0.000000 1.796740 
# 
# From -- ./inp_files/42977.got.cif
#   From: 2010.03.12/outbox.cif.g09.slc.cpg/sg64_22_cif.got.tgz:42977.got - 2010.04.10 20:19:32.
