data_PCOD8262599
_publ_section_title
;
Structure prediction by ZEFSAII (Michael W. Deem and Ramdas Pophale) SiO2 
 PCOD8262599
Probable space group: C M C A
;
_chemical_formula_sum "Si O2"
_cell_formula_units_Z 64
_cell_length_a 16.100403
_cell_length_b 20.413382
_cell_length_c 9.091374
_cell_angle_alpha 90.000000
_cell_angle_beta 90.000000
_cell_angle_gamma 90.000000
_cell_volume 2988.004406
_symmetry_space_group_name_H-M "C M C A"
_symmetry_group_IT_number 64
_symmetry_cell_setting 'orthorhombic'
loop_
_space_group_symop_operation_xyz
x,y,z
-x,1/2-y,1/2+z
x,-y,-z
-x,1/2+y,1/2-z
-x,-y,-z
x,1/2+y,1/2-z
-x,y,z
x,1/2-y,1/2+z
1/2+x,1/2+y,z
1/2-x,-y,1/2+z
1/2+x,1/2-y,-z
1/2-x,y,1/2-z
1/2-x,1/2-y,-z
1/2+x,y,1/2-z
1/2-x,1/2+y,z
1/2+x,-y,1/2+z
loop_
_atom_site_type_symbol
_atom_site_label
_atom_site_fract_x
_atom_site_fract_y
_atom_site_fract_z
Si Si1 0.657088 0.947767 0.199699
Si Si2 0.401047 0.299208 0.813998
Si Si3 0.402534 0.676390 0.862813
Si Si4 0.403583 0.582241 0.387269
O O1 0.750000 0.961823 0.250000
O O2 0.617660 0.896617 0.312493
O O3 0.606606 0.015822 0.207393
O O4 0.652302 0.919720 0.033986
O O5 0.500000 0.299817 0.820505
O O6 0.366670 0.230185 0.751408
O O7 0.370478 0.357300 0.707915
O O8 0.363473 0.310439 0.976262
O O9 0.500000 0.685921 0.872665
O O10 0.500000 0.590590 0.432795
#
# Coordination Sequence:
#
# PCOD8262599 Si02
#       4
#    16  16  16  16
#     4  11  23  37  56  85 116 151 190 236 291 343
#     4   9  19  34  60  88 110 142 192 241 282 333
#     4  10  19  36  59  85 114 148 189 238 287 343
#     4  10  21  41  63  84 113 157 199 235 282 345
#
# _framework density 21.418977000000002
#
# number of rings (size 3 to 8) (size 9 to 14) (size 15 to 20)
#    0.000    2.000    0.000    4.500    0.000    9.000 
#    0.000   10.000    0.000    0.000    0.000    0.000 
#    0.000    0.000    0.000    0.000    0.000    0.000 
#
# Total GULP energy -396822.121764 kJ/mol
# GULP energy per Si atom -12400.691305 kJ/mol
# Density = 2.137023 g / cm^3
# Si number density = 21.418977 Si / 1000 Ang^3
#
#
#
# Elastic Constant Matrix: (Units=GPa)
#
#
# Indices 1 2 3 4 5 6 
#
# 1 37.2066 12.9988 34.8373 0.0000 0.0000 0.0000
# 2 12.9988 69.6216 12.1250 0.0000 0.0000 0.0000
# 3 34.8373 12.1250 98.6972 0.0000 0.0000 0.0000
# 4 0.0000 0.0000 0.0000 43.5302 0.0000 0.0000
# 5 0.0000 0.0000 0.0000 0.0000 20.9006 0.0000
# 6 0.0000 0.0000 0.0000 0.0000 0.0000 0.8143
#
#
#
# Elastic Compliance Matrix: (Units=1/GPa)
#
#
# Indices 1 2 3 4 5 6 
#
# 1 0.042027 -0.005378 -0.014174 0.000000 0.000000 0.000000
# 2 -0.005378 0.015366 0.000011 0.000000 0.000000 0.000000
# 3 -0.014174 0.000011 0.015134 0.000000 0.000000 0.000000
# 4 0.000000 0.000000 0.000000 0.022973 0.000000 0.000000
# 5 0.000000 0.000000 0.000000 0.000000 0.047846 0.000000
# 6 0.000000 0.000000 0.000000 0.000000 0.000000 1.228094
#
#
# Mechanical properties :
#
#
# Convention : Reuss Voigt Hill
#
# Bulk Modulus (GPa) = 29.90088 36.16085 33.03087
# Shear Modulus (GPa) = 3.51699 22.75330 13.13515
#
# Velocity S-wave (km/s) = 1.28280 3.26282 2.47907
# Velocity P-wave (km/s) = 4.02298 5.57799 4.86304
#
# Compressibility (1/GPa) = 0.03344383
#
# Stress axis : x y z
#
# Youngs Moduli (GPa) = 23.79421 65.08020 66.07820
#
# Poissons Ratio (x) = 0.35002 0.93657
# Poissons Ratio (y) = 0.12797 -0.00071
# Poissons Ratio (z) = 0.33725 -0.00070
#
# Static dielectric constant tensor:
#      x y z
#    x 3.427970 0.000000 0.000000 
#    y 0.000000 4.067880 0.000000 
#    z 0.000000 0.000000 4.091160 
# 
# 
# High freq. dielectric constant tensor:
#      x y z
#    x 1.800950 0.000000 0.000000 
#    y 0.000000 1.856230 0.000000 
#    z 0.000000 0.000000 1.848280 
# 
# From -- ./inp_files/5577.got.cif
#   From: 2010.03.12/outbox.cif.g09.slc.cpg/sg64_3_cif.got.tgz:5577.got - 2010.04.10 20:19:32.
