data_PCOD8262359
_publ_section_title
;
Structure prediction by ZEFSAII (Michael W. Deem and Ramdas Pophale) SiO2 
 PCOD8262359
Probable space group: C M C A
;
_chemical_formula_sum "Si O2"
_cell_formula_units_Z 96
_cell_length_a 27.205766
_cell_length_b 9.846770
_cell_length_c 17.355378
_cell_angle_alpha 90.000000
_cell_angle_beta 90.000000
_cell_angle_gamma 90.000000
_cell_volume 4649.313477
_symmetry_space_group_name_H-M "C M C A"
_symmetry_group_IT_number 64
_symmetry_cell_setting 'orthorhombic'
loop_
_space_group_symop_operation_xyz
x,y,z
-x,1/2-y,1/2+z
x,-y,-z
-x,1/2+y,1/2-z
-x,-y,-z
x,1/2+y,1/2-z
-x,y,z
x,1/2-y,1/2+z
1/2+x,1/2+y,z
1/2-x,-y,1/2+z
1/2+x,1/2-y,-z
1/2-x,y,1/2-z
1/2-x,1/2-y,-z
1/2+x,y,1/2-z
1/2-x,1/2+y,z
1/2+x,-y,1/2+z
loop_
_atom_site_type_symbol
_atom_site_label
_atom_site_fract_x
_atom_site_fract_y
_atom_site_fract_z
Si Si1 0.623176 0.357527 0.178904
Si Si2 0.444543 0.397938 0.849350
Si Si3 0.447549 0.368406 0.668465
Si Si4 0.294876 0.967038 0.086618
Si Si5 0.771462 0.247443 0.835495
Si Si6 0.396482 0.372621 0.358713
O O1 0.594868 0.482042 0.138411
O O2 0.596890 0.226323 0.142366
O O3 0.680140 0.346945 0.157550
O O4 0.621443 0.362007 0.270858
O O5 0.500000 0.428994 0.882193
O O6 0.449908 0.366511 0.760181
O O7 0.419587 0.267502 0.890455
O O8 0.500000 0.313710 0.637306
O O9 0.440220 0.518735 0.635954
O O10 0.267097 0.829823 0.111181
O O11 0.351988 0.926341 0.089500
O O12 0.281876 0.097575 0.139096
O O13 0.279655 0.000000 0.000000
O O14 0.750000 0.255605 0.750000
#
# Coordination Sequence:
#
# PCOD8262359 Si02
#       6
#    16  16  16  16  16  16
#     4  10  19  33  56  91 120 154 203 254 311 359
#     4   9  18  30  53  89 125 155 196 257 311 360
#     4   9  16  29  51  82 120 155 196 254 310 364
#     4  12  27  44  62  92 129 169 211 264 326 384
#     4  12  25  42  68  94 122 166 216 269 315 378
#     4  10  19  33  56  84 122 158 203 247 308 376
#
# _framework density 20.648209999999999
#
# number of rings (size 3 to 8) (size 9 to 14) (size 15 to 20)
#    0.000    1.667    3.333    2.000    2.333    4.000 
#    0.000    0.000    0.000    2.000    0.000    1.167 
#    0.000    0.000    0.000    0.000    0.000    0.000 
#
# Total GULP energy -594909.569601 kJ/mol
# GULP energy per Si atom -12393.949367 kJ/mol
# Density = 2.060121 g / cm^3
# Si number density = 20.648210 Si / 1000 Ang^3
#
#
#
# Elastic Constant Matrix: (Units=GPa)
#
#
# Indices 1 2 3 4 5 6 
#
# 1 126.5127 42.1382 24.3676 0.0000 0.0000 0.0000
# 2 42.1382 120.3480 16.3533 0.0000 0.0000 0.0000
# 3 24.3676 16.3533 42.4976 0.0000 0.0000 0.0000
# 4 0.0000 0.0000 0.0000 10.4678 0.0000 0.0000
# 5 0.0000 0.0000 0.0000 0.0000 8.3262 0.0000
# 6 0.0000 0.0000 0.0000 0.0000 0.0000 30.0672
#
#
#
# Elastic Compliance Matrix: (Units=1/GPa)
#
#
# Indices 1 2 3 4 5 6 
#
# 1 0.009696 -0.002785 -0.004488 0.000000 0.000000 0.000000
# 2 -0.002785 0.009568 -0.002085 0.000000 0.000000 0.000000
# 3 -0.004488 -0.002085 0.026906 0.000000 0.000000 0.000000
# 4 0.000000 0.000000 0.000000 0.095531 0.000000 0.000000
# 5 0.000000 0.000000 0.000000 0.000000 0.120103 0.000000
# 6 0.000000 0.000000 0.000000 0.000000 0.000000 0.033259
#
#
# Mechanical properties :
#
#
# Convention : Reuss Voigt Hill
#
# Bulk Modulus (GPa) = 36.42381 50.56404 43.49393
# Shear Modulus (GPa) = 15.48316 23.53885 19.51100
#
# Velocity S-wave (km/s) = 2.74132 3.38004 3.07730
# Velocity P-wave (km/s) = 5.26291 6.30670 5.80830
#
# Compressibility (1/GPa) = 0.02745457
#
# Stress axis : x y z
#
# Youngs Moduli (GPa) = 103.13018 104.51812 37.16595
#
# Poissons Ratio (x) = 0.29111 0.16680
# Poissons Ratio (y) = 0.28724 0.07748
# Poissons Ratio (z) = 0.46286 0.21789
#
# Static dielectric constant tensor:
#      x y z
#    x 4.006920 0.000000 0.000000 
#    y 0.000000 3.945550 0.000000 
#    z 0.000000 0.000000 3.141210 
# 
# 
# High freq. dielectric constant tensor:
#      x y z
#    x 1.828200 0.000000 0.000000 
#    y 0.000000 1.822450 0.000000 
#    z 0.000000 0.000000 1.741480 
# 
# From -- ./inp_files/41791.got.cif
#   From: 2010.03.12/outbox.cif.g09.slc.cpg/sg64_21_cif.got.tgz:41791.got - 2010.04.10 20:19:32.
