data_PCOD8262282
_publ_section_title
;
Structure prediction by ZEFSAII (Michael W. Deem and Ramdas Pophale) SiO2 
 PCOD8262282
Probable space group: C M C A
;
_chemical_formula_sum "Si O2"
_cell_formula_units_Z 64
_cell_length_a 30.374185
_cell_length_b 23.357247
_cell_length_c 4.971875
_cell_angle_alpha 90.000000
_cell_angle_beta 90.000000
_cell_angle_gamma 90.000000
_cell_volume 3527.333220
_symmetry_space_group_name_H-M "C M C A"
_symmetry_group_IT_number 64
_symmetry_cell_setting 'orthorhombic'
loop_
_space_group_symop_operation_xyz
x,y,z
-x,1/2-y,1/2+z
x,-y,-z
-x,1/2+y,1/2-z
-x,-y,-z
x,1/2+y,1/2-z
-x,y,z
x,1/2-y,1/2+z
1/2+x,1/2+y,z
1/2-x,-y,1/2+z
1/2+x,1/2-y,-z
1/2-x,y,1/2-z
1/2-x,1/2-y,-z
1/2+x,y,1/2-z
1/2-x,1/2+y,z
1/2+x,-y,1/2+z
loop_
_atom_site_type_symbol
_atom_site_label
_atom_site_fract_x
_atom_site_fract_y
_atom_site_fract_z
Si Si1 0.750000 0.290149 0.250000
Si Si2 0.654702 0.708936 0.781451
Si Si3 0.075253 0.129366 0.904720
Si Si4 0.000000 0.287124 0.569588
Si Si5 0.449195 0.939254 0.893379
O O1 0.750000 0.250000 0.500000
O O2 0.703062 0.323017 0.227894
O O3 0.647609 0.741298 0.500594
O O4 0.622053 0.656489 0.831300
O O5 0.054208 0.105905 0.632851
O O6 0.043979 0.177447 0.026339
O O7 0.079431 0.080052 0.133624
O O8 0.000000 0.231874 0.379110
O O9 0.500000 0.944142 0.799907
O O10 0.431118 0.000000 0.000000
#
# Coordination Sequence:
#
# PCOD8262282 Si02
#       5
#     8  16  16   8  16
#     4   8  16  30  50  72 102 136 168 202 240 290
#     4  10  19  33  51  77 108 138 168 204 249 311
#     4  12  21  35  52  75 101 138 173 212 260 307
#     4  12  22  32  45  70 105 138 164 196 246 310
#     4  11  22  38  54  71  96 133 181 229 261 294
#
# _framework density 18.144017999999999
#
# number of rings (size 3 to 8) (size 9 to 14) (size 15 to 20)
#    0.000    1.250    2.500    5.250    0.000    2.000 
#    0.000    0.000    0.000    0.000    0.000    3.500 
#    0.000    0.000    0.000    0.000    0.000    0.000 
#
# Total GULP energy -396594.674445 kJ/mol
# GULP energy per Si atom -12393.583576 kJ/mol
# Density = 1.810272 g / cm^3
# Si number density = 18.144018 Si / 1000 Ang^3
#
#
#
# Elastic Constant Matrix: (Units=GPa)
#
#
# Indices 1 2 3 4 5 6 
#
# 1 118.0462 42.2397 11.2675 0.0000 0.0000 0.0000
# 2 42.2397 59.7078 7.7069 0.0000 0.0000 0.0000
# 3 11.2675 7.7069 79.5423 0.0000 0.0000 0.0000
# 4 0.0000 0.0000 0.0000 34.7742 0.0000 0.0000
# 5 0.0000 0.0000 0.0000 0.0000 21.8927 0.0000
# 6 0.0000 0.0000 0.0000 0.0000 0.0000 15.7235
#
#
#
# Elastic Compliance Matrix: (Units=1/GPa)
#
#
# Indices 1 2 3 4 5 6 
#
# 1 0.011398 -0.007955 -0.000844 0.000000 0.000000 0.000000
# 2 -0.007955 0.022512 -0.001054 0.000000 0.000000 0.000000
# 3 -0.000844 -0.001054 0.012794 0.000000 0.000000 0.000000
# 4 0.000000 0.000000 0.000000 0.028757 0.000000 0.000000
# 5 0.000000 0.000000 0.000000 0.000000 0.045677 0.000000
# 6 0.000000 0.000000 0.000000 0.000000 0.000000 0.063599
#
#
# Mechanical properties :
#
#
# Convention : Reuss Voigt Hill
#
# Bulk Modulus (GPa) = 37.03999 42.19159 39.61579
# Shear Modulus (GPa) = 23.42561 27.55024 25.48792
#
# Velocity S-wave (km/s) = 3.59708 3.90092 3.75207
# Velocity P-wave (km/s) = 6.14090 6.60256 6.37591
#
# Compressibility (1/GPa) = 0.02699785
#
# Stress axis : x y z
#
# Youngs Moduli (GPa) = 87.73360 44.42131 78.16389
#
# Poissons Ratio (x) = 0.35335 0.06596
# Poissons Ratio (y) = 0.69788 0.08241
# Poissons Ratio (z) = 0.07404 0.04684
#
# Static dielectric constant tensor:
#      x y z
#    x 3.825890 0.000000 0.000000 
#    y 0.000000 3.214540 0.000000 
#    z 0.000000 0.000000 3.692210 
# 
# 
# High freq. dielectric constant tensor:
#      x y z
#    x 1.690690 0.000000 0.000000 
#    y 0.000000 1.669990 0.000000 
#    z 0.000000 0.000000 1.734520 
# 
# From -- ./inp_files/2728.got.cif
#   From: 2010.03.12/outbox.cif.g09.slc.cpg/sg64_2_cif.got.tgz:2728.got - 2010.04.10 20:19:32.
