data_PCOD8262408
_publ_section_title
;
Structure prediction by ZEFSAII (Michael W. Deem and Ramdas Pophale) SiO2 
 PCOD8262408
Probable space group: C M C A
;
_chemical_formula_sum "Si O2"
_cell_formula_units_Z 96
_cell_length_a 23.166195
_cell_length_b 13.058242
_cell_length_c 17.777569
_cell_angle_alpha 90.000000
_cell_angle_beta 90.000000
_cell_angle_gamma 90.000000
_cell_volume 5377.888497
_symmetry_space_group_name_H-M "C M C A"
_symmetry_group_IT_number 64
_symmetry_cell_setting 'orthorhombic'
loop_
_space_group_symop_operation_xyz
x,y,z
-x,1/2-y,1/2+z
x,-y,-z
-x,1/2+y,1/2-z
-x,-y,-z
x,1/2+y,1/2-z
-x,y,z
x,1/2-y,1/2+z
1/2+x,1/2+y,z
1/2-x,-y,1/2+z
1/2+x,1/2-y,-z
1/2-x,y,1/2-z
1/2-x,1/2-y,-z
1/2+x,y,1/2-z
1/2-x,1/2+y,z
1/2+x,-y,1/2+z
loop_
_atom_site_type_symbol
_atom_site_label
_atom_site_fract_x
_atom_site_fract_y
_atom_site_fract_z
Si Si1 0.288855 0.460642 0.642879
Si Si2 0.175522 0.617849 0.303340
Si Si3 0.435359 0.343732 0.047548
Si Si4 0.064804 0.560906 0.386598
Si Si5 0.826196 0.720467 0.051527
Si Si6 0.286788 0.193968 0.887606
O O1 0.219262 0.449351 0.645185
O O2 0.316628 0.410620 0.716801
O O3 0.315456 0.398204 0.572914
O O4 0.303969 0.579018 0.634046
O O5 0.109387 0.596949 0.323535
O O6 0.191840 0.736798 0.317738
O O7 0.500000 0.297844 0.052150
O O8 0.429454 0.439353 0.103381
O O9 0.390629 0.256160 0.072835
O O10 0.421225 0.381186 0.963746
O O11 0.000000 0.588125 0.359425
O O12 0.781576 0.793115 0.097070
O O13 0.819553 0.731474 0.962208
#
# Coordination Sequence:
#
# PCOD8262408 Si02
#       6
#    16  16  16  16  16  16
#     4  10  22  33  52  79 109 139 172 215 268 320
#     4  10  20  35  52  75 105 142 172 212 271 313
#     4   9  17  30  53  80 103 132 173 223 264 300
#     4   9  17  31  53  79 103 133 178 221 258 304
#     4  10  19  34  54  78 106 138 176 218 260 315
#     4  10  20  34  53  78 106 139 175 215 262 317
#
# _framework density 17.850871999999999
#
# number of rings (size 3 to 8) (size 9 to 14) (size 15 to 20)
#    0.000    2.333    1.667    2.500    0.000    6.667 
#    0.000    0.833    0.000    5.000    0.000    0.000 
#    0.000    0.000    0.000    0.000    0.000    0.000 
#
# Total GULP energy -595138.049272 kJ/mol
# GULP energy per Si atom -12398.709360 kJ/mol
# Density = 1.781024 g / cm^3
# Si number density = 17.850872 Si / 1000 Ang^3
#
#
#
# Elastic Constant Matrix: (Units=GPa)
#
#
# Indices 1 2 3 4 5 6 
#
# 1 123.5428 39.1412 28.7726 0.0000 0.0000 0.0000
# 2 39.1412 97.8444 27.6232 0.0000 0.0000 0.0000
# 3 28.7726 27.6232 56.3136 0.0000 0.0000 0.0000
# 4 0.0000 0.0000 0.0000 20.1169 0.0000 0.0000
# 5 0.0000 0.0000 0.0000 0.0000 21.2865 0.0000
# 6 0.0000 0.0000 0.0000 0.0000 0.0000 23.5020
#
#
#
# Elastic Compliance Matrix: (Units=1/GPa)
#
#
# Indices 1 2 3 4 5 6 
#
# 1 0.009861 -0.002928 -0.003602 0.000000 0.000000 0.000000
# 2 -0.002928 0.012732 -0.004750 0.000000 0.000000 0.000000
# 3 -0.003602 -0.004750 0.021928 0.000000 0.000000 0.000000
# 4 0.000000 0.000000 0.000000 0.049709 0.000000 0.000000
# 5 0.000000 0.000000 0.000000 0.000000 0.046978 0.000000
# 6 0.000000 0.000000 0.000000 0.000000 0.000000 0.042549
#
#
# Mechanical properties :
#
#
# Convention : Reuss Voigt Hill
#
# Bulk Modulus (GPa) = 45.53285 52.08610 48.80948
# Shear Modulus (GPa) = 23.40406 25.12535 24.26470
#
# Velocity S-wave (km/s) = 3.62482 3.75575 3.69087
# Velocity P-wave (km/s) = 6.56368 6.93177 6.75023
#
# Compressibility (1/GPa) = 0.02196216
#
# Stress axis : x y z
#
# Youngs Moduli (GPa) = 101.41105 78.53960 45.60384
#
# Poissons Ratio (x) = 0.22994 0.16427
# Poissons Ratio (y) = 0.29691 0.21660
# Poissons Ratio (z) = 0.36530 0.37304
#
# Static dielectric constant tensor:
#      x y z
#    x 3.279390 0.000000 0.000000 
#    y 0.000000 3.128590 0.000000 
#    z 0.000000 0.000000 3.077410 
# 
# 
# High freq. dielectric constant tensor:
#      x y z
#    x 1.683550 0.000000 0.000000 
#    y 0.000000 1.680810 0.000000 
#    z 0.000000 0.000000 1.674660 
# 
# From -- ./inp_files/41452.got.cif
#   From: 2010.03.12/outbox.cif.g09.slc.cpg/sg64_21_cif.got.tgz:41452.got - 2010.04.10 20:19:32.
