data_PCOD8262563
_publ_section_title
;
Structure prediction by ZEFSAII (Michael W. Deem and Ramdas Pophale) SiO2 
 PCOD8262563
Probable space group: C M C A
;
_chemical_formula_sum "Si O2"
_cell_formula_units_Z 88
_cell_length_a 20.752604
_cell_length_b 8.987053
_cell_length_c 21.937350
_cell_angle_alpha 90.000000
_cell_angle_beta 90.000000
_cell_angle_gamma 90.000000
_cell_volume 4091.420022
_symmetry_space_group_name_H-M "C M C A"
_symmetry_group_IT_number 64
_symmetry_cell_setting 'orthorhombic'
loop_
_space_group_symop_operation_xyz
x,y,z
-x,1/2-y,1/2+z
x,-y,-z
-x,1/2+y,1/2-z
-x,-y,-z
x,1/2+y,1/2-z
-x,y,z
x,1/2-y,1/2+z
1/2+x,1/2+y,z
1/2-x,-y,1/2+z
1/2+x,1/2-y,-z
1/2-x,y,1/2-z
1/2-x,1/2-y,-z
1/2+x,y,1/2-z
1/2-x,1/2+y,z
1/2+x,-y,1/2+z
loop_
_atom_site_type_symbol
_atom_site_label
_atom_site_fract_x
_atom_site_fract_y
_atom_site_fract_z
Si Si1 0.310765 0.391819 0.829984
Si Si2 0.307021 0.342070 0.968540
Si Si3 0.428220 0.014983 0.829098
Si Si4 0.927650 0.182555 0.228361
Si Si5 0.250000 0.856663 0.250000
Si Si6 0.074549 0.365502 0.046198
O O1 0.286233 0.368439 0.898367
O O2 0.388740 0.396256 0.827206
O O3 0.298918 0.247764 0.786699
O O4 0.282671 0.541900 0.801587
O O5 0.376560 0.262264 0.975911
O O6 0.314361 0.500000 0.000000
O O7 0.250000 0.250000 0.000000
O O8 0.500000 0.976538 0.851519
O O9 0.426979 0.140407 0.776587
O O10 0.393759 0.072000 0.890469
O O11 0.398024 0.870479 0.794854
O O12 0.000000 0.118745 0.223948
O O13 0.000000 0.305845 0.053680
O O14 0.075692 0.500000 0.000000
#
# Coordination Sequence:
#
# PCOD8262563 Si02
#       6
#    16  16  16  16   8  16
#     4  11  22  42  64  90 127 161 212 262 320 388
#     4  12  26  45  67  95 129 179 227 280 332 394
#     4   9  18  35  59  93 131 164 200 254 321 392
#     4  10  19  35  63  95 127 160 198 254 328 389
#     4  10  24  40  62  92 120 170 204 260 320 384
#     4  10  22  44  68  94 131 176 222 272 330 397
#
# _framework density 21.508424000000002
#
# number of rings (size 3 to 8) (size 9 to 14) (size 15 to 20)
#    0.000    1.636    1.818    2.727    0.000    0.364 
#    9.818    0.000    0.000    0.000    0.000    0.000 
#    0.000    0.000    0.000    0.000    0.000    0.000 
#
# Total GULP energy -545134.610889 kJ/mol
# GULP energy per Si atom -12389.422975 kJ/mol
# Density = 2.145947 g / cm^3
# Si number density = 21.508424 Si / 1000 Ang^3
#
#
#
# Elastic Constant Matrix: (Units=GPa)
#
#
# Indices 1 2 3 4 5 6 
#
# 1 87.7695 37.9274 45.8473 0.0000 0.0000 0.0000
# 2 37.9274 117.5307 66.9045 0.0000 0.0000 0.0000
# 3 45.8473 66.9045 147.7582 0.0000 0.0000 0.0000
# 4 0.0000 0.0000 0.0000 38.6411 0.0000 0.0000
# 5 0.0000 0.0000 0.0000 0.0000 28.9503 0.0000
# 6 0.0000 0.0000 0.0000 0.0000 0.0000 20.1695
#
#
#
# Elastic Compliance Matrix: (Units=1/GPa)
#
#
# Indices 1 2 3 4 5 6 
#
# 1 0.014252 -0.002805 -0.003152 0.000000 0.000000 0.000000
# 2 -0.002805 0.012015 -0.004570 0.000000 0.000000 0.000000
# 3 -0.003152 -0.004570 0.009815 0.000000 0.000000 0.000000
# 4 0.000000 0.000000 0.000000 0.025879 0.000000 0.000000
# 5 0.000000 0.000000 0.000000 0.000000 0.034542 0.000000
# 6 0.000000 0.000000 0.000000 0.000000 0.000000 0.049580
#
#
# Mechanical properties :
#
#
# Convention : Reuss Voigt Hill
#
# Bulk Modulus (GPa) = 66.54168 72.71298 69.62733
# Shear Modulus (GPa) = 29.04498 31.04415 30.04456
#
# Velocity S-wave (km/s) = 3.67877 3.80326 3.74153
# Velocity P-wave (km/s) = 7.00350 7.29154 7.14897
#
# Compressibility (1/GPa) = 0.01502818
#
# Stress axis : x y z
#
# Youngs Moduli (GPa) = 70.16517 83.22891 101.88247
#
# Poissons Ratio (x) = 0.23344 0.32116
# Poissons Ratio (y) = 0.19680 0.46561
# Poissons Ratio (z) = 0.22118 0.38036
#
# Static dielectric constant tensor:
#      x y z
#    x 4.106260 0.000000 0.000000 
#    y 0.000000 3.892530 0.000000 
#    z 0.000000 0.000000 4.047180 
# 
# 
# High freq. dielectric constant tensor:
#      x y z
#    x 1.848580 0.000000 0.000000 
#    y 0.000000 1.841380 0.000000 
#    z 0.000000 0.000000 1.843010 
# 
# From -- ./inp_files/41382.got.cif
#   From: 2010.03.12/outbox.cif.g09.slc.cpg/sg64_21_cif.got.tgz:41382.got - 2010.04.10 20:19:32.
