data_PCOD8262710
_publ_section_title
;
Structure prediction by ZEFSAII (Michael W. Deem and Ramdas Pophale) SiO2 
 PCOD8262710
Probable space group: C M C A
;
_chemical_formula_sum "Si O2"
_cell_formula_units_Z 72
_cell_length_a 12.918036
_cell_length_b 16.749382
_cell_length_c 20.108565
_cell_angle_alpha 90.000000
_cell_angle_beta 90.000000
_cell_angle_gamma 90.000000
_cell_volume 4350.872507
_symmetry_space_group_name_H-M "C M C A"
_symmetry_group_IT_number 64
_symmetry_cell_setting 'orthorhombic'
loop_
_space_group_symop_operation_xyz
x,y,z
-x,1/2-y,1/2+z
x,-y,-z
-x,1/2+y,1/2-z
-x,-y,-z
x,1/2+y,1/2-z
-x,y,z
x,1/2-y,1/2+z
1/2+x,1/2+y,z
1/2-x,-y,1/2+z
1/2+x,1/2-y,-z
1/2-x,y,1/2-z
1/2-x,1/2-y,-z
1/2+x,y,1/2-z
1/2-x,1/2+y,z
1/2+x,-y,1/2+z
loop_
_atom_site_type_symbol
_atom_site_label
_atom_site_fract_x
_atom_site_fract_y
_atom_site_fract_z
Si Si1 0.882731 0.987468 0.645571
Si Si2 0.120789 0.825522 0.865568
Si Si3 0.881967 0.347714 0.081600
Si Si4 0.748492 0.418342 0.532154
Si Si5 0.250000 0.901969 0.750000
O O1 0.844561 0.939665 0.581353
O O2 0.823763 0.961912 0.711249
O O3 0.000000 0.962850 0.656353
O O4 0.868188 0.081898 0.635165
O O5 0.143595 0.733359 0.880178
O O6 0.157362 0.876940 0.929085
O O7 0.183850 0.846570 0.799224
O O8 0.000000 0.842766 0.853853
O O9 0.000000 0.347388 0.053685
O O10 0.799970 0.358447 0.022083
O O11 0.792606 0.500000 0.500000
#
# Coordination Sequence:
#
# PCOD8262710 Si02
#       5
#    16  16  16  16   8
#     4   9  17  30  48  67  88 117 154 191 222 261
#     4  10  20  32  47  68  94 122 150 184 225 267
#     4   9  17  30  49  71  92 115 147 188 229 266
#     4   9  17  30  49  71  93 118 147 181 225 273
#     4  10  20  32  46  64  90 124 156 186 222 266
#
# _framework density 16.548404000000001
#
# number of rings (size 3 to 8) (size 9 to 14) (size 15 to 20)
#    0.000    2.667    0.000    2.000    0.000    4.000 
#    0.000    0.000    0.000    1.333    0.000    0.000 
#    0.000    0.000    0.000    0.000    0.000    0.000 
#
# Total GULP energy -446402.454218 kJ/mol
# GULP energy per Si atom -12400.068173 kJ/mol
# Density = 1.651074 g / cm^3
# Si number density = 16.548404 Si / 1000 Ang^3
#
#
#
# Elastic Constant Matrix: (Units=GPa)
#
#
# Indices 1 2 3 4 5 6 
#
# 1 105.1547 60.3511 57.2890 0.0000 0.0000 0.0000
# 2 60.3511 106.2499 57.2737 0.0000 0.0000 0.0000
# 3 57.2890 57.2737 101.8110 0.0000 0.0000 0.0000
# 4 0.0000 0.0000 0.0000 20.8573 0.0000 0.0000
# 5 0.0000 0.0000 0.0000 0.0000 20.8332 0.0000
# 6 0.0000 0.0000 0.0000 0.0000 0.0000 22.7943
#
#
#
# Elastic Compliance Matrix: (Units=1/GPa)
#
#
# Indices 1 2 3 4 5 6 
#
# 1 0.016068 -0.006104 -0.005608 0.000000 0.000000 0.000000
# 2 -0.006104 0.015827 -0.005469 0.000000 0.000000 0.000000
# 3 -0.005608 -0.005469 0.016054 0.000000 0.000000 0.000000
# 4 0.000000 0.000000 0.000000 0.047945 0.000000 0.000000
# 5 0.000000 0.000000 0.000000 0.000000 0.048000 0.000000
# 6 0.000000 0.000000 0.000000 0.000000 0.000000 0.043871
#
#
# Mechanical properties :
#
#
# Convention : Reuss Voigt Hill
#
# Bulk Modulus (GPa) = 73.59357 73.67146 73.63251
# Shear Modulus (GPa) = 22.05999 22.11710 22.08854
#
# Velocity S-wave (km/s) = 3.65507 3.65980 3.65743
# Velocity P-wave (km/s) = 7.89816 7.90406 7.90111
#
# Compressibility (1/GPa) = 0.01358814
#
# Stress axis : x y z
#
# Youngs Moduli (GPa) = 62.23462 63.18404 62.29005
#
# Poissons Ratio (x) = 0.38568 0.34931
# Poissons Ratio (y) = 0.37989 0.34064
# Poissons Ratio (z) = 0.34899 0.34553
#
# Static dielectric constant tensor:
#      x y z
#    x 3.073120 0.000000 0.000000 
#    y 0.000000 3.220120 0.000000 
#    z 0.000000 0.000000 3.092190 
# 
# 
# High freq. dielectric constant tensor:
#      x y z
#    x 1.636300 0.000000 0.000000 
#    y 0.000000 1.641970 0.000000 
#    z 0.000000 0.000000 1.635800 
# 
# From -- ./inp_files/30657.got.cif
#   From: 2010.03.12/outbox.cif.g09.slc.cpg/sg64_16_cif.got.tgz:30657.got - 2010.04.10 20:19:32.
