data_PCOD8262109
_publ_section_title
;
Structure prediction by ZEFSAII (Michael W. Deem and Ramdas Pophale) SiO2 
 PCOD8262109
Probable space group: C M C A
;
_chemical_formula_sum "Si O2"
_cell_formula_units_Z 80
_cell_length_a 8.866390
_cell_length_b 20.080213
_cell_length_c 28.095405
_cell_angle_alpha 90.000000
_cell_angle_beta 90.000000
_cell_angle_gamma 90.000000
_cell_volume 5002.077804
_symmetry_space_group_name_H-M "C M C A"
_symmetry_group_IT_number 64
_symmetry_cell_setting 'orthorhombic'
loop_
_space_group_symop_operation_xyz
x,y,z
-x,1/2-y,1/2+z
x,-y,-z
-x,1/2+y,1/2-z
-x,-y,-z
x,1/2+y,1/2-z
-x,y,z
x,1/2-y,1/2+z
1/2+x,1/2+y,z
1/2-x,-y,1/2+z
1/2+x,1/2-y,-z
1/2-x,y,1/2-z
1/2-x,1/2-y,-z
1/2+x,y,1/2-z
1/2-x,1/2+y,z
1/2+x,-y,1/2+z
loop_
_atom_site_type_symbol
_atom_site_label
_atom_site_fract_x
_atom_site_fract_y
_atom_site_fract_z
Si Si1 0.178256 0.074772 0.364844
Si Si2 0.328730 0.015503 0.448207
Si Si3 0.324028 0.334369 0.299088
Si Si4 0.176945 0.319519 0.700528
Si Si5 0.670799 0.556769 0.857554
O O1 0.248128 0.140882 0.342521
O O2 0.000000 0.076488 0.360423
O O3 0.229361 0.071474 0.420649
O O4 0.244389 0.009479 0.337337
O O5 0.500000 0.042232 0.453941
O O6 0.327214 0.948374 0.415479
O O7 0.258233 0.000000 0.500000
O O8 0.500000 0.347704 0.295540
O O9 0.250000 0.358662 0.250000
O O10 0.286464 0.257617 0.309096
O O11 0.256053 0.376589 0.342369
O O12 0.250000 0.343032 0.750000
O O13 0.000000 0.333841 0.702634
O O14 0.500000 0.557639 0.837972
#
# Coordination Sequence:
#
# PCOD8262109 Si02
#       5
#    16  16  16  16  16
#     4  10  19  31  49  75 100 126 162 202 240 283
#     4   8  16  32  52  73  97 126 158 197 247 292
#     4  10  20  33  50  71  98 131 164 199 238 286
#     4  10  20  34  50  70  98 132 165 198 240 286
#     4   9  18  32  50  73  98 127 161 199 241 287
#
# _framework density 15.993353000000001
#
# number of rings (size 3 to 8) (size 9 to 14) (size 15 to 20)
#    1.200    1.400    0.000    3.000    0.000    3.600 
#    0.000    4.000    0.000    1.200    0.000    0.000 
#    0.000    0.000    0.000    0.000    0.000    0.000 
#
# Total GULP energy -495699.956830 kJ/mol
# GULP energy per Si atom -12392.498921 kJ/mol
# Density = 1.595695 g / cm^3
# Si number density = 15.993353 Si / 1000 Ang^3
#
#
#
# Elastic Constant Matrix: (Units=GPa)
#
#
# Indices 1 2 3 4 5 6 
#
# 1 107.2692 46.2456 42.2711 0.0000 0.0000 0.0000
# 2 46.2456 69.7918 47.6358 0.0000 0.0000 0.0000
# 3 42.2711 47.6358 93.6086 0.0000 0.0000 0.0000
# 4 0.0000 0.0000 0.0000 13.1263 0.0000 0.0000
# 5 0.0000 0.0000 0.0000 0.0000 25.4315 0.0000
# 6 0.0000 0.0000 0.0000 0.0000 0.0000 28.3830
#
#
#
# Elastic Compliance Matrix: (Units=1/GPa)
#
#
# Indices 1 2 3 4 5 6 
#
# 1 0.013378 -0.007264 -0.002344 0.000000 0.000000 0.000000
# 2 -0.007264 0.025898 -0.009899 0.000000 0.000000 0.000000
# 3 -0.002344 -0.009899 0.016779 0.000000 0.000000 0.000000
# 4 0.000000 0.000000 0.000000 0.076183 0.000000 0.000000
# 5 0.000000 0.000000 0.000000 0.000000 0.039321 0.000000
# 6 0.000000 0.000000 0.000000 0.000000 0.000000 0.035232
#
#
# Mechanical properties :
#
#
# Convention : Reuss Voigt Hill
#
# Bulk Modulus (GPa) = 58.68600 60.33051 59.50826
# Shear Modulus (GPa) = 19.88180 22.35597 21.11889
#
# Velocity S-wave (km/s) = 3.52963 3.74281 3.63778
# Velocity P-wave (km/s) = 7.30648 7.51547 7.41171
#
# Compressibility (1/GPa) = 0.01703984
#
# Stress axis : x y z
#
# Youngs Moduli (GPa) = 74.74955 38.61277 59.59922
#
# Poissons Ratio (x) = 0.28050 0.13973
# Poissons Ratio (y) = 0.54301 0.58996
# Poissons Ratio (z) = 0.17524 0.38222
#
# Static dielectric constant tensor:
#      x y z
#    x 3.093820 0.000000 0.000000 
#    y 0.000000 2.851790 0.000000 
#    z 0.000000 0.000000 2.918580 
# 
# 
# High freq. dielectric constant tensor:
#      x y z
#    x 1.630890 0.000000 0.000000 
#    y 0.000000 1.593630 0.000000 
#    z 0.000000 0.000000 1.596000 
# 
# From -- ./inp_files/51754.got.cif
#   From: 2010.03.12/outbox.cif.g09.slc.cpg/sg64_26_cif.got.tgz:51754.got - 2010.04.10 20:19:32.
