data_PCOD8262090
_publ_section_title
;
Structure prediction by ZEFSAII (Michael W. Deem and Ramdas Pophale) SiO2 
 PCOD8262090
Probable space group: C M C A
;
_chemical_formula_sum "Si O2"
_cell_formula_units_Z 80
_cell_length_a 13.577062
_cell_length_b 16.934626
_cell_length_c 20.397814
_cell_angle_alpha 90.000000
_cell_angle_beta 90.000000
_cell_angle_gamma 90.000000
_cell_volume 4689.915719
_symmetry_space_group_name_H-M "C M C A"
_symmetry_group_IT_number 64
_symmetry_cell_setting 'orthorhombic'
loop_
_space_group_symop_operation_xyz
x,y,z
-x,1/2-y,1/2+z
x,-y,-z
-x,1/2+y,1/2-z
-x,-y,-z
x,1/2+y,1/2-z
-x,y,z
x,1/2-y,1/2+z
1/2+x,1/2+y,z
1/2-x,-y,1/2+z
1/2+x,1/2-y,-z
1/2-x,y,1/2-z
1/2-x,1/2-y,-z
1/2+x,y,1/2-z
1/2-x,1/2+y,z
1/2+x,-y,1/2+z
loop_
_atom_site_type_symbol
_atom_site_label
_atom_site_fract_x
_atom_site_fract_y
_atom_site_fract_z
Si Si1 0.762123 0.418503 0.529740
Si Si2 0.111744 0.820229 0.606995
Si Si3 0.689169 0.995396 0.657174
Si Si4 0.611190 0.048259 0.207094
Si Si5 0.384979 0.356719 0.089427
O O1 0.718708 0.500000 0.500000
O O2 0.672976 0.361931 0.549518
O O3 0.827596 0.440995 0.593346
O O4 0.830547 0.373508 0.478596
O O5 0.124126 0.863604 0.677316
O O6 0.145245 0.729719 0.615549
O O7 0.000000 0.824167 0.582356
O O8 0.632291 0.950517 0.715447
O O9 0.806504 0.006429 0.672035
O O10 0.645847 0.082432 0.646367
O O11 0.500000 0.016695 0.193482
O O12 0.500000 0.364348 0.075581
#
# Coordination Sequence:
#
# PCOD8262090 Si02
#       5
#    16  16  16  16  16
#     4   9  18  31  49  72  96 124 159 195 234 283
#     4   9  18  32  50  71  96 127 159 195 240 284
#     4   9  18  31  48  72  95 124 160 196 238 282
#     4   9  17  32  51  69  93 125 162 198 235 283
#     4  10  19  31  49  72  98 127 158 196 242 285
#
# _framework density 17.057876
#
# number of rings (size 3 to 8) (size 9 to 14) (size 15 to 20)
#    0.000    2.800    0.000    1.200    0.000    4.800 
#    0.000   11.000    0.000    1.200    0.000    2.800 
#    0.000    0.000    0.000    0.000    0.000    0.000 
#
# Total GULP energy -495822.050050 kJ/mol
# GULP energy per Si atom -12395.551251 kJ/mol
# Density = 1.701905 g / cm^3
# Si number density = 17.057876 Si / 1000 Ang^3
#
#
#
# Elastic Constant Matrix: (Units=GPa)
#
#
# Indices 1 2 3 4 5 6 
#
# 1 96.6242 63.8280 43.8379 0.0000 0.0000 0.0000
# 2 63.8280 135.1936 62.0450 0.0000 0.0000 0.0000
# 3 43.8379 62.0450 115.4049 0.0000 0.0000 0.0000
# 4 0.0000 0.0000 0.0000 20.4053 0.0000 0.0000
# 5 0.0000 0.0000 0.0000 0.0000 21.7014 0.0000
# 6 0.0000 0.0000 0.0000 0.0000 0.0000 27.5496
#
#
#
# Elastic Compliance Matrix: (Units=1/GPa)
#
#
# Indices 1 2 3 4 5 6 
#
# 1 0.015611 -0.006172 -0.002612 0.000000 0.000000 0.000000
# 2 -0.006172 0.012260 -0.004247 0.000000 0.000000 0.000000
# 3 -0.002612 -0.004247 0.011941 0.000000 0.000000 0.000000
# 4 0.000000 0.000000 0.000000 0.049007 0.000000 0.000000
# 5 0.000000 0.000000 0.000000 0.000000 0.046080 0.000000
# 6 0.000000 0.000000 0.000000 0.000000 0.000000 0.036298
#
#
# Mechanical properties :
#
#
# Convention : Reuss Voigt Hill
#
# Bulk Modulus (GPa) = 72.72471 76.29383 74.50927
# Shear Modulus (GPa) = 24.77199 25.76539 25.26869
#
# Velocity S-wave (km/s) = 3.81495 3.89069 3.85301
# Velocity P-wave (km/s) = 7.88237 8.06268 7.97304
#
# Compressibility (1/GPa) = 0.01375049
#
# Stress axis : x y z
#
# Youngs Moduli (GPa) = 64.05588 81.56899 83.74855
#
# Poissons Ratio (x) = 0.50342 0.21876
# Poissons Ratio (y) = 0.39533 0.35565
# Poissons Ratio (z) = 0.16732 0.34640
#
# Static dielectric constant tensor:
#      x y z
#    x 3.267020 0.000000 0.000000 
#    y 0.000000 3.223020 0.000000 
#    z 0.000000 0.000000 3.262300 
# 
# 
# High freq. dielectric constant tensor:
#      x y z
#    x 1.660570 0.000000 0.000000 
#    y 0.000000 1.646500 0.000000 
#    z 0.000000 0.000000 1.659100 
# 
# From -- ./inp_files/38961.got.cif
#   From: 2010.03.12/outbox.cif.g09.slc.cpg/sg64_20_cif.got.tgz:38961.got - 2010.04.10 20:19:32.
