data_PCOD8262162
_publ_section_title
;
Structure prediction by ZEFSAII (Michael W. Deem and Ramdas Pophale) SiO2 
 PCOD8262162
Probable space group: C M C A
;
_chemical_formula_sum "Si O2"
_cell_formula_units_Z 72
_cell_length_a 20.568401
_cell_length_b 9.561595
_cell_length_c 20.422406
_cell_angle_alpha 90.000000
_cell_angle_beta 90.000000
_cell_angle_gamma 90.000000
_cell_volume 4016.407606
_symmetry_space_group_name_H-M "C M C A"
_symmetry_group_IT_number 64
_symmetry_cell_setting 'orthorhombic'
loop_
_space_group_symop_operation_xyz
x,y,z
-x,1/2-y,1/2+z
x,-y,-z
-x,1/2+y,1/2-z
-x,-y,-z
x,1/2+y,1/2-z
-x,y,z
x,1/2-y,1/2+z
1/2+x,1/2+y,z
1/2-x,-y,1/2+z
1/2+x,1/2-y,-z
1/2-x,y,1/2-z
1/2-x,1/2-y,-z
1/2+x,y,1/2-z
1/2-x,1/2+y,z
1/2+x,-y,1/2+z
loop_
_atom_site_type_symbol
_atom_site_label
_atom_site_fract_x
_atom_site_fract_y
_atom_site_fract_z
Si Si1 0.378260 0.514221 0.301119
Si Si2 0.250000 0.425435 0.250000
Si Si3 0.801704 0.656994 0.620256
Si Si4 0.194293 0.463884 0.928154
Si Si5 0.427167 0.321234 0.193880
O O1 0.309582 0.530061 0.263829
O O2 0.360309 0.479445 0.377060
O O3 0.418438 0.391689 0.265555
O O4 0.417878 0.656596 0.295405
O O5 0.235275 0.322314 0.310596
O O6 0.796703 0.797936 0.578634
O O7 0.765863 0.533132 0.581069
O O8 0.877175 0.621060 0.638336
O O9 0.167678 0.500000 0.000000
O O10 0.500000 0.350287 0.168422
#
# Coordination Sequence:
#
# PCOD8262162 Si02
#       5
#    16   8  16  16  16
#     4   9  19  31  50  74  97 124 157 200 246 288
#     4   8  16  30  48  74  96 114 154 208 258 284
#     4   9  19  31  50  73  97 125 157 201 246 287
#     4  10  19  32  49  74 102 128 160 198 243 290
#     4  10  19  32  49  71  98 126 158 197 242 290
#
# _framework density 17.926468
#
# number of rings (size 3 to 8) (size 9 to 14) (size 15 to 20)
#    0.000    2.667    0.000    1.333    0.000   26.667 
#    0.000    0.000    0.000   17.333    0.000    0.000 
#    0.000    0.000    0.000    0.000    0.000    0.000 
#
# Total GULP energy -446062.951968 kJ/mol
# GULP energy per Si atom -12390.637555 kJ/mol
# Density = 1.788567 g / cm^3
# Si number density = 17.926468 Si / 1000 Ang^3
#
#
#
# Elastic Constant Matrix: (Units=GPa)
#
#
# Indices 1 2 3 4 5 6 
#
# 1 112.9631 35.2422 26.7794 0.0000 0.0000 0.0000
# 2 35.2422 52.9695 30.3243 0.0000 0.0000 0.0000
# 3 26.7794 30.3243 90.6304 0.0000 0.0000 0.0000
# 4 0.0000 0.0000 0.0000 25.1600 0.0000 0.0000
# 5 0.0000 0.0000 0.0000 0.0000 14.7845 0.0000
# 6 0.0000 0.0000 0.0000 0.0000 0.0000 21.6105
#
#
#
# Elastic Compliance Matrix: (Units=1/GPa)
#
#
# Indices 1 2 3 4 5 6 
#
# 1 0.011246 -0.006902 -0.001014 0.000000 0.000000 0.000000
# 2 -0.006902 0.027588 -0.007191 0.000000 0.000000 0.000000
# 3 -0.001014 -0.007191 0.013739 0.000000 0.000000 0.000000
# 4 0.000000 0.000000 0.000000 0.039746 0.000000 0.000000
# 5 0.000000 0.000000 0.000000 0.000000 0.067638 0.000000
# 6 0.000000 0.000000 0.000000 0.000000 0.000000 0.046274
#
#
# Mechanical properties :
#
#
# Convention : Reuss Voigt Hill
#
# Bulk Modulus (GPa) = 44.72376 49.02833 46.87605
# Shear Modulus (GPa) = 20.50037 23.25881 21.87959
#
# Velocity S-wave (km/s) = 3.38536 3.60593 3.49738
# Velocity P-wave (km/s) = 6.34693 6.68925 6.52033
#
# Compressibility (1/GPa) = 0.02235948
#
# Stress axis : x y z
#
# Youngs Moduli (GPa) = 88.92023 36.24789 72.78304
#
# Poissons Ratio (x) = 0.25019 0.07377
# Poissons Ratio (y) = 0.61373 0.52340
# Poissons Ratio (z) = 0.09013 0.26067
#
# Static dielectric constant tensor:
#      x y z
#    x 3.324280 0.000000 0.000000 
#    y 0.000000 3.142340 0.000000 
#    z 0.000000 0.000000 3.301250 
# 
# 
# High freq. dielectric constant tensor:
#      x y z
#    x 1.680010 0.000000 0.000000 
#    y 0.000000 1.685850 0.000000 
#    z 0.000000 0.000000 1.676840 
# 
# From -- ./inp_files/40704.got.cif
#   From: 2010.03.12/outbox.cif.g09.slc.cpg/sg64_21_cif.got.tgz:40704.got - 2010.04.10 20:19:32.
