data_PCOD8262102
_publ_section_title
;
Structure prediction by ZEFSAII (Michael W. Deem and Ramdas Pophale) SiO2 
 PCOD8262102
Probable space group: C M C A
;
_chemical_formula_sum "Si O2"
_cell_formula_units_Z 96
_cell_length_a 15.948724
_cell_length_b 17.540238
_cell_length_c 19.206911
_cell_angle_alpha 90.000000
_cell_angle_beta 90.000000
_cell_angle_gamma 90.000000
_cell_volume 5373.026077
_symmetry_space_group_name_H-M "C M C A"
_symmetry_group_IT_number 64
_symmetry_cell_setting 'orthorhombic'
loop_
_space_group_symop_operation_xyz
x,y,z
-x,1/2-y,1/2+z
x,-y,-z
-x,1/2+y,1/2-z
-x,-y,-z
x,1/2+y,1/2-z
-x,y,z
x,1/2-y,1/2+z
1/2+x,1/2+y,z
1/2-x,-y,1/2+z
1/2+x,1/2-y,-z
1/2-x,y,1/2-z
1/2-x,1/2-y,-z
1/2+x,y,1/2-z
1/2-x,1/2+y,z
1/2+x,-y,1/2+z
loop_
_atom_site_type_symbol
_atom_site_label
_atom_site_fract_x
_atom_site_fract_y
_atom_site_fract_z
Si Si1 0.288735 0.133204 0.819924
Si Si2 0.694440 0.359717 0.887669
Si Si3 0.658032 0.759202 0.865251
Si Si4 0.403510 0.850415 0.474201
Si Si5 0.094810 0.761111 0.784024
Si Si6 0.777912 0.975087 0.074665
O O1 0.250000 0.095487 0.750000
O O2 0.228940 0.199982 0.844617
O O3 0.377374 0.174475 0.804542
O O4 0.293208 0.069083 0.880337
O O5 0.792149 0.334032 0.892164
O O6 0.651047 0.326183 0.819202
O O7 0.691500 0.451129 0.883008
O O8 0.644114 0.329683 0.954795
O O9 0.600456 0.724846 0.926204
O O10 0.600617 0.776160 0.798530
O O11 0.500000 0.871489 0.488861
O O12 0.359701 0.922473 0.436764
O O13 0.000000 0.770568 0.808999
O O14 0.738938 0.000000 0.000000
#
# Coordination Sequence:
#
# PCOD8262102 Si02
#       6
#    16  16  16  16  16  16
#     4   8  16  31  50  69  91 126 166 196 233 291
#     4  10  19  31  49  74 101 130 161 199 247 296
#     4   9  18  33  50  70  97 130 165 198 241 294
#     4  10  19  32  51  74 100 129 164 206 247 289
#     4  10  19  32  52  75  98 124 160 208 250 287
#     4   9  19  32  49  71  98 132 164 198 241 293
#
# _framework density 17.867027
#
# number of rings (size 3 to 8) (size 9 to 14) (size 15 to 20)
#    0.000    2.667    0.000    3.000    0.000    6.333 
#    0.000    0.000    0.000    8.500    0.000    0.000 
#    0.000    0.000    0.000    0.000    0.000    0.000 
#
# Total GULP energy -595030.269717 kJ/mol
# GULP energy per Si atom -12396.463952 kJ/mol
# Density = 1.782636 g / cm^3
# Si number density = 17.867027 Si / 1000 Ang^3
#
#
#
# Elastic Constant Matrix: (Units=GPa)
#
#
# Indices 1 2 3 4 5 6 
#
# 1 64.9911 25.8632 12.5233 0.0000 0.0000 0.0000
# 2 25.8632 71.7071 36.1555 0.0000 0.0000 0.0000
# 3 12.5233 36.1555 73.5316 0.0000 0.0000 0.0000
# 4 0.0000 0.0000 0.0000 31.4526 0.0000 0.0000
# 5 0.0000 0.0000 0.0000 0.0000 23.4434 0.0000
# 6 0.0000 0.0000 0.0000 0.0000 0.0000 15.7089
#
#
#
# Elastic Compliance Matrix: (Units=1/GPa)
#
#
# Indices 1 2 3 4 5 6 
#
# 1 0.017967 -0.006565 0.000168 0.000000 0.000000 0.000000
# 2 -0.006565 0.020942 -0.009179 0.000000 0.000000 0.000000
# 3 0.000168 -0.009179 0.018084 0.000000 0.000000 0.000000
# 4 0.000000 0.000000 0.000000 0.031794 0.000000 0.000000
# 5 0.000000 0.000000 0.000000 0.000000 0.042656 0.000000
# 6 0.000000 0.000000 0.000000 0.000000 0.000000 0.063658
#
#
# Mechanical properties :
#
#
# Convention : Reuss Voigt Hill
#
# Bulk Modulus (GPa) = 38.69816 39.92375 39.31096
# Shear Modulus (GPa) = 21.28874 23.16685 22.22780
#
# Velocity S-wave (km/s) = 3.45557 3.60478 3.53096
# Velocity P-wave (km/s) = 6.13411 6.30233 6.21879
#
# Compressibility (1/GPa) = 0.02584102
#
# Stress axis : x y z
#
# Youngs Moduli (GPa) = 55.65801 47.75194 55.29677
#
# Poissons Ratio (x) = 0.31349 -0.00929
# Poissons Ratio (y) = 0.36539 0.50756
# Poissons Ratio (z) = -0.00935 0.43831
#
# Static dielectric constant tensor:
#      x y z
#    x 3.105760 0.000000 0.000000 
#    y 0.000000 3.326040 0.000000 
#    z 0.000000 0.000000 3.651890 
# 
# 
# High freq. dielectric constant tensor:
#      x y z
#    x 1.662080 0.000000 0.000000 
#    y 0.000000 1.677370 0.000000 
#    z 0.000000 0.000000 1.702700 
# 
# From -- ./inp_files/33310.got.cif
#   From: 2010.03.12/outbox.cif.g09.slc.cpg/sg64_17_cif.got.tgz:33310.got - 2010.04.10 20:19:32.
