data_PCOD8262967
_publ_section_title
;
Structure prediction by ZEFSAII (Michael W. Deem and Ramdas Pophale) SiO2 
 PCOD8262967
Probable space group: C M C A
;
_chemical_formula_sum "Si O2"
_cell_formula_units_Z 96
_cell_length_a 8.482933
_cell_length_b 23.652771
_cell_length_c 26.105682
_cell_angle_alpha 90.000000
_cell_angle_beta 90.000000
_cell_angle_gamma 90.000000
_cell_volume 5237.971214
_symmetry_space_group_name_H-M "C M C A"
_symmetry_group_IT_number 64
_symmetry_cell_setting 'orthorhombic'
loop_
_space_group_symop_operation_xyz
x,y,z
-x,1/2-y,1/2+z
x,-y,-z
-x,1/2+y,1/2-z
-x,-y,-z
x,1/2+y,1/2-z
-x,y,z
x,1/2-y,1/2+z
1/2+x,1/2+y,z
1/2-x,-y,1/2+z
1/2+x,1/2-y,-z
1/2-x,y,1/2-z
1/2-x,1/2-y,-z
1/2+x,y,1/2-z
1/2-x,1/2+y,z
1/2+x,-y,1/2+z
loop_
_atom_site_type_symbol
_atom_site_label
_atom_site_fract_x
_atom_site_fract_y
_atom_site_fract_z
Si Si1 0.184167 0.259705 0.380250
Si Si2 0.815748 0.821933 0.962602
Si Si3 0.815921 0.357997 0.066487
Si Si4 0.815518 0.585171 0.103777
Si Si5 0.315171 0.664371 0.306034
Si Si6 0.685077 0.981205 0.443652
O O1 0.214905 0.222444 0.430546
O O2 0.277889 0.319373 0.383455
O O3 0.246227 0.223092 0.331523
O O4 0.000000 0.272939 0.375865
O O5 0.785752 0.884659 0.940643
O O6 0.000000 0.806705 0.960989
O O7 0.751542 0.820494 0.020122
O O8 0.726363 0.417055 0.069433
O O9 0.000000 0.369540 0.060888
O O10 0.765344 0.610699 0.158953
O O11 0.772103 0.519163 0.099556
O O12 0.000000 0.595670 0.093911
O O13 0.500000 0.668079 0.302289
O O14 0.250000 0.655104 0.250000
O O15 0.500000 0.990022 0.438904
O O16 0.745511 0.000000 0.500000
#
# Coordination Sequence:
#
# PCOD8262967 Si02
#       6
#    16  16  16  16  16  16
#     4  10  21  37  53  76 108 140 178 223 269 322
#     4  11  20  32  50  75 107 144 182 221 263 314
#     4  12  23  34  51  75 107 148 184 219 265 317
#     4  10  20  35  54  80 110 143 183 225 269 317
#     4   9  20  37  60  85 108 136 173 222 277 327
#     4  11  22  35  53  78 109 148 189 223 264 317
#
# _framework density 18.327707
#
# number of rings (size 3 to 8) (size 9 to 14) (size 15 to 20)
#    0.000    1.500    1.667    6.000    0.000    4.667 
#    0.000    0.000    0.000    1.000    0.000    7.000 
#    0.000    0.000    0.000    0.000    0.000    0.000 
#
# Total GULP energy -595209.081354 kJ/mol
# GULP energy per Si atom -12400.189195 kJ/mol
# Density = 1.828599 g / cm^3
# Si number density = 18.327707 Si / 1000 Ang^3
#
#
#
# Elastic Constant Matrix: (Units=GPa)
#
#
# Indices 1 2 3 4 5 6 
#
# 1 60.6061 6.8180 24.1880 0.0000 0.0000 0.0000
# 2 6.8180 94.5765 44.4863 0.0000 0.0000 0.0000
# 3 24.1880 44.4863 95.1850 0.0000 0.0000 0.0000
# 4 0.0000 0.0000 0.0000 17.1305 0.0000 0.0000
# 5 0.0000 0.0000 0.0000 0.0000 25.3513 0.0000
# 6 0.0000 0.0000 0.0000 0.0000 0.0000 32.9158
#
#
#
# Elastic Compliance Matrix: (Units=1/GPa)
#
#
# Indices 1 2 3 4 5 6 
#
# 1 0.018455 0.001122 -0.005214 0.000000 0.000000 0.000000
# 2 0.001122 0.013621 -0.006651 0.000000 0.000000 0.000000
# 3 -0.005214 -0.006651 0.014939 0.000000 0.000000 0.000000
# 4 0.000000 0.000000 0.000000 0.058375 0.000000 0.000000
# 5 0.000000 0.000000 0.000000 0.000000 0.039446 0.000000
# 6 0.000000 0.000000 0.000000 0.000000 0.000000 0.030381
#
#
# Mechanical properties :
#
#
# Convention : Reuss Voigt Hill
#
# Bulk Modulus (GPa) = 39.17121 44.59468 41.88295
# Shear Modulus (GPa) = 24.36495 26.73787 25.55141
#
# Velocity S-wave (km/s) = 3.65006 3.82367 3.73787
# Velocity P-wave (km/s) = 6.25963 6.62409 6.44444
#
# Compressibility (1/GPa) = 0.02552895
#
# Stress axis : x y z
#
# Youngs Moduli (GPa) = 54.18675 73.41540 66.93714
#
# Poissons Ratio (x) = -0.08239 0.34902
# Poissons Ratio (y) = -0.06081 0.44521
# Poissons Ratio (z) = 0.28253 0.48830
#
# Static dielectric constant tensor:
#      x y z
#    x 3.345200 0.000000 0.000000 
#    y 0.000000 3.528430 0.000000 
#    z 0.000000 0.000000 2.135340 
# 
# 
# High freq. dielectric constant tensor:
#      x y z
#    x 1.719290 0.000000 0.000000 
#    y 0.000000 1.717940 0.000000 
#    z 0.000000 0.000000 1.671120 
# 
# From -- ./inp_files/48377.got.cif
#   From: 2010.03.12/outbox.cif.g09.slc.cpg/sg64_25_cif.got.tgz:48377.got - 2010.04.10 20:19:32.
