data_PCOD8262070
_publ_section_title
;
Structure prediction by ZEFSAII (Michael W. Deem and Ramdas Pophale) SiO2 
 PCOD8262070
Probable space group: C M C A
;
_chemical_formula_sum "Si O2"
_cell_formula_units_Z 96
_cell_length_a 9.124746
_cell_length_b 28.056794
_cell_length_c 21.006947
_cell_angle_alpha 90.000000
_cell_angle_beta 90.000000
_cell_angle_gamma 90.000000
_cell_volume 5378.012005
_symmetry_space_group_name_H-M "C M C A"
_symmetry_group_IT_number 64
_symmetry_cell_setting 'orthorhombic'
loop_
_space_group_symop_operation_xyz
x,y,z
-x,1/2-y,1/2+z
x,-y,-z
-x,1/2+y,1/2-z
-x,-y,-z
x,1/2+y,1/2-z
-x,y,z
x,1/2-y,1/2+z
1/2+x,1/2+y,z
1/2-x,-y,1/2+z
1/2+x,1/2-y,-z
1/2-x,y,1/2-z
1/2-x,1/2-y,-z
1/2+x,y,1/2-z
1/2-x,1/2+y,z
1/2+x,-y,1/2+z
loop_
_atom_site_type_symbol
_atom_site_label
_atom_site_fract_x
_atom_site_fract_y
_atom_site_fract_z
Si Si1 0.824708 0.150741 0.187291
Si Si2 0.336958 0.019072 0.928131
Si Si3 0.326384 0.749433 0.814123
Si Si4 0.828481 0.212716 0.952915
Si Si5 0.162602 0.394385 0.460118
Si Si6 0.161165 0.567153 0.399955
O O1 0.750000 0.129478 0.250000
O O2 0.748314 0.200333 0.171038
O O3 0.776195 0.114166 0.133084
O O4 0.000000 0.157337 0.193383
O O5 0.500000 0.024733 0.902184
O O6 0.262981 0.070959 0.917459
O O7 0.257753 0.979284 0.885063
O O8 0.335336 0.000000 0.000000
O O9 0.500000 0.755005 0.801434
O O10 0.250000 0.727320 0.750000
O O11 0.294866 0.719298 0.877777
O O12 0.772562 0.159001 0.967943
O O13 0.000000 0.218253 0.967414
O O14 0.750000 0.250000 0.000000
O O15 0.153408 0.421354 0.526313
O O16 0.000000 0.390615 0.429574
O O17 0.000000 0.555567 0.373113
#
# Coordination Sequence:
#
# PCOD8262070 Si02
#       6
#    16  16  16  16  16  16
#     4  10  19  31  48  70  95 125 161 198 239 286
#     4   9  17  28  44  68  94 119 150 189 232 279
#     4  10  20  34  51  72  99 133 170 204 244 294
#     4  10  21  34  51  76 103 131 165 208 253 295
#     4   9  17  31  48  67  94 125 157 193 236 287
#     4   9  17  29  47  68  92 124 155 186 233 290
#
# _framework density 17.850462
#
# number of rings (size 3 to 8) (size 9 to 14) (size 15 to 20)
#    0.000    2.500    0.000    3.500    0.000    6.667 
#    0.000    3.333    0.000    1.000    0.000    2.333 
#    0.000    0.000    0.000    0.000    0.000    0.000 
#
# Total GULP energy -594774.623284 kJ/mol
# GULP energy per Si atom -12391.137985 kJ/mol
# Density = 1.780983 g / cm^3
# Si number density = 17.850462 Si / 1000 Ang^3
#
#
#
# Elastic Constant Matrix: (Units=GPa)
#
#
# Indices 1 2 3 4 5 6 
#
# 1 101.2690 58.0364 25.7650 0.0000 0.0000 0.0000
# 2 58.0364 112.5310 21.2678 0.0000 0.0000 0.0000
# 3 25.7650 21.2678 42.8112 0.0000 0.0000 0.0000
# 4 0.0000 0.0000 0.0000 25.5346 0.0000 0.0000
# 5 0.0000 0.0000 0.0000 0.0000 20.8825 0.0000
# 6 0.0000 0.0000 0.0000 0.0000 0.0000 28.1399
#
#
#
# Elastic Compliance Matrix: (Units=1/GPa)
#
#
# Indices 1 2 3 4 5 6 
#
# 1 0.015222 -0.006753 -0.005806 0.000000 0.000000 0.000000
# 2 -0.006753 0.012803 -0.002296 0.000000 0.000000 0.000000
# 3 -0.005806 -0.002296 0.027993 0.000000 0.000000 0.000000
# 4 0.000000 0.000000 0.000000 0.039163 0.000000 0.000000
# 5 0.000000 0.000000 0.000000 0.000000 0.047887 0.000000
# 6 0.000000 0.000000 0.000000 0.000000 0.000000 0.035537
#
#
# Mechanical properties :
#
#
# Convention : Reuss Voigt Hill
#
# Bulk Modulus (GPa) = 38.01186 51.86110 44.93648
# Shear Modulus (GPa) = 23.03238 25.01420 24.02329
#
# Velocity S-wave (km/s) = 3.59597 3.74748 3.67251
# Velocity P-wave (km/s) = 6.21145 6.91672 6.57355
#
# Compressibility (1/GPa) = 0.02630758
#
# Stress axis : x y z
#
# Youngs Moduli (GPa) = 65.69362 78.10473 35.72273
#
# Poissons Ratio (x) = 0.52746 0.20741
# Poissons Ratio (y) = 0.44365 0.08202
# Poissons Ratio (z) = 0.38143 0.17934
#
# Static dielectric constant tensor:
#      x y z
#    x 3.529890 0.000000 0.000000 
#    y 0.000000 3.363890 0.000000 
#    z 0.000000 0.000000 3.192620 
# 
# 
# High freq. dielectric constant tensor:
#      x y z
#    x 1.697270 0.000000 0.000000 
#    y 0.000000 1.690970 0.000000 
#    z 0.000000 0.000000 1.656920 
# 
# From -- ./inp_files/43168.got.cif
#   From: 2010.03.12/outbox.cif.g09.slc.cpg/sg64_22_cif.got.tgz:43168.got - 2010.04.10 20:19:32.
