data_PCOD8262590
_publ_section_title
;
Structure prediction by ZEFSAII (Michael W. Deem and Ramdas Pophale) SiO2 
 PCOD8262590
Probable space group: C M C A
;
_chemical_formula_sum "Si O2"
_cell_formula_units_Z 88
_cell_length_a 19.775730
_cell_length_b 25.672746
_cell_length_c 9.231597
_cell_angle_alpha 90.000000
_cell_angle_beta 90.000000
_cell_angle_gamma 90.000000
_cell_volume 4686.856809
_symmetry_space_group_name_H-M "C M C A"
_symmetry_group_IT_number 64
_symmetry_cell_setting 'orthorhombic'
loop_
_space_group_symop_operation_xyz
x,y,z
-x,1/2-y,1/2+z
x,-y,-z
-x,1/2+y,1/2-z
-x,-y,-z
x,1/2+y,1/2-z
-x,y,z
x,1/2-y,1/2+z
1/2+x,1/2+y,z
1/2-x,-y,1/2+z
1/2+x,1/2-y,-z
1/2-x,y,1/2-z
1/2-x,1/2-y,-z
1/2+x,y,1/2-z
1/2-x,1/2+y,z
1/2+x,-y,1/2+z
loop_
_atom_site_type_symbol
_atom_site_label
_atom_site_fract_x
_atom_site_fract_y
_atom_site_fract_z
Si Si1 0.669547 0.806479 0.254095
Si Si2 0.750000 0.873174 0.750000
Si Si3 0.076752 0.504925 0.662514
Si Si4 0.423682 0.603102 0.652019
Si Si5 0.311997 0.715682 0.061239
Si Si6 0.844415 0.951212 0.590738
O O1 0.750000 0.818418 0.250000
O O2 0.629727 0.851526 0.174044
O O3 0.644528 0.801202 0.420862
O O4 0.648797 0.753290 0.171868
O O5 0.704495 0.836274 0.650010
O O6 0.789072 0.908462 0.632965
O O7 0.104373 0.500000 0.500000
O O8 0.081050 0.564807 0.711155
O O9 0.124157 0.469156 0.758842
O O10 0.000000 0.484274 0.673604
O O11 0.500000 0.624712 0.635362
O O12 0.404259 0.572964 0.505578
O O13 0.250000 0.750000 0.000000
O O14 0.812216 0.000000 0.500000
#
# Coordination Sequence:
#
# PCOD8262590 Si02
#       6
#    16   8  16  16  16  16
#     4  10  20  36  60  87 113 150 198 242 293 356
#     4  12  22  36  62  88 124 156 200 244 304 356
#     4   9  19  37  57  81 113 154 200 243 293 355
#     4  10  21  39  62  85 117 162 202 245 304 361
#     4  10  19  36  58  85 114 154 196 237 295 363
#     4  10  22  38  56  86 118 160 196 247 296 360
#
# _framework density 18.77591
#
# number of rings (size 3 to 8) (size 9 to 14) (size 15 to 20)
#    0.000    2.000    2.727    2.727    2.545    2.909 
#    9.818    0.909    0.000    0.000    0.000    0.000 
#    0.000    0.000    0.000    0.000    0.000    0.000 
#
# Total GULP energy -545421.007556 kJ/mol
# GULP energy per Si atom -12395.931990 kJ/mol
# Density = 1.873318 g / cm^3
# Si number density = 18.775910 Si / 1000 Ang^3
#
#
#
# Elastic Constant Matrix: (Units=GPa)
#
#
# Indices 1 2 3 4 5 6 
#
# 1 55.8437 40.3338 24.6770 0.0000 0.0000 0.0000
# 2 40.3338 117.1640 55.0801 0.0000 0.0000 0.0000
# 3 24.6770 55.0801 146.1660 0.0000 0.0000 0.0000
# 4 0.0000 0.0000 0.0000 32.4930 0.0000 0.0000
# 5 0.0000 0.0000 0.0000 0.0000 19.7574 0.0000
# 6 0.0000 0.0000 0.0000 0.0000 0.0000 5.4585
#
#
#
# Elastic Compliance Matrix: (Units=1/GPa)
#
#
# Indices 1 2 3 4 5 6 
#
# 1 0.023988 -0.007722 -0.001140 0.000000 0.000000 0.000000
# 2 -0.007722 0.012858 -0.003542 0.000000 0.000000 0.000000
# 3 -0.001140 -0.003542 0.008369 0.000000 0.000000 0.000000
# 4 0.000000 0.000000 0.000000 0.030776 0.000000 0.000000
# 5 0.000000 0.000000 0.000000 0.000000 0.050614 0.000000
# 6 0.000000 0.000000 0.000000 0.000000 0.000000 0.183201
#
#
# Mechanical properties :
#
#
# Convention : Reuss Voigt Hill
#
# Bulk Modulus (GPa) = 49.00114 62.15062 55.57588
# Shear Modulus (GPa) = 14.64486 24.81394 19.72940
#
# Velocity S-wave (km/s) = 2.79584 3.63930 3.24509
# Velocity P-wave (km/s) = 6.04788 7.12969 6.61095
#
# Compressibility (1/GPa) = 0.02040769
#
# Stress axis : x y z
#
# Youngs Moduli (GPa) = 41.68713 77.77025 119.49364
#
# Poissons Ratio (x) = 0.60055 0.13622
# Poissons Ratio (y) = 0.32191 0.42322
# Poissons Ratio (z) = 0.04752 0.27544
#
# Static dielectric constant tensor:
#      x y z
#    x 3.067220 0.000000 0.000000 
#    y 0.000000 3.505920 0.000000 
#    z 0.000000 0.000000 3.993510 
# 
# 
# High freq. dielectric constant tensor:
#      x y z
#    x 1.683720 0.000000 0.000000 
#    y 0.000000 1.734380 0.000000 
#    z 0.000000 0.000000 1.755170 
# 
# From -- ./inp_files/8260.got.cif
#   From: 2010.03.12/outbox.cif.g09.slc.cpg/sg64_5_cif.got.tgz:8260.got - 2010.04.10 20:19:32.
