data_PCOD8262182
_publ_section_title
;
Structure prediction by ZEFSAII (Michael W. Deem and Ramdas Pophale) SiO2 
 PCOD8262182
Probable space group: C M C A
;
_chemical_formula_sum "Si O2"
_cell_formula_units_Z 104
_cell_length_a 28.511358
_cell_length_b 21.426399
_cell_length_c 9.027174
_cell_angle_alpha 90.000000
_cell_angle_beta 90.000000
_cell_angle_gamma 90.000000
_cell_volume 5514.662073
_symmetry_space_group_name_H-M "C M C A"
_symmetry_group_IT_number 64
_symmetry_cell_setting 'orthorhombic'
loop_
_space_group_symop_operation_xyz
x,y,z
-x,1/2-y,1/2+z
x,-y,-z
-x,1/2+y,1/2-z
-x,-y,-z
x,1/2+y,1/2-z
-x,y,z
x,1/2-y,1/2+z
1/2+x,1/2+y,z
1/2-x,-y,1/2+z
1/2+x,1/2-y,-z
1/2-x,y,1/2-z
1/2-x,1/2-y,-z
1/2+x,y,1/2-z
1/2-x,1/2+y,z
1/2+x,-y,1/2+z
loop_
_atom_site_type_symbol
_atom_site_label
_atom_site_fract_x
_atom_site_fract_y
_atom_site_fract_z
Si Si1 0.615573 0.633243 0.333504
Si Si2 0.552068 0.202477 0.965731
Si Si3 0.383376 0.311312 0.967936
Si Si4 0.188733 0.706211 0.006616
Si Si5 0.447952 0.482716 0.669620
Si Si6 0.946941 0.886484 0.191224
Si Si7 0.250000 0.757604 0.250000
O O1 0.572792 0.678136 0.379268
O O2 0.635939 0.651363 0.173376
O O3 0.656501 0.644998 0.458137
O O4 0.595780 0.563821 0.315546
O O5 0.500000 0.223352 0.001480
O O6 0.577982 0.263464 0.906640
O O7 0.556083 0.147760 0.847482
O O8 0.340589 0.270602 0.032277
O O9 0.407024 0.358995 0.083970
O O10 0.228701 0.710499 0.129769
O O11 0.211439 0.700476 0.841030
O O12 0.451285 0.500000 0.500000
O O13 0.500000 0.455888 0.714835
O O14 0.436191 0.541116 0.776045
O O15 0.000000 0.878752 0.125829
#
# Coordination Sequence:
#
# PCOD8262182 Si02
#       7
#    16  16  16  16  16  16   8
#     4  11  21  34  54  79 112 148 189 236 276 332
#     4  10  19  32  51  74 110 155 189 227 278 328
#     4  11  22  33  50  85 122 138 184 234 287 342
#     4  10  21  37  58  91 116 142 175 232 293 366
#     4  10  20  36  55  76 109 160 212 237 260 317
#     4  10  21  35  52  77 116 161 202 240 272 320
#     4  10  20  38  62  84 122 138 170 224 310 362
#
# _framework density 18.858816999999998
#
# number of rings (size 3 to 8) (size 9 to 14) (size 15 to 20)
#    0.000    1.692    3.077    2.769    2.154    4.308 
#    0.000    1.538    0.000    0.000    0.000    6.462 
#    0.000    0.000    0.000    0.000    0.000    0.000 
#
# Total GULP energy -644294.537452 kJ/mol
# GULP energy per Si atom -12390.279566 kJ/mol
# Density = 1.881589 g / cm^3
# Si number density = 18.858817 Si / 1000 Ang^3
#
#
#
# Elastic Constant Matrix: (Units=GPa)
#
#
# Indices 1 2 3 4 5 6 
#
# 1 89.7285 37.9913 28.4953 0.0000 0.0000 0.0000
# 2 37.9913 91.5221 23.8922 0.0000 0.0000 0.0000
# 3 28.4953 23.8922 76.6585 0.0000 0.0000 0.0000
# 4 0.0000 0.0000 0.0000 22.4408 0.0000 0.0000
# 5 0.0000 0.0000 0.0000 0.0000 32.0957 0.0000
# 6 0.0000 0.0000 0.0000 0.0000 0.0000 20.6338
#
#
#
# Elastic Compliance Matrix: (Units=1/GPa)
#
#
# Indices 1 2 3 4 5 6 
#
# 1 0.014481 -0.005014 -0.003820 0.000000 0.000000 0.000000
# 2 -0.005014 0.013630 -0.002384 0.000000 0.000000 0.000000
# 3 -0.003820 -0.002384 0.015208 0.000000 0.000000 0.000000
# 4 0.000000 0.000000 0.000000 0.044562 0.000000 0.000000
# 5 0.000000 0.000000 0.000000 0.000000 0.031157 0.000000
# 6 0.000000 0.000000 0.000000 0.000000 0.000000 0.048464
#
#
# Mechanical properties :
#
#
# Convention : Reuss Voigt Hill
#
# Bulk Modulus (GPa) = 47.88752 48.74076 48.31414
# Shear Modulus (GPa) = 25.39378 26.20275 25.79827
#
# Velocity S-wave (km/s) = 3.67348 3.73153 3.70262
# Velocity P-wave (km/s) = 6.59093 6.66835 6.62975
#
# Compressibility (1/GPa) = 0.02088227
#
# Stress axis : x y z
#
# Youngs Moduli (GPa) = 69.05728 73.36746 65.75486
#
# Poissons Ratio (x) = 0.36785 0.25119
# Poissons Ratio (y) = 0.34624 0.15678
# Poissons Ratio (z) = 0.26381 0.17493
#
# Static dielectric constant tensor:
#      x y z
#    x 3.614140 0.000000 0.000000 
#    y 0.000000 3.408620 0.000000 
#    z 0.000000 0.000000 3.454950 
# 
# 
# High freq. dielectric constant tensor:
#      x y z
#    x 1.725280 0.000000 0.000000 
#    y 0.000000 1.700690 0.000000 
#    z 0.000000 0.000000 1.737580 
# 
# From -- ./inp_files/11193.got.cif
#   From: 2010.03.12/outbox.cif.g09.slc.cpg/sg64_6_cif.got.tgz:11193.got - 2010.04.10 20:19:32.
