data_PCOD8262052
_publ_section_title
;
Structure prediction by ZEFSAII (Michael W. Deem and Ramdas Pophale) SiO2 
 PCOD8262052
Probable space group: C M C A
;
_chemical_formula_sum "Si O2"
_cell_formula_units_Z 80
_cell_length_a 9.686399
_cell_length_b 25.287836
_cell_length_c 20.701125
_cell_angle_alpha 90.000000
_cell_angle_beta 90.000000
_cell_angle_gamma 90.000000
_cell_volume 5070.700602
_symmetry_space_group_name_H-M "C M C A"
_symmetry_group_IT_number 64
_symmetry_cell_setting 'orthorhombic'
loop_
_space_group_symop_operation_xyz
x,y,z
-x,1/2-y,1/2+z
x,-y,-z
-x,1/2+y,1/2-z
-x,-y,-z
x,1/2+y,1/2-z
-x,y,z
x,1/2-y,1/2+z
1/2+x,1/2+y,z
1/2-x,-y,1/2+z
1/2+x,1/2-y,-z
1/2-x,y,1/2-z
1/2-x,1/2-y,-z
1/2+x,y,1/2-z
1/2-x,1/2+y,z
1/2+x,-y,1/2+z
loop_
_atom_site_type_symbol
_atom_site_label
_atom_site_fract_x
_atom_site_fract_y
_atom_site_fract_z
Si Si1 0.838005 0.626106 0.686273
Si Si2 0.336303 0.072024 0.451168
Si Si3 0.340743 0.687631 0.058559
Si Si4 0.843063 0.780940 0.087657
Si Si5 0.836410 0.038787 0.910217
O O1 0.750000 0.633660 0.750000
O O2 0.805730 0.675640 0.640619
O O3 0.783723 0.572754 0.650656
O O4 0.000000 0.622687 0.703184
O O5 0.500000 0.074288 0.457925
O O6 0.286495 0.128560 0.423213
O O7 0.274854 0.061957 0.522865
O O8 0.292538 0.023266 0.404141
O O9 0.500000 0.695898 0.077396
O O10 0.252836 0.729872 0.098946
O O11 0.316763 0.693885 0.982229
O O12 0.000000 0.761810 0.094606
O O13 0.000000 0.044354 0.913124
#
# Coordination Sequence:
#
# PCOD8262052 Si02
#       5
#    16  16  16  16  16
#     4  10  19  31  46  64  89 119 150 182 215 255
#     4   8  12  21  42  68  89 109 137 178 220 260
#     4   9  15  25  44  68  90 111 140 180 219 262
#     4   9  17  28  41  62  91 118 143 175 220 262
#     4   8  13  23  41  65  89 111 140 178 219 256
#
# _framework density 15.776913
#
# number of rings (size 3 to 8) (size 9 to 14) (size 15 to 20)
#    0.000    3.200    2.000    1.200    0.000    0.800 
#    0.000    0.000    0.000    2.400    0.000    8.400 
#    0.000    0.000    0.000    0.000    0.000    0.000 
#
# Total GULP energy -495647.941525 kJ/mol
# GULP energy per Si atom -12391.198538 kJ/mol
# Density = 1.574100 g / cm^3
# Si number density = 15.776913 Si / 1000 Ang^3
#
#
#
# Elastic Constant Matrix: (Units=GPa)
#
#
# Indices 1 2 3 4 5 6 
#
# 1 41.6009 52.9220 31.9404 0.0000 0.0000 0.0000
# 2 52.9220 161.1097 48.3859 0.0000 0.0000 0.0000
# 3 31.9404 48.3859 67.6397 0.0000 0.0000 0.0000
# 4 0.0000 0.0000 0.0000 20.2150 0.0000 0.0000
# 5 0.0000 0.0000 0.0000 0.0000 19.5985 0.0000
# 6 0.0000 0.0000 0.0000 0.0000 0.0000 19.0941
#
#
#
# Elastic Compliance Matrix: (Units=1/GPa)
#
#
# Indices 1 2 3 4 5 6 
#
# 1 0.051630 -0.012275 -0.015600 0.000000 0.000000 0.000000
# 2 -0.012275 0.010823 -0.001946 0.000000 0.000000 0.000000
# 3 -0.015600 -0.001946 0.023543 0.000000 0.000000 0.000000
# 4 0.000000 0.000000 0.000000 0.049468 0.000000 0.000000
# 5 0.000000 0.000000 0.000000 0.000000 0.051024 0.000000
# 6 0.000000 0.000000 0.000000 0.000000 0.000000 0.052372
#
#
# Mechanical properties :
#
#
# Convention : Reuss Voigt Hill
#
# Bulk Modulus (GPa) = 37.94340 59.64965 48.79652
# Shear Modulus (GPa) = 16.27138 20.92166 18.59652
#
# Velocity S-wave (km/s) = 3.21493 3.64551 3.43697
# Velocity P-wave (km/s) = 6.15494 7.45720 6.83715
#
# Compressibility (1/GPa) = 0.02635505
#
# Stress axis : x y z
#
# Youngs Moduli (GPa) = 19.36853 92.39157 42.47550
#
# Poissons Ratio (x) = 1.13407 0.66261
# Poissons Ratio (y) = 0.23774 0.08267
# Poissons Ratio (z) = 0.30215 0.17982
#
# Static dielectric constant tensor:
#      x y z
#    x 2.665260 0.000000 0.000000 
#    y 0.000000 3.449650 0.000000 
#    z 0.000000 0.000000 2.709670 
# 
# 
# High freq. dielectric constant tensor:
#      x y z
#    x 1.563590 0.000000 0.000000 
#    y 0.000000 1.625380 0.000000 
#    z 0.000000 0.000000 1.565550 
# 
# From -- ./inp_files/29981.got.cif
#   From: 2010.03.12/outbox.cif.g09.slc.cpg/sg64_15_cif.got.tgz:29981.got - 2010.04.10 20:19:32.
