data_PCOD8262765
_publ_section_title
;
Structure prediction by ZEFSAII (Michael W. Deem and Ramdas Pophale) SiO2 
 PCOD8262765
Probable space group: C M C A
;
_chemical_formula_sum "Si O2"
_cell_formula_units_Z 104
_cell_length_a 26.355840
_cell_length_b 26.990738
_cell_length_c 7.917999
_cell_angle_alpha 90.000000
_cell_angle_beta 90.000000
_cell_angle_gamma 90.000000
_cell_volume 5632.576053
_symmetry_space_group_name_H-M "C M C A"
_symmetry_group_IT_number 64
_symmetry_cell_setting 'orthorhombic'
loop_
_space_group_symop_operation_xyz
x,y,z
-x,1/2-y,1/2+z
x,-y,-z
-x,1/2+y,1/2-z
-x,-y,-z
x,1/2+y,1/2-z
-x,y,z
x,1/2-y,1/2+z
1/2+x,1/2+y,z
1/2-x,-y,1/2+z
1/2+x,1/2-y,-z
1/2-x,y,1/2-z
1/2-x,1/2-y,-z
1/2+x,y,1/2-z
1/2-x,1/2+y,z
1/2+x,-y,1/2+z
loop_
_atom_site_type_symbol
_atom_site_label
_atom_site_fract_x
_atom_site_fract_y
_atom_site_fract_z
Si Si1 0.277603 0.051489 0.575449
Si Si2 0.687963 0.798998 0.443554
Si Si3 0.180064 0.089113 0.424253
Si Si4 0.388345 0.000000 0.000000
Si Si5 0.695822 0.692339 0.549052
Si Si6 0.941576 0.035596 0.158254
Si Si7 0.858860 0.607592 0.430404
O O1 0.250000 0.042891 0.750000
O O2 0.239050 0.080689 0.455936
O O3 0.329321 0.083720 0.592359
O O4 0.295118 0.000000 0.500000
O O5 0.671144 0.742512 0.476290
O O6 0.687975 0.810069 0.247342
O O7 0.745140 0.809037 0.509978
O O8 0.646888 0.833203 0.544557
O O9 0.165412 0.145231 0.477004
O O10 0.172041 0.084561 0.225879
O O11 0.146848 0.048474 0.527312
O O12 0.421309 0.009851 0.169411
O O13 0.915913 0.088197 0.102557
O O14 0.000000 0.048074 0.189131
O O15 0.932928 0.000000 0.000000
#
# Coordination Sequence:
#
# PCOD8262765 Si02
#       7
#    16  16  16   8  16  16  16
#     4  12  23  32  47  74 113 152 184 223 273 338
#     4  10  20  33  51  76 108 155 187 233 269 332
#     4  11  21  34  50  81 114 153 185 222 282 342
#     4  10  23  38  60  86 120 150 191 240 294 360
#     4  10  20  33  50  75 114 150 192 222 273 332
#     4  10  23  41  62  85 112 150 196 248 295 341
#     4  11  22  35  55  78 109 149 188 233 282 341
#
# _framework density 18.464020000000001
#
# number of rings (size 3 to 8) (size 9 to 14) (size 15 to 20)
#    0.000    1.385    2.308    3.923    6.462    1.231 
#    0.000    0.000    0.000    0.000    0.000   10.769 
#    0.000    0.000    0.000    0.000    0.000    0.000 
#
# Total GULP energy -644451.845721 kJ/mol
# GULP energy per Si atom -12393.304725 kJ/mol
# Density = 1.842200 g / cm^3
# Si number density = 18.464020 Si / 1000 Ang^3
#
#
#
# Elastic Constant Matrix: (Units=GPa)
#
#
# Indices 1 2 3 4 5 6 
#
# 1 87.1641 52.6650 24.7470 0.0000 0.0000 0.0000
# 2 52.6650 159.4509 26.2524 0.0000 0.0000 0.0000
# 3 24.7470 26.2524 55.9540 0.0000 0.0000 0.0000
# 4 0.0000 0.0000 0.0000 27.2427 0.0000 0.0000
# 5 0.0000 0.0000 0.0000 0.0000 27.0626 0.0000
# 6 0.0000 0.0000 0.0000 0.0000 0.0000 18.6368
#
#
#
# Elastic Compliance Matrix: (Units=1/GPa)
#
#
# Indices 1 2 3 4 5 6 
#
# 1 0.015441 -0.004308 -0.004808 0.000000 0.000000 0.000000
# 2 -0.004308 0.007999 -0.001847 0.000000 0.000000 0.000000
# 3 -0.004808 -0.001847 0.020865 0.000000 0.000000 0.000000
# 4 0.000000 0.000000 0.000000 0.036707 0.000000 0.000000
# 5 0.000000 0.000000 0.000000 0.000000 0.036951 0.000000
# 6 0.000000 0.000000 0.000000 0.000000 0.000000 0.053657
#
#
# Mechanical properties :
#
#
# Convention : Reuss Voigt Hill
#
# Bulk Modulus (GPa) = 44.68758 56.65530 50.67144
# Shear Modulus (GPa) = 24.87489 27.84872 26.36180
#
# Velocity S-wave (km/s) = 3.67442 3.88786 3.78264
# Velocity P-wave (km/s) = 6.50053 7.13475 6.82501
#
# Compressibility (1/GPa) = 0.02237758
#
# Stress axis : x y z
#
# Youngs Moduli (GPa) = 64.76394 125.02055 47.92753
#
# Poissons Ratio (x) = 0.53863 0.23042
# Poissons Ratio (y) = 0.27903 0.08854
# Poissons Ratio (z) = 0.31136 0.23095
#
# Static dielectric constant tensor:
#      x y z
#    x 3.147700 0.000000 0.000000 
#    y 0.000000 3.367500 0.000000 
#    z 0.000000 0.000000 3.553040 
# 
# 
# High freq. dielectric constant tensor:
#      x y z
#    x 1.659630 0.000000 0.000000 
#    y 0.000000 1.726410 0.000000 
#    z 0.000000 0.000000 1.732580 
# 
# From -- ./inp_files/9675.got.cif
#   From: 2010.03.12/outbox.cif.g09.slc.cpg/sg64_5_cif.got.tgz:9675.got - 2010.04.10 20:19:32.
