data_PCOD8262424
_publ_section_title
;
Structure prediction by ZEFSAII (Michael W. Deem and Ramdas Pophale) SiO2 
 PCOD8262424
Probable space group: C M C A
;
_chemical_formula_sum "Si O2"
_cell_formula_units_Z 88
_cell_length_a 16.650995
_cell_length_b 22.200739
_cell_length_c 13.070865
_cell_angle_alpha 90.000000
_cell_angle_beta 90.000000
_cell_angle_gamma 90.000000
_cell_volume 4831.833390
_symmetry_space_group_name_H-M "C M C A"
_symmetry_group_IT_number 64
_symmetry_cell_setting 'orthorhombic'
loop_
_space_group_symop_operation_xyz
x,y,z
-x,1/2-y,1/2+z
x,-y,-z
-x,1/2+y,1/2-z
-x,-y,-z
x,1/2+y,1/2-z
-x,y,z
x,1/2-y,1/2+z
1/2+x,1/2+y,z
1/2-x,-y,1/2+z
1/2+x,1/2-y,-z
1/2-x,y,1/2-z
1/2-x,1/2-y,-z
1/2+x,y,1/2-z
1/2-x,1/2+y,z
1/2+x,-y,1/2+z
loop_
_atom_site_type_symbol
_atom_site_label
_atom_site_fract_x
_atom_site_fract_y
_atom_site_fract_z
Si Si1 0.085914 0.501819 0.617245
Si Si2 0.092670 0.883227 0.406262
Si Si3 0.253436 0.819635 0.023375
Si Si4 0.777189 0.916162 0.862467
Si Si5 0.665663 0.000000 0.000000
Si Si6 0.828839 0.113298 0.801711
O O1 0.066423 0.500000 0.500000
O O2 0.134963 0.444169 0.654697
O O3 0.134999 0.562873 0.627236
O O4 0.000000 0.502819 0.677050
O O5 0.153164 0.839448 0.467113
O O6 0.106817 0.869556 0.285641
O O7 0.000000 0.868226 0.433066
O O8 0.111075 0.952839 0.436245
O O9 0.201409 0.831521 0.126773
O O10 0.250000 0.750000 0.000000
O O11 0.214903 0.855836 0.929180
O O12 0.750000 0.897227 0.750000
O O13 0.720367 0.964967 0.918146
O O14 0.750000 0.084387 0.750000
#
# Coordination Sequence:
#
# PCOD8262424 Si02
#       6
#    16  16  16  16   8  16
#     4  11  19  30  51  83 116 140 169 217 276 335
#     4  10  20  35  58  87 111 140 183 231 277 331
#     4  10  22  40  57  75 107 150 194 234 273 320
#     4  11  20  34  55  79 107 149 189 222 271 339
#     4  10  19  34  55  82 118 146 174 222 285 342
#     4  10  19  35  57  79 109 145 184 221 273 342
#
# _framework density 18.212548999999999
#
# number of rings (size 3 to 8) (size 9 to 14) (size 15 to 20)
#    0.000    1.636    2.727    4.636    0.000    2.182 
#    0.000    6.364    0.000    0.000    0.000    0.000 
#    0.000    0.000    0.000    0.000    0.000    0.000 
#
# Total GULP energy -545363.374706 kJ/mol
# GULP energy per Si atom -12394.622152 kJ/mol
# Density = 1.817110 g / cm^3
# Si number density = 18.212549 Si / 1000 Ang^3
#
#
#
# Elastic Constant Matrix: (Units=GPa)
#
#
# Indices 1 2 3 4 5 6 
#
# 1 113.3380 56.3620 26.2526 0.0000 0.0000 0.0000
# 2 56.3620 132.7679 38.1048 0.0000 0.0000 0.0000
# 3 26.2526 38.1048 89.3587 0.0000 0.0000 0.0000
# 4 0.0000 0.0000 0.0000 15.1535 0.0000 0.0000
# 5 0.0000 0.0000 0.0000 0.0000 18.9090 0.0000
# 6 0.0000 0.0000 0.0000 0.0000 0.0000 11.0583
#
#
#
# Elastic Compliance Matrix: (Units=1/GPa)
#
#
# Indices 1 2 3 4 5 6 
#
# 1 0.011349 -0.004399 -0.001458 0.000000 0.000000 0.000000
# 2 -0.004399 0.010288 -0.003094 0.000000 0.000000 0.000000
# 3 -0.001458 -0.003094 0.012939 0.000000 0.000000 0.000000
# 4 0.000000 0.000000 0.000000 0.065992 0.000000 0.000000
# 5 0.000000 0.000000 0.000000 0.000000 0.052885 0.000000
# 6 0.000000 0.000000 0.000000 0.000000 0.000000 0.090430
#
#
# Mechanical properties :
#
#
# Convention : Reuss Voigt Hill
#
# Bulk Modulus (GPa) = 59.98303 64.10040 62.04171
# Shear Modulus (GPa) = 18.70263 23.34050 21.02157
#
# Velocity S-wave (km/s) = 3.20802 3.58377 3.40109
# Velocity P-wave (km/s) = 6.83581 7.23856 7.04007
#
# Compressibility (1/GPa) = 0.01667138
#
# Stress axis : x y z
#
# Youngs Moduli (GPa) = 88.11676 97.20473 77.28693
#
# Poissons Ratio (x) = 0.42762 0.11270
# Poissons Ratio (y) = 0.38764 0.23916
# Poissons Ratio (z) = 0.12849 0.30080
#
# Static dielectric constant tensor:
#      x y z
#    x 3.556600 0.000000 0.000000 
#    y 0.000000 3.064900 0.000000 
#    z 0.000000 0.000000 3.522900 
# 
# 
# High freq. dielectric constant tensor:
#      x y z
#    x 1.708130 0.000000 0.000000 
#    y 0.000000 1.673310 0.000000 
#    z 0.000000 0.000000 1.714590 
# 
# From -- ./inp_files/23744.got.cif
#   From: 2010.03.12/outbox.cif.g09.slc.cpg/sg64_12_cif.got.tgz:23744.got - 2010.04.10 20:19:32.
