data_PCOD8262939
_publ_section_title
;
Structure prediction by ZEFSAII (Michael W. Deem and Ramdas Pophale) SiO2 
 PCOD8262939
Probable space group: C M C A
;
_chemical_formula_sum "Si O2"
_cell_formula_units_Z 104
_cell_length_a 13.682978
_cell_length_b 20.941677
_cell_length_c 17.709407
_cell_angle_alpha 90.000000
_cell_angle_beta 90.000000
_cell_angle_gamma 90.000000
_cell_volume 5074.533275
_symmetry_space_group_name_H-M "C M C A"
_symmetry_group_IT_number 64
_symmetry_cell_setting 'orthorhombic'
loop_
_space_group_symop_operation_xyz
x,y,z
-x,1/2-y,1/2+z
x,-y,-z
-x,1/2+y,1/2-z
-x,-y,-z
x,1/2+y,1/2-z
-x,y,z
x,1/2-y,1/2+z
1/2+x,1/2+y,z
1/2-x,-y,1/2+z
1/2+x,1/2-y,-z
1/2-x,y,1/2-z
1/2-x,1/2-y,-z
1/2+x,y,1/2-z
1/2-x,1/2+y,z
1/2+x,-y,1/2+z
loop_
_atom_site_type_symbol
_atom_site_label
_atom_site_fract_x
_atom_site_fract_y
_atom_site_fract_z
Si Si1 0.890562 0.392090 0.739508
Si Si2 0.766233 0.081505 0.867200
Si Si3 0.290898 0.500000 0.000000
Si Si4 0.186964 0.622192 0.422299
Si Si5 0.111612 0.688535 0.558929
Si Si6 0.612240 0.534458 0.740729
Si Si7 0.390642 0.666319 0.395622
O O1 0.827618 0.370458 0.667501
O O2 0.858744 0.460538 0.775376
O O3 0.881980 0.339028 0.804554
O O4 0.000000 0.399582 0.708656
O O5 0.729145 0.038514 0.937542
O O6 0.806260 0.149931 0.893957
O O7 0.673672 0.083847 0.811312
O O8 0.859004 0.047676 0.827257
O O9 0.353439 0.445429 0.955553
O O10 0.132589 0.678111 0.469244
O O11 0.305171 0.625140 0.435200
O O12 0.127032 0.761344 0.580407
O O13 0.000000 0.667406 0.577465
O O14 0.500000 0.549296 0.725429
O O15 0.500000 0.643199 0.420714
#
# Coordination Sequence:
#
# PCOD8262939 Si02
#       7
#    16  16   8  16  16  16  16
#     4  10  20  35  60  90 115 152 197 246 296 350
#     4  10  20  36  58  83 121 157 193 240 308 349
#     4  10  20  34  58  88 118 146 190 242 298 354
#     4  11  20  37  61  87 117 152 195 246 299 352
#     4  10  22  40  59  85 117 157 200 248 300 352
#     4  10  20  36  58  85 120 154 195 244 299 357
#     4  10  22  39  60  84 118 159 203 243 290 351
#
# _framework density 20.494495000000001
#
# number of rings (size 3 to 8) (size 9 to 14) (size 15 to 20)
#    0.000    1.846    1.538    2.769    2.154    0.000 
#    5.538    6.154    0.000    0.923    0.000    0.000 
#    0.000    0.000    0.000    0.000    0.000    0.000 
#
# Total GULP energy -644238.960480 kJ/mol
# GULP energy per Si atom -12389.210778 kJ/mol
# Density = 2.044785 g / cm^3
# Si number density = 20.494495 Si / 1000 Ang^3
#
#
#
# Elastic Constant Matrix: (Units=GPa)
#
#
# Indices 1 2 3 4 5 6 
#
# 1 119.7051 29.8598 23.9790 0.0000 0.0000 0.0000
# 2 29.8598 63.2504 25.6442 0.0000 0.0000 0.0000
# 3 23.9790 25.6442 79.5256 0.0000 0.0000 0.0000
# 4 0.0000 0.0000 0.0000 31.9270 0.0000 0.0000
# 5 0.0000 0.0000 0.0000 0.0000 28.9623 0.0000
# 6 0.0000 0.0000 0.0000 0.0000 0.0000 23.7649
#
#
#
# Elastic Compliance Matrix: (Units=1/GPa)
#
#
# Indices 1 2 3 4 5 6 
#
# 1 0.009655 -0.003886 -0.001658 0.000000 0.000000 0.000000
# 2 -0.003886 0.019752 -0.005198 0.000000 0.000000 0.000000
# 3 -0.001658 -0.005198 0.014751 0.000000 0.000000 0.000000
# 4 0.000000 0.000000 0.000000 0.031321 0.000000 0.000000
# 5 0.000000 0.000000 0.000000 0.000000 0.034528 0.000000
# 6 0.000000 0.000000 0.000000 0.000000 0.000000 0.042079
#
#
# Mechanical properties :
#
#
# Convention : Reuss Voigt Hill
#
# Bulk Modulus (GPa) = 44.10256 46.82745 45.46501
# Shear Modulus (GPa) = 27.60485 29.13071 28.36778
#
# Velocity S-wave (km/s) = 3.67405 3.77423 3.72447
# Velocity P-wave (km/s) = 6.29000 6.47236 6.38183
#
# Compressibility (1/GPa) = 0.02267442
#
# Stress axis : x y z
#
# Youngs Moduli (GPa) = 103.56960 50.62789 67.79364
#
# Poissons Ratio (x) = 0.19673 0.11242
# Poissons Ratio (y) = 0.40245 0.35237
# Poissons Ratio (z) = 0.17175 0.26315
#
# Static dielectric constant tensor:
#      x y z
#    x 3.786570 0.000000 0.000000 
#    y 0.000000 3.536900 0.000000 
#    z 0.000000 0.000000 3.756420 
# 
# 
# High freq. dielectric constant tensor:
#      x y z
#    x 1.796680 0.000000 0.000000 
#    y 0.000000 1.781450 0.000000 
#    z 0.000000 0.000000 1.805660 
# 
# From -- ./inp_files/32380.got.cif
#   From: 2010.03.12/outbox.cif.g09.slc.cpg/sg64_17_cif.got.tgz:32380.got - 2010.04.10 20:19:32.
