data_PCOD8262051
_publ_section_title
;
Structure prediction by ZEFSAII (Michael W. Deem and Ramdas Pophale) SiO2 
 PCOD8262051
Probable space group: C M C A
;
_chemical_formula_sum "Si O2"
_cell_formula_units_Z 88
_cell_length_a 33.704740
_cell_length_b 27.908646
_cell_length_c 5.203298
_cell_angle_alpha 90.000000
_cell_angle_beta 90.000000
_cell_angle_gamma 90.000000
_cell_volume 4894.501293
_symmetry_space_group_name_H-M "C M C A"
_symmetry_group_IT_number 64
_symmetry_cell_setting 'orthorhombic'
loop_
_space_group_symop_operation_xyz
x,y,z
-x,1/2-y,1/2+z
x,-y,-z
-x,1/2+y,1/2-z
-x,-y,-z
x,1/2+y,1/2-z
-x,y,z
x,1/2-y,1/2+z
1/2+x,1/2+y,z
1/2-x,-y,1/2+z
1/2+x,1/2-y,-z
1/2-x,y,1/2-z
1/2-x,1/2-y,-z
1/2+x,y,1/2-z
1/2-x,1/2+y,z
1/2+x,-y,1/2+z
loop_
_atom_site_type_symbol
_atom_site_label
_atom_site_fract_x
_atom_site_fract_y
_atom_site_fract_z
Si Si1 0.044921 0.718904 0.903888
Si Si2 0.859573 0.906949 0.929495
Si Si3 0.956839 0.548958 0.855911
Si Si4 0.599005 0.372188 0.450444
Si Si5 0.601569 0.500000 0.000000
Si Si6 0.724558 0.444528 0.998869
O O1 0.051386 0.742457 0.626737
O O2 0.078608 0.679120 0.933061
O O3 0.000000 0.697665 0.921799
O O4 0.869323 0.873484 0.683968
O O5 0.813008 0.909000 0.990750
O O6 0.871261 0.962130 0.845248
O O7 0.880373 0.885353 0.181950
O O8 0.936457 0.590491 0.024610
O O9 0.926125 0.538533 0.634401
O O10 0.000000 0.566501 0.753279
O O11 0.963419 0.500000 0.000000
O O12 0.750000 0.432733 0.750000
O O13 0.711049 0.500000 0.000000
O O14 0.750000 0.432096 0.250000
#
# Coordination Sequence:
#
# PCOD8262051 Si02
#       6
#    16  16  16  16   8  16
#     4  10  21  39  60  81 109 144 186 238 287 329
#     4  11  21  34  53  76 112 140 184 220 269 319
#     4  10  19  31  45  67 103 146 187 218 251 303
#     4  11  22  35  54  81 106 144 183 228 278 323
#     4  10  19  32  44  68 102 150 180 224 256 302
#     4  10  20  34  52  76 106 150 191 222 260 320
#
# _framework density 17.979361000000001
#
# number of rings (size 3 to 8) (size 9 to 14) (size 15 to 20)
#    0.000    1.636    2.727    3.000    0.000    0.000 
#    0.000    1.818    0.000    0.000    0.000    0.000 
#    0.000   50.909    0.000    0.000    0.000    0.000 
#
# Total GULP energy -545125.087632 kJ/mol
# GULP energy per Si atom -12389.206537 kJ/mol
# Density = 1.793844 g / cm^3
# Si number density = 17.979361 Si / 1000 Ang^3
#
#
#
# Elastic Constant Matrix: (Units=GPa)
#
#
# Indices 1 2 3 4 5 6 
#
# 1 116.4807 45.8660 37.6375 0.0000 0.0000 0.0000
# 2 45.8660 61.8898 20.9146 0.0000 0.0000 0.0000
# 3 37.6375 20.9146 102.0668 0.0000 0.0000 0.0000
# 4 0.0000 0.0000 0.0000 22.3683 0.0000 0.0000
# 5 0.0000 0.0000 0.0000 0.0000 20.1133 0.0000
# 6 0.0000 0.0000 0.0000 0.0000 0.0000 29.0591
#
#
#
# Elastic Compliance Matrix: (Units=1/GPa)
#
#
# Indices 1 2 3 4 5 6 
#
# 1 0.012931 -0.008565 -0.003013 0.000000 0.000000 0.000000
# 2 -0.008565 0.023033 -0.001561 0.000000 0.000000 0.000000
# 3 -0.003013 -0.001561 0.011229 0.000000 0.000000 0.000000
# 4 0.000000 0.000000 0.000000 0.044706 0.000000 0.000000
# 5 0.000000 0.000000 0.000000 0.000000 0.049718 0.000000
# 6 0.000000 0.000000 0.000000 0.000000 0.000000 0.034413
#
#
# Mechanical properties :
#
#
# Convention : Reuss Voigt Hill
#
# Bulk Modulus (GPa) = 47.81628 54.36373 51.09000
# Shear Modulus (GPa) = 23.89137 26.04276 24.96707
#
# Velocity S-wave (km/s) = 3.64926 3.81002 3.73050
# Velocity P-wave (km/s) = 6.66400 7.04680 6.85807
#
# Compressibility (1/GPa) = 0.02091338
#
# Stress axis : x y z
#
# Youngs Moduli (GPa) = 77.33104 43.41635 89.05791
#
# Poissons Ratio (x) = 0.37186 0.26837
# Poissons Ratio (y) = 0.66234 0.13904
# Poissons Ratio (z) = 0.23303 0.06779
#
# Static dielectric constant tensor:
#      x y z
#    x 3.470050 0.000000 0.000000 
#    y 0.000000 3.100060 0.000000 
#    z 0.000000 0.000000 3.183960 
# 
# 
# High freq. dielectric constant tensor:
#      x y z
#    x 1.699350 0.000000 0.000000 
#    y 0.000000 1.661770 0.000000 
#    z 0.000000 0.000000 1.698140 
# 
# From -- ./inp_files/3317.got.cif
#   From: 2010.03.12/outbox.cif.g09.slc.cpg/sg64_2_cif.got.tgz:3317.got - 2010.04.10 20:19:32.
