data_PCOD8262296
_publ_section_title
;
Structure prediction by ZEFSAII (Michael W. Deem and Ramdas Pophale) SiO2 
 PCOD8262296
Probable space group: C M C A
;
_chemical_formula_sum "Si O2"
_cell_formula_units_Z 96
_cell_length_a 15.480625
_cell_length_b 14.623206
_cell_length_c 22.384477
_cell_angle_alpha 90.000000
_cell_angle_beta 90.000000
_cell_angle_gamma 90.000000
_cell_volume 5067.316611
_symmetry_space_group_name_H-M "C M C A"
_symmetry_group_IT_number 64
_symmetry_cell_setting 'orthorhombic'
loop_
_space_group_symop_operation_xyz
x,y,z
-x,1/2-y,1/2+z
x,-y,-z
-x,1/2+y,1/2-z
-x,-y,-z
x,1/2+y,1/2-z
-x,y,z
x,1/2-y,1/2+z
1/2+x,1/2+y,z
1/2-x,-y,1/2+z
1/2+x,1/2-y,-z
1/2-x,y,1/2-z
1/2-x,1/2-y,-z
1/2+x,y,1/2-z
1/2-x,1/2+y,z
1/2+x,-y,1/2+z
loop_
_atom_site_type_symbol
_atom_site_label
_atom_site_fract_x
_atom_site_fract_y
_atom_site_fract_z
Si Si1 0.813269 0.802986 0.457256
Si Si2 0.402139 0.525896 0.170656
Si Si3 0.269693 0.482730 0.391856
Si Si4 0.403445 0.268948 0.843153
Si Si5 0.407641 0.914234 0.958099
Si Si6 0.840285 0.601319 0.775248
O O1 0.750000 0.750000 0.500000
O O2 0.768904 0.898147 0.437408
O O3 0.839127 0.744823 0.399013
O O4 0.894917 0.826229 0.499286
O O5 0.500000 0.511100 0.145856
O O6 0.331123 0.503663 0.120047
O O7 0.387540 0.632509 0.187721
O O8 0.391112 0.461349 0.228133
O O9 0.323116 0.570387 0.416552
O O10 0.322933 0.460386 0.332537
O O11 0.500000 0.262398 0.868787
O O12 0.393437 0.191778 0.792279
O O13 0.500000 0.900783 0.923194
O O14 0.419016 0.000000 0.000000
O O15 0.750000 0.637647 0.750000
#
# Coordination Sequence:
#
# PCOD8262296 Si02
#       6
#    16  16  16  16  16  16
#     4  10  19  33  53  75 105 139 175 218 264 315
#     4  10  20  35  54  77 107 143 180 216 261 323
#     4   9  19  34  52  76 105 138 173 217 269 312
#     4  10  20  34  54  78 105 139 177 218 266 320
#     4   9  17  30  51  76 100 130 172 220 264 305
#     4   9  19  34  54  78 104 137 176 221 271 321
#
# _framework density 18.944936999999999
#
# number of rings (size 3 to 8) (size 9 to 14) (size 15 to 20)
#    0.000    2.500    0.000    2.000    0.000    6.667 
#    0.000    3.333    0.000    6.500    0.000    0.000 
#    0.000    0.000    0.000    0.000    0.000    0.000 
#
# Total GULP energy -594745.114836 kJ/mol
# GULP energy per Si atom -12390.523226 kJ/mol
# Density = 1.890182 g / cm^3
# Si number density = 18.944937 Si / 1000 Ang^3
#
#
#
# Elastic Constant Matrix: (Units=GPa)
#
#
# Indices 1 2 3 4 5 6 
#
# 1 137.5167 58.1669 48.4705 0.0000 0.0000 0.0000
# 2 58.1669 99.6907 43.2646 0.0000 0.0000 0.0000
# 3 48.4705 43.2646 82.5228 0.0000 0.0000 0.0000
# 4 0.0000 0.0000 0.0000 28.4200 0.0000 0.0000
# 5 0.0000 0.0000 0.0000 0.0000 27.4644 0.0000
# 6 0.0000 0.0000 0.0000 0.0000 0.0000 3.0523
#
#
#
# Elastic Compliance Matrix: (Units=1/GPa)
#
#
# Indices 1 2 3 4 5 6 
#
# 1 0.010514 -0.004472 -0.003831 0.000000 0.000000 0.000000
# 2 -0.004472 0.014888 -0.005179 0.000000 0.000000 0.000000
# 3 -0.003831 -0.005179 0.017083 0.000000 0.000000 0.000000
# 4 0.000000 0.000000 0.000000 0.035186 0.000000 0.000000
# 5 0.000000 0.000000 0.000000 0.000000 0.036411 0.000000
# 6 0.000000 0.000000 0.000000 0.000000 0.000000 0.327617
#
#
# Mechanical properties :
#
#
# Convention : Reuss Voigt Hill
#
# Bulk Modulus (GPa) = 64.42614 68.83712 66.63163
# Shear Modulus (GPa) = 10.55219 23.10922 16.83071
#
# Velocity S-wave (km/s) = 2.36263 3.49637 2.98384
# Velocity P-wave (km/s) = 6.44388 7.26042 6.86430
#
# Compressibility (1/GPa) = 0.01552165
#
# Stress axis : x y z
#
# Youngs Moduli (GPa) = 95.11492 67.16934 58.53801
#
# Poissons Ratio (x) = 0.30037 0.22424
# Poissons Ratio (y) = 0.42534 0.30315
# Poissons Ratio (z) = 0.36436 0.34785
#
# Static dielectric constant tensor:
#      x y z
#    x 3.777030 0.000000 0.000000 
#    y 0.000000 3.066670 0.000000 
#    z 0.000000 0.000000 3.285950 
# 
# 
# High freq. dielectric constant tensor:
#      x y z
#    x 1.743850 0.000000 0.000000 
#    y 0.000000 1.730720 0.000000 
#    z 0.000000 0.000000 1.719120 
# 
# From -- ./inp_files/39240.got.cif
#   From: 2010.03.12/outbox.cif.g09.slc.cpg/sg64_20_cif.got.tgz:39240.got - 2010.04.10 20:19:32.
