data_PCOD8262445
_publ_section_title
;
Structure prediction by ZEFSAII (Michael W. Deem and Ramdas Pophale) SiO2 
 PCOD8262445
Probable space group: C M C A
;
_chemical_formula_sum "Si O2"
_cell_formula_units_Z 112
_cell_length_a 25.585310
_cell_length_b 13.743739
_cell_length_c 15.294731
_cell_angle_alpha 90.000000
_cell_angle_beta 90.000000
_cell_angle_gamma 90.000000
_cell_volume 5378.205910
_symmetry_space_group_name_H-M "C M C A"
_symmetry_group_IT_number 64
_symmetry_cell_setting 'orthorhombic'
loop_
_space_group_symop_operation_xyz
x,y,z
-x,1/2-y,1/2+z
x,-y,-z
-x,1/2+y,1/2-z
-x,-y,-z
x,1/2+y,1/2-z
-x,y,z
x,1/2-y,1/2+z
1/2+x,1/2+y,z
1/2-x,-y,1/2+z
1/2+x,1/2-y,-z
1/2-x,y,1/2-z
1/2-x,1/2-y,-z
1/2+x,y,1/2-z
1/2-x,1/2+y,z
1/2+x,-y,1/2+z
loop_
_atom_site_type_symbol
_atom_site_label
_atom_site_fract_x
_atom_site_fract_y
_atom_site_fract_z
Si Si1 0.636418 0.435108 0.080428
Si Si2 0.056858 0.117380 0.567823
Si Si3 0.094005 0.741615 0.779173
Si Si4 0.309479 0.609405 0.748503
Si Si5 0.871955 0.024995 0.359314
Si Si6 0.099774 0.227835 0.411357
Si Si7 0.937631 0.549564 0.307405
O O1 0.678438 0.440187 0.158182
O O2 0.630416 0.321920 0.052014
O O3 0.580876 0.477626 0.115020
O O4 0.657101 0.500000 0.000000
O O5 0.059988 0.172270 0.660436
O O6 0.102064 0.035544 0.560731
O O7 0.061062 0.192601 0.486881
O O8 0.000000 0.068213 0.562014
O O9 0.153882 0.702841 0.771381
O O10 0.070305 0.744325 0.679877
O O11 0.091288 0.847354 0.823323
O O12 0.250000 0.645013 0.750000
O O13 0.318718 0.526169 0.674210
O O14 0.917044 0.011066 0.285372
O O15 0.861347 0.136911 0.386523
O O16 0.000000 0.559492 0.308241
#
# Coordination Sequence:
#
# PCOD8262445 Si02
#       7
#    16  16  16  16  16  16  16
#     4  10  21  37  56  84 119 149 194 247 285 343
#     4  11  21  33  54  83 116 156 194 234 293 355
#     4   9  20  37  56  83 117 147 192 244 281 342
#     4   9  19  40  66  86 111 153 194 238 301 351
#     4   9  20  36  54  82 116 147 194 247 283 342
#     4  10  21  36  54  79 115 154 191 238 289 338
#     4  10  19  34  57  82 117 163 195 228 288 349
#
# _framework density 20.824788999999999
#
# number of rings (size 3 to 8) (size 9 to 14) (size 15 to 20)
#    0.000    2.286    0.000    3.000    0.000    4.857 
#    0.000   19.286    0.000   15.429    0.000    0.000 
#    0.000    0.000    0.000    0.000    0.000    0.000 
#
# Total GULP energy -693853.755582 kJ/mol
# GULP energy per Si atom -12390.245635 kJ/mol
# Density = 2.077739 g / cm^3
# Si number density = 20.824789 Si / 1000 Ang^3
#
#
#
# Elastic Constant Matrix: (Units=GPa)
#
#
# Indices 1 2 3 4 5 6 
#
# 1 115.9024 31.7010 26.6650 0.0000 0.0000 0.0000
# 2 31.7010 131.9052 37.2380 0.0000 0.0000 0.0000
# 3 26.6650 37.2380 92.4071 0.0000 0.0000 0.0000
# 4 0.0000 0.0000 0.0000 39.7055 0.0000 0.0000
# 5 0.0000 0.0000 0.0000 0.0000 10.4952 0.0000
# 6 0.0000 0.0000 0.0000 0.0000 0.0000 35.5536
#
#
#
# Elastic Compliance Matrix: (Units=1/GPa)
#
#
# Indices 1 2 3 4 5 6 
#
# 1 0.009574 -0.001716 -0.002071 0.000000 0.000000 0.000000
# 2 -0.001716 0.008862 -0.003076 0.000000 0.000000 0.000000
# 3 -0.002071 -0.003076 0.012659 0.000000 0.000000 0.000000
# 4 0.000000 0.000000 0.000000 0.025185 0.000000 0.000000
# 5 0.000000 0.000000 0.000000 0.000000 0.095281 0.000000
# 6 0.000000 0.000000 0.000000 0.000000 0.000000 0.028127
#
#
# Mechanical properties :
#
#
# Convention : Reuss Voigt Hill
#
# Bulk Modulus (GPa) = 57.57625 59.04695 58.31160
# Shear Modulus (GPa) = 25.09991 33.45825 29.27908
#
# Velocity S-wave (km/s) = 3.47550 4.01266 3.75370
# Velocity P-wave (km/s) = 6.61917 7.06288 6.84462
#
# Compressibility (1/GPa) = 0.01736827
#
# Stress axis : x y z
#
# Youngs Moduli (GPa) = 104.45136 112.84091 78.99620
#
# Poissons Ratio (x) = 0.19366 0.16360
# Poissons Ratio (y) = 0.17926 0.24299
# Poissons Ratio (z) = 0.21632 0.34709
#
# Static dielectric constant tensor:
#      x y z
#    x 3.138360 0.000000 0.000000 
#    y 0.000000 4.147910 0.000000 
#    z 0.000000 0.000000 3.986530 
# 
# 
# High freq. dielectric constant tensor:
#      x y z
#    x 1.749180 0.000000 0.000000 
#    y 0.000000 1.835700 0.000000 
#    z 0.000000 0.000000 1.829120 
# 
# From -- ./inp_files/28101.got.cif
#   From: 2010.03.12/outbox.cif.g09.slc.cpg/sg64_15_cif.got.tgz:28101.got - 2010.04.10 20:19:32.
