data_PCOD8262436
_publ_section_title
;
Structure prediction by ZEFSAII (Michael W. Deem and Ramdas Pophale) SiO2 
 PCOD8262436
Probable space group: C M C A
;
_chemical_formula_sum "Si O2"
_cell_formula_units_Z 96
_cell_length_a 8.652570
_cell_length_b 25.212873
_cell_length_c 23.673192
_cell_angle_alpha 90.000000
_cell_angle_beta 90.000000
_cell_angle_gamma 90.000000
_cell_volume 5164.452390
_symmetry_space_group_name_H-M "C M C A"
_symmetry_group_IT_number 64
_symmetry_cell_setting 'orthorhombic'
loop_
_space_group_symop_operation_xyz
x,y,z
-x,1/2-y,1/2+z
x,-y,-z
-x,1/2+y,1/2-z
-x,-y,-z
x,1/2+y,1/2-z
-x,y,z
x,1/2-y,1/2+z
1/2+x,1/2+y,z
1/2-x,-y,1/2+z
1/2+x,1/2-y,-z
1/2-x,y,1/2-z
1/2-x,1/2-y,-z
1/2+x,y,1/2-z
1/2-x,1/2+y,z
1/2+x,-y,1/2+z
loop_
_atom_site_type_symbol
_atom_site_label
_atom_site_fract_x
_atom_site_fract_y
_atom_site_fract_z
Si Si1 0.318039 0.500525 0.311211
Si Si2 0.182720 0.940679 0.502886
Si Si3 0.683568 0.602937 0.378530
Si Si4 0.682247 0.190103 0.690625
Si Si5 0.317354 0.695530 0.190377
Si Si6 0.817873 0.100270 0.617208
O O1 0.500000 0.501057 0.306826
O O2 0.250000 0.492325 0.250000
O O3 0.259742 0.555330 0.338211
O O4 0.262879 0.452283 0.350288
O O5 0.241900 0.909825 0.558204
O O6 0.229689 0.906708 0.448106
O O7 0.000000 0.947069 0.506696
O O8 0.254747 0.000000 0.500000
O O9 0.500000 0.610649 0.375763
O O10 0.767247 0.656320 0.359316
O O11 0.500000 0.195502 0.696655
O O12 0.750000 0.168804 0.750000
O O13 0.752770 0.246843 0.675119
O O14 0.725160 0.150238 0.640711
O O15 0.500000 0.698278 0.195298
O O16 0.250000 0.675049 0.250000
O O17 0.000000 0.110039 0.624529
#
# Coordination Sequence:
#
# PCOD8262436 Si02
#       6
#    16  16  16  16  16  16
#     4  10  20  31  49  77 111 144 179 222 271 326
#     4   9  16  32  58  83 110 149 192 228 271 324
#     4  10  19  34  56  83 112 146 187 229 272 327
#     4  11  22  38  59  83 111 145 184 229 281 335
#     4  11  22  38  59  83 111 145 184 229 281 335
#     4  10  19  34  56  83 112 146 187 229 272 327
#
# _framework density 18.588611
#
# number of rings (size 3 to 8) (size 9 to 14) (size 15 to 20)
#    0.000    1.833    1.667    5.000    0.000    4.000 
#    0.000    1.667    0.000    1.000    0.000    0.000 
#    0.000    0.000    0.000    0.000    0.000    0.000 
#
# Total GULP energy -595323.404151 kJ/mol
# GULP energy per Si atom -12402.570920 kJ/mol
# Density = 1.854630 g / cm^3
# Si number density = 18.588611 Si / 1000 Ang^3
#
#
#
# Elastic Constant Matrix: (Units=GPa)
#
#
# Indices 1 2 3 4 5 6 
#
# 1 82.7449 44.0658 40.1858 0.0000 0.0000 0.0000
# 2 44.0658 105.9785 51.8912 0.0000 0.0000 0.0000
# 3 40.1858 51.8912 107.8759 0.0000 0.0000 0.0000
# 4 0.0000 0.0000 0.0000 26.7974 0.0000 0.0000
# 5 0.0000 0.0000 0.0000 0.0000 21.8636 0.0000
# 6 0.0000 0.0000 0.0000 0.0000 0.0000 25.0796
#
#
#
# Elastic Compliance Matrix: (Units=1/GPa)
#
#
# Indices 1 2 3 4 5 6 
#
# 1 0.016605 -0.005070 -0.003747 0.000000 0.000000 0.000000
# 2 -0.005070 0.013891 -0.004793 0.000000 0.000000 0.000000
# 3 -0.003747 -0.004793 0.012971 0.000000 0.000000 0.000000
# 4 0.000000 0.000000 0.000000 0.037317 0.000000 0.000000
# 5 0.000000 0.000000 0.000000 0.000000 0.045738 0.000000
# 6 0.000000 0.000000 0.000000 0.000000 0.000000 0.039873
#
#
# Mechanical properties :
#
#
# Convention : Reuss Voigt Hill
#
# Bulk Modulus (GPa) = 61.54882 63.20944 62.37913
# Shear Modulus (GPa) = 25.12168 25.44521 25.28344
#
# Velocity S-wave (km/s) = 3.68020 3.70382 3.69203
# Velocity P-wave (km/s) = 7.15831 7.23666 7.19759
#
# Compressibility (1/GPa) = 0.01624726
#
# Stress axis : x y z
#
# Youngs Moduli (GPa) = 60.22304 71.98989 77.09229
#
# Poissons Ratio (x) = 0.36496 0.28887
# Poissons Ratio (y) = 0.30531 0.36953
# Poissons Ratio (z) = 0.22566 0.34507
#
# Static dielectric constant tensor:
#      x y z
#    x 3.181620 0.000000 0.000000 
#    y 0.000000 3.454310 0.000000 
#    z 0.000000 0.000000 3.532580 
# 
# 
# High freq. dielectric constant tensor:
#      x y z
#    x 1.702830 0.000000 0.000000 
#    y 0.000000 1.725220 0.000000 
#    z 0.000000 0.000000 1.725130 
# 
# From -- ./inp_files/43214.got.cif
#   From: 2010.03.12/outbox.cif.g09.slc.cpg/sg64_22_cif.got.tgz:43214.got - 2010.04.10 20:19:32.
