data_PCOD8262151
_publ_section_title
;
Structure prediction by ZEFSAII (Michael W. Deem and Ramdas Pophale) SiO2 
 PCOD8262151
Probable space group: C M C A
;
_chemical_formula_sum "Si O2"
_cell_formula_units_Z 80
_cell_length_a 10.817614
_cell_length_b 20.735867
_cell_length_c 19.438879
_cell_angle_alpha 90.000000
_cell_angle_beta 90.000000
_cell_angle_gamma 90.000000
_cell_volume 4360.385590
_symmetry_space_group_name_H-M "C M C A"
_symmetry_group_IT_number 64
_symmetry_cell_setting 'orthorhombic'
loop_
_space_group_symop_operation_xyz
x,y,z
-x,1/2-y,1/2+z
x,-y,-z
-x,1/2+y,1/2-z
-x,-y,-z
x,1/2+y,1/2-z
-x,y,z
x,1/2-y,1/2+z
1/2+x,1/2+y,z
1/2-x,-y,1/2+z
1/2+x,1/2-y,-z
1/2-x,y,1/2-z
1/2-x,1/2-y,-z
1/2+x,y,1/2-z
1/2-x,1/2+y,z
1/2+x,-y,1/2+z
loop_
_atom_site_type_symbol
_atom_site_label
_atom_site_fract_x
_atom_site_fract_y
_atom_site_fract_z
Si Si1 0.500000 0.937670 0.595646
Si Si2 0.205579 0.133876 0.176226
Si Si3 0.139379 0.277714 0.197335
Si Si4 0.500000 0.586536 0.937769
Si Si5 0.137334 0.819310 0.559668
Si Si6 0.716718 0.176276 0.573860
O O1 0.380226 0.918188 0.639272
O O2 0.500000 0.904384 0.520660
O O3 0.500000 0.013799 0.586755
O O4 0.250000 0.107066 0.250000
O O5 0.133243 0.201391 0.183630
O O6 0.326737 0.145222 0.130143
O O7 0.250000 0.294554 0.250000
O O8 0.171454 0.317107 0.128224
O O9 0.000000 0.298123 0.222110
O O10 0.378450 0.620082 0.905880
O O11 0.227466 0.842512 0.499659
O O12 0.141446 0.742633 0.569704
O O13 0.000000 0.840482 0.540314
#
# Coordination Sequence:
#
# PCOD8262151 Si02
#       6
#     8  16  16   8  16  16
#     4  11  22  40  59  80 116 152 205 242 286 345
#     4  10  21  34  57  85 117 147 193 243 292 347
#     4  10  21  34  57  89 122 155 188 245 306 355
#     4  11  22  38  61  82 112 161 199 244 284 358
#     4  10  19  31  54  86 117 146 178 241 302 352
#     4  10  20  33  54  84 120 147 194 233 293 359
#
# _framework density 18.347000999999999
#
# number of rings (size 3 to 8) (size 9 to 14) (size 15 to 20)
#    0.000    1.800    4.000    0.600    2.800    2.400 
#    0.000    1.000    0.000    3.600    0.000    0.000 
#    0.000    0.000    0.000    0.000    0.000    0.000 
#
# Total GULP energy -495971.176289 kJ/mol
# GULP energy per Si atom -12399.279407 kJ/mol
# Density = 1.830524 g / cm^3
# Si number density = 18.347001 Si / 1000 Ang^3
#
#
#
# Elastic Constant Matrix: (Units=GPa)
#
#
# Indices 1 2 3 4 5 6 
#
# 1 139.3554 40.4592 45.2040 0.0000 0.0000 0.0000
# 2 40.4592 55.1374 32.9133 0.0000 0.0000 0.0000
# 3 45.2040 32.9133 108.9916 0.0000 0.0000 0.0000
# 4 0.0000 0.0000 0.0000 19.1013 0.0000 0.0000
# 5 0.0000 0.0000 0.0000 0.0000 17.9652 0.0000
# 6 0.0000 0.0000 0.0000 0.0000 0.0000 -21.4523
#
#
#
# Elastic Compliance Matrix: (Units=1/GPa)
#
#
# Indices 1 2 3 4 5 6 
#
# 1 0.009551 -0.005665 -0.002250 0.000000 0.000000 0.000000
# 2 -0.005665 0.025485 -0.005346 0.000000 0.000000 0.000000
# 3 -0.002250 -0.005346 0.011723 0.000000 0.000000 0.000000
# 4 0.000000 0.000000 0.000000 0.052352 0.000000 0.000000
# 5 0.000000 0.000000 0.000000 0.000000 0.055663 0.000000
# 6 0.000000 0.000000 0.000000 0.000000 0.000000 -0.046615
#
#
# Mechanical properties :
#
#
# Convention : Reuss Voigt Hill
#
# Bulk Modulus (GPa) = 49.41947 60.07083 54.74515
# Shear Modulus (GPa) = 35.35395 15.45003 25.40199
#
# Velocity S-wave (km/s) = 4.39448 2.90505 3.72497
# Velocity P-wave (km/s) = 7.26244 6.63814 6.95730
#
# Compressibility (1/GPa) = 0.02023494
#
# Stress axis : x y z
#
# Youngs Moduli (GPa) = 104.70619 39.23924 85.30316
#
# Poissons Ratio (x) = 0.22228 0.19197
# Poissons Ratio (y) = 0.59313 0.45607
# Poissons Ratio (z) = 0.23563 0.20979
#
# Static dielectric constant tensor:
#      x y z
#    x 3.307460 0.000000 0.000000 
#    y 0.000000 2.936440 0.000000 
#    z 0.000000 0.000000 3.496130 
# 
# 
# High freq. dielectric constant tensor:
#      x y z
#    x 1.720210 0.000000 0.000000 
#    y 0.000000 1.660170 0.000000 
#    z 0.000000 0.000000 1.719210 
# 
# From -- ./inp_files/30847.got.cif
#   From: 2010.03.12/outbox.cif.g09.slc.cpg/sg64_16_cif.got.tgz:30847.got - 2010.04.10 20:19:32.
