data_PCOD8262830
_publ_section_title
;
Structure prediction by ZEFSAII (Michael W. Deem and Ramdas Pophale) SiO2 
 PCOD8262830
Probable space group: C M C A
;
_chemical_formula_sum "Si O2"
_cell_formula_units_Z 96
_cell_length_a 8.734711
_cell_length_b 30.140275
_cell_length_c 20.799174
_cell_angle_alpha 90.000000
_cell_angle_beta 90.000000
_cell_angle_gamma 90.000000
_cell_volume 5475.727647
_symmetry_space_group_name_H-M "C M C A"
_symmetry_group_IT_number 64
_symmetry_cell_setting 'orthorhombic'
loop_
_space_group_symop_operation_xyz
x,y,z
-x,1/2-y,1/2+z
x,-y,-z
-x,1/2+y,1/2-z
-x,-y,-z
x,1/2+y,1/2-z
-x,y,z
x,1/2-y,1/2+z
1/2+x,1/2+y,z
1/2-x,-y,1/2+z
1/2+x,1/2-y,-z
1/2-x,y,1/2-z
1/2-x,1/2-y,-z
1/2+x,y,1/2-z
1/2-x,1/2+y,z
1/2+x,-y,1/2+z
loop_
_atom_site_type_symbol
_atom_site_label
_atom_site_fract_x
_atom_site_fract_y
_atom_site_fract_z
Si Si1 0.678598 0.532167 0.445445
Si Si2 0.677674 0.213062 0.955567
Si Si3 0.818188 0.505214 0.813418
Si Si4 0.822951 0.885934 0.475550
Si Si5 0.818374 0.309737 0.185392
Si Si6 0.680112 0.597262 0.844952
O O1 0.751628 0.500000 0.500000
O O2 0.500000 0.521439 0.442233
O O3 0.747813 0.521009 0.375591
O O4 0.708769 0.584092 0.461466
O O5 0.500000 0.222719 0.954650
O O6 0.715149 0.165572 0.988532
O O7 0.737800 0.213971 0.881180
O O8 0.750000 0.250000 0.000000
O O9 0.750000 0.481157 0.750000
O O10 0.754952 0.554976 0.811988
O O11 0.000000 0.505198 0.810965
O O12 0.714006 0.905114 0.420694
O O13 0.000000 0.890679 0.452924
O O14 0.750000 0.286204 0.250000
O O15 0.759384 0.359890 0.185581
O O16 0.000000 0.309156 0.188906
O O17 0.500000 0.598690 0.831969
#
# Coordination Sequence:
#
# PCOD8262830 Si02
#       6
#    16  16  16  16  16  16
#     4   9  16  30  54  74  92 128 172 208 243 293
#     4   9  19  33  53  77 104 131 164 208 252 303
#     4  11  21  33  48  68  98 134 170 210 251 297
#     4   9  17  33  53  75  98 129 171 209 249 295
#     4  10  20  34  51  74 102 134 167 206 251 304
#     4  11  20  30  46  72 103 135 165 201 248 300
#
# _framework density 17.531917
#
# number of rings (size 3 to 8) (size 9 to 14) (size 15 to 20)
#    0.000    2.167    1.667    4.000    0.000    3.333 
#    0.000    2.500    0.000    1.000    0.000    4.667 
#    0.000    0.000    0.000    0.000    0.000    0.000 
#
# Total GULP energy -594910.820475 kJ/mol
# GULP energy per Si atom -12393.975427 kJ/mol
# Density = 1.749201 g / cm^3
# Si number density = 17.531917 Si / 1000 Ang^3
#
#
#
# Elastic Constant Matrix: (Units=GPa)
#
#
# Indices 1 2 3 4 5 6 
#
# 1 57.1892 23.4736 37.0816 0.0000 0.0000 0.0000
# 2 23.4736 84.8811 71.8496 0.0000 0.0000 0.0000
# 3 37.0816 71.8496 167.4299 0.0000 0.0000 0.0000
# 4 0.0000 0.0000 0.0000 21.9068 0.0000 0.0000
# 5 0.0000 0.0000 0.0000 0.0000 28.7817 0.0000
# 6 0.0000 0.0000 0.0000 0.0000 0.0000 13.3266
#
#
#
# Elastic Compliance Matrix: (Units=1/GPa)
#
#
# Indices 1 2 3 4 5 6 
#
# 1 0.020869 -0.002919 -0.003369 0.000000 0.000000 0.000000
# 2 -0.002919 0.018910 -0.007469 0.000000 0.000000 0.000000
# 3 -0.003369 -0.007469 0.009924 0.000000 0.000000 0.000000
# 4 0.000000 0.000000 0.000000 0.045648 0.000000 0.000000
# 5 0.000000 0.000000 0.000000 0.000000 0.034744 0.000000
# 6 0.000000 0.000000 0.000000 0.000000 0.000000 0.075038
#
#
# Mechanical properties :
#
#
# Convention : Reuss Voigt Hill
#
# Bulk Modulus (GPa) = 45.06743 63.81219 54.43981
# Shear Modulus (GPa) = 20.82958 24.60938 22.71948
#
# Velocity S-wave (km/s) = 3.45061 3.75065 3.60376
# Velocity P-wave (km/s) = 6.45270 7.43191 6.95955
#
# Compressibility (1/GPa) = 0.02218897
#
# Stress axis : x y z
#
# Youngs Moduli (GPa) = 47.91891 52.88089 100.76769
#
# Poissons Ratio (x) = 0.15437 0.33950
# Poissons Ratio (y) = 0.13989 0.75259
# Poissons Ratio (z) = 0.16144 0.39494
#
# Static dielectric constant tensor:
#      x y z
#    x 3.151410 0.000000 0.000000 
#    y 0.000000 3.104060 0.000000 
#    z 0.000000 0.000000 3.720050 
# 
# 
# High freq. dielectric constant tensor:
#      x y z
#    x 1.664800 0.000000 0.000000 
#    y 0.000000 1.643000 0.000000 
#    z 0.000000 0.000000 1.686260 
# 
# From -- ./inp_files/37048.got.cif
#   From: 2010.03.12/outbox.cif.g09.slc.cpg/sg64_19_cif.got.tgz:37048.got - 2010.04.10 20:19:32.
