data_PCOD8262592
_publ_section_title
;
Structure prediction by ZEFSAII (Michael W. Deem and Ramdas Pophale) SiO2 
 PCOD8262592
Probable space group: C M C A
;
_chemical_formula_sum "Si O2"
_cell_formula_units_Z 96
_cell_length_a 9.261051
_cell_length_b 20.405188
_cell_length_c 28.156764
_cell_angle_alpha 90.000000
_cell_angle_beta 90.000000
_cell_angle_gamma 90.000000
_cell_volume 5320.881868
_symmetry_space_group_name_H-M "C M C A"
_symmetry_group_IT_number 64
_symmetry_cell_setting 'orthorhombic'
loop_
_space_group_symop_operation_xyz
x,y,z
-x,1/2-y,1/2+z
x,-y,-z
-x,1/2+y,1/2-z
-x,-y,-z
x,1/2+y,1/2-z
-x,y,z
x,1/2-y,1/2+z
1/2+x,1/2+y,z
1/2-x,-y,1/2+z
1/2+x,1/2-y,-z
1/2-x,y,1/2-z
1/2-x,1/2-y,-z
1/2+x,y,1/2-z
1/2-x,1/2+y,z
1/2+x,-y,1/2+z
loop_
_atom_site_type_symbol
_atom_site_label
_atom_site_fract_x
_atom_site_fract_y
_atom_site_fract_z
Si Si1 0.333138 0.871738 0.542623
Si Si2 0.333090 0.051994 0.295199
Si Si3 0.334978 0.999267 0.396056
Si Si4 0.671018 0.249800 0.896769
Si Si5 0.330240 0.797206 0.703588
Si Si6 0.828488 0.116138 0.555148
O O1 0.500000 0.863184 0.527384
O O2 0.271295 0.807354 0.568919
O O3 0.237427 0.884544 0.496871
O O4 0.314277 0.932220 0.577728
O O5 0.500000 0.047606 0.283076
O O6 0.250000 0.022385 0.250000
O O7 0.288303 0.127082 0.304449
O O8 0.294304 0.009089 0.341078
O O9 0.500000 0.974867 0.402032
O O10 0.225391 0.946674 0.416522
O O11 0.500000 0.255775 0.895777
O O12 0.727363 0.258449 0.842824
O O13 0.724777 0.180570 0.916854
O O14 0.500000 0.787628 0.711054
O O15 0.250000 0.768803 0.750000
O O16 0.000000 0.113671 0.551030
#
# Coordination Sequence:
#
# PCOD8262592 Si02
#       6
#    16  16  16  16  16  16
#     4  10  19  36  59  76  96 137 185 217 247 303
#     4   9  17  31  54  80 102 128 168 215 257 300
#     4  10  20  36  56  77 102 139 179 210 250 311
#     4   9  18  35  56  76 103 139 174 208 256 312
#     4   9  16  31  54  79 102 128 167 213 257 302
#     4  11  23  35  50  77 111 140 168 215 269 306
#
# _framework density 18.042121999999999
#
# number of rings (size 3 to 8) (size 9 to 14) (size 15 to 20)
#    0.000    2.333    1.667    1.500    0.000    3.333 
#    0.000    4.167    0.000    4.000    0.000    0.000 
#    0.000    0.000    0.000    0.000    0.000    0.000 
#
# Total GULP energy -595240.547805 kJ/mol
# GULP energy per Si atom -12400.844746 kJ/mol
# Density = 1.800106 g / cm^3
# Si number density = 18.042122 Si / 1000 Ang^3
#
#
#
# Elastic Constant Matrix: (Units=GPa)
#
#
# Indices 1 2 3 4 5 6 
#
# 1 50.7070 22.0459 40.5880 0.0000 0.0000 0.0000
# 2 22.0459 45.5813 9.4063 0.0000 0.0000 0.0000
# 3 40.5880 9.4063 115.3577 0.0000 0.0000 0.0000
# 4 0.0000 0.0000 0.0000 1572.2391 0.0000 0.0000
# 5 0.0000 0.0000 0.0000 0.0000 28.3208 0.0000
# 6 0.0000 0.0000 0.0000 0.0000 0.0000 30.2331
#
#
#
# Elastic Compliance Matrix: (Units=1/GPa)
#
#
# Indices 1 2 3 4 5 6 
#
# 1 0.034974 -0.014622 -0.011113 0.000000 0.000000 0.000000
# 2 -0.014622 0.028428 0.002827 0.000000 0.000000 0.000000
# 3 -0.011113 0.002827 0.012348 0.000000 0.000000 0.000000
# 4 0.000000 0.000000 0.000000 0.000636 0.000000 0.000000
# 5 0.000000 0.000000 0.000000 0.000000 0.035310 0.000000
# 6 0.000000 0.000000 0.000000 0.000000 0.000000 0.033076
#
#
# Mechanical properties :
#
#
# Convention : Reuss Voigt Hill
#
# Bulk Modulus (GPa) = 33.40821 39.52515 36.46668
# Shear Modulus (GPa) = 24.92944 335.46565 180.19754
#
# Velocity S-wave (km/s) = 3.72120 13.65058 10.00464
# Velocity P-wave (km/s) = 6.08442 16.44402 12.39810
#
# Compressibility (1/GPa) = 0.02993276
#
# Stress axis : x y z
#
# Youngs Moduli (GPa) = 28.59290 35.17707 80.98309
#
# Poissons Ratio (x) = 0.51436 0.89997
# Poissons Ratio (y) = 0.41809 -0.22892
# Poissons Ratio (z) = 0.31775 -0.09944
#
# Static dielectric constant tensor:
#      x y z
#    x 3.155890 0.000000 0.000000 
#    y 0.000000 3.304910 0.000000 
#    z 0.000000 0.000000 3.553950 
# 
# 
# High freq. dielectric constant tensor:
#      x y z
#    x 1.678930 0.000000 0.000000 
#    y 0.000000 1.686320 0.000000 
#    z 0.000000 0.000000 1.715570 
# 
# From -- ./inp_files/48025.got.cif
#   From: 2010.03.12/outbox.cif.g09.slc.cpg/sg64_25_cif.got.tgz:48025.got - 2010.04.10 20:19:32.
