data_PCOD8262300
_publ_section_title
;
Structure prediction by ZEFSAII (Michael W. Deem and Ramdas Pophale) SiO2 
 PCOD8262300
Probable space group: C M C A
;
_chemical_formula_sum "Si O2"
_cell_formula_units_Z 80
_cell_length_a 8.860950
_cell_length_b 18.885683
_cell_length_c 28.192676
_cell_angle_alpha 90.000000
_cell_angle_beta 90.000000
_cell_angle_gamma 90.000000
_cell_volume 4717.905981
_symmetry_space_group_name_H-M "C M C A"
_symmetry_group_IT_number 64
_symmetry_cell_setting 'orthorhombic'
loop_
_space_group_symop_operation_xyz
x,y,z
-x,1/2-y,1/2+z
x,-y,-z
-x,1/2+y,1/2-z
-x,-y,-z
x,1/2+y,1/2-z
-x,y,z
x,1/2-y,1/2+z
1/2+x,1/2+y,z
1/2-x,-y,1/2+z
1/2+x,1/2-y,-z
1/2-x,y,1/2-z
1/2-x,1/2-y,-z
1/2+x,y,1/2-z
1/2-x,1/2+y,z
1/2+x,-y,1/2+z
loop_
_atom_site_type_symbol
_atom_site_label
_atom_site_fract_x
_atom_site_fract_y
_atom_site_fract_z
Si Si1 0.676575 0.954885 0.545173
Si Si2 0.678759 0.801527 0.381817
Si Si3 0.321410 0.292401 0.956946
Si Si4 0.170820 0.059306 0.609408
Si Si5 0.829083 0.367452 0.200998
O O1 0.500000 0.962588 0.553715
O O2 0.724807 0.874166 0.537895
O O3 0.730978 0.000000 0.500000
O O4 0.758790 0.985976 0.591652
O O5 0.500000 0.794867 0.382829
O O6 0.753028 0.734407 0.407369
O O7 0.731368 0.873257 0.409693
O O8 0.740253 0.804864 0.327394
O O9 0.500000 0.281837 0.957326
O O10 0.250000 0.250000 0.000000
O O11 0.174047 0.062388 0.667266
O O12 0.000000 0.067229 0.590662
O O13 0.750000 0.386370 0.250000
O O14 0.000000 0.342420 0.210557
#
# Coordination Sequence:
#
# PCOD8262300 Si02
#       5
#    16  16  16  16  16
#     4  10  21  35  52  75 105 141 180 220 267 320
#     4  10  19  33  53  76 106 141 177 220 265 312
#     4  11  22  35  52  77 108 142 181 224 268 322
#     4   9  19  33  52  78 106 134 175 221 262 316
#     4   9  18  32  54  84 109 137 176 222 269 317
#
# _framework density 16.956674
#
# number of rings (size 3 to 8) (size 9 to 14) (size 15 to 20)
#    1.200    1.000    0.000    4.200    0.000    3.600 
#    0.000    0.000    0.000    1.200    0.000    2.800 
#    0.000    0.000    0.000    0.000    0.000    0.000 
#
# Total GULP energy -495731.995085 kJ/mol
# GULP energy per Si atom -12393.299877 kJ/mol
# Density = 1.691808 g / cm^3
# Si number density = 16.956674 Si / 1000 Ang^3
#
#
#
# Elastic Constant Matrix: (Units=GPa)
#
#
# Indices 1 2 3 4 5 6 
#
# 1 116.9124 62.2835 50.5381 0.0000 0.0000 0.0000
# 2 62.2835 110.9321 55.9461 0.0000 0.0000 0.0000
# 3 50.5381 55.9461 103.0324 0.0000 0.0000 0.0000
# 4 0.0000 0.0000 0.0000 23.3537 0.0000 0.0000
# 5 0.0000 0.0000 0.0000 0.0000 32.2997 0.0000
# 6 0.0000 0.0000 0.0000 0.0000 0.0000 26.7274
#
#
#
# Elastic Compliance Matrix: (Units=1/GPa)
#
#
# Indices 1 2 3 4 5 6 
#
# 1 0.012978 -0.005613 -0.003318 0.000000 0.000000 0.000000
# 2 -0.005613 0.014842 -0.005306 0.000000 0.000000 0.000000
# 3 -0.003318 -0.005306 0.014214 0.000000 0.000000 0.000000
# 4 0.000000 0.000000 0.000000 0.042820 0.000000 0.000000
# 5 0.000000 0.000000 0.000000 0.000000 0.030960 0.000000
# 6 0.000000 0.000000 0.000000 0.000000 0.000000 0.037415
#
#
# Mechanical properties :
#
#
# Convention : Reuss Voigt Hill
#
# Bulk Modulus (GPa) = 73.74446 74.26803 74.00624
# Shear Modulus (GPa) = 26.84959 27.28344 27.06651
#
# Velocity S-wave (km/s) = 3.98354 4.01560 3.99960
# Velocity P-wave (km/s) = 8.04627 8.08664 8.06648
#
# Compressibility (1/GPa) = 0.01356034
#
# Stress axis : x y z
#
# Youngs Moduli (GPa) = 77.05315 67.37633 70.35279
#
# Poissons Ratio (x) = 0.37821 0.23342
# Poissons Ratio (y) = 0.43253 0.37327
# Poissons Ratio (z) = 0.25565 0.35748
#
# Static dielectric constant tensor:
#      x y z
#    x 3.212960 0.000000 0.000000 
#    y 0.000000 3.028500 0.000000 
#    z 0.000000 0.000000 3.060050 
# 
# 
# High freq. dielectric constant tensor:
#      x y z
#    x 1.671900 0.000000 0.000000 
#    y 0.000000 1.626960 0.000000 
#    z 0.000000 0.000000 1.641590 
# 
# From -- ./inp_files/51763.got.cif
#   From: 2010.03.12/outbox.cif.g09.slc.cpg/sg64_26_cif.got.tgz:51763.got - 2010.04.10 20:19:32.
