data_PCOD8262776
_publ_section_title
;
Structure prediction by ZEFSAII (Michael W. Deem and Ramdas Pophale) SiO2 
 PCOD8262776
Probable space group: C M C A
;
_chemical_formula_sum "Si O2"
_cell_formula_units_Z 80
_cell_length_a 9.293752
_cell_length_b 27.584984
_cell_length_c 17.765571
_cell_angle_alpha 90.000000
_cell_angle_beta 90.000000
_cell_angle_gamma 90.000000
_cell_volume 4554.523910
_symmetry_space_group_name_H-M "C M C A"
_symmetry_group_IT_number 64
_symmetry_cell_setting 'orthorhombic'
loop_
_space_group_symop_operation_xyz
x,y,z
-x,1/2-y,1/2+z
x,-y,-z
-x,1/2+y,1/2-z
-x,-y,-z
x,1/2+y,1/2-z
-x,y,z
x,1/2-y,1/2+z
1/2+x,1/2+y,z
1/2-x,-y,1/2+z
1/2+x,1/2-y,-z
1/2-x,y,1/2-z
1/2-x,1/2-y,-z
1/2+x,y,1/2-z
1/2-x,1/2+y,z
1/2+x,-y,1/2+z
loop_
_atom_site_type_symbol
_atom_site_label
_atom_site_fract_x
_atom_site_fract_y
_atom_site_fract_z
Si Si1 0.167207 0.644022 0.533929
Si Si2 0.167793 0.193185 0.402810
Si Si3 0.668898 0.554118 0.479977
Si Si4 0.663701 0.595378 0.322301
Si Si5 0.665511 0.291418 0.174183
O O1 0.240548 0.682197 0.477265
O O2 0.242802 0.591618 0.531245
O O3 0.186264 0.663360 0.618492
O O4 0.000000 0.639196 0.512002
O O5 0.194164 0.151394 0.341364
O O6 0.223868 0.242928 0.366453
O O7 0.000000 0.195871 0.426174
O O8 0.716062 0.500000 0.500000
O O9 0.500000 0.563471 0.494208
O O10 0.709148 0.562476 0.393010
O O11 0.500000 0.586609 0.301339
O O12 0.750000 0.578071 0.250000
O O13 0.500000 0.283574 0.195846
O O14 0.750000 0.302793 0.250000
#
# Coordination Sequence:
#
# PCOD8262776 Si02
#       5
#    16  16  16  16  16
#     4  10  20  33  51  77 103 128 165 211 254 297
#     4   9  18  33  51  72 100 135 172 204 240 294
#     4   9  19  37  57  73  94 130 171 207 251 307
#     4   9  17  29  48  74  99 123 156 200 248 295
#     4  10  21  34  49  73 105 139 174 207 241 289
#
# _framework density 17.564952999999999
#
# number of rings (size 3 to 8) (size 9 to 14) (size 15 to 20)
#    0.000    2.600    0.000    3.000    0.000    6.000 
#    0.000    1.000    0.000    4.800    0.000    0.000 
#    0.000    0.000    0.000    0.000    0.000    0.000 
#
# Total GULP energy -496065.349707 kJ/mol
# GULP energy per Si atom -12401.633743 kJ/mol
# Density = 1.752497 g / cm^3
# Si number density = 17.564953 Si / 1000 Ang^3
#
#
#
# Elastic Constant Matrix: (Units=GPa)
#
#
# Indices 1 2 3 4 5 6 
#
# 1 74.1139 51.0466 57.3284 0.0000 0.0000 0.0000
# 2 51.0466 118.8691 66.9282 0.0000 0.0000 0.0000
# 3 57.3284 66.9282 105.5813 0.0000 0.0000 0.0000
# 4 0.0000 0.0000 0.0000 15.9955 0.0000 0.0000
# 5 0.0000 0.0000 0.0000 0.0000 34.0705 0.0000
# 6 0.0000 0.0000 0.0000 0.0000 0.0000 24.0632
#
#
#
# Elastic Compliance Matrix: (Units=1/GPa)
#
#
# Indices 1 2 3 4 5 6 
#
# 1 0.024902 -0.004791 -0.010485 0.000000 0.000000 0.000000
# 2 -0.004791 0.014003 -0.006275 0.000000 0.000000 0.000000
# 3 -0.010485 -0.006275 0.019142 0.000000 0.000000 0.000000
# 4 0.000000 0.000000 0.000000 0.062518 0.000000 0.000000
# 5 0.000000 0.000000 0.000000 0.000000 0.029351 0.000000
# 6 0.000000 0.000000 0.000000 0.000000 0.000000 0.041557
#
#
# Mechanical properties :
#
#
# Convention : Reuss Voigt Hill
#
# Bulk Modulus (GPa) = 66.90561 72.13006 69.51784
# Shear Modulus (GPa) = 20.87181 23.04325 21.95753
#
# Velocity S-wave (km/s) = 3.45086 3.62593 3.53948
# Velocity P-wave (km/s) = 7.35194 7.66053 7.50782
#
# Compressibility (1/GPa) = 0.01494643
#
# Stress axis : x y z
#
# Youngs Moduli (GPa) = 40.15669 71.41215 52.24018
#
# Poissons Ratio (x) = 0.34211 0.54772
# Poissons Ratio (y) = 0.19238 0.32783
# Poissons Ratio (z) = 0.42103 0.44814
#
# Static dielectric constant tensor:
#      x y z
#    x 3.233980 0.000000 0.000000 
#    y 0.000000 3.266630 0.000000 
#    z 0.000000 0.000000 3.116120 
# 
# 
# High freq. dielectric constant tensor:
#      x y z
#    x 1.678370 0.000000 0.000000 
#    y 0.000000 1.670350 0.000000 
#    z 0.000000 0.000000 1.673360 
# 
# From -- ./inp_files/22538.got.cif
#   From: 2010.03.12/outbox.cif.g09.slc.cpg/sg64_12_cif.got.tgz:22538.got - 2010.04.10 20:19:32.
