data_PCOD8262753
_publ_section_title
;
Structure prediction by ZEFSAII (Michael W. Deem and Ramdas Pophale) SiO2 
 PCOD8262753
Probable space group: C M C A
;
_chemical_formula_sum "Si O2"
_cell_formula_units_Z 88
_cell_length_a 13.647998
_cell_length_b 13.617721
_cell_length_c 25.915236
_cell_angle_alpha 90.000000
_cell_angle_beta 90.000000
_cell_angle_gamma 90.000000
_cell_volume 4816.466572
_symmetry_space_group_name_H-M "C M C A"
_symmetry_group_IT_number 64
_symmetry_cell_setting 'orthorhombic'
loop_
_space_group_symop_operation_xyz
x,y,z
-x,1/2-y,1/2+z
x,-y,-z
-x,1/2+y,1/2-z
-x,-y,-z
x,1/2+y,1/2-z
-x,y,z
x,1/2-y,1/2+z
1/2+x,1/2+y,z
1/2-x,-y,1/2+z
1/2+x,1/2-y,-z
1/2-x,y,1/2-z
1/2-x,1/2-y,-z
1/2+x,y,1/2-z
1/2-x,1/2+y,z
1/2+x,-y,1/2+z
loop_
_atom_site_type_symbol
_atom_site_label
_atom_site_fract_x
_atom_site_fract_y
_atom_site_fract_z
Si Si1 0.682263 0.164081 0.631385
Si Si2 0.500000 0.941039 0.787466
Si Si3 0.000000 0.694236 0.303101
Si Si4 0.691849 0.848327 0.637631
Si Si5 0.708411 0.485701 0.303866
Si Si6 0.114632 0.995521 0.058577
Si Si7 0.000000 0.273893 0.304391
O O1 0.732037 0.267110 0.616811
O O2 0.596352 0.173824 0.673647
O O3 0.766865 0.094697 0.653507
O O4 0.638594 0.112983 0.580303
O O5 0.500000 0.912141 0.726245
O O6 0.407932 0.006891 0.801734
O O7 0.500000 0.840743 0.821397
O O8 0.904587 0.703110 0.338954
O O9 0.000000 0.779423 0.258677
O O10 0.743669 0.908764 0.683396
O O11 0.668330 0.919136 0.590118
O O12 0.750000 0.447964 0.250000
O O13 0.000000 0.016276 0.062447
O O14 0.152115 0.000000 0.000000
#
# Coordination Sequence:
#
# PCOD8262753 Si02
#       7
#    16   8   8  16  16  16   8
#     4  11  24  36  60  89 115 155 203 239 297 363
#     4  10  20  36  55  76 122 169 193 229 280 332
#     4  10  20  32  60  78 124 167 188 235 287 336
#     4  11  21  39  56  89 119 152 196 249 290 351
#     4  11  22  33  55  83 120 160 199 230 282 345
#     4  10  22  42  65  85 110 150 204 259 306 349
#     4  10  20  36  57  80 123 166 195 226 282 350
#
# _framework density 18.270655999999999
#
# number of rings (size 3 to 8) (size 9 to 14) (size 15 to 20)
#    0.545    0.909    5.455    0.000    2.545    2.182 
#    0.000    0.000    0.000    0.000    0.000    3.818 
#    0.000    0.000    0.000    0.000    0.000    0.000 
#
# Total GULP energy -545638.804190 kJ/mol
# GULP energy per Si atom -12400.881913 kJ/mol
# Density = 1.822907 g / cm^3
# Si number density = 18.270656 Si / 1000 Ang^3
#
#
#
# Elastic Constant Matrix: (Units=GPa)
#
#
# Indices 1 2 3 4 5 6 
#
# 1 109.6750 27.5199 31.7744 0.0000 0.0000 0.0000
# 2 27.5199 74.1027 30.3862 0.0000 0.0000 0.0000
# 3 31.7744 30.3862 104.2873 0.0000 0.0000 0.0000
# 4 0.0000 0.0000 0.0000 25.0682 0.0000 0.0000
# 5 0.0000 0.0000 0.0000 0.0000 19.6020 0.0000
# 6 0.0000 0.0000 0.0000 0.0000 0.0000 32.0463
#
#
#
# Elastic Compliance Matrix: (Units=1/GPa)
#
#
# Indices 1 2 3 4 5 6 
#
# 1 0.010539 -0.002950 -0.002352 0.000000 0.000000 0.000000
# 2 -0.002950 0.016151 -0.003807 0.000000 0.000000 0.000000
# 3 -0.002352 -0.003807 0.011415 0.000000 0.000000 0.000000
# 4 0.000000 0.000000 0.000000 0.039891 0.000000 0.000000
# 5 0.000000 0.000000 0.000000 0.000000 0.051015 0.000000
# 6 0.000000 0.000000 0.000000 0.000000 0.000000 0.031205
#
#
# Mechanical properties :
#
#
# Convention : Reuss Voigt Hill
#
# Bulk Modulus (GPa) = 50.28140 51.93622 51.10881
# Shear Modulus (GPa) = 27.01779 28.56897 27.79338
#
# Velocity S-wave (km/s) = 3.84963 3.95860 3.90449
# Velocity P-wave (km/s) = 6.88037 7.02721 6.95418
#
# Compressibility (1/GPa) = 0.01988807
#
# Stress axis : x y z
#
# Youngs Moduli (GPa) = 94.88291 61.91398 87.60600
#
# Poissons Ratio (x) = 0.18263 0.20602
# Poissons Ratio (y) = 0.27988 0.33354
# Poissons Ratio (z) = 0.22313 0.23573
#
# Static dielectric constant tensor:
#      x y z
#    x 3.366540 0.000000 0.000000 
#    y 0.000000 3.296630 0.000000 
#    z 0.000000 0.000000 3.183560 
# 
# 
# High freq. dielectric constant tensor:
#      x y z
#    x 1.718880 0.000000 0.000000 
#    y 0.000000 1.707290 0.000000 
#    z 0.000000 0.000000 1.678650 
# 
# From -- ./inp_files/45172.got.cif
#   From: 2010.03.12/outbox.cif.g09.slc.cpg/sg64_23_cif.got.tgz:45172.got - 2010.04.10 20:19:32.
