data_PCOD8262747
_publ_section_title
;
Structure prediction by ZEFSAII (Michael W. Deem and Ramdas Pophale) SiO2 
 PCOD8262747
Probable space group: C M C A
;
_chemical_formula_sum "Si O2"
_cell_formula_units_Z 88
_cell_length_a 24.448858
_cell_length_b 8.949821
_cell_length_c 20.451574
_cell_angle_alpha 90.000000
_cell_angle_beta 90.000000
_cell_angle_gamma 90.000000
_cell_volume 4475.068273
_symmetry_space_group_name_H-M "C M C A"
_symmetry_group_IT_number 64
_symmetry_cell_setting 'orthorhombic'
loop_
_space_group_symop_operation_xyz
x,y,z
-x,1/2-y,1/2+z
x,-y,-z
-x,1/2+y,1/2-z
-x,-y,-z
x,1/2+y,1/2-z
-x,y,z
x,1/2-y,1/2+z
1/2+x,1/2+y,z
1/2-x,-y,1/2+z
1/2+x,1/2-y,-z
1/2-x,y,1/2-z
1/2-x,1/2-y,-z
1/2+x,y,1/2-z
1/2-x,1/2+y,z
1/2+x,-y,1/2+z
loop_
_atom_site_type_symbol
_atom_site_label
_atom_site_fract_x
_atom_site_fract_y
_atom_site_fract_z
Si Si1 0.638876 0.390605 0.670079
Si Si2 0.796463 0.000000 0.000000
Si Si3 0.355301 0.807648 0.597298
Si Si4 0.342623 0.056756 0.696241
Si Si5 0.936066 0.948705 0.426863
Si Si6 0.767743 0.570140 0.873323
O O1 0.642681 0.498929 0.732429
O O2 0.630756 0.219672 0.689636
O O3 0.587507 0.432768 0.624842
O O4 0.695734 0.418636 0.630996
O O5 0.759871 0.073477 0.943952
O O6 0.834154 0.867379 0.972260
O O7 0.409401 0.712628 0.585136
O O8 0.307646 0.712741 0.633491
O O9 0.370100 0.947383 0.643271
O O10 0.277259 0.069693 0.684249
O O11 0.000000 0.933302 0.414709
O O12 0.922060 0.000000 0.500000
#
# Coordination Sequence:
#
# PCOD8262747 Si02
#       6
#    16   8  16  16  16  16
#     4  11  23  38  63  85 125 162 204 248 296 358
#     4  10  20  32  57  90 127 162 204 236 298 352
#     4  10  22  37  62  90 125 162 201 252 292 359
#     4  11  22  39  58  94 125 164 198 241 302 361
#     4  10  24  45  67  88 115 155 203 256 315 358
#     4  10  21  34  56  88 130 168 202 238 291 357
#
# _framework density 19.664504999999998
#
# number of rings (size 3 to 8) (size 9 to 14) (size 15 to 20)
#    0.000    1.636    0.000    5.455   10.182    1.455 
#    0.000    5.000    0.000    0.000    0.000    0.000 
#    0.000    0.000    0.000    0.000    0.000    0.000 
#
# Total GULP energy -545685.362651 kJ/mol
# GULP energy per Si atom -12401.940060 kJ/mol
# Density = 1.961975 g / cm^3
# Si number density = 19.664505 Si / 1000 Ang^3
#
#
#
# Elastic Constant Matrix: (Units=GPa)
#
#
# Indices 1 2 3 4 5 6 
#
# 1 115.6779 62.5125 65.1876 0.0000 0.0000 0.0000
# 2 62.5125 151.9379 58.7839 0.0000 0.0000 0.0000
# 3 65.1876 58.7839 133.4343 0.0000 0.0000 0.0000
# 4 0.0000 0.0000 0.0000 38.0846 0.0000 0.0000
# 5 0.0000 0.0000 0.0000 0.0000 22.6795 0.0000
# 6 0.0000 0.0000 0.0000 0.0000 0.0000 18.9934
#
#
#
# Elastic Compliance Matrix: (Units=1/GPa)
#
#
# Indices 1 2 3 4 5 6 
#
# 1 0.013374 -0.003586 -0.004954 0.000000 0.000000 0.000000
# 2 -0.003586 0.008895 -0.002167 0.000000 0.000000 0.000000
# 3 -0.004954 -0.002167 0.010869 0.000000 0.000000 0.000000
# 4 0.000000 0.000000 0.000000 0.026257 0.000000 0.000000
# 5 0.000000 0.000000 0.000000 0.000000 0.044093 0.000000
# 6 0.000000 0.000000 0.000000 0.000000 0.000000 0.052650
#
#
# Mechanical properties :
#
#
# Convention : Reuss Voigt Hill
#
# Bulk Modulus (GPa) = 85.28811 86.00200 85.64505
# Shear Modulus (GPa) = 27.55411 30.25591 28.90501
#
# Velocity S-wave (km/s) = 3.74734 3.92676 3.83810
# Velocity P-wave (km/s) = 7.88601 8.02427 7.95544
#
# Compressibility (1/GPa) = 0.01172496
#
# Stress axis : x y z
#
# Youngs Moduli (GPa) = 74.77030 112.41762 92.00296
#
# Poissons Ratio (x) = 0.40312 0.45579
# Poissons Ratio (y) = 0.26812 0.19937
# Poissons Ratio (z) = 0.37042 0.24360
#
# Static dielectric constant tensor:
#      x y z
#    x 3.295230 0.000000 0.000000 
#    y 0.000000 3.744030 0.000000 
#    z 0.000000 0.000000 3.691800 
# 
# 
# High freq. dielectric constant tensor:
#      x y z
#    x 1.731030 0.000000 0.000000 
#    y 0.000000 1.779190 0.000000 
#    z 0.000000 0.000000 1.781370 
# 
# From -- ./inp_files/41376.got.cif
#   From: 2010.03.12/outbox.cif.g09.slc.cpg/sg64_21_cif.got.tgz:41376.got - 2010.04.10 20:19:32.
