data_PCOD8262319
_publ_section_title
;
Structure prediction by ZEFSAII (Michael W. Deem and Ramdas Pophale) SiO2 
 PCOD8262319
Probable space group: C M C A
;
_chemical_formula_sum "Si O2"
_cell_formula_units_Z 112
_cell_length_a 15.286342
_cell_length_b 13.967126
_cell_length_c 25.834924
_cell_angle_alpha 90.000000
_cell_angle_beta 90.000000
_cell_angle_gamma 90.000000
_cell_volume 5515.918124
_symmetry_space_group_name_H-M "C M C A"
_symmetry_group_IT_number 64
_symmetry_cell_setting 'orthorhombic'
loop_
_space_group_symop_operation_xyz
x,y,z
-x,1/2-y,1/2+z
x,-y,-z
-x,1/2+y,1/2-z
-x,-y,-z
x,1/2+y,1/2-z
-x,y,z
x,1/2-y,1/2+z
1/2+x,1/2+y,z
1/2-x,-y,1/2+z
1/2+x,1/2-y,-z
1/2-x,y,1/2-z
1/2-x,1/2-y,-z
1/2+x,y,1/2-z
1/2-x,1/2+y,z
1/2+x,-y,1/2+z
loop_
_atom_site_type_symbol
_atom_site_label
_atom_site_fract_x
_atom_site_fract_y
_atom_site_fract_z
Si Si1 0.282804 0.516431 0.094807
Si Si2 0.901801 0.749027 0.649744
Si Si3 0.899288 0.361621 0.453038
Si Si4 0.737231 0.617865 0.807109
Si Si5 0.901080 0.316955 0.568078
Si Si6 0.404557 0.950355 0.890692
Si Si7 0.906696 0.660013 0.853283
O O1 0.334590 0.451629 0.053564
O O2 0.278191 0.466479 0.151300
O O3 0.336296 0.614630 0.100286
O O4 0.183451 0.538693 0.074178
O O5 0.879976 0.715786 0.591170
O O6 0.841280 0.694572 0.690923
O O7 0.000000 0.720777 0.665264
O O8 0.888284 0.863489 0.649817
O O9 0.876573 0.312216 0.507563
O O10 0.000000 0.397600 0.451064
O O11 0.750000 0.573119 0.750000
O O12 0.824321 0.681464 0.817264
O O13 0.890758 0.210094 0.590921
O O14 0.000000 0.355218 0.575212
O O15 0.500000 0.932927 0.919825
O O16 0.413542 0.046423 0.858284
O O17 0.000000 0.697292 0.829990
#
# Coordination Sequence:
#
# PCOD8262319 Si02
#       7
#    16  16  16  16  16  16  16
#     4  10  19  33  54  81 109 140 178 221 272 326
#     4   9  18  35  58  82 108 140 182 227 270 323
#     4   9  18  33  55  83 111 140 179 229 280 323
#     4  10  21  37  56  79 107 140 177 223 275 324
#     4  10  19  34  57  82 110 143 179 225 277 326
#     4   9  18  35  54  71 102 144 180 220 268 317
#     4   9  19  36  55  76 105 142 182 223 271 325
#
# _framework density 20.304870000000001
#
# number of rings (size 3 to 8) (size 9 to 14) (size 15 to 20)
#    0.000    2.571    0.000    1.714    0.000    2.286 
#    0.000   21.429    0.000   14.571    0.000    0.000 
#    0.000    0.000    0.000    0.000    0.000    0.000 
#
# Total GULP energy -693765.499881 kJ/mol
# GULP energy per Si atom -12388.669641 kJ/mol
# Density = 2.025866 g / cm^3
# Si number density = 20.304870 Si / 1000 Ang^3
#
#
#
# Elastic Constant Matrix: (Units=GPa)
#
#
# Indices 1 2 3 4 5 6 
#
# 1 144.4831 36.0289 37.5070 0.0000 0.0000 0.0000
# 2 36.0289 93.8686 24.2534 0.0000 0.0000 0.0000
# 3 37.5070 24.2534 89.6224 0.0000 0.0000 0.0000
# 4 0.0000 0.0000 0.0000 17.3571 0.0000 0.0000
# 5 0.0000 0.0000 0.0000 0.0000 19.8475 0.0000
# 6 0.0000 0.0000 0.0000 0.0000 0.0000 19.9051
#
#
#
# Elastic Compliance Matrix: (Units=1/GPa)
#
#
# Indices 1 2 3 4 5 6 
#
# 1 0.008257 -0.002447 -0.002793 0.000000 0.000000 0.000000
# 2 -0.002447 0.012180 -0.002272 0.000000 0.000000 0.000000
# 3 -0.002793 -0.002272 0.012942 0.000000 0.000000 0.000000
# 4 0.000000 0.000000 0.000000 0.057613 0.000000 0.000000
# 5 0.000000 0.000000 0.000000 0.000000 0.050384 0.000000
# 6 0.000000 0.000000 0.000000 0.000000 0.000000 0.050238
#
#
# Mechanical properties :
#
#
# Convention : Reuss Voigt Hill
#
# Bulk Modulus (GPa) = 54.48625 58.17252 56.32939
# Shear Modulus (GPa) = 23.50112 26.76759 25.13436
#
# Velocity S-wave (km/s) = 3.40577 3.63476 3.52212
# Velocity P-wave (km/s) = 6.50830 6.80640 6.65902
#
# Compressibility (1/GPa) = 0.01835325
#
# Stress axis : x y z
#
# Youngs Moduli (GPa) = 121.11541 82.10506 77.27013
#
# Poissons Ratio (x) = 0.20094 0.21582
# Poissons Ratio (y) = 0.29642 0.17554
# Poissons Ratio (z) = 0.33829 0.18652
#
# Static dielectric constant tensor:
#      x y z
#    x 4.518980 0.000000 0.000000 
#    y 0.000000 3.643800 0.000000 
#    z 0.000000 0.000000 3.182550 
# 
# 
# High freq. dielectric constant tensor:
#      x y z
#    x 1.825320 0.000000 0.000000 
#    y 0.000000 1.789360 0.000000 
#    z 0.000000 0.000000 1.736600 
# 
# From -- ./inp_files/50085.got.cif
#   From: 2010.03.12/outbox.cif.g09.slc.cpg/sg64_26_cif.got.tgz:50085.got - 2010.04.10 20:19:32.
