data_PCOD8262301
_publ_section_title
;
Structure prediction by ZEFSAII (Michael W. Deem and Ramdas Pophale) SiO2 
 PCOD8262301
Probable space group: C M C A
;
_chemical_formula_sum "Si O2"
_cell_formula_units_Z 112
_cell_length_a 9.586720
_cell_length_b 20.349056
_cell_length_c 33.013096
_cell_angle_alpha 90.000000
_cell_angle_beta 90.000000
_cell_angle_gamma 90.000000
_cell_volume 6440.217947
_symmetry_space_group_name_H-M "C M C A"
_symmetry_group_IT_number 64
_symmetry_cell_setting 'orthorhombic'
loop_
_space_group_symop_operation_xyz
x,y,z
-x,1/2-y,1/2+z
x,-y,-z
-x,1/2+y,1/2-z
-x,-y,-z
x,1/2+y,1/2-z
-x,y,z
x,1/2-y,1/2+z
1/2+x,1/2+y,z
1/2-x,-y,1/2+z
1/2+x,1/2-y,-z
1/2-x,y,1/2-z
1/2-x,1/2-y,-z
1/2+x,y,1/2-z
1/2-x,1/2+y,z
1/2+x,-y,1/2+z
loop_
_atom_site_type_symbol
_atom_site_label
_atom_site_fract_x
_atom_site_fract_y
_atom_site_fract_z
Si Si1 0.840955 0.053641 0.713066
Si Si2 0.837801 0.118573 0.090677
Si Si3 0.837536 0.505420 0.127936
Si Si4 0.335598 0.618479 0.573162
Si Si5 0.838093 0.075893 0.000307
Si Si6 0.838865 0.792317 0.288006
Si Si7 0.664767 0.758171 0.124208
O O1 0.750000 0.026282 0.750000
O O2 0.794879 0.016005 0.672854
O O3 0.000000 0.038910 0.724007
O O4 0.816451 0.130427 0.705868
O O5 0.751127 0.069130 0.117998
O O6 0.788229 0.191624 0.102231
O O7 0.000000 0.107759 0.100513
O O8 0.806428 0.107299 0.043695
O O9 0.798723 0.447400 0.097287
O O10 0.000000 0.522750 0.124858
O O11 0.500000 0.624661 0.564519
O O12 0.254308 0.617194 0.530876
O O13 0.276983 0.680318 0.598598
O O14 0.000000 0.082162 0.988224
O O15 0.791267 0.000000 0.000000
O O16 0.750000 0.765608 0.250000
O O17 0.781589 0.758713 0.329259
O O18 0.000000 0.775031 0.279683
O O19 0.500000 0.766351 0.125939
#
# Coordination Sequence:
#
# PCOD8262301 Si02
#       7
#    16  16  16  16  16  16  16
#     4   9  17  30  50  77 104 129 162 210 257 297
#     4  10  21  36  54  73 102 142 175 206 256 315
#     4  10  19  33  53  77 103 131 167 212 255 295
#     4  10  19  33  56  78  98 131 174 213 251 301
#     4  10  20  34  50  75 108 136 168 214 261 305
#     4   9  16  30  52  76 101 129 166 208 250 298
#     4   9  18  35  55  76 102 136 174 209 252 309
#
# _framework density 17.390716999999999
#
# number of rings (size 3 to 8) (size 9 to 14) (size 15 to 20)
#    0.000    2.429    2.857    0.000    0.000    2.000 
#    0.000    2.857    0.000    3.429    0.000    0.000 
#    0.000    0.000    0.000    0.000    0.000    0.000 
#
# Total GULP energy -694472.044192 kJ/mol
# GULP energy per Si atom -12401.286503 kJ/mol
# Density = 1.735113 g / cm^3
# Si number density = 17.390717 Si / 1000 Ang^3
#
#
#
# Elastic Constant Matrix: (Units=GPa)
#
#
# Indices 1 2 3 4 5 6 
#
# 1 45.3945 27.6530 53.1771 0.0000 0.0000 0.0000
# 2 27.6530 77.4820 55.8069 0.0000 0.0000 0.0000
# 3 53.1771 55.8069 146.9782 0.0000 0.0000 0.0000
# 4 0.0000 0.0000 0.0000 29.9498 0.0000 0.0000
# 5 0.0000 0.0000 0.0000 0.0000 33.8778 0.0000
# 6 0.0000 0.0000 0.0000 0.0000 0.0000 16.9222
#
#
#
# Elastic Compliance Matrix: (Units=1/GPa)
#
#
# Indices 1 2 3 4 5 6 
#
# 1 0.039737 -0.005267 -0.012377 0.000000 0.000000 0.000000
# 2 -0.005267 0.018463 -0.005104 0.000000 0.000000 0.000000
# 3 -0.012377 -0.005104 0.013220 0.000000 0.000000 0.000000
# 4 0.000000 0.000000 0.000000 0.033389 0.000000 0.000000
# 5 0.000000 0.000000 0.000000 0.000000 0.029518 0.000000
# 6 0.000000 0.000000 0.000000 0.000000 0.000000 0.059094
#
#
# Mechanical properties :
#
#
# Convention : Reuss Voigt Hill
#
# Bulk Modulus (GPa) = 38.57749 60.34763 49.46256
# Shear Modulus (GPa) = 20.19730 25.03114 22.61422
#
# Velocity S-wave (km/s) = 3.41161 3.79798 3.60996
# Velocity P-wave (km/s) = 6.14408 7.34910 6.77344
#
# Compressibility (1/GPa) = 0.02592185
#
# Stress axis : x y z
#
# Youngs Moduli (GPa) = 25.16574 54.16358 75.64406
#
# Poissons Ratio (x) = 0.28530 0.93623
# Poissons Ratio (y) = 0.13256 0.38612
# Poissons Ratio (z) = 0.31147 0.27647
#
# Static dielectric constant tensor:
#      x y z
#    x 3.071290 0.000000 0.000000 
#    y 0.000000 3.137940 0.000000 
#    z 0.000000 0.000000 3.383370 
# 
# 
# High freq. dielectric constant tensor:
#      x y z
#    x 1.653150 0.000000 0.000000 
#    y 0.000000 1.657940 0.000000 
#    z 0.000000 0.000000 1.685020 
# 
# From -- ./inp_files/44413.got.cif
#   From: 2010.03.12/outbox.cif.g09.slc.cpg/sg64_23_cif.got.tgz:44413.got - 2010.04.10 20:19:32.
