data_PCOD8262814
_publ_section_title
;
Structure prediction by ZEFSAII (Michael W. Deem and Ramdas Pophale) SiO2 
 PCOD8262814
Probable space group: C M C A
;
_chemical_formula_sum "Si O2"
_cell_formula_units_Z 96
_cell_length_a 22.117376
_cell_length_b 17.705320
_cell_length_c 11.945584
_cell_angle_alpha 90.000000
_cell_angle_beta 90.000000
_cell_angle_gamma 90.000000
_cell_volume 4677.833590
_symmetry_space_group_name_H-M "C M C A"
_symmetry_group_IT_number 64
_symmetry_cell_setting 'orthorhombic'
loop_
_space_group_symop_operation_xyz
x,y,z
-x,1/2-y,1/2+z
x,-y,-z
-x,1/2+y,1/2-z
-x,-y,-z
x,1/2+y,1/2-z
-x,y,z
x,1/2-y,1/2+z
1/2+x,1/2+y,z
1/2-x,-y,1/2+z
1/2+x,1/2-y,-z
1/2-x,y,1/2-z
1/2-x,1/2-y,-z
1/2+x,y,1/2-z
1/2-x,1/2+y,z
1/2+x,-y,1/2+z
loop_
_atom_site_type_symbol
_atom_site_label
_atom_site_fract_x
_atom_site_fract_y
_atom_site_fract_z
Si Si1 0.156263 0.624732 0.338077
Si Si2 0.429624 0.232520 0.472032
Si Si3 0.840214 0.236537 0.341874
Si Si4 0.685580 0.460029 0.195588
Si Si5 0.355742 0.654239 0.645566
Si Si6 0.236950 0.839828 0.025986
O O1 0.100614 0.662905 0.405484
O O2 0.157610 0.651260 0.207273
O O3 0.150510 0.534350 0.344819
O O4 0.219463 0.648140 0.396821
O O5 0.500000 0.216811 0.481137
O O6 0.403030 0.240766 0.597403
O O7 0.417526 0.312098 0.405901
O O8 0.827470 0.286329 0.232350
O O9 0.785518 0.255333 0.430246
O O10 0.750000 0.481266 0.250000
O O11 0.639550 0.424739 0.288894
O O12 0.696589 0.400804 0.095573
O O13 0.308122 0.646114 0.543174
#
# Coordination Sequence:
#
# PCOD8262814 Si02
#       6
#    16  16  16  16  16  16
#     4  10  20  33  57  84 110 141 179 223 273 328
#     4  10  22  38  54  75 106 147 195 239 270 303
#     4   9  19  32  52  78 107 141 181 226 275 325
#     4   9  18  33  54  85 120 144 167 210 276 343
#     4   9  19  35  55  78 109 146 177 217 275 331
#     4   9  18  33  53  82 116 139 168 218 275 336
#
# _framework density 20.522321000000002
#
# number of rings (size 3 to 8) (size 9 to 14) (size 15 to 20)
#    0.000    2.667    0.000    2.000    0.000   14.000 
#    0.000    3.333    0.000   14.000    0.000    0.000 
#    0.000    0.000    0.000    0.000    0.000    0.000 
#
# Total GULP energy -594912.687499 kJ/mol
# GULP energy per Si atom -12394.014323 kJ/mol
# Density = 2.047561 g / cm^3
# Si number density = 20.522321 Si / 1000 Ang^3
#
#
#
# Elastic Constant Matrix: (Units=GPa)
#
#
# Indices 1 2 3 4 5 6 
#
# 1 95.4436 28.9309 31.1643 0.0000 0.0000 0.0000
# 2 28.9309 126.7540 31.3865 0.0000 0.0000 0.0000
# 3 31.1643 31.3865 84.0356 0.0000 0.0000 0.0000
# 4 0.0000 0.0000 0.0000 28.1529 0.0000 0.0000
# 5 0.0000 0.0000 0.0000 0.0000 23.5177 0.0000
# 6 0.0000 0.0000 0.0000 0.0000 0.0000 19.6547
#
#
#
# Elastic Compliance Matrix: (Units=1/GPa)
#
#
# Indices 1 2 3 4 5 6 
#
# 1 0.012302 -0.001849 -0.003872 0.000000 0.000000 0.000000
# 2 -0.001849 0.008971 -0.002665 0.000000 0.000000 0.000000
# 3 -0.003872 -0.002665 0.014331 0.000000 0.000000 0.000000
# 4 0.000000 0.000000 0.000000 0.035520 0.000000 0.000000
# 5 0.000000 0.000000 0.000000 0.000000 0.042521 0.000000
# 6 0.000000 0.000000 0.000000 0.000000 0.000000 0.050878
#
#
# Mechanical properties :
#
#
# Convention : Reuss Voigt Hill
#
# Bulk Modulus (GPa) = 53.09881 54.35518 53.72700
# Shear Modulus (GPa) = 26.65633 28.58184 27.61909
#
# Velocity S-wave (km/s) = 3.60793 3.73596 3.67250
# Velocity P-wave (km/s) = 6.57921 6.71962 6.64979
#
# Compressibility (1/GPa) = 0.01883281
#
# Stress axis : x y z
#
# Youngs Moduli (GPa) = 81.28727 111.46717 69.77996
#
# Poissons Ratio (x) = 0.20613 0.27015
# Poissons Ratio (y) = 0.15032 0.18596
# Poissons Ratio (z) = 0.31470 0.29705
#
# Static dielectric constant tensor:
#      x y z
#    x 3.139790 0.000000 0.000000 
#    y 0.000000 3.900990 0.000000 
#    z 0.000000 0.000000 4.169570 
# 
# 
# High freq. dielectric constant tensor:
#      x y z
#    x 1.746100 0.000000 0.000000 
#    y 0.000000 1.801070 0.000000 
#    z 0.000000 0.000000 1.827970 
# 
# From -- ./inp_files/18366.got.cif
#   From: 2010.03.12/outbox.cif.g09.slc.cpg/sg64_10_cif.got.tgz:18366.got - 2010.04.10 20:19:32.
