data_PCOD8262125
_publ_section_title
;
Structure prediction by ZEFSAII (Michael W. Deem and Ramdas Pophale) SiO2 
 PCOD8262125
Probable space group: C M C A
;
_chemical_formula_sum "Si O2"
_cell_formula_units_Z 96
_cell_length_a 8.963498
_cell_length_b 23.240503
_cell_length_c 23.643264
_cell_angle_alpha 90.000000
_cell_angle_beta 90.000000
_cell_angle_gamma 90.000000
_cell_volume 4925.274963
_symmetry_space_group_name_H-M "C M C A"
_symmetry_group_IT_number 64
_symmetry_cell_setting 'orthorhombic'
loop_
_space_group_symop_operation_xyz
x,y,z
-x,1/2-y,1/2+z
x,-y,-z
-x,1/2+y,1/2-z
-x,-y,-z
x,1/2+y,1/2-z
-x,y,z
x,1/2-y,1/2+z
1/2+x,1/2+y,z
1/2-x,-y,1/2+z
1/2+x,1/2-y,-z
1/2-x,y,1/2-z
1/2-x,1/2-y,-z
1/2+x,y,1/2-z
1/2-x,1/2+y,z
1/2+x,-y,1/2+z
loop_
_atom_site_type_symbol
_atom_site_label
_atom_site_fract_x
_atom_site_fract_y
_atom_site_fract_z
Si Si1 0.323375 0.311257 0.688666
Si Si2 0.332927 0.519743 0.587430
Si Si3 0.824039 0.865938 0.468522
Si Si4 0.676159 0.393898 0.591436
Si Si5 0.331862 0.590664 0.695291
Si Si6 0.323894 0.692015 0.868973
O O1 0.500000 0.314336 0.696762
O O2 0.250000 0.316997 0.750000
O O3 0.262287 0.361836 0.647236
O O4 0.276259 0.252759 0.657299
O O5 0.500000 0.511352 0.564168
O O6 0.259844 0.570778 0.549837
O O7 0.250694 0.457655 0.584013
O O8 0.331659 0.537765 0.652561
O O9 0.789435 0.856612 0.534841
O O10 0.744119 0.816192 0.432030
O O11 0.000000 0.863378 0.454337
O O12 0.500000 0.400618 0.598891
O O13 0.500000 0.610881 0.708824
O O14 0.250000 0.566308 0.750000
O O15 0.240809 0.644731 0.672793
O O16 0.500000 0.685771 0.873640
#
# Coordination Sequence:
#
# PCOD8262125 Si02
#       6
#    16  16  16  16  16  16
#     4  10  22  37  53  73  99 135 173 207 246 295
#     4   8  15  28  49  76 102 130 165 203 245 297
#     4   9  17  31  55  82 102 127 166 208 251 299
#     4   9  17  32  53  76 103 134 168 205 246 298
#     4  10  19  31  50  76 101 130 170 213 258 302
#     4  10  20  34  51  73 102 133 167 209 256 301
#
# _framework density 19.491296999999999
#
# number of rings (size 3 to 8) (size 9 to 14) (size 15 to 20)
#    0.000    2.667    0.000    3.000    0.000    6.000 
#    0.000    0.833    0.000   13.000    0.000    0.000 
#    0.000    0.000    0.000    0.000    0.000    0.000 
#
# Total GULP energy -594894.581281 kJ/mol
# GULP energy per Si atom -12393.637110 kJ/mol
# Density = 1.944693 g / cm^3
# Si number density = 19.491297 Si / 1000 Ang^3
#
#
#
# Elastic Constant Matrix: (Units=GPa)
#
#
# Indices 1 2 3 4 5 6 
#
# 1 39.1507 18.1377 34.7765 0.0000 0.0000 0.0000
# 2 18.1377 76.0343 55.6666 0.0000 0.0000 0.0000
# 3 34.7765 55.6666 152.1652 0.0000 0.0000 0.0000
# 4 0.0000 0.0000 0.0000 -32.4203 0.0000 0.0000
# 5 0.0000 0.0000 0.0000 0.0000 26.3791 0.0000
# 6 0.0000 0.0000 0.0000 0.0000 0.0000 14.4252
#
#
#
# Elastic Compliance Matrix: (Units=1/GPa)
#
#
# Indices 1 2 3 4 5 6 
#
# 1 0.032599 -0.003171 -0.006290 0.000000 0.000000 0.000000
# 2 -0.003171 0.018272 -0.005960 0.000000 0.000000 0.000000
# 3 -0.006290 -0.005960 0.010190 0.000000 0.000000 0.000000
# 4 0.000000 0.000000 0.000000 -0.030845 0.000000 0.000000
# 5 0.000000 0.000000 0.000000 0.000000 0.037909 0.000000
# 6 0.000000 0.000000 0.000000 0.000000 0.000000 0.069323
#
#
# Mechanical properties :
#
#
# Convention : Reuss Voigt Hill
#
# Bulk Modulus (GPa) = 33.09255 53.83463 43.46359
# Shear Modulus (GPa) = 28.03299 12.26144 20.14722
#
# Velocity S-wave (km/s) = 3.79652 2.51085 3.21853
# Velocity P-wave (km/s) = 6.01939 6.00713 6.01326
#
# Compressibility (1/GPa) = 0.03021828
#
# Stress axis : x y z
#
# Youngs Moduli (GPa) = 30.67592 54.72994 98.13951
#
# Poissons Ratio (x) = 0.17355 0.61732
# Poissons Ratio (y) = 0.09728 0.58487
# Poissons Ratio (z) = 0.19296 0.32617
#
# Static dielectric constant tensor:
#      x y z
#    x 3.224600 0.000000 0.000000 
#    y 0.000000 3.674740 0.000000 
#    z 0.000000 0.000000 3.539320 
# 
# 
# High freq. dielectric constant tensor:
#      x y z
#    x 1.715450 0.000000 0.000000 
#    y 0.000000 1.754260 0.000000 
#    z 0.000000 0.000000 1.773450 
# 
# From -- ./inp_files/42960.got.cif
#   From: 2010.03.12/outbox.cif.g09.slc.cpg/sg64_22_cif.got.tgz:42960.got - 2010.04.10 20:19:32.
