data_PCOD8262523
_publ_section_title
;
Structure prediction by ZEFSAII (Michael W. Deem and Ramdas Pophale) SiO2 
 PCOD8262523
Probable space group: C M C A
;
_chemical_formula_sum "Si O2"
_cell_formula_units_Z 80
_cell_length_a 9.057597
_cell_length_b 24.708463
_cell_length_c 18.790869
_cell_angle_alpha 90.000000
_cell_angle_beta 90.000000
_cell_angle_gamma 90.000000
_cell_volume 4205.383335
_symmetry_space_group_name_H-M "C M C A"
_symmetry_group_IT_number 64
_symmetry_cell_setting 'orthorhombic'
loop_
_space_group_symop_operation_xyz
x,y,z
-x,1/2-y,1/2+z
x,-y,-z
-x,1/2+y,1/2-z
-x,-y,-z
x,1/2+y,1/2-z
-x,y,z
x,1/2-y,1/2+z
1/2+x,1/2+y,z
1/2-x,-y,1/2+z
1/2+x,1/2-y,-z
1/2-x,y,1/2-z
1/2-x,1/2-y,-z
1/2+x,y,1/2-z
1/2-x,1/2+y,z
1/2+x,-y,1/2+z
loop_
_atom_site_type_symbol
_atom_site_label
_atom_site_fract_x
_atom_site_fract_y
_atom_site_fract_z
Si Si1 0.324998 0.650439 0.558726
Si Si2 0.170263 0.168653 0.400604
Si Si3 0.676310 0.470306 0.430061
Si Si4 0.831092 0.557760 0.177404
Si Si5 0.824493 0.264019 0.175522
O O1 0.500000 0.646646 0.557993
O O2 0.272671 0.672579 0.481942
O O3 0.259956 0.590645 0.574248
O O4 0.269054 0.691093 0.619368
O O5 0.189968 0.106979 0.376988
O O6 0.271790 0.205604 0.351018
O O7 0.000000 0.187245 0.393227
O O8 0.739216 0.500000 0.500000
O O9 0.500000 0.470163 0.433312
O O10 0.730655 0.503655 0.360838
O O11 0.750000 0.570245 0.250000
O O12 0.000000 0.549660 0.197618
O O13 0.750000 0.278711 0.250000
O O14 0.000000 0.263444 0.184352
#
# Coordination Sequence:
#
# PCOD8262523 Si02
#       5
#    16  16  16  16  16
#     4   9  18  33  56  82 106 136 181 226 265 316
#     4  10  19  35  58  82 106 137 179 225 270 318
#     4   9  15  30  55  80 104 135 176 217 257 309
#     4  10  20  32  53  82 109 138 174 218 266 316
#     4  11  23  37  53  77 110 145 180 221 267 318
#
# _framework density 19.023236000000001
#
# number of rings (size 3 to 8) (size 9 to 14) (size 15 to 20)
#    0.000    2.200    2.000    1.800    0.000    3.200 
#    0.000    1.000    0.000    3.000    0.000    0.000 
#    0.000    0.000    0.000    0.000    0.000    0.000 
#
# Total GULP energy -496014.660285 kJ/mol
# GULP energy per Si atom -12400.366507 kJ/mol
# Density = 1.897994 g / cm^3
# Si number density = 19.023236 Si / 1000 Ang^3
#
#
#
# Elastic Constant Matrix: (Units=GPa)
#
#
# Indices 1 2 3 4 5 6 
#
# 1 43.7104 22.9654 37.2978 0.0000 0.0000 0.0000
# 2 22.9654 79.4611 33.5337 0.0000 0.0000 0.0000
# 3 37.2978 33.5337 142.1398 0.0000 0.0000 0.0000
# 4 0.0000 0.0000 0.0000 32.8466 0.0000 0.0000
# 5 0.0000 0.0000 0.0000 0.0000 17.6366 0.0000
# 6 0.0000 0.0000 0.0000 0.0000 0.0000 17.8943
#
#
#
# Elastic Compliance Matrix: (Units=1/GPa)
#
#
# Indices 1 2 3 4 5 6 
#
# 1 0.032135 -0.006362 -0.006931 0.000000 0.000000 0.000000
# 2 -0.006362 0.015236 -0.001925 0.000000 0.000000 0.000000
# 3 -0.006931 -0.001925 0.009308 0.000000 0.000000 0.000000
# 4 0.000000 0.000000 0.000000 0.030445 0.000000 0.000000
# 5 0.000000 0.000000 0.000000 0.000000 0.056700 0.000000
# 6 0.000000 0.000000 0.000000 0.000000 0.000000 0.055884
#
#
# Mechanical properties :
#
#
# Convention : Reuss Voigt Hill
#
# Bulk Modulus (GPa) = 38.10692 50.32280 44.21486
# Shear Modulus (GPa) = 20.92992 25.10981 23.01986
#
# Velocity S-wave (km/s) = 3.32057 3.63706 3.48241
# Velocity P-wave (km/s) = 5.89719 6.64442 6.28193
#
# Compressibility (1/GPa) = 0.02624195
#
# Stress axis : x y z
#
# Youngs Moduli (GPa) = 31.11863 65.63418 107.43151
#
# Poissons Ratio (x) = 0.41759 0.74464
# Poissons Ratio (y) = 0.19799 0.20680
# Poissons Ratio (z) = 0.21569 0.12634
#
# Static dielectric constant tensor:
#      x y z
#    x 3.039960 0.000000 0.000000 
#    y 0.000000 3.676060 0.000000 
#    z 0.000000 0.000000 3.608940 
# 
# 
# High freq. dielectric constant tensor:
#      x y z
#    x 1.691860 0.000000 0.000000 
#    y 0.000000 1.750460 0.000000 
#    z 0.000000 0.000000 1.751870 
# 
# From -- ./inp_files/22329.got.cif
#   From: 2010.03.12/outbox.cif.g09.slc.cpg/sg64_12_cif.got.tgz:22329.got - 2010.04.10 20:19:32.
