data_PCOD8262013
_publ_section_title
;
Structure prediction by ZEFSAII (Michael W. Deem and Ramdas Pophale) SiO2 
 PCOD8262013
Probable space group: C M C A
;
_chemical_formula_sum "Si O2"
_cell_formula_units_Z 112
_cell_length_a 8.987425
_cell_length_b 25.548855
_cell_length_c 27.438352
_cell_angle_alpha 90.000000
_cell_angle_beta 90.000000
_cell_angle_gamma 90.000000
_cell_volume 6300.350983
_symmetry_space_group_name_H-M "C M C A"
_symmetry_group_IT_number 64
_symmetry_cell_setting 'orthorhombic'
loop_
_space_group_symop_operation_xyz
x,y,z
-x,1/2-y,1/2+z
x,-y,-z
-x,1/2+y,1/2-z
-x,-y,-z
x,1/2+y,1/2-z
-x,y,z
x,1/2-y,1/2+z
1/2+x,1/2+y,z
1/2-x,-y,1/2+z
1/2+x,1/2-y,-z
1/2-x,y,1/2-z
1/2-x,1/2-y,-z
1/2+x,y,1/2-z
1/2-x,1/2+y,z
1/2+x,-y,1/2+z
loop_
_atom_site_type_symbol
_atom_site_label
_atom_site_fract_x
_atom_site_fract_y
_atom_site_fract_z
Si Si1 0.176877 0.298170 0.385661
Si Si2 0.176098 0.003498 0.800575
Si Si3 0.677035 0.836862 0.489880
Si Si4 0.175281 0.377954 0.301525
Si Si5 0.174738 0.552814 0.481311
Si Si6 0.677286 0.693954 0.096502
Si Si7 0.826388 0.418534 0.625692
O O1 0.238552 0.313007 0.439566
O O2 0.231485 0.339258 0.344544
O O3 0.246548 0.241519 0.374555
O O4 0.000000 0.294660 0.385550
O O5 0.250000 0.990850 0.750000
O O6 0.217864 0.062671 0.817531
O O7 0.000000 0.998697 0.796479
O O8 0.244930 0.958213 0.835149
O O9 0.500000 0.837916 0.489595
O O10 0.740501 0.896061 0.492037
O O11 0.728625 0.806619 0.539235
O O12 0.250000 0.362787 0.250000
O O13 0.000000 0.372138 0.294052
O O14 0.253160 0.500000 0.500000
O O15 0.209614 0.554192 0.424798
O O16 0.000000 0.551292 0.492074
O O17 0.500000 0.698578 0.099481
O O18 0.734290 0.641220 0.124211
O O19 0.000000 0.414956 0.635491
#
# Coordination Sequence:
#
# PCOD8262013 Si02
#       7
#    16  16  16  16  16  16  16
#     4  10  19  30  47  70  94 122 157 194 229 267
#     4   9  17  31  50  70  92 118 149 188 233 278
#     4   8  15  26  41  65  96 123 152 187 222 268
#     4   9  19  33  49  69  93 118 149 191 236 276
#     4   8  13  20  36  64  94 119 143 177 223 270
#     4   9  17  31  47  67  96 128 155 184 224 271
#     4   8  15  27  44  65  91 119 147 183 226 267
#
# _framework density 17.776786999999999
#
# number of rings (size 3 to 8) (size 9 to 14) (size 15 to 20)
#    0.000    3.286    0.000    2.143    2.000    0.571 
#    0.000    1.429    0.000    3.429    0.000    0.000 
#    0.000    4.000    0.000    0.000    0.000    0.000 
#
# Total GULP energy -693763.522259 kJ/mol
# GULP energy per Si atom -12388.634326 kJ/mol
# Density = 1.773633 g / cm^3
# Si number density = 17.776787 Si / 1000 Ang^3
#
#
#
# Elastic Constant Matrix: (Units=GPa)
#
#
# Indices 1 2 3 4 5 6 
#
# 1 10.9698 24.0732 21.0629 0.0000 0.0000 0.0000
# 2 24.0732 165.5899 98.2182 0.0000 0.0000 0.0000
# 3 21.0629 98.2182 109.6038 0.0000 0.0000 0.0000
# 4 0.0000 0.0000 0.0000 35.1751 0.0000 0.0000
# 5 0.0000 0.0000 0.0000 0.0000 18.2804 0.0000
# 6 0.0000 0.0000 0.0000 0.0000 0.0000 18.2341
#
#
#
# Elastic Compliance Matrix: (Units=1/GPa)
#
#
# Indices 1 2 3 4 5 6 
#
# 1 0.152120 -0.010194 -0.020099 0.000000 0.000000 0.000000
# 2 -0.010194 0.013574 -0.010205 0.000000 0.000000 0.000000
# 3 -0.020099 -0.010205 0.022131 0.000000 0.000000 0.000000
# 4 0.000000 0.000000 0.000000 0.028429 0.000000 0.000000
# 5 0.000000 0.000000 0.000000 0.000000 0.054703 0.000000
# 6 0.000000 0.000000 0.000000 0.000000 0.000000 0.054842
#
#
# Mechanical properties :
#
#
# Convention : Reuss Voigt Hill
#
# Bulk Modulus (GPa) = 9.36064 63.65247 36.50655
# Shear Modulus (GPa) = 11.30189 23.85854 17.58022
#
# Velocity S-wave (km/s) = 2.52418 3.66747 3.14816
# Velocity P-wave (km/s) = 3.71112 7.33607 5.81336
#
# Compressibility (1/GPa) = 0.10683029
#
# Stress axis : x y z
#
# Youngs Moduli (GPa) = 6.57377 73.67081 45.18548
#
# Poissons Ratio (x) = 0.75097 0.90817
# Poissons Ratio (y) = 0.06701 0.46111
# Poissons Ratio (z) = 0.13212 0.75180
#
# Static dielectric constant tensor:
#      x y z
#    x 2.758570 0.000000 0.000000 
#    y 0.000000 3.611820 0.000000 
#    z 0.000000 0.000000 3.358240 
# 
# 
# High freq. dielectric constant tensor:
#      x y z
#    x 1.633100 0.000000 0.000000 
#    y 0.000000 1.705060 0.000000 
#    z 0.000000 0.000000 1.677930 
# 
# From -- ./inp_files/44546.got.cif
#   From: 2010.03.12/outbox.cif.g09.slc.cpg/sg64_23_cif.got.tgz:44546.got - 2010.04.10 20:19:32.
