data_PCOD8262203
_publ_section_title
;
Structure prediction by ZEFSAII (Michael W. Deem and Ramdas Pophale) SiO2 
 PCOD8262203
Probable space group: C M C A
;
_chemical_formula_sum "Si O2"
_cell_formula_units_Z 64
_cell_length_a 12.933928
_cell_length_b 13.113544
_cell_length_c 19.368958
_cell_angle_alpha 90.000000
_cell_angle_beta 90.000000
_cell_angle_gamma 90.000000
_cell_volume 3285.161876
_symmetry_space_group_name_H-M "C M C A"
_symmetry_group_IT_number 64
_symmetry_cell_setting 'orthorhombic'
loop_
_space_group_symop_operation_xyz
x,y,z
-x,1/2-y,1/2+z
x,-y,-z
-x,1/2+y,1/2-z
-x,-y,-z
x,1/2+y,1/2-z
-x,y,z
x,1/2-y,1/2+z
1/2+x,1/2+y,z
1/2-x,-y,1/2+z
1/2+x,1/2-y,-z
1/2-x,y,1/2-z
1/2-x,1/2-y,-z
1/2+x,y,1/2-z
1/2-x,1/2+y,z
1/2+x,-y,1/2+z
loop_
_atom_site_type_symbol
_atom_site_label
_atom_site_fract_x
_atom_site_fract_y
_atom_site_fract_z
Si Si1 0.788304 0.930903 0.324847
Si Si2 0.115279 0.357973 0.800988
Si Si3 0.618720 0.525222 0.077311
Si Si4 0.678219 0.286915 0.848210
O O1 0.750000 0.894290 0.250000
O O2 0.690429 0.962523 0.370654
O O3 0.848469 0.832758 0.357053
O O4 0.868908 0.022485 0.316858
O O5 0.196435 0.292808 0.845489
O O6 0.130581 0.339224 0.719830
O O7 0.000000 0.326387 0.823350
O O8 0.500000 0.493600 0.090088
O O9 0.633786 0.647380 0.088253
O O10 0.653699 0.500000 0.000000
#
# Coordination Sequence:
#
# PCOD8262203 Si02
#       4
#    16  16  16  16
#     4  11  20  36  55  85 114 144 186 235 287 328
#     4  10  19  32  51  80 112 140 176 226 279 327
#     4  10  22  40  60  82 114 154 192 231 278 340
#     4  10  20  35  53  81 114 144 183 231 281 330
#
# _framework density 19.481535999999998
#
# number of rings (size 3 to 8) (size 9 to 14) (size 15 to 20)
#    0.000    1.750    7.500    0.750    0.000    4.000 
#    0.000    0.000    0.000   12.000    0.000    0.000 
#    0.000    0.000    0.000    0.000    0.000    0.000 
#
# Total GULP energy -396724.458848 kJ/mol
# GULP energy per Si atom -12397.639339 kJ/mol
# Density = 1.943719 g / cm^3
# Si number density = 19.481536 Si / 1000 Ang^3
#
#
#
# Elastic Constant Matrix: (Units=GPa)
#
#
# Indices 1 2 3 4 5 6 
#
# 1 103.1475 11.2169 30.3633 0.0000 0.0000 0.0000
# 2 11.2169 122.7234 20.6339 0.0000 0.0000 0.0000
# 3 30.3633 20.6339 75.6842 0.0000 0.0000 0.0000
# 4 0.0000 0.0000 0.0000 10.4110 0.0000 0.0000
# 5 0.0000 0.0000 0.0000 0.0000 15.4860 0.0000
# 6 0.0000 0.0000 0.0000 0.0000 0.0000 8.8574
#
#
#
# Elastic Compliance Matrix: (Units=1/GPa)
#
#
# Indices 1 2 3 4 5 6 
#
# 1 0.011002 -0.000276 -0.004339 0.000000 0.000000 0.000000
# 2 -0.000276 0.008547 -0.002219 0.000000 0.000000 0.000000
# 3 -0.004339 -0.002219 0.015558 0.000000 0.000000 0.000000
# 4 0.000000 0.000000 0.000000 0.096052 0.000000 0.000000
# 5 0.000000 0.000000 0.000000 0.000000 0.064574 0.000000
# 6 0.000000 0.000000 0.000000 0.000000 0.000000 0.112900
#
#
# Mechanical properties :
#
#
# Convention : Reuss Voigt Hill
#
# Bulk Modulus (GPa) = 46.64358 47.33147 46.98752
# Shear Modulus (GPa) = 15.17691 22.90697 19.04194
#
# Velocity S-wave (km/s) = 2.79416 3.43276 3.12979
# Velocity P-wave (km/s) = 5.86551 6.32930 6.10181
#
# Compressibility (1/GPa) = 0.02143918
#
# Stress axis : x y z
#
# Youngs Moduli (GPa) = 90.89253 117.00304 64.27388
#
# Poissons Ratio (x) = 0.03231 0.27886
# Poissons Ratio (y) = 0.02510 0.14265
# Poissons Ratio (z) = 0.39434 0.25967
#
# Static dielectric constant tensor:
#      x y z
#    x 3.497140 0.000000 0.000000 
#    y 0.000000 3.647860 0.000000 
#    z 0.000000 0.000000 3.299770 
# 
# 
# High freq. dielectric constant tensor:
#      x y z
#    x 1.751140 0.000000 0.000000 
#    y 0.000000 1.768490 0.000000 
#    z 0.000000 0.000000 1.720820 
# 
# From -- ./inp_files/31784.got.cif
#   From: 2010.03.12/outbox.cif.g09.slc.cpg/sg64_16_cif.got.tgz:31784.got - 2010.04.10 20:19:32.
