data_PCOD8262729
_publ_section_title
;
Structure prediction by ZEFSAII (Michael W. Deem and Ramdas Pophale) SiO2 
 PCOD8262729
Probable space group: C M C A
;
_chemical_formula_sum "Si O2"
_cell_formula_units_Z 96
_cell_length_a 8.857621
_cell_length_b 24.937173
_cell_length_c 25.222019
_cell_angle_alpha 90.000000
_cell_angle_beta 90.000000
_cell_angle_gamma 90.000000
_cell_volume 5571.141132
_symmetry_space_group_name_H-M "C M C A"
_symmetry_group_IT_number 64
_symmetry_cell_setting 'orthorhombic'
loop_
_space_group_symop_operation_xyz
x,y,z
-x,1/2-y,1/2+z
x,-y,-z
-x,1/2+y,1/2-z
-x,-y,-z
x,1/2+y,1/2-z
-x,y,z
x,1/2-y,1/2+z
1/2+x,1/2+y,z
1/2-x,-y,1/2+z
1/2+x,1/2-y,-z
1/2-x,y,1/2-z
1/2-x,1/2-y,-z
1/2+x,y,1/2-z
1/2-x,1/2+y,z
1/2+x,-y,1/2+z
loop_
_atom_site_type_symbol
_atom_site_label
_atom_site_fract_x
_atom_site_fract_y
_atom_site_fract_z
Si Si1 0.179280 0.109683 0.308176
Si Si2 0.324401 0.307137 0.505568
Si Si3 0.828990 0.812412 0.388699
Si Si4 0.325335 0.613098 0.806511
Si Si5 0.675687 0.814022 0.609788
Si Si6 0.677241 0.004838 0.307232
O O1 0.250000 0.115603 0.250000
O O2 0.233203 0.159900 0.342300
O O3 0.000000 0.108888 0.304313
O O4 0.239783 0.054583 0.336615
O O5 0.500000 0.300815 0.519642
O O6 0.250000 0.250000 0.500000
O O7 0.303626 0.335842 0.448357
O O8 0.240243 0.337477 0.553875
O O9 0.720293 0.842388 0.348609
O O10 0.793991 0.749306 0.386925
O O11 0.000000 0.823137 0.370631
O O12 0.500000 0.618659 0.794867
O O13 0.250000 0.623264 0.750000
O O14 0.289915 0.554048 0.831842
O O15 0.500000 0.828430 0.613850
O O16 0.500000 0.017274 0.304055
O O17 0.750000 0.002870 0.250000
#
# Coordination Sequence:
#
# PCOD8262729 Si02
#       6
#    16  16  16  16  16  16
#     4  11  21  33  51  74  99 130 163 200 244 291
#     4   9  17  31  50  72  96 127 165 203 241 286
#     4   9  19  33  50  72 100 130 161 197 240 287
#     4  10  20  32  50  73  99 130 163 199 242 287
#     4  10  20  34  51  73 100 131 164 202 244 290
#     4   9  17  31  49  70  94 124 162 201 238 283
#
# _framework density 17.231656999999998
#
# number of rings (size 3 to 8) (size 9 to 14) (size 15 to 20)
#    0.000    2.333    0.000    5.500    0.000    6.667 
#    0.000    0.000    0.000    1.000    0.000    7.000 
#    0.000    0.000    0.000    0.000    0.000    0.000 
#
# Total GULP energy -594810.234227 kJ/mol
# GULP energy per Si atom -12391.879880 kJ/mol
# Density = 1.719244 g / cm^3
# Si number density = 17.231657 Si / 1000 Ang^3
#
#
#
# Elastic Constant Matrix: (Units=GPa)
#
#
# Indices 1 2 3 4 5 6 
#
# 1 118.8573 43.4768 51.5408 0.0000 0.0000 0.0000
# 2 43.4768 66.5619 44.7871 0.0000 0.0000 0.0000
# 3 51.5408 44.7871 93.8494 0.0000 0.0000 0.0000
# 4 0.0000 0.0000 0.0000 1.4278 0.0000 0.0000
# 5 0.0000 0.0000 0.0000 0.0000 32.5164 0.0000
# 6 0.0000 0.0000 0.0000 0.0000 0.0000 26.0948
#
#
#
# Elastic Compliance Matrix: (Units=1/GPa)
#
#
# Indices 1 2 3 4 5 6 
#
# 1 0.012097 -0.005054 -0.004232 0.000000 0.000000 0.000000
# 2 -0.005054 0.024241 -0.008793 0.000000 0.000000 0.000000
# 3 -0.004232 -0.008793 0.017175 0.000000 0.000000 0.000000
# 4 0.000000 0.000000 0.000000 0.700355 0.000000 0.000000
# 5 0.000000 0.000000 0.000000 0.000000 0.030754 0.000000
# 6 0.000000 0.000000 0.000000 0.000000 0.000000 0.038322
#
#
# Mechanical properties :
#
#
# Convention : Reuss Voigt Hill
#
# Bulk Modulus (GPa) = 57.61500 62.09757 59.85629
# Shear Modulus (GPa) = 5.78110 21.30542 13.54326
#
# Velocity S-wave (km/s) = 1.83363 3.52008 2.80653
# Velocity P-wave (km/s) = 6.16369 7.25510 6.73155
#
# Compressibility (1/GPa) = 0.01735659
#
# Stress axis : x y z
#
# Youngs Moduli (GPa) = 82.66338 41.25192 58.22289
#
# Poissons Ratio (x) = 0.20850 0.24638
# Poissons Ratio (y) = 0.41781 0.51194
# Poissons Ratio (z) = 0.34980 0.36272
#
# Static dielectric constant tensor:
#      x y z
#    x 3.481720 0.000000 0.000000 
#    y 0.000000 3.577130 0.000000 
#    z 0.000000 0.000000 3.295220 
# 
# 
# High freq. dielectric constant tensor:
#      x y z
#    x 1.685130 0.000000 0.000000 
#    y 0.000000 1.648370 0.000000 
#    z 0.000000 0.000000 1.648450 
# 
# From -- ./inp_files/37067.got.cif
#   From: 2010.03.12/outbox.cif.g09.slc.cpg/sg64_19_cif.got.tgz:37067.got - 2010.04.10 20:19:32.
