data_PCOD8262875
_publ_section_title
;
Structure prediction by ZEFSAII (Michael W. Deem and Ramdas Pophale) SiO2 
 PCOD8262875
Probable space group: C M C A
;
_chemical_formula_sum "Si O2"
_cell_formula_units_Z 96
_cell_length_a 16.683755
_cell_length_b 30.206884
_cell_length_c 9.713537
_cell_angle_alpha 90.000000
_cell_angle_beta 90.000000
_cell_angle_gamma 90.000000
_cell_volume 4895.275408
_symmetry_space_group_name_H-M "C M C A"
_symmetry_group_IT_number 64
_symmetry_cell_setting 'orthorhombic'
loop_
_space_group_symop_operation_xyz
x,y,z
-x,1/2-y,1/2+z
x,-y,-z
-x,1/2+y,1/2-z
-x,-y,-z
x,1/2+y,1/2-z
-x,y,z
x,1/2-y,1/2+z
1/2+x,1/2+y,z
1/2-x,-y,1/2+z
1/2+x,1/2-y,-z
1/2-x,y,1/2-z
1/2-x,1/2-y,-z
1/2+x,y,1/2-z
1/2-x,1/2+y,z
1/2+x,-y,1/2+z
loop_
_atom_site_type_symbol
_atom_site_label
_atom_site_fract_x
_atom_site_fract_y
_atom_site_fract_z
Si Si1 0.090473 0.284253 0.587376
Si Si2 0.337364 0.380616 0.196721
Si Si3 0.338181 0.721235 0.799195
Si Si4 0.405137 0.047524 0.175949
Si Si5 0.906065 0.384545 0.596110
Si Si6 0.408532 0.548200 0.626876
O O1 0.149871 0.270945 0.462290
O O2 0.100164 0.250893 0.713918
O O3 0.106377 0.333790 0.644491
O O4 0.000000 0.280867 0.530452
O O5 0.250000 0.395051 0.250000
O O6 0.355379 0.329930 0.233834
O O7 0.401382 0.409538 0.277757
O O8 0.350173 0.391482 0.037043
O O9 0.250000 0.735306 0.750000
O O10 0.500000 0.053559 0.186651
O O11 0.370427 0.081991 0.288730
O O12 0.375886 0.996613 0.202254
O O13 0.370784 0.058841 0.023369
O O14 0.000000 0.393518 0.561530
O O15 0.500000 0.537393 0.595858
#
# Coordination Sequence:
#
# PCOD8262875 Si02
#       6
#    16  16  16  16  16  16
#     4  10  20  34  54  80 106 133 175 227 264 302
#     4  10  21  35  50  73 105 138 173 211 252 305
#     4  10  21  37  54  73 104 143 174 209 266 327
#     4   8  16  32  53  77 103 131 168 211 257 309
#     4   9  18  34  54  77 105 134 167 212 261 307
#     4   9  17  32  54  76 100 133 171 212 255 304
#
# _framework density 19.610745999999999
#
# number of rings (size 3 to 8) (size 9 to 14) (size 15 to 20)
#    0.000    2.667    0.000    2.500    0.000    4.000 
#    0.000    8.333    0.000    0.000    0.000    0.000 
#    0.000    0.000    0.000    0.000    0.000    0.000 
#
# Total GULP energy -594892.413957 kJ/mol
# GULP energy per Si atom -12393.591957 kJ/mol
# Density = 1.956611 g / cm^3
# Si number density = 19.610746 Si / 1000 Ang^3
#
#
#
# Elastic Constant Matrix: (Units=GPa)
#
#
# Indices 1 2 3 4 5 6 
#
# 1 38.3977 30.4797 31.3553 0.0000 0.0000 0.0000
# 2 30.4797 108.3684 84.5688 0.0000 0.0000 0.0000
# 3 31.3553 84.5688 119.6326 0.0000 0.0000 0.0000
# 4 0.0000 0.0000 0.0000 46.9344 0.0000 0.0000
# 5 0.0000 0.0000 0.0000 0.0000 22.0916 0.0000
# 6 0.0000 0.0000 0.0000 0.0000 0.0000 15.4829
#
#
#
# Elastic Compliance Matrix: (Units=1/GPa)
#
#
# Indices 1 2 3 4 5 6 
#
# 1 0.034774 -0.005951 -0.004908 0.000000 0.000000 0.000000
# 2 -0.005951 0.021600 -0.013710 0.000000 0.000000 0.000000
# 3 -0.004908 -0.013710 0.019337 0.000000 0.000000 0.000000
# 4 0.000000 0.000000 0.000000 0.021306 0.000000 0.000000
# 5 0.000000 0.000000 0.000000 0.000000 0.045266 0.000000
# 6 0.000000 0.000000 0.000000 0.000000 0.000000 0.064587
#
#
# Mechanical properties :
#
#
# Convention : Reuss Voigt Hill
#
# Bulk Modulus (GPa) = 37.62914 62.13404 49.88159
# Shear Modulus (GPa) = 18.87752 24.90146 21.88949
#
# Velocity S-wave (km/s) = 3.10596 3.56727 3.34458
# Velocity P-wave (km/s) = 5.66501 6.97995 6.35657
#
# Compressibility (1/GPa) = 0.02657515
#
# Stress axis : x y z
#
# Youngs Moduli (GPa) = 28.75677 46.29579 51.71557
#
# Poissons Ratio (x) = 0.27550 0.25380
# Poissons Ratio (y) = 0.17113 0.70900
# Poissons Ratio (z) = 0.14113 0.63470
#
# Static dielectric constant tensor:
#      x y z
#    x 3.268630 0.000000 0.000000 
#    y 0.000000 3.628910 0.000000 
#    z 0.000000 0.000000 3.512300 
# 
# 
# High freq. dielectric constant tensor:
#      x y z
#    x 1.734580 0.000000 0.000000 
#    y 0.000000 1.771980 0.000000 
#    z 0.000000 0.000000 1.761230 
# 
# From -- ./inp_files/8369.got.cif
#   From: 2010.03.12/outbox.cif.g09.slc.cpg/sg64_5_cif.got.tgz:8369.got - 2010.04.10 20:19:32.
