data_PCOD8262878
_publ_section_title
;
Structure prediction by ZEFSAII (Michael W. Deem and Ramdas Pophale) SiO2 
 PCOD8262878
Probable space group: C M C A
;
_chemical_formula_sum "Si O2"
_cell_formula_units_Z 64
_cell_length_a 13.459802
_cell_length_b 22.361746
_cell_length_c 9.102047
_cell_angle_alpha 90.000000
_cell_angle_beta 90.000000
_cell_angle_gamma 90.000000
_cell_volume 2739.576645
_symmetry_space_group_name_H-M "C M C A"
_symmetry_group_IT_number 64
_symmetry_cell_setting 'orthorhombic'
loop_
_space_group_symop_operation_xyz
x,y,z
-x,1/2-y,1/2+z
x,-y,-z
-x,1/2+y,1/2-z
-x,-y,-z
x,1/2+y,1/2-z
-x,y,z
x,1/2-y,1/2+z
1/2+x,1/2+y,z
1/2-x,-y,1/2+z
1/2+x,1/2-y,-z
1/2-x,y,1/2-z
1/2-x,1/2-y,-z
1/2+x,y,1/2-z
1/2-x,1/2+y,z
1/2+x,-y,1/2+z
loop_
_atom_site_type_symbol
_atom_site_label
_atom_site_fract_x
_atom_site_fract_y
_atom_site_fract_z
Si Si1 0.887338 0.116662 0.308063
Si Si2 0.384502 0.765844 0.644911
Si Si3 0.708529 0.930222 0.524218
Si Si4 0.119100 0.830467 0.141573
O O1 0.865615 0.186402 0.275840
O O2 0.817946 0.094706 0.439684
O O3 0.866968 0.080255 0.158576
O O4 0.000000 0.105951 0.358458
O O5 0.500000 0.758554 0.615466
O O6 0.338350 0.788938 0.492344
O O7 0.344852 0.701567 0.706399
O O8 0.667138 0.896308 0.378401
O O9 0.715859 0.000000 0.500000
O O10 0.000000 0.836269 0.135742
#
# Coordination Sequence:
#
# PCOD8262878 Si02
#       4
#    16  16  16  16
#     4   9  19  36  55  75 106 143 176 224 282 325
#     4   8  15  30  52  78 106 139 178 218 271 326
#     4  10  20  34  54  80 107 142 187 222 263 330
#     4   9  17  31  53  81 112 142 178 228 275 323
#
# _framework density 23.361273000000001
#
# number of rings (size 3 to 8) (size 9 to 14) (size 15 to 20)
#    0.000    3.000    0.000    2.250    0.000    3.500 
#    0.000    5.000    0.000    3.000    0.000    0.000 
#    0.000    0.000    0.000    0.000    0.000    0.000 
#
# Total GULP energy -396594.608985 kJ/mol
# GULP energy per Si atom -12393.581531 kJ/mol
# Density = 2.330810 g / cm^3
# Si number density = 23.361273 Si / 1000 Ang^3
#
#
#
# Elastic Constant Matrix: (Units=GPa)
#
#
# Indices 1 2 3 4 5 6 
#
# 1 65.7157 19.6572 6.1654 0.0000 0.0000 0.0000
# 2 19.6572 82.4973 19.2687 0.0000 0.0000 0.0000
# 3 6.1654 19.2687 34.5849 0.0000 0.0000 0.0000
# 4 0.0000 0.0000 0.0000 -0.1603 0.0000 0.0000
# 5 0.0000 0.0000 0.0000 0.0000 14.8238 0.0000
# 6 0.0000 0.0000 0.0000 0.0000 0.0000 21.9871
#
#
#
# Elastic Compliance Matrix: (Units=1/GPa)
#
#
# Indices 1 2 3 4 5 6 
#
# 1 0.016407 -0.003709 -0.000858 0.000000 0.000000 0.000000
# 2 -0.003709 0.014773 -0.007570 0.000000 0.000000 0.000000
# 3 -0.000858 -0.007570 0.033285 0.000000 0.000000 0.000000
# 4 0.000000 0.000000 0.000000 -6.238254 0.000000 0.000000
# 5 0.000000 0.000000 0.000000 0.000000 0.067459 0.000000
# 6 0.000000 0.000000 0.000000 0.000000 0.000000 0.045481
#
#
# Mechanical properties :
#
#
# Convention : Reuss Voigt Hill
#
# Bulk Modulus (GPa) = 24.88115 30.33116 27.60616
# Shear Modulus (GPa) = -0.83013 16.51055 7.84021
#
# Velocity S-wave (km/s) = -0.59675 2.66136 1.83395
# Velocity P-wave (km/s) = 3.19357 4.73872 4.04069
#
# Compressibility (1/GPa) = 0.04019107
#
# Stress axis : x y z
#
# Youngs Moduli (GPa) = 60.94940 67.68926 30.04375
#
# Poissons Ratio (x) = 0.25105 0.02579
# Poissons Ratio (y) = 0.22606 0.22742
# Poissons Ratio (z) = 0.05232 0.51239
#
# Static dielectric constant tensor:
#      x y z
#    x 4.186200 0.000000 0.000000 
#    y 0.000000 4.191000 0.000000 
#    z 0.000000 0.000000 4.055930 
# 
# 
# High freq. dielectric constant tensor:
#      x y z
#    x 1.931240 0.000000 0.000000 
#    y 0.000000 1.905170 0.000000 
#    z 0.000000 0.000000 1.902430 
# 
# From -- ./inp_files/5574.got.cif
#   From: 2010.03.12/outbox.cif.g09.slc.cpg/sg64_3_cif.got.tgz:5574.got - 2010.04.10 20:19:32.
