data_PCOD8262323
_publ_section_title
;
Structure prediction by ZEFSAII (Michael W. Deem and Ramdas Pophale) SiO2 
 PCOD8262323
Probable space group: C M C A
;
_chemical_formula_sum "Si O2"
_cell_formula_units_Z 104
_cell_length_a 17.131055
_cell_length_b 21.249019
_cell_length_c 14.953860
_cell_angle_alpha 90.000000
_cell_angle_beta 90.000000
_cell_angle_gamma 90.000000
_cell_volume 5443.475902
_symmetry_space_group_name_H-M "C M C A"
_symmetry_group_IT_number 64
_symmetry_cell_setting 'orthorhombic'
loop_
_space_group_symop_operation_xyz
x,y,z
-x,1/2-y,1/2+z
x,-y,-z
-x,1/2+y,1/2-z
-x,-y,-z
x,1/2+y,1/2-z
-x,y,z
x,1/2-y,1/2+z
1/2+x,1/2+y,z
1/2-x,-y,1/2+z
1/2+x,1/2-y,-z
1/2-x,y,1/2-z
1/2-x,1/2-y,-z
1/2+x,y,1/2-z
1/2-x,1/2+y,z
1/2+x,-y,1/2+z
loop_
_atom_site_type_symbol
_atom_site_label
_atom_site_fract_x
_atom_site_fract_y
_atom_site_fract_z
Si Si1 0.911475 0.911126 0.575588
Si Si2 0.908694 0.682268 0.423338
Si Si3 0.408463 0.812172 0.779495
Si Si4 0.162338 0.816343 0.228402
Si Si5 0.362596 0.177607 0.926568
Si Si6 0.208599 0.500000 0.000000
Si Si7 0.798997 0.619288 0.558682
O O1 0.879910 0.867453 0.655700
O O2 0.912200 0.872552 0.482733
O O3 0.000000 0.935840 0.592579
O O4 0.849193 0.967720 0.572193
O O5 0.880745 0.673212 0.321199
O O6 0.889728 0.752961 0.454865
O O7 0.861376 0.631515 0.480998
O O8 0.000000 0.668237 0.435268
O O9 0.500000 0.806096 0.784156
O O10 0.375759 0.745770 0.814400
O O11 0.250000 0.797232 0.250000
O O12 0.119791 0.835908 0.321201
O O13 0.158754 0.872662 0.155448
O O14 0.270861 0.169965 0.948761
O O15 0.264000 0.450737 0.051198
#
# Coordination Sequence:
#
# PCOD8262323 Si02
#       7
#    16  16  16  16  16   8  16
#     4  10  19  35  55  76 103 136 170 213 262 304
#     4  10  19  33  54  82 109 134 165 208 261 319
#     4   9  19  33  53  82 109 129 160 206 264 322
#     4   9  18  32  52  77 108 137 164 204 258 317
#     4   9  18  32  53  82 109 131 163 210 264 321
#     4  10  23  38  53  72 100 140 186 222 243 288
#     4  10  20  36  52  73 105 143 179 213 253 295
#
# _framework density 19.105440000000002
#
# number of rings (size 3 to 8) (size 9 to 14) (size 15 to 20)
#    0.000    2.462    0.000    2.077    0.000    8.615 
#    0.000    8.077    0.000    0.000    0.000    0.000 
#    0.000    0.000    0.000    0.000    0.000    0.000 
#
# Total GULP energy -644722.974043 kJ/mol
# GULP energy per Si atom -12398.518732 kJ/mol
# Density = 1.906195 g / cm^3
# Si number density = 19.105440 Si / 1000 Ang^3
#
#
#
# Elastic Constant Matrix: (Units=GPa)
#
#
# Indices 1 2 3 4 5 6 
#
# 1 54.8510 45.1128 41.3592 0.0000 0.0000 0.0000
# 2 45.1128 115.0368 59.4834 0.0000 0.0000 0.0000
# 3 41.3592 59.4834 99.2108 0.0000 0.0000 0.0000
# 4 0.0000 0.0000 0.0000 12.3665 0.0000 0.0000
# 5 0.0000 0.0000 0.0000 0.0000 25.8643 0.0000
# 6 0.0000 0.0000 0.0000 0.0000 0.0000 25.6533
#
#
#
# Elastic Compliance Matrix: (Units=1/GPa)
#
#
# Indices 1 2 3 4 5 6 
#
# 1 0.030855 -0.007897 -0.008128 0.000000 0.000000 0.000000
# 2 -0.007897 0.014620 -0.005473 0.000000 0.000000 0.000000
# 3 -0.008128 -0.005473 0.016750 0.000000 0.000000 0.000000
# 4 0.000000 0.000000 0.000000 0.080863 0.000000 0.000000
# 5 0.000000 0.000000 0.000000 0.000000 0.038663 0.000000
# 6 0.000000 0.000000 0.000000 0.000000 0.000000 0.038981
#
#
# Mechanical properties :
#
#
# Convention : Reuss Voigt Hill
#
# Bulk Modulus (GPa) = 52.00915 62.33437 57.17176
# Shear Modulus (GPa) = 18.50893 20.98637 19.74765
#
# Velocity S-wave (km/s) = 3.11590 3.31788 3.21847
# Velocity P-wave (km/s) = 6.34242 6.88296 6.61821
#
# Compressibility (1/GPa) = 0.01922739
#
# Stress axis : x y z
#
# Youngs Moduli (GPa) = 32.40946 68.39892 59.70264
#
# Poissons Ratio (x) = 0.54017 0.48526
# Poissons Ratio (y) = 0.25595 0.32678
# Poissons Ratio (z) = 0.26342 0.37438
#
# Static dielectric constant tensor:
#      x y z
#    x 3.484460 0.000000 0.000000 
#    y 0.000000 3.312820 0.000000 
#    z 0.000000 0.000000 3.907590 
# 
# 
# High freq. dielectric constant tensor:
#      x y z
#    x 1.741880 0.000000 0.000000 
#    y 0.000000 1.713910 0.000000 
#    z 0.000000 0.000000 1.746800 
# 
# From -- ./inp_files/25621.got.cif
#   From: 2010.03.12/outbox.cif.g09.slc.cpg/sg64_13_cif.got.tgz:25621.got - 2010.04.10 20:19:32.
