data_PCOD8262633
_publ_section_title
;
Structure prediction by ZEFSAII (Michael W. Deem and Ramdas Pophale) SiO2 
 PCOD8262633
Probable space group: C M C A
;
_chemical_formula_sum "Si O2"
_cell_formula_units_Z 88
_cell_length_a 14.908279
_cell_length_b 20.443981
_cell_length_c 14.395412
_cell_angle_alpha 90.000000
_cell_angle_beta 90.000000
_cell_angle_gamma 90.000000
_cell_volume 4387.499494
_symmetry_space_group_name_H-M "C M C A"
_symmetry_group_IT_number 64
_symmetry_cell_setting 'orthorhombic'
loop_
_space_group_symop_operation_xyz
x,y,z
-x,1/2-y,1/2+z
x,-y,-z
-x,1/2+y,1/2-z
-x,-y,-z
x,1/2+y,1/2-z
-x,y,z
x,1/2-y,1/2+z
1/2+x,1/2+y,z
1/2-x,-y,1/2+z
1/2+x,1/2-y,-z
1/2-x,y,1/2-z
1/2-x,1/2-y,-z
1/2+x,y,1/2-z
1/2-x,1/2+y,z
1/2+x,-y,1/2+z
loop_
_atom_site_type_symbol
_atom_site_label
_atom_site_fract_x
_atom_site_fract_y
_atom_site_fract_z
Si Si1 0.600521 0.117268 0.674315
Si Si2 0.742938 0.861883 0.026577
Si Si3 0.677048 0.163075 0.326406
Si Si4 0.601155 0.202437 0.850902
Si Si5 0.836159 0.020351 0.187820
Si Si6 0.247167 0.500000 0.000000
O O1 0.500000 0.137022 0.642650
O O2 0.668826 0.132089 0.591154
O O3 0.630997 0.159850 0.762410
O O4 0.597206 0.040366 0.705221
O O5 0.670185 0.811324 0.065426
O O6 0.771796 0.839546 0.924880
O O7 0.692586 0.933781 0.025288
O O8 0.750000 0.181983 0.250000
O O9 0.603987 0.220527 0.327434
O O10 0.627725 0.094620 0.295552
O O11 0.500000 0.184658 0.881323
O O12 0.750000 0.006634 0.250000
O O13 0.812915 0.021903 0.080580
#
# Coordination Sequence:
#
# PCOD8262633 Si02
#       6
#    16  16  16  16  16   8
#     4  10  20  34  57  85 111 144 185 228 277 332
#     4  10  19  37  59  80 112 146 181 227 278 331
#     4  10  21  37  57  81 110 149 188 229 279 330
#     4  11  23  37  56  83 112 147 189 231 277 330
#     4   9  17  32  54  78 107 143 180 221 275 328
#     4   8  16  30  54  82 102 134 178 218 262 320
#
# _framework density 20.056982999999999
#
# number of rings (size 3 to 8) (size 9 to 14) (size 15 to 20)
#    0.000    2.182    0.000    4.364    0.000    1.455 
#    0.000   18.636    0.000    6.545    0.000    0.000 
#    0.000    0.000    0.000    0.000    0.000    0.000 
#
# Total GULP energy -545115.803751 kJ/mol
# GULP energy per Si atom -12388.995540 kJ/mol
# Density = 2.001133 g / cm^3
# Si number density = 20.056983 Si / 1000 Ang^3
#
#
#
# Elastic Constant Matrix: (Units=GPa)
#
#
# Indices 1 2 3 4 5 6 
#
# 1 74.8306 28.5744 40.9208 0.0000 0.0000 0.0000
# 2 28.5744 127.6461 26.1976 0.0000 0.0000 0.0000
# 3 40.9208 26.1976 105.4844 0.0000 0.0000 0.0000
# 4 0.0000 0.0000 0.0000 45.3240 0.0000 0.0000
# 5 0.0000 0.0000 0.0000 0.0000 5.8370 0.0000
# 6 0.0000 0.0000 0.0000 0.0000 0.0000 16.0804
#
#
#
# Elastic Compliance Matrix: (Units=1/GPa)
#
#
# Indices 1 2 3 4 5 6 
#
# 1 0.017807 -0.002706 -0.006236 0.000000 0.000000 0.000000
# 2 -0.002706 0.008666 -0.001102 0.000000 0.000000 0.000000
# 3 -0.006236 -0.001102 0.012173 0.000000 0.000000 0.000000
# 4 0.000000 0.000000 0.000000 0.022063 0.000000 0.000000
# 5 0.000000 0.000000 0.000000 0.000000 0.171320 0.000000
# 6 0.000000 0.000000 0.000000 0.000000 0.000000 0.062188
#
#
# Mechanical properties :
#
#
# Convention : Reuss Voigt Hill
#
# Bulk Modulus (GPa) = 53.88796 55.48295 54.68546
# Shear Modulus (GPa) = 15.60102 27.59950 21.60026
#
# Velocity S-wave (km/s) = 2.79200 3.71355 3.28524
# Velocity P-wave (km/s) = 6.10896 6.79043 6.45869
#
# Compressibility (1/GPa) = 0.01855702
#
# Stress axis : x y z
#
# Youngs Moduli (GPa) = 56.15783 115.39001 82.14958
#
# Poissons Ratio (x) = 0.31229 0.51226
# Poissons Ratio (y) = 0.15199 0.09056
# Poissons Ratio (z) = 0.35019 0.12721
#
# Static dielectric constant tensor:
#      x y z
#    x 3.163770 0.000000 0.000000 
#    y 0.000000 4.330900 0.000000 
#    z 0.000000 0.000000 3.690280 
# 
# 
# High freq. dielectric constant tensor:
#      x y z
#    x 1.733590 0.000000 0.000000 
#    y 0.000000 1.813160 0.000000 
#    z 0.000000 0.000000 1.787420 
# 
# From -- ./inp_files/23769.got.cif
#   From: 2010.03.12/outbox.cif.g09.slc.cpg/sg64_12_cif.got.tgz:23769.got - 2010.04.10 20:19:32.
