data_PCOD8262141
_publ_section_title
;
Structure prediction by ZEFSAII (Michael W. Deem and Ramdas Pophale) SiO2 
 PCOD8262141
Probable space group: C M C A
;
_chemical_formula_sum "Si O2"
_cell_formula_units_Z 88
_cell_length_a 25.442570
_cell_length_b 5.270608
_cell_length_c 27.152790
_cell_angle_alpha 90.000000
_cell_angle_beta 90.000000
_cell_angle_gamma 90.000000
_cell_volume 3641.129755
_symmetry_space_group_name_H-M "C M C A"
_symmetry_group_IT_number 64
_symmetry_cell_setting 'orthorhombic'
loop_
_space_group_symop_operation_xyz
x,y,z
-x,1/2-y,1/2+z
x,-y,-z
-x,1/2+y,1/2-z
-x,-y,-z
x,1/2+y,1/2-z
-x,y,z
x,1/2-y,1/2+z
1/2+x,1/2+y,z
1/2-x,-y,1/2+z
1/2+x,1/2-y,-z
1/2-x,y,1/2-z
1/2-x,1/2-y,-z
1/2+x,y,1/2-z
1/2-x,1/2+y,z
1/2+x,-y,1/2+z
loop_
_atom_site_type_symbol
_atom_site_label
_atom_site_fract_x
_atom_site_fract_y
_atom_site_fract_z
Si Si1 0.112587 0.657029 0.281811
Si Si2 0.558711 0.507525 0.058768
Si Si3 0.766777 0.397983 0.934908
Si Si4 0.500000 0.433237 0.780664
Si Si5 0.383969 0.508727 0.441394
Si Si6 0.777213 0.869325 0.827860
O O1 0.116369 0.440698 0.239948
O O2 0.055428 0.620009 0.309493
O O3 0.160242 0.622906 0.319753
O O4 0.500000 0.544097 0.079212
O O5 0.593420 0.742687 0.078399
O O6 0.580003 0.238321 0.078098
O O7 0.558736 0.500000 0.000000
O O8 0.743426 0.637442 0.965451
O O9 0.826741 0.439406 0.919475
O O10 0.731314 0.360009 0.886329
O O11 0.500000 0.227741 0.735872
O O12 0.379360 0.500000 0.500000
O O13 0.750402 0.618291 0.804014
#
# Coordination Sequence:
#
# PCOD8262141 Si02
#       6
#    16  16  16   8  16  16
#     4  10  19  32  53  81 112 137 172 219 259 318
#     4   9  17  30  49  77 108 134 168 219 277 331
#     4  10  21  36  51  72 101 146 182 219 267 322
#     4   8  16  30  48  76 108 136 163 204 263 306
#     4  10  19  31  51  78 105 138 180 224 270 323
#     4  10  21  35  51  76 104 146 178 214 268 313
#
# _framework density 24.168322
#
# number of rings (size 3 to 8) (size 9 to 14) (size 15 to 20)
#    0.000    2.364    0.000    2.727    0.000    5.091 
#    0.000    0.000    0.000    0.000   56.727    0.000 
#    0.000    0.000    0.000    0.091    0.000    0.000 
#
# Total GULP energy -545232.240742 kJ/mol
# GULP energy per Si atom -12391.641835 kJ/mol
# Density = 2.411331 g / cm^3
# Si number density = 24.168322 Si / 1000 Ang^3
#
#
#
# Elastic Constant Matrix: (Units=GPa)
#
#
# Indices 1 2 3 4 5 6 
#
# 1 201.0888 78.4705 14.2553 0.0000 0.0000 0.0000
# 2 78.4705 226.0703 9.1849 0.0000 0.0000 0.0000
# 3 14.2553 9.1849 18.9140 0.0000 0.0000 0.0000
# 4 0.0000 0.0000 0.0000 7.9569 0.0000 0.0000
# 5 0.0000 0.0000 0.0000 0.0000 29.4284 0.0000
# 6 0.0000 0.0000 0.0000 0.0000 0.0000 48.6192
#
#
#
# Elastic Compliance Matrix: (Units=1/GPa)
#
#
# Indices 1 2 3 4 5 6 
#
# 1 0.005979 -0.001930 -0.003569 0.000000 0.000000 0.000000
# 2 -0.001930 0.005136 -0.001039 0.000000 0.000000 0.000000
# 3 -0.003569 -0.001039 0.056065 0.000000 0.000000 0.000000
# 4 0.000000 0.000000 0.000000 0.125677 0.000000 0.000000
# 5 0.000000 0.000000 0.000000 0.000000 0.033981 0.000000
# 6 0.000000 0.000000 0.000000 0.000000 0.000000 0.020568
#
#
# Mechanical properties :
#
#
# Convention : Reuss Voigt Hill
#
# Bulk Modulus (GPa) = 18.48312 72.21049 45.34681
# Shear Modulus (GPa) = 17.95221 40.14508 29.04865
#
# Velocity S-wave (km/s) = 2.72839 4.08003 3.47065
# Velocity P-wave (km/s) = 4.19401 7.22071 5.90459
#
# Compressibility (1/GPa) = 0.05410341
#
# Stress axis : x y z
#
# Youngs Moduli (GPa) = 167.24512 194.71620 17.83628
#
# Poissons Ratio (x) = 0.37589 0.06366
# Poissons Ratio (y) = 0.32285 0.01853
# Poissons Ratio (z) = 0.59691 0.20231
#
# Static dielectric constant tensor:
#      x y z
#    x 4.672010 0.000000 0.000000 
#    y 0.000000 6.429510 0.000000 
#    z 0.000000 0.000000 3.498100 
# 
# 
# High freq. dielectric constant tensor:
#      x y z
#    x 1.976470 0.000000 0.000000 
#    y 0.000000 1.996890 0.000000 
#    z 0.000000 0.000000 1.896480 
# 
# From -- ./inp_files/47091.got.cif
#   From: 2010.03.12/outbox.cif.g09.slc.cpg/sg64_24_cif.got.tgz:47091.got - 2010.04.10 20:19:32.
