data_PCOD8262194
_publ_section_title
;
Structure prediction by ZEFSAII (Michael W. Deem and Ramdas Pophale) SiO2 
 PCOD8262194
Probable space group: C M C A
;
_chemical_formula_sum "Si O2"
_cell_formula_units_Z 80
_cell_length_a 17.062273
_cell_length_b 19.301690
_cell_length_c 14.299419
_cell_angle_alpha 90.000000
_cell_angle_beta 90.000000
_cell_angle_gamma 90.000000
_cell_volume 4709.237728
_symmetry_space_group_name_H-M "C M C A"
_symmetry_group_IT_number 64
_symmetry_cell_setting 'orthorhombic'
loop_
_space_group_symop_operation_xyz
x,y,z
-x,1/2-y,1/2+z
x,-y,-z
-x,1/2+y,1/2-z
-x,-y,-z
x,1/2+y,1/2-z
-x,y,z
x,1/2-y,1/2+z
1/2+x,1/2+y,z
1/2-x,-y,1/2+z
1/2+x,1/2-y,-z
1/2-x,y,1/2-z
1/2-x,1/2-y,-z
1/2+x,y,1/2-z
1/2-x,1/2+y,z
1/2+x,-y,1/2+z
loop_
_atom_site_type_symbol
_atom_site_label
_atom_site_fract_x
_atom_site_fract_y
_atom_site_fract_z
Si Si1 0.588737 0.859265 0.350468
Si Si2 0.805524 0.133469 0.161746
Si Si3 0.263614 0.327338 0.028936
Si Si4 0.327975 0.712852 0.690930
Si Si5 0.589500 0.012012 0.395527
O O1 0.500000 0.841960 0.383229
O O2 0.648771 0.833808 0.429317
O O3 0.603322 0.821788 0.251088
O O4 0.598993 0.941578 0.336269
O O5 0.750000 0.122835 0.250000
O O6 0.850400 0.208236 0.160995
O O7 0.867945 0.071917 0.162481
O O8 0.755575 0.126242 0.064591
O O9 0.194802 0.340176 0.105814
O O10 0.250000 0.250000 0.000000
O O11 0.250000 0.722506 0.750000
O O12 0.500000 0.035584 0.405628
O O13 0.624559 0.000000 0.500000
#
# Coordination Sequence:
#
# PCOD8262194 Si02
#       5
#    16  16  16  16  16
#     4  10  19  33  53  76 101 134 176 212 255 308
#     4  10  19  32  51  77 102 132 174 212 254 308
#     4   9  17  32  51  72 104 134 164 211 259 300
#     4   8  17  32  51  75 103 133 166 212 260 303
#     4  10  20  34  51  75 106 136 168 214 262 303
#
# _framework density 16.987887000000001
#
# number of rings (size 3 to 8) (size 9 to 14) (size 15 to 20)
#    0.000    2.600    2.000    1.200    0.000    3.200 
#    0.000    3.000    0.000    1.200    0.000    2.800 
#    0.000    0.000    0.000    0.000    0.000    0.000 
#
# Total GULP energy -495555.545785 kJ/mol
# GULP energy per Si atom -12388.888645 kJ/mol
# Density = 1.694922 g / cm^3
# Si number density = 16.987887 Si / 1000 Ang^3
#
#
#
# Elastic Constant Matrix: (Units=GPa)
#
#
# Indices 1 2 3 4 5 6 
#
# 1 78.3749 48.4121 47.2005 0.0000 0.0000 0.0000
# 2 48.4121 94.4251 40.5129 0.0000 0.0000 0.0000
# 3 47.2005 40.5129 114.7740 0.0000 0.0000 0.0000
# 4 0.0000 0.0000 0.0000 19.0271 0.0000 0.0000
# 5 0.0000 0.0000 0.0000 0.0000 23.5874 0.0000
# 6 0.0000 0.0000 0.0000 0.0000 0.0000 24.6037
#
#
#
# Elastic Compliance Matrix: (Units=1/GPa)
#
#
# Indices 1 2 3 4 5 6 
#
# 1 0.021560 -0.008544 -0.005851 0.000000 0.000000 0.000000
# 2 -0.008544 0.015866 -0.002087 0.000000 0.000000 0.000000
# 3 -0.005851 -0.002087 0.011856 0.000000 0.000000 0.000000
# 4 0.000000 0.000000 0.000000 0.052557 0.000000 0.000000
# 5 0.000000 0.000000 0.000000 0.000000 0.042395 0.000000
# 6 0.000000 0.000000 0.000000 0.000000 0.000000 0.040644
#
#
# Mechanical properties :
#
#
# Convention : Reuss Voigt Hill
#
# Bulk Modulus (GPa) = 61.27782 62.20279 61.74030
# Shear Modulus (GPa) = 22.39332 23.54020 22.96676
#
# Velocity S-wave (km/s) = 3.63463 3.72654 3.68088
# Velocity P-wave (km/s) = 7.33238 7.43045 7.38158
#
# Compressibility (1/GPa) = 0.01631912
#
# Stress axis : x y z
#
# Youngs Moduli (GPa) = 46.38170 63.02723 84.34876
#
# Poissons Ratio (x) = 0.53849 0.49351
# Poissons Ratio (y) = 0.39627 0.17602
# Poissons Ratio (z) = 0.27137 0.13153
#
# Static dielectric constant tensor:
#      x y z
#    x 3.017550 0.000000 0.000000 
#    y 0.000000 3.265830 0.000000 
#    z 0.000000 0.000000 3.284830 
# 
# 
# High freq. dielectric constant tensor:
#      x y z
#    x 1.625000 0.000000 0.000000 
#    y 0.000000 1.650070 0.000000 
#    z 0.000000 0.000000 1.661870 
# 
# From -- ./inp_files/23662.got.cif
#   From: 2010.03.12/outbox.cif.g09.slc.cpg/sg64_12_cif.got.tgz:23662.got - 2010.04.10 20:19:32.
