data_PCOD8262635
_publ_section_title
;
Structure prediction by ZEFSAII (Michael W. Deem and Ramdas Pophale) SiO2 
 PCOD8262635
Probable space group: C M C A
;
_chemical_formula_sum "Si O2"
_cell_formula_units_Z 80
_cell_length_a 17.102358
_cell_length_b 16.539298
_cell_length_c 14.152405
_cell_angle_alpha 90.000000
_cell_angle_beta 90.000000
_cell_angle_gamma 90.000000
_cell_volume 4003.163367
_symmetry_space_group_name_H-M "C M C A"
_symmetry_group_IT_number 64
_symmetry_cell_setting 'orthorhombic'
loop_
_space_group_symop_operation_xyz
x,y,z
-x,1/2-y,1/2+z
x,-y,-z
-x,1/2+y,1/2-z
-x,-y,-z
x,1/2+y,1/2-z
-x,y,z
x,1/2-y,1/2+z
1/2+x,1/2+y,z
1/2-x,-y,1/2+z
1/2+x,1/2-y,-z
1/2-x,y,1/2-z
1/2-x,1/2-y,-z
1/2+x,y,1/2-z
1/2-x,1/2+y,z
1/2+x,-y,1/2+z
loop_
_atom_site_type_symbol
_atom_site_label
_atom_site_fract_x
_atom_site_fract_y
_atom_site_fract_z
Si Si1 0.411275 0.431497 0.422309
Si Si2 0.814930 0.188869 0.465124
Si Si3 0.839296 0.455833 0.272478
Si Si4 0.592492 0.666553 0.917380
Si Si5 0.811640 0.572655 0.431505
O O1 0.402057 0.500000 0.500000
O O2 0.500000 0.400471 0.416195
O O3 0.357158 0.354611 0.446533
O O4 0.386479 0.470598 0.323140
O O5 0.750000 0.250000 0.500000
O O6 0.879133 0.240023 0.406648
O O7 0.767497 0.121844 0.404310
O O8 0.750000 0.435247 0.250000
O O9 0.875827 0.379919 0.326617
O O10 0.848082 0.536964 0.335525
O O11 0.500000 0.663021 0.920091
O O12 0.624474 0.627787 0.015068
O O13 0.784753 0.500000 0.500000
#
# Coordination Sequence:
#
# PCOD8262635 Si02
#       5
#    16  16  16  16  16
#     4  11  23  39  59  83 116 155 193 237 288 345
#     4  10  19  37  59  82 114 151 189 231 285 347
#     4  11  21  37  60  86 114 151 198 240 287 346
#     4  10  21  37  60  89 120 151 187 242 302 350
#     4   9  19  35  60  88 113 147 195 244 286 337
#
# _framework density 19.984195
#
# number of rings (size 3 to 8) (size 9 to 14) (size 15 to 20)
#    0.000    1.800    0.000    6.600    0.000    4.400 
#    0.000   13.000    0.000    4.800    0.000    0.000 
#    0.000    0.000    0.000    0.000    0.000    0.000 
#
# Total GULP energy -495918.376615 kJ/mol
# GULP energy per Si atom -12397.959415 kJ/mol
# Density = 1.993871 g / cm^3
# Si number density = 19.984195 Si / 1000 Ang^3
#
#
#
# Elastic Constant Matrix: (Units=GPa)
#
#
# Indices 1 2 3 4 5 6 
#
# 1 147.7536 54.3091 50.1582 0.0000 0.0000 0.0000
# 2 54.3091 102.7341 47.8502 0.0000 0.0000 0.0000
# 3 50.1582 47.8502 131.8345 0.0000 0.0000 0.0000
# 4 0.0000 0.0000 0.0000 20.5717 0.0000 0.0000
# 5 0.0000 0.0000 0.0000 0.0000 29.6689 0.0000
# 6 0.0000 0.0000 0.0000 0.0000 0.0000 28.9865
#
#
#
# Elastic Compliance Matrix: (Units=1/GPa)
#
#
# Indices 1 2 3 4 5 6 
#
# 1 0.008818 -0.003729 -0.002001 0.000000 0.000000 0.000000
# 2 -0.003729 0.013292 -0.003405 0.000000 0.000000 0.000000
# 3 -0.002001 -0.003405 0.009583 0.000000 0.000000 0.000000
# 4 0.000000 0.000000 0.000000 0.048610 0.000000 0.000000
# 5 0.000000 0.000000 0.000000 0.000000 0.033705 0.000000
# 6 0.000000 0.000000 0.000000 0.000000 0.000000 0.034499
#
#
# Mechanical properties :
#
#
# Convention : Reuss Voigt Hill
#
# Bulk Modulus (GPa) = 74.51506 76.32860 75.42183
# Shear Modulus (GPa) = 29.19661 31.17907 30.18784
#
# Velocity S-wave (km/s) = 3.82643 3.95420 3.89084
# Velocity P-wave (km/s) = 7.54255 7.68928 7.61627
#
# Compressibility (1/GPa) = 0.01342011
#
# Stress axis : x y z
#
# Youngs Moduli (GPa) = 113.40094 75.23605 104.35469
#
# Poissons Ratio (x) = 0.28059 0.20885
# Poissons Ratio (y) = 0.42293 0.35536
# Poissons Ratio (z) = 0.22696 0.25620
#
# Static dielectric constant tensor:
#      x y z
#    x 3.858340 0.000000 0.000000 
#    y 0.000000 4.130430 0.000000 
#    z 0.000000 0.000000 4.672690 
# 
# 
# High freq. dielectric constant tensor:
#      x y z
#    x 1.793350 0.000000 0.000000 
#    y 0.000000 1.785060 0.000000 
#    z 0.000000 0.000000 1.758120 
# 
# From -- ./inp_files/25289.got.cif
#   From: 2010.03.12/outbox.cif.g09.slc.cpg/sg64_13_cif.got.tgz:25289.got - 2010.04.10 20:19:32.
