data_PCOD8262111
_publ_section_title
;
Structure prediction by ZEFSAII (Michael W. Deem and Ramdas Pophale) SiO2 
 PCOD8262111
Probable space group: C M C A
;
_chemical_formula_sum "Si O2"
_cell_formula_units_Z 96
_cell_length_a 22.544370
_cell_length_b 25.660102
_cell_length_c 9.509036
_cell_angle_alpha 90.000000
_cell_angle_beta 90.000000
_cell_angle_gamma 90.000000
_cell_volume 5500.890164
_symmetry_space_group_name_H-M "C M C A"
_symmetry_group_IT_number 64
_symmetry_cell_setting 'orthorhombic'
loop_
_space_group_symop_operation_xyz
x,y,z
-x,1/2-y,1/2+z
x,-y,-z
-x,1/2+y,1/2-z
-x,-y,-z
x,1/2+y,1/2-z
-x,y,z
x,1/2-y,1/2+z
1/2+x,1/2+y,z
1/2-x,-y,1/2+z
1/2+x,1/2-y,-z
1/2-x,y,1/2-z
1/2-x,1/2-y,-z
1/2+x,y,1/2-z
1/2-x,1/2+y,z
1/2+x,-y,1/2+z
loop_
_atom_site_type_symbol
_atom_site_label
_atom_site_fract_x
_atom_site_fract_y
_atom_site_fract_z
Si Si1 0.364695 0.168028 0.501860
Si Si2 0.569809 0.057670 0.999552
Si Si3 0.885631 0.209015 0.510322
Si Si4 0.069556 0.640325 0.228981
Si Si5 0.567482 0.638320 0.727333
Si Si6 0.757487 0.302857 0.082838
O O1 0.380245 0.229068 0.493566
O O2 0.389116 0.138724 0.365633
O O3 0.394481 0.140816 0.633576
O O4 0.293836 0.159139 0.521744
O O5 0.500000 0.053125 0.981489
O O6 0.593390 0.090888 0.867102
O O7 0.584238 0.087480 0.144520
O O8 0.598990 0.000000 0.000000
O O9 0.912171 0.190754 0.361992
O O10 0.929373 0.191728 0.636034
O O11 0.823660 0.178493 0.544794
O O12 0.000000 0.644184 0.268805
O O13 0.500000 0.628894 0.772018
O O14 0.750000 0.294331 0.250000
O O15 0.750000 0.250000 0.000000
#
# Coordination Sequence:
#
# PCOD8262111 Si02
#       6
#    16  16  16  16  16  16
#     4  11  21  31  48  73 110 136 165 213 251 288
#     4   8  16  34  55  71  95 132 171 210 253 308
#     4  10  20  33  49  69 104 145 176 202 238 292
#     4  10  21  33  49  78 105 133 173 205 250 319
#     4  10  19  31  49  75 101 133 170 203 253 310
#     4  10  21  34  50  70  98 140 186 217 237 278
#
# _framework density 17.451720000000002
#
# number of rings (size 3 to 8) (size 9 to 14) (size 15 to 20)
#    0.000    2.167    1.667    3.000    7.000    4.000 
#    0.000    0.833    0.000    4.000    0.000   18.667 
#    0.000    0.000    0.000    0.000    0.000    0.000 
#
# Total GULP energy -594905.381091 kJ/mol
# GULP energy per Si atom -12393.862106 kJ/mol
# Density = 1.741200 g / cm^3
# Si number density = 17.451720 Si / 1000 Ang^3
#
#
#
# Elastic Constant Matrix: (Units=GPa)
#
#
# Indices 1 2 3 4 5 6 
#
# 1 89.9067 23.2501 44.1789 0.0000 0.0000 0.0000
# 2 23.2501 85.6946 33.0664 0.0000 0.0000 0.0000
# 3 44.1789 33.0664 130.4774 0.0000 0.0000 0.0000
# 4 0.0000 0.0000 0.0000 5.9645 0.0000 0.0000
# 5 0.0000 0.0000 0.0000 0.0000 30.3627 0.0000
# 6 0.0000 0.0000 0.0000 0.0000 0.0000 9.3859
#
#
#
# Elastic Compliance Matrix: (Units=1/GPa)
#
#
# Indices 1 2 3 4 5 6 
#
# 1 0.013686 -0.002134 -0.004093 0.000000 0.000000 0.000000
# 2 -0.002134 0.013267 -0.002640 0.000000 0.000000 0.000000
# 3 -0.004093 -0.002640 0.009719 0.000000 0.000000 0.000000
# 4 0.000000 0.000000 0.000000 0.167658 0.000000 0.000000
# 5 0.000000 0.000000 0.000000 0.000000 0.032935 0.000000
# 6 0.000000 0.000000 0.000000 0.000000 0.000000 0.106543
#
#
# Mechanical properties :
#
#
# Convention : Reuss Voigt Hill
#
# Bulk Modulus (GPa) = 52.80264 56.34105 54.57185
# Shear Modulus (GPa) = 13.59237 22.84817 18.22027
#
# Velocity S-wave (km/s) = 2.79383 3.62224 3.23466
# Velocity P-wave (km/s) = 6.38196 7.06033 6.72970
#
# Compressibility (1/GPa) = 0.01893845
#
# Stress axis : x y z
#
# Youngs Moduli (GPa) = 73.06868 75.37600 102.89062
#
# Poissons Ratio (x) = 0.16083 0.42115
# Poissons Ratio (y) = 0.15591 0.27160
# Poissons Ratio (z) = 0.29908 0.19897
#
# Static dielectric constant tensor:
#      x y z
#    x 4.118170 0.000000 0.000000 
#    y 0.000000 3.121580 0.000000 
#    z 0.000000 0.000000 3.391690 
# 
# 
# High freq. dielectric constant tensor:
#      x y z
#    x 1.673180 0.000000 0.000000 
#    y 0.000000 1.632630 0.000000 
#    z 0.000000 0.000000 1.685080 
# 
# From -- ./inp_files/9500.got.cif
#   From: 2010.03.12/outbox.cif.g09.slc.cpg/sg64_5_cif.got.tgz:9500.got - 2010.04.10 20:19:32.
