data_PCOD8262846
_publ_section_title
;
Structure prediction by ZEFSAII (Michael W. Deem and Ramdas Pophale) SiO2 
 PCOD8262846
Probable space group: C M C A
;
_chemical_formula_sum "Si O2"
_cell_formula_units_Z 96
_cell_length_a 9.402604
_cell_length_b 18.100410
_cell_length_c 30.869021
_cell_angle_alpha 90.000000
_cell_angle_beta 90.000000
_cell_angle_gamma 90.000000
_cell_volume 5253.629166
_symmetry_space_group_name_H-M "C M C A"
_symmetry_group_IT_number 64
_symmetry_cell_setting 'orthorhombic'
loop_
_space_group_symop_operation_xyz
x,y,z
-x,1/2-y,1/2+z
x,-y,-z
-x,1/2+y,1/2-z
-x,-y,-z
x,1/2+y,1/2-z
-x,y,z
x,1/2-y,1/2+z
1/2+x,1/2+y,z
1/2-x,-y,1/2+z
1/2+x,1/2-y,-z
1/2-x,y,1/2-z
1/2-x,1/2-y,-z
1/2+x,y,1/2-z
1/2-x,1/2+y,z
1/2+x,-y,1/2+z
loop_
_atom_site_type_symbol
_atom_site_label
_atom_site_fract_x
_atom_site_fract_y
_atom_site_fract_z
Si Si1 0.168412 0.548907 0.623636
Si Si2 0.331043 0.457099 0.958259
Si Si3 0.333752 0.710084 0.037810
Si Si4 0.165494 0.790848 0.791922
Si Si5 0.334448 0.460688 0.791739
Si Si6 0.334755 0.300239 0.376006
O O1 0.224836 0.497781 0.584659
O O2 0.214777 0.509930 0.668007
O O3 0.241526 0.627382 0.619644
O O4 0.000000 0.560180 0.621012
O O5 0.500000 0.457294 0.958438
O O6 0.275372 0.373345 0.958816
O O7 0.270101 0.500000 0.000000
O O8 0.500000 0.711758 0.026240
O O9 0.302139 0.748503 0.083318
O O10 0.250000 0.750000 0.000000
O O11 0.250000 0.762009 0.750000
O O12 0.212955 0.743184 0.833056
O O13 0.000000 0.781250 0.781908
O O14 0.203336 0.875825 0.802166
O O15 0.500000 0.470481 0.782034
O O16 0.250000 0.489545 0.750000
O O17 0.500000 0.321978 0.373919
#
# Coordination Sequence:
#
# PCOD8262846 Si02
#       6
#    16  16  16  16  16  16
#     4  10  20  34  53  76 101 132 172 211 246 295
#     4   9  17  31  53  77  99 127 165 206 245 289
#     4  10  20  35  55  78 104 134 168 207 253 302
#     4   9  18  34  54  75 101 134 172 212 255 303
#     4   9  18  33  53  75  99 130 169 211 252 296
#     4  10  21  35  51  74 106 138 166 205 257 304
#
# _framework density 18.273081999999999
#
# number of rings (size 3 to 8) (size 9 to 14) (size 15 to 20)
#    0.000    2.500    0.000    2.000    0.000    8.000 
#    0.000    4.167    0.000    7.000    0.000    0.000 
#    0.000    0.000    0.000    0.000    0.000    0.000 
#
# Total GULP energy -595318.579553 kJ/mol
# GULP energy per Si atom -12402.470407 kJ/mol
# Density = 1.823149 g / cm^3
# Si number density = 18.273082 Si / 1000 Ang^3
#
#
#
# Elastic Constant Matrix: (Units=GPa)
#
#
# Indices 1 2 3 4 5 6 
#
# 1 37.1437 46.7680 52.5159 0.0000 0.0000 0.0000
# 2 46.7680 153.3965 95.1986 0.0000 0.0000 0.0000
# 3 52.5159 95.1986 173.7813 0.0000 0.0000 0.0000
# 4 0.0000 0.0000 0.0000 38.8363 0.0000 0.0000
# 5 0.0000 0.0000 0.0000 0.0000 28.6892 0.0000
# 6 0.0000 0.0000 0.0000 0.0000 0.0000 31.2380
#
#
#
# Elastic Compliance Matrix: (Units=1/GPa)
#
#
# Indices 1 2 3 4 5 6 
#
# 1 0.055329 -0.009836 -0.011332 0.000000 0.000000 0.000000
# 2 -0.009836 0.011626 -0.003396 0.000000 0.000000 0.000000
# 3 -0.011332 -0.003396 0.011039 0.000000 0.000000 0.000000
# 4 0.000000 0.000000 0.000000 0.025749 0.000000 0.000000
# 5 0.000000 0.000000 0.000000 0.000000 0.034856 0.000000
# 6 0.000000 0.000000 0.000000 0.000000 0.000000 0.032012
#
#
# Mechanical properties :
#
#
# Convention : Reuss Voigt Hill
#
# Bulk Modulus (GPa) = 34.64359 83.69850 59.17105
# Shear Modulus (GPa) = 21.79964 31.07529 26.43747
#
# Velocity S-wave (km/s) = 3.45772 4.12831 3.80781
# Velocity P-wave (km/s) = 5.91110 8.28418 7.19614
#
# Compressibility (1/GPa) = 0.02886537
#
# Stress axis : x y z
#
# Youngs Moduli (GPa) = 18.07374 86.01684 90.58658
#
# Poissons Ratio (x) = 0.84609 1.02650
# Poissons Ratio (y) = 0.17778 0.30764
# Poissons Ratio (z) = 0.20481 0.29212
#
# Static dielectric constant tensor:
#      x y z
#    x 3.063940 0.000000 0.000000 
#    y 0.000000 3.463760 0.000000 
#    z 0.000000 0.000000 2.970750 
# 
# 
# High freq. dielectric constant tensor:
#      x y z
#    x 1.681020 0.000000 0.000000 
#    y 0.000000 1.716070 0.000000 
#    z 0.000000 0.000000 1.725590 
# 
# From -- ./inp_files/49300.got.cif
#   From: 2010.03.12/outbox.cif.g09.slc.cpg/sg64_25_cif.got.tgz:49300.got - 2010.04.10 20:19:32.
