data_PCOD8262535
_publ_section_title
;
Structure prediction by ZEFSAII (Michael W. Deem and Ramdas Pophale) SiO2 
 PCOD8262535
Probable space group: C M C A
;
_chemical_formula_sum "Si O2"
_cell_formula_units_Z 96
_cell_length_a 8.758803
_cell_length_b 19.745694
_cell_length_c 27.948625
_cell_angle_alpha 90.000000
_cell_angle_beta 90.000000
_cell_angle_gamma 90.000000
_cell_volume 4833.676791
_symmetry_space_group_name_H-M "C M C A"
_symmetry_group_IT_number 64
_symmetry_cell_setting 'orthorhombic'
loop_
_space_group_symop_operation_xyz
x,y,z
-x,1/2-y,1/2+z
x,-y,-z
-x,1/2+y,1/2-z
-x,-y,-z
x,1/2+y,1/2-z
-x,y,z
x,1/2-y,1/2+z
1/2+x,1/2+y,z
1/2-x,-y,1/2+z
1/2+x,1/2-y,-z
1/2-x,y,1/2-z
1/2-x,1/2-y,-z
1/2+x,y,1/2-z
1/2-x,1/2+y,z
1/2+x,-y,1/2+z
loop_
_atom_site_type_symbol
_atom_site_label
_atom_site_fract_x
_atom_site_fract_y
_atom_site_fract_z
Si Si1 0.324759 0.475941 0.051855
Si Si2 0.319155 0.077022 0.200686
Si Si3 0.180234 0.266777 0.948865
Si Si4 0.320356 0.421974 0.298616
Si Si5 0.176264 0.113274 0.105408
Si Si6 0.820533 0.644821 0.896076
O O1 0.500000 0.450888 0.050112
O O2 0.303115 0.536040 0.089435
O O3 0.217819 0.413826 0.066193
O O4 0.270331 0.500000 0.000000
O O5 0.500000 0.084871 0.200963
O O6 0.250000 0.105850 0.250000
O O7 0.249876 0.121446 0.157763
O O8 0.265889 0.999247 0.194077
O O9 0.236689 0.340226 0.932562
O O10 0.232105 0.212843 0.909200
O O11 0.000000 0.266710 0.953716
O O12 0.250000 0.250000 0.000000
O O13 0.500000 0.419202 0.293977
O O14 0.250000 0.391399 0.250000
O O15 0.263891 0.377514 0.343403
O O16 0.000000 0.135026 0.107113
O O17 0.000000 0.658806 0.897502
#
# Coordination Sequence:
#
# PCOD8262535 Si02
#       6
#    16  16  16  16  16  16
#     4  10  21  36  57  86 118 152 196 249 300 355
#     4  10  19  35  58  89 124 160 201 248 304 359
#     4  12  26  44  64  87 119 162 205 250 304 365
#     4   9  19  34  57  88 122 157 196 242 296 354
#     4  11  22  38  61  90 123 160 202 250 303 361
#     4  11  22  39  61  89 121 157 200 248 300 359
#
# _framework density 19.860657
#
# number of rings (size 3 to 8) (size 9 to 14) (size 15 to 20)
#    0.000    1.500    1.667    4.000    0.000    4.333 
#    0.000    0.833    0.000    2.000    0.000    0.000 
#    0.000    0.000    0.000    0.000    0.000    0.000 
#
# Total GULP energy -595468.736787 kJ/mol
# GULP energy per Si atom -12405.598683 kJ/mol
# Density = 1.981545 g / cm^3
# Si number density = 19.860657 Si / 1000 Ang^3
#
#
#
# Elastic Constant Matrix: (Units=GPa)
#
#
# Indices 1 2 3 4 5 6 
#
# 1 99.5868 20.3533 33.5408 0.0000 0.0000 0.0000
# 2 20.3533 41.0071 3.6493 0.0000 0.0000 0.0000
# 3 33.5408 3.6493 119.8564 0.0000 0.0000 0.0000
# 4 0.0000 0.0000 0.0000 32.6205 0.0000 0.0000
# 5 0.0000 0.0000 0.0000 0.0000 37.8482 0.0000
# 6 0.0000 0.0000 0.0000 0.0000 0.0000 31.7193
#
#
#
# Elastic Compliance Matrix: (Units=1/GPa)
#
#
# Indices 1 2 3 4 5 6 
#
# 1 0.012336 -0.005831 -0.003275 0.000000 0.000000 0.000000
# 2 -0.005831 0.027209 0.000803 0.000000 0.000000 0.000000
# 3 -0.003275 0.000803 0.009235 0.000000 0.000000 0.000000
# 4 0.000000 0.000000 0.000000 0.030656 0.000000 0.000000
# 5 0.000000 0.000000 0.000000 0.000000 0.026421 0.000000
# 6 0.000000 0.000000 0.000000 0.000000 0.000000 0.031527
#
#
# Mechanical properties :
#
#
# Convention : Reuss Voigt Hill
#
# Bulk Modulus (GPa) = 31.08001 41.72635 36.40318
# Shear Modulus (GPa) = 30.35563 33.96473 32.16018
#
# Velocity S-wave (km/s) = 3.91376 4.13988 4.02841
# Velocity P-wave (km/s) = 6.00885 6.62621 6.32507
#
# Compressibility (1/GPa) = 0.03217502
#
# Stress axis : x y z
#
# Youngs Moduli (GPa) = 81.06220 36.75267 108.28102
#
# Poissons Ratio (x) = 0.21432 0.35458
# Poissons Ratio (y) = 0.47271 -0.08700
# Poissons Ratio (z) = 0.26545 -0.02953
#
# Static dielectric constant tensor:
#      x y z
#    x 3.583170 0.000000 0.000000 
#    y 0.000000 3.471270 0.000000 
#    z 0.000000 0.000000 3.724540 
# 
# 
# High freq. dielectric constant tensor:
#      x y z
#    x 1.779420 0.000000 0.000000 
#    y 0.000000 1.753850 0.000000 
#    z 0.000000 0.000000 1.791120 
# 
# From -- ./inp_files/48089.got.cif
#   From: 2010.03.12/outbox.cif.g09.slc.cpg/sg64_25_cif.got.tgz:48089.got - 2010.04.10 20:19:32.
