data_PCOD8262582
_publ_section_title
;
Structure prediction by ZEFSAII (Michael W. Deem and Ramdas Pophale) SiO2 
 PCOD8262582
Probable space group: C M C A
;
_chemical_formula_sum "Si O2"
_cell_formula_units_Z 80
_cell_length_a 13.097886
_cell_length_b 18.021269
_cell_length_c 18.381401
_cell_angle_alpha 90.000000
_cell_angle_beta 90.000000
_cell_angle_gamma 90.000000
_cell_volume 4338.755578
_symmetry_space_group_name_H-M "C M C A"
_symmetry_group_IT_number 64
_symmetry_cell_setting 'orthorhombic'
loop_
_space_group_symop_operation_xyz
x,y,z
-x,1/2-y,1/2+z
x,-y,-z
-x,1/2+y,1/2-z
-x,-y,-z
x,1/2+y,1/2-z
-x,y,z
x,1/2-y,1/2+z
1/2+x,1/2+y,z
1/2-x,-y,1/2+z
1/2+x,1/2-y,-z
1/2-x,y,1/2-z
1/2-x,1/2-y,-z
1/2+x,y,1/2-z
1/2-x,1/2+y,z
1/2+x,-y,1/2+z
loop_
_atom_site_type_symbol
_atom_site_label
_atom_site_fract_x
_atom_site_fract_y
_atom_site_fract_z
Si Si1 0.119821 0.338288 0.093138
Si Si2 0.881465 0.371834 0.930799
Si Si3 0.317100 0.493025 0.352678
Si Si4 0.719904 0.298940 0.828986
Si Si5 0.883828 0.951669 0.802510
O O1 0.151467 0.407999 0.142368
O O2 0.169771 0.265069 0.124236
O O3 0.000000 0.328569 0.096402
O O4 0.157897 0.350131 0.010841
O O5 0.860351 0.459949 0.920759
O O6 0.820890 0.325607 0.870517
O O7 0.000000 0.353019 0.921228
O O8 0.193422 0.497346 0.349483
O O9 0.366673 0.531567 0.282138
O O10 0.750000 0.267211 0.750000
O O11 0.639962 0.365792 0.818669
O O12 0.000000 0.969565 0.825275
#
# Coordination Sequence:
#
# PCOD8262582 Si02
#       5
#    16  16  16  16  16
#     4  11  23  36  57  85 116 147 187 240 287 331
#     4  10  20  38  60  83 111 151 192 233 282 337
#     4  10  20  35  57  86 110 144 189 235 277 332
#     4  11  22  37  57  84 113 149 190 231 282 338
#     4  10  19  36  58  80 112 149 186 226 279 339
#
# _framework density 18.438465999999998
#
# number of rings (size 3 to 8) (size 9 to 14) (size 15 to 20)
#    0.000    1.600    4.000    3.600    2.800    2.400 
#    0.000    1.000    0.000   10.800    0.000    0.000 
#    0.000    0.000    0.000    0.000    0.000    0.000 
#
# Total GULP energy -496042.903017 kJ/mol
# GULP energy per Si atom -12401.072575 kJ/mol
# Density = 1.839650 g / cm^3
# Si number density = 18.438466 Si / 1000 Ang^3
#
#
#
# Elastic Constant Matrix: (Units=GPa)
#
#
# Indices 1 2 3 4 5 6 
#
# 1 96.2508 19.5427 24.4132 0.0000 0.0000 0.0000
# 2 19.5427 89.1461 26.9787 0.0000 0.0000 0.0000
# 3 24.4132 26.9787 72.6298 0.0000 0.0000 0.0000
# 4 0.0000 0.0000 0.0000 21.5547 0.0000 0.0000
# 5 0.0000 0.0000 0.0000 0.0000 23.0135 0.0000
# 6 0.0000 0.0000 0.0000 0.0000 0.0000 16.7695
#
#
#
# Elastic Compliance Matrix: (Units=1/GPa)
#
#
# Indices 1 2 3 4 5 6 
#
# 1 0.011540 -0.001528 -0.003311 0.000000 0.000000 0.000000
# 2 -0.001528 0.012840 -0.004256 0.000000 0.000000 0.000000
# 3 -0.003311 -0.004256 0.016463 0.000000 0.000000 0.000000
# 4 0.000000 0.000000 0.000000 0.046394 0.000000 0.000000
# 5 0.000000 0.000000 0.000000 0.000000 0.043453 0.000000
# 6 0.000000 0.000000 0.000000 0.000000 0.000000 0.059632
#
#
# Mechanical properties :
#
#
# Convention : Reuss Voigt Hill
#
# Bulk Modulus (GPa) = 44.14573 44.43287 44.28930
# Shear Modulus (GPa) = 23.14149 24.74035 23.94092
#
# Velocity S-wave (km/s) = 3.54653 3.66700 3.60727
# Velocity P-wave (km/s) = 6.38472 6.48687 6.43600
#
# Compressibility (1/GPa) = 0.02265225
#
# Stress axis : x y z
#
# Youngs Moduli (GPa) = 86.65819 77.87865 60.74410
#
# Poissons Ratio (x) = 0.11897 0.20115
# Poissons Ratio (y) = 0.13238 0.25854
# Poissons Ratio (z) = 0.28696 0.33147
#
# Static dielectric constant tensor:
#      x y z
#    x 3.484640 0.000000 0.000000 
#    y 0.000000 3.329100 0.000000 
#    z 0.000000 0.000000 3.498570 
# 
# 
# High freq. dielectric constant tensor:
#      x y z
#    x 1.718710 0.000000 0.000000 
#    y 0.000000 1.708720 0.000000 
#    z 0.000000 0.000000 1.717220 
# 
# From -- ./inp_files/32017.got.cif
#   From: 2010.03.12/outbox.cif.g09.slc.cpg/sg64_17_cif.got.tgz:32017.got - 2010.04.10 20:19:32.
