data_PCOD8262497
_publ_section_title
;
Structure prediction by ZEFSAII (Michael W. Deem and Ramdas Pophale) SiO2 
 PCOD8262497
Probable space group: C M C A
;
_chemical_formula_sum "Si O2"
_cell_formula_units_Z 96
_cell_length_a 9.107748
_cell_length_b 30.191977
_cell_length_c 20.317612
_cell_angle_alpha 90.000000
_cell_angle_beta 90.000000
_cell_angle_gamma 90.000000
_cell_volume 5586.955602
_symmetry_space_group_name_H-M "C M C A"
_symmetry_group_IT_number 64
_symmetry_cell_setting 'orthorhombic'
loop_
_space_group_symop_operation_xyz
x,y,z
-x,1/2-y,1/2+z
x,-y,-z
-x,1/2+y,1/2-z
-x,-y,-z
x,1/2+y,1/2-z
-x,y,z
x,1/2-y,1/2+z
1/2+x,1/2+y,z
1/2-x,-y,1/2+z
1/2+x,1/2-y,-z
1/2-x,y,1/2-z
1/2-x,1/2-y,-z
1/2+x,y,1/2-z
1/2-x,1/2+y,z
1/2+x,-y,1/2+z
loop_
_atom_site_type_symbol
_atom_site_label
_atom_site_fract_x
_atom_site_fract_y
_atom_site_fract_z
Si Si1 0.329535 0.541362 0.182909
Si Si2 0.327759 0.876196 0.599896
Si Si3 0.671613 0.024715 0.567350
Si Si4 0.837483 0.279737 0.588109
Si Si5 0.164110 0.197907 0.934755
Si Si6 0.674658 0.111974 0.962803
O O1 0.500000 0.537838 0.197185
O O2 0.250000 0.529430 0.250000
O O3 0.287579 0.590899 0.159184
O O4 0.281915 0.506748 0.127211
O O5 0.500000 0.880251 0.580011
O O6 0.290305 0.825936 0.623164
O O7 0.233134 0.889858 0.537055
O O8 0.500000 0.037175 0.568886
O O9 0.768101 0.068768 0.575134
O O10 0.711771 0.000000 0.500000
O O11 0.837028 0.289583 0.510852
O O12 0.728338 0.239706 0.606223
O O13 0.000000 0.265446 0.610851
O O14 0.000000 0.188346 0.909006
O O15 0.264487 0.154828 0.923872
O O16 0.500000 0.113757 0.962899
#
# Coordination Sequence:
#
# PCOD8262497 Si02
#       6
#    16  16  16  16  16  16
#     4  10  21  36  54  74 100 134 169 209 252 304
#     4   9  17  32  49  67  95 135 169 196 245 306
#     4  10  19  35  55  71  96 135 174 206 252 313
#     4   8  14  24  41  63  90 123 162 200 234 280
#     4   9  16  26  40  61  95 131 160 192 243 301
#     4  11  20  28  45  73 101 126 164 214 255 291
#
# _framework density 17.182881999999999
#
# number of rings (size 3 to 8) (size 9 to 14) (size 15 to 20)
#    0.000    2.500    1.667    3.000    0.000    5.667 
#    0.000    0.000    0.000    0.000    0.000    1.167 
#    0.000    5.333    0.000    0.000    0.000    0.000 
#
# Total GULP energy -595075.104011 kJ/mol
# GULP energy per Si atom -12397.398000 kJ/mol
# Density = 1.714377 g / cm^3
# Si number density = 17.182882 Si / 1000 Ang^3
#
#
#
# Elastic Constant Matrix: (Units=GPa)
#
#
# Indices 1 2 3 4 5 6 
#
# 1 101.8294 71.3096 35.0663 0.0000 0.0000 0.0000
# 2 71.3096 144.5989 50.3619 0.0000 0.0000 0.0000
# 3 35.0663 50.3619 71.2455 0.0000 0.0000 0.0000
# 4 0.0000 0.0000 0.0000 14.5511 0.0000 0.0000
# 5 0.0000 0.0000 0.0000 0.0000 18.5019 0.0000
# 6 0.0000 0.0000 0.0000 0.0000 0.0000 33.3982
#
#
#
# Elastic Compliance Matrix: (Units=1/GPa)
#
#
# Indices 1 2 3 4 5 6 
#
# 1 0.015453 -0.006595 -0.002944 0.000000 0.000000 0.000000
# 2 -0.006595 0.011989 -0.005229 0.000000 0.000000 0.000000
# 3 -0.002944 -0.005229 0.019181 0.000000 0.000000 0.000000
# 4 0.000000 0.000000 0.000000 0.068723 0.000000 0.000000
# 5 0.000000 0.000000 0.000000 0.000000 0.054049 0.000000
# 6 0.000000 0.000000 0.000000 0.000000 0.000000 0.029942
#
#
# Mechanical properties :
#
#
# Convention : Reuss Voigt Hill
#
# Bulk Modulus (GPa) = 58.52249 70.12771 64.32510
# Shear Modulus (GPa) = 21.31581 24.01931 22.66756
#
# Velocity S-wave (km/s) = 3.52593 3.74286 3.63601
# Velocity P-wave (km/s) = 7.12101 7.71879 7.42592
#
# Compressibility (1/GPa) = 0.01708745
#
# Stress axis : x y z
#
# Youngs Moduli (GPa) = 64.71411 83.40746 52.13522
#
# Poissons Ratio (x) = 0.55010 0.15346
# Poissons Ratio (y) = 0.42681 0.27261
# Poissons Ratio (z) = 0.19049 0.43612
#
# Static dielectric constant tensor:
#      x y z
#    x 3.218630 0.000000 0.000000 
#    y 0.000000 3.589800 0.000000 
#    z 0.000000 0.000000 2.678020 
# 
# 
# High freq. dielectric constant tensor:
#      x y z
#    x 1.663060 0.000000 0.000000 
#    y 0.000000 1.683090 0.000000 
#    z 0.000000 0.000000 1.595020 
# 
# From -- ./inp_files/43217.got.cif
#   From: 2010.03.12/outbox.cif.g09.slc.cpg/sg64_22_cif.got.tgz:43217.got - 2010.04.10 20:19:32.
