data_PCOD8262982
_publ_section_title
;
Structure prediction by ZEFSAII (Michael W. Deem and Ramdas Pophale) SiO2 
 PCOD8262982
Probable space group: C M C A
;
_chemical_formula_sum "Si O2"
_cell_formula_units_Z 96
_cell_length_a 8.673664
_cell_length_b 19.380664
_cell_length_c 30.305589
_cell_angle_alpha 90.000000
_cell_angle_beta 90.000000
_cell_angle_gamma 90.000000
_cell_volume 5094.410958
_symmetry_space_group_name_H-M "C M C A"
_symmetry_group_IT_number 64
_symmetry_cell_setting 'orthorhombic'
loop_
_space_group_symop_operation_xyz
x,y,z
-x,1/2-y,1/2+z
x,-y,-z
-x,1/2+y,1/2-z
-x,-y,-z
x,1/2+y,1/2-z
-x,y,z
x,1/2-y,1/2+z
1/2+x,1/2+y,z
1/2-x,-y,1/2+z
1/2+x,1/2-y,-z
1/2-x,y,1/2-z
1/2-x,1/2-y,-z
1/2+x,y,1/2-z
1/2-x,1/2+y,z
1/2+x,-y,1/2+z
loop_
_atom_site_type_symbol
_atom_site_label
_atom_site_fract_x
_atom_site_fract_y
_atom_site_fract_z
Si Si1 0.680897 0.051149 0.296693
Si Si2 0.178190 0.206364 0.631716
Si Si3 0.677060 0.954874 0.132353
Si Si4 0.181264 0.697083 0.203204
Si Si5 0.821027 0.046517 0.959439
Si Si6 0.179833 0.705843 0.538955
O O1 0.500000 0.059804 0.291218
O O2 0.750000 0.027217 0.250000
O O3 0.750879 0.123878 0.312159
O O4 0.717001 0.993896 0.332878
O O5 0.206764 0.125775 0.639326
O O6 0.278758 0.245461 0.667626
O O7 0.235006 0.228695 0.583513
O O8 0.000000 0.226599 0.636783
O O9 0.500000 0.975009 0.140115
O O10 0.724365 0.976735 0.083077
O O11 0.250000 0.720311 0.250000
O O12 0.000000 0.689842 0.208123
O O13 0.789029 0.125810 0.971647
O O14 0.000000 0.033691 0.948946
O O15 0.763962 0.000000 0.000000
O O16 0.250000 0.750000 0.500000
O O17 0.000000 0.721655 0.544140
#
# Coordination Sequence:
#
# PCOD8262982 Si02
#       6
#    16  16  16  16  16  16
#     4  11  22  38  59  82 112 146 183 226 273 325
#     4  10  21  38  58  81 111 146 185 229 277 327
#     4  10  21  37  57  82 112 145 184 228 273 324
#     4  11  22  38  59  83 112 144 182 226 274 328
#     4   9  19  36  56  78 106 142 183 226 272 322
#     4  10  20  35  55  79 109 144 183 228 277 328
#
# _framework density 18.844180999999999
#
# number of rings (size 3 to 8) (size 9 to 14) (size 15 to 20)
#    0.000    1.833    0.000    5.500    0.000    5.000 
#    0.000    5.000    0.000    0.000    0.000    0.000 
#    0.000    0.000    0.000    0.000    0.000    0.000 
#
# Total GULP energy -595466.620029 kJ/mol
# GULP energy per Si atom -12405.554584 kJ/mol
# Density = 1.880129 g / cm^3
# Si number density = 18.844181 Si / 1000 Ang^3
#
#
#
# Elastic Constant Matrix: (Units=GPa)
#
#
# Indices 1 2 3 4 5 6 
#
# 1 132.1206 44.9413 56.3925 0.0000 0.0000 0.0000
# 2 44.9413 70.4774 70.8748 0.0000 0.0000 0.0000
# 3 56.3925 70.8748 127.6449 0.0000 0.0000 0.0000
# 4 0.0000 0.0000 0.0000 41.8384 0.0000 0.0000
# 5 0.0000 0.0000 0.0000 0.0000 39.2022 0.0000
# 6 0.0000 0.0000 0.0000 0.0000 0.0000 30.7035
#
#
#
# Elastic Compliance Matrix: (Units=1/GPa)
#
#
# Indices 1 2 3 4 5 6 
#
# 1 0.009878 -0.004325 -0.001962 0.000000 0.000000 0.000000
# 2 -0.004325 0.034024 -0.016981 0.000000 0.000000 0.000000
# 3 -0.001962 -0.016981 0.018130 0.000000 0.000000 0.000000
# 4 0.000000 0.000000 0.000000 0.023901 0.000000 0.000000
# 5 0.000000 0.000000 0.000000 0.000000 0.025509 0.000000
# 6 0.000000 0.000000 0.000000 0.000000 0.000000 0.032570
#
#
# Mechanical properties :
#
#
# Convention : Reuss Voigt Hill
#
# Bulk Modulus (GPa) = 64.53981 74.96224 69.75103
# Shear Modulus (GPa) = 25.54777 32.88444 29.21611
#
# Velocity S-wave (km/s) = 3.68603 4.18194 3.94179
# Velocity P-wave (km/s) = 7.24150 7.94887 7.60341
#
# Compressibility (1/GPa) = 0.01549431
#
# Stress axis : x y z
#
# Youngs Moduli (GPa) = 101.23846 29.39144 55.15845
#
# Poissons Ratio (x) = 0.12713 0.10823
# Poissons Ratio (y) = 0.43790 0.93662
# Poissons Ratio (z) = 0.19865 0.49908
#
# Static dielectric constant tensor:
#      x y z
#    x 3.591170 0.000000 0.000000 
#    y 0.000000 3.385520 0.000000 
#    z 0.000000 0.000000 3.465520 
# 
# 
# High freq. dielectric constant tensor:
#      x y z
#    x 1.748610 0.000000 0.000000 
#    y 0.000000 1.728520 0.000000 
#    z 0.000000 0.000000 1.739420 
# 
# From -- ./inp_files/48161.got.cif
#   From: 2010.03.12/outbox.cif.g09.slc.cpg/sg64_25_cif.got.tgz:48161.got - 2010.04.10 20:19:32.
