data_PCOD8262576
_publ_section_title
;
Structure prediction by ZEFSAII (Michael W. Deem and Ramdas Pophale) SiO2 
 PCOD8262576
Probable space group: C M C A
;
_chemical_formula_sum "Si O2"
_cell_formula_units_Z 72
_cell_length_a 16.583633
_cell_length_b 10.332849
_cell_length_c 21.831747
_cell_angle_alpha 90.000000
_cell_angle_beta 90.000000
_cell_angle_gamma 90.000000
_cell_volume 3741.004674
_symmetry_space_group_name_H-M "C M C A"
_symmetry_group_IT_number 64
_symmetry_cell_setting 'orthorhombic'
loop_
_space_group_symop_operation_xyz
x,y,z
-x,1/2-y,1/2+z
x,-y,-z
-x,1/2+y,1/2-z
-x,-y,-z
x,1/2+y,1/2-z
-x,y,z
x,1/2-y,1/2+z
1/2+x,1/2+y,z
1/2-x,-y,1/2+z
1/2+x,1/2-y,-z
1/2-x,y,1/2-z
1/2-x,1/2-y,-z
1/2+x,y,1/2-z
1/2-x,1/2+y,z
1/2+x,-y,1/2+z
loop_
_atom_site_type_symbol
_atom_site_label
_atom_site_fract_x
_atom_site_fract_y
_atom_site_fract_z
Si Si1 0.410210 0.146437 0.914510
Si Si2 0.788464 0.000000 0.500000
Si Si3 0.865132 0.073321 0.057376
Si Si4 0.403592 0.493694 0.810911
Si Si5 0.905346 0.210000 0.719929
O O1 0.500000 0.088253 0.925087
O O2 0.413019 0.295254 0.933938
O O3 0.385386 0.137199 0.843558
O O4 0.344318 0.074808 0.953527
O O5 0.730085 0.905615 0.540134
O O6 0.871747 0.989938 0.119774
O O7 0.907118 0.000000 0.000000
O O8 0.500000 0.492117 0.810848
O O9 0.369099 0.617930 0.773408
O O10 0.371078 0.357709 0.780975
O O11 0.000000 0.220093 0.729458
#
# Coordination Sequence:
#
# PCOD8262576 Si02
#       5
#    16   8  16  16  16
#     4  10  19  36  57  79 108 146 183 226 272 324
#     4  10  21  36  53  78 114 144 182 218 279 324
#     4   9  20  34  56  78 114 143 181 220 277 323
#     4   9  16  32  53  80 109 142 180 229 273 327
#     4   8  16  30  52  77 107 137 180 230 278 315
#
# _framework density 19.246165999999999
#
# number of rings (size 3 to 8) (size 9 to 14) (size 15 to 20)
#    0.667    2.222    0.000    3.000    0.000    1.778 
#    4.000    1.111    0.000    5.333    0.000    0.000 
#    0.000    0.000    0.000    0.000    0.000    0.000 
#
# Total GULP energy -445981.096590 kJ/mol
# GULP energy per Si atom -12388.363794 kJ/mol
# Density = 1.920236 g / cm^3
# Si number density = 19.246166 Si / 1000 Ang^3
#
#
#
# Elastic Constant Matrix: (Units=GPa)
#
#
# Indices 1 2 3 4 5 6 
#
# 1 47.8409 6.5687 22.6574 0.0000 0.0000 0.0000
# 2 6.5687 64.9832 57.1858 0.0000 0.0000 0.0000
# 3 22.6574 57.1858 106.1764 0.0000 0.0000 0.0000
# 4 0.0000 0.0000 0.0000 27.4704 0.0000 0.0000
# 5 0.0000 0.0000 0.0000 0.0000 53.1635 0.0000
# 6 0.0000 0.0000 0.0000 0.0000 0.0000 24.3992
#
#
#
# Elastic Compliance Matrix: (Units=1/GPa)
#
#
# Indices 1 2 3 4 5 6 
#
# 1 0.023766 0.003917 -0.007181 0.000000 0.000000 0.000000
# 2 0.003917 0.029900 -0.016940 0.000000 0.000000 0.000000
# 3 -0.007181 -0.016940 0.020074 0.000000 0.000000 0.000000
# 4 0.000000 0.000000 0.000000 0.036403 0.000000 0.000000
# 5 0.000000 0.000000 0.000000 0.000000 0.018810 0.000000
# 6 0.000000 0.000000 0.000000 0.000000 0.000000 0.040985
#
#
# Mechanical properties :
#
#
# Convention : Reuss Voigt Hill
#
# Bulk Modulus (GPa) = 30.00078 43.53602 36.76840
# Shear Modulus (GPa) = 22.57788 29.84586 26.21187
#
# Velocity S-wave (km/s) = 3.42879 3.94222 3.69443
# Velocity P-wave (km/s) = 5.59439 6.58720 6.11099
#
# Compressibility (1/GPa) = 0.03333247
#
# Stress axis : x y z
#
# Youngs Moduli (GPa) = 42.07721 33.44516 49.81491
#
# Poissons Ratio (x) = -0.13101 0.35774
# Poissons Ratio (y) = -0.16483 0.84385
# Poissons Ratio (z) = 0.30217 0.56655
#
# Static dielectric constant tensor:
#      x y z
#    x 3.526460 0.000000 0.000000 
#    y 0.000000 3.548940 0.000000 
#    z 0.000000 0.000000 3.915180 
# 
# 
# High freq. dielectric constant tensor:
#      x y z
#    x 1.722830 0.000000 0.000000 
#    y 0.000000 1.731470 0.000000 
#    z 0.000000 0.000000 1.756980 
# 
# From -- ./inp_files/32820.got.cif
#   From: 2010.03.12/outbox.cif.g09.slc.cpg/sg64_17_cif.got.tgz:32820.got - 2010.04.10 20:19:32.
