data_PCOD8262680
_publ_section_title
;
Structure prediction by ZEFSAII (Michael W. Deem and Ramdas Pophale) SiO2 
 PCOD8262680
Probable space group: C M C A
;
_chemical_formula_sum "Si O2"
_cell_formula_units_Z 88
_cell_length_a 24.123661
_cell_length_b 14.773774
_cell_length_c 11.726095
_cell_angle_alpha 90.000000
_cell_angle_beta 90.000000
_cell_angle_gamma 90.000000
_cell_volume 4179.151126
_symmetry_space_group_name_H-M "C M C A"
_symmetry_group_IT_number 64
_symmetry_cell_setting 'orthorhombic'
loop_
_space_group_symop_operation_xyz
x,y,z
-x,1/2-y,1/2+z
x,-y,-z
-x,1/2+y,1/2-z
-x,-y,-z
x,1/2+y,1/2-z
-x,y,z
x,1/2-y,1/2+z
1/2+x,1/2+y,z
1/2-x,-y,1/2+z
1/2+x,1/2-y,-z
1/2-x,y,1/2-z
1/2-x,1/2-y,-z
1/2+x,y,1/2-z
1/2-x,1/2+y,z
1/2+x,-y,1/2+z
loop_
_atom_site_type_symbol
_atom_site_label
_atom_site_fract_x
_atom_site_fract_y
_atom_site_fract_z
Si Si1 0.381688 0.896145 0.524629
Si Si2 0.000000 0.742462 0.675333
Si Si3 0.000000 0.395261 0.525362
Si Si4 0.884256 0.685192 0.724069
Si Si5 0.184968 0.856033 0.764233
Si Si6 0.616919 0.506540 0.636990
Si Si7 0.000000 0.052694 0.381635
O O1 0.441406 0.874479 0.588785
O O2 0.381000 0.847112 0.404812
O O3 0.331374 0.865050 0.603200
O O4 0.373894 0.000000 0.500000
O O5 0.000000 0.658631 0.591375
O O6 0.055691 0.730927 0.751528
O O7 0.000000 0.838196 0.607661
O O8 0.000000 0.500000 0.500000
O O9 0.836110 0.758750 0.726178
O O10 0.871179 0.607552 0.817351
O O11 0.250000 0.860107 0.750000
O O12 0.160594 0.937461 0.689424
O O13 0.620826 0.500000 0.500000
O O14 0.555677 0.478637 0.683273
O O15 0.000000 0.000000 0.500000
#
# Coordination Sequence:
#
# PCOD8262680 Si02
#       7
#    16   8   8  16  16  16   8
#     4  10  21  43  68  98 135 171 225 283 340 412
#     4  10  19  38  71 104 139 174 219 277 356 433
#     4   8  18  33  66 104 133 171 217 278 346 403
#     4  11  24  44  71 102 135 178 227 283 355 418
#     4  12  28  45  67  97 134 189 239 281 336 398
#     4  11  25  46  70 102 141 176 225 289 358 422
#     4  10  21  39  70 101 142 176 213 281 368 431
#
# _framework density 21.056908
#
# number of rings (size 3 to 8) (size 9 to 14) (size 15 to 20)
#    0.000    1.455    3.636    0.545    2.545    5.091 
#    0.000    0.000    0.000    0.000    0.000    0.000 
#    0.000    0.000    0.000    0.000    0.000    0.000 
#
# Total GULP energy -545224.888045 kJ/mol
# GULP energy per Si atom -12391.474728 kJ/mol
# Density = 2.100898 g / cm^3
# Si number density = 21.056908 Si / 1000 Ang^3
#
#
#
# Elastic Constant Matrix: (Units=GPa)
#
#
# Indices 1 2 3 4 5 6 
#
# 1 191.7569 60.1524 44.7519 0.0000 0.0000 0.0000
# 2 60.1524 158.7567 41.9827 0.0000 0.0000 0.0000
# 3 44.7519 41.9827 101.3840 0.0000 0.0000 0.0000
# 4 0.0000 0.0000 0.0000 27.0102 0.0000 0.0000
# 5 0.0000 0.0000 0.0000 0.0000 26.0308 0.0000
# 6 0.0000 0.0000 0.0000 0.0000 0.0000 50.3764
#
#
#
# Elastic Compliance Matrix: (Units=1/GPa)
#
#
# Indices 1 2 3 4 5 6 
#
# 1 0.006260 -0.001843 -0.002000 0.000000 0.000000 0.000000
# 2 -0.001843 0.007616 -0.002340 0.000000 0.000000 0.000000
# 3 -0.002000 -0.002340 0.011715 0.000000 0.000000 0.000000
# 4 0.000000 0.000000 0.000000 0.037023 0.000000 0.000000
# 5 0.000000 0.000000 0.000000 0.000000 0.038416 0.000000
# 6 0.000000 0.000000 0.000000 0.000000 0.000000 0.019851
#
#
# Mechanical properties :
#
#
# Convention : Reuss Voigt Hill
#
# Bulk Modulus (GPa) = 75.61510 82.85239 79.23374
# Shear Modulus (GPa) = 36.32250 41.01753 38.67001
#
# Velocity S-wave (km/s) = 4.15778 4.41833 4.29003
# Velocity P-wave (km/s) = 7.68358 8.09081 7.88982
#
# Compressibility (1/GPa) = 0.01322487
#
# Stress axis : x y z
#
# Youngs Moduli (GPa) = 159.74954 131.30053 85.35758
#
# Poissons Ratio (x) = 0.24198 0.17071
# Poissons Ratio (y) = 0.29441 0.19976
# Poissons Ratio (z) = 0.31950 0.30729
#
# Static dielectric constant tensor:
#      x y z
#    x 4.107210 0.000000 0.000000 
#    y 0.000000 3.841690 0.000000 
#    z 0.000000 0.000000 3.539730 
# 
# 
# High freq. dielectric constant tensor:
#      x y z
#    x 1.819260 0.000000 0.000000 
#    y 0.000000 1.845700 0.000000 
#    z 0.000000 0.000000 1.816070 
# 
# From -- ./inp_files/18247.got.cif
#   From: 2010.03.12/outbox.cif.g09.slc.cpg/sg64_10_cif.got.tgz:18247.got - 2010.04.10 20:19:32.
