data_PCOD8262008
_publ_section_title
;
Structure prediction by ZEFSAII (Michael W. Deem and Ramdas Pophale) SiO2 
 PCOD8262008
Probable space group: C M C A
;
_chemical_formula_sum "Si O2"
_cell_formula_units_Z 96
_cell_length_a 9.362953
_cell_length_b 19.269879
_cell_length_c 30.472984
_cell_angle_alpha 90.000000
_cell_angle_beta 90.000000
_cell_angle_gamma 90.000000
_cell_volume 5498.026320
_symmetry_space_group_name_H-M "C M C A"
_symmetry_group_IT_number 64
_symmetry_cell_setting 'orthorhombic'
loop_
_space_group_symop_operation_xyz
x,y,z
-x,1/2-y,1/2+z
x,-y,-z
-x,1/2+y,1/2-z
-x,-y,-z
x,1/2+y,1/2-z
-x,y,z
x,1/2-y,1/2+z
1/2+x,1/2+y,z
1/2-x,-y,1/2+z
1/2+x,1/2-y,-z
1/2-x,y,1/2-z
1/2-x,1/2-y,-z
1/2+x,y,1/2-z
1/2-x,1/2+y,z
1/2+x,-y,1/2+z
loop_
_atom_site_type_symbol
_atom_site_label
_atom_site_fract_x
_atom_site_fract_y
_atom_site_fract_z
Si Si1 0.830759 0.347743 0.204477
Si Si2 0.665091 0.074361 0.481534
Si Si3 0.834894 0.393650 0.894545
Si Si4 0.837409 0.369017 0.428321
Si Si5 0.833145 0.753771 0.138854
Si Si6 0.663119 0.458852 0.365492
O O1 0.750000 0.352532 0.250000
O O2 0.765784 0.283516 0.177394
O O3 0.795157 0.419887 0.179483
O O4 0.000000 0.336500 0.211208
O O5 0.500000 0.070654 0.467819
O O6 0.752418 0.098053 0.439705
O O7 0.692844 0.131970 0.519582
O O8 0.716482 0.000000 0.500000
O O9 0.784520 0.325264 0.868661
O O10 0.807793 0.458722 0.861873
O O11 0.000000 0.386407 0.907300
O O12 0.801358 0.294975 0.406467
O O13 0.749591 0.430891 0.406677
O O14 0.000000 0.389637 0.419341
O O15 0.000000 0.759719 0.152271
O O16 0.500000 0.442884 0.376617
#
# Coordination Sequence:
#
# PCOD8262008 Si02
#       6
#    16  16  16  16  16  16
#     4  10  20  36  58  80  99 125 161 201 247 302
#     4  10  19  30  46  71 102 138 179 220 254 292
#     4  10  20  33  50  74 104 136 169 210 257 300
#     4   9  17  31  49  69  97 136 178 213 248 291
#     4   9  19  35  53  74 103 137 169 207 255 303
#     4   9  18  32  51  74 100 128 163 205 247 295
#
# _framework density 17.460811
#
# number of rings (size 3 to 8) (size 9 to 14) (size 15 to 20)
#    0.000    2.500    1.667    0.500    0.000    3.000 
#    0.000    0.833    0.000    2.000    0.000    0.000 
#    0.000    0.000    0.000    0.000    0.000    0.000 
#
# Total GULP energy -595093.207693 kJ/mol
# GULP energy per Si atom -12397.775160 kJ/mol
# Density = 1.742107 g / cm^3
# Si number density = 17.460811 Si / 1000 Ang^3
#
#
#
# Elastic Constant Matrix: (Units=GPa)
#
#
# Indices 1 2 3 4 5 6 
#
# 1 68.2408 51.0549 59.2573 0.0000 0.0000 0.0000
# 2 51.0549 135.0060 66.1809 0.0000 0.0000 0.0000
# 3 59.2573 66.1809 122.4779 0.0000 0.0000 0.0000
# 4 0.0000 0.0000 0.0000 17.3670 0.0000 0.0000
# 5 0.0000 0.0000 0.0000 0.0000 31.7073 0.0000
# 6 0.0000 0.0000 0.0000 0.0000 0.0000 22.7229
#
#
#
# Elastic Compliance Matrix: (Units=1/GPa)
#
#
# Indices 1 2 3 4 5 6 
#
# 1 0.027840 -0.005340 -0.010584 0.000000 0.000000 0.000000
# 2 -0.005340 0.011100 -0.003415 0.000000 0.000000 0.000000
# 3 -0.010584 -0.003415 0.015131 0.000000 0.000000 0.000000
# 4 0.000000 0.000000 0.000000 0.057580 0.000000 0.000000
# 5 0.000000 0.000000 0.000000 0.000000 0.031538 0.000000
# 6 0.000000 0.000000 0.000000 0.000000 0.000000 0.044009
#
#
# Mechanical properties :
#
#
# Convention : Reuss Voigt Hill
#
# Bulk Modulus (GPa) = 64.96111 75.41232 70.18671
# Shear Modulus (GPa) = 21.64448 24.30822 22.97635
#
# Velocity S-wave (km/s) = 3.52462 3.73521 3.63144
# Velocity P-wave (km/s) = 7.33816 7.86674 7.60705
#
# Compressibility (1/GPa) = 0.01539383
#
# Stress axis : x y z
#
# Youngs Moduli (GPa) = 35.91993 90.08839 66.09119
#
# Poissons Ratio (x) = 0.48104 0.69952
# Poissons Ratio (y) = 0.19180 0.22567
# Poissons Ratio (z) = 0.38018 0.30761
#
# Static dielectric constant tensor:
#      x y z
#    x 3.278760 0.000000 0.000000 
#    y 0.000000 3.447280 0.000000 
#    z 0.000000 0.000000 3.158160 
# 
# 
# High freq. dielectric constant tensor:
#      x y z
#    x 1.676460 0.000000 0.000000 
#    y 0.000000 1.673460 0.000000 
#    z 0.000000 0.000000 1.660710 
# 
# From -- ./inp_files/48109.got.cif
#   From: 2010.03.12/outbox.cif.g09.slc.cpg/sg64_25_cif.got.tgz:48109.got - 2010.04.10 20:19:32.
