data_PCOD8262076
_publ_section_title
;
Structure prediction by ZEFSAII (Michael W. Deem and Ramdas Pophale) SiO2 
 PCOD8262076
Probable space group: C M C A
;
_chemical_formula_sum "Si O2"
_cell_formula_units_Z 80
_cell_length_a 8.975072
_cell_length_b 25.450025
_cell_length_c 19.963183
_cell_angle_alpha 90.000000
_cell_angle_beta 90.000000
_cell_angle_gamma 90.000000
_cell_volume 4559.906551
_symmetry_space_group_name_H-M "C M C A"
_symmetry_group_IT_number 64
_symmetry_cell_setting 'orthorhombic'
loop_
_space_group_symop_operation_xyz
x,y,z
-x,1/2-y,1/2+z
x,-y,-z
-x,1/2+y,1/2-z
-x,-y,-z
x,1/2+y,1/2-z
-x,y,z
x,1/2-y,1/2+z
1/2+x,1/2+y,z
1/2-x,-y,1/2+z
1/2+x,1/2-y,-z
1/2-x,y,1/2-z
1/2-x,1/2-y,-z
1/2+x,y,1/2-z
1/2-x,1/2+y,z
1/2+x,-y,1/2+z
loop_
_atom_site_type_symbol
_atom_site_label
_atom_site_fract_x
_atom_site_fract_y
_atom_site_fract_z
Si Si1 0.826376 0.109511 0.678724
Si Si2 0.325894 0.006514 0.178469
Si Si3 0.825994 0.308050 0.568751
Si Si4 0.324435 0.188630 0.932637
Si Si5 0.323727 0.892311 0.677692
O O1 0.750000 0.117586 0.750000
O O2 0.760811 0.151447 0.626137
O O3 0.000000 0.118869 0.691257
O O4 0.799340 0.051205 0.646691
O O5 0.500000 0.019533 0.184563
O O6 0.250000 0.004455 0.250000
O O7 0.243290 0.055063 0.141287
O O8 0.744153 0.329598 0.502958
O O9 0.777195 0.248292 0.584429
O O10 0.779370 0.342914 0.632084
O O11 0.000000 0.311698 0.554131
O O12 0.500000 0.182003 0.938409
O O13 0.500000 0.898173 0.685658
O O14 0.250000 0.883197 0.750000
#
# Coordination Sequence:
#
# PCOD8262076 Si02
#       5
#    16  16  16  16  16
#     4   9  18  31  49  73  97 122 154 193 233 275
#     4   9  16  28  46  68  94 123 154 187 229 276
#     4   9  19  34  50  69  94 124 157 193 233 277
#     4   9  18  34  52  69  93 124 157 193 233 277
#     4  10  19  31  48  71  97 123 155 193 231 274
#
# _framework density 17.544219999999999
#
# number of rings (size 3 to 8) (size 9 to 14) (size 15 to 20)
#    0.000    2.800    0.000    2.400    0.000    4.000 
#    0.000    1.000    0.000    6.000    0.000    0.000 
#    0.000    0.000    0.000    0.000    0.000    0.000 
#
# Total GULP energy -495741.191791 kJ/mol
# GULP energy per Si atom -12393.529795 kJ/mol
# Density = 1.750429 g / cm^3
# Si number density = 17.544220 Si / 1000 Ang^3
#
#
#
# Elastic Constant Matrix: (Units=GPa)
#
#
# Indices 1 2 3 4 5 6 
#
# 1 62.1031 48.2983 42.3021 0.0000 0.0000 0.0000
# 2 48.2983 132.5294 81.1607 0.0000 0.0000 0.0000
# 3 42.3021 81.1607 103.3794 0.0000 0.0000 0.0000
# 4 0.0000 0.0000 0.0000 14.2090 0.0000 0.0000
# 5 0.0000 0.0000 0.0000 0.0000 26.1072 0.0000
# 6 0.0000 0.0000 0.0000 0.0000 0.0000 24.6550
#
#
#
# Elastic Compliance Matrix: (Units=1/GPa)
#
#
# Indices 1 2 3 4 5 6 
#
# 1 0.024105 -0.005285 -0.005714 0.000000 0.000000 0.000000
# 2 -0.005285 0.015691 -0.010156 0.000000 0.000000 0.000000
# 3 -0.005714 -0.010156 0.019985 0.000000 0.000000 0.000000
# 4 0.000000 0.000000 0.000000 0.070378 0.000000 0.000000
# 5 0.000000 0.000000 0.000000 0.000000 0.038304 0.000000
# 6 0.000000 0.000000 0.000000 0.000000 0.000000 0.040560
#
#
# Mechanical properties :
#
#
# Convention : Reuss Voigt Hill
#
# Bulk Modulus (GPa) = 57.24233 71.28157 64.26195
# Shear Modulus (GPa) = 19.44341 21.41096 20.42718
#
# Velocity S-wave (km/s) = 3.33265 3.49721 3.41592
# Velocity P-wave (km/s) = 6.89254 7.55150 7.22953
#
# Compressibility (1/GPa) = 0.01746959
#
# Stress axis : x y z
#
# Youngs Moduli (GPa) = 41.48518 63.72998 50.03853
#
# Poissons Ratio (x) = 0.33683 0.28593
# Poissons Ratio (y) = 0.21926 0.50819
# Poissons Ratio (z) = 0.23706 0.64725
#
# Static dielectric constant tensor:
#      x y z
#    x 3.281450 0.000000 0.000000 
#    y 0.000000 4.100700 0.000000 
#    z 0.000000 0.000000 3.053260 
# 
# 
# High freq. dielectric constant tensor:
#      x y z
#    x 1.680870 0.000000 0.000000 
#    y 0.000000 1.693950 0.000000 
#    z 0.000000 0.000000 1.647660 
# 
# From -- ./inp_files/29768.got.cif
#   From: 2010.03.12/outbox.cif.g09.slc.cpg/sg64_15_cif.got.tgz:29768.got - 2010.04.10 20:19:32.
