data_PCOD8262025
_publ_section_title
;
Structure prediction by ZEFSAII (Michael W. Deem and Ramdas Pophale) SiO2 
 PCOD8262025
Probable space group: C M C A
;
_chemical_formula_sum "Si O2"
_cell_formula_units_Z 96
_cell_length_a 9.033494
_cell_length_b 30.005763
_cell_length_c 20.389740
_cell_angle_alpha 90.000000
_cell_angle_beta 90.000000
_cell_angle_gamma 90.000000
_cell_volume 5526.779309
_symmetry_space_group_name_H-M "C M C A"
_symmetry_group_IT_number 64
_symmetry_cell_setting 'orthorhombic'
loop_
_space_group_symop_operation_xyz
x,y,z
-x,1/2-y,1/2+z
x,-y,-z
-x,1/2+y,1/2-z
-x,-y,-z
x,1/2+y,1/2-z
-x,y,z
x,1/2-y,1/2+z
1/2+x,1/2+y,z
1/2-x,-y,1/2+z
1/2+x,1/2-y,-z
1/2-x,y,1/2-z
1/2-x,1/2-y,-z
1/2+x,y,1/2-z
1/2-x,1/2+y,z
1/2+x,-y,1/2+z
loop_
_atom_site_type_symbol
_atom_site_label
_atom_site_fract_x
_atom_site_fract_y
_atom_site_fract_z
Si Si1 0.172740 0.560827 0.686404
Si Si2 0.827005 0.751925 0.313264
Si Si3 0.833043 0.850992 0.342087
Si Si4 0.168033 0.367436 0.007610
Si Si5 0.173255 0.043947 0.959734
Si Si6 0.824171 0.214773 0.048236
O O1 0.250000 0.537681 0.750000
O O2 0.219364 0.612581 0.684879
O O3 0.219978 0.538066 0.617111
O O4 0.000000 0.556837 0.697605
O O5 0.750000 0.729762 0.250000
O O6 0.779035 0.803574 0.316015
O O7 0.774956 0.726608 0.378204
O O8 0.000000 0.747240 0.304474
O O9 0.828210 0.847370 0.420112
O O10 0.000000 0.863221 0.319246
O O11 0.265799 0.335133 0.962699
O O12 0.000000 0.369769 0.981052
O O13 0.236831 0.416652 0.005971
O O14 0.000000 0.055418 0.963706
O O15 0.214110 0.000000 0.000000
O O16 0.000000 0.217029 0.038297
O O17 0.750000 0.250000 0.000000
#
# Coordination Sequence:
#
# PCOD8262025 Si02
#       6
#    16  16  16  16  16  16
#     4  10  19  30  47  73 102 134 165 202 253 310
#     4  10  21  34  47  69 101 137 176 217 259 303
#     4   9  17  31  47  69 102 134 166 206 249 303
#     4  10  19  33  53  79 106 133 171 217 261 307
#     4   9  19  36  56  78 104 135 173 213 259 312
#     4  11  21  35  53  75 104 139 179 217 257 306
#
# _framework density 17.369971
#
# number of rings (size 3 to 8) (size 9 to 14) (size 15 to 20)
#    0.000    2.167    1.667    2.000    0.000    5.000 
#    0.000    0.000    0.000    1.000    0.000    2.333 
#    0.000    0.000    0.000    0.000    0.000    0.000 
#
# Total GULP energy -595163.084319 kJ/mol
# GULP energy per Si atom -12399.230923 kJ/mol
# Density = 1.733044 g / cm^3
# Si number density = 17.369971 Si / 1000 Ang^3
#
#
#
# Elastic Constant Matrix: (Units=GPa)
#
#
# Indices 1 2 3 4 5 6 
#
# 1 74.1306 45.0251 54.3647 0.0000 0.0000 0.0000
# 2 45.0251 79.9722 66.3150 0.0000 0.0000 0.0000
# 3 54.3647 66.3150 133.0947 0.0000 0.0000 0.0000
# 4 0.0000 0.0000 0.0000 19.8702 0.0000 0.0000
# 5 0.0000 0.0000 0.0000 0.0000 30.3273 0.0000
# 6 0.0000 0.0000 0.0000 0.0000 0.0000 23.8964
#
#
#
# Elastic Compliance Matrix: (Units=1/GPa)
#
#
# Indices 1 2 3 4 5 6 
#
# 1 0.022189 -0.008481 -0.004838 0.000000 0.000000 0.000000
# 2 -0.008481 0.024550 -0.008768 0.000000 0.000000 0.000000
# 3 -0.004838 -0.008768 0.013858 0.000000 0.000000 0.000000
# 4 0.000000 0.000000 0.000000 0.050327 0.000000 0.000000
# 5 0.000000 0.000000 0.000000 0.000000 0.032974 0.000000
# 6 0.000000 0.000000 0.000000 0.000000 0.000000 0.041847
#
#
# Mechanical properties :
#
#
# Convention : Reuss Voigt Hill
#
# Bulk Modulus (GPa) = 60.88801 68.73414 64.81107
# Shear Modulus (GPa) = 21.24125 22.91828 22.07976
#
# Velocity S-wave (km/s) = 3.50075 3.63632 3.56918
# Velocity P-wave (km/s) = 7.17426 7.56882 7.37418
#
# Compressibility (1/GPa) = 0.01642360
#
# Stress axis : x y z
#
# Youngs Moduli (GPa) = 45.06834 40.73377 72.16012
#
# Poissons Ratio (x) = 0.34546 0.34908
# Poissons Ratio (y) = 0.38222 0.63269
# Poissons Ratio (z) = 0.21802 0.35715
#
# Static dielectric constant tensor:
#      x y z
#    x 3.266260 0.000000 0.000000 
#    y 0.000000 2.994690 0.000000 
#    z 0.000000 0.000000 3.111320 
# 
# 
# High freq. dielectric constant tensor:
#      x y z
#    x 1.678110 0.000000 0.000000 
#    y 0.000000 1.637510 0.000000 
#    z 0.000000 0.000000 1.674940 
# 
# From -- ./inp_files/37116.got.cif
#   From: 2010.03.12/outbox.cif.g09.slc.cpg/sg64_19_cif.got.tgz:37116.got - 2010.04.10 20:19:32.
