data_PCOD8262272
_publ_section_title
;
Structure prediction by ZEFSAII (Michael W. Deem and Ramdas Pophale) SiO2 
 PCOD8262272
Probable space group: C M C A
;
_chemical_formula_sum "Si O2"
_cell_formula_units_Z 88
_cell_length_a 22.762124
_cell_length_b 19.974168
_cell_length_c 9.465713
_cell_angle_alpha 90.000000
_cell_angle_beta 90.000000
_cell_angle_gamma 90.000000
_cell_volume 4303.628905
_symmetry_space_group_name_H-M "C M C A"
_symmetry_group_IT_number 64
_symmetry_cell_setting 'orthorhombic'
loop_
_space_group_symop_operation_xyz
x,y,z
-x,1/2-y,1/2+z
x,-y,-z
-x,1/2+y,1/2-z
-x,-y,-z
x,1/2+y,1/2-z
-x,y,z
x,1/2-y,1/2+z
1/2+x,1/2+y,z
1/2-x,-y,1/2+z
1/2+x,1/2-y,-z
1/2-x,y,1/2-z
1/2-x,1/2-y,-z
1/2+x,y,1/2-z
1/2-x,1/2+y,z
1/2+x,-y,1/2+z
loop_
_atom_site_type_symbol
_atom_site_label
_atom_site_fract_x
_atom_site_fract_y
_atom_site_fract_z
Si Si1 0.128475 0.224923 0.469889
Si Si2 0.319317 0.679711 0.754305
Si Si3 0.610929 0.053095 0.804857
Si Si4 0.500000 0.276330 0.022156
Si Si5 0.500000 0.112516 0.315420
Si Si6 0.500000 0.581028 0.877393
Si Si7 0.607606 0.088005 0.116216
O O1 0.158742 0.289079 0.400968
O O2 0.151157 0.222628 0.629828
O O3 0.147085 0.155764 0.388280
O O4 0.057623 0.230459 0.462490
O O5 0.250000 0.684176 0.750000
O O6 0.338197 0.602119 0.750288
O O7 0.557491 0.050290 0.695117
O O8 0.640277 0.979118 0.826806
O O9 0.584995 0.077607 0.955361
O O10 0.500000 0.337166 0.137698
O O11 0.500000 0.309869 0.865659
O O12 0.555569 0.098312 0.222862
O O13 0.500000 0.063764 0.454225
#
# Coordination Sequence:
#
# PCOD8262272 Si02
#       7
#    16  16  16   8   8   8  16
#     4  11  22  39  63  90 122 158 201 253 301 365
#     4  11  23  41  63  86 117 159 204 252 302 360
#     4  10  21  39  58  83 117 161 197 246 301 364
#     4  10  21  35  58  90 127 152 195 239 310 362
#     4  10  19  33  50  87 121 153 189 238 300 366
#     4  10  20  34  57  84 124 152 195 236 307 363
#     4  10  21  35  57  84 118 155 202 240 297 366
#
# _framework density 20.447859000000001
#
# number of rings (size 3 to 8) (size 9 to 14) (size 15 to 20)
#    0.545    1.091    1.818    3.273    0.000    5.818 
#    0.000    0.909    0.000   15.273    0.000    0.000 
#    0.000    0.000    0.000    0.000    0.000    0.000 
#
# Total GULP energy -545325.024858 kJ/mol
# GULP energy per Si atom -12393.750565 kJ/mol
# Density = 2.040132 g / cm^3
# Si number density = 20.447859 Si / 1000 Ang^3
#
#
#
# Elastic Constant Matrix: (Units=GPa)
#
#
# Indices 1 2 3 4 5 6 
#
# 1 94.8143 9.0169 7.4723 0.0000 0.0000 0.0000
# 2 9.0169 100.4061 9.1739 0.0000 0.0000 0.0000
# 3 7.4723 9.1739 58.4766 0.0000 0.0000 0.0000
# 4 0.0000 0.0000 0.0000 29.4617 0.0000 0.0000
# 5 0.0000 0.0000 0.0000 0.0000 11.9126 0.0000
# 6 0.0000 0.0000 0.0000 0.0000 0.0000 -14.9619
#
#
#
# Elastic Compliance Matrix: (Units=1/GPa)
#
#
# Indices 1 2 3 4 5 6 
#
# 1 0.010725 -0.000850 -0.001237 0.000000 0.000000 0.000000
# 2 -0.000850 0.010172 -0.001487 0.000000 0.000000 0.000000
# 3 -0.001237 -0.001487 0.017492 0.000000 0.000000 0.000000
# 4 0.000000 0.000000 0.000000 0.033942 0.000000 0.000000
# 5 0.000000 0.000000 0.000000 0.000000 0.083944 0.000000
# 6 0.000000 0.000000 0.000000 0.000000 0.000000 -0.066836
#
#
# Mechanical properties :
#
#
# Convention : Reuss Voigt Hill
#
# Bulk Modulus (GPa) = 32.00977 33.89149 32.95063
# Shear Modulus (GPa) = 46.72800 20.48474 33.60637
#
# Velocity S-wave (km/s) = 4.78559 3.16856 4.05843
# Velocity P-wave (km/s) = 6.79884 5.47695 6.17337
#
# Compressibility (1/GPa) = 0.03124046
#
# Stress axis : x y z
#
# Youngs Moduli (GPa) = 93.23763 98.31122 57.16820
#
# Poissons Ratio (x) = 0.08358 0.07073
# Poissons Ratio (y) = 0.07927 0.08502
# Poissons Ratio (z) = 0.11535 0.14620
#
# Static dielectric constant tensor:
#      x y z
#    x 3.193050 0.000000 0.000000 
#    y 0.000000 4.247770 0.000000 
#    z 0.000000 0.000000 3.816240 
# 
# 
# High freq. dielectric constant tensor:
#      x y z
#    x 1.748000 0.000000 0.000000 
#    y 0.000000 1.823410 0.000000 
#    z 0.000000 0.000000 1.808070 
# 
# From -- ./inp_files/17188.got.cif
#   From: 2010.03.12/outbox.cif.g09.slc.cpg/sg64_9_cif.got.tgz:17188.got - 2010.04.10 20:19:32.
