data_PCOD8262519
_publ_section_title
;
Structure prediction by ZEFSAII (Michael W. Deem and Ramdas Pophale) SiO2 
 PCOD8262519
Probable space group: C M C A
;
_chemical_formula_sum "Si O2"
_cell_formula_units_Z 96
_cell_length_a 17.909267
_cell_length_b 15.216448
_cell_length_c 18.694514
_cell_angle_alpha 90.000000
_cell_angle_beta 90.000000
_cell_angle_gamma 90.000000
_cell_volume 5094.543522
_symmetry_space_group_name_H-M "C M C A"
_symmetry_group_IT_number 64
_symmetry_cell_setting 'orthorhombic'
loop_
_space_group_symop_operation_xyz
x,y,z
-x,1/2-y,1/2+z
x,-y,-z
-x,1/2+y,1/2-z
-x,-y,-z
x,1/2+y,1/2-z
-x,y,z
x,1/2-y,1/2+z
1/2+x,1/2+y,z
1/2-x,-y,1/2+z
1/2+x,1/2-y,-z
1/2-x,y,1/2-z
1/2-x,1/2-y,-z
1/2+x,y,1/2-z
1/2-x,1/2+y,z
1/2+x,-y,1/2+z
loop_
_atom_site_type_symbol
_atom_site_label
_atom_site_fract_x
_atom_site_fract_y
_atom_site_fract_z
Si Si1 0.228835 0.332872 0.545611
Si Si2 0.674154 0.475489 0.291397
Si Si3 0.915765 0.310890 0.246375
Si Si4 0.834577 0.925485 0.453530
Si Si5 0.414861 0.751699 0.085200
Si Si6 0.313035 0.672030 0.305499
O O1 0.250000 0.250000 0.500000
O O2 0.255360 0.413249 0.495918
O O3 0.139860 0.329346 0.563167
O O4 0.277215 0.334309 0.617173
O O5 0.750000 0.457064 0.250000
O O6 0.613142 0.411213 0.256673
O O7 0.686323 0.454491 0.374306
O O8 0.650462 0.577798 0.283550
O O9 0.908497 0.264303 0.169858
O O10 0.873745 0.249935 0.304139
O O11 0.000000 0.317176 0.272848
O O12 0.887943 0.840522 0.454075
O O13 0.877993 0.000000 0.500000
O O14 0.500000 0.730201 0.062351
O O15 0.250000 0.700756 0.250000
#
# Coordination Sequence:
#
# PCOD8262519 Si02
#       6
#    16  16  16  16  16  16
#     4  10  20  34  58  84 114 147 190 239 282 346
#     4  10  22  36  60  83 114 155 198 242 283 347
#     4  10  21  36  57  83 118 153 188 239 294 345
#     4  10  19  35  57  86 113 144 190 244 290 336
#     4   9  19  35  55  81 113 153 185 227 294 349
#     4  11  20  36  59  88 108 151 200 235 286 343
#
# _framework density 18.843689999999999
#
# number of rings (size 3 to 8) (size 9 to 14) (size 15 to 20)
#    0.000    2.000    3.333    0.500    4.667    1.000 
#    0.000    3.333    0.000    0.500    0.000    0.000 
#    0.000    0.000    0.000    0.000    0.000    0.000 
#
# Total GULP energy -594857.510522 kJ/mol
# GULP energy per Si atom -12392.864803 kJ/mol
# Density = 1.880080 g / cm^3
# Si number density = 18.843690 Si / 1000 Ang^3
#
#
#
# Elastic Constant Matrix: (Units=GPa)
#
#
# Indices 1 2 3 4 5 6 
#
# 1 127.9867 53.9730 28.9184 0.0000 0.0000 0.0000
# 2 53.9730 90.0355 23.7981 0.0000 0.0000 0.0000
# 3 28.9184 23.7981 62.5294 0.0000 0.0000 0.0000
# 4 0.0000 0.0000 0.0000 26.8157 0.0000 0.0000
# 5 0.0000 0.0000 0.0000 0.0000 20.9800 0.0000
# 6 0.0000 0.0000 0.0000 0.0000 0.0000 17.7810
#
#
#
# Elastic Compliance Matrix: (Units=1/GPa)
#
#
# Indices 1 2 3 4 5 6 
#
# 1 0.010892 -0.005779 -0.002838 0.000000 0.000000 0.000000
# 2 -0.005779 0.015415 -0.003194 0.000000 0.000000 0.000000
# 3 -0.002838 -0.003194 0.018521 0.000000 0.000000 0.000000
# 4 0.000000 0.000000 0.000000 0.037292 0.000000 0.000000
# 5 0.000000 0.000000 0.000000 0.000000 0.047665 0.000000
# 6 0.000000 0.000000 0.000000 0.000000 0.000000 0.056240
#
#
# Mechanical properties :
#
#
# Convention : Reuss Voigt Hill
#
# Bulk Modulus (GPa) = 47.15748 54.88117 51.01932
# Shear Modulus (GPa) = 23.07193 24.70616 23.88904
#
# Velocity S-wave (km/s) = 3.50292 3.62485 3.56441
# Velocity P-wave (km/s) = 6.43743 6.83426 6.63881
#
# Compressibility (1/GPa) = 0.02120554
#
# Stress axis : x y z
#
# Youngs Moduli (GPa) = 91.81446 64.87041 53.99410
#
# Poissons Ratio (x) = 0.37489 0.15322
# Poissons Ratio (y) = 0.53060 0.17247
# Poissons Ratio (z) = 0.26054 0.20721
#
# Static dielectric constant tensor:
#      x y z
#    x 3.635190 0.000000 0.000000 
#    y 0.000000 3.822850 0.000000 
#    z 0.000000 0.000000 3.501230 
# 
# 
# High freq. dielectric constant tensor:
#      x y z
#    x 1.710830 0.000000 0.000000 
#    y 0.000000 1.733110 0.000000 
#    z 0.000000 0.000000 1.733550 
# 
# From -- ./inp_files/33288.got.cif
#   From: 2010.03.12/outbox.cif.g09.slc.cpg/sg64_17_cif.got.tgz:33288.got - 2010.04.10 20:19:32.
