data_PCOD8263077
_publ_section_title
;
Structure prediction by ZEFSAII (Michael W. Deem and Ramdas Pophale) SiO2 
 PCOD8263077
Probable space group: C M C A
;
_chemical_formula_sum "Si O2"
_cell_formula_units_Z 112
_cell_length_a 16.320839
_cell_length_b 24.578314
_cell_length_c 13.628366
_cell_angle_alpha 90.000000
_cell_angle_beta 90.000000
_cell_angle_gamma 90.000000
_cell_volume 5466.865098
_symmetry_space_group_name_H-M "C M C A"
_symmetry_group_IT_number 64
_symmetry_cell_setting 'orthorhombic'
loop_
_space_group_symop_operation_xyz
x,y,z
-x,1/2-y,1/2+z
x,-y,-z
-x,1/2+y,1/2-z
-x,-y,-z
x,1/2+y,1/2-z
-x,y,z
x,1/2-y,1/2+z
1/2+x,1/2+y,z
1/2-x,-y,1/2+z
1/2+x,1/2-y,-z
1/2-x,y,1/2-z
1/2-x,1/2-y,-z
1/2+x,y,1/2-z
1/2-x,1/2+y,z
1/2+x,-y,1/2+z
loop_
_atom_site_type_symbol
_atom_site_label
_atom_site_fract_x
_atom_site_fract_y
_atom_site_fract_z
Si Si1 0.802362 0.156770 0.465620
Si Si2 0.403786 0.322718 0.343322
Si Si3 0.406387 0.865540 0.790298
Si Si4 0.596479 0.408718 0.176285
Si Si5 0.188647 0.438995 0.517581
Si Si6 0.406782 0.473133 0.796919
Si Si7 0.813289 0.284721 0.668995
O O1 0.838765 0.161547 0.573426
O O2 0.878659 0.161193 0.391798
O O3 0.766142 0.096766 0.453238
O O4 0.733953 0.202707 0.434596
O O5 0.500000 0.332119 0.370037
O O6 0.379676 0.358194 0.247087
O O7 0.387348 0.258573 0.332367
O O8 0.500000 0.849925 0.772344
O O9 0.393264 0.931269 0.792972
O O10 0.352154 0.841869 0.701739
O O11 0.500000 0.405930 0.154803
O O12 0.644003 0.407682 0.072921
O O13 0.625218 0.465891 0.228111
O O14 0.221344 0.500000 0.500000
O O15 0.127256 0.444020 0.607195
O O16 0.500000 0.481236 0.823854
O O17 0.750000 0.262756 0.750000
#
# Coordination Sequence:
#
# PCOD8263077 Si02
#       7
#    16  16  16  16  16  16  16
#     4  11  23  38  58  88 122 155 196 246 303 357
#     4  11  24  42  60  83 123 165 201 242 300 367
#     4  10  20  38  62  87 114 151 197 242 293 358
#     4   9  20  37  58  87 120 159 200 246 300 354
#     4  10  20  35  60  92 123 155 198 253 299 358
#     4   9  17  34  61  88 119 155 196 247 300 351
#     4  10  22  40  64  85 114 151 201 258 299 345
#
# _framework density 20.487061000000001
#
# number of rings (size 3 to 8) (size 9 to 14) (size 15 to 20)
#    0.000    2.000    1.429    1.714    2.000    2.857 
#    0.000    2.857    0.000    4.286    0.000    0.000 
#    0.000    0.000    0.000    0.000    0.000    0.000 
#
# Total GULP energy -693749.132293 kJ/mol
# GULP energy per Si atom -12388.377362 kJ/mol
# Density = 2.044043 g / cm^3
# Si number density = 20.487061 Si / 1000 Ang^3
#
#
#
# Elastic Constant Matrix: (Units=GPa)
#
#
# Indices 1 2 3 4 5 6 
#
# 1 62.7217 32.3754 29.1828 0.0000 0.0000 0.0000
# 2 32.3754 96.8322 28.3282 0.0000 0.0000 0.0000
# 3 29.1828 28.3282 72.4748 0.0000 0.0000 0.0000
# 4 0.0000 0.0000 0.0000 29.7861 0.0000 0.0000
# 5 0.0000 0.0000 0.0000 0.0000 28.3055 0.0000
# 6 0.0000 0.0000 0.0000 0.0000 0.0000 26.2691
#
#
#
# Elastic Compliance Matrix: (Units=1/GPa)
#
#
# Indices 1 2 3 4 5 6 
#
# 1 0.021813 -0.005333 -0.006699 0.000000 0.000000 0.000000
# 2 -0.005333 0.012965 -0.002920 0.000000 0.000000 0.000000
# 3 -0.006699 -0.002920 0.017636 0.000000 0.000000 0.000000
# 4 0.000000 0.000000 0.000000 0.033573 0.000000 0.000000
# 5 0.000000 0.000000 0.000000 0.000000 0.035329 0.000000
# 6 0.000000 0.000000 0.000000 0.000000 0.000000 0.038068
#
#
# Mechanical properties :
#
#
# Convention : Reuss Voigt Hill
#
# Bulk Modulus (GPa) = 44.42420 45.75575 45.08997
# Shear Modulus (GPa) = 25.40771 26.34828 25.87799
#
# Velocity S-wave (km/s) = 3.52544 3.59011 3.55792
# Velocity P-wave (km/s) = 6.18892 6.29028 6.23981
#
# Compressibility (1/GPa) = 0.02251025
#
# Stress axis : x y z
#
# Youngs Moduli (GPa) = 45.84395 77.13326 56.70065
#
# Poissons Ratio (x) = 0.41139 0.37982
# Poissons Ratio (y) = 0.24451 0.16556
# Poissons Ratio (z) = 0.30709 0.22522
#
# Static dielectric constant tensor:
#      x y z
#    x 3.619950 0.000000 0.000000 
#    y 0.000000 4.025040 0.000000 
#    z 0.000000 0.000000 3.552560 
# 
# 
# High freq. dielectric constant tensor:
#      x y z
#    x 1.799900 0.000000 0.000000 
#    y 0.000000 1.809110 0.000000 
#    z 0.000000 0.000000 1.784540 
# 
# From -- ./inp_files/24386.got.cif
#   From: 2010.03.12/outbox.cif.g09.slc.cpg/sg64_13_cif.got.tgz:24386.got - 2010.04.10 20:19:32.
