data_PCOD8263361
_publ_section_title
;
Structure prediction by ZEFSAII (Michael W. Deem and Ramdas Pophale) SiO2 
 PCOD8263361
Probable space group: C M C A
;
_chemical_formula_sum "Si O2"
_cell_formula_units_Z 96
_cell_length_a 26.974392
_cell_length_b 7.797412
_cell_length_c 20.628856
_cell_angle_alpha 90.000000
_cell_angle_beta 90.000000
_cell_angle_gamma 90.000000
_cell_volume 4338.876522
_symmetry_space_group_name_H-M "C M C A"
_symmetry_group_IT_number 64
_symmetry_cell_setting 'orthorhombic'
loop_
_space_group_symop_operation_xyz
x,y,z
-x,1/2-y,1/2+z
x,-y,-z
-x,1/2+y,1/2-z
-x,-y,-z
x,1/2+y,1/2-z
-x,y,z
x,1/2-y,1/2+z
1/2+x,1/2+y,z
1/2-x,-y,1/2+z
1/2+x,1/2-y,-z
1/2-x,y,1/2-z
1/2-x,1/2-y,-z
1/2+x,y,1/2-z
1/2-x,1/2+y,z
1/2+x,-y,1/2+z
loop_
_atom_site_type_symbol
_atom_site_label
_atom_site_fract_x
_atom_site_fract_y
_atom_site_fract_z
Si Si1 0.444628 0.904190 0.809192
Si Si2 0.309545 0.872337 0.372348
Si Si3 0.362436 0.704095 0.114963
Si Si4 0.289883 0.501910 0.425361
Si Si5 0.624377 0.832553 0.253181
Si Si6 0.444859 0.407436 0.438711
O O1 0.500000 0.933308 0.778675
O O2 0.425087 0.713272 0.795863
O O3 0.396070 0.994717 0.778446
O O4 0.446649 0.946274 0.884294
O O5 0.311857 0.689265 0.408307
O O6 0.326590 0.850694 0.297579
O O7 0.345041 0.014373 0.406822
O O8 0.254766 0.954326 0.376542
O O9 0.361639 0.706928 0.193281
O O10 0.417200 0.737188 0.086482
O O11 0.330700 0.857117 0.083957
O O12 0.271501 0.500000 0.500000
O O13 0.418829 0.500000 0.500000
O O14 0.500000 0.346041 0.457522
#
# Coordination Sequence:
#
# PCOD8263361 Si02
#       6
#    16  16  16  16  16  16
#     4  10  20  37  64  94 132 176 217 274 333 402
#     4  12  25  44  67  96 136 178 226 289 340 409
#     4  11  24  43  67 100 136 177 226 285 343 414
#     4  12  27  48  70  97 131 182 236 286 344 410
#     4  11  22  42  60  98 136 171 223 274 343 411
#     4   9  19  39  67 100 136 177 224 280 344 407
#
# _framework density 22.125544000000001
#
# number of rings (size 3 to 8) (size 9 to 14) (size 15 to 20)
#    0.000    1.167    3.333    3.500    0.000    1.333 
#    0.000    0.000    0.000    1.000    0.000    7.000 
#    0.000    0.000    0.000    0.000    0.000    0.000 
#
# Total GULP energy -594716.650412 kJ/mol
# GULP energy per Si atom -12389.930217 kJ/mol
# Density = 2.207519 g / cm^3
# Si number density = 22.125544 Si / 1000 Ang^3
#
#
#
# Elastic Constant Matrix: (Units=GPa)
#
#
# Indices 1 2 3 4 5 6 
#
# 1 95.9334 28.2334 55.2923 0.0000 0.0000 0.0000
# 2 28.2334 108.1057 41.6593 0.0000 0.0000 0.0000
# 3 55.2923 41.6593 111.4325 0.0000 0.0000 0.0000
# 4 0.0000 0.0000 0.0000 22.5621 0.0000 0.0000
# 5 0.0000 0.0000 0.0000 0.0000 37.1666 0.0000
# 6 0.0000 0.0000 0.0000 0.0000 0.0000 30.5155
#
#
#
# Elastic Compliance Matrix: (Units=1/GPa)
#
#
# Indices 1 2 3 4 5 6 
#
# 1 0.014732 -0.001204 -0.006860 0.000000 0.000000 0.000000
# 2 -0.001204 0.010906 -0.003480 0.000000 0.000000 0.000000
# 3 -0.006860 -0.003480 0.013679 0.000000 0.000000 0.000000
# 4 0.000000 0.000000 0.000000 0.044322 0.000000 0.000000
# 5 0.000000 0.000000 0.000000 0.000000 0.026906 0.000000
# 6 0.000000 0.000000 0.000000 0.000000 0.000000 0.032770
#
#
# Mechanical properties :
#
#
# Convention : Reuss Voigt Hill
#
# Bulk Modulus (GPa) = 61.61684 62.87128 62.24406
# Shear Modulus (GPa) = 29.10174 30.73463 29.91818
#
# Velocity S-wave (km/s) = 3.63064 3.73111 3.68122
# Velocity P-wave (km/s) = 6.74423 6.85849 6.80160
#
# Compressibility (1/GPa) = 0.01622933
#
# Stress axis : x y z
#
# Youngs Moduli (GPa) = 67.87959 91.69636 73.10622
#
# Poissons Ratio (x) = 0.11040 0.50150
# Poissons Ratio (y) = 0.08173 0.25438
# Poissons Ratio (z) = 0.46564 0.31907
#
# Static dielectric constant tensor:
#      x y z
#    x 4.130080 0.000000 0.000000 
#    y 0.000000 4.190840 0.000000 
#    z 0.000000 0.000000 4.060530 
# 
# 
# High freq. dielectric constant tensor:
#      x y z
#    x 1.874980 0.000000 0.000000 
#    y 0.000000 1.868670 0.000000 
#    z 0.000000 0.000000 1.865230 
# 
# From -- ./inp_files/41774.got.cif
#   From: 2010.03.12/outbox.cif.g09.slc.cpg/sg64_21_cif.got.tgz:41774.got - 2010.04.10 20:19:32.
