data_PCOD8263805
_publ_section_title
;
Structure prediction by ZEFSAII (Michael W. Deem and Ramdas Pophale) SiO2 
 PCOD8263805
Probable space group: C M C A
;
_chemical_formula_sum "Si O2"
_cell_formula_units_Z 72
_cell_length_a 23.413716
_cell_length_b 32.240561
_cell_length_c 4.850798
_cell_angle_alpha 90.000000
_cell_angle_beta 90.000000
_cell_angle_gamma 90.000000
_cell_volume 3661.728381
_symmetry_space_group_name_H-M "C M C A"
_symmetry_group_IT_number 64
_symmetry_cell_setting 'orthorhombic'
loop_
_space_group_symop_operation_xyz
x,y,z
-x,1/2-y,1/2+z
x,-y,-z
-x,1/2+y,1/2-z
-x,-y,-z
x,1/2+y,1/2-z
-x,y,z
x,1/2-y,1/2+z
1/2+x,1/2+y,z
1/2-x,-y,1/2+z
1/2+x,1/2-y,-z
1/2-x,y,1/2-z
1/2-x,1/2-y,-z
1/2+x,y,1/2-z
1/2-x,1/2+y,z
1/2+x,-y,1/2+z
loop_
_atom_site_type_symbol
_atom_site_label
_atom_site_fract_x
_atom_site_fract_y
_atom_site_fract_z
Si Si1 0.500000 0.722903 0.409773
Si Si2 0.563282 0.972337 0.237435
Si Si3 0.403576 0.337496 0.524620
Si Si4 0.434844 0.111851 0.522806
Si Si5 0.683213 0.276644 0.281669
O O1 0.500000 0.764393 0.229098
O O2 0.443231 0.697320 0.337082
O O3 0.500000 0.960522 0.122314
O O4 0.593438 0.929511 0.336918
O O5 0.557708 0.000000 0.500000
O O6 0.595385 0.000000 0.000000
O O7 0.396036 0.372990 0.761730
O O8 0.344537 0.318516 0.404958
O O9 0.437004 0.354163 0.260388
O O10 0.500000 0.103348 0.419578
O O11 0.664720 0.237624 0.476175
O O12 0.750000 0.285471 0.250000
#
# Coordination Sequence:
#
# PCOD8263805 Si02
#       5
#     8  16  16  16  16
#     4  12  22  32  46  66  96 132 168 206 260 328
#     4   9  17  29  46  67  95 136 176 204 236 299
#     4  12  21  34  50  73 102 134 172 220 271 323
#     4  11  20  33  48  73 107 138 169 211 267 314
#     4  10  21  38  56  72  94 131 179 229 273 316
#
# _framework density 19.662848
#
# number of rings (size 3 to 8) (size 9 to 14) (size 15 to 20)
#    0.000    1.333    2.222    5.333    0.000    3.556 
#    0.000    0.000    0.000    0.000    0.000    0.000 
#    0.000    5.333    0.000    0.444    0.000    0.222 
#
# Total GULP energy -446009.287022 kJ/mol
# GULP energy per Si atom -12389.146862 kJ/mol
# Density = 1.961809 g / cm^3
# Si number density = 19.662848 Si / 1000 Ang^3
#
#
#
# Elastic Constant Matrix: (Units=GPa)
#
#
# Indices 1 2 3 4 5 6 
#
# 1 50.5508 40.8100 30.8682 0.0000 0.0000 0.0000
# 2 40.8100 106.7719 47.1837 0.0000 0.0000 0.0000
# 3 30.8682 47.1837 120.2342 0.0000 0.0000 0.0000
# 4 0.0000 0.0000 0.0000 54.0306 0.0000 0.0000
# 5 0.0000 0.0000 0.0000 0.0000 20.7554 0.0000
# 6 0.0000 0.0000 0.0000 0.0000 0.0000 17.2923
#
#
#
# Elastic Compliance Matrix: (Units=1/GPa)
#
#
# Indices 1 2 3 4 5 6 
#
# 1 0.030034 -0.009766 -0.003878 0.000000 0.000000 0.000000
# 2 -0.009766 0.014506 -0.003185 0.000000 0.000000 0.000000
# 3 -0.003878 -0.003185 0.010563 0.000000 0.000000 0.000000
# 4 0.000000 0.000000 0.000000 0.018508 0.000000 0.000000
# 5 0.000000 0.000000 0.000000 0.000000 0.048180 0.000000
# 6 0.000000 0.000000 0.000000 0.000000 0.000000 0.057829
#
#
# Mechanical properties :
#
#
# Convention : Reuss Voigt Hill
#
# Bulk Modulus (GPa) = 46.63293 57.25342 51.94317
# Shear Modulus (GPa) = 22.68315 28.99533 25.83924
#
# Velocity S-wave (km/s) = 3.40016 3.84425 3.62900
# Velocity P-wave (km/s) = 6.25960 6.99179 6.63580
#
# Compressibility (1/GPa) = 0.02144408
#
# Stress axis : x y z
#
# Youngs Moduli (GPa) = 33.29528 68.93682 94.67091
#
# Poissons Ratio (x) = 0.67321 0.36718
# Poissons Ratio (y) = 0.32515 0.30157
# Poissons Ratio (z) = 0.12913 0.21959
#
# Static dielectric constant tensor:
#      x y z
#    x 3.058540 0.000000 0.000000 
#    y 0.000000 3.634380 0.000000 
#    z 0.000000 0.000000 3.833030 
# 
# 
# High freq. dielectric constant tensor:
#      x y z
#    x 1.684870 0.000000 0.000000 
#    y 0.000000 1.768160 0.000000 
#    z 0.000000 0.000000 1.796160 
# 
# From -- ./inp_files/2268.got.cif
#   From: 2010.03.12/outbox.cif.g09.slc.cpg/sg64_2_cif.got.tgz:2268.got - 2010.04.10 20:19:32.
