data_PCOD8263745
_publ_section_title
;
Structure prediction by ZEFSAII (Michael W. Deem and Ramdas Pophale) SiO2 
 PCOD8263745
Probable space group: C M C A
;
_chemical_formula_sum "Si O2"
_cell_formula_units_Z 64
_cell_length_a 13.856037
_cell_length_b 10.417205
_cell_length_c 21.300620
_cell_angle_alpha 90.000000
_cell_angle_beta 90.000000
_cell_angle_gamma 90.000000
_cell_volume 3074.556581
_symmetry_space_group_name_H-M "C M C A"
_symmetry_group_IT_number 64
_symmetry_cell_setting 'orthorhombic'
loop_
_space_group_symop_operation_xyz
x,y,z
-x,1/2-y,1/2+z
x,-y,-z
-x,1/2+y,1/2-z
-x,-y,-z
x,1/2+y,1/2-z
-x,y,z
x,1/2-y,1/2+z
1/2+x,1/2+y,z
1/2-x,-y,1/2+z
1/2+x,1/2-y,-z
1/2-x,y,1/2-z
1/2-x,1/2-y,-z
1/2+x,y,1/2-z
1/2-x,1/2+y,z
1/2+x,-y,1/2+z
loop_
_atom_site_type_symbol
_atom_site_label
_atom_site_fract_x
_atom_site_fract_y
_atom_site_fract_z
Si Si1 0.158680 0.888524 0.788729
Si Si2 0.750902 0.257025 0.602376
Si Si3 0.396824 0.336660 0.200021
Si Si4 0.892243 0.851240 0.496798
O O1 0.250000 0.932074 0.750000
O O2 0.189553 0.867695 0.861526
O O3 0.114589 0.756468 0.760592
O O4 0.090765 0.013096 0.781759
O O5 0.694514 0.172782 0.653988
O O6 0.831422 0.176984 0.565688
O O7 0.668256 0.309164 0.557027
O O8 0.500000 0.298131 0.168653
O O9 0.000000 0.786139 0.495149
O O10 0.908754 0.000000 0.500000
#
# Coordination Sequence:
#
# PCOD8263745 Si02
#       4
#    16  16  16  16
#     4  10  21  38  58  83 117 154 190 233 285 340
#     4  10  21  38  58  82 115 151 189 235 286 337
#     4  11  22  37  59  87 118 152 191 234 284 341
#     4  10  21  37  58  83 111 148 192 235 282 337
#
# _framework density 20.816009999999999
#
# number of rings (size 3 to 8) (size 9 to 14) (size 15 to 20)
#    0.000    1.750    0.000    5.250    0.000    4.000 
#    0.000    5.000    0.000    8.250    0.000    0.000 
#    0.000    0.000    0.000    0.000    0.000    0.000 
#
# Total GULP energy -396428.662570 kJ/mol
# GULP energy per Si atom -12388.395705 kJ/mol
# Density = 2.076863 g / cm^3
# Si number density = 20.816010 Si / 1000 Ang^3
#
#
#
# Elastic Constant Matrix: (Units=GPa)
#
#
# Indices 1 2 3 4 5 6 
#
# 1 152.5186 42.8468 46.5493 0.0000 0.0000 0.0000
# 2 42.8468 115.5261 37.2404 0.0000 0.0000 0.0000
# 3 46.5493 37.2404 100.3110 0.0000 0.0000 0.0000
# 4 0.0000 0.0000 0.0000 14.5746 0.0000 0.0000
# 5 0.0000 0.0000 0.0000 0.0000 19.1096 0.0000
# 6 0.0000 0.0000 0.0000 0.0000 0.0000 0.8196
#
#
#
# Elastic Compliance Matrix: (Units=1/GPa)
#
#
# Indices 1 2 3 4 5 6 
#
# 1 0.008033 -0.002019 -0.002978 0.000000 0.000000 0.000000
# 2 -0.002019 0.010340 -0.002902 0.000000 0.000000 0.000000
# 3 -0.002978 -0.002902 0.012428 0.000000 0.000000 0.000000
# 4 0.000000 0.000000 0.000000 0.068613 0.000000 0.000000
# 5 0.000000 0.000000 0.000000 0.000000 0.052330 0.000000
# 6 0.000000 0.000000 0.000000 0.000000 0.000000 1.220126
#
#
# Mechanical properties :
#
#
# Convention : Reuss Voigt Hill
#
# Bulk Modulus (GPa) = 66.65211 69.06985 67.86098
# Shear Modulus (GPa) = 3.59023 23.01536 13.30279
#
# Velocity S-wave (km/s) = 1.31472 3.32875 2.53072
# Velocity P-wave (km/s) = 5.86462 6.93017 6.41954
#
# Compressibility (1/GPa) = 0.01500328
#
# Stress axis : x y z
#
# Youngs Moduli (GPa) = 124.49081 96.70818 80.46217
#
# Poissons Ratio (x) = 0.19528 0.23961
# Poissons Ratio (y) = 0.25138 0.23349
# Poissons Ratio (z) = 0.37072 0.28063
#
# Static dielectric constant tensor:
#      x y z
#    x 4.094720 0.000000 0.000000 
#    y 0.000000 3.574920 0.000000 
#    z 0.000000 0.000000 4.377000 
# 
# 
# High freq. dielectric constant tensor:
#      x y z
#    x 1.837810 0.000000 0.000000 
#    y 0.000000 1.806150 0.000000 
#    z 0.000000 0.000000 1.805740 
# 
# From -- ./inp_files/37710.got.cif
#   From: 2010.03.12/outbox.cif.g09.slc.cpg/sg64_19_cif.got.tgz:37710.got - 2010.04.10 20:19:32.
