data_PCOD8263433
_publ_section_title
;
Structure prediction by ZEFSAII (Michael W. Deem and Ramdas Pophale) SiO2 
 PCOD8263433
Probable space group: C M C A
;
_chemical_formula_sum "Si O2"
_cell_formula_units_Z 80
_cell_length_a 17.956394
_cell_length_b 21.420794
_cell_length_c 11.334638
_cell_angle_alpha 90.000000
_cell_angle_beta 90.000000
_cell_angle_gamma 90.000000
_cell_volume 4359.757618
_symmetry_space_group_name_H-M "C M C A"
_symmetry_group_IT_number 64
_symmetry_cell_setting 'orthorhombic'
loop_
_space_group_symop_operation_xyz
x,y,z
-x,1/2-y,1/2+z
x,-y,-z
-x,1/2+y,1/2-z
-x,-y,-z
x,1/2+y,1/2-z
-x,y,z
x,1/2-y,1/2+z
1/2+x,1/2+y,z
1/2-x,-y,1/2+z
1/2+x,1/2-y,-z
1/2-x,y,1/2-z
1/2-x,1/2-y,-z
1/2+x,y,1/2-z
1/2-x,1/2+y,z
1/2+x,-y,1/2+z
loop_
_atom_site_type_symbol
_atom_site_label
_atom_site_fract_x
_atom_site_fract_y
_atom_site_fract_z
Si Si1 0.500000 0.696681 0.442937
Si Si2 0.124387 0.000000 0.000000
Si Si3 0.378815 0.213944 0.639371
Si Si4 0.500000 0.617125 0.208480
Si Si5 0.000000 0.348617 0.202216
Si Si6 0.250000 0.795478 0.750000
Si Si7 0.152571 0.629478 0.426788
Si Si8 0.500000 0.475249 0.176310
O O1 0.426924 0.739276 0.440379
O O2 0.500000 0.649961 0.333514
O O3 0.500000 0.657675 0.562328
O O4 0.072597 0.965504 0.095861
O O5 0.172903 0.055681 0.057570
O O6 0.427218 0.183851 0.743684
O O7 0.311960 0.251253 0.696594
O O8 0.346576 0.160786 0.554850
O O9 0.428101 0.637692 0.133784
O O10 0.500000 0.543464 0.234810
O O11 0.000000 0.422653 0.224079
O O12 0.217139 0.840372 0.849721
#
# Coordination Sequence:
#
# PCOD8263433 Si02
#       8
#     8   8  16   8   8   8  16   8
#     4  11  22  35  59  88 122 147 193 244 303 335
#     4   9  18  36  64  86 108 147 198 244 280 347
#     4  11  23  38  59  87 118 158 191 242 288 356
#     4  10  20  38  63  88 114 154 194 247 294 341
#     4  11  21  37  62  91 113 148 196 250 289 340
#     4  12  24  38  58  86 126 158 188 232 306 352
#     4  11  21  39  63  86 116 153 202 241 288 346
#     4   9  17  34  64  90 107 144 196 243 294 334
#
# _framework density 18.349644000000001
#
# number of rings (size 3 to 8) (size 9 to 14) (size 15 to 20)
#    0.000    1.400    4.000    3.600    2.800    0.400 
#    0.000    1.000    8.800    0.000    0.000    0.000 
#    0.000    0.000    0.000    0.000    0.000    0.000 
#
# Total GULP energy -496098.573882 kJ/mol
# GULP energy per Si atom -12402.464347 kJ/mol
# Density = 1.830788 g / cm^3
# Si number density = 18.349644 Si / 1000 Ang^3
#
#
#
# Elastic Constant Matrix: (Units=GPa)
#
#
# Indices 1 2 3 4 5 6 
#
# 1 84.6017 43.5633 19.4902 0.0000 0.0000 0.0000
# 2 43.5633 120.5657 48.2672 0.0000 0.0000 0.0000
# 3 19.4902 48.2672 93.8559 0.0000 0.0000 0.0000
# 4 0.0000 0.0000 0.0000 18.8043 0.0000 0.0000
# 5 0.0000 0.0000 0.0000 0.0000 27.7370 0.0000
# 6 0.0000 0.0000 0.0000 0.0000 0.0000 -10.0373
#
#
#
# Elastic Compliance Matrix: (Units=1/GPa)
#
#
# Indices 1 2 3 4 5 6 
#
# 1 0.014534 -0.005091 -0.000400 0.000000 0.000000 0.000000
# 2 -0.005091 0.012228 -0.005231 0.000000 0.000000 0.000000
# 3 -0.000400 -0.005231 0.013428 0.000000 0.000000 0.000000
# 4 0.000000 0.000000 0.000000 0.053179 0.000000 0.000000
# 5 0.000000 0.000000 0.000000 0.000000 0.036053 0.000000
# 6 0.000000 0.000000 0.000000 0.000000 0.000000 -0.099628
#
#
# Mechanical properties :
#
#
# Convention : Reuss Voigt Hill
#
# Bulk Modulus (GPa) = 53.34734 57.96273 55.65504
# Shear Modulus (GPa) = 86.97595 19.81431 53.39513
#
# Velocity S-wave (km/s) = 6.89218 3.28963 5.40018
# Velocity P-wave (km/s) = 9.61624 6.78862 8.32338
#
# Compressibility (1/GPa) = 0.01874508
#
# Stress axis : x y z
#
# Youngs Moduli (GPa) = 68.80485 81.77852 74.47168
#
# Poissons Ratio (x) = 0.41637 0.02977
# Poissons Ratio (y) = 0.35031 0.38958
# Poissons Ratio (z) = 0.02751 0.42781
#
# Static dielectric constant tensor:
#      x y z
#    x 3.249040 0.000000 0.000000 
#    y 0.000000 3.529950 0.000000 
#    z 0.000000 0.000000 3.288000 
# 
# 
# High freq. dielectric constant tensor:
#      x y z
#    x 1.692490 0.000000 0.000000 
#    y 0.000000 1.727940 0.000000 
#    z 0.000000 0.000000 1.709420 
# 
# From -- ./inp_files/14559.got.cif
#   From: 2010.03.12/outbox.cif.g09.slc.cpg/sg64_8_cif.got.tgz:14559.got - 2010.04.10 20:19:32.
