data_PCOD8263186
_publ_section_title
;
Structure prediction by ZEFSAII (Michael W. Deem and Ramdas Pophale) SiO2 
 PCOD8263186
Probable space group: C M C A
;
_chemical_formula_sum "Si O2"
_cell_formula_units_Z 96
_cell_length_a 8.899768
_cell_length_b 28.603103
_cell_length_c 20.420077
_cell_angle_alpha 90.000000
_cell_angle_beta 90.000000
_cell_angle_gamma 90.000000
_cell_volume 5198.154829
_symmetry_space_group_name_H-M "C M C A"
_symmetry_group_IT_number 64
_symmetry_cell_setting 'orthorhombic'
loop_
_space_group_symop_operation_xyz
x,y,z
-x,1/2-y,1/2+z
x,-y,-z
-x,1/2+y,1/2-z
-x,-y,-z
x,1/2+y,1/2-z
-x,y,z
x,1/2-y,1/2+z
1/2+x,1/2+y,z
1/2-x,-y,1/2+z
1/2+x,1/2-y,-z
1/2-x,y,1/2-z
1/2-x,1/2-y,-z
1/2+x,y,1/2-z
1/2-x,1/2+y,z
1/2+x,-y,1/2+z
loop_
_atom_site_type_symbol
_atom_site_label
_atom_site_fract_x
_atom_site_fract_y
_atom_site_fract_z
Si Si1 0.322686 0.724511 0.319374
Si Si2 0.323996 0.775308 0.061310
Si Si3 0.677644 0.968099 0.683203
Si Si4 0.673732 0.120700 0.979168
Si Si5 0.822385 0.470939 0.438432
Si Si6 0.676071 0.122428 0.128954
O O1 0.500000 0.732738 0.316547
O O2 0.250000 0.736500 0.250000
O O3 0.252401 0.759526 0.371834
O O4 0.282655 0.671864 0.339442
O O5 0.500000 0.763375 0.061557
O O6 0.294936 0.830399 0.055807
O O7 0.250000 0.750000 0.000000
O O8 0.500000 0.967489 0.689897
O O9 0.750000 0.986669 0.750000
O O10 0.732089 0.915855 0.668742
O O11 0.733267 0.003246 0.626886
O O12 0.500000 0.107554 0.978161
O O13 0.761525 0.081541 0.938673
O O14 0.731199 0.122805 0.053927
O O15 0.757634 0.500000 0.500000
O O16 0.000000 0.468849 0.441836
O O17 0.500000 0.111647 0.134604
#
# Coordination Sequence:
#
# PCOD8263186 Si02
#       6
#    16  16  16  16  16  16
#     4  11  23  40  59  87 122 158 198 241 293 353
#     4  11  22  39  61  88 119 155 198 244 291 347
#     4  11  23  38  57  84 118 153 192 236 287 346
#     4  10  21  37  59  89 118 147 191 240 285 341
#     4  10  21  38  58  84 115 149 192 237 283 340
#     4  10  20  36  58  87 121 151 188 236 289 347
#
# _framework density 18.468091999999999
#
# number of rings (size 3 to 8) (size 9 to 14) (size 15 to 20)
#    0.000    1.500    3.333    2.000    0.000    5.667 
#    0.000    0.833    0.000    2.000    0.000    0.000 
#    0.000    0.000    0.000    0.000    0.000    0.000 
#
# Total GULP energy -595460.570470 kJ/mol
# GULP energy per Si atom -12405.428551 kJ/mol
# Density = 1.842606 g / cm^3
# Si number density = 18.468092 Si / 1000 Ang^3
#
#
#
# Elastic Constant Matrix: (Units=GPa)
#
#
# Indices 1 2 3 4 5 6 
#
# 1 64.3265 46.7908 54.2362 0.0000 0.0000 0.0000
# 2 46.7908 101.2886 69.3740 0.0000 0.0000 0.0000
# 3 54.2362 69.3740 167.9908 0.0000 0.0000 0.0000
# 4 0.0000 0.0000 0.0000 29.0749 0.0000 0.0000
# 5 0.0000 0.0000 0.0000 0.0000 34.3160 0.0000
# 6 0.0000 0.0000 0.0000 0.0000 0.0000 33.3465
#
#
#
# Elastic Compliance Matrix: (Units=1/GPa)
#
#
# Indices 1 2 3 4 5 6 
#
# 1 0.025890 -0.008694 -0.004768 0.000000 0.000000 0.000000
# 2 -0.008694 0.016686 -0.004084 0.000000 0.000000 0.000000
# 3 -0.004768 -0.004084 0.009179 0.000000 0.000000 0.000000
# 4 0.000000 0.000000 0.000000 0.034394 0.000000 0.000000
# 5 0.000000 0.000000 0.000000 0.000000 0.029141 0.000000
# 6 0.000000 0.000000 0.000000 0.000000 0.000000 0.029988
#
#
# Mechanical properties :
#
#
# Convention : Reuss Voigt Hill
#
# Bulk Modulus (GPa) = 60.01577 74.93420 67.47499
# Shear Modulus (GPa) = 26.89259 30.22781 28.56020
#
# Velocity S-wave (km/s) = 3.82011 4.05008 3.93677
# Velocity P-wave (km/s) = 7.21285 7.90784 7.56833
#
# Compressibility (1/GPa) = 0.01666229
#
# Stress axis : x y z
#
# Youngs Moduli (GPa) = 38.62471 59.92978 108.94864
#
# Poissons Ratio (x) = 0.52104 0.51950
# Poissons Ratio (y) = 0.33581 0.44493
# Poissons Ratio (z) = 0.18417 0.24474
#
# Static dielectric constant tensor:
#      x y z
#    x 3.400210 0.000000 0.000000 
#    y 0.000000 3.419950 0.000000 
#    z 0.000000 0.000000 3.633820 
# 
# 
# High freq. dielectric constant tensor:
#      x y z
#    x 1.720190 0.000000 0.000000 
#    y 0.000000 1.716050 0.000000 
#    z 0.000000 0.000000 1.722180 
# 
# From -- ./inp_files/37093.got.cif
#   From: 2010.03.12/outbox.cif.g09.slc.cpg/sg64_19_cif.got.tgz:37093.got - 2010.04.10 20:19:32.
