data_PCOD8263959
_publ_section_title
;
Structure prediction by ZEFSAII (Michael W. Deem and Ramdas Pophale) SiO2 
 PCOD8263959
Probable space group: C M C A
;
_chemical_formula_sum "Si O2"
_cell_formula_units_Z 96
_cell_length_a 13.540245
_cell_length_b 17.881552
_cell_length_c 19.173845
_cell_angle_alpha 90.000000
_cell_angle_beta 90.000000
_cell_angle_gamma 90.000000
_cell_volume 4642.382761
_symmetry_space_group_name_H-M "C M C A"
_symmetry_group_IT_number 64
_symmetry_cell_setting 'orthorhombic'
loop_
_space_group_symop_operation_xyz
x,y,z
-x,1/2-y,1/2+z
x,-y,-z
-x,1/2+y,1/2-z
-x,-y,-z
x,1/2+y,1/2-z
-x,y,z
x,1/2-y,1/2+z
1/2+x,1/2+y,z
1/2-x,-y,1/2+z
1/2+x,1/2-y,-z
1/2-x,y,1/2-z
1/2-x,1/2-y,-z
1/2+x,y,1/2-z
1/2-x,1/2+y,z
1/2+x,-y,1/2+z
loop_
_atom_site_type_symbol
_atom_site_label
_atom_site_fract_x
_atom_site_fract_y
_atom_site_fract_z
Si Si1 0.886173 0.065155 0.712620
Si Si2 0.201446 0.152642 0.097998
Si Si3 0.383540 0.736653 0.709146
Si Si4 0.611795 0.777221 0.860637
Si Si5 0.697561 0.488050 0.145126
Si Si6 0.387547 0.130874 0.549493
O O1 0.851980 0.150481 0.702748
O O2 0.814047 0.016993 0.663316
O O3 0.871880 0.040666 0.792548
O O4 0.000000 0.051823 0.691052
O O5 0.155445 0.219513 0.142677
O O6 0.320142 0.163940 0.097701
O O7 0.170884 0.073769 0.130642
O O8 0.162393 0.161424 0.020210
O O9 0.500000 0.742149 0.712091
O O10 0.343947 0.770737 0.782128
O O11 0.500000 0.808194 0.862371
O O12 0.616805 0.695016 0.892898
O O13 0.672895 0.440970 0.076078
O O14 0.500000 0.107076 0.534085
#
# Coordination Sequence:
#
# PCOD8263959 Si02
#       6
#    16  16  16  16  16  16
#     4  10  22  41  64  88 123 168 215 259 306 374
#     4  12  25  38  62  98 129 162 207 265 315 373
#     4  10  21  39  63  91 121 161 211 261 310 365
#     4  10  22  40  63  88 123 168 211 257 314 369
#     4  11  24  39  62  95 127 166 208 254 321 375
#     4  11  23  44  67  90 125 170 211 257 316 379
#
# _framework density 20.679036
#
# number of rings (size 3 to 8) (size 9 to 14) (size 15 to 20)
#    0.000    1.333    1.667    3.500    7.000    4.000 
#    0.000    2.500    0.000    2.000    0.000    0.000 
#    0.000    0.000    0.000    0.000    0.000    0.000 
#
# Total GULP energy -595430.689437 kJ/mol
# GULP energy per Si atom -12404.806030 kJ/mol
# Density = 2.063197 g / cm^3
# Si number density = 20.679036 Si / 1000 Ang^3
#
#
#
# Elastic Constant Matrix: (Units=GPa)
#
#
# Indices 1 2 3 4 5 6 
#
# 1 20.3497 5.9898 21.9922 0.0000 0.0000 0.0000
# 2 5.9898 71.5687 11.4491 0.0000 0.0000 0.0000
# 3 21.9922 11.4491 82.5764 0.0000 0.0000 0.0000
# 4 0.0000 0.0000 0.0000 25.4197 0.0000 0.0000
# 5 0.0000 0.0000 0.0000 0.0000 28.5799 0.0000
# 6 0.0000 0.0000 0.0000 0.0000 0.0000 13.6700
#
#
#
# Elastic Compliance Matrix: (Units=1/GPa)
#
#
# Indices 1 2 3 4 5 6 
#
# 1 0.069594 -0.002924 -0.018129 0.000000 0.000000 0.000000
# 2 -0.002924 0.014412 -0.001219 0.000000 0.000000 0.000000
# 3 -0.018129 -0.001219 0.017107 0.000000 0.000000 0.000000
# 4 0.000000 0.000000 0.000000 0.039340 0.000000 0.000000
# 5 0.000000 0.000000 0.000000 0.000000 0.034990 0.000000
# 6 0.000000 0.000000 0.000000 0.000000 0.000000 0.073153
#
#
# Mechanical properties :
#
#
# Convention : Reuss Voigt Hill
#
# Bulk Modulus (GPa) = 17.67788 28.15078 22.91433
# Shear Modulus (GPa) = 16.02576 22.53817 19.28196
#
# Velocity S-wave (km/s) = 2.78686 3.30495 3.05690
# Velocity P-wave (km/s) = 4.35002 5.31097 4.85433
#
# Compressibility (1/GPa) = 0.05656785
#
# Stress axis : x y z
#
# Youngs Moduli (GPa) = 14.36904 69.38464 58.45449
#
# Poissons Ratio (x) = 0.20291 1.05973
# Poissons Ratio (y) = 0.04202 0.07128
# Poissons Ratio (z) = 0.26050 0.08461
#
# Static dielectric constant tensor:
#      x y z
#    x 3.982940 0.000000 0.000000 
#    y 0.000000 3.618790 0.000000 
#    z 0.000000 0.000000 3.657020 
# 
# 
# High freq. dielectric constant tensor:
#      x y z
#    x 1.825000 0.000000 0.000000 
#    y 0.000000 1.803380 0.000000 
#    z 0.000000 0.000000 1.803240 
# 
# From -- ./inp_files/39251.got.cif
#   From: 2010.03.12/outbox.cif.g09.slc.cpg/sg64_20_cif.got.tgz:39251.got - 2010.04.10 20:19:32.
