data_PCOD8263858
_publ_section_title
;
Structure prediction by ZEFSAII (Michael W. Deem and Ramdas Pophale) SiO2 
 PCOD8263858
Probable space group: C M C A
;
_chemical_formula_sum "Si O2"
_cell_formula_units_Z 96
_cell_length_a 8.654779
_cell_length_b 19.618356
_cell_length_c 29.209229
_cell_angle_alpha 90.000000
_cell_angle_beta 90.000000
_cell_angle_gamma 90.000000
_cell_volume 4959.509053
_symmetry_space_group_name_H-M "C M C A"
_symmetry_group_IT_number 64
_symmetry_cell_setting 'orthorhombic'
loop_
_space_group_symop_operation_xyz
x,y,z
-x,1/2-y,1/2+z
x,-y,-z
-x,1/2+y,1/2-z
-x,-y,-z
x,1/2+y,1/2-z
-x,y,z
x,1/2-y,1/2+z
1/2+x,1/2+y,z
1/2-x,-y,1/2+z
1/2+x,1/2-y,-z
1/2-x,y,1/2-z
1/2-x,1/2-y,-z
1/2+x,y,1/2-z
1/2-x,1/2+y,z
1/2+x,-y,1/2+z
loop_
_atom_site_type_symbol
_atom_site_label
_atom_site_fract_x
_atom_site_fract_y
_atom_site_fract_z
Si Si1 0.324198 0.564822 0.031524
Si Si2 0.818242 0.013253 0.376757
Si Si3 0.680962 0.260841 0.298866
Si Si4 0.183499 0.857503 0.378979
Si Si5 0.179991 0.316386 0.021907
Si Si6 0.817539 0.604725 0.299242
O O1 0.500000 0.591588 0.031715
O O2 0.275674 0.547361 0.082532
O O3 0.303500 0.500000 0.000000
O O4 0.212114 0.622045 0.012258
O O5 0.775497 0.054757 0.331910
O O6 0.000000 0.017168 0.386960
O O7 0.763785 0.935146 0.370516
O O8 0.500000 0.271607 0.294606
O O9 0.750000 0.281720 0.250000
O O10 0.750542 0.309844 0.338363
O O11 0.720578 0.183006 0.312209
O O12 0.251176 0.831607 0.427717
O O13 0.000000 0.852458 0.379813
O O14 0.000000 0.305325 0.026936
O O15 0.250000 0.250000 0.000000
O O16 0.750000 0.587775 0.250000
O O17 0.000000 0.590254 0.301187
#
# Coordination Sequence:
#
# PCOD8263858 Si02
#       6
#    16  16  16  16  16  16
#     4  11  23  40  61  86 120 159 202 249 297 352
#     4  11  22  38  61  88 119 156 199 243 298 362
#     4   9  19  38  60  83 112 150 190 235 290 348
#     4   9  20  38  59  83 117 155 191 237 296 352
#     4  11  23  40  61  88 121 159 200 246 299 357
#     4  10  21  38  61  87 118 153 195 245 298 357
#
# _framework density 19.356755
#
# number of rings (size 3 to 8) (size 9 to 14) (size 15 to 20)
#    0.000    1.833    1.667    2.000    2.333    2.000 
#    0.000    5.000    0.000    0.000    0.000    0.000 
#    0.000    0.000    0.000    0.000    0.000    0.000 
#
# Total GULP energy -595314.156460 kJ/mol
# GULP energy per Si atom -12402.378260 kJ/mol
# Density = 1.931270 g / cm^3
# Si number density = 19.356755 Si / 1000 Ang^3
#
#
#
# Elastic Constant Matrix: (Units=GPa)
#
#
# Indices 1 2 3 4 5 6 
#
# 1 34.1676 30.1922 15.1373 0.0000 0.0000 0.0000
# 2 30.1922 123.3802 92.7197 0.0000 0.0000 0.0000
# 3 15.1373 92.7197 137.6669 0.0000 0.0000 0.0000
# 4 0.0000 0.0000 0.0000 122.2739 0.0000 0.0000
# 5 0.0000 0.0000 0.0000 0.0000 33.4730 0.0000
# 6 0.0000 0.0000 0.0000 0.0000 0.0000 39.4880
#
#
#
# Elastic Compliance Matrix: (Units=1/GPa)
#
#
# Indices 1 2 3 4 5 6 
#
# 1 0.038550 -0.012651 0.004282 0.000000 0.000000 0.000000
# 2 -0.012651 0.020563 -0.012459 0.000000 0.000000 0.000000
# 3 0.004282 -0.012459 0.015184 0.000000 0.000000 0.000000
# 4 0.000000 0.000000 0.000000 0.008178 0.000000 0.000000
# 5 0.000000 0.000000 0.000000 0.000000 0.029875 0.000000
# 6 0.000000 0.000000 0.000000 0.000000 0.000000 0.025324
#
#
# Mechanical properties :
#
#
# Convention : Reuss Voigt Hill
#
# Bulk Modulus (GPa) = 30.63591 63.47924 47.05757
# Shear Modulus (GPa) = 26.28661 49.52468 37.90565
#
# Velocity S-wave (km/s) = 3.68911 5.06367 4.43003
# Velocity P-wave (km/s) = 5.83159 8.18860 7.10847
#
# Compressibility (1/GPa) = 0.03264144
#
# Stress axis : x y z
#
# Youngs Moduli (GPa) = 25.94048 48.62991 65.85877
#
# Poissons Ratio (x) = 0.61524 -0.28201
# Poissons Ratio (y) = 0.32818 0.82051
# Poissons Ratio (z) = -0.11108 0.60586
#
# Static dielectric constant tensor:
#      x y z
#    x 3.458790 0.000000 0.000000 
#    y 0.000000 3.641440 0.000000 
#    z 0.000000 0.000000 2.492210 
# 
# 
# High freq. dielectric constant tensor:
#      x y z
#    x 1.743380 0.000000 0.000000 
#    y 0.000000 1.761360 0.000000 
#    z 0.000000 0.000000 1.766320 
# 
# From -- ./inp_files/48129.got.cif
#   From: 2010.03.12/outbox.cif.g09.slc.cpg/sg64_25_cif.got.tgz:48129.got - 2010.04.10 20:19:32.
