data_PCOD8263759
_publ_section_title
;
Structure prediction by ZEFSAII (Michael W. Deem and Ramdas Pophale) SiO2 
 PCOD8263759
Probable space group: C M C A
;
_chemical_formula_sum "Si O2"
_cell_formula_units_Z 80
_cell_length_a 8.343522
_cell_length_b 15.296533
_cell_length_c 29.578193
_cell_angle_alpha 90.000000
_cell_angle_beta 90.000000
_cell_angle_gamma 90.000000
_cell_volume 3774.974843
_symmetry_space_group_name_H-M "C M C A"
_symmetry_group_IT_number 64
_symmetry_cell_setting 'orthorhombic'
loop_
_space_group_symop_operation_xyz
x,y,z
-x,1/2-y,1/2+z
x,-y,-z
-x,1/2+y,1/2-z
-x,-y,-z
x,1/2+y,1/2-z
-x,y,z
x,1/2-y,1/2+z
1/2+x,1/2+y,z
1/2-x,-y,1/2+z
1/2+x,1/2-y,-z
1/2-x,y,1/2-z
1/2-x,1/2-y,-z
1/2+x,y,1/2-z
1/2-x,1/2+y,z
1/2+x,-y,1/2+z
loop_
_atom_site_type_symbol
_atom_site_label
_atom_site_fract_x
_atom_site_fract_y
_atom_site_fract_z
Si Si1 0.811977 0.469643 0.137430
Si Si2 0.313179 0.118576 0.300190
Si Si3 0.686638 0.226499 0.641798
Si Si4 0.180885 0.726296 0.951817
Si Si5 0.815901 0.954403 0.047009
O O1 0.777631 0.536844 0.177455
O O2 0.744298 0.373143 0.148976
O O3 0.724015 0.509987 0.092190
O O4 0.000000 0.462741 0.129429
O O5 0.500000 0.097873 0.300694
O O6 0.250000 0.128326 0.250000
O O7 0.281098 0.210561 0.324575
O O8 0.500000 0.232945 0.652568
O O9 0.718461 0.262439 0.590716
O O10 0.187527 0.622365 0.948896
O O11 0.000000 0.761241 0.947987
O O12 0.250000 0.750000 0.000000
O O13 0.000000 0.921277 0.048292
O O14 0.779736 0.000000 0.000000
#
# Coordination Sequence:
#
# PCOD8263759 Si02
#       5
#    16  16  16  16  16
#     4  11  23  42  66  95 131 171 215 265 323 384
#     4  12  26  46  70  99 130 167 217 270 327 387
#     4  11  23  43  67  95 130 170 215 267 324 385
#     4  11  22  37  58  87 124 166 212 260 313 376
#     4  10  21  37  58  87 124 165 211 259 313 374
#
# _framework density 21.192194000000001
#
# number of rings (size 3 to 8) (size 9 to 14) (size 15 to 20)
#    0.000    1.000    0.000   10.200    2.800    2.400 
#    0.000    4.000    0.000    0.000    0.000    0.000 
#    0.000    0.000    0.000    0.000    0.000    0.000 
#
# Total GULP energy -495885.232697 kJ/mol
# GULP energy per Si atom -12397.130817 kJ/mol
# Density = 2.114396 g / cm^3
# Si number density = 21.192194 Si / 1000 Ang^3
#
#
#
# Elastic Constant Matrix: (Units=GPa)
#
#
# Indices 1 2 3 4 5 6 
#
# 1 102.8947 9.6217 10.8989 0.0000 0.0000 0.0000
# 2 9.6217 75.3795 49.4194 0.0000 0.0000 0.0000
# 3 10.8989 49.4194 157.3980 0.0000 0.0000 0.0000
# 4 0.0000 0.0000 0.0000 350.9156 0.0000 0.0000
# 5 0.0000 0.0000 0.0000 0.0000 37.3961 0.0000
# 6 0.0000 0.0000 0.0000 0.0000 0.0000 34.3249
#
#
#
# Elastic Compliance Matrix: (Units=1/GPa)
#
#
# Indices 1 2 3 4 5 6 
#
# 1 0.009852 -0.001020 -0.000362 0.000000 0.000000 0.000000
# 2 -0.001020 0.016810 -0.005207 0.000000 0.000000 0.000000
# 3 -0.000362 -0.005207 0.008013 0.000000 0.000000 0.000000
# 4 0.000000 0.000000 0.000000 0.002850 0.000000 0.000000
# 5 0.000000 0.000000 0.000000 0.000000 0.026741 0.000000
# 6 0.000000 0.000000 0.000000 0.000000 0.000000 0.029133
#
#
# Mechanical properties :
#
#
# Convention : Reuss Voigt Hill
#
# Bulk Modulus (GPa) = 46.51819 52.83912 49.67866
# Shear Modulus (GPa) = 43.95794 102.24280 73.10037
#
# Velocity S-wave (km/s) = 4.55934 6.95343 5.87953
# Velocity P-wave (km/s) = 7.05089 9.45803 8.34174
#
# Compressibility (1/GPa) = 0.02149697
#
# Stress axis : x y z
#
# Youngs Moduli (GPa) = 101.49797 59.48665 124.79092
#
# Poissons Ratio (x) = 0.06070 0.04516
# Poissons Ratio (y) = 0.10356 0.64984
# Poissons Ratio (z) = 0.03673 0.30977
#
# Static dielectric constant tensor:
#      x y z
#    x 3.325480 0.000000 0.000000 
#    y 0.000000 3.651870 0.000000 
#    z 0.000000 0.000000 3.981110 
# 
# 
# High freq. dielectric constant tensor:
#      x y z
#    x 1.847760 0.000000 0.000000 
#    y 0.000000 1.820450 0.000000 
#    z 0.000000 0.000000 1.844570 
# 
# From -- ./inp_files/51747.got.cif
#   From: 2010.03.12/outbox.cif.g09.slc.cpg/sg64_26_cif.got.tgz:51747.got - 2010.04.10 20:19:32.
