data_PCOD8263776
_publ_section_title
;
Structure prediction by ZEFSAII (Michael W. Deem and Ramdas Pophale) SiO2 
 PCOD8263776
Probable space group: C M C A
;
_chemical_formula_sum "Si O2"
_cell_formula_units_Z 96
_cell_length_a 18.114037
_cell_length_b 22.968170
_cell_length_c 11.616295
_cell_angle_alpha 90.000000
_cell_angle_beta 90.000000
_cell_angle_gamma 90.000000
_cell_volume 4832.916336
_symmetry_space_group_name_H-M "C M C A"
_symmetry_group_IT_number 64
_symmetry_cell_setting 'orthorhombic'
loop_
_space_group_symop_operation_xyz
x,y,z
-x,1/2-y,1/2+z
x,-y,-z
-x,1/2+y,1/2-z
-x,-y,-z
x,1/2+y,1/2-z
-x,y,z
x,1/2-y,1/2+z
1/2+x,1/2+y,z
1/2-x,-y,1/2+z
1/2+x,1/2-y,-z
1/2-x,y,1/2-z
1/2-x,1/2-y,-z
1/2+x,y,1/2-z
1/2-x,1/2+y,z
1/2+x,-y,1/2+z
loop_
_atom_site_type_symbol
_atom_site_label
_atom_site_fract_x
_atom_site_fract_y
_atom_site_fract_z
Si Si1 0.416161 0.280737 0.083569
Si Si2 0.138921 0.435450 0.035965
Si Si3 0.846521 0.664292 0.142906
Si Si4 0.808172 0.441816 0.439733
Si Si5 0.415980 0.391806 0.230778
Si Si6 0.818443 0.665973 0.402381
O O1 0.500000 0.290308 0.045286
O O2 0.405854 0.214959 0.125312
O O3 0.395861 0.325882 0.187850
O O4 0.366286 0.286028 0.969095
O O5 0.221206 0.441426 0.087971
O O6 0.090478 0.402020 0.132117
O O7 0.109370 0.500000 0.000000
O O8 0.134053 0.395239 0.922923
O O9 0.848755 0.650383 0.277296
O O10 0.766139 0.687471 0.103173
O O11 0.833667 0.500000 0.500000
O O12 0.857251 0.435843 0.325353
O O13 0.829341 0.392218 0.527540
O O14 0.500000 0.406308 0.193933
#
# Coordination Sequence:
#
# PCOD8263776 Si02
#       6
#    16  16  16  16  16  16
#     4  10  22  39  59  83 114 155 197 235 283 343
#     4  10  22  38  61  90 119 151 191 239 294 349
#     4  10  21  37  60  87 117 150 186 241 295 338
#     4   9  19  37  64  87 111 150 195 239 283 337
#     4  10  22  39  57  84 120 153 192 237 285 347
#     4   9  20  38  57  88 115 144 193 243 284 341
#
# _framework density 19.863783000000002
#
# number of rings (size 3 to 8) (size 9 to 14) (size 15 to 20)
#    0.000    2.333    0.000    1.000    4.667    2.000 
#    6.000    0.000    0.000    0.000    0.000    0.000 
#    0.000    0.000    0.000    0.000    0.000    0.000 
#
# Total GULP energy -595070.404597 kJ/mol
# GULP energy per Si atom -12397.300096 kJ/mol
# Density = 1.981857 g / cm^3
# Si number density = 19.863783 Si / 1000 Ang^3
#
#
#
# Elastic Constant Matrix: (Units=GPa)
#
#
# Indices 1 2 3 4 5 6 
#
# 1 56.2970 21.8510 28.9817 0.0000 0.0000 0.0000
# 2 21.8510 88.8556 28.3186 0.0000 0.0000 0.0000
# 3 28.9817 28.3186 110.7311 0.0000 0.0000 0.0000
# 4 0.0000 0.0000 0.0000 13.3010 0.0000 0.0000
# 5 0.0000 0.0000 0.0000 0.0000 21.9296 0.0000
# 6 0.0000 0.0000 0.0000 0.0000 0.0000 20.3155
#
#
#
# Elastic Compliance Matrix: (Units=1/GPa)
#
#
# Indices 1 2 3 4 5 6 
#
# 1 0.021665 -0.003833 -0.004690 0.000000 0.000000 0.000000
# 2 -0.003833 0.012931 -0.002304 0.000000 0.000000 0.000000
# 3 -0.004690 -0.002304 0.010848 0.000000 0.000000 0.000000
# 4 0.000000 0.000000 0.000000 0.075182 0.000000 0.000000
# 5 0.000000 0.000000 0.000000 0.000000 0.045600 0.000000
# 6 0.000000 0.000000 0.000000 0.000000 0.000000 0.049223
#
#
# Mechanical properties :
#
#
# Convention : Reuss Voigt Hill
#
# Bulk Modulus (GPa) = 42.03471 46.02069 44.02770
# Shear Modulus (GPa) = 20.40535 22.89140 21.64837
#
# Velocity S-wave (km/s) = 3.20857 3.39841 3.30486
# Velocity P-wave (km/s) = 5.91050 6.21429 6.06430
#
# Compressibility (1/GPa) = 0.02378987
#
# Stress axis : x y z
#
# Youngs Moduli (GPa) = 46.15698 77.33328 92.18611
#
# Poissons Ratio (x) = 0.29642 0.43237
# Poissons Ratio (y) = 0.17692 0.21238
# Poissons Ratio (z) = 0.21648 0.17816
#
# Static dielectric constant tensor:
#      x y z
#    x 3.556570 0.000000 0.000000 
#    y 0.000000 3.599720 0.000000 
#    z 0.000000 0.000000 3.785930 
# 
# 
# High freq. dielectric constant tensor:
#      x y z
#    x 1.766800 0.000000 0.000000 
#    y 0.000000 1.770370 0.000000 
#    z 0.000000 0.000000 1.776960 
# 
# From -- ./inp_files/16217.got.cif
#   From: 2010.03.12/outbox.cif.g09.slc.cpg/sg64_9_cif.got.tgz:16217.got - 2010.04.10 20:19:32.
