data_PCOD8263721
_publ_section_title
;
Structure prediction by ZEFSAII (Michael W. Deem and Ramdas Pophale) SiO2 
 PCOD8263721
Probable space group: C M C A
;
_chemical_formula_sum "Si O2"
_cell_formula_units_Z 112
_cell_length_a 14.406390
_cell_length_b 24.431364
_cell_length_c 15.495920
_cell_angle_alpha 90.000000
_cell_angle_beta 90.000000
_cell_angle_gamma 90.000000
_cell_volume 5454.064221
_symmetry_space_group_name_H-M "C M C A"
_symmetry_group_IT_number 64
_symmetry_cell_setting 'orthorhombic'
loop_
_space_group_symop_operation_xyz
x,y,z
-x,1/2-y,1/2+z
x,-y,-z
-x,1/2+y,1/2-z
-x,-y,-z
x,1/2+y,1/2-z
-x,y,z
x,1/2-y,1/2+z
1/2+x,1/2+y,z
1/2-x,-y,1/2+z
1/2+x,1/2-y,-z
1/2-x,y,1/2-z
1/2-x,1/2-y,-z
1/2+x,y,1/2-z
1/2-x,1/2+y,z
1/2+x,-y,1/2+z
loop_
_atom_site_type_symbol
_atom_site_label
_atom_site_fract_x
_atom_site_fract_y
_atom_site_fract_z
Si Si1 0.107636 0.393222 0.202654
Si Si2 0.242702 0.963328 0.568400
Si Si3 0.898079 0.580696 0.191573
Si Si4 0.896817 0.005749 0.824052
Si Si5 0.393574 0.690041 0.395626
Si Si6 0.393277 0.188269 0.645033
Si Si7 0.229531 0.639751 0.960844
O O1 0.136648 0.448277 0.254981
O O2 0.126625 0.340481 0.263384
O O3 0.169554 0.386246 0.117145
O O4 0.000000 0.396418 0.174876
O O5 0.176319 0.958283 0.648682
O O6 0.267453 0.905395 0.526925
O O7 0.186658 0.000000 0.500000
O O8 0.330881 0.001557 0.593486
O O9 0.896384 0.557334 0.288490
O O10 0.872123 0.644359 0.178521
O O11 0.000000 0.570353 0.150835
O O12 0.000000 0.022465 0.854535
O O13 0.500000 0.686642 0.426612
O O14 0.373834 0.746987 0.347313
O O15 0.332494 0.681860 0.482331
O O16 0.500000 0.176577 0.616435
O O17 0.323161 0.167287 0.572509
#
# Coordination Sequence:
#
# PCOD8263721 Si02
#       7
#    16  16  16  16  16  16  16
#     4  10  21  38  61  85 110 149 198 243 288 341
#     4  11  22  33  52  80 112 144 177 225 281 333
#     4   9  19  36  57  79 105 141 182 226 276 329
#     4  10  21  38  58  80 111 148 187 229 275 339
#     4   9  19  37  58  82 113 145 184 235 287 337
#     4  10  21  37  56  79 112 151 188 230 283 345
#     4  11  21  35  57  85 114 147 189 238 288 338
#
# _framework density 20.535146000000001
#
# number of rings (size 3 to 8) (size 9 to 14) (size 15 to 20)
#    0.000    2.000    0.000    3.429    0.000    2.857 
#    0.000    7.143    0.000    3.429    0.000    0.000 
#    0.000    0.000    0.000    0.000    0.000    0.000 
#
# Total GULP energy -693865.634538 kJ/mol
# GULP energy per Si atom -12390.457760 kJ/mol
# Density = 2.048841 g / cm^3
# Si number density = 20.535146 Si / 1000 Ang^3
#
#
#
# Elastic Constant Matrix: (Units=GPa)
#
#
# Indices 1 2 3 4 5 6 
#
# 1 75.8318 36.1014 28.0468 0.0000 0.0000 0.0000
# 2 36.1014 102.6543 38.4008 0.0000 0.0000 0.0000
# 3 28.0468 38.4008 63.6605 0.0000 0.0000 0.0000
# 4 0.0000 0.0000 0.0000 35.3866 0.0000 0.0000
# 5 0.0000 0.0000 0.0000 0.0000 6.4413 0.0000
# 6 0.0000 0.0000 0.0000 0.0000 0.0000 30.1951
#
#
#
# Elastic Compliance Matrix: (Units=1/GPa)
#
#
# Indices 1 2 3 4 5 6 
#
# 1 0.016994 -0.004101 -0.005013 0.000000 0.000000 0.000000
# 2 -0.004101 0.013570 -0.006379 0.000000 0.000000 0.000000
# 3 -0.005013 -0.006379 0.021765 0.000000 0.000000 0.000000
# 4 0.000000 0.000000 0.000000 0.028259 0.000000 0.000000
# 5 0.000000 0.000000 0.000000 0.000000 0.155247 0.000000
# 6 0.000000 0.000000 0.000000 0.000000 0.000000 0.033118
#
#
# Mechanical properties :
#
#
# Convention : Reuss Voigt Hill
#
# Bulk Modulus (GPa) = 46.85488 49.69383 48.27436
# Shear Modulus (GPa) = 16.28389 23.71113 19.99751
#
# Velocity S-wave (km/s) = 2.81904 3.40172 3.12399
# Velocity P-wave (km/s) = 5.78467 6.29927 6.04745
#
# Compressibility (1/GPa) = 0.02134249
#
# Stress axis : x y z
#
# Youngs Moduli (GPa) = 58.84582 73.69300 45.94618
#
# Poissons Ratio (x) = 0.30222 0.23033
# Poissons Ratio (y) = 0.24133 0.29308
# Poissons Ratio (z) = 0.29500 0.47006
#
# Static dielectric constant tensor:
#      x y z
#    x 3.923660 0.000000 0.000000 
#    y 0.000000 3.916700 0.000000 
#    z 0.000000 0.000000 3.527170 
# 
# 
# High freq. dielectric constant tensor:
#      x y z
#    x 1.811460 0.000000 0.000000 
#    y 0.000000 1.810370 0.000000 
#    z 0.000000 0.000000 1.783120 
# 
# From -- ./inp_files/24225.got.cif
#   From: 2010.03.12/outbox.cif.g09.slc.cpg/sg64_13_cif.got.tgz:24225.got - 2010.04.10 20:19:32.
