data_PCOD8263141
_publ_section_title
;
Structure prediction by ZEFSAII (Michael W. Deem and Ramdas Pophale) SiO2 
 PCOD8263141
Probable space group: C M C A
;
_chemical_formula_sum "Si O2"
_cell_formula_units_Z 80
_cell_length_a 9.061370
_cell_length_b 25.037692
_cell_length_c 18.237940
_cell_angle_alpha 90.000000
_cell_angle_beta 90.000000
_cell_angle_gamma 90.000000
_cell_volume 4137.747067
_symmetry_space_group_name_H-M "C M C A"
_symmetry_group_IT_number 64
_symmetry_cell_setting 'orthorhombic'
loop_
_space_group_symop_operation_xyz
x,y,z
-x,1/2-y,1/2+z
x,-y,-z
-x,1/2+y,1/2-z
-x,-y,-z
x,1/2+y,1/2-z
-x,y,z
x,1/2-y,1/2+z
1/2+x,1/2+y,z
1/2-x,-y,1/2+z
1/2+x,1/2-y,-z
1/2-x,y,1/2-z
1/2-x,1/2-y,-z
1/2+x,y,1/2-z
1/2-x,1/2+y,z
1/2+x,-y,1/2+z
loop_
_atom_site_type_symbol
_atom_site_label
_atom_site_fract_x
_atom_site_fract_y
_atom_site_fract_z
Si Si1 0.326736 0.157280 0.067307
Si Si2 0.826183 0.643611 0.584201
Si Si3 0.674037 0.443499 0.325449
Si Si4 0.671755 0.747598 0.826415
Si Si5 0.170807 0.934309 0.676644
O O1 0.500000 0.159190 0.047638
O O2 0.278048 0.207011 0.116933
O O3 0.283861 0.102492 0.108512
O O4 0.229965 0.161275 0.994883
O O5 0.741028 0.590285 0.608135
O O6 0.785793 0.690091 0.641322
O O7 0.000000 0.632618 0.581222
O O8 0.500000 0.433469 0.319167
O O9 0.750000 0.425125 0.250000
O O10 0.712925 0.504916 0.342934
O O11 0.500000 0.752433 0.811218
O O12 0.750000 0.757151 0.750000
O O13 0.250000 0.914323 0.750000
O O14 0.000000 0.928449 0.694074
#
# Coordination Sequence:
#
# PCOD8263141 Si02
#       5
#    16  16  16  16  16
#     4  10  21  38  57  80 110 143 177 221 273 323
#     4  11  23  37  54  81 112 145 183 222 266 319
#     4  10  20  36  57  81 109 143 181 224 268 317
#     4  10  22  38  58  82 108 139 179 222 269 322
#     4   9  19  35  57  82 108 140 181 223 269 321
#
# _framework density 19.334192999999999
#
# number of rings (size 3 to 8) (size 9 to 14) (size 15 to 20)
#    0.000    2.000    0.000    3.000    0.000    6.400 
#    0.000    4.000    0.000    0.000    0.000    0.000 
#    0.000    0.000    0.000    0.000    0.000    0.000 
#
# Total GULP energy -496203.628097 kJ/mol
# GULP energy per Si atom -12405.090702 kJ/mol
# Density = 1.929019 g / cm^3
# Si number density = 19.334193 Si / 1000 Ang^3
#
#
#
# Elastic Constant Matrix: (Units=GPa)
#
#
# Indices 1 2 3 4 5 6 
#
# 1 68.3078 34.4027 42.0770 0.0000 0.0000 0.0000
# 2 34.4027 72.3847 20.1352 0.0000 0.0000 0.0000
# 3 42.0770 20.1352 84.4455 0.0000 0.0000 0.0000
# 4 0.0000 0.0000 0.0000 22.4643 0.0000 0.0000
# 5 0.0000 0.0000 0.0000 0.0000 42.0225 0.0000
# 6 0.0000 0.0000 0.0000 0.0000 0.0000 24.8049
#
#
#
# Elastic Compliance Matrix: (Units=1/GPa)
#
#
# Indices 1 2 3 4 5 6 
#
# 1 0.025937 -0.009353 -0.010694 0.000000 0.000000 0.000000
# 2 -0.009353 0.018169 0.000328 0.000000 0.000000 0.000000
# 3 -0.010694 0.000328 0.017092 0.000000 0.000000 0.000000
# 4 0.000000 0.000000 0.000000 0.044515 0.000000 0.000000
# 5 0.000000 0.000000 0.000000 0.000000 0.023797 0.000000
# 6 0.000000 0.000000 0.000000 0.000000 0.000000 0.040315
#
#
# Mechanical properties :
#
#
# Convention : Reuss Voigt Hill
#
# Bulk Modulus (GPa) = 45.95288 46.48530 46.21909
# Shear Modulus (GPa) = 23.09299 26.42653 24.75976
#
# Velocity S-wave (km/s) = 3.45978 3.70108 3.58246
# Velocity P-wave (km/s) = 6.30709 6.50839 6.40853
#
# Compressibility (1/GPa) = 0.02176142
#
# Stress axis : x y z
#
# Youngs Moduli (GPa) = 38.55448 55.03892 58.50619
#
# Poissons Ratio (x) = 0.51476 0.62565
# Poissons Ratio (y) = 0.36059 -0.01919
# Poissons Ratio (z) = 0.41229 -0.01805
#
# Static dielectric constant tensor:
#      x y z
#    x 3.474060 0.000000 0.000000 
#    y 0.000000 3.802990 0.000000 
#    z 0.000000 0.000000 3.443610 
# 
# 
# High freq. dielectric constant tensor:
#      x y z
#    x 1.752020 0.000000 0.000000 
#    y 0.000000 1.766760 0.000000 
#    z 0.000000 0.000000 1.753460 
# 
# From -- ./inp_files/29784.got.cif
#   From: 2010.03.12/outbox.cif.g09.slc.cpg/sg64_15_cif.got.tgz:29784.got - 2010.04.10 20:19:32.
