data_PCOD8263566
_publ_section_title
;
Structure prediction by ZEFSAII (Michael W. Deem and Ramdas Pophale) SiO2 
 PCOD8263566
Probable space group: C M C A
;
_chemical_formula_sum "Si O2"
_cell_formula_units_Z 80
_cell_length_a 16.597891
_cell_length_b 24.395633
_cell_length_c 9.586844
_cell_angle_alpha 90.000000
_cell_angle_beta 90.000000
_cell_angle_gamma 90.000000
_cell_volume 3881.867075
_symmetry_space_group_name_H-M "C M C A"
_symmetry_group_IT_number 64
_symmetry_cell_setting 'orthorhombic'
loop_
_space_group_symop_operation_xyz
x,y,z
-x,1/2-y,1/2+z
x,-y,-z
-x,1/2+y,1/2-z
-x,-y,-z
x,1/2+y,1/2-z
-x,y,z
x,1/2-y,1/2+z
1/2+x,1/2+y,z
1/2-x,-y,1/2+z
1/2+x,1/2-y,-z
1/2-x,y,1/2-z
1/2-x,1/2-y,-z
1/2+x,y,1/2-z
1/2-x,1/2+y,z
1/2+x,-y,1/2+z
loop_
_atom_site_type_symbol
_atom_site_label
_atom_site_fract_x
_atom_site_fract_y
_atom_site_fract_z
Si Si1 0.405821 0.961825 0.879083
Si Si2 0.809939 0.253754 0.375980
Si Si3 0.327157 0.526111 0.849229
Si Si4 0.096120 0.141656 0.796259
Si Si5 0.094887 0.847050 0.527332
O O1 0.500000 0.958100 0.905092
O O2 0.369412 0.901149 0.897819
O O3 0.389114 0.984714 0.725495
O O4 0.367426 0.000000 0.000000
O O5 0.750000 0.248697 0.250000
O O6 0.750000 0.250000 0.500000
O O7 0.862927 0.308928 0.380390
O O8 0.871366 0.203568 0.385934
O O9 0.250000 0.529658 0.750000
O O10 0.368310 0.585611 0.859896
O O11 0.306887 0.500000 0.000000
O O12 0.120612 0.150066 0.634790
O O13 0.000000 0.141987 0.817158
O O14 0.000000 0.843014 0.538783
#
# Coordination Sequence:
#
# PCOD8263566 Si02
#       5
#    16  16  16  16  16
#     4  10  20  40  69  98 129 172 221 267 328 401
#     4  12  25  43  67  98 136 173 221 279 338 397
#     4  12  27  43  67 100 138 176 220 277 337 400
#     4  11  24  46  72  96 132 178 225 275 336 403
#     4  10  22  42  70  98 134 180 226 273 328 401
#
# _framework density 20.608639
#
# number of rings (size 3 to 8) (size 9 to 14) (size 15 to 20)
#    0.000    1.000    4.000    2.400    0.000    4.000 
#    0.000    2.000    0.000    0.000    0.000    0.000 
#    0.000    0.000    0.000    0.000    0.000    0.000 
#
# Total GULP energy -495911.191384 kJ/mol
# GULP energy per Si atom -12397.779785 kJ/mol
# Density = 2.056173 g / cm^3
# Si number density = 20.608639 Si / 1000 Ang^3
#
#
#
# Elastic Constant Matrix: (Units=GPa)
#
#
# Indices 1 2 3 4 5 6 
#
# 1 74.9668 70.0150 51.9901 0.0000 0.0000 0.0000
# 2 70.0150 207.2899 68.1226 0.0000 0.0000 0.0000
# 3 51.9901 68.1226 119.2417 0.0000 0.0000 0.0000
# 4 0.0000 0.0000 0.0000 37.2610 0.0000 0.0000
# 5 0.0000 0.0000 0.0000 0.0000 35.6283 0.0000
# 6 0.0000 0.0000 0.0000 0.0000 0.0000 30.8143
#
#
#
# Elastic Compliance Matrix: (Units=1/GPa)
#
#
# Indices 1 2 3 4 5 6 
#
# 1 0.023449 -0.005614 -0.007016 0.000000 0.000000 0.000000
# 2 -0.005614 0.007283 -0.001713 0.000000 0.000000 0.000000
# 3 -0.007016 -0.001713 0.012424 0.000000 0.000000 0.000000
# 4 0.000000 0.000000 0.000000 0.026838 0.000000 0.000000
# 5 0.000000 0.000000 0.000000 0.000000 0.028068 0.000000
# 6 0.000000 0.000000 0.000000 0.000000 0.000000 0.032452
#
#
# Mechanical properties :
#
#
# Convention : Reuss Voigt Hill
#
# Bulk Modulus (GPa) = 69.11448 86.86153 77.98800
# Shear Modulus (GPa) = 30.48329 34.83211 32.65770
#
# Velocity S-wave (km/s) = 3.85015 4.11563 3.98510
# Velocity P-wave (km/s) = 7.30577 8.05134 7.68760
#
# Compressibility (1/GPa) = 0.01446875
#
# Stress axis : x y z
#
# Youngs Moduli (GPa) = 42.64658 137.29718 80.48812
#
# Poissons Ratio (x) = 0.77082 0.56473
# Poissons Ratio (y) = 0.23943 0.13789
# Poissons Ratio (z) = 0.29922 0.23521
#
# Static dielectric constant tensor:
#      x y z
#    x 3.723880 0.000000 0.000000 
#    y 0.000000 4.157970 0.000000 
#    z 0.000000 0.000000 3.649790 
# 
# 
# High freq. dielectric constant tensor:
#      x y z
#    x 1.816710 0.000000 0.000000 
#    y 0.000000 1.822890 0.000000 
#    z 0.000000 0.000000 1.797800 
# 
# From -- ./inp_files/7103.got.cif
#   From: 2010.03.12/outbox.cif.g09.slc.cpg/sg64_4_cif.got.tgz:7103.got - 2010.04.10 20:19:32.
