data_PCOD8263245
_publ_section_title
;
Structure prediction by ZEFSAII (Michael W. Deem and Ramdas Pophale) SiO2 
 PCOD8263245
Probable space group: C M C A
;
_chemical_formula_sum "Si O2"
_cell_formula_units_Z 80
_cell_length_a 22.819654
_cell_length_b 13.914958
_cell_length_c 12.459061
_cell_angle_alpha 90.000000
_cell_angle_beta 90.000000
_cell_angle_gamma 90.000000
_cell_volume 3956.182041
_symmetry_space_group_name_H-M "C M C A"
_symmetry_group_IT_number 64
_symmetry_cell_setting 'orthorhombic'
loop_
_space_group_symop_operation_xyz
x,y,z
-x,1/2-y,1/2+z
x,-y,-z
-x,1/2+y,1/2-z
-x,-y,-z
x,1/2+y,1/2-z
-x,y,z
x,1/2-y,1/2+z
1/2+x,1/2+y,z
1/2-x,-y,1/2+z
1/2+x,1/2-y,-z
1/2-x,y,1/2-z
1/2-x,1/2-y,-z
1/2+x,y,1/2-z
1/2-x,1/2+y,z
1/2+x,-y,1/2+z
loop_
_atom_site_type_symbol
_atom_site_label
_atom_site_fract_x
_atom_site_fract_y
_atom_site_fract_z
Si Si1 0.933157 0.989581 0.624127
Si Si2 0.777779 0.895080 0.038513
Si Si3 0.833310 0.767154 0.417704
Si Si4 0.933960 0.219911 0.418494
Si Si5 0.631126 0.864500 0.280372
O O1 0.928108 0.876390 0.654519
O O2 0.000000 0.026222 0.636876
O O3 0.913098 0.000000 0.500000
O O4 0.892525 0.049233 0.706094
O O5 0.716641 0.842124 0.050763
O O6 0.815035 0.901676 0.147949
O O7 0.814991 0.841061 0.946504
O O8 0.762270 0.000000 0.000000
O O9 0.893001 0.793688 0.478527
O O10 0.844347 0.776778 0.291419
O O11 0.919063 0.316689 0.353121
O O12 0.000000 0.230432 0.461837
#
# Coordination Sequence:
#
# PCOD8263245 Si02
#       5
#    16  16  16  16  16
#     4  10  20  36  61  92 122 160 208 250 302 370
#     4  10  24  42  62  88 124 162 205 259 308 364
#     4  10  22  42  61  89 123 158 208 249 308 372
#     4  10  22  38  61  91 123 159 200 256 307 361
#     4  11  22  38  63  89 123 163 205 252 313 360
#
# _framework density 20.221515
#
# number of rings (size 3 to 8) (size 9 to 14) (size 15 to 20)
#    0.000    1.800    2.000    1.200    5.600    0.800 
#    0.000    2.000    0.000    3.000    0.000    0.000 
#    0.000    0.000    0.000    0.000    0.000    0.000 
#
# Total GULP energy -495892.014756 kJ/mol
# GULP energy per Si atom -12397.300369 kJ/mol
# Density = 2.017549 g / cm^3
# Si number density = 20.221515 Si / 1000 Ang^3
#
#
#
# Elastic Constant Matrix: (Units=GPa)
#
#
# Indices 1 2 3 4 5 6 
#
# 1 110.9815 24.7091 27.0903 0.0000 0.0000 0.0000
# 2 24.7091 83.5249 18.8342 0.0000 0.0000 0.0000
# 3 27.0903 18.8342 70.7636 0.0000 0.0000 0.0000
# 4 0.0000 0.0000 0.0000 26.9382 0.0000 0.0000
# 5 0.0000 0.0000 0.0000 0.0000 25.5635 0.0000
# 6 0.0000 0.0000 0.0000 0.0000 0.0000 24.3409
#
#
#
# Elastic Compliance Matrix: (Units=1/GPa)
#
#
# Indices 1 2 3 4 5 6 
#
# 1 0.010340 -0.002305 -0.003345 0.000000 0.000000 0.000000
# 2 -0.002305 0.013251 -0.002644 0.000000 0.000000 0.000000
# 3 -0.003345 -0.002644 0.016116 0.000000 0.000000 0.000000
# 4 0.000000 0.000000 0.000000 0.037122 0.000000 0.000000
# 5 0.000000 0.000000 0.000000 0.000000 0.039118 0.000000
# 6 0.000000 0.000000 0.000000 0.000000 0.000000 0.041083
#
#
# Mechanical properties :
#
#
# Convention : Reuss Voigt Hill
#
# Bulk Modulus (GPa) = 43.25570 45.17080 44.21325
# Shear Modulus (GPa) = 27.57487 28.34428 27.95958
#
# Velocity S-wave (km/s) = 3.69676 3.74798 3.72245
# Velocity P-wave (km/s) = 6.29752 6.41220 6.35511
#
# Compressibility (1/GPa) = 0.02311834
#
# Stress axis : x y z
#
# Youngs Moduli (GPa) = 96.71036 75.46852 62.05020
#
# Poissons Ratio (x) = 0.17393 0.20756
# Poissons Ratio (y) = 0.22288 0.16409
# Poissons Ratio (z) = 0.32351 0.19957
#
# Static dielectric constant tensor:
#      x y z
#    x 3.748340 0.000000 0.000000 
#    y 0.000000 3.663910 0.000000 
#    z 0.000000 0.000000 3.577960 
# 
# 
# High freq. dielectric constant tensor:
#      x y z
#    x 1.802020 0.000000 0.000000 
#    y 0.000000 1.791160 0.000000 
#    z 0.000000 0.000000 1.774950 
# 
# From -- ./inp_files/18047.got.cif
#   From: 2010.03.12/outbox.cif.g09.slc.cpg/sg64_10_cif.got.tgz:18047.got - 2010.04.10 20:19:32.
