data_PCOD8263664
_publ_section_title
;
Structure prediction by ZEFSAII (Michael W. Deem and Ramdas Pophale) SiO2 
 PCOD8263664
Probable space group: C M C A
;
_chemical_formula_sum "Si O2"
_cell_formula_units_Z 64
_cell_length_a 22.987120
_cell_length_b 16.173132
_cell_length_c 8.212293
_cell_angle_alpha 90.000000
_cell_angle_beta 90.000000
_cell_angle_gamma 90.000000
_cell_volume 3053.114768
_symmetry_space_group_name_H-M "C M C A"
_symmetry_group_IT_number 64
_symmetry_cell_setting 'orthorhombic'
loop_
_space_group_symop_operation_xyz
x,y,z
-x,1/2-y,1/2+z
x,-y,-z
-x,1/2+y,1/2-z
-x,-y,-z
x,1/2+y,1/2-z
-x,y,z
x,1/2-y,1/2+z
1/2+x,1/2+y,z
1/2-x,-y,1/2+z
1/2+x,1/2-y,-z
1/2-x,y,1/2-z
1/2-x,1/2-y,-z
1/2+x,y,1/2-z
1/2-x,1/2+y,z
1/2+x,-y,1/2+z
loop_
_atom_site_type_symbol
_atom_site_label
_atom_site_fract_x
_atom_site_fract_y
_atom_site_fract_z
Si Si1 0.634717 0.445305 0.843363
Si Si2 0.668973 0.898568 0.156572
Si Si3 0.936608 0.406744 0.943015
Si Si4 0.779632 0.162123 0.971588
O O1 0.662747 0.506990 0.712305
O O2 0.580450 0.403263 0.749526
O O3 0.615068 0.500000 0.000000
O O4 0.679816 0.371677 0.883666
O O5 0.726093 0.901402 0.043853
O O6 0.680816 0.836267 0.307686
O O7 0.612708 0.864206 0.057281
O O8 0.000000 0.362782 0.962844
O O9 0.943026 0.500000 0.000000
O O10 0.750000 0.250000 0.000000
#
# Coordination Sequence:
#
# PCOD8263664 Si02
#       4
#    16  16  16  16
#     4   9  19  34  55  82 115 148 185 231 280 339
#     4   9  20  35  53  80 111 146 184 227 284 342
#     4   9  18  33  54  80 110 146 189 235 278 327
#     4  10  21  36  55  82 114 144 181 232 286 342
#
# _framework density 20.962198999999998
#
# number of rings (size 3 to 8) (size 9 to 14) (size 15 to 20)
#    0.000    2.750    0.000    0.000    0.000   22.500 
#    0.000    3.750    0.000    6.000    0.000    0.000 
#    0.000    0.000    0.000    0.000    0.000    1.750 
#
# Total GULP energy -396432.955361 kJ/mol
# GULP energy per Si atom -12388.529855 kJ/mol
# Density = 2.091449 g / cm^3
# Si number density = 20.962199 Si / 1000 Ang^3
#
#
#
# Elastic Constant Matrix: (Units=GPa)
#
#
# Indices 1 2 3 4 5 6 
#
# 1 178.9525 28.0151 94.0023 0.0000 0.0000 0.0000
# 2 28.0151 55.0169 31.7272 0.0000 0.0000 0.0000
# 3 94.0023 31.7272 110.7223 0.0000 0.0000 0.0000
# 4 0.0000 0.0000 0.0000 18.9617 0.0000 0.0000
# 5 0.0000 0.0000 0.0000 0.0000 34.6735 0.0000
# 6 0.0000 0.0000 0.0000 0.0000 0.0000 5.2629
#
#
#
# Elastic Compliance Matrix: (Units=1/GPa)
#
#
# Indices 1 2 3 4 5 6 
#
# 1 0.010089 -0.000237 -0.008497 0.000000 0.000000 0.000000
# 2 -0.000237 0.021780 -0.006040 0.000000 0.000000 0.000000
# 3 -0.008497 -0.006040 0.017976 0.000000 0.000000 0.000000
# 4 0.000000 0.000000 0.000000 0.052738 0.000000 0.000000
# 5 0.000000 0.000000 0.000000 0.000000 0.028840 0.000000
# 6 0.000000 0.000000 0.000000 0.000000 0.000000 0.190009
#
#
# Mechanical properties :
#
#
# Convention : Reuss Voigt Hill
#
# Bulk Modulus (GPa) = 49.26863 72.46454 60.86658
# Shear Modulus (GPa) = 13.97638 24.50943 19.24290
#
# Velocity S-wave (km/s) = 2.58494 3.42310 3.03311
# Velocity P-wave (km/s) = 5.69770 7.08997 6.43162
#
# Compressibility (1/GPa) = 0.02029689
#
# Stress axis : x y z
#
# Youngs Moduli (GPa) = 99.11994 45.91386 55.62825
#
# Poissons Ratio (x) = 0.01088 0.47269
# Poissons Ratio (y) = 0.02349 0.33598
# Poissons Ratio (z) = 0.84226 0.27731
#
# Static dielectric constant tensor:
#      x y z
#    x 4.414910 0.000000 0.000000 
#    y 0.000000 3.303150 0.000000 
#    z 0.000000 0.000000 4.586310 
# 
# 
# High freq. dielectric constant tensor:
#      x y z
#    x 1.813690 0.000000 0.000000 
#    y 0.000000 1.772920 0.000000 
#    z 0.000000 0.000000 1.834330 
# 
# From -- ./inp_files/7751.got.cif
#   From: 2010.03.12/outbox.cif.g09.slc.cpg/sg64_4_cif.got.tgz:7751.got - 2010.04.10 20:19:32.
