data_PCOD8263998
_publ_section_title
;
Structure prediction by ZEFSAII (Michael W. Deem and Ramdas Pophale) SiO2 
 PCOD8263998
Probable space group: C M C A
;
_chemical_formula_sum "Si O2"
_cell_formula_units_Z 112
_cell_length_a 17.399163
_cell_length_b 11.117896
_cell_length_c 27.417749
_cell_angle_alpha 90.000000
_cell_angle_beta 90.000000
_cell_angle_gamma 90.000000
_cell_volume 5303.746525
_symmetry_space_group_name_H-M "C M C A"
_symmetry_group_IT_number 64
_symmetry_cell_setting 'orthorhombic'
loop_
_space_group_symop_operation_xyz
x,y,z
-x,1/2-y,1/2+z
x,-y,-z
-x,1/2+y,1/2-z
-x,-y,-z
x,1/2+y,1/2-z
-x,y,z
x,1/2-y,1/2+z
1/2+x,1/2+y,z
1/2-x,-y,1/2+z
1/2+x,1/2-y,-z
1/2-x,y,1/2-z
1/2-x,1/2-y,-z
1/2+x,y,1/2-z
1/2-x,1/2+y,z
1/2+x,-y,1/2+z
loop_
_atom_site_type_symbol
_atom_site_label
_atom_site_fract_x
_atom_site_fract_y
_atom_site_fract_z
Si Si1 0.236906 0.373013 0.470012
Si Si2 0.320479 0.623656 0.630309
Si Si3 0.085099 0.022583 0.774974
Si Si4 0.701312 0.213564 0.705030
Si Si5 0.917799 0.548826 0.553165
Si Si6 0.588466 0.865841 0.635545
Si Si7 0.412397 0.406978 0.672294
O O1 0.240587 0.500000 0.500000
O O2 0.250000 0.250000 0.500000
O O3 0.295816 0.386932 0.425884
O O4 0.151289 0.355373 0.447100
O O5 0.250585 0.628347 0.668854
O O6 0.363751 0.746827 0.636893
O O7 0.379259 0.515137 0.639924
O O8 0.141576 0.132203 0.764958
O O9 0.000000 0.073455 0.787116
O O10 0.117535 0.946772 0.820014
O O11 0.081839 0.938713 0.728563
O O12 0.750000 0.274269 0.750000
O O13 0.651689 0.301687 0.670152
O O14 0.931699 0.500000 0.500000
O O15 0.893721 0.435666 0.585936
O O16 0.000000 0.604816 0.571771
O O17 0.500000 0.830933 0.641504
O O18 0.500000 0.373200 0.654220
#
# Coordination Sequence:
#
# PCOD8263998 Si02
#       7
#    16  16  16  16  16  16  16
#     4  11  25  44  70 101 133 171 221 280 346 411
#     4  12  25  40  71  94 134 170 222 277 335 400
#     4  10  22  41  62  90 129 176 223 271 324 393
#     4  12  25  38  64  98 136 171 225 278 332 392
#     4   9  18  36  64  94 123 158 211 270 326 390
#     4  10  21  39  66  97 127 170 224 271 327 399
#     4  11  26  44  63  91 137 183 221 270 340 408
#
# _framework density 21.117148
#
# number of rings (size 3 to 8) (size 9 to 14) (size 15 to 20)
#    0.000    1.286    1.429    4.286    8.000    0.000 
#    0.000    1.429    0.000    2.143    0.000    0.000 
#    0.000    0.000    0.000    0.000    0.000    0.000 
#
# Total GULP energy -694027.092231 kJ/mol
# GULP energy per Si atom -12393.340933 kJ/mol
# Density = 2.106908 g / cm^3
# Si number density = 21.117148 Si / 1000 Ang^3
#
#
#
# Elastic Constant Matrix: (Units=GPa)
#
#
# Indices 1 2 3 4 5 6 
#
# 1 123.9009 51.0269 15.6361 0.0000 0.0000 0.0000
# 2 51.0269 76.5114 13.0191 0.0000 0.0000 0.0000
# 3 15.6361 13.0191 83.3066 0.0000 0.0000 0.0000
# 4 0.0000 0.0000 0.0000 31.3291 0.0000 0.0000
# 5 0.0000 0.0000 0.0000 0.0000 27.9253 0.0000
# 6 0.0000 0.0000 0.0000 0.0000 0.0000 35.8214
#
#
#
# Elastic Compliance Matrix: (Units=1/GPa)
#
#
# Indices 1 2 3 4 5 6 
#
# 1 0.011201 -0.007307 -0.000961 0.000000 0.000000 0.000000
# 2 -0.007307 0.018194 -0.001472 0.000000 0.000000 0.000000
# 3 -0.000961 -0.001472 0.012414 0.000000 0.000000 0.000000
# 4 0.000000 0.000000 0.000000 0.031919 0.000000 0.000000
# 5 0.000000 0.000000 0.000000 0.000000 0.035810 0.000000
# 6 0.000000 0.000000 0.000000 0.000000 0.000000 0.027916
#
#
# Mechanical properties :
#
#
# Convention : Reuss Voigt Hill
#
# Bulk Modulus (GPa) = 44.78175 49.23146 47.00660
# Shear Modulus (GPa) = 30.41793 32.61761 31.51777
#
# Velocity S-wave (km/s) = 3.79943 3.93441 3.86751
# Velocity P-wave (km/s) = 6.36395 6.63352 6.50013
#
# Compressibility (1/GPa) = 0.02233053
#
# Stress axis : x y z
#
# Youngs Moduli (GPa) = 89.27387 54.96442 80.55331
#
# Poissons Ratio (x) = 0.40163 0.07737
# Poissons Ratio (y) = 0.65233 0.11856
# Poissons Ratio (z) = 0.08575 0.08090
#
# Static dielectric constant tensor:
#      x y z
#    x 4.610860 0.000000 0.000000 
#    y 0.000000 3.539780 0.000000 
#    z 0.000000 0.000000 3.781000 
# 
# 
# High freq. dielectric constant tensor:
#      x y z
#    x 1.851290 0.000000 0.000000 
#    y 0.000000 1.806990 0.000000 
#    z 0.000000 0.000000 1.830060 
# 
# From -- ./inp_files/53282.got.cif
#   From: 2010.03.12/outbox.cif.g09.slc.cpg/sg64_27_cif.got.tgz:53282.got - 2010.04.10 20:19:32.
