data_PCOD8263227
_publ_section_title
;
Structure prediction by ZEFSAII (Michael W. Deem and Ramdas Pophale) SiO2 
 PCOD8263227
Probable space group: C M C A
;
_chemical_formula_sum "Si O2"
_cell_formula_units_Z 80
_cell_length_a 18.613547
_cell_length_b 13.191410
_cell_length_c 16.876325
_cell_angle_alpha 90.000000
_cell_angle_beta 90.000000
_cell_angle_gamma 90.000000
_cell_volume 4143.794783
_symmetry_space_group_name_H-M "C M C A"
_symmetry_group_IT_number 64
_symmetry_cell_setting 'orthorhombic'
loop_
_space_group_symop_operation_xyz
x,y,z
-x,1/2-y,1/2+z
x,-y,-z
-x,1/2+y,1/2-z
-x,-y,-z
x,1/2+y,1/2-z
-x,y,z
x,1/2-y,1/2+z
1/2+x,1/2+y,z
1/2-x,-y,1/2+z
1/2+x,1/2-y,-z
1/2-x,y,1/2-z
1/2-x,1/2-y,-z
1/2+x,y,1/2-z
1/2-x,1/2+y,z
1/2+x,-y,1/2+z
loop_
_atom_site_type_symbol
_atom_site_label
_atom_site_fract_x
_atom_site_fract_y
_atom_site_fract_z
Si Si1 0.919176 0.643094 0.862348
Si Si2 0.792180 0.888749 0.974509
Si Si3 0.178985 0.315265 0.700262
Si Si4 0.138750 0.192064 0.475882
Si Si5 0.083182 0.085647 0.324672
O O1 0.862775 0.710199 0.813619
O O2 0.897156 0.526518 0.853100
O O3 0.000000 0.662965 0.830781
O O4 0.918439 0.669615 0.955376
O O5 0.800705 0.870243 0.881077
O O6 0.709005 0.874223 0.996428
O O7 0.840531 0.810845 0.025098
O O8 0.817790 0.000000 0.000000
O O9 0.250000 0.289302 0.750000
O O10 0.128089 0.393052 0.746010
O O11 0.104119 0.166160 0.392014
O O12 0.000000 0.097430 0.303844
#
# Coordination Sequence:
#
# PCOD8263227 Si02
#       5
#    16  16  16  16  16
#     4  10  22  39  60  85 119 158 197 248 298 353
#     4  10  21  38  60  87 125 156 196 246 299 356
#     4  11  23  39  57  90 121 157 197 242 307 353
#     4  10  20  36  60  89 114 152 201 246 292 351
#     4  11  22  38  61  88 118 155 201 249 299 352
#
# _framework density 19.305975
#
# number of rings (size 3 to 8) (size 9 to 14) (size 15 to 20)
#    0.000    1.600    2.000    3.000    0.000    4.000 
#    0.000    0.000    0.000   20.400    0.000    0.000 
#    0.000    0.000    0.000    0.000    0.000    0.000 
#
# Total GULP energy -496182.077774 kJ/mol
# GULP energy per Si atom -12404.551944 kJ/mol
# Density = 1.926203 g / cm^3
# Si number density = 19.305975 Si / 1000 Ang^3
#
#
#
# Elastic Constant Matrix: (Units=GPa)
#
#
# Indices 1 2 3 4 5 6 
#
# 1 101.3564 56.6676 40.8861 0.0000 0.0000 0.0000
# 2 56.6676 132.8097 43.9119 0.0000 0.0000 0.0000
# 3 40.8861 43.9119 78.4750 0.0000 0.0000 0.0000
# 4 0.0000 0.0000 0.0000 21.9592 0.0000 0.0000
# 5 0.0000 0.0000 0.0000 0.0000 21.5938 0.0000
# 6 0.0000 0.0000 0.0000 0.0000 0.0000 25.8298
#
#
#
# Elastic Compliance Matrix: (Units=1/GPa)
#
#
# Indices 1 2 3 4 5 6 
#
# 1 0.014387 -0.004491 -0.004983 0.000000 0.000000 0.000000
# 2 -0.004491 0.010641 -0.003614 0.000000 0.000000 0.000000
# 3 -0.004983 -0.003614 0.017361 0.000000 0.000000 0.000000
# 4 0.000000 0.000000 0.000000 0.045539 0.000000 0.000000
# 5 0.000000 0.000000 0.000000 0.000000 0.046310 0.000000
# 6 0.000000 0.000000 0.000000 0.000000 0.000000 0.038715
#
#
# Mechanical properties :
#
#
# Convention : Reuss Voigt Hill
#
# Bulk Modulus (GPa) = 61.67904 66.17468 63.92686
# Shear Modulus (GPa) = 24.44583 25.28827 24.86705
#
# Velocity S-wave (km/s) = 3.56227 3.62314 3.59283
# Velocity P-wave (km/s) = 6.99552 7.20097 7.09899
#
# Compressibility (1/GPa) = 0.01621296
#
# Stress axis : x y z
#
# Youngs Moduli (GPa) = 69.50628 93.97660 57.59915
#
# Poissons Ratio (x) = 0.42208 0.28700
# Poissons Ratio (y) = 0.31217 0.20818
# Poissons Ratio (z) = 0.34633 0.33966
#
# Static dielectric constant tensor:
#      x y z
#    x 3.585230 0.000000 0.000000 
#    y 0.000000 3.500370 0.000000 
#    z 0.000000 0.000000 3.511820 
# 
# 
# High freq. dielectric constant tensor:
#      x y z
#    x 1.758180 0.000000 0.000000 
#    y 0.000000 1.750720 0.000000 
#    z 0.000000 0.000000 1.751390 
# 
# From -- ./inp_files/33026.got.cif
#   From: 2010.03.12/outbox.cif.g09.slc.cpg/sg64_17_cif.got.tgz:33026.got - 2010.04.10 20:19:32.
