data_PCOD8263597
_publ_section_title
;
Structure prediction by ZEFSAII (Michael W. Deem and Ramdas Pophale) SiO2 
 PCOD8263597
Probable space group: C M C A
;
_chemical_formula_sum "Si O2"
_cell_formula_units_Z 112
_cell_length_a 14.265235
_cell_length_b 27.633052
_cell_length_c 14.213882
_cell_angle_alpha 90.000000
_cell_angle_beta 90.000000
_cell_angle_gamma 90.000000
_cell_volume 5602.998297
_symmetry_space_group_name_H-M "C M C A"
_symmetry_group_IT_number 64
_symmetry_cell_setting 'orthorhombic'
loop_
_space_group_symop_operation_xyz
x,y,z
-x,1/2-y,1/2+z
x,-y,-z
-x,1/2+y,1/2-z
-x,-y,-z
x,1/2+y,1/2-z
-x,y,z
x,1/2-y,1/2+z
1/2+x,1/2+y,z
1/2-x,-y,1/2+z
1/2+x,1/2-y,-z
1/2-x,y,1/2-z
1/2-x,1/2-y,-z
1/2+x,y,1/2-z
1/2-x,1/2+y,z
1/2+x,-y,1/2+z
loop_
_atom_site_type_symbol
_atom_site_label
_atom_site_fract_x
_atom_site_fract_y
_atom_site_fract_z
Si Si1 0.895982 0.452663 0.243995
Si Si2 0.848436 0.650171 0.788321
Si Si3 0.391493 0.743525 0.208202
Si Si4 0.234519 0.358478 0.021996
Si Si5 0.257819 0.035995 0.588449
Si Si6 0.106934 0.311484 0.886118
Si Si7 0.392294 0.784146 0.508057
O O1 0.914470 0.394179 0.242121
O O2 0.837137 0.468465 0.151023
O O3 0.845559 0.470520 0.340117
O O4 0.000000 0.476411 0.240279
O O5 0.750000 0.630910 0.750000
O O6 0.872409 0.703065 0.747590
O O7 0.842941 0.656951 0.900628
O O8 0.500000 0.741170 0.188444
O O9 0.359776 0.702610 0.281368
O O10 0.345003 0.730887 0.108334
O O11 0.265850 0.412976 0.036333
O O12 0.179304 0.351798 0.923463
O O13 0.328612 0.326887 0.033124
O O14 0.259538 0.000000 0.500000
O O15 0.000000 0.331330 0.886915
O O16 0.114411 0.262824 0.945181
O O17 0.500000 0.802648 0.514371
#
# Coordination Sequence:
#
# PCOD8263597 Si02
#       7
#    16  16  16  16  16  16  16
#     4  10  21  40  66  95 121 150 194 252 315 367
#     4  11  19  33  55  87 115 149 191 248 298 344
#     4  10  21  33  49  77 119 162 198 242 286 336
#     4  11  21  36  57  82 112 156 194 237 294 347
#     4  10  23  44  64  92 125 152 201 258 309 365
#     4  10  21  34  52  81 116 154 194 236 283 346
#     4  10  21  35  50  78 119 157 195 237 282 346
#
# _framework density 19.989297000000001
#
# number of rings (size 3 to 8) (size 9 to 14) (size 15 to 20)
#    0.000    1.714    4.286    1.714    2.000    3.429 
#    0.000    2.857    0.000    1.714    0.000    0.000 
#    0.000    0.000    0.000    0.000    0.000    0.000 
#
# Total GULP energy -693948.668969 kJ/mol
# GULP energy per Si atom -12391.940517 kJ/mol
# Density = 1.994380 g / cm^3
# Si number density = 19.989297 Si / 1000 Ang^3
#
#
#
# Elastic Constant Matrix: (Units=GPa)
#
#
# Indices 1 2 3 4 5 6 
#
# 1 75.3609 19.0785 47.6704 0.0000 0.0000 0.0000
# 2 19.0785 61.0621 39.0854 0.0000 0.0000 0.0000
# 3 47.6704 39.0854 75.7503 0.0000 0.0000 0.0000
# 4 0.0000 0.0000 0.0000 46.8121 0.0000 0.0000
# 5 0.0000 0.0000 0.0000 0.0000 20.9958 0.0000
# 6 0.0000 0.0000 0.0000 0.0000 0.0000 7.7901
#
#
#
# Elastic Compliance Matrix: (Units=1/GPa)
#
#
# Indices 1 2 3 4 5 6 
#
# 1 0.022413 0.003024 -0.015665 0.000000 0.000000 0.000000
# 2 0.003024 0.024861 -0.014731 0.000000 0.000000 0.000000
# 3 -0.015665 -0.014731 0.030660 0.000000 0.000000 0.000000
# 4 0.000000 0.000000 0.000000 0.021362 0.000000 0.000000
# 5 0.000000 0.000000 0.000000 0.000000 0.047629 0.000000
# 6 0.000000 0.000000 0.000000 0.000000 0.000000 0.128369
#
#
# Mechanical properties :
#
#
# Convention : Reuss Voigt Hill
#
# Bulk Modulus (GPa) = 43.12060 47.09354 45.10707
# Shear Modulus (GPa) = 14.80307 22.20887 18.50597
#
# Velocity S-wave (km/s) = 2.72426 3.33684 3.04599
# Velocity P-wave (km/s) = 5.61374 6.20133 5.91484
#
# Compressibility (1/GPa) = 0.02319077
#
# Stress axis : x y z
#
# Youngs Moduli (GPa) = 44.61683 40.22363 32.61531
#
# Poissons Ratio (x) = -0.12165 0.51093
# Poissons Ratio (y) = -0.13494 0.48046
# Poissons Ratio (z) = 0.69894 0.59253
#
# Static dielectric constant tensor:
#      x y z
#    x 3.699830 0.000000 0.000000 
#    y 0.000000 3.430100 0.000000 
#    z 0.000000 0.000000 3.689630 
# 
# 
# High freq. dielectric constant tensor:
#      x y z
#    x 1.783340 0.000000 0.000000 
#    y 0.000000 1.735840 0.000000 
#    z 0.000000 0.000000 1.790560 
# 
# From -- ./inp_files/24489.got.cif
#   From: 2010.03.12/outbox.cif.g09.slc.cpg/sg64_13_cif.got.tgz:24489.got - 2010.04.10 20:19:32.
