data_PCOD8263063
_publ_section_title
;
Structure prediction by ZEFSAII (Michael W. Deem and Ramdas Pophale) SiO2 
 PCOD8263063
Probable space group: C M C A
;
_chemical_formula_sum "Si O2"
_cell_formula_units_Z 72
_cell_length_a 20.294238
_cell_length_b 14.077254
_cell_length_c 13.471453
_cell_angle_alpha 90.000000
_cell_angle_beta 90.000000
_cell_angle_gamma 90.000000
_cell_volume 3848.620920
_symmetry_space_group_name_H-M "C M C A"
_symmetry_group_IT_number 64
_symmetry_cell_setting 'orthorhombic'
loop_
_space_group_symop_operation_xyz
x,y,z
-x,1/2-y,1/2+z
x,-y,-z
-x,1/2+y,1/2-z
-x,-y,-z
x,1/2+y,1/2-z
-x,y,z
x,1/2-y,1/2+z
1/2+x,1/2+y,z
1/2-x,-y,1/2+z
1/2+x,1/2-y,-z
1/2-x,y,1/2-z
1/2-x,1/2-y,-z
1/2+x,y,1/2-z
1/2-x,1/2+y,z
1/2+x,-y,1/2+z
loop_
_atom_site_type_symbol
_atom_site_label
_atom_site_fract_x
_atom_site_fract_y
_atom_site_fract_z
Si Si1 0.887512 0.604326 0.785101
Si Si2 0.750000 0.839669 0.250000
Si Si3 0.575255 0.232854 0.421175
Si Si4 0.142428 0.738723 0.623233
Si Si5 0.425379 0.109742 0.233521
O O1 0.807741 0.595648 0.797731
O O2 0.917960 0.660087 0.878729
O O3 0.903577 0.666747 0.687069
O O4 0.919646 0.502942 0.769760
O O5 0.781461 0.776076 0.159664
O O6 0.500000 0.218909 0.458379
O O7 0.628756 0.217984 0.508214
O O8 0.595145 0.153230 0.340207
O O9 0.120837 0.846465 0.648091
O O10 0.500000 0.138811 0.210246
#
# Coordination Sequence:
#
# PCOD8263063 Si02
#       5
#    16   8  16  16  16
#     4   9  20  38  54  83 115 152 191 236 284 343
#     4   8  20  40  56  76 114 158 188 232 288 332
#     4  10  20  35  60  88 115 151 192 241 294 336
#     4   9  20  38  56  83 112 152 191 236 282 343
#     4  10  20  35  59  85 114 151 187 242 299 332
#
# _framework density 18.707999999999998
#
# number of rings (size 3 to 8) (size 9 to 14) (size 15 to 20)
#    1.333    1.333    0.000    1.333    0.000    6.222 
#    0.000    4.444    4.889    0.000    0.000    0.000 
#    0.000    0.000    0.000    0.000    0.000    0.000 
#
# Total GULP energy -446007.000465 kJ/mol
# GULP energy per Si atom -12389.083346 kJ/mol
# Density = 1.866542 g / cm^3
# Si number density = 18.708000 Si / 1000 Ang^3
#
#
#
# Elastic Constant Matrix: (Units=GPa)
#
#
# Indices 1 2 3 4 5 6 
#
# 1 79.9355 4.8859 31.6585 0.0000 0.0000 0.0000
# 2 4.8859 82.5769 16.9578 0.0000 0.0000 0.0000
# 3 31.6585 16.9578 87.2868 0.0000 0.0000 0.0000
# 4 0.0000 0.0000 0.0000 13.9879 0.0000 0.0000
# 5 0.0000 0.0000 0.0000 0.0000 24.2898 0.0000
# 6 0.0000 0.0000 0.0000 0.0000 0.0000 28.8647
#
#
#
# Elastic Compliance Matrix: (Units=1/GPa)
#
#
# Indices 1 2 3 4 5 6 
#
# 1 0.014613 0.000233 -0.005345 0.000000 0.000000 0.000000
# 2 0.000233 0.012617 -0.002536 0.000000 0.000000 0.000000
# 3 -0.005345 -0.002536 0.013888 0.000000 0.000000 0.000000
# 4 0.000000 0.000000 0.000000 0.071491 0.000000 0.000000
# 5 0.000000 0.000000 0.000000 0.000000 0.041170 0.000000
# 6 0.000000 0.000000 0.000000 0.000000 0.000000 0.034644
#
#
# Mechanical properties :
#
#
# Convention : Reuss Voigt Hill
#
# Bulk Modulus (GPa) = 38.72708 39.64483 39.18596
# Shear Modulus (GPa) = 23.54878 26.51493 25.03186
#
# Velocity S-wave (km/s) = 3.55174 3.76879 3.66188
# Velocity P-wave (km/s) = 6.12908 6.33844 6.23464
#
# Compressibility (1/GPa) = 0.02582172
#
# Stress axis : x y z
#
# Youngs Moduli (GPa) = 68.43296 79.25908 72.00552
#
# Poissons Ratio (x) = -0.01847 0.38489
# Poissons Ratio (y) = -0.01595 0.18258
# Poissons Ratio (z) = 0.36579 0.20098
#
# Static dielectric constant tensor:
#      x y z
#    x 3.316420 0.000000 0.000000 
#    y 0.000000 3.172580 0.000000 
#    z 0.000000 0.000000 3.220640 
# 
# 
# High freq. dielectric constant tensor:
#      x y z
#    x 1.724080 0.000000 0.000000 
#    y 0.000000 1.710290 0.000000 
#    z 0.000000 0.000000 1.710480 
# 
# From -- ./inp_files/17997.got.cif
#   From: 2010.03.12/outbox.cif.g09.slc.cpg/sg64_9_cif.got.tgz:17997.got - 2010.04.10 20:19:32.
