data_PCOD8263146
_publ_section_title
;
Structure prediction by ZEFSAII (Michael W. Deem and Ramdas Pophale) SiO2 
 PCOD8263146
Probable space group: C M C A
;
_chemical_formula_sum "Si O2"
_cell_formula_units_Z 64
_cell_length_a 8.719843
_cell_length_b 15.412605
_cell_length_c 26.360931
_cell_angle_alpha 90.000000
_cell_angle_beta 90.000000
_cell_angle_gamma 90.000000
_cell_volume 3542.790392
_symmetry_space_group_name_H-M "C M C A"
_symmetry_group_IT_number 64
_symmetry_cell_setting 'orthorhombic'
loop_
_space_group_symop_operation_xyz
x,y,z
-x,1/2-y,1/2+z
x,-y,-z
-x,1/2+y,1/2-z
-x,-y,-z
x,1/2+y,1/2-z
-x,y,z
x,1/2-y,1/2+z
1/2+x,1/2+y,z
1/2-x,-y,1/2+z
1/2+x,1/2-y,-z
1/2-x,y,1/2-z
1/2-x,1/2-y,-z
1/2+x,y,1/2-z
1/2-x,1/2+y,z
1/2+x,-y,1/2+z
loop_
_atom_site_type_symbol
_atom_site_label
_atom_site_fract_x
_atom_site_fract_y
_atom_site_fract_z
Si Si1 0.680645 0.434970 0.348875
Si Si2 0.181013 0.765062 0.196684
Si Si3 0.174126 0.891146 0.855413
Si Si4 0.674301 0.493169 0.056200
O O1 0.500000 0.430764 0.342516
O O2 0.755564 0.359177 0.316574
O O3 0.746199 0.526472 0.327043
O O4 0.727973 0.426460 0.408698
O O5 0.250000 0.733784 0.250000
O O6 0.231766 0.696191 0.154135
O O7 0.000000 0.769144 0.199966
O O8 0.000000 0.880477 0.835730
O O9 0.176970 0.912238 0.916068
O O10 0.500000 0.457882 0.052521
O O11 0.747064 0.500000 0.000000
#
# Coordination Sequence:
#
# PCOD8263146 Si02
#       4
#    16  16  16  16
#     4  10  20  36  57  84 115 147 185 229 275 329
#     4  12  24  39  58  82 111 147 188 231 279 330
#     4   9  19  37  58  83 114 146 184 229 275 329
#     4   8  16  34  59  83 112 148 184 227 277 327
#
# _framework density 18.064855000000001
#
# number of rings (size 3 to 8) (size 9 to 14) (size 15 to 20)
#    1.500    0.750    0.000    4.500    0.000    1.500 
#    0.000    6.250    0.000    0.000    0.000    0.000 
#    0.000    0.000    0.000    0.000    0.000    0.000 
#
# Total GULP energy -396511.740549 kJ/mol
# GULP energy per Si atom -12390.991892 kJ/mol
# Density = 1.802374 g / cm^3
# Si number density = 18.064855 Si / 1000 Ang^3
#
#
#
# Elastic Constant Matrix: (Units=GPa)
#
#
# Indices 1 2 3 4 5 6 
#
# 1 154.3172 37.0595 27.1859 0.0000 0.0000 0.0000
# 2 37.0595 74.3518 6.7802 0.0000 0.0000 0.0000
# 3 27.1859 6.7802 62.5643 0.0000 0.0000 0.0000
# 4 0.0000 0.0000 0.0000 19.8036 0.0000 0.0000
# 5 0.0000 0.0000 0.0000 0.0000 23.6686 0.0000
# 6 0.0000 0.0000 0.0000 0.0000 0.0000 35.5227
#
#
#
# Elastic Compliance Matrix: (Units=1/GPa)
#
#
# Indices 1 2 3 4 5 6 
#
# 1 0.007893 -0.003657 -0.003033 0.000000 0.000000 0.000000
# 2 -0.003657 0.015279 -0.000067 0.000000 0.000000 0.000000
# 3 -0.003033 -0.000067 0.017309 0.000000 0.000000 0.000000
# 4 0.000000 0.000000 0.000000 0.050496 0.000000 0.000000
# 5 0.000000 0.000000 0.000000 0.000000 0.042250 0.000000
# 6 0.000000 0.000000 0.000000 0.000000 0.000000 0.028151
#
#
# Mechanical properties :
#
#
# Convention : Reuss Voigt Hill
#
# Bulk Modulus (GPa) = 37.08404 48.14273 42.61338
# Shear Modulus (GPa) = 27.19160 30.47950 28.83555
#
# Velocity S-wave (km/s) = 3.88393 4.11204 3.99961
# Velocity P-wave (km/s) = 6.37856 7.01805 6.70593
#
# Compressibility (1/GPa) = 0.02696578
#
# Stress axis : x y z
#
# Youngs Moduli (GPa) = 126.69645 65.45083 57.77402
#
# Poissons Ratio (x) = 0.23938 0.17525
# Poissons Ratio (y) = 0.46339 0.00384
# Poissons Ratio (z) = 0.38431 0.00435
#
# Static dielectric constant tensor:
#      x y z
#    x 3.339080 0.000000 0.000000 
#    y 0.000000 3.161620 0.000000 
#    z 0.000000 0.000000 3.258490 
# 
# 
# High freq. dielectric constant tensor:
#      x y z
#    x 1.712240 0.000000 0.000000 
#    y 0.000000 1.680390 0.000000 
#    z 0.000000 0.000000 1.683510 
# 
# From -- ./inp_files/42570.got.cif
#   From: 2010.03.12/outbox.cif.g09.slc.cpg/sg64_22_cif.got.tgz:42570.got - 2010.04.10 20:19:32.
