data_PCOD8263322
_publ_section_title
;
Structure prediction by ZEFSAII (Michael W. Deem and Ramdas Pophale) SiO2 
 PCOD8263322
Probable space group: C M C A
;
_chemical_formula_sum "Si O2"
_cell_formula_units_Z 96
_cell_length_a 9.126458
_cell_length_b 19.575701
_cell_length_c 27.549635
_cell_angle_alpha 90.000000
_cell_angle_beta 90.000000
_cell_angle_gamma 90.000000
_cell_volume 4921.929988
_symmetry_space_group_name_H-M "C M C A"
_symmetry_group_IT_number 64
_symmetry_cell_setting 'orthorhombic'
loop_
_space_group_symop_operation_xyz
x,y,z
-x,1/2-y,1/2+z
x,-y,-z
-x,1/2+y,1/2-z
-x,-y,-z
x,1/2+y,1/2-z
-x,y,z
x,1/2-y,1/2+z
1/2+x,1/2+y,z
1/2-x,-y,1/2+z
1/2+x,1/2-y,-z
1/2-x,y,1/2-z
1/2-x,1/2-y,-z
1/2+x,y,1/2-z
1/2-x,1/2+y,z
1/2+x,-y,1/2+z
loop_
_atom_site_type_symbol
_atom_site_label
_atom_site_fract_x
_atom_site_fract_y
_atom_site_fract_z
Si Si1 0.164344 0.137288 0.799279
Si Si2 0.833871 0.736933 0.134871
Si Si3 0.327624 0.612594 0.300758
Si Si4 0.675309 0.706770 0.542203
Si Si5 0.830309 0.550768 0.960502
Si Si6 0.668739 0.025200 0.852449
O O1 0.250000 0.130598 0.750000
O O2 0.170591 0.213588 0.818930
O O3 0.000000 0.112839 0.789146
O O4 0.233855 0.089632 0.839781
O O5 0.780613 0.664958 0.156862
O O6 0.723887 0.760910 0.093264
O O7 0.000000 0.732380 0.113872
O O8 0.500000 0.617422 0.291578
O O9 0.250000 0.628421 0.250000
O O10 0.279371 0.538926 0.320691
O O11 0.500000 0.711246 0.538583
O O12 0.750000 0.750000 0.500000
O O13 0.733214 0.628214 0.538766
O O14 0.805923 0.512698 0.909421
O O15 0.000000 0.558567 0.973282
O O16 0.755248 0.500000 0.000000
O O17 0.500000 0.042765 0.841995
#
# Coordination Sequence:
#
# PCOD8263322 Si02
#       6
#    16  16  16  16  16  16
#     4  11  22  36  58  85 117 152 191 239 290 346
#     4  10  22  40  60  85 117 153 194 241 289 341
#     4  10  22  38  59  85 117 156 197 244 288 342
#     4  11  23  39  63  90 119 153 191 239 291 348
#     4   9  19  36  61  89 114 150 195 237 284 346
#     4  10  20  37  60  86 116 150 195 239 287 346
#
# _framework density 19.504543999999999
#
# number of rings (size 3 to 8) (size 9 to 14) (size 15 to 20)
#    0.000    1.833    1.667    2.000    2.333    3.333 
#    0.000    0.000    0.000    2.500    0.000    0.000 
#    0.000    0.000    0.000    0.000    0.000    0.000 
#
# Total GULP energy -595209.095470 kJ/mol
# GULP energy per Si atom -12400.189489 kJ/mol
# Density = 1.946015 g / cm^3
# Si number density = 19.504544 Si / 1000 Ang^3
#
#
#
# Elastic Constant Matrix: (Units=GPa)
#
#
# Indices 1 2 3 4 5 6 
#
# 1 68.3710 28.6506 39.1881 0.0000 0.0000 0.0000
# 2 28.6506 91.4420 32.8095 0.0000 0.0000 0.0000
# 3 39.1881 32.8095 105.2935 0.0000 0.0000 0.0000
# 4 0.0000 0.0000 0.0000 37.1761 0.0000 0.0000
# 5 0.0000 0.0000 0.0000 0.0000 34.2520 0.0000
# 6 0.0000 0.0000 0.0000 0.0000 0.0000 25.7880
#
#
#
# Elastic Compliance Matrix: (Units=1/GPa)
#
#
# Indices 1 2 3 4 5 6 
#
# 1 0.019818 -0.004011 -0.006126 0.000000 0.000000 0.000000
# 2 -0.004011 0.013124 -0.002597 0.000000 0.000000 0.000000
# 3 -0.006126 -0.002597 0.012586 0.000000 0.000000 0.000000
# 4 0.000000 0.000000 0.000000 0.026899 0.000000 0.000000
# 5 0.000000 0.000000 0.000000 0.000000 0.029195 0.000000
# 6 0.000000 0.000000 0.000000 0.000000 0.000000 0.038778
#
#
# Mechanical properties :
#
#
# Convention : Reuss Voigt Hill
#
# Bulk Modulus (GPa) = 49.84805 51.82255 50.83530
# Shear Modulus (GPa) = 28.97608 30.40712 29.69160
#
# Velocity S-wave (km/s) = 3.85854 3.95267 3.90589
# Velocity P-wave (km/s) = 6.74268 6.88902 6.81624
#
# Compressibility (1/GPa) = 0.02006096
#
# Stress axis : x y z
#
# Youngs Moduli (GPa) = 50.45848 76.19387 79.45131
#
# Poissons Ratio (x) = 0.30565 0.48672
# Poissons Ratio (y) = 0.20241 0.20630
# Poissons Ratio (z) = 0.30911 0.19784
#
# Static dielectric constant tensor:
#      x y z
#    x 3.454570 0.000000 0.000000 
#    y 0.000000 3.903920 0.000000 
#    z 0.000000 0.000000 3.621560 
# 
# 
# High freq. dielectric constant tensor:
#      x y z
#    x 1.738480 0.000000 0.000000 
#    y 0.000000 1.771600 0.000000 
#    z 0.000000 0.000000 1.770330 
# 
# From -- ./inp_files/48151.got.cif
#   From: 2010.03.12/outbox.cif.g09.slc.cpg/sg64_25_cif.got.tgz:48151.got - 2010.04.10 20:19:32.
