data_PCOD8263589
_publ_section_title
;
Structure prediction by ZEFSAII (Michael W. Deem and Ramdas Pophale) SiO2 
 PCOD8263589
Probable space group: C M C A
;
_chemical_formula_sum "Si O2"
_cell_formula_units_Z 56
_cell_length_a 15.800609
_cell_length_b 30.712329
_cell_length_c 5.131556
_cell_angle_alpha 90.000000
_cell_angle_beta 90.000000
_cell_angle_gamma 90.000000
_cell_volume 2490.208151
_symmetry_space_group_name_H-M "C M C A"
_symmetry_group_IT_number 64
_symmetry_cell_setting 'orthorhombic'
loop_
_space_group_symop_operation_xyz
x,y,z
-x,1/2-y,1/2+z
x,-y,-z
-x,1/2+y,1/2-z
-x,-y,-z
x,1/2+y,1/2-z
-x,y,z
x,1/2-y,1/2+z
1/2+x,1/2+y,z
1/2-x,-y,1/2+z
1/2+x,1/2-y,-z
1/2-x,y,1/2-z
1/2-x,1/2-y,-z
1/2+x,y,1/2-z
1/2-x,1/2+y,z
1/2+x,-y,1/2+z
loop_
_atom_site_type_symbol
_atom_site_label
_atom_site_fract_x
_atom_site_fract_y
_atom_site_fract_z
Si Si1 0.805788 0.000000 0.500000
Si Si2 0.596424 0.361667 0.852630
Si Si3 0.844584 0.230747 0.021594
Si Si4 0.346172 0.908966 0.163489
O O1 0.863994 0.959052 0.418232
O O2 0.750000 0.985613 0.750000
O O3 0.500000 0.347066 0.806739
O O4 0.653971 0.321039 0.941725
O O5 0.633844 0.378869 0.582485
O O6 0.597649 0.397258 0.084630
O O7 0.892570 0.255244 0.258005
O O8 0.750000 0.250000 0.000000
O O9 0.250000 0.902901 0.250000
#
# Coordination Sequence:
#
# PCOD8263589 Si02
#       4
#     8  16  16  16
#     4  10  20  42  65 106 133 168 232 286 320 388
#     4  12  26  43  65 102 141 176 223 285 345 400
#     4  10  23  40  63  92 128 168 231 271 329 396
#     4  11  24  42  73  97 134 180 228 276 333 400
#
# _framework density 22.488081999999999
#
# number of rings (size 3 to 8) (size 9 to 14) (size 15 to 20)
#    0.000    1.143    0.000    6.857   12.000    1.143 
#    0.000    4.286    0.000    0.000    0.000    0.000 
#    0.000    0.000    0.000    0.000    0.000    0.000 
#
# Total GULP energy -347091.753661 kJ/mol
# GULP energy per Si atom -12396.134059 kJ/mol
# Density = 2.243690 g / cm^3
# Si number density = 22.488082 Si / 1000 Ang^3
#
#
#
# Elastic Constant Matrix: (Units=GPa)
#
#
# Indices 1 2 3 4 5 6 
#
# 1 80.7243 55.6921 28.6665 0.0000 0.0000 0.0000
# 2 55.6921 130.1226 48.9219 0.0000 0.0000 0.0000
# 3 28.6665 48.9219 202.8277 0.0000 0.0000 0.0000
# 4 0.0000 0.0000 0.0000 47.9537 0.0000 0.0000
# 5 0.0000 0.0000 0.0000 0.0000 21.0136 0.0000
# 6 0.0000 0.0000 0.0000 0.0000 0.0000 9.4036
#
#
#
# Elastic Compliance Matrix: (Units=1/GPa)
#
#
# Indices 1 2 3 4 5 6 
#
# 1 0.017679 -0.007288 -0.000741 0.000000 0.000000 0.000000
# 2 -0.007288 0.011456 -0.001733 0.000000 0.000000 0.000000
# 3 -0.000741 -0.001733 0.005453 0.000000 0.000000 0.000000
# 4 0.000000 0.000000 0.000000 0.020853 0.000000 0.000000
# 5 0.000000 0.000000 0.000000 0.000000 0.047588 0.000000
# 6 0.000000 0.000000 0.000000 0.000000 0.000000 0.106342
#
#
# Mechanical properties :
#
#
# Convention : Reuss Voigt Hill
#
# Bulk Modulus (GPa) = 66.38323 75.58174 70.98248
# Shear Modulus (GPa) = 21.37510 34.36713 27.87111
#
# Velocity S-wave (km/s) = 3.08638 3.91351 3.52429
# Velocity P-wave (km/s) = 6.50264 7.35550 6.94218
#
# Compressibility (1/GPa) = 0.01506405
#
# Stress axis : x y z
#
# Youngs Moduli (GPa) = 56.56446 87.29121 183.38477
#
# Poissons Ratio (x) = 0.63618 0.13585
# Poissons Ratio (y) = 0.41224 0.31783
# Poissons Ratio (z) = 0.04190 0.15129
#
# Static dielectric constant tensor:
#      x y z
#    x 3.629960 0.000000 0.000000 
#    y 0.000000 4.164250 0.000000 
#    z 0.000000 0.000000 2.877970 
# 
# 
# High freq. dielectric constant tensor:
#      x y z
#    x 1.843100 0.000000 0.000000 
#    y 0.000000 1.891870 0.000000 
#    z 0.000000 0.000000 1.928690 
# 
# From -- ./inp_files/859.got.cif
#   From: 2010.03.12/outbox.cif.g09.slc.cpg/sg64_1_cif.got.tgz:859.got - 2010.04.10 20:19:32.
