data_PCOD8263226
_publ_section_title
;
Structure prediction by ZEFSAII (Michael W. Deem and Ramdas Pophale) SiO2 
 PCOD8263226
Probable space group: C M C A
;
_chemical_formula_sum "Si O2"
_cell_formula_units_Z 64
_cell_length_a 8.613389
_cell_length_b 18.302559
_cell_length_c 20.322139
_cell_angle_alpha 90.000000
_cell_angle_beta 90.000000
_cell_angle_gamma 90.000000
_cell_volume 3203.725474
_symmetry_space_group_name_H-M "C M C A"
_symmetry_group_IT_number 64
_symmetry_cell_setting 'orthorhombic'
loop_
_space_group_symop_operation_xyz
x,y,z
-x,1/2-y,1/2+z
x,-y,-z
-x,1/2+y,1/2-z
-x,-y,-z
x,1/2+y,1/2-z
-x,y,z
x,1/2-y,1/2+z
1/2+x,1/2+y,z
1/2-x,-y,1/2+z
1/2+x,1/2-y,-z
1/2-x,y,1/2-z
1/2-x,1/2-y,-z
1/2+x,y,1/2-z
1/2-x,1/2+y,z
1/2+x,-y,1/2+z
loop_
_atom_site_type_symbol
_atom_site_label
_atom_site_fract_x
_atom_site_fract_y
_atom_site_fract_z
Si Si1 0.318198 0.049793 0.180433
Si Si2 0.683295 0.795154 0.679210
Si Si3 0.179603 0.447264 0.060005
Si Si4 0.818679 0.708031 0.561650
O O1 0.500000 0.064081 0.187799
O O2 0.250000 0.023543 0.250000
O O3 0.241789 0.125293 0.156573
O O4 0.280363 0.987588 0.127906
O O5 0.500000 0.796050 0.683203
O O6 0.750000 0.773486 0.750000
O O7 0.737260 0.734543 0.627994
O O8 0.288994 0.377628 0.053547
O O9 0.000000 0.422975 0.057560
O O10 0.220067 0.500000 0.000000
O O11 0.750000 0.750000 0.500000
O O12 0.000000 0.724160 0.565850
#
# Coordination Sequence:
#
# PCOD8263226 Si02
#       4
#    16  16  16  16
#     4  10  20  36  60  88 120 156 194 239 291 349
#     4  11  22  39  63  90 122 158 199 244 294 352
#     4  10  22  40  61  85 116 154 197 244 293 348
#     4  12  25  41  62  88 120 157 200 247 297 353
#
# _framework density 19.976742999999999
#
# number of rings (size 3 to 8) (size 9 to 14) (size 15 to 20)
#    0.000    1.250    0.000    8.250    0.000    5.500 
#    0.000    2.500    0.000    0.000    0.000    0.000 
#    0.000    0.000    0.000    0.000    0.000    0.000 
#
# Total GULP energy -397019.192324 kJ/mol
# GULP energy per Si atom -12406.849760 kJ/mol
# Density = 1.993127 g / cm^3
# Si number density = 19.976743 Si / 1000 Ang^3
#
#
#
# Elastic Constant Matrix: (Units=GPa)
#
#
# Indices 1 2 3 4 5 6 
#
# 1 145.4842 49.7071 59.7412 0.0000 0.0000 0.0000
# 2 49.7071 112.3465 69.0557 0.0000 0.0000 0.0000
# 3 59.7412 69.0557 126.1002 0.0000 0.0000 0.0000
# 4 0.0000 0.0000 0.0000 32.4999 0.0000 0.0000
# 5 0.0000 0.0000 0.0000 0.0000 27.2405 0.0000
# 6 0.0000 0.0000 0.0000 0.0000 0.0000 37.2682
#
#
#
# Elastic Compliance Matrix: (Units=1/GPa)
#
#
# Indices 1 2 3 4 5 6 
#
# 1 0.008826 -0.002012 -0.003079 0.000000 0.000000 0.000000
# 2 -0.002012 0.013876 -0.006646 0.000000 0.000000 0.000000
# 3 -0.003079 -0.006646 0.013028 0.000000 0.000000 0.000000
# 4 0.000000 0.000000 0.000000 0.030769 0.000000 0.000000
# 5 0.000000 0.000000 0.000000 0.000000 0.036710 0.000000
# 6 0.000000 0.000000 0.000000 0.000000 0.000000 0.026832
#
#
# Mechanical properties :
#
#
# Convention : Reuss Voigt Hill
#
# Bulk Modulus (GPa) = 81.59312 82.32653 81.95983
# Shear Modulus (GPa) = 31.72560 33.09686 32.41123
#
# Velocity S-wave (km/s) = 3.98945 4.07476 4.03233
# Velocity P-wave (km/s) = 7.88376 7.96485 7.92441
#
# Compressibility (1/GPa) = 0.01225594
#
# Stress axis : x y z
#
# Youngs Moduli (GPa) = 113.30752 72.06614 76.75519
#
# Poissons Ratio (x) = 0.14500 0.23636
# Poissons Ratio (y) = 0.22798 0.51009
# Poissons Ratio (z) = 0.34891 0.47893
#
# Static dielectric constant tensor:
#      x y z
#    x 3.731920 0.000000 0.000000 
#    y 0.000000 3.581100 0.000000 
#    z 0.000000 0.000000 3.811040 
# 
# 
# High freq. dielectric constant tensor:
#      x y z
#    x 1.792260 0.000000 0.000000 
#    y 0.000000 1.779390 0.000000 
#    z 0.000000 0.000000 1.796490 
# 
# From -- ./inp_files/36292.got.cif
#   From: 2010.03.12/outbox.cif.g09.slc.cpg/sg64_19_cif.got.tgz:36292.got - 2010.04.10 20:19:32.
