data_PCOD8263188
_publ_section_title
;
Structure prediction by ZEFSAII (Michael W. Deem and Ramdas Pophale) SiO2 
 PCOD8263188
Probable space group: C M C A
;
_chemical_formula_sum "Si O2"
_cell_formula_units_Z 96
_cell_length_a 8.656660
_cell_length_b 26.588322
_cell_length_c 19.090361
_cell_angle_alpha 90.000000
_cell_angle_beta 90.000000
_cell_angle_gamma 90.000000
_cell_volume 4393.953243
_symmetry_space_group_name_H-M "C M C A"
_symmetry_group_IT_number 64
_symmetry_cell_setting 'orthorhombic'
loop_
_space_group_symop_operation_xyz
x,y,z
-x,1/2-y,1/2+z
x,-y,-z
-x,1/2+y,1/2-z
-x,-y,-z
x,1/2+y,1/2-z
-x,y,z
x,1/2-y,1/2+z
1/2+x,1/2+y,z
1/2-x,-y,1/2+z
1/2+x,1/2-y,-z
1/2-x,y,1/2-z
1/2-x,1/2-y,-z
1/2+x,y,1/2-z
1/2-x,1/2+y,z
1/2+x,-y,1/2+z
loop_
_atom_site_type_symbol
_atom_site_label
_atom_site_fract_x
_atom_site_fract_y
_atom_site_fract_z
Si Si1 0.181805 0.703201 0.541758
Si Si2 0.182241 0.052651 0.080478
Si Si3 0.316976 0.957520 0.328141
Si Si4 0.819800 0.141453 0.176870
Si Si5 0.182786 0.755615 0.324521
Si Si6 0.682400 0.598057 0.548152
O O1 0.250000 0.750000 0.500000
O O2 0.227718 0.708579 0.622553
O O3 0.251745 0.650241 0.516601
O O4 0.000000 0.701869 0.529418
O O5 0.237098 0.007702 0.130882
O O6 0.238369 0.104132 0.117070
O O7 0.000000 0.049937 0.067429
O O8 0.263939 0.052969 0.004226
O O9 0.500000 0.953436 0.322951
O O10 0.250000 0.956813 0.250000
O O11 0.251106 0.911350 0.374100
O O12 0.750000 0.124247 0.250000
O O13 0.773206 0.198161 0.156585
O O14 0.000000 0.136549 0.186775
O O15 0.250000 0.770678 0.250000
O O16 0.000000 0.765045 0.327840
O O17 0.500000 0.600478 0.553122
#
# Coordination Sequence:
#
# PCOD8263188 Si02
#       6
#    16  16  16  16  16  16
#     4  12  25  43  66  93 125 163 209 260 317 378
#     4  10  21  39  63  92 127 166 206 255 315 371
#     4  11  24  43  67  95 129 168 211 259 312 371
#     4   9  18  32  54  85 122 161 202 251 305 364
#     4  10  20  36  58  87 123 164 210 258 311 372
#     4  12  26  43  65  93 125 164 210 259 313 373
#
# _framework density 21.848208
#
# number of rings (size 3 to 8) (size 9 to 14) (size 15 to 20)
#    0.000    1.333    0.000    6.000    0.000    6.667 
#    0.000    3.333    0.000    0.000    0.000    0.000 
#    0.000    0.000    0.000    0.000    0.000    0.000 
#
# Total GULP energy -595341.004691 kJ/mol
# GULP energy per Si atom -12402.937598 kJ/mol
# Density = 2.179848 g / cm^3
# Si number density = 21.848208 Si / 1000 Ang^3
#
#
#
# Elastic Constant Matrix: (Units=GPa)
#
#
# Indices 1 2 3 4 5 6 
#
# 1 111.3968 39.8210 52.1896 0.0000 0.0000 0.0000
# 2 39.8210 86.6577 47.6250 0.0000 0.0000 0.0000
# 3 52.1896 47.6250 120.3189 0.0000 0.0000 0.0000
# 4 0.0000 0.0000 0.0000 35.6791 0.0000 0.0000
# 5 0.0000 0.0000 0.0000 0.0000 44.8509 0.0000
# 6 0.0000 0.0000 0.0000 0.0000 0.0000 26.8741
#
#
#
# Elastic Compliance Matrix: (Units=1/GPa)
#
#
# Indices 1 2 3 4 5 6 
#
# 1 0.011999 -0.003391 -0.003862 0.000000 0.000000 0.000000
# 2 -0.003391 0.015706 -0.004746 0.000000 0.000000 0.000000
# 3 -0.003862 -0.004746 0.011865 0.000000 0.000000 0.000000
# 4 0.000000 0.000000 0.000000 0.028028 0.000000 0.000000
# 5 0.000000 0.000000 0.000000 0.000000 0.022296 0.000000
# 6 0.000000 0.000000 0.000000 0.000000 0.000000 0.037210
#
#
# Mechanical properties :
#
#
# Convention : Reuss Voigt Hill
#
# Bulk Modulus (GPa) = 64.22043 66.40494 65.31268
# Shear Modulus (GPa) = 31.99121 33.39670 32.69395
#
# Velocity S-wave (km/s) = 3.83070 3.91395 3.87255
# Velocity P-wave (km/s) = 7.00167 7.13338 7.06783
#
# Compressibility (1/GPa) = 0.01557137
#
# Stress axis : x y z
#
# Youngs Moduli (GPa) = 83.34323 63.66933 84.28070
#
# Poissons Ratio (x) = 0.21590 0.32552
# Poissons Ratio (y) = 0.28261 0.39999
# Poissons Ratio (z) = 0.32189 0.30217
#
# Static dielectric constant tensor:
#      x y z
#    x 3.832610 0.000000 0.000000 
#    y 0.000000 4.363740 0.000000 
#    z 0.000000 0.000000 4.177710 
# 
# 
# High freq. dielectric constant tensor:
#      x y z
#    x 1.854150 0.000000 0.000000 
#    y 0.000000 1.863740 0.000000 
#    z 0.000000 0.000000 1.874350 
# 
# From -- ./inp_files/37014.got.cif
#   From: 2010.03.12/outbox.cif.g09.slc.cpg/sg64_19_cif.got.tgz:37014.got - 2010.04.10 20:19:32.
