data_PCOD8263576
_publ_section_title
;
Structure prediction by ZEFSAII (Michael W. Deem and Ramdas Pophale) SiO2 
 PCOD8263576
Probable space group: C M C A
;
_chemical_formula_sum "Si O2"
_cell_formula_units_Z 112
_cell_length_a 18.209470
_cell_length_b 13.078561
_cell_length_c 23.534249
_cell_angle_alpha 90.000000
_cell_angle_beta 90.000000
_cell_angle_gamma 90.000000
_cell_volume 5604.767633
_symmetry_space_group_name_H-M "C M C A"
_symmetry_group_IT_number 64
_symmetry_cell_setting 'orthorhombic'
loop_
_space_group_symop_operation_xyz
x,y,z
-x,1/2-y,1/2+z
x,-y,-z
-x,1/2+y,1/2-z
-x,-y,-z
x,1/2+y,1/2-z
-x,y,z
x,1/2-y,1/2+z
1/2+x,1/2+y,z
1/2-x,-y,1/2+z
1/2+x,1/2-y,-z
1/2-x,y,1/2-z
1/2-x,1/2-y,-z
1/2+x,y,1/2-z
1/2-x,1/2+y,z
1/2+x,-y,1/2+z
loop_
_atom_site_type_symbol
_atom_site_label
_atom_site_fract_x
_atom_site_fract_y
_atom_site_fract_z
Si Si1 0.083070 0.244290 0.549586
Si Si2 0.171184 0.679914 0.058789
Si Si3 0.705735 0.876613 0.371222
Si Si4 0.177708 0.938187 0.944067
Si Si5 0.333423 0.256573 0.235262
Si Si6 0.373925 0.873626 0.157040
Si Si7 0.083698 0.598817 0.163609
O O1 0.130151 0.189876 0.500821
O O2 0.117032 0.352701 0.567163
O O3 0.081468 0.173387 0.604909
O O4 0.000000 0.260196 0.527968
O O5 0.195702 0.791665 0.079910
O O6 0.242140 0.610540 0.049413
O O7 0.117304 0.625026 0.102515
O O8 0.664687 0.842994 0.313776
O O9 0.790893 0.894159 0.360628
O O10 0.672780 0.984694 0.390823
O O11 0.156982 0.000000 0.000000
O O12 0.250000 0.226733 0.250000
O O13 0.377293 0.297148 0.289578
O O14 0.372279 0.154171 0.213874
O O15 0.412248 0.978532 0.175079
O O16 0.000000 0.636525 0.164485
#
# Coordination Sequence:
#
# PCOD8263576 Si02
#       7
#    16  16  16  16  16  16  16
#     4  12  26  40  60  93 134 170 205 260 320 377
#     4  11  22  42  63  92 128 164 212 258 311 377
#     4  10  20  41  65  95 120 163 215 264 307 370
#     4  12  22  38  67  94 125 164 216 260 311 377
#     4   9  23  42  67  91 122 166 213 264 311 372
#     4  11  22  42  63  92 129 160 213 263 314 372
#     4  11  24  40  64  93 125 165 205 259 323 378
#
# _framework density 19.982987000000001
#
# number of rings (size 3 to 8) (size 9 to 14) (size 15 to 20)
#    0.000    1.143    4.286    2.143    0.000    4.286 
#    0.000    2.143    0.000    0.000    0.000    0.000 
#    0.000    0.000    0.000    0.000    0.000    0.000 
#
# Total GULP energy -694748.019139 kJ/mol
# GULP energy per Si atom -12406.214627 kJ/mol
# Density = 1.993751 g / cm^3
# Si number density = 19.982987 Si / 1000 Ang^3
#
#
#
# Elastic Constant Matrix: (Units=GPa)
#
#
# Indices 1 2 3 4 5 6 
#
# 1 70.8656 33.3533 31.1725 0.0000 0.0000 0.0000
# 2 33.3533 117.4746 47.4045 0.0000 0.0000 0.0000
# 3 31.1725 47.4045 119.3970 0.0000 0.0000 0.0000
# 4 0.0000 0.0000 0.0000 32.0250 0.0000 0.0000
# 5 0.0000 0.0000 0.0000 0.0000 9.6122 0.0000
# 6 0.0000 0.0000 0.0000 0.0000 0.0000 3.2576
#
#
#
# Elastic Compliance Matrix: (Units=1/GPa)
#
#
# Indices 1 2 3 4 5 6 
#
# 1 0.017162 -0.003649 -0.003032 0.000000 0.000000 0.000000
# 2 -0.003649 0.010912 -0.003380 0.000000 0.000000 0.000000
# 3 -0.003032 -0.003380 0.010509 0.000000 0.000000 0.000000
# 4 0.000000 0.000000 0.000000 0.031226 0.000000 0.000000
# 5 0.000000 0.000000 0.000000 0.000000 0.104034 0.000000
# 6 0.000000 0.000000 0.000000 0.000000 0.000000 0.306976
#
#
# Mechanical properties :
#
#
# Convention : Reuss Voigt Hill
#
# Bulk Modulus (GPa) = 54.16613 59.06643 56.61628
# Shear Modulus (GPa) = 9.86008 22.03275 15.94641
#
# Velocity S-wave (km/s) = 2.22372 3.32411 2.82795
# Velocity P-wave (km/s) = 5.81018 6.65999 6.24955
#
# Compressibility (1/GPa) = 0.01846172
#
# Stress axis : x y z
#
# Youngs Moduli (GPa) = 58.26663 91.63848 95.15732
#
# Poissons Ratio (x) = 0.33442 0.28851
# Poissons Ratio (y) = 0.21263 0.32162
# Poissons Ratio (z) = 0.17666 0.30972
#
# Static dielectric constant tensor:
#      x y z
#    x 3.547920 0.000000 0.000000 
#    y 0.000000 3.712290 0.000000 
#    z 0.000000 0.000000 3.731630 
# 
# 
# High freq. dielectric constant tensor:
#      x y z
#    x 1.771280 0.000000 0.000000 
#    y 0.000000 1.786720 0.000000 
#    z 0.000000 0.000000 1.787990 
# 
# From -- ./inp_files/46352.got.cif
#   From: 2010.03.12/outbox.cif.g09.slc.cpg/sg64_24_cif.got.tgz:46352.got - 2010.04.10 20:19:32.
