data_PCOD8263159
_publ_section_title
;
Structure prediction by ZEFSAII (Michael W. Deem and Ramdas Pophale) SiO2 
 PCOD8263159
Probable space group: C M C A
;
_chemical_formula_sum "Si O2"
_cell_formula_units_Z 96
_cell_length_a 18.016358
_cell_length_b 25.855531
_cell_length_c 9.899853
_cell_angle_alpha 90.000000
_cell_angle_beta 90.000000
_cell_angle_gamma 90.000000
_cell_volume 4611.574302
_symmetry_space_group_name_H-M "C M C A"
_symmetry_group_IT_number 64
_symmetry_cell_setting 'orthorhombic'
loop_
_space_group_symop_operation_xyz
x,y,z
-x,1/2-y,1/2+z
x,-y,-z
-x,1/2+y,1/2-z
-x,-y,-z
x,1/2+y,1/2-z
-x,y,z
x,1/2-y,1/2+z
1/2+x,1/2+y,z
1/2-x,-y,1/2+z
1/2+x,1/2-y,-z
1/2-x,y,1/2-z
1/2-x,1/2-y,-z
1/2+x,y,1/2-z
1/2-x,1/2+y,z
1/2+x,-y,1/2+z
loop_
_atom_site_type_symbol
_atom_site_label
_atom_site_fract_x
_atom_site_fract_y
_atom_site_fract_z
Si Si1 0.583047 0.531746 0.374610
Si Si2 0.086457 0.356812 0.282352
Si Si3 0.917142 0.464156 0.386960
Si Si4 0.655799 0.806434 0.514487
Si Si5 0.335385 0.366660 0.724001
Si Si6 0.323892 0.810475 0.042077
O O1 0.619211 0.500000 0.500000
O O2 0.500000 0.550002 0.414997
O O3 0.580624 0.492636 0.253146
O O4 0.629168 0.580936 0.329080
O O5 0.119365 0.408313 0.356967
O O6 0.097040 0.311338 0.392366
O O7 0.133353 0.347060 0.147128
O O8 0.000000 0.362580 0.242363
O O9 0.875076 0.500000 0.500000
O O10 0.000000 0.453470 0.443327
O O11 0.631223 0.844924 0.635783
O O12 0.655390 0.748702 0.574091
O O13 0.735681 0.819664 0.447991
O O14 0.250000 0.378323 0.750000
O O15 0.348691 0.323339 0.610206
#
# Coordination Sequence:
#
# PCOD8263159 Si02
#       6
#    16  16  16  16  16  16
#     4  10  20  36  58  81 110 150 187 223 280 347
#     4  11  22  36  58  88 116 145 191 247 293 337
#     4   9  18  33  52  76 109 147 183 220 271 337
#     4  10  21  39  61  82 112 157 195 231 288 355
#     4  10  21  37  58  86 115 146 195 247 286 336
#     4  10  21  39  60  82 114 154 194 234 286 354
#
# _framework density 20.817187000000001
#
# number of rings (size 3 to 8) (size 9 to 14) (size 15 to 20)
#    0.000    2.000    0.000    3.500    0.000    7.333 
#    0.000    7.500    0.000    0.000    0.000    0.000 
#    0.000    0.000    0.000    0.000    0.000    0.000 
#
# Total GULP energy -595015.576557 kJ/mol
# GULP energy per Si atom -12396.157845 kJ/mol
# Density = 2.076981 g / cm^3
# Si number density = 20.817187 Si / 1000 Ang^3
#
#
#
# Elastic Constant Matrix: (Units=GPa)
#
#
# Indices 1 2 3 4 5 6 
#
# 1 45.3884 40.6451 48.5987 0.0000 0.0000 0.0000
# 2 40.6451 116.9822 57.9442 0.0000 0.0000 0.0000
# 3 48.5987 57.9442 130.4282 0.0000 0.0000 0.0000
# 4 0.0000 0.0000 0.0000 47.7877 0.0000 0.0000
# 5 0.0000 0.0000 0.0000 0.0000 33.3301 0.0000
# 6 0.0000 0.0000 0.0000 0.0000 0.0000 40.9417
#
#
#
# Elastic Compliance Matrix: (Units=1/GPa)
#
#
# Indices 1 2 3 4 5 6 
#
# 1 0.042917 -0.008963 -0.012009 0.000000 0.000000 0.000000
# 2 -0.008963 0.012832 -0.002361 0.000000 0.000000 0.000000
# 3 -0.012009 -0.002361 0.013191 0.000000 0.000000 0.000000
# 4 0.000000 0.000000 0.000000 0.020926 0.000000 0.000000
# 5 0.000000 0.000000 0.000000 0.000000 0.030003 0.000000
# 6 0.000000 0.000000 0.000000 0.000000 0.000000 0.024425
#
#
# Mechanical properties :
#
#
# Convention : Reuss Voigt Hill
#
# Bulk Modulus (GPa) = 44.89722 65.24164 55.06943
# Shear Modulus (GPa) = 25.20356 34.11930 29.66143
#
# Velocity S-wave (km/s) = 3.48330 4.05284 3.77882
# Velocity P-wave (km/s) = 6.14752 7.30130 6.74911
#
# Compressibility (1/GPa) = 0.02227310
#
# Stress axis : x y z
#
# Youngs Moduli (GPa) = 23.30075 77.93068 75.81024
#
# Poissons Ratio (x) = 0.69848 0.91044
# Poissons Ratio (y) = 0.20884 0.17900
# Poissons Ratio (z) = 0.27983 0.18400
#
# Static dielectric constant tensor:
#      x y z
#    x 3.606350 0.000000 0.000000 
#    y 0.000000 3.665980 0.000000 
#    z 0.000000 0.000000 3.910520 
# 
# 
# High freq. dielectric constant tensor:
#      x y z
#    x 1.777410 0.000000 0.000000 
#    y 0.000000 1.822540 0.000000 
#    z 0.000000 0.000000 1.835160 
# 
# From -- ./inp_files/8446.got.cif
#   From: 2010.03.12/outbox.cif.g09.slc.cpg/sg64_5_cif.got.tgz:8446.got - 2010.04.10 20:19:32.
