data_PCOD8263949
_publ_section_title
;
Structure prediction by ZEFSAII (Michael W. Deem and Ramdas Pophale) SiO2 
 PCOD8263949
Probable space group: C M C A
;
_chemical_formula_sum "Si O2"
_cell_formula_units_Z 112
_cell_length_a 14.530061
_cell_length_b 14.390435
_cell_length_c 25.881456
_cell_angle_alpha 90.000000
_cell_angle_beta 90.000000
_cell_angle_gamma 90.000000
_cell_volume 5411.654530
_symmetry_space_group_name_H-M "C M C A"
_symmetry_group_IT_number 64
_symmetry_cell_setting 'orthorhombic'
loop_
_space_group_symop_operation_xyz
x,y,z
-x,1/2-y,1/2+z
x,-y,-z
-x,1/2+y,1/2-z
-x,-y,-z
x,1/2+y,1/2-z
-x,y,z
x,1/2-y,1/2+z
1/2+x,1/2+y,z
1/2-x,-y,1/2+z
1/2+x,1/2-y,-z
1/2-x,y,1/2-z
1/2-x,1/2-y,-z
1/2+x,y,1/2-z
1/2-x,1/2+y,z
1/2+x,-y,1/2+z
loop_
_atom_site_type_symbol
_atom_site_label
_atom_site_fract_x
_atom_site_fract_y
_atom_site_fract_z
Si Si1 0.653995 0.021721 0.054653
Si Si2 0.227034 0.900374 0.364798
Si Si3 0.193480 0.168140 0.026463
Si Si4 0.889726 0.778728 0.866016
Si Si5 0.244107 0.906614 0.810759
Si Si6 0.096603 0.163776 0.373328
Si Si7 0.897451 0.849499 0.076521
O O1 0.743042 0.087848 0.049822
O O2 0.585121 0.067350 0.095382
O O3 0.685568 0.924307 0.078830
O O4 0.606094 0.000000 0.000000
O O5 0.165926 0.812950 0.344759
O O6 0.334380 0.882105 0.375730
O O7 0.227735 0.987996 0.325868
O O8 0.130996 0.206934 0.073254
O O9 0.250000 0.250000 0.000000
O O10 0.131006 0.121902 0.981556
O O11 0.853291 0.868701 0.833263
O O12 0.000000 0.767691 0.857561
O O13 0.250000 0.898700 0.750000
O O14 0.320349 0.835677 0.833184
O O15 0.109281 0.238039 0.419151
O O16 0.000000 0.180351 0.343136
O O17 0.000000 0.888054 0.086804
#
# Coordination Sequence:
#
# PCOD8263949 Si02
#       7
#    16  16  16  16  16  16  16
#     4  11  19  33  59  87 130 175 208 258 315 379
#     4  11  22  42  63  95 133 169 214 272 332 389
#     4  12  18  38  61  91 135 181 221 261 319 390
#     4  12  25  44  70 100 134 175 224 274 330 399
#     4  11  25  47  73  93 127 166 216 285 345 394
#     4  10  21  39  62  90 123 165 212 260 321 389
#     4  11  21  36  62  92 130 175 215 258 318 390
#
# _framework density 20.696073999999999
#
# number of rings (size 3 to 8) (size 9 to 14) (size 15 to 20)
#    0.000    0.857    8.571    0.429    0.000    4.286 
#    0.000    0.714    0.000    0.000    0.000    0.000 
#    0.000    0.000    0.000    0.000    0.000    0.000 
#
# Total GULP energy -693840.718311 kJ/mol
# GULP energy per Si atom -12390.012827 kJ/mol
# Density = 2.064897 g / cm^3
# Si number density = 20.696074 Si / 1000 Ang^3
#
#
#
# Elastic Constant Matrix: (Units=GPa)
#
#
# Indices 1 2 3 4 5 6 
#
# 1 118.4017 22.5903 39.0871 0.0000 0.0000 0.0000
# 2 22.5903 67.1186 14.9419 0.0000 0.0000 0.0000
# 3 39.0871 14.9419 102.8695 0.0000 0.0000 0.0000
# 4 0.0000 0.0000 0.0000 21.7569 0.0000 0.0000
# 5 0.0000 0.0000 0.0000 0.0000 11.4870 0.0000
# 6 0.0000 0.0000 0.0000 0.0000 0.0000 13.9549
#
#
#
# Elastic Compliance Matrix: (Units=1/GPa)
#
#
# Indices 1 2 3 4 5 6 
#
# 1 0.010086 -0.002626 -0.003451 0.000000 0.000000 0.000000
# 2 -0.002626 0.016081 -0.001338 0.000000 0.000000 0.000000
# 3 -0.003451 -0.001338 0.011227 0.000000 0.000000 0.000000
# 4 0.000000 0.000000 0.000000 0.045962 0.000000 0.000000
# 5 0.000000 0.000000 0.000000 0.000000 0.087055 0.000000
# 6 0.000000 0.000000 0.000000 0.000000 0.000000 0.071660
#
#
# Mechanical properties :
#
#
# Convention : Reuss Voigt Hill
#
# Bulk Modulus (GPa) = 44.31990 49.06982 46.69486
# Shear Modulus (GPa) = 18.90915 23.55777 21.23346
#
# Velocity S-wave (km/s) = 3.02596 3.37749 3.20654
# Velocity P-wave (km/s) = 5.80256 6.24268 6.02664
#
# Compressibility (1/GPa) = 0.02256323
#
# Stress axis : x y z
#
# Youngs Moduli (GPa) = 99.14562 62.18586 89.07411
#
# Poissons Ratio (x) = 0.16333 0.30739
# Poissons Ratio (y) = 0.26040 0.11916
# Poissons Ratio (z) = 0.34214 0.08319
#
# Static dielectric constant tensor:
#      x y z
#    x 3.847670 0.000000 0.000000 
#    y 0.000000 3.853390 0.000000 
#    z 0.000000 0.000000 3.526230 
# 
# 
# High freq. dielectric constant tensor:
#      x y z
#    x 1.807740 0.000000 0.000000 
#    y 0.000000 1.813440 0.000000 
#    z 0.000000 0.000000 1.779760 
# 
# From -- ./inp_files/50071.got.cif
#   From: 2010.03.12/outbox.cif.g09.slc.cpg/sg64_26_cif.got.tgz:50071.got - 2010.04.10 20:19:32.
