data_PCOD8263631
_publ_section_title
;
Structure prediction by ZEFSAII (Michael W. Deem and Ramdas Pophale) SiO2 
 PCOD8263631
Probable space group: C M C A
;
_chemical_formula_sum "Si O2"
_cell_formula_units_Z 80
_cell_length_a 13.885486
_cell_length_b 25.567643
_cell_length_c 11.607287
_cell_angle_alpha 90.000000
_cell_angle_beta 90.000000
_cell_angle_gamma 90.000000
_cell_volume 4120.809152
_symmetry_space_group_name_H-M "C M C A"
_symmetry_group_IT_number 64
_symmetry_cell_setting 'orthorhombic'
loop_
_space_group_symop_operation_xyz
x,y,z
-x,1/2-y,1/2+z
x,-y,-z
-x,1/2+y,1/2-z
-x,-y,-z
x,1/2+y,1/2-z
-x,y,z
x,1/2-y,1/2+z
1/2+x,1/2+y,z
1/2-x,-y,1/2+z
1/2+x,1/2-y,-z
1/2-x,y,1/2-z
1/2-x,1/2-y,-z
1/2+x,y,1/2-z
1/2-x,1/2+y,z
1/2+x,-y,1/2+z
loop_
_atom_site_type_symbol
_atom_site_label
_atom_site_fract_x
_atom_site_fract_y
_atom_site_fract_z
Si Si1 0.386876 0.642840 0.303295
Si Si2 0.389182 0.217211 0.992249
Si Si3 0.112155 0.838405 0.952837
Si Si4 0.886262 0.942043 0.519131
Si Si5 0.271138 0.364426 0.380630
O O1 0.500000 0.645534 0.285167
O O2 0.356482 0.691194 0.386107
O O3 0.342794 0.650440 0.175006
O O4 0.356320 0.586965 0.360392
O O5 0.500000 0.203150 0.965411
O O6 0.372804 0.278665 0.990751
O O7 0.320964 0.192312 0.894856
O O8 0.000000 0.854617 0.961307
O O9 0.173981 0.871743 0.043511
O O10 0.848132 0.908043 0.414191
O O11 0.000000 0.943917 0.510131
O O12 0.842615 0.000000 0.500000
O O13 0.250000 0.374504 0.250000
#
# Coordination Sequence:
#
# PCOD8263631 Si02
#       5
#    16  16  16  16  16
#     4   8  16  33  56  82 105 139 190 229 270 327
#     4   9  19  35  55  78 112 152 190 227 268 327
#     4  10  21  35  54  82 116 154 185 225 281 331
#     4   9  19  40  65  83 104 142 190 239 287 335
#     4  11  23  36  52  86 117 146 187 230 283 339
#
# _framework density 19.413664000000001
#
# number of rings (size 3 to 8) (size 9 to 14) (size 15 to 20)
#    0.000    2.600    0.000    2.400    2.800    4.800 
#    3.600    0.000    0.000    0.600    0.000    0.000 
#    0.000    0.000    0.000    0.000    0.000    0.000 
#
# Total GULP energy -495780.660400 kJ/mol
# GULP energy per Si atom -12394.516510 kJ/mol
# Density = 1.936948 g / cm^3
# Si number density = 19.413664 Si / 1000 Ang^3
#
#
#
# Elastic Constant Matrix: (Units=GPa)
#
#
# Indices 1 2 3 4 5 6 
#
# 1 24.3917 19.1230 25.6957 0.0000 0.0000 0.0000
# 2 19.1230 75.8886 45.7228 0.0000 0.0000 0.0000
# 3 25.6957 45.7228 151.8496 0.0000 0.0000 0.0000
# 4 0.0000 0.0000 0.0000 11.8621 0.0000 0.0000
# 5 0.0000 0.0000 0.0000 0.0000 31.1780 0.0000
# 6 0.0000 0.0000 0.0000 0.0000 0.0000 19.6971
#
#
#
# Elastic Compliance Matrix: (Units=1/GPa)
#
#
# Indices 1 2 3 4 5 6 
#
# 1 0.055690 -0.010207 -0.006350 0.000000 0.000000 0.000000
# 2 -0.010207 0.017968 -0.003683 0.000000 0.000000 0.000000
# 3 -0.006350 -0.003683 0.008769 0.000000 0.000000 0.000000
# 4 0.000000 0.000000 0.000000 0.084302 0.000000 0.000000
# 5 0.000000 0.000000 0.000000 0.000000 0.032074 0.000000
# 6 0.000000 0.000000 0.000000 0.000000 0.000000 0.050769
#
#
# Mechanical properties :
#
#
# Convention : Reuss Voigt Hill
#
# Bulk Modulus (GPa) = 23.84015 48.13477 35.98746
# Shear Modulus (GPa) = 16.44549 23.32001 19.88275
#
# Velocity S-wave (km/s) = 2.91367 3.46962 3.20373
# Velocity P-wave (km/s) = 4.86066 6.39524 5.68001
#
# Compressibility (1/GPa) = 0.04194604
#
# Stress axis : x y z
#
# Youngs Moduli (GPa) = 17.95667 55.65342 114.03712
#
# Poissons Ratio (x) = 0.56806 0.72417
# Poissons Ratio (y) = 0.18328 0.42002
# Poissons Ratio (z) = 0.11403 0.20498
#
# Static dielectric constant tensor:
#      x y z
#    x 3.656760 0.000000 0.000000 
#    y 0.000000 3.681270 0.000000 
#    z 0.000000 0.000000 3.581260 
# 
# 
# High freq. dielectric constant tensor:
#      x y z
#    x 1.768080 0.000000 0.000000 
#    y 0.000000 1.731970 0.000000 
#    z 0.000000 0.000000 1.746050 
# 
# From -- ./inp_files/14441.got.cif
#   From: 2010.03.12/outbox.cif.g09.slc.cpg/sg64_8_cif.got.tgz:14441.got - 2010.04.10 20:19:32.
