data_PCOD8263676
_publ_section_title
;
Structure prediction by ZEFSAII (Michael W. Deem and Ramdas Pophale) SiO2 
 PCOD8263676
Probable space group: C M C A
;
_chemical_formula_sum "Si O2"
_cell_formula_units_Z 128
_cell_length_a 23.045633
_cell_length_b 12.010353
_cell_length_c 23.145247
_cell_angle_alpha 90.000000
_cell_angle_beta 90.000000
_cell_angle_gamma 90.000000
_cell_volume 6406.284674
_symmetry_space_group_name_H-M "C M C A"
_symmetry_group_IT_number 64
_symmetry_cell_setting 'orthorhombic'
loop_
_space_group_symop_operation_xyz
x,y,z
-x,1/2-y,1/2+z
x,-y,-z
-x,1/2+y,1/2-z
-x,-y,-z
x,1/2+y,1/2-z
-x,y,z
x,1/2-y,1/2+z
1/2+x,1/2+y,z
1/2-x,-y,1/2+z
1/2+x,1/2-y,-z
1/2-x,y,1/2-z
1/2-x,1/2-y,-z
1/2+x,y,1/2-z
1/2-x,1/2+y,z
1/2+x,-y,1/2+z
loop_
_atom_site_type_symbol
_atom_site_label
_atom_site_fract_x
_atom_site_fract_y
_atom_site_fract_z
Si Si1 0.337895 0.547434 0.151962
Si Si2 0.564681 0.071296 0.805533
Si Si3 0.705628 0.387906 0.966822
Si Si4 0.433499 0.347584 0.625589
Si Si5 0.562775 0.393822 0.171635
Si Si6 0.175669 0.788817 0.556879
Si Si7 0.285973 0.169260 0.671692
Si Si8 0.838879 0.235946 0.713070
O O1 0.323376 0.617457 0.095672
O O2 0.390772 0.464669 0.136022
O O3 0.284987 0.465911 0.170860
O O4 0.352197 0.633326 0.203743
O O5 0.500000 0.108318 0.826092
O O6 0.565515 0.062166 0.736786
O O7 0.612370 0.164898 0.821077
O O8 0.581633 0.953944 0.834590
O O9 0.775291 0.379867 0.958355
O O10 0.691424 0.500000 0.000000
O O11 0.673425 0.289015 0.000708
O O12 0.500000 0.356180 0.601717
O O13 0.426413 0.238678 0.665766
O O14 0.387325 0.343106 0.572005
O O15 0.500000 0.421899 0.145082
O O16 0.196539 0.714988 0.610101
O O17 0.222953 0.211538 0.685572
O O18 0.334661 0.207905 0.718710
#
# Coordination Sequence:
#
# PCOD8263676 Si02
#       8
#    16  16  16  16  16  16  16  16
#     4  12  23  40  61  91 127 157 205 256 305 368
#     4  10  22  37  58  87 122 168 209 243 296 376
#     4  11  23  40  64  90 116 158 207 262 308 357
#     4  10  21  39  62  87 123 164 206 253 304 368
#     4  10  21  36  57  87 122 164 205 245 301 365
#     4  11  22  40  64  87 120 157 211 252 302 368
#     4  11  23  39  57  93 126 166 196 248 309 378
#     4  11  25  37  59  93 129 161 196 247 320 366
#
# _framework density 19.98038
#
# number of rings (size 3 to 8) (size 9 to 14) (size 15 to 20)
#    0.000    1.250    5.000    0.000    5.250    2.500 
#    0.000    0.625    0.000    2.625    0.000    0.000 
#    0.000    0.000    0.000    0.000    0.000    0.000 
#
# Total GULP energy -793240.876090 kJ/mol
# GULP energy per Si atom -12394.388689 kJ/mol
# Density = 1.993490 g / cm^3
# Si number density = 19.980380 Si / 1000 Ang^3
#
#
#
# Elastic Constant Matrix: (Units=GPa)
#
#
# Indices 1 2 3 4 5 6 
#
# 1 98.1786 24.1002 -0.7773 0.0000 0.0000 0.0000
# 2 24.1002 96.8171 17.2691 0.0000 0.0000 0.0000
# 3 -0.7773 17.2691 62.8891 0.0000 0.0000 0.0000
# 4 0.0000 0.0000 0.0000 23.2488 0.0000 0.0000
# 5 0.0000 0.0000 0.0000 0.0000 26.7158 0.0000
# 6 0.0000 0.0000 0.0000 0.0000 0.0000 24.2111
#
#
#
# Elastic Compliance Matrix: (Units=1/GPa)
#
#
# Indices 1 2 3 4 5 6 
#
# 1 0.010899 -0.002878 0.000925 0.000000 0.000000 0.000000
# 2 -0.002878 0.011621 -0.003227 0.000000 0.000000 0.000000
# 3 0.000925 -0.003227 0.016798 0.000000 0.000000 0.000000
# 4 0.000000 0.000000 0.000000 0.043013 0.000000 0.000000
# 5 0.000000 0.000000 0.000000 0.000000 0.037431 0.000000
# 6 0.000000 0.000000 0.000000 0.000000 0.000000 0.041303
#
#
# Mechanical properties :
#
#
# Convention : Reuss Voigt Hill
#
# Bulk Modulus (GPa) = 34.53133 37.67428 36.10281
# Shear Modulus (GPa) = 27.61240 29.32135 28.46687
#
# Velocity S-wave (km/s) = 3.72153 3.83496 3.77867
# Velocity P-wave (km/s) = 5.98218 6.20531 6.09476
#
# Compressibility (1/GPa) = 0.02895921
#
# Stress axis : x y z
#
# Youngs Moduli (GPa) = 91.74862 86.05331 59.52929
#
# Poissons Ratio (x) = 0.24767 -0.05507
# Poissons Ratio (y) = 0.26406 0.19208
# Poissons Ratio (z) = -0.08487 0.27766
#
# Static dielectric constant tensor:
#      x y z
#    x 4.152670 0.000000 0.000000 
#    y 0.000000 3.661860 0.000000 
#    z 0.000000 0.000000 3.497920 
# 
# 
# High freq. dielectric constant tensor:
#      x y z
#    x 1.790960 0.000000 0.000000 
#    y 0.000000 1.782410 0.000000 
#    z 0.000000 0.000000 1.754260 
# 
# From -- ./inp_files/46761.got.cif
#   From: 2010.03.12/outbox.cif.g09.slc.cpg/sg64_24_cif.got.tgz:46761.got - 2010.04.10 20:19:32.
