data_PCOD8263401
_publ_section_title
;
Structure prediction by ZEFSAII (Michael W. Deem and Ramdas Pophale) SiO2 
 PCOD8263401
Probable space group: C M C A
;
_chemical_formula_sum "Si O2"
_cell_formula_units_Z 80
_cell_length_a 14.574903
_cell_length_b 25.170529
_cell_length_c 10.568869
_cell_angle_alpha 90.000000
_cell_angle_beta 90.000000
_cell_angle_gamma 90.000000
_cell_volume 3877.274341
_symmetry_space_group_name_H-M "C M C A"
_symmetry_group_IT_number 64
_symmetry_cell_setting 'orthorhombic'
loop_
_space_group_symop_operation_xyz
x,y,z
-x,1/2-y,1/2+z
x,-y,-z
-x,1/2+y,1/2-z
-x,-y,-z
x,1/2+y,1/2-z
-x,y,z
x,1/2-y,1/2+z
1/2+x,1/2+y,z
1/2-x,-y,1/2+z
1/2+x,1/2-y,-z
1/2-x,y,1/2-z
1/2-x,1/2-y,-z
1/2+x,y,1/2-z
1/2-x,1/2+y,z
1/2+x,-y,1/2+z
loop_
_atom_site_type_symbol
_atom_site_label
_atom_site_fract_x
_atom_site_fract_y
_atom_site_fract_z
Si Si1 0.825735 0.811203 0.407734
Si Si2 0.697929 0.691153 0.126602
Si Si3 0.500000 0.562150 0.965363
Si Si4 0.000000 0.849407 0.844114
Si Si5 0.647091 0.912465 0.257565
Si Si6 0.500000 0.337009 0.548538
Si Si7 0.000000 0.948176 0.420982
O O1 0.745283 0.832868 0.500003
O O2 0.793822 0.754528 0.357137
O O3 0.847302 0.850714 0.289976
O O4 0.913636 0.804400 0.497606
O O5 0.750000 0.666349 0.250000
O O6 0.591719 0.678519 0.108288
O O7 0.407284 0.581154 0.890734
O O8 0.500000 0.500000 0.000000
O O9 0.500000 0.590642 0.102088
O O10 0.000000 0.842770 0.696162
O O11 0.750000 0.935893 0.250000
O O12 0.591382 0.948995 0.161749
O O13 0.500000 0.397149 0.506470
O O14 0.000000 0.000000 0.500000
#
# Coordination Sequence:
#
# PCOD8263401 Si02
#       7
#    16  16   8   8  16   8   8
#     4  10  21  40  62  94 130 166 210 253 308 392
#     4  11  22  38  62  96 133 169 206 258 314 383
#     4  11  27  46  64  94 128 165 221 282 330 373
#     4  12  24  39  60  89 126 164 206 263 320 369
#     4  10  21  42  66  90 122 164 210 254 317 386
#     4  10  20  38  60  87 125 158 207 255 315 373
#     4   9  21  37  64  88 113 155 201 258 314 368
#
# _framework density 20.633051999999999
#
# number of rings (size 3 to 8) (size 9 to 14) (size 15 to 20)
#    0.000    1.600    2.000    3.000    2.800    2.400 
#    3.600    1.000    0.000    0.000    0.000    0.000 
#    0.000    0.000    0.000    0.000    0.000    0.000 
#
# Total GULP energy -495675.944501 kJ/mol
# GULP energy per Si atom -12391.898613 kJ/mol
# Density = 2.058609 g / cm^3
# Si number density = 20.633052 Si / 1000 Ang^3
#
#
#
# Elastic Constant Matrix: (Units=GPa)
#
#
# Indices 1 2 3 4 5 6 
#
# 1 168.1723 9.4310 20.1273 0.0000 0.0000 0.0000
# 2 9.4310 57.3833 21.5369 0.0000 0.0000 0.0000
# 3 20.1273 21.5369 52.9931 0.0000 0.0000 0.0000
# 4 0.0000 0.0000 0.0000 16.9513 0.0000 0.0000
# 5 0.0000 0.0000 0.0000 0.0000 31.2812 0.0000
# 6 0.0000 0.0000 0.0000 0.0000 0.0000 29.1894
#
#
#
# Elastic Compliance Matrix: (Units=1/GPa)
#
#
# Indices 1 2 3 4 5 6 
#
# 1 0.006231 -0.000160 -0.002301 0.000000 0.000000 0.000000
# 2 -0.000160 0.020567 -0.008298 0.000000 0.000000 0.000000
# 3 -0.002301 -0.008298 0.023117 0.000000 0.000000 0.000000
# 4 0.000000 0.000000 0.000000 0.058993 0.000000 0.000000
# 5 0.000000 0.000000 0.000000 0.000000 0.031968 0.000000
# 6 0.000000 0.000000 0.000000 0.000000 0.000000 0.034259
#
#
# Mechanical properties :
#
#
# Convention : Reuss Voigt Hill
#
# Bulk Modulus (GPa) = 35.21647 42.30436 38.76042
# Shear Modulus (GPa) = 24.25785 30.64794 27.45290
#
# Velocity S-wave (km/s) = 3.43254 3.85825 3.65160
# Velocity P-wave (km/s) = 5.72842 6.35577 6.05023
#
# Compressibility (1/GPa) = 0.02839580
#
# Stress axis : x y z
#
# Youngs Moduli (GPa) = 160.49559 48.62075 43.25860
#
# Poissons Ratio (x) = 0.00779 0.09955
# Poissons Ratio (y) = 0.02573 0.35895
# Poissons Ratio (z) = 0.36935 0.40345
#
# Static dielectric constant tensor:
#      x y z
#    x 3.997450 0.000000 0.000000 
#    y 0.000000 3.341880 0.000000 
#    z 0.000000 0.000000 3.789620 
# 
# 
# High freq. dielectric constant tensor:
#      x y z
#    x 1.830370 0.000000 0.000000 
#    y 0.000000 1.774830 0.000000 
#    z 0.000000 0.000000 1.817340 
# 
# From -- ./inp_files/14520.got.cif
#   From: 2010.03.12/outbox.cif.g09.slc.cpg/sg64_8_cif.got.tgz:14520.got - 2010.04.10 20:19:32.
