data_PCOD8263642
_publ_section_title
;
Structure prediction by ZEFSAII (Michael W. Deem and Ramdas Pophale) SiO2 
 PCOD8263642
Probable space group: C M C A
;
_chemical_formula_sum "Si O2"
_cell_formula_units_Z 96
_cell_length_a 15.865394
_cell_length_b 23.588043
_cell_length_c 11.856465
_cell_angle_alpha 90.000000
_cell_angle_beta 90.000000
_cell_angle_gamma 90.000000
_cell_volume 4437.087531
_symmetry_space_group_name_H-M "C M C A"
_symmetry_group_IT_number 64
_symmetry_cell_setting 'orthorhombic'
loop_
_space_group_symop_operation_xyz
x,y,z
-x,1/2-y,1/2+z
x,-y,-z
-x,1/2+y,1/2-z
-x,-y,-z
x,1/2+y,1/2-z
-x,y,z
x,1/2-y,1/2+z
1/2+x,1/2+y,z
1/2-x,-y,1/2+z
1/2+x,1/2-y,-z
1/2-x,y,1/2-z
1/2-x,1/2-y,-z
1/2+x,y,1/2-z
1/2-x,1/2+y,z
1/2+x,-y,1/2+z
loop_
_atom_site_type_symbol
_atom_site_label
_atom_site_fract_x
_atom_site_fract_y
_atom_site_fract_z
Si Si1 0.595339 0.043925 0.322909
Si Si2 0.399559 0.122181 0.515097
Si Si3 0.399403 0.847318 0.049822
Si Si4 0.838734 0.856716 0.695781
Si Si5 0.099115 0.724746 0.367711
Si Si6 0.600202 0.576096 0.752951
O O1 0.500000 0.026011 0.347846
O O2 0.634952 0.069095 0.439316
O O3 0.596608 0.093649 0.230052
O O4 0.639385 0.986774 0.274125
O O5 0.500000 0.121698 0.507625
O O6 0.366184 0.181748 0.464398
O O7 0.368462 0.115629 0.643402
O O8 0.500000 0.848871 0.023059
O O9 0.372271 0.788240 0.106849
O O10 0.369654 0.897196 0.134634
O O11 0.342101 0.853307 0.938964
O O12 0.750000 0.875282 0.750000
O O13 0.864728 0.795578 0.746979
O O14 0.000000 0.721522 0.359354
O O15 0.500000 0.575025 0.749205
#
# Coordination Sequence:
#
# PCOD8263642 Si02
#       6
#    16  16  16  16  16  16
#     4   9  17  33  58  82 108 144 189 234 280 335
#     4   8  14  27  51  84 112 139 177 227 285 335
#     4  10  21  35  58  89 115 143 186 241 291 338
#     4  11  23  38  56  75 113 156 190 226 281 353
#     4   9  19  35  59  84 109 141 186 239 284 335
#     4   9  17  29  54  89 114 136 178 239 294 335
#
# _framework density 21.635815000000001
#
# number of rings (size 3 to 8) (size 9 to 14) (size 15 to 20)
#    0.000    2.667    0.000    3.000    2.333    3.333 
#    0.000    2.500   14.667    0.000    0.000    0.000 
#    0.000    0.000    0.000    0.000    0.000    0.000 
#
# Total GULP energy -594786.300506 kJ/mol
# GULP energy per Si atom -12391.381261 kJ/mol
# Density = 2.158657 g / cm^3
# Si number density = 21.635815 Si / 1000 Ang^3
#
#
#
# Elastic Constant Matrix: (Units=GPa)
#
#
# Indices 1 2 3 4 5 6 
#
# 1 22.1122 17.0006 22.3597 0.0000 0.0000 0.0000
# 2 17.0006 100.5943 56.2629 0.0000 0.0000 0.0000
# 3 22.3597 56.2629 174.2442 0.0000 0.0000 0.0000
# 4 0.0000 0.0000 0.0000 23.8966 0.0000 0.0000
# 5 0.0000 0.0000 0.0000 0.0000 14.3093 0.0000
# 6 0.0000 0.0000 0.0000 0.0000 0.0000 5.7380
#
#
#
# Elastic Compliance Matrix: (Units=1/GPa)
#
#
# Indices 1 2 3 4 5 6 
#
# 1 0.055302 -0.006562 -0.004978 0.000000 0.000000 0.000000
# 2 -0.006562 0.012911 -0.003327 0.000000 0.000000 0.000000
# 3 -0.004978 -0.003327 0.007452 0.000000 0.000000 0.000000
# 4 0.000000 0.000000 0.000000 0.041847 0.000000 0.000000
# 5 0.000000 0.000000 0.000000 0.000000 0.069885 0.000000
# 6 0.000000 0.000000 0.000000 0.000000 0.000000 0.174277
#
#
# Mechanical properties :
#
#
# Convention : Reuss Voigt Hill
#
# Bulk Modulus (GPa) = 21.77136 54.24413 38.00774
# Shear Modulus (GPa) = 12.29353 22.21061 17.25207
#
# Velocity S-wave (km/s) = 2.38629 3.20748 2.82686
# Velocity P-wave (km/s) = 4.20440 6.23243 5.31602
#
# Compressibility (1/GPa) = 0.04593191
#
# Stress axis : x y z
#
# Youngs Moduli (GPa) = 18.08237 77.45591 134.19191
#
# Poissons Ratio (x) = 0.50828 0.66797
# Poissons Ratio (y) = 0.11866 0.44642
# Poissons Ratio (z) = 0.09001 0.25767
#
# Static dielectric constant tensor:
#      x y z
#    x 3.352060 0.000000 0.000000 
#    y 0.000000 4.258650 0.000000 
#    z 0.000000 0.000000 3.997360 
# 
# 
# High freq. dielectric constant tensor:
#      x y z
#    x 1.797620 0.000000 0.000000 
#    y 0.000000 1.854560 0.000000 
#    z 0.000000 0.000000 1.848890 
# 
# From -- ./inp_files/16180.got.cif
#   From: 2010.03.12/outbox.cif.g09.slc.cpg/sg64_9_cif.got.tgz:16180.got - 2010.04.10 20:19:32.
