data_PCOD8263271
_publ_section_title
;
Structure prediction by ZEFSAII (Michael W. Deem and Ramdas Pophale) SiO2 
 PCOD8263271
Probable space group: C M C A
;
_chemical_formula_sum "Si O2"
_cell_formula_units_Z 88
_cell_length_a 12.387290
_cell_length_b 18.569031
_cell_length_c 18.100706
_cell_angle_alpha 90.000000
_cell_angle_beta 90.000000
_cell_angle_gamma 90.000000
_cell_volume 4163.523888
_symmetry_space_group_name_H-M "C M C A"
_symmetry_group_IT_number 64
_symmetry_cell_setting 'orthorhombic'
loop_
_space_group_symop_operation_xyz
x,y,z
-x,1/2-y,1/2+z
x,-y,-z
-x,1/2+y,1/2-z
-x,-y,-z
x,1/2+y,1/2-z
-x,y,z
x,1/2-y,1/2+z
1/2+x,1/2+y,z
1/2-x,-y,1/2+z
1/2+x,1/2-y,-z
1/2-x,y,1/2-z
1/2-x,1/2-y,-z
1/2+x,y,1/2-z
1/2-x,1/2+y,z
1/2+x,-y,1/2+z
loop_
_atom_site_type_symbol
_atom_site_label
_atom_site_fract_x
_atom_site_fract_y
_atom_site_fract_z
Si Si1 0.500000 0.148121 0.177471
Si Si2 0.189533 0.163921 0.423766
Si Si3 0.000000 0.076447 0.174788
Si Si4 0.289661 0.096983 0.831992
Si Si5 0.186994 0.025490 0.079320
Si Si6 0.000000 0.009705 0.687906
Si Si7 0.125427 0.725284 0.923273
O O1 0.389210 0.183549 0.145893
O O2 0.500000 0.145616 0.268028
O O3 0.500000 0.066645 0.145786
O O4 0.208551 0.077401 0.429337
O O5 0.126119 0.191110 0.495506
O O6 0.307259 0.200855 0.418695
O O7 0.896284 0.076151 0.122903
O O8 0.000000 0.003538 0.223808
O O9 0.250000 0.111414 0.750000
O O10 0.399063 0.054297 0.836724
O O11 0.309384 0.173726 0.868385
O O12 0.204429 0.048109 0.875692
O O13 0.142434 0.000000 0.000000
O O14 0.000000 0.739251 0.900343
#
# Coordination Sequence:
#
# PCOD8263271 Si02
#       7
#     8  16   8  16  16   8  16
#     4  10  20  42  69  98 130 171 226 279 338 395
#     4  11  24  42  67 102 129 178 227 278 337 404
#     4  10  23  40  61 101 138 177 209 288 340 393
#     4  12  22  42  66  99 132 167 222 280 335 396
#     4  12  23  40  67  99 134 173 229 278 340 402
#     4  10  20  36  68  94 128 163 208 282 331 385
#     4  11  25  45  67  94 140 178 222 276 339 407
#
# _framework density 21.135940999999999
#
# number of rings (size 3 to 8) (size 9 to 14) (size 15 to 20)
#    0.545    0.364    7.273    0.273    1.273    0.000 
#    3.273    4.545    0.000    0.000    0.000    0.000 
#    0.000    0.000    0.000    0.000    0.000    0.000 
#
# Total GULP energy -545335.874491 kJ/mol
# GULP energy per Si atom -12393.997148 kJ/mol
# Density = 2.108783 g / cm^3
# Si number density = 21.135941 Si / 1000 Ang^3
#
#
#
# Elastic Constant Matrix: (Units=GPa)
#
#
# Indices 1 2 3 4 5 6 
#
# 1 100.9294 11.7688 49.1380 0.0000 0.0000 0.0000
# 2 11.7688 53.0423 31.1430 0.0000 0.0000 0.0000
# 3 49.1380 31.1430 148.4367 0.0000 0.0000 0.0000
# 4 0.0000 0.0000 0.0000 27.4832 0.0000 0.0000
# 5 0.0000 0.0000 0.0000 0.0000 20.7082 0.0000
# 6 0.0000 0.0000 0.0000 0.0000 0.0000 23.0256
#
#
#
# Elastic Compliance Matrix: (Units=1/GPa)
#
#
# Indices 1 2 3 4 5 6 
#
# 1 0.011818 -0.000371 -0.003834 0.000000 0.000000 0.000000
# 2 -0.000371 0.021513 -0.004391 0.000000 0.000000 0.000000
# 3 -0.003834 -0.004391 0.008927 0.000000 0.000000 0.000000
# 4 0.000000 0.000000 0.000000 0.036386 0.000000 0.000000
# 5 0.000000 0.000000 0.000000 0.000000 0.048290 0.000000
# 6 0.000000 0.000000 0.000000 0.000000 0.000000 0.043430
#
#
# Mechanical properties :
#
#
# Convention : Reuss Voigt Hill
#
# Bulk Modulus (GPa) = 39.89395 54.05643 46.97519
# Shear Modulus (GPa) = 25.52167 28.26730 26.89449
#
# Velocity S-wave (km/s) = 3.47868 3.66102 3.57102
# Velocity P-wave (km/s) = 5.92038 6.59560 6.26709
#
# Compressibility (1/GPa) = 0.02506646
#
# Stress axis : x y z
#
# Youngs Moduli (GPa) = 84.61718 46.48313 112.01444
#
# Poissons Ratio (x) = 0.01724 0.42950
# Poissons Ratio (y) = 0.03138 0.49184
# Poissons Ratio (z) = 0.32445 0.20410
#
# Static dielectric constant tensor:
#      x y z
#    x 3.644120 0.000000 0.000000 
#    y 0.000000 3.652570 0.000000 
#    z 0.000000 0.000000 3.835140 
# 
# 
# High freq. dielectric constant tensor:
#      x y z
#    x 1.829330 0.000000 0.000000 
#    y 0.000000 1.818450 0.000000 
#    z 0.000000 0.000000 1.829520 
# 
# From -- ./inp_files/38132.got.cif
#   From: 2010.03.12/outbox.cif.g09.slc.cpg/sg64_20_cif.got.tgz:38132.got - 2010.04.10 20:19:32.
