data_PCOD8263415
_publ_section_title
;
Structure prediction by ZEFSAII (Michael W. Deem and Ramdas Pophale) SiO2 
 PCOD8263415
Probable space group: C M C A
;
_chemical_formula_sum "Si O2"
_cell_formula_units_Z 80
_cell_length_a 8.840895
_cell_length_b 24.894039
_cell_length_c 18.749132
_cell_angle_alpha 90.000000
_cell_angle_beta 90.000000
_cell_angle_gamma 90.000000
_cell_volume 4126.413683
_symmetry_space_group_name_H-M "C M C A"
_symmetry_group_IT_number 64
_symmetry_cell_setting 'orthorhombic'
loop_
_space_group_symop_operation_xyz
x,y,z
-x,1/2-y,1/2+z
x,-y,-z
-x,1/2+y,1/2-z
-x,-y,-z
x,1/2+y,1/2-z
-x,y,z
x,1/2-y,1/2+z
1/2+x,1/2+y,z
1/2-x,-y,1/2+z
1/2+x,1/2-y,-z
1/2-x,y,1/2-z
1/2-x,1/2-y,-z
1/2+x,y,1/2-z
1/2-x,1/2+y,z
1/2+x,-y,1/2+z
loop_
_atom_site_type_symbol
_atom_site_label
_atom_site_fract_x
_atom_site_fract_y
_atom_site_fract_z
Si Si1 0.677983 0.060725 0.326805
Si Si2 0.820225 0.849386 0.056051
Si Si3 0.321751 0.470024 0.068748
Si Si4 0.820924 0.341241 0.906911
Si Si5 0.322405 0.234799 0.674141
O O1 0.500000 0.068886 0.320045
O O2 0.750000 0.066660 0.250000
O O3 0.741174 0.105177 0.379991
O O4 0.720582 0.002630 0.359594
O O5 0.760887 0.909369 0.074372
O O6 0.767585 0.811522 0.120450
O O7 0.000000 0.847159 0.044025
O O8 0.737897 0.827836 0.985654
O O9 0.500000 0.468192 0.058491
O O10 0.249658 0.500000 0.000000
O O11 0.771745 0.292589 0.855591
O O12 0.000000 0.349170 0.907752
O O13 0.500000 0.232445 0.683690
O O14 0.250000 0.223651 0.750000
#
# Coordination Sequence:
#
# PCOD8263415 Si02
#       5
#    16  16  16  16  16
#     4  11  22  37  58  85 116 150 189 235 285 339
#     4  10  20  38  62  85 111 149 192 235 284 339
#     4   9  17  34  59  83 108 146 188 224 275 338
#     4  11  22  37  57  86 116 148 191 236 283 337
#     4  10  23  39  57  82 115 151 189 233 285 340
#
# _framework density 19.387295999999999
#
# number of rings (size 3 to 8) (size 9 to 14) (size 15 to 20)
#    0.000    1.800    2.000    2.400    0.000    4.800 
#    0.000    3.000    0.000    0.000    0.000    0.000 
#    0.000    0.000    0.000    0.000    0.000    0.000 
#
# Total GULP energy -496097.513568 kJ/mol
# GULP energy per Si atom -12402.437839 kJ/mol
# Density = 1.934317 g / cm^3
# Si number density = 19.387296 Si / 1000 Ang^3
#
#
#
# Elastic Constant Matrix: (Units=GPa)
#
#
# Indices 1 2 3 4 5 6 
#
# 1 52.7649 33.2817 41.9966 0.0000 0.0000 0.0000
# 2 33.2817 76.3357 43.7330 0.0000 0.0000 0.0000
# 3 41.9966 43.7330 146.0716 0.0000 0.0000 0.0000
# 4 0.0000 0.0000 0.0000 35.9835 0.0000 0.0000
# 5 0.0000 0.0000 0.0000 0.0000 32.2100 0.0000
# 6 0.0000 0.0000 0.0000 0.0000 0.0000 19.9308
#
#
#
# Elastic Compliance Matrix: (Units=1/GPa)
#
#
# Indices 1 2 3 4 5 6 
#
# 1 0.029490 -0.009656 -0.005588 0.000000 0.000000 0.000000
# 2 -0.009656 0.018974 -0.002904 0.000000 0.000000 0.000000
# 3 -0.005588 -0.002904 0.009322 0.000000 0.000000 0.000000
# 4 0.000000 0.000000 0.000000 0.027790 0.000000 0.000000
# 5 0.000000 0.000000 0.000000 0.000000 0.031046 0.000000
# 6 0.000000 0.000000 0.000000 0.000000 0.000000 0.050173
#
#
# Mechanical properties :
#
#
# Convention : Reuss Voigt Hill
#
# Bulk Modulus (GPa) = 46.53441 57.02164 51.77802
# Shear Modulus (GPa) = 23.78053 28.03560 25.90807
#
# Velocity S-wave (km/s) = 3.50609 3.80686 3.65957
# Velocity P-wave (km/s) = 6.35963 6.98560 6.67995
#
# Compressibility (1/GPa) = 0.02148947
#
# Stress axis : x y z
#
# Youngs Moduli (GPa) = 33.90982 52.70349 107.27313
#
# Poissons Ratio (x) = 0.50892 0.59939
# Poissons Ratio (y) = 0.32744 0.31157
# Poissons Ratio (z) = 0.18947 0.15308
#
# Static dielectric constant tensor:
#      x y z
#    x 3.307070 0.000000 0.000000 
#    y 0.000000 3.844210 0.000000 
#    z 0.000000 0.000000 3.675130 
# 
# 
# High freq. dielectric constant tensor:
#      x y z
#    x 1.733980 0.000000 0.000000 
#    y 0.000000 1.768960 0.000000 
#    z 0.000000 0.000000 1.763700 
# 
# From -- ./inp_files/29770.got.cif
#   From: 2010.03.12/outbox.cif.g09.slc.cpg/sg64_15_cif.got.tgz:29770.got - 2010.04.10 20:19:32.
