data_PCOD8263222
_publ_section_title
;
Structure prediction by ZEFSAII (Michael W. Deem and Ramdas Pophale) SiO2 
 PCOD8263222
Probable space group: C M C A
;
_chemical_formula_sum "Si O2"
_cell_formula_units_Z 80
_cell_length_a 16.406103
_cell_length_b 9.764046
_cell_length_c 20.359228
_cell_angle_alpha 90.000000
_cell_angle_beta 90.000000
_cell_angle_gamma 90.000000
_cell_volume 3261.343601
_symmetry_space_group_name_H-M "C M C A"
_symmetry_group_IT_number 64
_symmetry_cell_setting 'orthorhombic'
loop_
_space_group_symop_operation_xyz
x,y,z
-x,1/2-y,1/2+z
x,-y,-z
-x,1/2+y,1/2-z
-x,-y,-z
x,1/2+y,1/2-z
-x,y,z
x,1/2-y,1/2+z
1/2+x,1/2+y,z
1/2-x,-y,1/2+z
1/2+x,1/2-y,-z
1/2-x,y,1/2-z
1/2-x,1/2-y,-z
1/2+x,y,1/2-z
1/2-x,1/2+y,z
1/2+x,-y,1/2+z
loop_
_atom_site_type_symbol
_atom_site_label
_atom_site_fract_x
_atom_site_fract_y
_atom_site_fract_z
Si Si1 0.910523 0.394081 0.941149
Si Si2 0.170117 0.015585 0.779204
Si Si3 0.749447 0.472210 0.088520
Si Si4 0.407484 0.241498 0.812879
Si Si5 0.661844 0.727564 0.043935
O O1 0.835740 0.445968 0.894569
O O2 0.000000 0.384931 0.904914
O O3 0.915916 0.500000 0.000000
O O4 0.892546 0.248339 0.978007
O O5 0.250000 0.941141 0.750000
O O6 0.142359 0.139073 0.733234
O O7 0.201449 0.080744 0.847791
O O8 0.103035 0.898476 0.789498
O O9 0.689435 0.572273 0.049405
O O10 0.763397 0.339758 0.041094
O O11 0.500000 0.198938 0.804609
O O12 0.383076 0.224629 0.888753
#
# Coordination Sequence:
#
# PCOD8263222 Si02
#       5
#    16  16  16  16  16
#     4   9  18  35  58  87 116 146 191 245 296 346
#     4  11  22  39  59  84 118 157 199 241 291 353
#     4  10  21  35  59  84 114 152 194 239 291 354
#     4  11  23  38  60  88 120 156 198 248 297 345
#     4  10  20  36  60  86 116 150 196 239 293 353
#
# _framework density 24.529767
#
# number of rings (size 3 to 8) (size 9 to 14) (size 15 to 20)
#    0.000    1.800    2.000    2.400    2.800    0.800 
#    0.000    0.000    0.000    3.600    0.000    0.000 
#    0.000    0.000    0.000    0.000    0.000    0.000 
#
# Total GULP energy -495647.179142 kJ/mol
# GULP energy per Si atom -12391.179479 kJ/mol
# Density = 2.447394 g / cm^3
# Si number density = 24.529767 Si / 1000 Ang^3
#
#
#
# Elastic Constant Matrix: (Units=GPa)
#
#
# Indices 1 2 3 4 5 6 
#
# 1 111.1353 23.0622 26.0740 0.0000 0.0000 0.0000
# 2 23.0622 96.1285 28.8714 0.0000 0.0000 0.0000
# 3 26.0740 28.8714 83.0711 0.0000 0.0000 0.0000
# 4 0.0000 0.0000 0.0000 33.5467 0.0000 0.0000
# 5 0.0000 0.0000 0.0000 0.0000 21.1395 0.0000
# 6 0.0000 0.0000 0.0000 0.0000 0.0000 22.7158
#
#
#
# Elastic Compliance Matrix: (Units=1/GPa)
#
#
# Indices 1 2 3 4 5 6 
#
# 1 0.009933 -0.001615 -0.002556 0.000000 0.000000 0.000000
# 2 -0.001615 0.011878 -0.003621 0.000000 0.000000 0.000000
# 3 -0.002556 -0.003621 0.014099 0.000000 0.000000 0.000000
# 4 0.000000 0.000000 0.000000 0.029809 0.000000 0.000000
# 5 0.000000 0.000000 0.000000 0.000000 0.047305 0.000000
# 6 0.000000 0.000000 0.000000 0.000000 0.000000 0.044022
#
#
# Mechanical properties :
#
#
# Convention : Reuss Voigt Hill
#
# Bulk Modulus (GPa) = 49.20265 49.59447 49.39856
# Shear Modulus (GPa) = 27.86972 29.63554 28.75263
#
# Velocity S-wave (km/s) = 3.37435 3.47961 3.42739
# Velocity P-wave (km/s) = 5.94000 6.03370 5.98703
#
# Compressibility (1/GPa) = 0.02032411
#
# Stress axis : x y z
#
# Youngs Moduli (GPa) = 100.67471 84.19036 70.92807
#
# Poissons Ratio (x) = 0.13599 0.18132
# Poissons Ratio (y) = 0.16261 0.25684
# Poissons Ratio (z) = 0.25736 0.30487
#
# Static dielectric constant tensor:
#      x y z
#    x 4.869500 0.000000 0.000000 
#    y 0.000000 4.293060 0.000000 
#    z 0.000000 0.000000 4.745030 
# 
# 
# High freq. dielectric constant tensor:
#      x y z
#    x 1.967680 0.000000 0.000000 
#    y 0.000000 1.973060 0.000000 
#    z 0.000000 0.000000 1.975200 
# 
# From -- ./inp_files/44942.got.cif
#   From: 2010.03.12/outbox.cif.g09.slc.cpg/sg64_23_cif.got.tgz:44942.got - 2010.04.10 20:19:32.
