data_PCOD8263093
_publ_section_title
;
Structure prediction by ZEFSAII (Michael W. Deem and Ramdas Pophale) SiO2 
 PCOD8263093
Probable space group: C M C A
;
_chemical_formula_sum "Si O2"
_cell_formula_units_Z 56
_cell_length_a 13.464714
_cell_length_b 15.436485
_cell_length_c 11.358167
_cell_angle_alpha 90.000000
_cell_angle_beta 90.000000
_cell_angle_gamma 90.000000
_cell_volume 2360.770656
_symmetry_space_group_name_H-M "C M C A"
_symmetry_group_IT_number 64
_symmetry_cell_setting 'orthorhombic'
loop_
_space_group_symop_operation_xyz
x,y,z
-x,1/2-y,1/2+z
x,-y,-z
-x,1/2+y,1/2-z
-x,-y,-z
x,1/2+y,1/2-z
-x,y,z
x,1/2-y,1/2+z
1/2+x,1/2+y,z
1/2-x,-y,1/2+z
1/2+x,1/2-y,-z
1/2-x,y,1/2-z
1/2-x,1/2-y,-z
1/2+x,y,1/2-z
1/2-x,1/2+y,z
1/2+x,-y,1/2+z
loop_
_atom_site_type_symbol
_atom_site_label
_atom_site_fract_x
_atom_site_fract_y
_atom_site_fract_z
Si Si1 0.500000 0.613366 0.401201
Si Si2 0.000000 0.819070 0.356818
Si Si3 0.500000 0.179103 0.606321
Si Si4 0.334056 0.195774 0.438561
Si Si5 0.211816 0.959182 0.631173
O O1 0.500000 0.605744 0.544627
O O2 0.500000 0.716168 0.375810
O O3 0.596995 0.566655 0.350396
O O4 0.098108 0.759681 0.361460
O O5 0.000000 0.867967 0.232298
O O6 0.402264 0.149386 0.536975
O O7 0.250000 0.250000 0.500000
O O8 0.283118 0.124143 0.358548
O O9 0.250000 0.012663 0.750000
O O10 0.227159 0.000000 0.500000
#
# Coordination Sequence:
#
# PCOD8263093 Si02
#       5
#     8   8   8  16  16
#     4  10  21  44  63  93 131 168 218 271 328 392
#     4  10  20  35  66  99 127 165 218 277 332 388
#     4  10  20  35  64 102 124 165 217 276 331 388
#     4  10  20  39  62  94 128 164 222 271 328 386
#     4  12  26  45  67  96 134 181 220 268 330 394
#
# _framework density 23.721066
#
# number of rings (size 3 to 8) (size 9 to 14) (size 15 to 20)
#    0.000    1.714    5.714    2.143    0.000    3.429 
#    0.000    6.429    0.000    0.000    0.000    0.000 
#    0.000    0.000    0.000    0.000    0.000    0.000 
#
# Total GULP energy -346874.298439 kJ/mol
# GULP energy per Si atom -12388.367801 kJ/mol
# Density = 2.366708 g / cm^3
# Si number density = 23.721066 Si / 1000 Ang^3
#
#
#
# Elastic Constant Matrix: (Units=GPa)
#
#
# Indices 1 2 3 4 5 6 
#
# 1 188.3213 24.0863 55.8704 0.0000 0.0000 0.0000
# 2 24.0863 23.4454 3.3458 0.0000 0.0000 0.0000
# 3 55.8704 3.3458 166.9021 0.0000 0.0000 0.0000
# 4 0.0000 0.0000 0.0000 25.7493 0.0000 0.0000
# 5 0.0000 0.0000 0.0000 0.0000 19.3971 0.0000
# 6 0.0000 0.0000 0.0000 0.0000 0.0000 13.8529
#
#
#
# Elastic Compliance Matrix: (Units=1/GPa)
#
#
# Indices 1 2 3 4 5 6 
#
# 1 0.006800 -0.006680 -0.002142 0.000000 0.000000 0.000000
# 2 -0.006680 0.049337 0.001247 0.000000 0.000000 0.000000
# 3 -0.002142 0.001247 0.006684 0.000000 0.000000 0.000000
# 4 0.000000 0.000000 0.000000 0.038836 0.000000 0.000000
# 5 0.000000 0.000000 0.000000 0.000000 0.051554 0.000000
# 6 0.000000 0.000000 0.000000 0.000000 0.000000 0.072187
#
#
# Mechanical properties :
#
#
# Convention : Reuss Voigt Hill
#
# Bulk Modulus (GPa) = 20.97758 60.58599 40.78179
# Shear Modulus (GPa) = 19.49779 31.49093 25.49436
#
# Velocity S-wave (km/s) = 2.87010 3.64751 3.28190
# Velocity P-wave (km/s) = 4.45487 6.58298 5.62056
#
# Compressibility (1/GPa) = 0.04766995
#
# Stress axis : x y z
#
# Youngs Moduli (GPa) = 147.05708 20.26872 149.61762
#
# Poissons Ratio (x) = 0.13540 0.32054
# Poissons Ratio (y) = 0.98238 -0.18660
# Poissons Ratio (z) = 0.31506 -0.02528
#
# Static dielectric constant tensor:
#      x y z
#    x 3.950050 0.000000 0.000000 
#    y 0.000000 3.925420 0.000000 
#    z 0.000000 0.000000 5.128860 
# 
# 
# High freq. dielectric constant tensor:
#      x y z
#    x 1.964700 0.000000 0.000000 
#    y 0.000000 1.888370 0.000000 
#    z 0.000000 0.000000 1.954310 
# 
# From -- ./inp_files/12746.got.cif
#   From: 2010.03.12/outbox.cif.g09.slc.cpg/sg64_7_cif.got.tgz:12746.got - 2010.04.10 20:19:32.
