data_PCOD8263919
_publ_section_title
;
Structure prediction by ZEFSAII (Michael W. Deem and Ramdas Pophale) SiO2 
 PCOD8263919
Probable space group: C M C A
;
_chemical_formula_sum "Si O2"
_cell_formula_units_Z 96
_cell_length_a 21.212355
_cell_length_b 14.076873
_cell_length_c 14.651031
_cell_angle_alpha 90.000000
_cell_angle_beta 90.000000
_cell_angle_gamma 90.000000
_cell_volume 4374.851001
_symmetry_space_group_name_H-M "C M C A"
_symmetry_group_IT_number 64
_symmetry_cell_setting 'orthorhombic'
loop_
_space_group_symop_operation_xyz
x,y,z
-x,1/2-y,1/2+z
x,-y,-z
-x,1/2+y,1/2-z
-x,-y,-z
x,1/2+y,1/2-z
-x,y,z
x,1/2-y,1/2+z
1/2+x,1/2+y,z
1/2-x,-y,1/2+z
1/2+x,1/2-y,-z
1/2-x,y,1/2-z
1/2-x,1/2-y,-z
1/2+x,y,1/2-z
1/2-x,1/2+y,z
1/2+x,-y,1/2+z
loop_
_atom_site_type_symbol
_atom_site_label
_atom_site_fract_x
_atom_site_fract_y
_atom_site_fract_z
Si Si1 0.167739 0.107958 0.997118
Si Si2 0.571284 0.273212 0.517210
Si Si3 0.928048 0.614221 0.199253
Si Si4 0.692579 0.328418 0.811431
Si Si5 0.269884 0.117307 0.845313
Si Si6 0.395150 0.054410 0.910052
O O1 0.108216 0.175960 0.993229
O O2 0.210506 0.132785 0.910327
O O3 0.206232 0.126433 0.089807
O O4 0.143841 0.000000 0.000000
O O5 0.500000 0.241656 0.525713
O O6 0.592721 0.328583 0.608446
O O7 0.581197 0.337529 0.425868
O O8 0.876919 0.640060 0.276414
O O9 0.926213 0.500675 0.175963
O O10 0.000000 0.638914 0.230708
O O11 0.750000 0.367039 0.750000
O O12 0.695384 0.215004 0.818355
O O13 0.250000 0.067604 0.750000
O O14 0.319763 0.051196 0.897182
O O15 0.416399 0.000000 0.000000
#
# Coordination Sequence:
#
# PCOD8263919 Si02
#       6
#    16  16  16  16  16  16
#     4  12  27  42  66  98 135 180 226 283 343 401
#     4  10  21  43  68  93 131 177 229 279 340 406
#     4  10  23  43  69 104 137 173 225 286 338 402
#     4  11  25  43  67  96 135 176 223 274 338 403
#     4  11  24  42  66  96 131 168 221 279 339 404
#     4  10  21  38  70 100 129 173 220 282 339 399
#
# _framework density 21.943603
#
# number of rings (size 3 to 8) (size 9 to 14) (size 15 to 20)
#    0.000    1.333    1.667    3.500    9.333    3.000 
#    0.000    0.000    0.000    0.000    0.000    0.000 
#    0.000    0.000    0.000    0.000    0.000    0.000 
#
# Total GULP energy -595125.168206 kJ/mol
# GULP energy per Si atom -12398.441004 kJ/mol
# Density = 2.189366 g / cm^3
# Si number density = 21.943603 Si / 1000 Ang^3
#
#
#
# Elastic Constant Matrix: (Units=GPa)
#
#
# Indices 1 2 3 4 5 6 
#
# 1 118.4441 42.0922 46.3784 0.0000 0.0000 0.0000
# 2 42.0922 87.2605 21.0835 0.0000 0.0000 0.0000
# 3 46.3784 21.0835 116.3055 0.0000 0.0000 0.0000
# 4 0.0000 0.0000 0.0000 24.4834 0.0000 0.0000
# 5 0.0000 0.0000 0.0000 0.0000 23.3465 0.0000
# 6 0.0000 0.0000 0.0000 0.0000 0.0000 23.5184
#
#
#
# Elastic Compliance Matrix: (Units=1/GPa)
#
#
# Indices 1 2 3 4 5 6 
#
# 1 0.011581 -0.004675 -0.003770 0.000000 0.000000 0.000000
# 2 -0.004675 0.013872 -0.000650 0.000000 0.000000 0.000000
# 3 -0.003770 -0.000650 0.010219 0.000000 0.000000 0.000000
# 4 0.000000 0.000000 0.000000 0.040844 0.000000 0.000000
# 5 0.000000 0.000000 0.000000 0.000000 0.042833 0.000000
# 6 0.000000 0.000000 0.000000 0.000000 0.000000 0.042520
#
#
# Mechanical properties :
#
#
# Convention : Reuss Voigt Hill
#
# Bulk Modulus (GPa) = 57.20735 60.12425 58.66580
# Shear Modulus (GPa) = 26.89790 28.43339 27.66564
#
# Velocity S-wave (km/s) = 3.50490 3.60356 3.55457
# Velocity P-wave (km/s) = 6.51966 6.69127 6.60602
#
# Compressibility (1/GPa) = 0.01748027
#
# Stress axis : x y z
#
# Youngs Moduli (GPa) = 86.35123 72.08617 97.85254
#
# Poissons Ratio (x) = 0.33702 0.36894
# Poissons Ratio (y) = 0.40371 0.06365
# Poissons Ratio (z) = 0.32558 0.04689
#
# Static dielectric constant tensor:
#      x y z
#    x 3.819030 0.000000 0.000000 
#    y 0.000000 3.993110 0.000000 
#    z 0.000000 0.000000 4.098090 
# 
# 
# High freq. dielectric constant tensor:
#      x y z
#    x 1.860280 0.000000 0.000000 
#    y 0.000000 1.863800 0.000000 
#    z 0.000000 0.000000 1.857770 
# 
# From -- ./inp_files/26298.got.cif
#   From: 2010.03.12/outbox.cif.g09.slc.cpg/sg64_14_cif.got.tgz:26298.got - 2010.04.10 20:19:32.
