data_PCOD8263731
_publ_section_title
;
Structure prediction by ZEFSAII (Michael W. Deem and Ramdas Pophale) SiO2 
 PCOD8263731
Probable space group: C M C A
;
_chemical_formula_sum "Si O2"
_cell_formula_units_Z 96
_cell_length_a 8.931079
_cell_length_b 24.812814
_cell_length_c 23.472552
_cell_angle_alpha 90.000000
_cell_angle_beta 90.000000
_cell_angle_gamma 90.000000
_cell_volume 5201.639629
_symmetry_space_group_name_H-M "C M C A"
_symmetry_group_IT_number 64
_symmetry_cell_setting 'orthorhombic'
loop_
_space_group_symop_operation_xyz
x,y,z
-x,1/2-y,1/2+z
x,-y,-z
-x,1/2+y,1/2-z
-x,-y,-z
x,1/2+y,1/2-z
-x,y,z
x,1/2-y,1/2+z
1/2+x,1/2+y,z
1/2-x,-y,1/2+z
1/2+x,1/2-y,-z
1/2-x,y,1/2-z
1/2-x,1/2-y,-z
1/2+x,y,1/2-z
1/2-x,1/2+y,z
1/2+x,-y,1/2+z
loop_
_atom_site_type_symbol
_atom_site_label
_atom_site_fract_x
_atom_site_fract_y
_atom_site_fract_z
Si Si1 0.173973 0.566059 0.308282
Si Si2 0.173286 0.350087 0.885241
Si Si3 0.322212 0.150021 0.873194
Si Si4 0.823647 0.252316 0.309249
Si Si5 0.674645 0.192800 0.994876
Si Si6 0.323862 0.558100 0.809155
O O1 0.250000 0.585787 0.250000
O O2 0.230769 0.600981 0.360950
O O3 0.212531 0.504165 0.321622
O O4 0.000000 0.575575 0.299922
O O5 0.212933 0.294230 0.854353
O O6 0.000000 0.364489 0.876971
O O7 0.217738 0.344502 0.951459
O O8 0.500000 0.149198 0.865584
O O9 0.252090 0.192919 0.830092
O O10 0.273157 0.162942 0.937680
O O11 0.252831 0.091779 0.859544
O O12 0.750000 0.234559 0.250000
O O13 0.000000 0.261634 0.301650
O O14 0.500000 0.204480 0.994267
O O15 0.750000 0.250000 0.000000
O O16 0.500000 0.569537 0.806443
O O17 0.250000 0.576522 0.750000
#
# Coordination Sequence:
#
# PCOD8263731 Si02
#       6
#    16  16  16  16  16  16
#     4  10  21  37  59  85 112 147 186 229 281 333
#     4  10  21  37  57  82 112 146 186 229 276 330
#     4  11  22  36  57  83 111 145 187 229 276 331
#     4  11  22  35  53  79 113 146 180 226 279 332
#     4  10  21  38  58  82 111 148 189 229 276 328
#     4  10  21  38  59  83 113 147 186 230 280 334
#
# _framework density 18.455719999999999
#
# number of rings (size 3 to 8) (size 9 to 14) (size 15 to 20)
#    0.000    1.667    1.667    3.000    0.000    6.000 
#    0.000    0.833    0.000    5.000    0.000    0.000 
#    0.000    0.000    0.000    0.000    0.000    0.000 
#
# Total GULP energy -595463.893962 kJ/mol
# GULP energy per Si atom -12405.497791 kJ/mol
# Density = 1.841371 g / cm^3
# Si number density = 18.455720 Si / 1000 Ang^3
#
#
#
# Elastic Constant Matrix: (Units=GPa)
#
#
# Indices 1 2 3 4 5 6 
#
# 1 81.4468 48.2818 46.5542 0.0000 0.0000 0.0000
# 2 48.2818 94.4969 51.0141 0.0000 0.0000 0.0000
# 3 46.5542 51.0141 116.3091 0.0000 0.0000 0.0000
# 4 0.0000 0.0000 0.0000 20.4668 0.0000 0.0000
# 5 0.0000 0.0000 0.0000 0.0000 28.4884 0.0000
# 6 0.0000 0.0000 0.0000 0.0000 0.0000 36.1106
#
#
#
# Elastic Compliance Matrix: (Units=1/GPa)
#
#
# Indices 1 2 3 4 5 6 
#
# 1 0.019213 -0.007422 -0.004435 0.000000 0.000000 0.000000
# 2 -0.007422 0.016733 -0.004368 0.000000 0.000000 0.000000
# 3 -0.004435 -0.004368 0.012289 0.000000 0.000000 0.000000
# 4 0.000000 0.000000 0.000000 0.048860 0.000000 0.000000
# 5 0.000000 0.000000 0.000000 0.000000 0.035102 0.000000
# 6 0.000000 0.000000 0.000000 0.000000 0.000000 0.027693
#
#
# Mechanical properties :
#
#
# Convention : Reuss Voigt Hill
#
# Bulk Modulus (GPa) = 63.35610 64.88367 64.11988
# Shear Modulus (GPa) = 25.30352 26.77332 26.03842
#
# Velocity S-wave (km/s) = 3.70677 3.81291 3.76022
# Velocity P-wave (km/s) = 7.26109 7.39034 7.32600
#
# Compressibility (1/GPa) = 0.01578380
#
# Stress axis : x y z
#
# Youngs Moduli (GPa) = 52.04867 59.76224 81.37513
#
# Poissons Ratio (x) = 0.44358 0.36087
# Poissons Ratio (y) = 0.38633 0.35547
# Poissons Ratio (z) = 0.23082 0.26106
#
# Static dielectric constant tensor:
#      x y z
#    x 3.461100 0.000000 0.000000 
#    y 0.000000 3.299190 0.000000 
#    z 0.000000 0.000000 3.529350 
# 
# 
# High freq. dielectric constant tensor:
#      x y z
#    x 1.726110 0.000000 0.000000 
#    y 0.000000 1.714530 0.000000 
#    z 0.000000 0.000000 1.718640 
# 
# From -- ./inp_files/36989.got.cif
#   From: 2010.03.12/outbox.cif.g09.slc.cpg/sg64_19_cif.got.tgz:36989.got - 2010.04.10 20:19:32.
