data_PCOD8263906
_publ_section_title
;
Structure prediction by ZEFSAII (Michael W. Deem and Ramdas Pophale) SiO2 
 PCOD8263906
Probable space group: C M C A
;
_chemical_formula_sum "Si O2"
_cell_formula_units_Z 88
_cell_length_a 10.387666
_cell_length_b 30.398763
_cell_length_c 14.694480
_cell_angle_alpha 90.000000
_cell_angle_beta 90.000000
_cell_angle_gamma 90.000000
_cell_volume 4640.108231
_symmetry_space_group_name_H-M "C M C A"
_symmetry_group_IT_number 64
_symmetry_cell_setting 'orthorhombic'
loop_
_space_group_symop_operation_xyz
x,y,z
-x,1/2-y,1/2+z
x,-y,-z
-x,1/2+y,1/2-z
-x,-y,-z
x,1/2+y,1/2-z
-x,y,z
x,1/2-y,1/2+z
1/2+x,1/2+y,z
1/2-x,-y,1/2+z
1/2+x,1/2-y,-z
1/2-x,y,1/2-z
1/2-x,1/2-y,-z
1/2+x,y,1/2-z
1/2-x,1/2+y,z
1/2+x,-y,1/2+z
loop_
_atom_site_type_symbol
_atom_site_label
_atom_site_fract_x
_atom_site_fract_y
_atom_site_fract_z
Si Si1 0.250000 0.610144 0.750000
Si Si2 0.353940 0.670854 0.899249
Si Si3 0.000000 0.940694 0.305788
Si Si4 0.854984 0.265749 0.827329
Si Si5 0.500000 0.542684 0.305345
Si Si6 0.279208 0.649370 0.424939
Si Si7 0.500000 0.411916 0.510505
Si Si8 0.250000 0.905653 0.750000
O O1 0.260855 0.640907 0.838375
O O2 0.125439 0.579948 0.760037
O O3 0.500000 0.660341 0.872007
O O4 0.319705 0.721632 0.881522
O O5 0.335590 0.660855 0.005898
O O6 0.000000 0.935216 0.413756
O O7 0.000000 0.991785 0.281103
O O8 0.750000 0.273849 0.750000
O O9 0.852087 0.306172 0.897052
O O10 0.000000 0.262881 0.785775
O O11 0.500000 0.549828 0.413750
O O12 0.625254 0.564428 0.261166
O O13 0.375447 0.618134 0.479264
O O14 0.222802 0.625107 0.336754
#
# Coordination Sequence:
#
# PCOD8263906 Si02
#       8
#     8  16   8  16   8  16   8   8
#     4  12  23  39  66  88 120 168 204 257 307 380
#     4  11  24  40  59  94 128 165 214 255 305 361
#     4  12  23  42  66  87 123 162 202 260 322 367
#     4  11  23  39  62  92 129 169 211 257 302 364
#     4  10  23  42  61  97 120 155 204 259 314 382
#     4  11  21  40  64  91 125 164 206 250 310 366
#     4  10  21  38  65  88 117 159 208 249 300 384
#     4  10  23  39  68  92 124 158 202 253 315 378
#
# _framework density 18.965074000000001
#
# number of rings (size 3 to 8) (size 9 to 14) (size 15 to 20)
#    0.000    1.091    5.455    1.364    1.273    0.727 
#    1.636    0.000    0.000    1.091    0.000    0.000 
#    0.000    0.000    0.000    0.000    0.000    0.000 
#
# Total GULP energy -545752.867015 kJ/mol
# GULP energy per Si atom -12403.474250 kJ/mol
# Density = 1.892191 g / cm^3
# Si number density = 18.965074 Si / 1000 Ang^3
#
#
#
# Elastic Constant Matrix: (Units=GPa)
#
#
# Indices 1 2 3 4 5 6 
#
# 1 107.9566 49.5916 40.1807 0.0000 0.0000 0.0000
# 2 49.5916 141.0217 45.3584 0.0000 0.0000 0.0000
# 3 40.1807 45.3584 106.0613 0.0000 0.0000 0.0000
# 4 0.0000 0.0000 0.0000 24.5505 0.0000 0.0000
# 5 0.0000 0.0000 0.0000 0.0000 17.7816 0.0000
# 6 0.0000 0.0000 0.0000 0.0000 0.0000 14.3727
#
#
#
# Elastic Compliance Matrix: (Units=1/GPa)
#
#
# Indices 1 2 3 4 5 6 
#
# 1 0.011891 -0.003168 -0.003150 0.000000 0.000000 0.000000
# 2 -0.003168 0.009066 -0.002677 0.000000 0.000000 0.000000
# 3 -0.003150 -0.002677 0.011767 0.000000 0.000000 0.000000
# 4 0.000000 0.000000 0.000000 0.040732 0.000000 0.000000
# 5 0.000000 0.000000 0.000000 0.000000 0.056238 0.000000
# 6 0.000000 0.000000 0.000000 0.000000 0.000000 0.069576
#
#
# Mechanical properties :
#
#
# Convention : Reuss Voigt Hill
#
# Bulk Modulus (GPa) = 67.87282 69.47786 68.67534
# Shear Modulus (GPa) = 22.50510 26.00155 24.25332
#
# Velocity S-wave (km/s) = 3.44853 3.70675 3.57997
# Velocity P-wave (km/s) = 7.19184 7.41850 7.30605
#
# Compressibility (1/GPa) = 0.01473344
#
# Stress axis : x y z
#
# Youngs Moduli (GPa) = 84.09898 110.29816 84.98622
#
# Poissons Ratio (x) = 0.34947 0.26768
# Poissons Ratio (y) = 0.26646 0.22751
# Poissons Ratio (z) = 0.26489 0.29527
#
# Static dielectric constant tensor:
#      x y z
#    x 3.346930 0.000000 0.000000 
#    y 0.000000 3.524290 0.000000 
#    z 0.000000 0.000000 3.371340 
# 
# 
# High freq. dielectric constant tensor:
#      x y z
#    x 1.741000 0.000000 0.000000 
#    y 0.000000 1.747860 0.000000 
#    z 0.000000 0.000000 1.735990 
# 
# From -- ./inp_files/13356.got.cif
#   From: 2010.03.12/outbox.cif.g09.slc.cpg/sg64_7_cif.got.tgz:13356.got - 2010.04.10 20:19:32.
