data_PCOD8263580
_publ_section_title
;
Structure prediction by ZEFSAII (Michael W. Deem and Ramdas Pophale) SiO2 
 PCOD8263580
Probable space group: C M C A
;
_chemical_formula_sum "Si O2"
_cell_formula_units_Z 80
_cell_length_a 24.736271
_cell_length_b 9.684303
_cell_length_c 16.731393
_cell_angle_alpha 90.000000
_cell_angle_beta 90.000000
_cell_angle_gamma 90.000000
_cell_volume 4008.064480
_symmetry_space_group_name_H-M "C M C A"
_symmetry_group_IT_number 64
_symmetry_cell_setting 'orthorhombic'
loop_
_space_group_symop_operation_xyz
x,y,z
-x,1/2-y,1/2+z
x,-y,-z
-x,1/2+y,1/2-z
-x,-y,-z
x,1/2+y,1/2-z
-x,y,z
x,1/2-y,1/2+z
1/2+x,1/2+y,z
1/2-x,-y,1/2+z
1/2+x,1/2-y,-z
1/2-x,y,1/2-z
1/2-x,1/2-y,-z
1/2+x,y,1/2-z
1/2-x,1/2+y,z
1/2+x,-y,1/2+z
loop_
_atom_site_type_symbol
_atom_site_label
_atom_site_fract_x
_atom_site_fract_y
_atom_site_fract_z
Si Si1 0.845417 0.959943 0.670378
Si Si2 0.061394 0.393038 0.936336
Si Si3 0.937807 0.864788 0.954969
Si Si4 0.652398 0.211281 0.330690
Si Si5 0.752910 0.878154 0.942835
O O1 0.904564 0.911487 0.643324
O O2 0.838535 0.874071 0.750434
O O3 0.802452 0.914984 0.603052
O O4 0.843194 0.124670 0.685893
O O5 0.000000 0.429314 0.913580
O O6 0.085193 0.500000 0.000000
O O7 0.067608 0.244061 0.974191
O O8 0.903299 0.825162 0.876628
O O9 0.000000 0.879750 0.926050
O O10 0.916204 0.000000 0.000000
O O11 0.701722 0.155149 0.380209
O O12 0.750000 0.750000 0.000000
O O13 0.771762 0.000000 0.000000
#
# Coordination Sequence:
#
# PCOD8263580 Si02
#       5
#    16  16  16  16  16
#     4  12  27  43  63  97 134 166 212 262 322 386
#     4  10  20  41  70  92 123 171 218 262 310 369
#     4  10  22  42  68  97 128 168 218 265 311 374
#     4  12  27  43  64  96 134 169 208 264 324 381
#     4  12  25  45  71  92 121 167 217 267 315 377
#
# _framework density 19.959757
#
# number of rings (size 3 to 8) (size 9 to 14) (size 15 to 20)
#    0.000    0.800    4.000    3.000    5.600    2.400 
#    0.000    0.000    0.000    0.000    0.000    0.000 
#    0.000    0.000    0.000    0.000    0.000    0.000 
#
# Total GULP energy -495907.989370 kJ/mol
# GULP energy per Si atom -12397.699734 kJ/mol
# Density = 1.991433 g / cm^3
# Si number density = 19.959757 Si / 1000 Ang^3
#
#
#
# Elastic Constant Matrix: (Units=GPa)
#
#
# Indices 1 2 3 4 5 6 
#
# 1 99.7596 43.3343 55.5231 0.0000 0.0000 0.0000
# 2 43.3343 168.5114 73.7081 0.0000 0.0000 0.0000
# 3 55.5231 73.7081 133.5828 0.0000 0.0000 0.0000
# 4 0.0000 0.0000 0.0000 40.8033 0.0000 0.0000
# 5 0.0000 0.0000 0.0000 0.0000 -75.5126 0.0000
# 6 0.0000 0.0000 0.0000 0.0000 0.0000 33.3334
#
#
#
# Elastic Compliance Matrix: (Units=1/GPa)
#
#
# Indices 1 2 3 4 5 6 
#
# 1 0.013259 -0.001317 -0.004784 0.000000 0.000000 0.000000
# 2 -0.001317 0.007953 -0.003841 0.000000 0.000000 0.000000
# 3 -0.004784 -0.003841 0.011594 0.000000 0.000000 0.000000
# 4 0.000000 0.000000 0.000000 0.024508 0.000000 0.000000
# 5 0.000000 0.000000 0.000000 0.000000 -0.013243 0.000000
# 6 0.000000 0.000000 0.000000 0.000000 0.000000 0.030000
#
#
# Mechanical properties :
#
#
# Convention : Reuss Voigt Hill
#
# Bulk Modulus (GPa) = 77.39063 82.99829 80.19446
# Shear Modulus (GPa) = 50.88410 15.01072 32.94741
#
# Velocity S-wave (km/s) = 5.05457 2.74533 4.06728
# Velocity P-wave (km/s) = 8.53946 7.19181 7.89445
#
# Compressibility (1/GPa) = 0.01292146
#
# Stress axis : x y z
#
# Youngs Moduli (GPa) = 75.42047 125.73823 86.25201
#
# Poissons Ratio (x) = 0.16559 0.41266
# Poissons Ratio (y) = 0.09933 0.33129
# Poissons Ratio (z) = 0.36084 0.48295
#
# Static dielectric constant tensor:
#      x y z
#    x 3.816660 0.000000 0.000000 
#    y 0.000000 3.827750 0.000000 
#    z 0.000000 0.000000 3.453230 
# 
# 
# High freq. dielectric constant tensor:
#      x y z
#    x 1.791810 0.000000 0.000000 
#    y 0.000000 1.802870 0.000000 
#    z 0.000000 0.000000 1.777610 
# 
# From -- ./inp_files/35345.got.cif
#   From: 2010.03.12/outbox.cif.g09.slc.cpg/sg64_18_cif.got.tgz:35345.got - 2010.04.10 20:19:32.
