data_PCOD8263650
_publ_section_title
;
Structure prediction by ZEFSAII (Michael W. Deem and Ramdas Pophale) SiO2 
 PCOD8263650
Probable space group: C M C A
;
_chemical_formula_sum "Si O2"
_cell_formula_units_Z 96
_cell_length_a 8.717059
_cell_length_b 23.942500
_cell_length_c 26.184958
_cell_angle_alpha 90.000000
_cell_angle_beta 90.000000
_cell_angle_gamma 90.000000
_cell_volume 5465.015061
_symmetry_space_group_name_H-M "C M C A"
_symmetry_group_IT_number 64
_symmetry_cell_setting 'orthorhombic'
loop_
_space_group_symop_operation_xyz
x,y,z
-x,1/2-y,1/2+z
x,-y,-z
-x,1/2+y,1/2-z
-x,-y,-z
x,1/2+y,1/2-z
-x,y,z
x,1/2-y,1/2+z
1/2+x,1/2+y,z
1/2-x,-y,1/2+z
1/2+x,1/2-y,-z
1/2-x,y,1/2-z
1/2-x,1/2-y,-z
1/2+x,y,1/2-z
1/2-x,1/2+y,z
1/2+x,-y,1/2+z
loop_
_atom_site_type_symbol
_atom_site_label
_atom_site_fract_x
_atom_site_fract_y
_atom_site_fract_z
Si Si1 0.321824 0.163768 0.695114
Si Si2 0.818860 0.754159 0.615508
Si Si3 0.678504 0.523270 0.053168
Si Si4 0.819970 0.174184 0.534025
Si Si5 0.319053 0.646261 0.070639
Si Si6 0.321918 0.412725 0.104661
O O1 0.500000 0.164501 0.704403
O O2 0.250000 0.157838 0.750000
O O3 0.270261 0.221207 0.667092
O O4 0.274399 0.110027 0.660558
O O5 0.734910 0.725612 0.567963
O O6 0.760276 0.818415 0.616826
O O7 0.000000 0.750708 0.607494
O O8 0.500000 0.533711 0.042762
O O9 0.748728 0.582902 0.070201
O O10 0.705837 0.479174 0.099292
O O11 0.751153 0.500000 0.000000
O O12 0.726740 0.176688 0.481598
O O13 0.781447 0.116116 0.561852
O O14 0.000000 0.178315 0.522942
O O15 0.500000 0.647187 0.079186
O O16 0.500000 0.397340 0.093819
#
# Coordination Sequence:
#
# PCOD8263650 Si02
#       6
#    16  16  16  16  16  16
#     4   9  19  34  56  77  97 123 158 209 261 306
#     4  10  21  36  50  70  99 131 165 208 256 300
#     4   9  16  29  51  73  99 138 175 202 234 292
#     4  11  20  30  46  71 102 136 169 207 246 292
#     4  11  20  31  49  72 100 138 175 205 239 291
#     4   9  17  33  52  74 101 133 170 207 247 292
#
# _framework density 17.566282000000001
#
# number of rings (size 3 to 8) (size 9 to 14) (size 15 to 20)
#    0.000    2.167    1.667    4.000    0.000    3.333 
#    0.000    2.500    0.000    1.000    0.000    4.667 
#    0.000    0.000    0.000    0.000    0.000    0.000 
#
# Total GULP energy -594957.869137 kJ/mol
# GULP energy per Si atom -12394.955607 kJ/mol
# Density = 1.752630 g / cm^3
# Si number density = 17.566282 Si / 1000 Ang^3
#
#
#
# Elastic Constant Matrix: (Units=GPa)
#
#
# Indices 1 2 3 4 5 6 
#
# 1 40.2601 27.5612 21.9828 0.0000 0.0000 0.0000
# 2 27.5612 106.5411 48.1075 0.0000 0.0000 0.0000
# 3 21.9828 48.1075 100.9175 0.0000 0.0000 0.0000
# 4 0.0000 0.0000 0.0000 14.7036 0.0000 0.0000
# 5 0.0000 0.0000 0.0000 0.0000 24.2219 0.0000
# 6 0.0000 0.0000 0.0000 0.0000 0.0000 20.2250
#
#
#
# Elastic Compliance Matrix: (Units=1/GPa)
#
#
# Indices 1 2 3 4 5 6 
#
# 1 0.031268 -0.006388 -0.003766 0.000000 0.000000 0.000000
# 2 -0.006388 0.013266 -0.004932 0.000000 0.000000 0.000000
# 3 -0.003766 -0.004932 0.013081 0.000000 0.000000 0.000000
# 4 0.000000 0.000000 0.000000 0.068011 0.000000 0.000000
# 5 0.000000 0.000000 0.000000 0.000000 0.041285 0.000000
# 6 0.000000 0.000000 0.000000 0.000000 0.000000 0.049444
#
#
# Mechanical properties :
#
#
# Convention : Reuss Voigt Hill
#
# Bulk Modulus (GPa) = 36.44095 49.22464 42.83279
# Shear Modulus (GPa) = 19.55618 21.83457 20.69538
#
# Velocity S-wave (km/s) = 3.34020 3.52942 3.43611
# Velocity P-wave (km/s) = 5.97209 6.68522 6.33869
#
# Compressibility (1/GPa) = 0.02744166
#
# Stress axis : x y z
#
# Youngs Moduli (GPa) = 31.98155 75.38198 76.44920
#
# Poissons Ratio (x) = 0.48157 0.28789
# Poissons Ratio (y) = 0.20431 0.37707
# Poissons Ratio (z) = 0.12043 0.37180
#
# Static dielectric constant tensor:
#      x y z
#    x 3.118430 0.000000 0.000000 
#    y 0.000000 3.607820 0.000000 
#    z 0.000000 0.000000 3.312070 
# 
# 
# High freq. dielectric constant tensor:
#      x y z
#    x 1.665630 0.000000 0.000000 
#    y 0.000000 1.688560 0.000000 
#    z 0.000000 0.000000 1.641680 
# 
# From -- ./inp_files/43004.got.cif
#   From: 2010.03.12/outbox.cif.g09.slc.cpg/sg64_22_cif.got.tgz:43004.got - 2010.04.10 20:19:32.
