data_PCOD8263335
_publ_section_title
;
Structure prediction by ZEFSAII (Michael W. Deem and Ramdas Pophale) SiO2 
 PCOD8263335
Probable space group: C M C A
;
_chemical_formula_sum "Si O2"
_cell_formula_units_Z 80
_cell_length_a 8.631603
_cell_length_b 18.177401
_cell_length_c 25.347756
_cell_angle_alpha 90.000000
_cell_angle_beta 90.000000
_cell_angle_gamma 90.000000
_cell_volume 3977.065679
_symmetry_space_group_name_H-M "C M C A"
_symmetry_group_IT_number 64
_symmetry_cell_setting 'orthorhombic'
loop_
_space_group_symop_operation_xyz
x,y,z
-x,1/2-y,1/2+z
x,-y,-z
-x,1/2+y,1/2-z
-x,-y,-z
x,1/2+y,1/2-z
-x,y,z
x,1/2-y,1/2+z
1/2+x,1/2+y,z
1/2-x,-y,1/2+z
1/2+x,1/2-y,-z
1/2-x,y,1/2-z
1/2-x,1/2-y,-z
1/2+x,y,1/2-z
1/2-x,1/2+y,z
1/2+x,-y,1/2+z
loop_
_atom_site_type_symbol
_atom_site_label
_atom_site_fract_x
_atom_site_fract_y
_atom_site_fract_z
Si Si1 0.180143 0.830099 0.495203
Si Si2 0.317615 0.676216 0.305941
Si Si3 0.682114 0.332705 0.306121
Si Si4 0.678305 0.074331 0.097869
Si Si5 0.180067 0.919012 0.100191
O O1 0.250000 0.750000 0.500000
O O2 0.207130 0.870073 0.550375
O O3 0.270627 0.873118 0.450357
O O4 0.000000 0.826020 0.480043
O O5 0.500000 0.686663 0.301163
O O6 0.250000 0.650387 0.250000
O O7 0.247494 0.753875 0.324243
O O8 0.272772 0.614686 0.348329
O O9 0.500000 0.326399 0.300682
O O10 0.750000 0.357208 0.250000
O O11 0.725632 0.393976 0.348578
O O12 0.500000 0.048544 0.099573
O O13 0.786396 0.004285 0.089544
O O14 0.000000 0.906523 0.110799
#
# Coordination Sequence:
#
# PCOD8263335 Si02
#       5
#    16  16  16  16  16
#     4  11  23  41  65  90 119 156 200 247 297 355
#     4  10  20  37  61  89 121 156 198 245 295 353
#     4  11  22  39  63  89 120 157 200 247 296 352
#     4  10  23  41  60  85 120 159 198 245 299 353
#     4  12  25  40  60  88 122 158 199 246 298 356
#
# _framework density 20.115333
#
# number of rings (size 3 to 8) (size 9 to 14) (size 15 to 20)
#    0.000    1.200    0.000    7.800    0.000    8.000 
#    0.000    2.000    0.000    0.000    0.000    0.000 
#    0.000    0.000    0.000    0.000    0.000    0.000 
#
# Total GULP energy -496282.551209 kJ/mol
# GULP energy per Si atom -12407.063780 kJ/mol
# Density = 2.006955 g / cm^3
# Si number density = 20.115333 Si / 1000 Ang^3
#
#
#
# Elastic Constant Matrix: (Units=GPa)
#
#
# Indices 1 2 3 4 5 6 
#
# 1 107.5139 41.5131 39.1798 0.0000 0.0000 0.0000
# 2 41.5131 120.2184 52.2373 0.0000 0.0000 0.0000
# 3 39.1798 52.2373 106.8335 0.0000 0.0000 0.0000
# 4 0.0000 0.0000 0.0000 -506.7038 0.0000 0.0000
# 5 0.0000 0.0000 0.0000 0.0000 30.4757 0.0000
# 6 0.0000 0.0000 0.0000 0.0000 0.0000 10.9140
#
#
#
# Elastic Compliance Matrix: (Units=1/GPa)
#
#
# Indices 1 2 3 4 5 6 
#
# 1 0.011381 -0.002687 -0.002860 0.000000 0.000000 0.000000
# 2 -0.002687 0.011197 -0.004489 0.000000 0.000000 0.000000
# 3 -0.002860 -0.004489 0.012604 0.000000 0.000000 0.000000
# 4 0.000000 0.000000 0.000000 -0.001974 0.000000 0.000000
# 5 0.000000 0.000000 0.000000 0.000000 0.032813 0.000000
# 6 0.000000 0.000000 0.000000 0.000000 0.000000 0.091626
#
#
# Mechanical properties :
#
#
# Convention : Reuss Voigt Hill
#
# Bulk Modulus (GPa) = 66.18497 66.71403 66.44950
# Shear Modulus (GPa) = 27.35885 -79.62045 -26.13080
#
# Velocity S-wave (km/s) = 3.69195 -6.29825 -3.60814
# Velocity P-wave (km/s) = 7.15180 4.43315 3.96834
#
# Compressibility (1/GPa) = 0.01510917
#
# Stress axis : x y z
#
# Youngs Moduli (GPa) = 87.86640 89.31087 79.33849
#
# Poissons Ratio (x) = 0.24001 0.22689
# Poissons Ratio (y) = 0.23613 0.35617
# Poissons Ratio (z) = 0.25128 0.40094
#
# Static dielectric constant tensor:
#      x y z
#    x 3.779440 0.000000 0.000000 
#    y 0.000000 3.638620 0.000000 
#    z 0.000000 0.000000 3.863870 
# 
# 
# High freq. dielectric constant tensor:
#      x y z
#    x 1.798280 0.000000 0.000000 
#    y 0.000000 1.789380 0.000000 
#    z 0.000000 0.000000 1.801580 
# 
# From -- ./inp_files/47880.got.cif
#   From: 2010.03.12/outbox.cif.g09.slc.cpg/sg64_24_cif.got.tgz:47880.got - 2010.04.10 20:19:32.
