data_PCOD8263044
_publ_section_title
;
Structure prediction by ZEFSAII (Michael W. Deem and Ramdas Pophale) SiO2 
 PCOD8263044
Probable space group: C M C A
;
_chemical_formula_sum "Si O2"
_cell_formula_units_Z 112
_cell_length_a 19.495694
_cell_length_b 22.773476
_cell_length_c 12.777078
_cell_angle_alpha 90.000000
_cell_angle_beta 90.000000
_cell_angle_gamma 90.000000
_cell_volume 5672.827391
_symmetry_space_group_name_H-M "C M C A"
_symmetry_group_IT_number 64
_symmetry_cell_setting 'orthorhombic'
loop_
_space_group_symop_operation_xyz
x,y,z
-x,1/2-y,1/2+z
x,-y,-z
-x,1/2+y,1/2-z
-x,-y,-z
x,1/2+y,1/2-z
-x,y,z
x,1/2-y,1/2+z
1/2+x,1/2+y,z
1/2-x,-y,1/2+z
1/2+x,1/2-y,-z
1/2-x,y,1/2-z
1/2-x,1/2-y,-z
1/2+x,y,1/2-z
1/2-x,1/2+y,z
1/2+x,-y,1/2+z
loop_
_atom_site_type_symbol
_atom_site_label
_atom_site_fract_x
_atom_site_fract_y
_atom_site_fract_z
Si Si1 0.346912 0.626760 0.061622
Si Si2 0.423984 0.855404 0.360094
Si Si3 0.317248 0.629385 0.690584
Si Si4 0.420149 0.781442 0.889837
Si Si5 0.208547 0.068251 0.487525
Si Si6 0.319052 0.241716 0.934357
Si Si7 0.171699 0.126648 0.279902
O O1 0.341194 0.694005 0.101884
O O2 0.358515 0.594272 0.174195
O O3 0.406485 0.620284 0.976413
O O4 0.278697 0.604631 0.004980
O O5 0.500000 0.876278 0.336200
O O6 0.378789 0.883367 0.269616
O O7 0.415594 0.785683 0.354125
O O8 0.250000 0.606341 0.750000
O O9 0.334392 0.591565 0.586640
O O10 0.306954 0.698402 0.663131
O O11 0.500000 0.801448 0.900110
O O12 0.378691 0.819426 0.805273
O O13 0.380458 0.788392 0.999422
O O14 0.170931 0.081233 0.377086
O O15 0.223074 0.000000 0.500000
O O16 0.250000 0.250000 0.000000
O O17 0.250000 0.146830 0.250000
#
# Coordination Sequence:
#
# PCOD8263044 Si02
#       7
#    16  16  16  16  16  16  16
#     4  10  20  37  58  87 121 156 196 250 302 358
#     4  10  22  37  57  92 130 162 195 236 301 377
#     4  12  21  36  62  90 121 159 196 253 308 361
#     4  10  20  35  57  92 130 162 194 239 303 370
#     4  11  23  40  61  92 116 152 210 265 307 348
#     4  11  18  33  58  88 123 155 199 244 305 373
#     4  10  20  38  61  87 118 162 203 254 299 358
#
# _framework density 19.743241000000001
#
# number of rings (size 3 to 8) (size 9 to 14) (size 15 to 20)
#    0.000    1.429    4.286    2.571    0.000    5.143 
#    0.000    2.857    0.000    2.143    0.000    0.000 
#    0.000    0.000    0.000    0.000    0.000    0.000 
#
# Total GULP energy -694020.223515 kJ/mol
# GULP energy per Si atom -12393.218277 kJ/mol
# Density = 1.969830 g / cm^3
# Si number density = 19.743241 Si / 1000 Ang^3
#
#
#
# Elastic Constant Matrix: (Units=GPa)
#
#
# Indices 1 2 3 4 5 6 
#
# 1 122.8500 16.5487 65.8109 0.0000 0.0000 0.0000
# 2 16.5487 52.1928 33.9118 0.0000 0.0000 0.0000
# 3 65.8109 33.9118 157.6494 0.0000 0.0000 0.0000
# 4 0.0000 0.0000 0.0000 11.6210 0.0000 0.0000
# 5 0.0000 0.0000 0.0000 0.0000 29.2551 0.0000
# 6 0.0000 0.0000 0.0000 0.0000 0.0000 2.5158
#
#
#
# Elastic Compliance Matrix: (Units=1/GPa)
#
#
# Indices 1 2 3 4 5 6 
#
# 1 0.010499 -0.000559 -0.004262 0.000000 0.000000 0.000000
# 2 -0.000559 0.022302 -0.004564 0.000000 0.000000 0.000000
# 3 -0.004262 -0.004564 0.009104 0.000000 0.000000 0.000000
# 4 0.000000 0.000000 0.000000 0.086051 0.000000 0.000000
# 5 0.000000 0.000000 0.000000 0.000000 0.034182 0.000000
# 6 0.000000 0.000000 0.000000 0.000000 0.000000 0.397487
#
#
# Mechanical properties :
#
#
# Convention : Reuss Voigt Hill
#
# Bulk Modulus (GPa) = 43.22630 62.80389 53.01509
# Shear Modulus (GPa) = 8.53085 23.10643 15.81864
#
# Velocity S-wave (km/s) = 2.08093 3.42474 2.83365
# Velocity P-wave (km/s) = 5.26455 6.89332 6.13324
#
# Compressibility (1/GPa) = 0.02313406
#
# Stress axis : x y z
#
# Youngs Moduli (GPa) = 95.24974 44.83805 109.83853
#
# Poissons Ratio (x) = 0.02508 0.46817
# Poissons Ratio (y) = 0.05328 0.50130
# Poissons Ratio (z) = 0.40599 0.20464
#
# Static dielectric constant tensor:
#      x y z
#    x 3.566210 0.000000 0.000000 
#    y 0.000000 3.237070 0.000000 
#    z 0.000000 0.000000 3.875320 
# 
# 
# High freq. dielectric constant tensor:
#      x y z
#    x 1.747360 0.000000 0.000000 
#    y 0.000000 1.725160 0.000000 
#    z 0.000000 0.000000 1.795510 
# 
# From -- ./inp_files/17567.got.cif
#   From: 2010.03.12/outbox.cif.g09.slc.cpg/sg64_9_cif.got.tgz:17567.got - 2010.04.10 20:19:32.
