data_PCOD8263834
_publ_section_title
;
Structure prediction by ZEFSAII (Michael W. Deem and Ramdas Pophale) SiO2 
 PCOD8263834
Probable space group: C M C A
;
_chemical_formula_sum "Si O2"
_cell_formula_units_Z 96
_cell_length_a 16.173594
_cell_length_b 12.429062
_cell_length_c 23.378588
_cell_angle_alpha 90.000000
_cell_angle_beta 90.000000
_cell_angle_gamma 90.000000
_cell_volume 4699.624605
_symmetry_space_group_name_H-M "C M C A"
_symmetry_group_IT_number 64
_symmetry_cell_setting 'orthorhombic'
loop_
_space_group_symop_operation_xyz
x,y,z
-x,1/2-y,1/2+z
x,-y,-z
-x,1/2+y,1/2-z
-x,-y,-z
x,1/2+y,1/2-z
-x,y,z
x,1/2-y,1/2+z
1/2+x,1/2+y,z
1/2-x,-y,1/2+z
1/2+x,1/2-y,-z
1/2-x,y,1/2-z
1/2-x,1/2-y,-z
1/2+x,y,1/2-z
1/2-x,1/2+y,z
1/2+x,-y,1/2+z
loop_
_atom_site_type_symbol
_atom_site_label
_atom_site_fract_x
_atom_site_fract_y
_atom_site_fract_z
Si Si1 0.347280 0.569856 0.580030
Si Si2 0.092345 0.627994 0.798203
Si Si3 0.791930 0.324422 0.693118
Si Si4 0.903873 0.651173 0.033421
Si Si5 0.314794 0.188632 0.610183
Si Si6 0.905463 0.983023 0.182681
O O1 0.392390 0.574604 0.640664
O O2 0.393376 0.649349 0.535310
O O3 0.351810 0.447641 0.559165
O O4 0.252401 0.606402 0.585003
O O5 0.154251 0.724302 0.785749
O O6 0.104958 0.536451 0.750485
O O7 0.000000 0.675022 0.795007
O O8 0.750000 0.372570 0.750000
O O9 0.726348 0.285715 0.645990
O O10 0.848580 0.416335 0.664637
O O11 0.866636 0.761474 0.057877
O O12 0.000000 0.640193 0.049797
O O13 0.378166 0.124011 0.649758
O O14 0.000000 0.009581 0.166592
#
# Coordination Sequence:
#
# PCOD8263834 Si02
#       6
#    16  16  16  16  16  16
#     4  10  22  38  62  89 119 157 202 249 298 348
#     4  10  21  38  59  86 119 158 195 240 299 355
#     4  11  23  37  59  85 119 154 198 234 293 352
#     4  11  22  40  63  91 120 153 204 255 295 346
#     4  11  23  40  62  89 119 161 196 246 295 361
#     4  11  24  39  58  87 123 156 194 244 296 357
#
# _framework density 20.427163
#
# number of rings (size 3 to 8) (size 9 to 14) (size 15 to 20)
#    0.000    1.333    1.667    4.500    7.000    0.000 
#    0.000    0.000    0.000    0.000    0.000   17.500 
#    0.000    0.000    0.000    0.000    0.000    0.000 
#
# Total GULP energy -595396.656373 kJ/mol
# GULP energy per Si atom -12404.097008 kJ/mol
# Density = 2.038067 g / cm^3
# Si number density = 20.427163 Si / 1000 Ang^3
#
#
#
# Elastic Constant Matrix: (Units=GPa)
#
#
# Indices 1 2 3 4 5 6 
#
# 1 98.7871 33.1523 30.8834 0.0000 0.0000 0.0000
# 2 33.1523 63.8270 22.1992 0.0000 0.0000 0.0000
# 3 30.8834 22.1992 78.3633 0.0000 0.0000 0.0000
# 4 0.0000 0.0000 0.0000 29.3602 0.0000 0.0000
# 5 0.0000 0.0000 0.0000 0.0000 24.2024 0.0000
# 6 0.0000 0.0000 0.0000 0.0000 0.0000 22.0479
#
#
#
# Elastic Compliance Matrix: (Units=1/GPa)
#
#
# Indices 1 2 3 4 5 6 
#
# 1 0.013112 -0.005561 -0.003592 0.000000 0.000000 0.000000
# 2 -0.005561 0.019738 -0.003400 0.000000 0.000000 0.000000
# 3 -0.003592 -0.003400 0.015140 0.000000 0.000000 0.000000
# 4 0.000000 0.000000 0.000000 0.034060 0.000000 0.000000
# 5 0.000000 0.000000 0.000000 0.000000 0.041318 0.000000
# 6 0.000000 0.000000 0.000000 0.000000 0.000000 0.045356
#
#
# Mechanical properties :
#
#
# Convention : Reuss Voigt Hill
#
# Bulk Modulus (GPa) = 43.69885 45.93859 44.81872
# Shear Modulus (GPa) = 24.81901 25.43827 25.12864
#
# Velocity S-wave (km/s) = 3.48947 3.53273 3.51117
# Velocity P-wave (km/s) = 6.13793 6.25924 6.19888
#
# Compressibility (1/GPa) = 0.02288390
#
# Stress axis : x y z
#
# Youngs Moduli (GPa) = 76.26565 50.66275 66.05058
#
# Poissons Ratio (x) = 0.28174 0.23726
# Poissons Ratio (y) = 0.42413 0.22457
# Poissons Ratio (z) = 0.27396 0.17225
#
# Static dielectric constant tensor:
#      x y z
#    x 3.816740 0.000000 0.000000 
#    y 0.000000 3.441330 0.000000 
#    z 0.000000 0.000000 3.793020 
# 
# 
# High freq. dielectric constant tensor:
#      x y z
#    x 1.809490 0.000000 0.000000 
#    y 0.000000 1.788510 0.000000 
#    z 0.000000 0.000000 1.798570 
# 
# From -- ./inp_files/45752.got.cif
#   From: 2010.03.12/outbox.cif.g09.slc.cpg/sg64_23_cif.got.tgz:45752.got - 2010.04.10 20:19:32.
