data_PCOD8263302
_publ_section_title
;
Structure prediction by ZEFSAII (Michael W. Deem and Ramdas Pophale) SiO2 
 PCOD8263302
Probable space group: C M C A
;
_chemical_formula_sum "Si O2"
_cell_formula_units_Z 96
_cell_length_a 8.628358
_cell_length_b 23.537464
_cell_length_c 25.375659
_cell_angle_alpha 90.000000
_cell_angle_beta 90.000000
_cell_angle_gamma 90.000000
_cell_volume 5153.534106
_symmetry_space_group_name_H-M "C M C A"
_symmetry_group_IT_number 64
_symmetry_cell_setting 'orthorhombic'
loop_
_space_group_symop_operation_xyz
x,y,z
-x,1/2-y,1/2+z
x,-y,-z
-x,1/2+y,1/2-z
-x,-y,-z
x,1/2+y,1/2-z
-x,y,z
x,1/2-y,1/2+z
1/2+x,1/2+y,z
1/2-x,-y,1/2+z
1/2+x,1/2-y,-z
1/2-x,y,1/2-z
1/2-x,1/2-y,-z
1/2+x,y,1/2-z
1/2-x,1/2+y,z
1/2+x,-y,1/2+z
loop_
_atom_site_type_symbol
_atom_site_label
_atom_site_fract_x
_atom_site_fract_y
_atom_site_fract_z
Si Si1 0.817379 0.000758 0.440873
Si Si2 0.682581 0.812260 0.305950
Si Si3 0.681576 0.385005 0.903234
Si Si4 0.682535 0.879943 0.101133
Si Si5 0.183523 0.312282 0.495368
Si Si6 0.683791 0.690784 0.193571
O O1 0.760547 0.053970 0.407197
O O2 0.000000 0.003923 0.445623
O O3 0.745035 0.000000 0.500000
O O4 0.764794 0.944219 0.410516
O O5 0.500000 0.805619 0.301556
O O6 0.750000 0.831270 0.250000
O O7 0.726943 0.860797 0.347060
O O8 0.752754 0.752041 0.323971
O O9 0.500000 0.394791 0.902171
O O10 0.738604 0.354993 0.849585
O O11 0.730077 0.345981 0.952158
O O12 0.500000 0.874655 0.110666
O O13 0.729871 0.840909 0.052809
O O14 0.250000 0.250000 0.500000
O O15 0.000000 0.311348 0.485721
O O16 0.500000 0.694963 0.196762
O O17 0.750000 0.671772 0.250000
#
# Coordination Sequence:
#
# PCOD8263302 Si02
#       6
#    16  16  16  16  16  16
#     4  10  21  38  59  83 111 151 193 234 287 340
#     4  11  22  38  61  88 116 152 192 234 289 343
#     4  10  22  37  56  82 114 149 190 236 284 340
#     4  11  22  38  58  83 116 150 191 239 284 341
#     4  11  22  35  54  83 115 150 187 234 291 346
#     4  10  20  37  59  86 117 152 191 235 288 341
#
# _framework density 18.627994000000001
#
# number of rings (size 3 to 8) (size 9 to 14) (size 15 to 20)
#    0.000    1.500    1.667    5.000    0.000    5.000 
#    0.000    0.833    0.000    2.000    0.000    0.000 
#    0.000    0.000    0.000    0.000    0.000    0.000 
#
# Total GULP energy -595404.432615 kJ/mol
# GULP energy per Si atom -12404.259013 kJ/mol
# Density = 1.858560 g / cm^3
# Si number density = 18.627994 Si / 1000 Ang^3
#
#
#
# Elastic Constant Matrix: (Units=GPa)
#
#
# Indices 1 2 3 4 5 6 
#
# 1 46.8632 27.3550 19.8606 0.0000 0.0000 0.0000
# 2 27.3550 150.5302 74.3605 0.0000 0.0000 0.0000
# 3 19.8606 74.3605 111.8281 0.0000 0.0000 0.0000
# 4 0.0000 0.0000 0.0000 31.9834 0.0000 0.0000
# 5 0.0000 0.0000 0.0000 0.0000 33.7167 0.0000
# 6 0.0000 0.0000 0.0000 0.0000 0.0000 28.7381
#
#
#
# Elastic Compliance Matrix: (Units=1/GPa)
#
#
# Indices 1 2 3 4 5 6 
#
# 1 0.024181 -0.003385 -0.002044 0.000000 0.000000 0.000000
# 2 -0.003385 0.010366 -0.006292 0.000000 0.000000 0.000000
# 3 -0.002044 -0.006292 0.013489 0.000000 0.000000 0.000000
# 4 0.000000 0.000000 0.000000 0.031266 0.000000 0.000000
# 5 0.000000 0.000000 0.000000 0.000000 0.029659 0.000000
# 6 0.000000 0.000000 0.000000 0.000000 0.000000 0.034797
#
#
# Mechanical properties :
#
#
# Convention : Reuss Voigt Hill
#
# Bulk Modulus (GPa) = 40.65842 61.37485 51.01664
# Shear Modulus (GPa) = 28.50661 31.39733 29.95197
#
# Velocity S-wave (km/s) = 3.91616 4.10993 4.01421
# Velocity P-wave (km/s) = 6.50556 7.45260 6.99512
#
# Compressibility (1/GPa) = 0.02459515
#
# Stress axis : x y z
#
# Youngs Moduli (GPa) = 41.35563 96.46461 74.13295
#
# Poissons Ratio (x) = 0.32649 0.15152
# Poissons Ratio (y) = 0.13997 0.46646
# Poissons Ratio (z) = 0.08453 0.60697
#
# Static dielectric constant tensor:
#      x y z
#    x 3.449240 0.000000 0.000000 
#    y 0.000000 4.195950 0.000000 
#    z 0.000000 0.000000 3.634860 
# 
# 
# High freq. dielectric constant tensor:
#      x y z
#    x 1.730890 0.000000 0.000000 
#    y 0.000000 1.725290 0.000000 
#    z 0.000000 0.000000 1.728680 
# 
# From -- ./inp_files/43012.got.cif
#   From: 2010.03.12/outbox.cif.g09.slc.cpg/sg64_22_cif.got.tgz:43012.got - 2010.04.10 20:19:32.
