data_PCOD8263837
_publ_section_title
;
Structure prediction by ZEFSAII (Michael W. Deem and Ramdas Pophale) SiO2 
 PCOD8263837
Probable space group: C M C A
;
_chemical_formula_sum "Si O2"
_cell_formula_units_Z 96
_cell_length_a 14.557749
_cell_length_b 9.735049
_cell_length_c 34.977670
_cell_angle_alpha 90.000000
_cell_angle_beta 90.000000
_cell_angle_gamma 90.000000
_cell_volume 4957.049378
_symmetry_space_group_name_H-M "C M C A"
_symmetry_group_IT_number 64
_symmetry_cell_setting 'orthorhombic'
loop_
_space_group_symop_operation_xyz
x,y,z
-x,1/2-y,1/2+z
x,-y,-z
-x,1/2+y,1/2-z
-x,-y,-z
x,1/2+y,1/2-z
-x,y,z
x,1/2-y,1/2+z
1/2+x,1/2+y,z
1/2-x,-y,1/2+z
1/2+x,1/2-y,-z
1/2-x,y,1/2-z
1/2-x,1/2-y,-z
1/2+x,y,1/2-z
1/2-x,1/2+y,z
1/2+x,-y,1/2+z
loop_
_atom_site_type_symbol
_atom_site_label
_atom_site_fract_x
_atom_site_fract_y
_atom_site_fract_z
Si Si1 0.200205 0.782945 0.210323
Si Si2 0.303066 0.748578 0.039800
Si Si3 0.000000 0.080476 0.942202
Si Si4 0.500000 0.812250 0.266661
Si Si5 0.500000 0.786005 0.519139
Si Si6 0.500000 0.106113 0.298445
Si Si7 0.805528 0.441903 0.669423
Si Si8 0.192843 0.531462 0.584189
O O1 0.250000 0.748343 0.250000
O O2 0.239739 0.686016 0.177488
O O3 0.090976 0.755838 0.212423
O O4 0.220857 0.939473 0.199326
O O5 0.408855 0.793578 0.032866
O O6 0.263071 0.851955 0.070897
O O7 0.297440 0.594571 0.055344
O O8 0.250000 0.750000 0.000000
O O9 0.090106 0.093883 0.915975
O O10 0.000000 0.936618 0.963456
O O11 0.000000 0.203029 0.973131
O O12 0.500000 0.979347 0.267766
O O13 0.500000 0.752209 0.223607
O O14 0.412026 0.100286 0.326062
O O15 0.782987 0.488848 0.626891
#
# Coordination Sequence:
#
# PCOD8263837 Si02
#       8
#    16  16   8   8   8   8  16  16
#     4  11  22  39  60  85 113 153 194 236 280 344
#     4  11  21  38  61  85 114 153 197 239 286 346
#     4   9  17  34  60  81 110 151 197 233 274 346
#     4  10  22  36  59  85 112 146 198 238 278 334
#     4   9  18  34  57  86 109 147 198 238 277 341
#     4  10  21  38  59  87 117 151 191 241 286 343
#     4  11  23  38  59  88 120 152 190 238 298 342
#     4  11  22  38  59  88 118 151 191 242 292 346
#
# _framework density 19.366358999999999
#
# number of rings (size 3 to 8) (size 9 to 14) (size 15 to 20)
#    0.000    1.500    3.333    2.500    2.333    0.000 
#    0.000    3.333    0.000    0.000    0.000    0.000 
#    0.000    0.000    0.000    0.000    0.000    0.000 
#
# Total GULP energy -595300.382806 kJ/mol
# GULP energy per Si atom -12402.091308 kJ/mol
# Density = 1.932228 g / cm^3
# Si number density = 19.366359 Si / 1000 Ang^3
#
#
#
# Elastic Constant Matrix: (Units=GPa)
#
#
# Indices 1 2 3 4 5 6 
#
# 1 145.0417 37.0821 23.1199 0.0000 0.0000 0.0000
# 2 37.0821 46.1151 -0.7371 0.0000 0.0000 0.0000
# 3 23.1199 -0.7371 69.4287 0.0000 0.0000 0.0000
# 4 0.0000 0.0000 0.0000 33.3737 0.0000 0.0000
# 5 0.0000 0.0000 0.0000 0.0000 28.2879 0.0000
# 6 0.0000 0.0000 0.0000 0.0000 0.0000 27.4292
#
#
#
# Elastic Compliance Matrix: (Units=1/GPa)
#
#
# Indices 1 2 3 4 5 6 
#
# 1 0.009335 -0.007557 -0.003189 0.000000 0.000000 0.000000
# 2 -0.007557 0.027807 0.002812 0.000000 0.000000 0.000000
# 3 -0.003189 0.002812 0.015495 0.000000 0.000000 0.000000
# 4 0.000000 0.000000 0.000000 0.029964 0.000000 0.000000
# 5 0.000000 0.000000 0.000000 0.000000 0.035351 0.000000
# 6 0.000000 0.000000 0.000000 0.000000 0.000000 0.036458
#
#
# Mechanical properties :
#
#
# Convention : Reuss Voigt Hill
#
# Bulk Modulus (GPa) = 27.19745 42.16835 34.68290
# Shear Modulus (GPa) = 27.39215 31.22619 29.30917
#
# Velocity S-wave (km/s) = 3.76496 4.01982 3.89447
# Velocity P-wave (km/s) = 5.74230 6.58533 6.17821
#
# Compressibility (1/GPa) = 0.03676816
#
# Stress axis : x y z
#
# Youngs Moduli (GPa) = 107.12303 35.96225 64.53692
#
# Poissons Ratio (x) = 0.27178 0.20580
# Poissons Ratio (y) = 0.80958 -0.18147
# Poissons Ratio (z) = 0.34160 -0.10112
#
# Static dielectric constant tensor:
#      x y z
#    x 3.842610 0.000000 0.000000 
#    y 0.000000 3.474990 0.000000 
#    z 0.000000 0.000000 3.370620 
# 
# 
# High freq. dielectric constant tensor:
#      x y z
#    x 1.768740 0.000000 0.000000 
#    y 0.000000 1.740590 0.000000 
#    z 0.000000 0.000000 1.746700 
# 
# From -- ./inp_files/53226.got.cif
#   From: 2010.03.12/outbox.cif.g09.slc.cpg/sg64_27_cif.got.tgz:53226.got - 2010.04.10 20:19:32.
