data_PCOD8263277
_publ_section_title
;
Structure prediction by ZEFSAII (Michael W. Deem and Ramdas Pophale) SiO2 
 PCOD8263277
Probable space group: C M C A
;
_chemical_formula_sum "Si O2"
_cell_formula_units_Z 80
_cell_length_a 15.539991
_cell_length_b 18.525015
_cell_length_c 12.546219
_cell_angle_alpha 90.000000
_cell_angle_beta 90.000000
_cell_angle_gamma 90.000000
_cell_volume 3611.787539
_symmetry_space_group_name_H-M "C M C A"
_symmetry_group_IT_number 64
_symmetry_cell_setting 'orthorhombic'
loop_
_space_group_symop_operation_xyz
x,y,z
-x,1/2-y,1/2+z
x,-y,-z
-x,1/2+y,1/2-z
-x,-y,-z
x,1/2+y,1/2-z
-x,y,z
x,1/2-y,1/2+z
1/2+x,1/2+y,z
1/2-x,-y,1/2+z
1/2+x,1/2-y,-z
1/2-x,y,1/2-z
1/2-x,1/2-y,-z
1/2+x,y,1/2-z
1/2-x,1/2+y,z
1/2+x,-y,1/2+z
loop_
_atom_site_type_symbol
_atom_site_label
_atom_site_fract_x
_atom_site_fract_y
_atom_site_fract_z
Si Si1 0.097452 0.231628 0.305759
Si Si2 0.150997 0.613455 0.771691
Si Si3 0.169719 0.171090 0.509409
Si Si4 0.170824 0.820340 0.894753
Si Si5 0.000000 0.029212 0.827756
Si Si6 0.500000 0.608888 0.048906
O O1 0.129324 0.314097 0.295225
O O2 0.099381 0.200565 0.425523
O O3 0.156093 0.178108 0.232850
O O4 0.000000 0.228814 0.262907
O O5 0.250000 0.591299 0.750000
O O6 0.133205 0.617489 0.900062
O O7 0.087057 0.550228 0.734257
O O8 0.200876 0.238547 0.581056
O O9 0.248995 0.133853 0.442857
O O10 0.083797 0.841214 0.954541
O O11 0.000000 0.942773 0.846559
O O12 0.000000 0.064483 0.942237
#
# Coordination Sequence:
#
# PCOD8263277 Si02
#       6
#    16  16  16  16   8   8
#     4  11  20  32  57  92 125 157 196 250 327 397
#     4  11  22  39  58  88 123 159 205 264 312 374
#     4  10  21  33  60  90 124 159 193 251 326 378
#     4  10  20  37  56  88 122 159 200 249 308 390
#     4  11  24  39  61  87 113 159 219 256 300 363
#     4  11  22  39  63  83 117 161 207 254 300 361
#
# _framework density 22.149697
#
# number of rings (size 3 to 8) (size 9 to 14) (size 15 to 20)
#    0.000    1.400    2.000    6.600    2.800    0.000 
#    0.000    2.000    0.000    4.800    0.000    0.000 
#    0.000    0.000    0.000    0.000    0.000    0.000 
#
# Total GULP energy -495620.267656 kJ/mol
# GULP energy per Si atom -12390.506691 kJ/mol
# Density = 2.209928 g / cm^3
# Si number density = 22.149697 Si / 1000 Ang^3
#
#
#
# Elastic Constant Matrix: (Units=GPa)
#
#
# Indices 1 2 3 4 5 6 
#
# 1 142.2024 35.5889 30.1872 0.0000 0.0000 0.0000
# 2 35.5889 34.0820 18.4374 0.0000 0.0000 0.0000
# 3 30.1872 18.4374 125.3674 0.0000 0.0000 0.0000
# 4 0.0000 0.0000 0.0000 28.1610 0.0000 0.0000
# 5 0.0000 0.0000 0.0000 0.0000 75.4728 0.0000
# 6 0.0000 0.0000 0.0000 0.0000 0.0000 13.2162
#
#
#
# Elastic Compliance Matrix: (Units=1/GPa)
#
#
# Indices 1 2 3 4 5 6 
#
# 1 0.009615 -0.009547 -0.000911 0.000000 0.000000 0.000000
# 2 -0.009547 0.041357 -0.003783 0.000000 0.000000 0.000000
# 3 -0.000911 -0.003783 0.008752 0.000000 0.000000 0.000000
# 4 0.000000 0.000000 0.000000 0.035510 0.000000 0.000000
# 5 0.000000 0.000000 0.000000 0.000000 0.013250 0.000000
# 6 0.000000 0.000000 0.000000 0.000000 0.000000 0.075665
#
#
# Mechanical properties :
#
#
# Convention : Reuss Voigt Hill
#
# Bulk Modulus (GPa) = 32.00928 52.23096 42.12012
# Shear Modulus (GPa) = 22.41691 37.86589 30.14140
#
# Velocity S-wave (km/s) = 3.18475 4.13915 3.69291
# Velocity P-wave (km/s) = 5.29209 6.81729 6.10253
#
# Compressibility (1/GPa) = 0.03124094
#
# Stress axis : x y z
#
# Youngs Moduli (GPa) = 104.00392 24.17972 114.25502
#
# Poissons Ratio (x) = 0.23085 0.10410
# Poissons Ratio (y) = 0.99295 0.43227
# Poissons Ratio (z) = 0.09476 0.09148
#
# Static dielectric constant tensor:
#      x y z
#    x 4.095070 0.000000 0.000000 
#    y 0.000000 3.578440 0.000000 
#    z 0.000000 0.000000 4.318710 
# 
# 
# High freq. dielectric constant tensor:
#      x y z
#    x 1.883220 0.000000 0.000000 
#    y 0.000000 1.798490 0.000000 
#    z 0.000000 0.000000 1.892630 
# 
# From -- ./inp_files/15956.got.cif
#   From: 2010.03.12/outbox.cif.g09.slc.cpg/sg64_8_cif.got.tgz:15956.got - 2010.04.10 20:19:32.
