data_PCOD8263009
_publ_section_title
;
Structure prediction by ZEFSAII (Michael W. Deem and Ramdas Pophale) SiO2 
 PCOD8263009
Probable space group: C M C A
;
_chemical_formula_sum "Si O2"
_cell_formula_units_Z 80
_cell_length_a 8.720618
_cell_length_b 19.193979
_cell_length_c 25.500974
_cell_angle_alpha 90.000000
_cell_angle_beta 90.000000
_cell_angle_gamma 90.000000
_cell_volume 4268.438680
_symmetry_space_group_name_H-M "C M C A"
_symmetry_group_IT_number 64
_symmetry_cell_setting 'orthorhombic'
loop_
_space_group_symop_operation_xyz
x,y,z
-x,1/2-y,1/2+z
x,-y,-z
-x,1/2+y,1/2-z
-x,-y,-z
x,1/2+y,1/2-z
-x,y,z
x,1/2-y,1/2+z
1/2+x,1/2+y,z
1/2-x,-y,1/2+z
1/2+x,1/2-y,-z
1/2-x,y,1/2-z
1/2-x,1/2-y,-z
1/2+x,y,1/2-z
1/2-x,1/2+y,z
1/2+x,-y,1/2+z
loop_
_atom_site_type_symbol
_atom_site_label
_atom_site_fract_x
_atom_site_fract_y
_atom_site_fract_z
Si Si1 0.179456 0.078172 0.194950
Si Si2 0.825969 0.327006 0.887965
Si Si3 0.677917 0.325077 0.496261
Si Si4 0.319089 0.931326 0.194311
Si Si5 0.177221 0.662547 0.607490
O O1 0.250000 0.103189 0.250000
O O2 0.209571 0.136837 0.151672
O O3 0.000000 0.067032 0.202270
O O4 0.254006 0.005864 0.176252
O O5 0.793053 0.244805 0.888297
O O6 0.000000 0.341163 0.869563
O O7 0.800679 0.359863 0.946283
O O8 0.500000 0.318863 0.481689
O O9 0.750000 0.250000 0.500000
O O10 0.764413 0.365846 0.449327
O O11 0.500000 0.936675 0.199597
O O12 0.250000 0.908692 0.250000
O O13 0.275329 0.873396 0.152396
O O14 0.000000 0.642934 0.614008
#
# Coordination Sequence:
#
# PCOD8263009 Si02
#       5
#    16  16  16  16  16
#     4  11  22  37  57  78 105 140 178 219 265 318
#     4   9  19  35  55  80 110 141 175 217 262 311
#     4   9  17  31  52  78 109 143 176 215 265 316
#     4  11  22  38  58  78 106 141 178 219 267 321
#     4  10  20  35  56  82 111 141 178 221 264 314
#
# _framework density 18.742217
#
# number of rings (size 3 to 8) (size 9 to 14) (size 15 to 20)
#    0.000    2.000    0.000    7.200    0.000    5.600 
#    0.000    1.000    0.000    6.000    0.000    0.000 
#    0.000    0.000    0.000    0.000    0.000    0.000 
#
# Total GULP energy -495951.716965 kJ/mol
# GULP energy per Si atom -12398.792924 kJ/mol
# Density = 1.869956 g / cm^3
# Si number density = 18.742217 Si / 1000 Ang^3
#
#
#
# Elastic Constant Matrix: (Units=GPa)
#
#
# Indices 1 2 3 4 5 6 
#
# 1 148.8366 35.8970 59.3773 0.0000 0.0000 0.0000
# 2 35.8970 48.5029 49.9024 0.0000 0.0000 0.0000
# 3 59.3773 49.9024 125.3745 0.0000 0.0000 0.0000
# 4 0.0000 0.0000 0.0000 -3.3890 0.0000 0.0000
# 5 0.0000 0.0000 0.0000 0.0000 38.7923 0.0000
# 6 0.0000 0.0000 0.0000 0.0000 0.0000 27.7531
#
#
#
# Elastic Compliance Matrix: (Units=1/GPa)
#
#
# Indices 1 2 3 4 5 6 
#
# 1 0.008661 -0.003708 -0.002626 0.000000 0.000000 0.000000
# 2 -0.003708 0.036503 -0.012773 0.000000 0.000000 0.000000
# 3 -0.002626 -0.012773 0.014304 0.000000 0.000000 0.000000
# 4 0.000000 0.000000 0.000000 -0.295073 0.000000 0.000000
# 5 0.000000 0.000000 0.000000 0.000000 0.025778 0.000000
# 6 0.000000 0.000000 0.000000 0.000000 0.000000 0.036032
#
#
# Mechanical properties :
#
#
# Convention : Reuss Voigt Hill
#
# Bulk Modulus (GPa) = 47.05084 68.11860 57.58472
# Shear Modulus (GPa) = -38.91177 24.46712 -7.22232
#
# Velocity S-wave (km/s) = -4.56143 3.61703 -1.96516
# Velocity P-wave (km/s) = 1.60732 7.33947 5.06381
#
# Compressibility (1/GPa) = 0.02125361
#
# Stress axis : x y z
#
# Youngs Moduli (GPa) = 115.46475 27.39469 69.91226
#
# Poissons Ratio (x) = 0.10159 0.18357
# Poissons Ratio (y) = 0.42818 0.89299
# Poissons Ratio (z) = 0.30317 0.34991
#
# Static dielectric constant tensor:
#      x y z
#    x 3.635130 0.000000 0.000000 
#    y 0.000000 3.099370 0.000000 
#    z 0.000000 0.000000 3.833680 
# 
# 
# High freq. dielectric constant tensor:
#      x y z
#    x 1.744940 0.000000 0.000000 
#    y 0.000000 1.693150 0.000000 
#    z 0.000000 0.000000 1.743580 
# 
# From -- ./inp_files/47854.got.cif
#   From: 2010.03.12/outbox.cif.g09.slc.cpg/sg64_24_cif.got.tgz:47854.got - 2010.04.10 20:19:32.
