data_PCOD8263316
_publ_section_title
;
Structure prediction by ZEFSAII (Michael W. Deem and Ramdas Pophale) SiO2 
 PCOD8263316
Probable space group: C M C A
;
_chemical_formula_sum "Si O2"
_cell_formula_units_Z 112
_cell_length_a 13.413573
_cell_length_b 13.778148
_cell_length_c 28.695451
_cell_angle_alpha 90.000000
_cell_angle_beta 90.000000
_cell_angle_gamma 90.000000
_cell_volume 5303.326648
_symmetry_space_group_name_H-M "C M C A"
_symmetry_group_IT_number 64
_symmetry_cell_setting 'orthorhombic'
loop_
_space_group_symop_operation_xyz
x,y,z
-x,1/2-y,1/2+z
x,-y,-z
-x,1/2+y,1/2-z
-x,-y,-z
x,1/2+y,1/2-z
-x,y,z
x,1/2-y,1/2+z
1/2+x,1/2+y,z
1/2-x,-y,1/2+z
1/2+x,1/2-y,-z
1/2-x,y,1/2-z
1/2-x,1/2-y,-z
1/2+x,y,1/2-z
1/2-x,1/2+y,z
1/2+x,-y,1/2+z
loop_
_atom_site_type_symbol
_atom_site_label
_atom_site_fract_x
_atom_site_fract_y
_atom_site_fract_z
Si Si1 0.289287 0.976663 0.449874
Si Si2 0.703092 0.246744 0.832774
Si Si3 0.387261 0.872291 0.809259
Si Si4 0.887187 0.922875 0.793286
Si Si5 0.718283 0.965746 0.149461
Si Si6 0.112922 0.777758 0.029699
Si Si7 0.194838 0.191218 0.065918
O O1 0.225146 0.939818 0.405739
O O2 0.369627 0.892227 0.459657
O O3 0.233607 0.000000 0.500000
O O4 0.336435 0.078046 0.432662
O O5 0.815596 0.282166 0.821055
O O6 0.624799 0.307108 0.802263
O O7 0.696761 0.132610 0.821957
O O8 0.667278 0.262361 0.885470
O O9 0.500000 0.832967 0.809946
O O10 0.360072 0.929075 0.761322
O O11 0.371647 0.957431 0.847260
O O12 0.000000 0.956668 0.802933
O O13 0.816120 0.984473 0.827308
O O14 0.185946 0.707409 0.058564
O O15 0.000000 0.750921 0.042841
O O16 0.133614 0.755901 0.975099
#
# Coordination Sequence:
#
# PCOD8263316 Si02
#       7
#    16  16  16  16  16  16  16
#     4  10  20  37  60  85 122 156 198 250 290 344
#     4  11  21  38  62  88 117 157 193 245 301 354
#     4  10  23  42  62  87 120 157 198 245 303 369
#     4  10  23  41  61  90 121 152 198 251 302 362
#     4  11  21  39  63  89 121 162 198 247 301 356
#     4  10  22  38  61  88 117 158 203 246 295 346
#     4  10  20  38  58  85 125 152 194 250 292 350
#
# _framework density 21.118819999999999
#
# number of rings (size 3 to 8) (size 9 to 14) (size 15 to 20)
#    0.000    1.714    4.286    1.714    0.000    7.714 
#    0.000    2.857    0.000   11.143    0.000    0.000 
#    0.000    0.000    0.000    0.000    0.000    0.000 
#
# Total GULP energy -693781.775430 kJ/mol
# GULP energy per Si atom -12388.960276 kJ/mol
# Density = 2.107075 g / cm^3
# Si number density = 21.118820 Si / 1000 Ang^3
#
#
#
# Elastic Constant Matrix: (Units=GPa)
#
#
# Indices 1 2 3 4 5 6 
#
# 1 42.2146 -1.2365 1.4612 0.0000 0.0000 0.0000
# 2 -1.2365 83.1990 -8.0154 0.0000 0.0000 0.0000
# 3 1.4612 -8.0154 74.9894 0.0000 0.0000 0.0000
# 4 0.0000 0.0000 0.0000 20.2060 0.0000 0.0000
# 5 0.0000 0.0000 0.0000 0.0000 13.2149 0.0000
# 6 0.0000 0.0000 0.0000 0.0000 0.0000 17.7397
#
#
#
# Elastic Compliance Matrix: (Units=1/GPa)
#
#
# Indices 1 2 3 4 5 6 
#
# 1 0.023712 0.000311 -0.000429 0.000000 0.000000 0.000000
# 2 0.000311 0.012149 0.001292 0.000000 0.000000 0.000000
# 3 -0.000429 0.001292 0.013482 0.000000 0.000000 0.000000
# 4 0.000000 0.000000 0.000000 0.049490 0.000000 0.000000
# 5 0.000000 0.000000 0.000000 0.000000 0.075672 0.000000
# 6 0.000000 0.000000 0.000000 0.000000 0.000000 0.056371
#
#
# Mechanical properties :
#
#
# Convention : Reuss Voigt Hill
#
# Bulk Modulus (GPa) = 19.34526 20.53572 19.94049
# Shear Modulus (GPa) = 20.34527 24.11169 22.22848
#
# Velocity S-wave (km/s) = 3.10719 3.38259 3.24781
# Velocity P-wave (km/s) = 4.69605 5.00009 4.85046
#
# Compressibility (1/GPa) = 0.05169225
#
# Stress axis : x y z
#
# Youngs Moduli (GPa) = 42.17191 82.31462 74.17455
#
# Poissons Ratio (x) = -0.02561 0.03181
# Poissons Ratio (y) = -0.01312 -0.09587
# Poissons Ratio (z) = 0.01808 -0.10639
#
# Static dielectric constant tensor:
#      x y z
#    x 3.436330 0.000000 0.000000 
#    y 0.000000 3.907640 0.000000 
#    z 0.000000 0.000000 4.136370 
# 
# 
# High freq. dielectric constant tensor:
#      x y z
#    x 1.784260 0.000000 0.000000 
#    y 0.000000 1.826800 0.000000 
#    z 0.000000 0.000000 1.846720 
# 
# From -- ./inp_files/53353.got.cif
#   From: 2010.03.12/outbox.cif.g09.slc.cpg/sg64_27_cif.got.tgz:53353.got - 2010.04.10 20:19:32.
