data_PCOD8263323
_publ_section_title
;
Structure prediction by ZEFSAII (Michael W. Deem and Ramdas Pophale) SiO2 
 PCOD8263323
Probable space group: C M C A
;
_chemical_formula_sum "Si O2"
_cell_formula_units_Z 96
_cell_length_a 8.757825
_cell_length_b 25.131242
_cell_length_c 23.249978
_cell_angle_alpha 90.000000
_cell_angle_beta 90.000000
_cell_angle_gamma 90.000000
_cell_volume 5117.204361
_symmetry_space_group_name_H-M "C M C A"
_symmetry_group_IT_number 64
_symmetry_cell_setting 'orthorhombic'
loop_
_space_group_symop_operation_xyz
x,y,z
-x,1/2-y,1/2+z
x,-y,-z
-x,1/2+y,1/2-z
-x,-y,-z
x,1/2+y,1/2-z
-x,y,z
x,1/2-y,1/2+z
1/2+x,1/2+y,z
1/2-x,-y,1/2+z
1/2+x,1/2-y,-z
1/2-x,y,1/2-z
1/2-x,1/2-y,-z
1/2+x,y,1/2-z
1/2-x,1/2+y,z
1/2+x,-y,1/2+z
loop_
_atom_site_type_symbol
_atom_site_label
_atom_site_fract_x
_atom_site_fract_y
_atom_site_fract_z
Si Si1 0.181333 0.567300 0.310807
Si Si2 0.175441 0.341872 0.881110
Si Si3 0.179021 0.153026 0.879159
Si Si4 0.680451 0.252164 0.311637
Si Si5 0.675019 0.192980 0.992264
Si Si6 0.322833 0.552584 0.808714
O O1 0.250000 0.586331 0.250000
O O2 0.252642 0.602813 0.360886
O O3 0.233985 0.506828 0.324232
O O4 0.000000 0.574392 0.309590
O O5 0.269990 0.292819 0.856231
O O6 0.188704 0.341063 0.949829
O O7 0.000000 0.337122 0.861132
O O8 0.261710 0.191360 0.834163
O O9 0.216543 0.092527 0.860617
O O10 0.000000 0.165763 0.877273
O O11 0.239139 0.159913 0.943407
O O12 0.500000 0.253122 0.306349
O O13 0.750000 0.238762 0.250000
O O14 0.500000 0.201507 0.973867
O O15 0.750000 0.250000 0.000000
O O16 0.500000 0.550763 0.796157
O O17 0.250000 0.573968 0.750000
#
# Coordination Sequence:
#
# PCOD8263323 Si02
#       6
#    16  16  16  16  16  16
#     4  10  20  37  60  86 116 151 191 234 287 344
#     4  11  23  39  58  83 114 149 192 238 286 342
#     4  11  22  38  59  85 117 150 192 238 285 344
#     4  12  24  37  56  83 116 150 187 233 290 345
#     4  11  23  39  60  83 113 153 196 238 289 343
#     4   9  20  37  59  86 116 152 190 234 286 342
#
# _framework density 18.760244
#
# number of rings (size 3 to 8) (size 9 to 14) (size 15 to 20)
#    0.000    1.333    1.667    4.500    0.000    5.333 
#    0.000    0.833    0.000    5.000    0.000    0.000 
#    0.000    0.000    0.000    0.000    0.000    0.000 
#
# Total GULP energy -595435.775860 kJ/mol
# GULP energy per Si atom -12404.911997 kJ/mol
# Density = 1.871754 g / cm^3
# Si number density = 18.760244 Si / 1000 Ang^3
#
#
#
# Elastic Constant Matrix: (Units=GPa)
#
#
# Indices 1 2 3 4 5 6 
#
# 1 123.2595 47.1337 44.8005 0.0000 0.0000 0.0000
# 2 47.1337 103.0776 43.2880 0.0000 0.0000 0.0000
# 3 44.8005 43.2880 88.9502 0.0000 0.0000 0.0000
# 4 0.0000 0.0000 0.0000 21.5848 0.0000 0.0000
# 5 0.0000 0.0000 0.0000 0.0000 34.2144 0.0000
# 6 0.0000 0.0000 0.0000 0.0000 0.0000 28.1072
#
#
#
# Elastic Compliance Matrix: (Units=1/GPa)
#
#
# Indices 1 2 3 4 5 6 
#
# 1 0.010768 -0.003326 -0.003805 0.000000 0.000000 0.000000
# 2 -0.003326 0.013221 -0.004759 0.000000 0.000000 0.000000
# 3 -0.003805 -0.004759 0.015474 0.000000 0.000000 0.000000
# 4 0.000000 0.000000 0.000000 0.046329 0.000000 0.000000
# 5 0.000000 0.000000 0.000000 0.000000 0.029227 0.000000
# 6 0.000000 0.000000 0.000000 0.000000 0.000000 0.035578
#
#
# Mechanical properties :
#
#
# Convention : Reuss Voigt Hill
#
# Bulk Modulus (GPa) = 63.75905 65.08132 64.42018
# Shear Modulus (GPa) = 27.83904 28.78561 28.31233
#
# Velocity S-wave (km/s) = 3.85637 3.92138 3.88901
# Velocity P-wave (km/s) = 7.34090 7.43434 7.38777
#
# Compressibility (1/GPa) = 0.01568405
#
# Stress axis : x y z
#
# Youngs Moduli (GPa) = 92.87114 75.63888 64.62294
#
# Poissons Ratio (x) = 0.25156 0.24587
# Poissons Ratio (y) = 0.30888 0.30753
# Poissons Ratio (z) = 0.35334 0.35995
#
# Static dielectric constant tensor:
#      x y z
#    x 3.635670 0.000000 0.000000 
#    y 0.000000 3.586790 0.000000 
#    z 0.000000 0.000000 3.561760 
# 
# 
# High freq. dielectric constant tensor:
#      x y z
#    x 1.746010 0.000000 0.000000 
#    y 0.000000 1.729170 0.000000 
#    z 0.000000 0.000000 1.727720 
# 
# From -- ./inp_files/37002.got.cif
#   From: 2010.03.12/outbox.cif.g09.slc.cpg/sg64_19_cif.got.tgz:37002.got - 2010.04.10 20:19:32.
