data_PCOD8263884
_publ_section_title
;
Structure prediction by ZEFSAII (Michael W. Deem and Ramdas Pophale) SiO2 
 PCOD8263884
Probable space group: C M C A
;
_chemical_formula_sum "Si O2"
_cell_formula_units_Z 96
_cell_length_a 8.646255
_cell_length_b 24.728448
_cell_length_c 23.475886
_cell_angle_alpha 90.000000
_cell_angle_beta 90.000000
_cell_angle_gamma 90.000000
_cell_volume 5019.343201
_symmetry_space_group_name_H-M "C M C A"
_symmetry_group_IT_number 64
_symmetry_cell_setting 'orthorhombic'
loop_
_space_group_symop_operation_xyz
x,y,z
-x,1/2-y,1/2+z
x,-y,-z
-x,1/2+y,1/2-z
-x,-y,-z
x,1/2+y,1/2-z
-x,y,z
x,1/2-y,1/2+z
1/2+x,1/2+y,z
1/2-x,-y,1/2+z
1/2+x,1/2-y,-z
1/2-x,y,1/2-z
1/2-x,1/2-y,-z
1/2+x,y,1/2-z
1/2-x,1/2+y,z
1/2+x,-y,1/2+z
loop_
_atom_site_type_symbol
_atom_site_label
_atom_site_fract_x
_atom_site_fract_y
_atom_site_fract_z
Si Si1 0.681819 0.309377 0.004742
Si Si2 0.179707 0.941534 0.189603
Si Si3 0.817795 0.252507 0.310826
Si Si4 0.682202 0.349544 0.378969
Si Si5 0.679634 0.932579 0.689585
Si Si6 0.681042 0.846948 0.891277
O O1 0.500000 0.303832 0.009533
O O2 0.742831 0.339119 0.060277
O O3 0.750000 0.250000 0.000000
O O4 0.727992 0.344984 0.950496
O O5 0.250000 0.924457 0.250000
O O6 0.268354 0.909383 0.140265
O O7 0.000000 0.926225 0.189387
O O8 0.207045 0.004497 0.177548
O O9 0.750000 0.236011 0.250000
O O10 0.741366 0.307666 0.331797
O O11 0.773028 0.205130 0.354274
O O12 0.000000 0.260744 0.306240
O O13 0.500000 0.344998 0.384647
O O14 0.500000 0.916965 0.689500
O O15 0.750000 0.915183 0.750000
O O16 0.768721 0.901268 0.640271
O O17 0.500000 0.848477 0.904001
#
# Coordination Sequence:
#
# PCOD8263884 Si02
#       6
#    16  16  16  16  16  16
#     4  12  24  41  63  87 119 158 201 245 295 355
#     4  10  21  39  62  89 122 159 200 247 301 357
#     4  11  23  37  56  84 120 155 193 242 297 355
#     4  12  24  39  61  87 118 156 200 247 297 354
#     4  10  21  38  62  90 122 160 200 247 300 355
#     4  11  23  39  61  88 120 157 200 246 296 354
#
# _framework density 19.126009
#
# number of rings (size 3 to 8) (size 9 to 14) (size 15 to 20)
#    0.000    1.000    1.667    6.000    0.000    5.333 
#    0.000    0.833    0.000    5.000    0.000    0.000 
#    0.000    0.000    0.000    0.000    0.000    0.000 
#
# Total GULP energy -595589.743197 kJ/mol
# GULP energy per Si atom -12408.119650 kJ/mol
# Density = 1.908248 g / cm^3
# Si number density = 19.126009 Si / 1000 Ang^3
#
#
#
# Elastic Constant Matrix: (Units=GPa)
#
#
# Indices 1 2 3 4 5 6 
#
# 1 134.7812 41.5526 57.6725 0.0000 0.0000 0.0000
# 2 41.5526 79.2935 48.4057 0.0000 0.0000 0.0000
# 3 57.6725 48.4057 129.2634 0.0000 0.0000 0.0000
# 4 0.0000 0.0000 0.0000 211.8323 0.0000 0.0000
# 5 0.0000 0.0000 0.0000 0.0000 39.1122 0.0000
# 6 0.0000 0.0000 0.0000 0.0000 0.0000 34.0828
#
#
#
# Elastic Compliance Matrix: (Units=1/GPa)
#
#
# Indices 1 2 3 4 5 6 
#
# 1 0.009752 -0.003182 -0.003160 0.000000 0.000000 0.000000
# 2 -0.003182 0.017387 -0.005091 0.000000 0.000000 0.000000
# 3 -0.003160 -0.005091 0.011052 0.000000 0.000000 0.000000
# 4 0.000000 0.000000 0.000000 0.004721 0.000000 0.000000
# 5 0.000000 0.000000 0.000000 0.000000 0.025567 0.000000
# 6 0.000000 0.000000 0.000000 0.000000 0.000000 0.029340
#
#
# Mechanical properties :
#
#
# Convention : Reuss Voigt Hill
#
# Bulk Modulus (GPa) = 65.24799 70.95552 68.10176
# Shear Modulus (GPa) = 39.74748 70.05263 54.90005
#
# Velocity S-wave (km/s) = 4.56366 6.05858 5.36346
# Velocity P-wave (km/s) = 7.87135 9.28016 8.60464
#
# Compressibility (1/GPa) = 0.01532614
#
# Stress axis : x y z
#
# Youngs Moduli (GPa) = 102.53926 57.51501 90.47778
#
# Poissons Ratio (x) = 0.18300 0.28588
# Poissons Ratio (y) = 0.32625 0.46065
# Poissons Ratio (z) = 0.32399 0.29283
#
# Static dielectric constant tensor:
#      x y z
#    x 2.711170 0.000000 0.000000 
#    y 0.000000 3.476960 0.000000 
#    z 0.000000 0.000000 3.629410 
# 
# 
# High freq. dielectric constant tensor:
#      x y z
#    x 1.765100 0.000000 0.000000 
#    y 0.000000 1.743470 0.000000 
#    z 0.000000 0.000000 1.749040 
# 
# From -- ./inp_files/37074.got.cif
#   From: 2010.03.12/outbox.cif.g09.slc.cpg/sg64_19_cif.got.tgz:37074.got - 2010.04.10 20:19:32.
