data_PCOD8263234
_publ_section_title
;
Structure prediction by ZEFSAII (Michael W. Deem and Ramdas Pophale) SiO2 
 PCOD8263234
Probable space group: C M C A
;
_chemical_formula_sum "Si O2"
_cell_formula_units_Z 80
_cell_length_a 10.060147
_cell_length_b 24.431408
_cell_length_c 15.727086
_cell_angle_alpha 90.000000
_cell_angle_beta 90.000000
_cell_angle_gamma 90.000000
_cell_volume 3865.459121
_symmetry_space_group_name_H-M "C M C A"
_symmetry_group_IT_number 64
_symmetry_cell_setting 'orthorhombic'
loop_
_space_group_symop_operation_xyz
x,y,z
-x,1/2-y,1/2+z
x,-y,-z
-x,1/2+y,1/2-z
-x,-y,-z
x,1/2+y,1/2-z
-x,y,z
x,1/2-y,1/2+z
1/2+x,1/2+y,z
1/2-x,-y,1/2+z
1/2+x,1/2-y,-z
1/2-x,y,1/2-z
1/2-x,1/2-y,-z
1/2+x,y,1/2-z
1/2-x,1/2+y,z
1/2+x,-y,1/2+z
loop_
_atom_site_type_symbol
_atom_site_label
_atom_site_fract_x
_atom_site_fract_y
_atom_site_fract_z
Si Si1 0.500000 0.735193 0.737070
Si Si2 0.500000 0.156164 0.996019
Si Si3 0.150134 0.479582 0.588257
Si Si4 0.500000 0.614199 0.697470
Si Si5 0.000000 0.277231 0.545026
Si Si6 0.220025 0.143070 0.078430
Si Si7 0.250000 0.201986 0.250000
Si Si8 0.250000 0.958004 0.250000
O O1 0.500000 0.670291 0.750537
O O2 0.500000 0.754883 0.640338
O O3 0.369681 0.759343 0.781948
O O4 0.500000 0.130984 0.901661
O O5 0.500000 0.221884 0.009456
O O6 0.367670 0.134874 0.042182
O O7 0.216486 0.500000 0.500000
O O8 0.148120 0.414602 0.583309
O O9 0.227813 0.502852 0.669297
O O10 0.000000 0.501776 0.595076
O O11 0.628042 0.580333 0.724927
O O12 0.131125 0.313776 0.523697
O O13 0.213408 0.162686 0.174199
#
# Coordination Sequence:
#
# PCOD8263234 Si02
#       8
#     8   8  16   8   8  16   8   8
#     4   9  19  36  57  88 127 160 206 259 311 397
#     4  11  23  39  62 101 127 160 210 271 322 375
#     4  11  24  44  67  95 129 173 221 267 325 388
#     4  11  24  42  65  95 129 166 212 262 324 380
#     4   9  20  37  60  86 128 168 207 252 324 400
#     4  11  21  40  63  90 128 166 210 269 317 382
#     4  10  20  36  60  90 122 166 208 252 326 384
#     4  12  24  46  70  96 128 174 218 272 318 384
#
# _framework density 20.696120000000001
#
# number of rings (size 3 to 8) (size 9 to 14) (size 15 to 20)
#    0.000    1.400    2.000    3.600    0.000    0.800 
#    3.600    8.000    0.000    0.000    0.000    0.000 
#    0.000    0.000    0.000    0.000    0.000    0.000 
#
# Total GULP energy -495916.903557 kJ/mol
# GULP energy per Si atom -12397.922589 kJ/mol
# Density = 2.064901 g / cm^3
# Si number density = 20.696120 Si / 1000 Ang^3
#
#
#
# Elastic Constant Matrix: (Units=GPa)
#
#
# Indices 1 2 3 4 5 6 
#
# 1 124.4668 32.3745 25.8874 0.0000 0.0000 0.0000
# 2 32.3745 128.5532 42.9434 0.0000 0.0000 0.0000
# 3 25.8874 42.9434 97.5447 0.0000 0.0000 0.0000
# 4 0.0000 0.0000 0.0000 27.7207 0.0000 0.0000
# 5 0.0000 0.0000 0.0000 0.0000 6.4648 0.0000
# 6 0.0000 0.0000 0.0000 0.0000 0.0000 161.0112
#
#
#
# Elastic Compliance Matrix: (Units=1/GPa)
#
#
# Indices 1 2 3 4 5 6 
#
# 1 0.008804 -0.001684 -0.001595 0.000000 0.000000 0.000000
# 2 -0.001684 0.009442 -0.003710 0.000000 0.000000 0.000000
# 3 -0.001595 -0.003710 0.012308 0.000000 0.000000 0.000000
# 4 0.000000 0.000000 0.000000 0.036074 0.000000 0.000000
# 5 0.000000 0.000000 0.000000 0.000000 0.154684 0.000000
# 6 0.000000 0.000000 0.000000 0.000000 0.000000 0.006211
#
#
# Mechanical properties :
#
#
# Convention : Reuss Voigt Hill
#
# Bulk Modulus (GPa) = 60.32757 61.44170 60.88463
# Shear Modulus (GPa) = 20.24068 55.66332 37.95200
#
# Velocity S-wave (km/s) = 3.13068 5.19172 4.28690
# Velocity P-wave (km/s) = 6.50236 8.10497 7.34749
#
# Compressibility (1/GPa) = 0.01657617
#
# Stress axis : x y z
#
# Youngs Moduli (GPa) = 113.58314 105.90550 81.24622
#
# Poissons Ratio (x) = 0.17839 0.12959
# Poissons Ratio (y) = 0.19132 0.30142
# Poissons Ratio (z) = 0.18116 0.39290
#
# Static dielectric constant tensor:
#      x y z
#    x 2.776830 0.000000 0.000000 
#    y 0.000000 3.891940 0.000000 
#    z 0.000000 0.000000 3.634700 
# 
# 
# High freq. dielectric constant tensor:
#      x y z
#    x 1.819480 0.000000 0.000000 
#    y 0.000000 1.823050 0.000000 
#    z 0.000000 0.000000 1.800450 
# 
# From -- ./inp_files/22423.got.cif
#   From: 2010.03.12/outbox.cif.g09.slc.cpg/sg64_12_cif.got.tgz:22423.got - 2010.04.10 20:19:32.
