data_PCOD8263920
_publ_section_title
;
Structure prediction by ZEFSAII (Michael W. Deem and Ramdas Pophale) SiO2 
 PCOD8263920
Probable space group: C M C A
;
_chemical_formula_sum "Si O2"
_cell_formula_units_Z 80
_cell_length_a 24.856779
_cell_length_b 11.388185
_cell_length_c 14.023606
_cell_angle_alpha 90.000000
_cell_angle_beta 90.000000
_cell_angle_gamma 90.000000
_cell_volume 3969.712604
_symmetry_space_group_name_H-M "C M C A"
_symmetry_group_IT_number 64
_symmetry_cell_setting 'orthorhombic'
loop_
_space_group_symop_operation_xyz
x,y,z
-x,1/2-y,1/2+z
x,-y,-z
-x,1/2+y,1/2-z
-x,-y,-z
x,1/2+y,1/2-z
-x,y,z
x,1/2-y,1/2+z
1/2+x,1/2+y,z
1/2-x,-y,1/2+z
1/2+x,1/2-y,-z
1/2-x,y,1/2-z
1/2-x,1/2-y,-z
1/2+x,y,1/2-z
1/2-x,1/2+y,z
1/2+x,-y,1/2+z
loop_
_atom_site_type_symbol
_atom_site_label
_atom_site_fract_x
_atom_site_fract_y
_atom_site_fract_z
Si Si1 0.060459 0.638891 0.998887
Si Si2 0.644780 0.246777 0.633285
Si Si3 0.642029 0.819484 0.157522
Si Si4 0.780816 0.467100 0.845817
Si Si5 0.793530 0.342483 0.532222
O O1 0.086073 0.679531 0.899109
O O2 0.000000 0.689181 0.004825
O O3 0.060344 0.500000 0.000000
O O4 0.093361 0.687737 0.089317
O O5 0.628542 0.181056 0.730365
O O6 0.690903 0.340585 0.659687
O O7 0.665839 0.147230 0.558254
O O8 0.674937 0.705039 0.125423
O O9 0.676506 0.933530 0.127248
O O10 0.750000 0.502444 0.750000
O O11 0.735683 0.461718 0.930600
O O12 0.750000 0.250000 0.500000
#
# Coordination Sequence:
#
# PCOD8263920 Si02
#       5
#    16  16  16  16  16
#     4  10  21  41  66  87 114 155 205 265 317 352
#     4  10  21  39  57  88 118 155 208 253 291 375
#     4  11  22  38  57  87 120 156 205 249 295 370
#     4  11  21  34  53  80 122 166 190 236 292 352
#     4   9  21  34  50  78 118 157 199 232 287 356
#
# _framework density 20.152591999999999
#
# number of rings (size 3 to 8) (size 9 to 14) (size 15 to 20)
#    0.000    1.800    4.000    0.000    5.600    0.800 
#    0.000    0.000    0.000    0.000    0.000    1.400 
#    0.000    0.000    0.000    0.000    0.000    0.000 
#
# Total GULP energy -495836.182649 kJ/mol
# GULP energy per Si atom -12395.904566 kJ/mol
# Density = 2.010672 g / cm^3
# Si number density = 20.152592 Si / 1000 Ang^3
#
#
#
# Elastic Constant Matrix: (Units=GPa)
#
#
# Indices 1 2 3 4 5 6 
#
# 1 123.5590 21.1976 56.0267 0.0000 0.0000 0.0000
# 2 21.1976 45.9380 27.1041 0.0000 0.0000 0.0000
# 3 56.0267 27.1041 159.2404 0.0000 0.0000 0.0000
# 4 0.0000 0.0000 0.0000 27.7921 0.0000 0.0000
# 5 0.0000 0.0000 0.0000 0.0000 22.9106 0.0000
# 6 0.0000 0.0000 0.0000 0.0000 0.0000 26.4131
#
#
#
# Elastic Compliance Matrix: (Units=1/GPa)
#
#
# Indices 1 2 3 4 5 6 
#
# 1 0.009945 -0.002806 -0.003021 0.000000 0.000000 0.000000
# 2 -0.002806 0.024991 -0.003266 0.000000 0.000000 0.000000
# 3 -0.003021 -0.003266 0.007899 0.000000 0.000000 0.000000
# 4 0.000000 0.000000 0.000000 0.035981 0.000000 0.000000
# 5 0.000000 0.000000 0.000000 0.000000 0.043648 0.000000
# 6 0.000000 0.000000 0.000000 0.000000 0.000000 0.037860
#
#
# Mechanical properties :
#
#
# Convention : Reuss Voigt Hill
#
# Bulk Modulus (GPa) = 40.57389 59.71045 50.14217
# Shear Modulus (GPa) = 26.77714 30.38375 28.58045
#
# Velocity S-wave (km/s) = 3.64911 3.88710 3.76999
# Velocity P-wave (km/s) = 6.15888 7.05972 6.62463
#
# Compressibility (1/GPa) = 0.02464639
#
# Stress axis : x y z
#
# Youngs Moduli (GPa) = 100.55596 40.01518 126.60227
#
# Poissons Ratio (x) = 0.11229 0.38250
# Poissons Ratio (y) = 0.28219 0.41351
# Poissons Ratio (z) = 0.30381 0.13070
#
# Static dielectric constant tensor:
#      x y z
#    x 3.541870 0.000000 0.000000 
#    y 0.000000 3.597200 0.000000 
#    z 0.000000 0.000000 4.012320 
# 
# 
# High freq. dielectric constant tensor:
#      x y z
#    x 1.764160 0.000000 0.000000 
#    y 0.000000 1.769860 0.000000 
#    z 0.000000 0.000000 1.808520 
# 
# From -- ./inp_files/27041.got.cif
#   From: 2010.03.12/outbox.cif.g09.slc.cpg/sg64_14_cif.got.tgz:27041.got - 2010.04.10 20:19:32.
