data_PCOD8263466
_publ_section_title
;
Structure prediction by ZEFSAII (Michael W. Deem and Ramdas Pophale) SiO2 
 PCOD8263466
Probable space group: C M C A
;
_chemical_formula_sum "Si O2"
_cell_formula_units_Z 64
_cell_length_a 22.219752
_cell_length_b 14.429061
_cell_length_c 8.853157
_cell_angle_alpha 90.000000
_cell_angle_beta 90.000000
_cell_angle_gamma 90.000000
_cell_volume 2838.412056
_symmetry_space_group_name_H-M "C M C A"
_symmetry_group_IT_number 64
_symmetry_cell_setting 'orthorhombic'
loop_
_space_group_symop_operation_xyz
x,y,z
-x,1/2-y,1/2+z
x,-y,-z
-x,1/2+y,1/2-z
-x,-y,-z
x,1/2+y,1/2-z
-x,y,z
x,1/2-y,1/2+z
1/2+x,1/2+y,z
1/2-x,-y,1/2+z
1/2+x,1/2-y,-z
1/2-x,y,1/2-z
1/2-x,1/2-y,-z
1/2+x,y,1/2-z
1/2-x,1/2+y,z
1/2+x,-y,1/2+z
loop_
_atom_site_type_symbol
_atom_site_label
_atom_site_fract_x
_atom_site_fract_y
_atom_site_fract_z
Si Si1 0.180994 0.275595 0.984961
Si Si2 0.500000 0.865027 0.823396
Si Si3 0.125603 0.551732 0.156621
Si Si4 0.371067 0.632712 0.776982
Si Si5 0.500000 0.828514 0.178267
O O1 0.169418 0.359587 0.865227
O O2 0.145376 0.182609 0.933946
O O3 0.250000 0.250000 0.000000
O O4 0.157356 0.302715 0.148138
O O5 0.560163 0.920288 0.782393
O O6 0.500000 0.778868 0.713259
O O7 0.500000 0.837164 0.998503
O O8 0.154062 0.473800 0.270370
O O9 0.115108 0.500000 0.000000
O O10 0.442273 0.623358 0.752738
#
# Coordination Sequence:
#
# PCOD8263466 Si02
#       5
#    16   8  16  16   8
#     4  11  23  42  64  92 131 174 221 271 320 388
#     4  12  20  37  68  98 137 167 216 271 335 404
#     4  10  20  38  66  95 121 174 217 261 329 399
#     4  11  22  41  68  96 128 169 218 271 334 394
#     4  12  19  36  69 101 129 169 212 274 340 394
#
# _framework density 22.547817999999999
#
# number of rings (size 3 to 8) (size 9 to 14) (size 15 to 20)
#    0.000    1.000    7.500    1.875    0.000    0.000 
#    0.000   16.250    0.000    3.000    0.000    0.000 
#    0.000    0.000    0.000    0.000    0.000    0.000 
#
# Total GULP energy -396688.603616 kJ/mol
# GULP energy per Si atom -12396.518863 kJ/mol
# Density = 2.249650 g / cm^3
# Si number density = 22.547818 Si / 1000 Ang^3
#
#
#
# Elastic Constant Matrix: (Units=GPa)
#
#
# Indices 1 2 3 4 5 6 
#
# 1 146.3651 40.7008 19.4926 0.0000 0.0000 0.0000
# 2 40.7008 151.3799 16.5670 0.0000 0.0000 0.0000
# 3 19.4926 16.5670 24.3270 0.0000 0.0000 0.0000
# 4 0.0000 0.0000 0.0000 37.9540 0.0000 0.0000
# 5 0.0000 0.0000 0.0000 0.0000 -19.8807 0.0000
# 6 0.0000 0.0000 0.0000 0.0000 0.0000 21.3200
#
#
#
# Elastic Compliance Matrix: (Units=1/GPa)
#
#
# Indices 1 2 3 4 5 6 
#
# 1 0.007976 -0.001561 -0.005328 0.000000 0.000000 0.000000
# 2 -0.001561 0.007444 -0.003818 0.000000 0.000000 0.000000
# 3 -0.005328 -0.003818 0.047976 0.000000 0.000000 0.000000
# 4 0.000000 0.000000 0.000000 0.026348 0.000000 0.000000
# 5 0.000000 0.000000 0.000000 0.000000 -0.050300 0.000000
# 6 0.000000 0.000000 0.000000 0.000000 0.000000 0.046904
#
#
# Mechanical properties :
#
#
# Convention : Reuss Voigt Hill
#
# Bulk Modulus (GPa) = 23.82028 52.84365 38.33197
# Shear Modulus (GPa) = 41.06621 24.23278 32.64949
#
# Velocity S-wave (km/s) = 4.27229 3.28186 3.80940
# Velocity P-wave (km/s) = 5.90965 6.15207 6.03208
#
# Compressibility (1/GPa) = 0.04198103
#
# Stress axis : x y z
#
# Youngs Moduli (GPa) = 125.37712 134.34445 20.84393
#
# Poissons Ratio (x) = 0.20977 0.11105
# Poissons Ratio (y) = 0.19576 0.07958
# Poissons Ratio (z) = 0.66796 0.51294
#
# Static dielectric constant tensor:
#      x y z
#    x 4.211970 0.000000 0.000000 
#    y 0.000000 4.842620 0.000000 
#    z 0.000000 0.000000 3.986130 
# 
# 
# High freq. dielectric constant tensor:
#      x y z
#    x 1.880110 0.000000 0.000000 
#    y 0.000000 1.912790 0.000000 
#    z 0.000000 0.000000 1.859770 
# 
# From -- ./inp_files/7810.got.cif
#   From: 2010.03.12/outbox.cif.g09.slc.cpg/sg64_4_cif.got.tgz:7810.got - 2010.04.10 20:19:32.
