data_PCOD8263219
_publ_section_title
;
Structure prediction by ZEFSAII (Michael W. Deem and Ramdas Pophale) SiO2 
 PCOD8263219
Probable space group: C M C A
;
_chemical_formula_sum "Si O2"
_cell_formula_units_Z 80
_cell_length_a 16.692139
_cell_length_b 17.947169
_cell_length_c 13.293308
_cell_angle_alpha 90.000000
_cell_angle_beta 90.000000
_cell_angle_gamma 90.000000
_cell_volume 3982.364540
_symmetry_space_group_name_H-M "C M C A"
_symmetry_group_IT_number 64
_symmetry_cell_setting 'orthorhombic'
loop_
_space_group_symop_operation_xyz
x,y,z
-x,1/2-y,1/2+z
x,-y,-z
-x,1/2+y,1/2-z
-x,-y,-z
x,1/2+y,1/2-z
-x,y,z
x,1/2-y,1/2+z
1/2+x,1/2+y,z
1/2-x,-y,1/2+z
1/2+x,1/2-y,-z
1/2-x,y,1/2-z
1/2-x,1/2-y,-z
1/2+x,y,1/2-z
1/2-x,1/2+y,z
1/2+x,-y,1/2+z
loop_
_atom_site_type_symbol
_atom_site_label
_atom_site_fract_x
_atom_site_fract_y
_atom_site_fract_z
Si Si1 0.591408 0.027629 0.712424
Si Si2 0.407504 0.180487 0.184512
Si Si3 0.332670 0.956662 0.896530
Si Si4 0.341960 0.111768 0.377547
Si Si5 0.594245 0.832596 0.418002
O O1 0.500000 0.034666 0.749119
O O2 0.620051 0.102455 0.658044
O O3 0.649121 0.015373 0.807751
O O4 0.598043 0.958391 0.634786
O O5 0.500000 0.187717 0.216285
O O6 0.397106 0.110582 0.108524
O O7 0.353815 0.167866 0.283893
O O8 0.377496 0.254910 0.129677
O O9 0.246820 0.920433 0.879110
O O10 0.339507 0.000000 0.000000
O O11 0.359114 0.157119 0.478224
O O12 0.500000 0.833821 0.440030
#
# Coordination Sequence:
#
# PCOD8263219 Si02
#       5
#    16  16  16  16  16
#     4  10  20  36  60  86 113 150 194 238 282 334
#     4  10  22  39  59  86 119 152 189 238 290 339
#     4  11  23  38  57  83 116 155 195 235 285 340
#     4  11  21  38  59  83 117 152 190 237 288 340
#     4  10  21  37  61  90 115 148 194 238 285 342
#
# _framework density 20.088567000000001
#
# number of rings (size 3 to 8) (size 9 to 14) (size 15 to 20)
#    0.000    1.600    0.000    7.800    0.000    5.600 
#    0.000   10.000    0.000    0.000    0.000    0.000 
#    0.000    0.000    0.000    0.000    0.000    0.000 
#
# Total GULP energy -496072.257151 kJ/mol
# GULP energy per Si atom -12401.806429 kJ/mol
# Density = 2.004284 g / cm^3
# Si number density = 20.088567 Si / 1000 Ang^3
#
#
#
# Elastic Constant Matrix: (Units=GPa)
#
#
# Indices 1 2 3 4 5 6 
#
# 1 59.9894 33.3557 56.6529 0.0000 0.0000 0.0000
# 2 33.3557 128.4124 108.0826 0.0000 0.0000 0.0000
# 3 56.6529 108.0826 167.9814 0.0000 0.0000 0.0000
# 4 0.0000 0.0000 0.0000 39.3537 0.0000 0.0000
# 5 0.0000 0.0000 0.0000 0.0000 32.5415 0.0000
# 6 0.0000 0.0000 0.0000 0.0000 0.0000 23.5864
#
#
#
# Elastic Compliance Matrix: (Units=1/GPa)
#
#
# Indices 1 2 3 4 5 6 
#
# 1 0.024558 0.001291 -0.009113 0.000000 0.000000 0.000000
# 2 0.001291 0.017055 -0.011409 0.000000 0.000000 0.000000
# 3 -0.009113 -0.011409 0.016367 0.000000 0.000000 0.000000
# 4 0.000000 0.000000 0.000000 0.025411 0.000000 0.000000
# 5 0.000000 0.000000 0.000000 0.000000 0.030730 0.000000
# 6 0.000000 0.000000 0.000000 0.000000 0.000000 0.042397
#
#
# Mechanical properties :
#
#
# Convention : Reuss Voigt Hill
#
# Bulk Modulus (GPa) = 51.23358 83.61842 67.42600
# Shear Modulus (GPa) = 24.81577 29.64913 27.23245
#
# Velocity S-wave (km/s) = 3.51852 3.84594 3.68587
# Velocity P-wave (km/s) = 6.48582 7.83817 7.19384
#
# Compressibility (1/GPa) = 0.01951845
#
# Stress axis : x y z
#
# Youngs Moduli (GPa) = 40.72005 58.63539 61.09779
#
# Poissons Ratio (x) = -0.07573 0.55680
# Poissons Ratio (y) = -0.05259 0.69705
# Poissons Ratio (z) = 0.37109 0.66896
#
# Static dielectric constant tensor:
#      x y z
#    x 3.622190 0.000000 0.000000 
#    y 0.000000 3.846260 0.000000 
#    z 0.000000 0.000000 3.603920 
# 
# 
# High freq. dielectric constant tensor:
#      x y z
#    x 1.785360 0.000000 0.000000 
#    y 0.000000 1.785740 0.000000 
#    z 0.000000 0.000000 1.782860 
# 
# From -- ./inp_files/25287.got.cif
#   From: 2010.03.12/outbox.cif.g09.slc.cpg/sg64_13_cif.got.tgz:25287.got - 2010.04.10 20:19:32.
