data_PCOD8263665
_publ_section_title
;
Structure prediction by ZEFSAII (Michael W. Deem and Ramdas Pophale) SiO2 
 PCOD8263665
Probable space group: C M C A
;
_chemical_formula_sum "Si O2"
_cell_formula_units_Z 64
_cell_length_a 9.227895
_cell_length_b 10.010776
_cell_length_c 35.173959
_cell_angle_alpha 90.000000
_cell_angle_beta 90.000000
_cell_angle_gamma 90.000000
_cell_volume 3249.313695
_symmetry_space_group_name_H-M "C M C A"
_symmetry_group_IT_number 64
_symmetry_cell_setting 'orthorhombic'
loop_
_space_group_symop_operation_xyz
x,y,z
-x,1/2-y,1/2+z
x,-y,-z
-x,1/2+y,1/2-z
-x,-y,-z
x,1/2+y,1/2-z
-x,y,z
x,1/2-y,1/2+z
1/2+x,1/2+y,z
1/2-x,-y,1/2+z
1/2+x,1/2-y,-z
1/2-x,y,1/2-z
1/2-x,1/2-y,-z
1/2+x,y,1/2-z
1/2-x,1/2+y,z
1/2+x,-y,1/2+z
loop_
_atom_site_type_symbol
_atom_site_label
_atom_site_fract_x
_atom_site_fract_y
_atom_site_fract_z
Si Si1 0.166372 0.763220 0.669670
Si Si2 0.668424 0.209451 0.083370
Si Si3 0.669847 0.020949 0.542599
Si Si4 0.832160 0.965292 0.288292
O O1 0.212986 0.749212 0.625882
O O2 0.268390 0.670189 0.694658
O O3 0.000000 0.718910 0.675758
O O4 0.189640 0.916104 0.681737
O O5 0.500000 0.173167 0.081483
O O6 0.708897 0.329404 0.055064
O O7 0.755580 0.079489 0.071503
O O8 0.500000 0.992963 0.544715
O O9 0.729621 0.000000 0.500000
O O10 0.750000 0.005211 0.250000
O O11 0.000000 0.940580 0.278842
#
# Coordination Sequence:
#
# PCOD8263665 Si02
#       4
#    16  16  16  16
#     4  10  22  39  58  83 113 145 185 230 276 329
#     4  10  21  37  57  82 112 146 186 231 277 329
#     4  10  21  36  55  82 114 148 188 232 279 332
#     4  11  23  38  58  83 110 143 182 223 272 328
#
# _framework density 19.696467999999999
#
# number of rings (size 3 to 8) (size 9 to 14) (size 15 to 20)
#    0.000    1.750    0.000    3.750    0.000    6.500 
#    0.000    0.000    0.000    0.000    0.000    0.000 
#    0.000    0.000    0.000    0.000    0.000    0.000 
#
# Total GULP energy -397021.522819 kJ/mol
# GULP energy per Si atom -12406.922588 kJ/mol
# Density = 1.965164 g / cm^3
# Si number density = 19.696468 Si / 1000 Ang^3
#
#
#
# Elastic Constant Matrix: (Units=GPa)
#
#
# Indices 1 2 3 4 5 6 
#
# 1 74.5652 38.2574 34.6050 0.0000 0.0000 0.0000
# 2 38.2574 67.5029 15.0526 0.0000 0.0000 0.0000
# 3 34.6050 15.0526 91.1829 0.0000 0.0000 0.0000
# 4 0.0000 0.0000 0.0000 36.4376 0.0000 0.0000
# 5 0.0000 0.0000 0.0000 0.0000 31.9215 0.0000
# 6 0.0000 0.0000 0.0000 0.0000 0.0000 33.3394
#
#
#
# Elastic Compliance Matrix: (Units=1/GPa)
#
#
# Indices 1 2 3 4 5 6 
#
# 1 0.022152 -0.011088 -0.006577 0.000000 0.000000 0.000000
# 2 -0.011088 0.020931 0.000753 0.000000 0.000000 0.000000
# 3 -0.006577 0.000753 0.013339 0.000000 0.000000 0.000000
# 4 0.000000 0.000000 0.000000 0.027444 0.000000 0.000000
# 5 0.000000 0.000000 0.000000 0.000000 0.031327 0.000000
# 6 0.000000 0.000000 0.000000 0.000000 0.000000 0.029995
#
#
# Mechanical properties :
#
#
# Convention : Reuss Voigt Hill
#
# Bulk Modulus (GPa) = 44.25276 45.45343 44.85310
# Shear Modulus (GPa) = 26.80338 30.02878 28.41608
#
# Velocity S-wave (km/s) = 3.69293 3.90882 3.80241
# Velocity P-wave (km/s) = 6.37964 6.59537 6.48840
#
# Compressibility (1/GPa) = 0.02259746
#
# Stress axis : x y z
#
# Youngs Moduli (GPa) = 45.14196 47.77691 74.97052
#
# Poissons Ratio (x) = 0.52977 0.49305
# Poissons Ratio (y) = 0.50055 -0.05645
# Poissons Ratio (z) = 0.29688 -0.03597
#
# Static dielectric constant tensor:
#      x y z
#    x 3.558760 0.000000 0.000000 
#    y 0.000000 3.460340 0.000000 
#    z 0.000000 0.000000 3.813070 
# 
# 
# High freq. dielectric constant tensor:
#      x y z
#    x 1.763990 0.000000 0.000000 
#    y 0.000000 1.774180 0.000000 
#    z 0.000000 0.000000 1.783750 
# 
# From -- ./inp_files/52457.got.cif
#   From: 2010.03.12/outbox.cif.g09.slc.cpg/sg64_27_cif.got.tgz:52457.got - 2010.04.10 20:19:32.
