data_PCOD8263608
_publ_section_title
;
Structure prediction by ZEFSAII (Michael W. Deem and Ramdas Pophale) SiO2 
 PCOD8263608
Probable space group: C M C A
;
_chemical_formula_sum "Si O2"
_cell_formula_units_Z 80
_cell_length_a 13.865570
_cell_length_b 25.972010
_cell_length_c 11.470711
_cell_angle_alpha 90.000000
_cell_angle_beta 90.000000
_cell_angle_gamma 90.000000
_cell_volume 4130.794852
_symmetry_space_group_name_H-M "C M C A"
_symmetry_group_IT_number 64
_symmetry_cell_setting 'orthorhombic'
loop_
_space_group_symop_operation_xyz
x,y,z
-x,1/2-y,1/2+z
x,-y,-z
-x,1/2+y,1/2-z
-x,-y,-z
x,1/2+y,1/2-z
-x,y,z
x,1/2-y,1/2+z
1/2+x,1/2+y,z
1/2-x,-y,1/2+z
1/2+x,1/2-y,-z
1/2-x,y,1/2-z
1/2-x,1/2-y,-z
1/2+x,y,1/2-z
1/2-x,1/2+y,z
1/2+x,-y,1/2+z
loop_
_atom_site_type_symbol
_atom_site_label
_atom_site_fract_x
_atom_site_fract_y
_atom_site_fract_z
Si Si1 0.714573 0.156823 0.931417
Si Si2 0.610555 0.306998 0.205508
Si Si3 0.889004 0.086033 0.234516
Si Si4 0.609521 0.807810 0.847939
Si Si5 0.733677 0.554933 0.441846
O O1 0.642147 0.166809 0.825271
O O2 0.824063 0.172412 0.900420
O O3 0.681264 0.189702 0.042735
O O4 0.708915 0.096164 0.958235
O O5 0.500000 0.321132 0.177239
O O6 0.625405 0.245671 0.219185
O O7 0.868798 0.146609 0.256484
O O8 0.834808 0.070126 0.117275
O O9 0.850585 0.053749 0.345167
O O10 0.000000 0.072816 0.216806
O O11 0.500000 0.812890 0.894900
O O12 0.743167 0.500000 0.500000
#
# Coordination Sequence:
#
# PCOD8263608 Si02
#       5
#    16  16  16  16  16
#     4  10  21  36  54  76 109 147 180 218 269 321
#     4  10  21  34  53  84 115 141 175 220 269 324
#     4   9  20  38  59  81 105 140 185 222 259 320
#     4   9  18  35  57  80 109 145 179 212 259 325
#     4  10  22  39  57  79 108 141 181 229 273 312
#
# _framework density 19.366733
#
# number of rings (size 3 to 8) (size 9 to 14) (size 15 to 20)
#    0.000    2.400    0.000    1.200    0.000   13.600 
#    0.000    6.000    0.000    0.000    0.000    0.000 
#    0.000    0.000    0.000    0.000    0.000    0.000 
#
# Total GULP energy -496106.762995 kJ/mol
# GULP energy per Si atom -12402.669075 kJ/mol
# Density = 1.932265 g / cm^3
# Si number density = 19.366733 Si / 1000 Ang^3
#
#
#
# Elastic Constant Matrix: (Units=GPa)
#
#
# Indices 1 2 3 4 5 6 
#
# 1 122.4017 49.8584 49.2047 0.0000 0.0000 0.0000
# 2 49.8584 125.5644 75.9761 0.0000 0.0000 0.0000
# 3 49.2047 75.9761 99.0031 0.0000 0.0000 0.0000
# 4 0.0000 0.0000 0.0000 28.3147 0.0000 0.0000
# 5 0.0000 0.0000 0.0000 0.0000 27.9261 0.0000
# 6 0.0000 0.0000 0.0000 0.0000 0.0000 22.6730
#
#
#
# Elastic Compliance Matrix: (Units=1/GPa)
#
#
# Indices 1 2 3 4 5 6 
#
# 1 0.010442 -0.001878 -0.003748 0.000000 0.000000 0.000000
# 2 -0.001878 0.015206 -0.010736 0.000000 0.000000 0.000000
# 3 -0.003748 -0.010736 0.020202 0.000000 0.000000 0.000000
# 4 0.000000 0.000000 0.000000 0.035317 0.000000 0.000000
# 5 0.000000 0.000000 0.000000 0.000000 0.035809 0.000000
# 6 0.000000 0.000000 0.000000 0.000000 0.000000 0.044105
#
#
# Mechanical properties :
#
#
# Convention : Reuss Voigt Hill
#
# Bulk Modulus (GPa) = 76.18685 77.44974 76.81829
# Shear Modulus (GPa) = 25.22962 27.24475 26.23719
#
# Velocity S-wave (km/s) = 3.61325 3.75478 3.68469
# Velocity P-wave (km/s) = 7.53869 7.67305 7.60617
#
# Compressibility (1/GPa) = 0.01312562
#
# Stress axis : x y z
#
# Youngs Moduli (GPa) = 95.77078 65.76516 49.49981
#
# Poissons Ratio (x) = 0.12352 0.18553
# Poissons Ratio (y) = 0.17987 0.53141
# Poissons Ratio (z) = 0.35896 0.70602
#
# Static dielectric constant tensor:
#      x y z
#    x 3.712040 0.000000 0.000000 
#    y 0.000000 3.435850 0.000000 
#    z 0.000000 0.000000 3.378400 
# 
# 
# High freq. dielectric constant tensor:
#      x y z
#    x 1.767020 0.000000 0.000000 
#    y 0.000000 1.744070 0.000000 
#    z 0.000000 0.000000 1.746430 
# 
# From -- ./inp_files/14414.got.cif
#   From: 2010.03.12/outbox.cif.g09.slc.cpg/sg64_8_cif.got.tgz:14414.got - 2010.04.10 20:19:32.
