data_PCOD8263260
_publ_section_title
;
Structure prediction by ZEFSAII (Michael W. Deem and Ramdas Pophale) SiO2 
 PCOD8263260
Probable space group: C M C A
;
_chemical_formula_sum "Si O2"
_cell_formula_units_Z 64
_cell_length_a 14.153590
_cell_length_b 10.666233
_cell_length_c 21.042768
_cell_angle_alpha 90.000000
_cell_angle_beta 90.000000
_cell_angle_gamma 90.000000
_cell_volume 3176.731755
_symmetry_space_group_name_H-M "C M C A"
_symmetry_group_IT_number 64
_symmetry_cell_setting 'orthorhombic'
loop_
_space_group_symop_operation_xyz
x,y,z
-x,1/2-y,1/2+z
x,-y,-z
-x,1/2+y,1/2-z
-x,-y,-z
x,1/2+y,1/2-z
-x,y,z
x,1/2-y,1/2+z
1/2+x,1/2+y,z
1/2-x,-y,1/2+z
1/2+x,1/2-y,-z
1/2-x,y,1/2-z
1/2-x,1/2-y,-z
1/2+x,y,1/2-z
1/2-x,1/2+y,z
1/2+x,-y,1/2+z
loop_
_atom_site_type_symbol
_atom_site_label
_atom_site_fract_x
_atom_site_fract_y
_atom_site_fract_z
Si Si1 0.700669 0.245664 0.155653
Si Si2 0.393583 0.212268 0.786000
Si Si3 0.249958 0.620213 0.962022
Si Si4 0.895185 0.501773 0.881914
O O1 0.630982 0.289151 0.211599
O O2 0.808782 0.215695 0.177845
O O3 0.693328 0.357255 0.103820
O O4 0.669730 0.119087 0.122016
O O5 0.500000 0.270356 0.795838
O O6 0.393406 0.071230 0.813583
O O7 0.142957 0.587319 0.939944
O O8 0.293191 0.500000 0.000000
O O9 0.250000 0.750000 0.000000
O O10 0.000000 0.460370 0.899981
#
# Coordination Sequence:
#
# PCOD8263260 Si02
#       4
#    16  16  16  16
#     4  10  20  36  63  92 124 161 207 260 320 367
#     4   9  20  37  59  91 123 158 205 255 313 382
#     4  11  22  41  62  90 121 167 219 264 311 373
#     4  10  21  39  64  91 124 170 213 254 320 391
#
# _framework density 20.146491000000001
#
# number of rings (size 3 to 8) (size 9 to 14) (size 15 to 20)
#    0.000    2.000    2.500    0.750    0.000    8.500 
#    0.000    0.000    0.000   12.750    0.000    0.000 
#    0.000    0.000    0.000    0.000    0.000    0.000 
#
# Total GULP energy -396439.862783 kJ/mol
# GULP energy per Si atom -12388.745712 kJ/mol
# Density = 2.010064 g / cm^3
# Si number density = 20.146491 Si / 1000 Ang^3
#
#
#
# Elastic Constant Matrix: (Units=GPa)
#
#
# Indices 1 2 3 4 5 6 
#
# 1 153.4888 57.9173 46.4296 0.0000 0.0000 0.0000
# 2 57.9173 117.6021 58.3324 0.0000 0.0000 0.0000
# 3 46.4296 58.3324 115.1022 0.0000 0.0000 0.0000
# 4 0.0000 0.0000 0.0000 36.6058 0.0000 0.0000
# 5 0.0000 0.0000 0.0000 0.0000 19.4401 0.0000
# 6 0.0000 0.0000 0.0000 0.0000 0.0000 29.1348
#
#
#
# Elastic Compliance Matrix: (Units=1/GPa)
#
#
# Indices 1 2 3 4 5 6 
#
# 1 0.008242 -0.003219 -0.001693 0.000000 0.000000 0.000000
# 2 -0.003219 0.012616 -0.005095 0.000000 0.000000 0.000000
# 3 -0.001693 -0.005095 0.011953 0.000000 0.000000 0.000000
# 4 0.000000 0.000000 0.000000 0.027318 0.000000 0.000000
# 5 0.000000 0.000000 0.000000 0.000000 0.051440 0.000000
# 6 0.000000 0.000000 0.000000 0.000000 0.000000 0.034323
#
#
# Mechanical properties :
#
#
# Convention : Reuss Voigt Hill
#
# Bulk Modulus (GPa) = 78.14896 79.06131 78.60513
# Shear Modulus (GPa) = 29.38194 31.93706 30.65950
#
# Velocity S-wave (km/s) = 3.82306 3.98583 3.90529
# Velocity P-wave (km/s) = 7.63952 7.77887 7.70951
#
# Compressibility (1/GPa) = 0.01279608
#
# Stress axis : x y z
#
# Youngs Moduli (GPa) = 121.32881 79.26518 83.66097
#
# Poissons Ratio (x) = 0.25517 0.14165
# Poissons Ratio (y) = 0.39059 0.42625
# Poissons Ratio (z) = 0.20543 0.40386
#
# Static dielectric constant tensor:
#      x y z
#    x 3.739900 0.000000 0.000000 
#    y 0.000000 3.525670 0.000000 
#    z 0.000000 0.000000 3.994580 
# 
# 
# High freq. dielectric constant tensor:
#      x y z
#    x 1.774230 0.000000 0.000000 
#    y 0.000000 1.768630 0.000000 
#    z 0.000000 0.000000 1.802910 
# 
# From -- ./inp_files/31637.got.cif
#   From: 2010.03.12/outbox.cif.g09.slc.cpg/sg64_16_cif.got.tgz:31637.got - 2010.04.10 20:19:32.
