data_PCOD8263613
_publ_section_title
;
Structure prediction by ZEFSAII (Michael W. Deem and Ramdas Pophale) SiO2 
 PCOD8263613
Probable space group: C M C A
;
_chemical_formula_sum "Si O2"
_cell_formula_units_Z 104
_cell_length_a 27.965098
_cell_length_b 8.298441
_cell_length_c 22.715050
_cell_angle_alpha 90.000000
_cell_angle_beta 90.000000
_cell_angle_gamma 90.000000
_cell_volume 5271.407053
_symmetry_space_group_name_H-M "C M C A"
_symmetry_group_IT_number 64
_symmetry_cell_setting 'orthorhombic'
loop_
_space_group_symop_operation_xyz
x,y,z
-x,1/2-y,1/2+z
x,-y,-z
-x,1/2+y,1/2-z
-x,-y,-z
x,1/2+y,1/2-z
-x,y,z
x,1/2-y,1/2+z
1/2+x,1/2+y,z
1/2-x,-y,1/2+z
1/2+x,1/2-y,-z
1/2-x,y,1/2-z
1/2-x,1/2-y,-z
1/2+x,y,1/2-z
1/2-x,1/2+y,z
1/2+x,-y,1/2+z
loop_
_atom_site_type_symbol
_atom_site_label
_atom_site_fract_x
_atom_site_fract_y
_atom_site_fract_z
Si Si1 0.603514 0.207242 0.719476
Si Si2 0.750000 0.728054 0.250000
Si Si3 0.722922 0.905800 0.559361
Si Si4 0.808191 0.022942 0.819136
Si Si5 0.000000 0.747116 0.727383
Si Si6 0.319057 0.443394 0.439336
Si Si7 0.000000 0.429387 0.164570
Si Si8 0.104063 0.950766 0.338390
O O1 0.637303 0.073942 0.690798
O O2 0.548500 0.166877 0.701152
O O3 0.616247 0.385106 0.696316
O O4 0.608471 0.194198 0.790912
O O5 0.771585 0.832986 0.196796
O O6 0.793694 0.626890 0.277445
O O7 0.710407 0.719898 0.550058
O O8 0.709573 0.000000 0.500000
O O9 0.692924 0.980402 0.612599
O O10 0.779194 0.921836 0.576247
O O11 0.000000 0.936862 0.716170
O O12 0.000000 0.736197 0.798690
O O13 0.344779 0.500000 0.500000
O O14 0.357709 0.422460 0.388918
O O15 0.949262 0.449623 0.130326
#
# Coordination Sequence:
#
# PCOD8263613 Si02
#       8
#    16   8  16  16   8  16   8  16
#     4  10  21  34  59  85 120 149 187 233 290 342
#     4  10  24  36  52  84 126 150 182 228 296 344
#     4  11  25  42  61  81 114 155 205 240 280 335
#     4  11  23  37  56  84 117 154 187 234 284 346
#     4   8  16  34  52  82 112 152 185 225 278 347
#     4  11  25  42  61  83 114 154 200 241 285 340
#     4   8  16  36  57  84 116 149 187 236 278 346
#     4  10  22  37  61  89 119 152 193 233 294 342
#
# _framework density 19.729077
#
# number of rings (size 3 to 8) (size 9 to 14) (size 15 to 20)
#    0.000    1.846    0.000    3.692   15.077    0.000 
#    0.000    0.385    0.000    0.000    0.000    1.077 
#    0.000    0.000    0.000    0.000    0.000    0.000 
#
# Total GULP energy -644389.967301 kJ/mol
# GULP energy per Si atom -12392.114756 kJ/mol
# Density = 1.968417 g / cm^3
# Si number density = 19.729077 Si / 1000 Ang^3
#
#
#
# Elastic Constant Matrix: (Units=GPa)
#
#
# Indices 1 2 3 4 5 6 
#
# 1 104.8647 30.4584 38.9632 0.0000 0.0000 0.0000
# 2 30.4584 77.6375 20.0254 0.0000 0.0000 0.0000
# 3 38.9632 20.0254 86.3433 0.0000 0.0000 0.0000
# 4 0.0000 0.0000 0.0000 26.7643 0.0000 0.0000
# 5 0.0000 0.0000 0.0000 0.0000 23.3261 0.0000
# 6 0.0000 0.0000 0.0000 0.0000 0.0000 17.7429
#
#
#
# Elastic Compliance Matrix: (Units=1/GPa)
#
#
# Indices 1 2 3 4 5 6 
#
# 1 0.012346 -0.003623 -0.004731 0.000000 0.000000 0.000000
# 2 -0.003623 0.014763 -0.001789 0.000000 0.000000 0.000000
# 3 -0.004731 -0.001789 0.014132 0.000000 0.000000 0.000000
# 4 0.000000 0.000000 0.000000 0.037363 0.000000 0.000000
# 5 0.000000 0.000000 0.000000 0.000000 0.042871 0.000000
# 6 0.000000 0.000000 0.000000 0.000000 0.000000 0.056361
#
#
# Mechanical properties :
#
#
# Convention : Reuss Voigt Hill
#
# Bulk Modulus (GPa) = 47.72254 49.74883 48.73568
# Shear Modulus (GPa) = 24.37752 25.52656 24.95204
#
# Velocity S-wave (km/s) = 3.51894 3.60092 3.56017
# Velocity P-wave (km/s) = 6.38373 6.52377 6.45413
#
# Compressibility (1/GPa) = 0.02095446
#
# Stress axis : x y z
#
# Youngs Moduli (GPa) = 80.99541 67.73555 70.76380
#
# Poissons Ratio (x) = 0.24543 0.33479
# Poissons Ratio (y) = 0.29348 0.12659
# Poissons Ratio (z) = 0.38319 0.12117
#
# Static dielectric constant tensor:
#      x y z
#    x 3.816430 0.000000 0.000000 
#    y 0.000000 3.743640 0.000000 
#    z 0.000000 0.000000 3.386110 
# 
# 
# High freq. dielectric constant tensor:
#      x y z
#    x 1.774930 0.000000 0.000000 
#    y 0.000000 1.778860 0.000000 
#    z 0.000000 0.000000 1.735320 
# 
# From -- ./inp_files/47150.got.cif
#   From: 2010.03.12/outbox.cif.g09.slc.cpg/sg64_24_cif.got.tgz:47150.got - 2010.04.10 20:19:32.
