data_PCOD8263347
_publ_section_title
;
Structure prediction by ZEFSAII (Michael W. Deem and Ramdas Pophale) SiO2 
 PCOD8263347
Probable space group: C M C A
;
_chemical_formula_sum "Si O2"
_cell_formula_units_Z 112
_cell_length_a 23.888171
_cell_length_b 13.917569
_cell_length_c 15.117915
_cell_angle_alpha 90.000000
_cell_angle_beta 90.000000
_cell_angle_gamma 90.000000
_cell_volume 5026.181665
_symmetry_space_group_name_H-M "C M C A"
_symmetry_group_IT_number 64
_symmetry_cell_setting 'orthorhombic'
loop_
_space_group_symop_operation_xyz
x,y,z
-x,1/2-y,1/2+z
x,-y,-z
-x,1/2+y,1/2-z
-x,-y,-z
x,1/2+y,1/2-z
-x,y,z
x,1/2-y,1/2+z
1/2+x,1/2+y,z
1/2-x,-y,1/2+z
1/2+x,1/2-y,-z
1/2-x,y,1/2-z
1/2-x,1/2-y,-z
1/2+x,y,1/2-z
1/2-x,1/2+y,z
1/2+x,-y,1/2+z
loop_
_atom_site_type_symbol
_atom_site_label
_atom_site_fract_x
_atom_site_fract_y
_atom_site_fract_z
Si Si1 0.562007 0.035111 0.170469
Si Si2 0.765914 0.248437 0.354106
Si Si3 0.562184 0.272347 0.767991
Si Si4 0.644019 0.750341 0.074833
Si Si5 0.660971 0.090636 0.552167
Si Si6 0.338000 0.412336 0.552265
Si Si7 0.061634 0.907162 0.169732
O O1 0.500000 0.044877 0.126268
O O2 0.572104 0.119020 0.241245
O O3 0.611343 0.033835 0.100540
O O4 0.565699 0.939014 0.228069
O O5 0.750000 0.251579 0.250000
O O6 0.710075 0.243886 0.409848
O O7 0.796926 0.346694 0.386010
O O8 0.799782 0.150539 0.379785
O O9 0.500000 0.257876 0.808637
O O10 0.609182 0.242793 0.836868
O O11 0.569699 0.208364 0.678782
O O12 0.628701 0.656565 0.018601
O O13 0.631897 0.844362 0.018184
O O14 0.611046 0.046915 0.612044
O O15 0.689566 0.000000 0.500000
O O16 0.305528 0.500000 0.500000
O O17 0.000000 0.932990 0.130205
#
# Coordination Sequence:
#
# PCOD8263347 Si02
#       7
#    16  16  16  16  16  16  16
#     4  10  21  38  60  88 123 161 203 250 302 367
#     4  11  25  45  65  86 122 167 210 256 308 370
#     4  10  20  37  62  90 121 160 203 242 296 370
#     4  11  23  40  61  88 126 157 197 262 313 358
#     4  11  23  39  62  91 122 158 206 258 312 369
#     4  11  23  39  62  91 122 158 206 258 312 369
#     4  10  21  38  60  88 123 161 203 250 302 367
#
# _framework density 22.283317
#
# number of rings (size 3 to 8) (size 9 to 14) (size 15 to 20)
#    0.000    1.429    0.000    6.857    0.000    4.000 
#    0.000    1.429    0.000    0.000    0.000    0.000 
#    0.000    0.000    0.000    0.000    0.000    0.000 
#
# Total GULP energy -694041.998174 kJ/mol
# GULP energy per Si atom -12393.607110 kJ/mol
# Density = 2.223260 g / cm^3
# Si number density = 22.283317 Si / 1000 Ang^3
#
#
#
# Elastic Constant Matrix: (Units=GPa)
#
#
# Indices 1 2 3 4 5 6 
#
# 1 123.5491 21.6216 43.6514 0.0000 0.0000 0.0000
# 2 21.6216 110.4045 35.3621 0.0000 0.0000 0.0000
# 3 43.6514 35.3621 87.1401 0.0000 0.0000 0.0000
# 4 0.0000 0.0000 0.0000 30.2857 0.0000 0.0000
# 5 0.0000 0.0000 0.0000 0.0000 28.0534 0.0000
# 6 0.0000 0.0000 0.0000 0.0000 0.0000 24.5328
#
#
#
# Elastic Compliance Matrix: (Units=1/GPa)
#
#
# Indices 1 2 3 4 5 6 
#
# 1 0.009850 -0.000401 -0.004772 0.000000 0.000000 0.000000
# 2 -0.000401 0.010427 -0.004031 0.000000 0.000000 0.000000
# 3 -0.004772 -0.004031 0.015502 0.000000 0.000000 0.000000
# 4 0.000000 0.000000 0.000000 0.033019 0.000000 0.000000
# 5 0.000000 0.000000 0.000000 0.000000 0.035646 0.000000
# 6 0.000000 0.000000 0.000000 0.000000 0.000000 0.040762
#
#
# Mechanical properties :
#
#
# Convention : Reuss Voigt Hill
#
# Bulk Modulus (GPa) = 57.56108 58.04044 57.80076
# Shear Modulus (GPa) = 29.51553 31.27162 30.39357
#
# Velocity S-wave (km/s) = 3.64339 3.75021 3.69719
# Velocity P-wave (km/s) = 6.60202 6.69741 6.64988
#
# Compressibility (1/GPa) = 0.01737285
#
# Stress axis : x y z
#
# Youngs Moduli (GPa) = 101.52367 95.90414 64.50922
#
# Poissons Ratio (x) = 0.03843 0.30781
# Poissons Ratio (y) = 0.04068 0.26001
# Poissons Ratio (z) = 0.48442 0.38656
#
# Static dielectric constant tensor:
#      x y z
#    x 4.033980 0.000000 0.000000 
#    y 0.000000 4.152360 0.000000 
#    z 0.000000 0.000000 3.868960 
# 
# 
# High freq. dielectric constant tensor:
#      x y z
#    x 1.878880 0.000000 0.000000 
#    y 0.000000 1.892340 0.000000 
#    z 0.000000 0.000000 1.864900 
# 
# From -- ./inp_files/28090.got.cif
#   From: 2010.03.12/outbox.cif.g09.slc.cpg/sg64_15_cif.got.tgz:28090.got - 2010.04.10 20:19:32.
