data_PCOD8263266
_publ_section_title
;
Structure prediction by ZEFSAII (Michael W. Deem and Ramdas Pophale) SiO2 
 PCOD8263266
Probable space group: C M C A
;
_chemical_formula_sum "Si O2"
_cell_formula_units_Z 88
_cell_length_a 14.334246
_cell_length_b 28.013500
_cell_length_c 10.695389
_cell_angle_alpha 90.000000
_cell_angle_beta 90.000000
_cell_angle_gamma 90.000000
_cell_volume 4294.759125
_symmetry_space_group_name_H-M "C M C A"
_symmetry_group_IT_number 64
_symmetry_cell_setting 'orthorhombic'
loop_
_space_group_symop_operation_xyz
x,y,z
-x,1/2-y,1/2+z
x,-y,-z
-x,1/2+y,1/2-z
-x,-y,-z
x,1/2+y,1/2-z
-x,y,z
x,1/2-y,1/2+z
1/2+x,1/2+y,z
1/2-x,-y,1/2+z
1/2+x,1/2-y,-z
1/2-x,y,1/2-z
1/2-x,1/2-y,-z
1/2+x,y,1/2-z
1/2-x,1/2+y,z
1/2+x,-y,1/2+z
loop_
_atom_site_type_symbol
_atom_site_label
_atom_site_fract_x
_atom_site_fract_y
_atom_site_fract_z
Si Si1 0.000000 0.896831 0.559097
Si Si2 0.000000 0.205903 0.558925
Si Si3 0.000000 0.112630 0.141647
Si Si4 0.161004 0.448589 0.533157
Si Si5 0.000000 0.807888 0.044741
Si Si6 0.144483 0.325148 0.246092
Si Si7 0.336864 0.575740 0.614115
Si Si8 0.250000 0.502537 0.250000
O O1 0.000000 0.897054 0.710170
O O2 0.090427 0.924229 0.501965
O O3 0.000000 0.841288 0.525278
O O4 0.000000 0.251050 0.468760
O O5 0.908743 0.207867 0.646267
O O6 0.088466 0.090021 0.075884
O O7 0.000000 0.167702 0.093901
O O8 0.113517 0.500000 0.500000
O O9 0.227605 0.424928 0.427699
O O10 0.231308 0.460587 0.642027
O O11 0.093240 0.822859 0.120157
O O12 0.250000 0.305715 0.250000
O O13 0.140965 0.379416 0.200290
O O14 0.340785 0.529136 0.704604
#
# Coordination Sequence:
#
# PCOD8263266 Si02
#       8
#     8   8   8  16   8  16  16   8
#     4  10  23  39  64  88 128 166 204 248 321 390
#     4   9  23  42  61  94 128 154 199 273 317 366
#     4  12  24  38  60  87 123 172 206 248 324 378
#     4  10  22  38  56  89 127 158 206 260 304 363
#     4  11  25  39  67  91 125 162 213 265 318 382
#     4  10  20  40  68  92 121 160 212 255 310 390
#     4  10  20  40  63  92 122 164 207 253 312 364
#     4  10  20  36  66  86 128 160 202 268 302 354
#
# _framework density 20.490089000000001
#
# number of rings (size 3 to 8) (size 9 to 14) (size 15 to 20)
#    0.000    1.818    0.909    3.000    5.091    1.455 
#    0.000    5.000    2.000    0.000    0.000    0.000 
#    0.000    0.000    0.000    0.000    0.000    0.000 
#
# Total GULP energy -545117.582665 kJ/mol
# GULP energy per Si atom -12389.035970 kJ/mol
# Density = 2.044345 g / cm^3
# Si number density = 20.490089 Si / 1000 Ang^3
#
#
#
# Elastic Constant Matrix: (Units=GPa)
#
#
# Indices 1 2 3 4 5 6 
#
# 1 120.5625 21.8058 21.2508 0.0000 0.0000 0.0000
# 2 21.8058 66.7483 -0.5703 0.0000 0.0000 0.0000
# 3 21.2508 -0.5703 66.1109 0.0000 0.0000 0.0000
# 4 0.0000 0.0000 0.0000 31.2834 0.0000 0.0000
# 5 0.0000 0.0000 0.0000 0.0000 40.0822 0.0000
# 6 0.0000 0.0000 0.0000 0.0000 0.0000 15.7752
#
#
#
# Elastic Compliance Matrix: (Units=1/GPa)
#
#
# Indices 1 2 3 4 5 6 
#
# 1 0.009391 -0.003094 -0.003045 0.000000 0.000000 0.000000
# 2 -0.003094 0.016002 0.001133 0.000000 0.000000 0.000000
# 3 -0.003045 0.001133 0.016115 0.000000 0.000000 0.000000
# 4 0.000000 0.000000 0.000000 0.031966 0.000000 0.000000
# 5 0.000000 0.000000 0.000000 0.000000 0.024949 0.000000
# 6 0.000000 0.000000 0.000000 0.000000 0.000000 0.063391
#
#
# Mechanical properties :
#
#
# Convention : Reuss Voigt Hill
#
# Bulk Modulus (GPa) = 31.75172 37.59938 34.67555
# Shear Modulus (GPa) = 27.42369 31.49053 29.45711
#
# Velocity S-wave (km/s) = 3.66237 3.92454 3.79572
# Velocity P-wave (km/s) = 5.78046 6.23906 6.01413
#
# Compressibility (1/GPa) = 0.03149436
#
# Stress axis : x y z
#
# Youngs Moduli (GPa) = 106.48718 62.49198 62.05498
#
# Poissons Ratio (x) = 0.19334 0.18897
# Poissons Ratio (y) = 0.32946 -0.07028
# Poissons Ratio (z) = 0.32428 -0.07077
#
# Static dielectric constant tensor:
#      x y z
#    x 3.674830 0.000000 0.000000 
#    y 0.000000 3.526770 0.000000 
#    z 0.000000 0.000000 3.958040 
# 
# 
# High freq. dielectric constant tensor:
#      x y z
#    x 1.792350 0.000000 0.000000 
#    y 0.000000 1.787130 0.000000 
#    z 0.000000 0.000000 1.817600 
# 
# From -- ./inp_files/14822.got.cif
#   From: 2010.03.12/outbox.cif.g09.slc.cpg/sg64_8_cif.got.tgz:14822.got - 2010.04.10 20:19:32.
