data_PCOD8263829
_publ_section_title
;
Structure prediction by ZEFSAII (Michael W. Deem and Ramdas Pophale) SiO2 
 PCOD8263829
Probable space group: C M C A
;
_chemical_formula_sum "Si O2"
_cell_formula_units_Z 112
_cell_length_a 17.157999
_cell_length_b 12.301718
_cell_length_c 25.070391
_cell_angle_alpha 90.000000
_cell_angle_beta 90.000000
_cell_angle_gamma 90.000000
_cell_volume 5291.679259
_symmetry_space_group_name_H-M "C M C A"
_symmetry_group_IT_number 64
_symmetry_cell_setting 'orthorhombic'
loop_
_space_group_symop_operation_xyz
x,y,z
-x,1/2-y,1/2+z
x,-y,-z
-x,1/2+y,1/2-z
-x,-y,-z
x,1/2+y,1/2-z
-x,y,z
x,1/2-y,1/2+z
1/2+x,1/2+y,z
1/2-x,-y,1/2+z
1/2+x,1/2-y,-z
1/2-x,y,1/2-z
1/2-x,1/2-y,-z
1/2+x,y,1/2-z
1/2-x,1/2+y,z
1/2+x,-y,1/2+z
loop_
_atom_site_type_symbol
_atom_site_label
_atom_site_fract_x
_atom_site_fract_y
_atom_site_fract_z
Si Si1 0.849976 0.368230 0.599216
Si Si2 0.090195 0.102814 0.898760
Si Si3 0.590816 0.274502 0.307930
Si Si4 0.841417 0.728796 0.508649
Si Si5 0.407811 0.229840 0.190056
Si Si6 0.688865 0.059416 0.052861
Si Si7 0.089531 0.498591 0.856639
O O1 0.900003 0.475360 0.612316
O O2 0.856735 0.290580 0.650051
O O3 0.882760 0.303409 0.547155
O O4 0.760581 0.398331 0.588249
O O5 0.141996 0.131513 0.950249
O O6 0.121383 0.173494 0.848681
O O7 0.000000 0.129780 0.910296
O O8 0.500000 0.241722 0.314876
O O9 0.624734 0.248330 0.249530
O O10 0.602306 0.403196 0.315888
O O11 0.750000 0.750000 0.500000
O O12 0.870008 0.842433 0.534707
O O13 0.500000 0.233376 0.193608
O O14 0.378641 0.112793 0.169554
O O15 0.638116 0.978485 0.089281
O O16 0.721092 0.000000 0.000000
O O17 0.000000 0.486763 0.872897
#
# Coordination Sequence:
#
# PCOD8263829 Si02
#       7
#    16  16  16  16  16  16  16
#     4  11  23  38  60  93 128 162 207 248 317 379
#     4  11  22  38  63  92 122 160 208 261 309 374
#     4  10  22  39  64  92 123 161 204 261 312 369
#     4  10  21  38  59  84 123 166 202 245 308 374
#     4   9  20  39  64  91 118 160 208 255 318 371
#     4  11  22  40  65  88 127 172 207 252 316 376
#     4  10  21  41  66  91 120 159 214 262 306 375
#
# _framework density 21.165303999999999
#
# number of rings (size 3 to 8) (size 9 to 14) (size 15 to 20)
#    0.000    1.714    1.429    3.429    2.000    3.143 
#    0.000    0.714    0.000    0.000    0.000    0.000 
#    0.000    0.000    0.000    0.000    0.000    0.000 
#
# Total GULP energy -694346.027054 kJ/mol
# GULP energy per Si atom -12399.036197 kJ/mol
# Density = 2.111713 g / cm^3
# Si number density = 21.165304 Si / 1000 Ang^3
#
#
#
# Elastic Constant Matrix: (Units=GPa)
#
#
# Indices 1 2 3 4 5 6 
#
# 1 57.3874 30.7990 47.3413 0.0000 0.0000 0.0000
# 2 30.7990 112.3840 53.6242 0.0000 0.0000 0.0000
# 3 47.3413 53.6242 170.7876 0.0000 0.0000 0.0000
# 4 0.0000 0.0000 0.0000 38.8423 0.0000 0.0000
# 5 0.0000 0.0000 0.0000 0.0000 26.3931 0.0000
# 6 0.0000 0.0000 0.0000 0.0000 0.0000 29.6300
#
#
#
# Elastic Compliance Matrix: (Units=1/GPa)
#
#
# Indices 1 2 3 4 5 6 
#
# 1 0.024034 -0.004008 -0.005404 0.000000 0.000000 0.000000
# 2 -0.004008 0.011135 -0.002385 0.000000 0.000000 0.000000
# 3 -0.005404 -0.002385 0.008102 0.000000 0.000000 0.000000
# 4 0.000000 0.000000 0.000000 0.025745 0.000000 0.000000
# 5 0.000000 0.000000 0.000000 0.000000 0.037889 0.000000
# 6 0.000000 0.000000 0.000000 0.000000 0.000000 0.033750
#
#
# Mechanical properties :
#
#
# Convention : Reuss Voigt Hill
#
# Bulk Modulus (GPa) = 50.82081 67.12088 58.97084
# Shear Modulus (GPa) = 29.27280 32.89270 31.08275
#
# Velocity S-wave (km/s) = 3.72298 3.94647 3.83635
# Velocity P-wave (km/s) = 6.52260 7.24898 6.89536
#
# Compressibility (1/GPa) = 0.01967698
#
# Stress axis : x y z
#
# Youngs Moduli (GPa) = 41.60722 89.81079 123.42750
#
# Poissons Ratio (x) = 0.35999 0.66696
# Poissons Ratio (y) = 0.16677 0.29437
# Poissons Ratio (z) = 0.22483 0.21420
#
# Static dielectric constant tensor:
#      x y z
#    x 3.395810 0.000000 0.000000 
#    y 0.000000 4.166970 0.000000 
#    z 0.000000 0.000000 4.065930 
# 
# 
# High freq. dielectric constant tensor:
#      x y z
#    x 1.796210 0.000000 0.000000 
#    y 0.000000 1.844220 0.000000 
#    z 0.000000 0.000000 1.835340 
# 
# From -- ./inp_files/46324.got.cif
#   From: 2010.03.12/outbox.cif.g09.slc.cpg/sg64_24_cif.got.tgz:46324.got - 2010.04.10 20:19:32.
