data_PCOD8263709
_publ_section_title
;
Structure prediction by ZEFSAII (Michael W. Deem and Ramdas Pophale) SiO2 
 PCOD8263709
Probable space group: C M C A
;
_chemical_formula_sum "Si O2"
_cell_formula_units_Z 88
_cell_length_a 24.253928
_cell_length_b 14.286685
_cell_length_c 11.965997
_cell_angle_alpha 90.000000
_cell_angle_beta 90.000000
_cell_angle_gamma 90.000000
_cell_volume 4146.316433
_symmetry_space_group_name_H-M "C M C A"
_symmetry_group_IT_number 64
_symmetry_cell_setting 'orthorhombic'
loop_
_space_group_symop_operation_xyz
x,y,z
-x,1/2-y,1/2+z
x,-y,-z
-x,1/2+y,1/2-z
-x,-y,-z
x,1/2+y,1/2-z
-x,y,z
x,1/2-y,1/2+z
1/2+x,1/2+y,z
1/2-x,-y,1/2+z
1/2+x,1/2-y,-z
1/2-x,y,1/2-z
1/2-x,1/2-y,-z
1/2+x,y,1/2-z
1/2-x,1/2+y,z
1/2+x,-y,1/2+z
loop_
_atom_site_type_symbol
_atom_site_label
_atom_site_fract_x
_atom_site_fract_y
_atom_site_fract_z
Si Si1 0.000000 0.686996 0.782108
Si Si2 0.291282 0.228857 0.152665
Si Si3 0.603842 0.402513 0.935662
Si Si4 0.000000 0.396060 0.447834
Si Si5 0.279154 0.611760 0.997943
Si Si6 0.413724 0.831652 0.793205
Si Si7 0.000000 0.106531 0.472195
O O1 0.000000 0.604582 0.687037
O O2 0.945025 0.745379 0.762314
O O3 0.000000 0.655504 0.908733
O O4 0.250000 0.201537 0.250000
O O5 0.284574 0.340063 0.124569
O O6 0.353807 0.204736 0.177591
O O7 0.273939 0.160185 0.051961
O O8 0.588787 0.411912 0.803956
O O9 0.610200 0.500000 0.000000
O O10 0.555103 0.345423 0.002104
O O11 0.663937 0.354892 0.941457
O O12 0.000000 0.500000 0.500000
O O13 0.270692 0.500000 0.000000
O O14 0.445300 0.869145 0.901895
O O15 0.000000 0.000000 0.500000
#
# Coordination Sequence:
#
# PCOD8263709 Si02
#       7
#     8  16  16   8  16  16   8
#     4  11  26  41  69  95 131 179 226 277 350 415
#     4  11  23  43  68  98 137 176 228 290 350 401
#     4  10  21  39  67  95 130 173 231 274 336 417
#     4  10  21  36  67  96 126 172 232 274 331 423
#     4  10  23  42  66  98 134 179 230 285 344 420
#     4  11  25  44  69  98 136 179 227 284 343 421
#     4  11  29  47  65 102 145 176 219 289 356 409
#
# _framework density 21.223658
#
# number of rings (size 3 to 8) (size 9 to 14) (size 15 to 20)
#    0.000    1.455    1.818    2.182   12.727    1.455 
#    0.000    0.000    0.000    0.000    0.000    0.000 
#    0.000    0.000    0.000    0.000    0.000    0.000 
#
# Total GULP energy -545088.625705 kJ/mol
# GULP energy per Si atom -12388.377857 kJ/mol
# Density = 2.117535 g / cm^3
# Si number density = 21.223658 Si / 1000 Ang^3
#
#
#
# Elastic Constant Matrix: (Units=GPa)
#
#
# Indices 1 2 3 4 5 6 
#
# 1 174.0833 42.8466 59.6613 0.0000 0.0000 0.0000
# 2 42.8466 117.7497 59.9647 0.0000 0.0000 0.0000
# 3 59.6613 59.9647 172.4884 0.0000 0.0000 0.0000
# 4 0.0000 0.0000 0.0000 35.4486 0.0000 0.0000
# 5 0.0000 0.0000 0.0000 0.0000 9.5290 0.0000
# 6 0.0000 0.0000 0.0000 0.0000 0.0000 13.3000
#
#
#
# Elastic Compliance Matrix: (Units=1/GPa)
#
#
# Indices 1 2 3 4 5 6 
#
# 1 0.006738 -0.001537 -0.001796 0.000000 0.000000 0.000000
# 2 -0.001537 0.010670 -0.003178 0.000000 0.000000 0.000000
# 3 -0.001796 -0.003178 0.007524 0.000000 0.000000 0.000000
# 4 0.000000 0.000000 0.000000 0.028210 0.000000 0.000000
# 5 0.000000 0.000000 0.000000 0.000000 0.104943 0.000000
# 6 0.000000 0.000000 0.000000 0.000000 0.000000 0.075188
#
#
# Mechanical properties :
#
#
# Convention : Reuss Voigt Hill
#
# Bulk Modulus (GPa) = 83.96561 87.69629 85.83095
# Shear Modulus (GPa) = 19.97879 31.77876 25.87877
#
# Velocity S-wave (km/s) = 3.07146 3.87373 3.49569
# Velocity P-wave (km/s) = 7.22680 7.83693 7.53804
#
# Compressibility (1/GPa) = 0.01190964
#
# Stress axis : x y z
#
# Youngs Moduli (GPa) = 148.40449 93.71874 132.91606
#
# Poissons Ratio (x) = 0.14406 0.23876
# Poissons Ratio (y) = 0.22812 0.42238
# Poissons Ratio (z) = 0.26658 0.29782
#
# Static dielectric constant tensor:
#      x y z
#    x 4.846530 0.000000 0.000000 
#    y 0.000000 3.589300 0.000000 
#    z 0.000000 0.000000 4.016860 
# 
# 
# High freq. dielectric constant tensor:
#      x y z
#    x 1.856960 0.000000 0.000000 
#    y 0.000000 1.809990 0.000000 
#    z 0.000000 0.000000 1.839030 
# 
# From -- ./inp_files/18268.got.cif
#   From: 2010.03.12/outbox.cif.g09.slc.cpg/sg64_10_cif.got.tgz:18268.got - 2010.04.10 20:19:32.
