data_PCOD8263243
_publ_section_title
;
Structure prediction by ZEFSAII (Michael W. Deem and Ramdas Pophale) SiO2 
 PCOD8263243
Probable space group: C M C A
;
_chemical_formula_sum "Si O2"
_cell_formula_units_Z 104
_cell_length_a 17.192179
_cell_length_b 16.485002
_cell_length_c 18.557000
_cell_angle_alpha 90.000000
_cell_angle_beta 90.000000
_cell_angle_gamma 90.000000
_cell_volume 5259.296993
_symmetry_space_group_name_H-M "C M C A"
_symmetry_group_IT_number 64
_symmetry_cell_setting 'orthorhombic'
loop_
_space_group_symop_operation_xyz
x,y,z
-x,1/2-y,1/2+z
x,-y,-z
-x,1/2+y,1/2-z
-x,-y,-z
x,1/2+y,1/2-z
-x,y,z
x,1/2-y,1/2+z
1/2+x,1/2+y,z
1/2-x,-y,1/2+z
1/2+x,1/2-y,-z
1/2-x,y,1/2-z
1/2-x,1/2-y,-z
1/2+x,y,1/2-z
1/2-x,1/2+y,z
1/2+x,-y,1/2+z
loop_
_atom_site_type_symbol
_atom_site_label
_atom_site_fract_x
_atom_site_fract_y
_atom_site_fract_z
Si Si1 0.413382 0.820776 0.193382
Si Si2 0.714288 0.500000 0.500000
Si Si3 0.820854 0.968874 0.346732
Si Si4 0.087206 0.654077 0.646412
Si Si5 0.587333 0.653969 0.113444
Si Si6 0.352258 0.995080 0.692355
Si Si7 0.196068 0.328250 0.483513
O O1 0.500000 0.859255 0.188056
O O2 0.352525 0.877083 0.150689
O O3 0.390067 0.807750 0.276512
O O4 0.411553 0.734607 0.158185
O O5 0.663875 0.490168 0.574144
O O6 0.762326 0.583639 0.511429
O O7 0.730144 0.967038 0.329347
O O8 0.863340 0.013877 0.279417
O O9 0.085550 0.556440 0.657650
O O10 0.154940 0.684470 0.593364
O O11 0.000000 0.680208 0.621296
O O12 0.500000 0.620745 0.103071
O O13 0.639917 0.592075 0.157723
O O14 0.623733 0.670325 0.036657
O O15 0.250000 0.250000 0.500000
#
# Coordination Sequence:
#
# PCOD8263243 Si02
#       7
#    16   8  16  16  16  16  16
#     4   9  21  40  63  84 115 161 206 251 301 366
#     4  12  22  40  56  88 128 156 200 252 298 368
#     4  10  20  38  58  85 122 154 206 240 302 364
#     4  10  20  39  62  87 117 157 204 253 308 364
#     4  11  22  39  60  91 124 154 197 255 316 366
#     4  10  20  36  61  91 116 158 198 254 302 368
#     4  12  24  38  59  93 124 165 200 251 308 369
#
# _framework density 19.774505999999999
#
# number of rings (size 3 to 8) (size 9 to 14) (size 15 to 20)
#    0.000    1.538    3.077    1.846    0.000    1.846 
#    0.000    2.692    0.000    1.846    0.000    0.000 
#    0.000    0.000    0.000    0.000    0.000    0.000 
#
# Total GULP energy -644398.143431 kJ/mol
# GULP energy per Si atom -12392.271989 kJ/mol
# Density = 1.972950 g / cm^3
# Si number density = 19.774506 Si / 1000 Ang^3
#
#
#
# Elastic Constant Matrix: (Units=GPa)
#
#
# Indices 1 2 3 4 5 6 
#
# 1 90.5675 42.9158 41.4612 0.0000 0.0000 0.0000
# 2 42.9158 70.6068 30.2562 0.0000 0.0000 0.0000
# 3 41.4612 30.2562 146.1224 0.0000 0.0000 0.0000
# 4 0.0000 0.0000 0.0000 22.9905 0.0000 0.0000
# 5 0.0000 0.0000 0.0000 0.0000 52.1809 0.0000
# 6 0.0000 0.0000 0.0000 0.0000 0.0000 25.5837
#
#
#
# Elastic Compliance Matrix: (Units=1/GPa)
#
#
# Indices 1 2 3 4 5 6 
#
# 1 0.016533 -0.008821 -0.002865 0.000000 0.000000 0.000000
# 2 -0.008821 0.020249 -0.001690 0.000000 0.000000 0.000000
# 3 -0.002865 -0.001690 0.008006 0.000000 0.000000 0.000000
# 4 0.000000 0.000000 0.000000 0.043496 0.000000 0.000000
# 5 0.000000 0.000000 0.000000 0.000000 0.019164 0.000000
# 6 0.000000 0.000000 0.000000 0.000000 0.000000 0.039087
#
#
# Mechanical properties :
#
#
# Convention : Reuss Voigt Hill
#
# Bulk Modulus (GPa) = 55.44278 59.61812 57.53045
# Shear Modulus (GPa) = 27.88634 32.99526 30.44080
#
# Velocity S-wave (km/s) = 3.75936 4.08925 3.92777
# Velocity P-wave (km/s) = 6.85143 7.24641 7.05168
#
# Compressibility (1/GPa) = 0.01803661
#
# Stress axis : x y z
#
# Youngs Moduli (GPa) = 60.48535 49.38565 124.90254
#
# Poissons Ratio (x) = 0.43565 0.35779
# Poissons Ratio (y) = 0.53357 0.21105
# Poissons Ratio (z) = 0.17326 0.08345
#
# Static dielectric constant tensor:
#      x y z
#    x 3.722460 0.000000 0.000000 
#    y 0.000000 3.455990 0.000000 
#    z 0.000000 0.000000 3.651240 
# 
# 
# High freq. dielectric constant tensor:
#      x y z
#    x 1.764390 0.000000 0.000000 
#    y 0.000000 1.754330 0.000000 
#    z 0.000000 0.000000 1.790450 
# 
# From -- ./inp_files/40244.got.cif
#   From: 2010.03.12/outbox.cif.g09.slc.cpg/sg64_21_cif.got.tgz:40244.got - 2010.04.10 20:19:32.
