data_PCOD8263091
_publ_section_title
;
Structure prediction by ZEFSAII (Michael W. Deem and Ramdas Pophale) SiO2 
 PCOD8263091
Probable space group: C M C A
;
_chemical_formula_sum "Si O2"
_cell_formula_units_Z 112
_cell_length_a 28.242872
_cell_length_b 12.326596
_cell_length_c 16.905870
_cell_angle_alpha 90.000000
_cell_angle_beta 90.000000
_cell_angle_gamma 90.000000
_cell_volume 5885.583767
_symmetry_space_group_name_H-M "C M C A"
_symmetry_group_IT_number 64
_symmetry_cell_setting 'orthorhombic'
loop_
_space_group_symop_operation_xyz
x,y,z
-x,1/2-y,1/2+z
x,-y,-z
-x,1/2+y,1/2-z
-x,-y,-z
x,1/2+y,1/2-z
-x,y,z
x,1/2-y,1/2+z
1/2+x,1/2+y,z
1/2-x,-y,1/2+z
1/2+x,1/2-y,-z
1/2-x,y,1/2-z
1/2-x,1/2-y,-z
1/2+x,y,1/2-z
1/2-x,1/2+y,z
1/2+x,-y,1/2+z
loop_
_atom_site_type_symbol
_atom_site_label
_atom_site_fract_x
_atom_site_fract_y
_atom_site_fract_z
Si Si1 0.704653 0.888863 0.035939
Si Si2 0.947219 0.958864 0.587507
Si Si3 0.385613 0.649814 0.089658
Si Si4 0.310714 0.835259 0.467179
Si Si5 0.444870 0.716365 0.938502
Si Si6 0.126103 0.375081 0.161707
Si Si7 0.616047 0.919661 0.341217
O O1 0.760784 0.891850 0.049952
O O2 0.676872 0.879260 0.118510
O O3 0.693222 0.795300 0.972031
O O4 0.686015 0.000000 0.000000
O O5 0.926338 0.837161 0.581529
O O6 0.000000 0.960188 0.627262
O O7 0.952303 0.000000 0.500000
O O8 0.911631 0.035585 0.634443
O O9 0.392765 0.753646 0.146049
O O10 0.395339 0.545873 0.143881
O O11 0.333060 0.630385 0.052241
O O12 0.420877 0.663996 0.015836
O O13 0.343674 0.869255 0.395928
O O14 0.500000 0.717746 0.955443
O O15 0.432573 0.643231 0.862014
O O16 0.133958 0.396886 0.253510
#
# Coordination Sequence:
#
# PCOD8263091 Si02
#       7
#    16  16  16  16  16  16  16
#     4  10  20  35  63  86 109 151 202 245 266 344
#     4  10  20  38  61  84 115 147 190 249 287 330
#     4  10  21  39  59  82 116 156 192 241 282 344
#     4   9  20  39  57  85 115 151 198 235 291 324
#     4  10  21  39  64  86 107 152 205 239 280 342
#     4  11  24  35  57  90 117 152 193 231 301 349
#     4  11  24  37  58  83 126 156 179 242 297 352
#
# _framework density 19.029547999999998
#
# number of rings (size 3 to 8) (size 9 to 14) (size 15 to 20)
#    0.000    1.857    1.429    3.000    6.000    2.286 
#    0.000    0.000    0.000    5.143    0.000    0.000 
#    0.000    0.000    0.000    0.000    0.000    0.000 
#
# Total GULP energy -694147.750124 kJ/mol
# GULP energy per Si atom -12395.495538 kJ/mol
# Density = 1.898624 g / cm^3
# Si number density = 19.029548 Si / 1000 Ang^3
#
#
#
# Elastic Constant Matrix: (Units=GPa)
#
#
# Indices 1 2 3 4 5 6 
#
# 1 79.0764 40.6368 28.2243 0.0000 0.0000 0.0000
# 2 40.6368 128.9872 61.3961 0.0000 0.0000 0.0000
# 3 28.2243 61.3961 107.8452 0.0000 0.0000 0.0000
# 4 0.0000 0.0000 0.0000 23.1282 0.0000 0.0000
# 5 0.0000 0.0000 0.0000 0.0000 14.8843 0.0000
# 6 0.0000 0.0000 0.0000 0.0000 0.0000 30.9299
#
#
#
# Elastic Compliance Matrix: (Units=1/GPa)
#
#
# Indices 1 2 3 4 5 6 
#
# 1 0.015321 -0.004003 -0.001731 0.000000 0.000000 0.000000
# 2 -0.004003 0.011680 -0.005602 0.000000 0.000000 0.000000
# 3 -0.001731 -0.005602 0.012915 0.000000 0.000000 0.000000
# 4 0.000000 0.000000 0.000000 0.043237 0.000000 0.000000
# 5 0.000000 0.000000 0.000000 0.000000 0.067185 0.000000
# 6 0.000000 0.000000 0.000000 0.000000 0.000000 0.032331
#
#
# Mechanical properties :
#
#
# Convention : Reuss Voigt Hill
#
# Bulk Modulus (GPa) = 57.98951 64.04701 61.01826
# Shear Modulus (GPa) = 23.68671 26.16523 24.92597
#
# Velocity S-wave (km/s) = 3.53191 3.71209 3.62312
# Velocity P-wave (km/s) = 6.86819 7.21821 7.04537
#
# Compressibility (1/GPa) = 0.01724450
#
# Stress axis : x y z
#
# Youngs Moduli (GPa) = 65.27058 85.61447 77.43114
#
# Poissons Ratio (x) = 0.34271 0.13402
# Poissons Ratio (y) = 0.26127 0.43377
# Poissons Ratio (z) = 0.11297 0.47961
#
# Static dielectric constant tensor:
#      x y z
#    x 3.715870 0.000000 0.000000 
#    y 0.000000 3.533510 0.000000 
#    z 0.000000 0.000000 2.714180 
# 
# 
# High freq. dielectric constant tensor:
#      x y z
#    x 1.743170 0.000000 0.000000 
#    y 0.000000 1.763140 0.000000 
#    z 0.000000 0.000000 1.711700 
# 
# From -- ./inp_files/28383.got.cif
#   From: 2010.03.12/outbox.cif.g09.slc.cpg/sg64_15_cif.got.tgz:28383.got - 2010.04.10 20:19:32.
