data_PCOD8263020
_publ_section_title
;
Structure prediction by ZEFSAII (Michael W. Deem and Ramdas Pophale) SiO2 
 PCOD8263020
Probable space group: C M C A
;
_chemical_formula_sum "Si O2"
_cell_formula_units_Z 80
_cell_length_a 8.708558
_cell_length_b 27.317994
_cell_length_c 17.793106
_cell_angle_alpha 90.000000
_cell_angle_beta 90.000000
_cell_angle_gamma 90.000000
_cell_volume 4232.985882
_symmetry_space_group_name_H-M "C M C A"
_symmetry_group_IT_number 64
_symmetry_cell_setting 'orthorhombic'
loop_
_space_group_symop_operation_xyz
x,y,z
-x,1/2-y,1/2+z
x,-y,-z
-x,1/2+y,1/2-z
-x,-y,-z
x,1/2+y,1/2-z
-x,y,z
x,1/2-y,1/2+z
1/2+x,1/2+y,z
1/2-x,-y,1/2+z
1/2+x,1/2-y,-z
1/2-x,y,1/2-z
1/2-x,1/2-y,-z
1/2+x,y,1/2-z
1/2-x,1/2+y,z
1/2+x,-y,1/2+z
loop_
_atom_site_type_symbol
_atom_site_label
_atom_site_fract_x
_atom_site_fract_y
_atom_site_fract_z
Si Si1 0.179646 0.960433 0.831611
Si Si2 0.821261 0.155168 0.670515
Si Si3 0.825062 0.552432 0.900462
Si Si4 0.818773 0.699016 0.524805
Si Si5 0.821089 0.107625 0.448654
O O1 0.250000 0.967242 0.750000
O O2 0.257315 0.913788 0.871070
O O3 0.000000 0.951150 0.825560
O O4 0.209761 0.009415 0.879183
O O5 0.750000 0.169296 0.750000
O O6 0.794622 0.097896 0.654672
O O7 0.738103 0.187644 0.608402
O O8 0.000000 0.168249 0.668878
O O9 0.000000 0.533487 0.892167
O O10 0.791486 0.568000 0.985892
O O11 0.750000 0.750000 0.500000
O O12 0.765638 0.657766 0.466223
O O13 0.000000 0.701977 0.524450
O O14 0.000000 0.119764 0.441493
#
# Coordination Sequence:
#
# PCOD8263020 Si02
#       5
#    16  16  16  16  16
#     4  12  24  36  53  79 113 152 191 229 272 325
#     4  10  20  35  56  85 117 148 184 230 282 329
#     4   9  19  35  56  81 112 148 184 225 273 326
#     4  11  22  39  62  86 112 145 185 228 278 334
#     4  10  21  39  60  82 110 144 184 230 279 330
#
# _framework density 18.899190000000001
#
# number of rings (size 3 to 8) (size 9 to 14) (size 15 to 20)
#    0.000    1.600    0.000    7.200    0.000    8.800 
#    0.000    1.000    0.000    0.000    0.000    0.000 
#    0.000    0.000    0.000    0.000    0.000    0.000 
#
# Total GULP energy -496223.639328 kJ/mol
# GULP energy per Si atom -12405.590983 kJ/mol
# Density = 1.885617 g / cm^3
# Si number density = 18.899190 Si / 1000 Ang^3
#
#
#
# Elastic Constant Matrix: (Units=GPa)
#
#
# Indices 1 2 3 4 5 6 
#
# 1 150.1738 54.5051 41.5462 0.0000 0.0000 0.0000
# 2 54.5051 99.6398 44.3165 0.0000 0.0000 0.0000
# 3 41.5462 44.3165 61.1331 0.0000 0.0000 0.0000
# 4 0.0000 0.0000 0.0000 21.1207 0.0000 0.0000
# 5 0.0000 0.0000 0.0000 0.0000 34.6462 0.0000
# 6 0.0000 0.0000 0.0000 0.0000 0.0000 35.2997
#
#
#
# Elastic Compliance Matrix: (Units=1/GPa)
#
#
# Indices 1 2 3 4 5 6 
#
# 1 0.008839 -0.003193 -0.003693 0.000000 0.000000 0.000000
# 2 -0.003193 0.015965 -0.009403 0.000000 0.000000 0.000000
# 3 -0.003693 -0.009403 0.025684 0.000000 0.000000 0.000000
# 4 0.000000 0.000000 0.000000 0.047347 0.000000 0.000000
# 5 0.000000 0.000000 0.000000 0.000000 0.028863 0.000000
# 6 0.000000 0.000000 0.000000 0.000000 0.000000 0.028329
#
#
# Mechanical properties :
#
#
# Convention : Reuss Voigt Hill
#
# Bulk Modulus (GPa) = 55.83346 65.74247 60.78796
# Shear Modulus (GPa) = 25.82967 29.58525 27.70746
#
# Velocity S-wave (km/s) = 3.70091 3.96084 3.83308
# Velocity P-wave (km/s) = 6.91876 7.46854 7.19890
#
# Compressibility (1/GPa) = 0.01791041
#
# Stress axis : x y z
#
# Youngs Moduli (GPa) = 113.12959 62.63652 38.93470
#
# Poissons Ratio (x) = 0.20000 0.14377
# Poissons Ratio (y) = 0.36122 0.36612
# Poissons Ratio (z) = 0.41775 0.58900
#
# Static dielectric constant tensor:
#      x y z
#    x 3.525510 0.000000 0.000000 
#    y 0.000000 3.393080 0.000000 
#    z 0.000000 0.000000 3.715300 
# 
# 
# High freq. dielectric constant tensor:
#      x y z
#    x 1.748480 0.000000 0.000000 
#    y 0.000000 1.723950 0.000000 
#    z 0.000000 0.000000 1.737290 
# 
# From -- ./inp_files/29705.got.cif
#   From: 2010.03.12/outbox.cif.g09.slc.cpg/sg64_15_cif.got.tgz:29705.got - 2010.04.10 20:19:32.
