data_PCOD8263325
_publ_section_title
;
Structure prediction by ZEFSAII (Michael W. Deem and Ramdas Pophale) SiO2 
 PCOD8263325
Probable space group: C M C A
;
_chemical_formula_sum "Si O2"
_cell_formula_units_Z 96
_cell_length_a 8.705657
_cell_length_b 23.311317
_cell_length_c 25.450108
_cell_angle_alpha 90.000000
_cell_angle_beta 90.000000
_cell_angle_gamma 90.000000
_cell_volume 5164.853317
_symmetry_space_group_name_H-M "C M C A"
_symmetry_group_IT_number 64
_symmetry_cell_setting 'orthorhombic'
loop_
_space_group_symop_operation_xyz
x,y,z
-x,1/2-y,1/2+z
x,-y,-z
-x,1/2+y,1/2-z
-x,-y,-z
x,1/2+y,1/2-z
-x,y,z
x,1/2-y,1/2+z
1/2+x,1/2+y,z
1/2-x,-y,1/2+z
1/2+x,1/2-y,-z
1/2-x,y,1/2-z
1/2-x,1/2-y,-z
1/2+x,y,1/2-z
1/2-x,1/2+y,z
1/2+x,-y,1/2+z
loop_
_atom_site_type_symbol
_atom_site_label
_atom_site_fract_x
_atom_site_fract_y
_atom_site_fract_z
Si Si1 0.820394 0.864376 0.900048
Si Si2 0.319011 0.063971 0.804543
Si Si3 0.823076 0.433564 0.495711
Si Si4 0.179970 0.635400 0.904470
Si Si5 0.181998 0.433700 0.805161
Si Si6 0.180899 0.749486 0.057986
O O1 0.784219 0.905058 0.948966
O O2 0.749063 0.892579 0.849000
O O3 0.742585 0.803220 0.908421
O O4 0.000000 0.855153 0.891777
O O5 0.500000 0.065473 0.799596
O O6 0.250000 0.086988 0.750000
O O7 0.262003 0.105020 0.851221
O O8 0.263395 0.999024 0.816247
O O9 0.783999 0.500000 0.500000
O O10 0.711717 0.407033 0.452563
O O11 0.000000 0.422831 0.479620
O O12 0.274901 0.693441 0.910727
O O13 0.000000 0.649475 0.902748
O O14 0.250000 0.412491 0.750000
O O15 0.000000 0.428528 0.804198
O O16 0.000000 0.745343 0.051976
O O17 0.250000 0.750000 0.000000
#
# Coordination Sequence:
#
# PCOD8263325 Si02
#       6
#    16  16  16  16  16  16
#     4  11  22  37  58  85 117 152 194 239 287 346
#     4   9  20  37  59  87 118 154 193 236 287 343
#     4  10  21  35  54  83 117 151 188 234 289 348
#     4  11  22  37  58  85 116 151 194 241 290 347
#     4  10  20  37  60  87 119 155 194 237 289 344
#     4  12  24  40  60  83 113 154 197 240 291 348
#
# _framework density 18.587168999999999
#
# number of rings (size 3 to 8) (size 9 to 14) (size 15 to 20)
#    0.000    1.500    1.667    4.000    0.000    3.000 
#    0.000    0.833    0.000    2.000    0.000    0.000 
#    0.000    0.000    0.000    0.000    0.000    0.000 
#
# Total GULP energy -595454.544996 kJ/mol
# GULP energy per Si atom -12405.303021 kJ/mol
# Density = 1.854486 g / cm^3
# Si number density = 18.587169 Si / 1000 Ang^3
#
#
#
# Elastic Constant Matrix: (Units=GPa)
#
#
# Indices 1 2 3 4 5 6 
#
# 1 70.2859 28.7419 60.3856 0.0000 0.0000 0.0000
# 2 28.7419 120.8293 84.0367 0.0000 0.0000 0.0000
# 3 60.3856 84.0367 156.5943 0.0000 0.0000 0.0000
# 4 0.0000 0.0000 0.0000 64.9238 0.0000 0.0000
# 5 0.0000 0.0000 0.0000 0.0000 35.4369 0.0000
# 6 0.0000 0.0000 0.0000 0.0000 0.0000 31.7890
#
#
#
# Elastic Compliance Matrix: (Units=1/GPa)
#
#
# Indices 1 2 3 4 5 6 
#
# 1 0.021357 0.001033 -0.008790 0.000000 0.000000 0.000000
# 2 0.001033 0.013255 -0.007512 0.000000 0.000000 0.000000
# 3 -0.008790 -0.007512 0.013807 0.000000 0.000000 0.000000
# 4 0.000000 0.000000 0.000000 0.015403 0.000000 0.000000
# 5 0.000000 0.000000 0.000000 0.000000 0.028219 0.000000
# 6 0.000000 0.000000 0.000000 0.000000 0.000000 0.031457
#
#
# Mechanical properties :
#
#
# Convention : Reuss Voigt Hill
#
# Bulk Modulus (GPa) = 55.92374 77.11532 66.51953
# Shear Modulus (GPa) = 31.25092 38.06631 34.65862
#
# Velocity S-wave (km/s) = 4.10483 4.53038 4.32285
# Velocity P-wave (km/s) = 7.25388 8.30327 7.79625
#
# Compressibility (1/GPa) = 0.01788149
#
# Stress axis : x y z
#
# Youngs Moduli (GPa) = 46.82276 75.44515 72.42838
#
# Poissons Ratio (x) = -0.07796 0.63666
# Poissons Ratio (y) = -0.04838 0.54405
# Poissons Ratio (z) = 0.41158 0.56672
#
# Static dielectric constant tensor:
#      x y z
#    x 3.463310 0.000000 0.000000 
#    y 0.000000 3.609860 0.000000 
#    z 0.000000 0.000000 3.506310 
# 
# 
# High freq. dielectric constant tensor:
#      x y z
#    x 1.730510 0.000000 0.000000 
#    y 0.000000 1.725730 0.000000 
#    z 0.000000 0.000000 1.724350 
# 
# From -- ./inp_files/42989.got.cif
#   From: 2010.03.12/outbox.cif.g09.slc.cpg/sg64_22_cif.got.tgz:42989.got - 2010.04.10 20:19:32.
