data_PCOD8263617
_publ_section_title
;
Structure prediction by ZEFSAII (Michael W. Deem and Ramdas Pophale) SiO2 
 PCOD8263617
Probable space group: C M C A
;
_chemical_formula_sum "Si O2"
_cell_formula_units_Z 56
_cell_length_a 19.718807
_cell_length_b 25.224053
_cell_length_c 5.190295
_cell_angle_alpha 90.000000
_cell_angle_beta 90.000000
_cell_angle_gamma 90.000000
_cell_volume 2581.591658
_symmetry_space_group_name_H-M "C M C A"
_symmetry_group_IT_number 64
_symmetry_cell_setting 'orthorhombic'
loop_
_space_group_symop_operation_xyz
x,y,z
-x,1/2-y,1/2+z
x,-y,-z
-x,1/2+y,1/2-z
-x,-y,-z
x,1/2+y,1/2-z
-x,y,z
x,1/2-y,1/2+z
1/2+x,1/2+y,z
1/2-x,-y,1/2+z
1/2+x,1/2-y,-z
1/2-x,y,1/2-z
1/2-x,1/2-y,-z
1/2+x,y,1/2-z
1/2-x,1/2+y,z
1/2+x,-y,1/2+z
loop_
_atom_site_type_symbol
_atom_site_label
_atom_site_fract_x
_atom_site_fract_y
_atom_site_fract_z
Si Si1 0.250000 0.592791 0.250000
Si Si2 0.500000 0.784504 0.740985
Si Si3 0.074858 0.440623 0.250365
Si Si4 0.395285 0.375095 0.741050
Si Si5 0.681119 0.500000 0.000000
O O1 0.314079 0.630194 0.316256
O O2 0.271962 0.551799 0.024810
O O3 0.500000 0.760750 0.455299
O O4 0.568662 0.818396 0.774488
O O5 0.092040 0.399153 0.477642
O O6 0.129738 0.488837 0.259009
O O7 0.000000 0.464671 0.291820
O O8 0.074080 0.412166 0.977326
#
# Coordination Sequence:
#
# PCOD8263617 Si02
#       5
#     8   8  16  16   8
#     4  10  22  40  60  92 134 172 208 240 306 364
#     4  12  24  44  70  95 114 151 212 266 326 384
#     4  11  20  37  60  92 133 166 216 247 296 351
#     4  11  23  41  65  90 126 165 200 263 317 365
#     4  10  21  34  60  93 130 182 212 244 276 365
#
# _framework density 21.692043999999999
#
# number of rings (size 3 to 8) (size 9 to 14) (size 15 to 20)
#    0.000    1.143    2.857    3.857    0.000    6.857 
#    0.000    8.571    0.000    0.000    0.000    0.000 
#    0.000    0.000    0.000    0.000    0.000    0.000 
#
# Total GULP energy -346941.039064 kJ/mol
# GULP energy per Si atom -12390.751395 kJ/mol
# Density = 2.164267 g / cm^3
# Si number density = 21.692044 Si / 1000 Ang^3
#
#
#
# Elastic Constant Matrix: (Units=GPa)
#
#
# Indices 1 2 3 4 5 6 
#
# 1 208.2381 48.0038 10.4690 0.0000 0.0000 0.0000
# 2 48.0038 80.3206 16.2449 0.0000 0.0000 0.0000
# 3 10.4690 16.2449 74.4326 0.0000 0.0000 0.0000
# 4 0.0000 0.0000 0.0000 37.7781 0.0000 0.0000
# 5 0.0000 0.0000 0.0000 0.0000 20.7978 0.0000
# 6 0.0000 0.0000 0.0000 0.0000 0.0000 -402.1837
#
#
#
# Elastic Compliance Matrix: (Units=1/GPa)
#
#
# Indices 1 2 3 4 5 6 
#
# 1 0.005570 -0.003317 -0.000060 0.000000 0.000000 0.000000
# 2 -0.003317 0.015000 -0.002807 0.000000 0.000000 0.000000
# 3 -0.000060 -0.002807 0.014056 0.000000 0.000000 0.000000
# 4 0.000000 0.000000 0.000000 0.026470 0.000000 0.000000
# 5 0.000000 0.000000 0.000000 0.000000 0.048082 0.000000
# 6 0.000000 0.000000 0.000000 0.000000 0.000000 -0.002486
#
#
# Mechanical properties :
#
#
# Convention : Reuss Voigt Hill
#
# Bulk Modulus (GPa) = 44.92590 56.93628 50.93109
# Shear Modulus (GPa) = 39.53240 -49.50330 -4.98545
#
# Velocity S-wave (km/s) = 4.27363 -4.78231 -1.51765
# Velocity P-wave (km/s) = 6.71622 2.04682 4.52317
#
# Compressibility (1/GPa) = 0.02225887
#
# Stress axis : x y z
#
# Youngs Moduli (GPa) = 179.54039 66.66603 71.14390
#
# Poissons Ratio (x) = 0.22111 0.00423
# Poissons Ratio (y) = 0.59549 0.19972
# Poissons Ratio (z) = 0.01068 0.18715
#
# Static dielectric constant tensor:
#      x y z
#    x 4.619590 0.000000 0.000000 
#    y 0.000000 3.667730 0.000000 
#    z 0.000000 0.000000 3.915210 
# 
# 
# High freq. dielectric constant tensor:
#      x y z
#    x 1.880980 0.000000 0.000000 
#    y 0.000000 1.806290 0.000000 
#    z 0.000000 0.000000 1.862340 
# 
# From -- ./inp_files/1234.got.cif
#   From: 2010.03.12/outbox.cif.g09.slc.cpg/sg64_1_cif.got.tgz:1234.got - 2010.04.10 20:19:32.
