data_PCOD8263409
_publ_section_title
;
Structure prediction by ZEFSAII (Michael W. Deem and Ramdas Pophale) SiO2 
 PCOD8263409
Probable space group: C M C A
;
_chemical_formula_sum "Si O2"
_cell_formula_units_Z 88
_cell_length_a 24.003927
_cell_length_b 16.667857
_cell_length_c 9.940361
_cell_angle_alpha 90.000000
_cell_angle_beta 90.000000
_cell_angle_gamma 90.000000
_cell_volume 3977.079019
_symmetry_space_group_name_H-M "C M C A"
_symmetry_group_IT_number 64
_symmetry_cell_setting 'orthorhombic'
loop_
_space_group_symop_operation_xyz
x,y,z
-x,1/2-y,1/2+z
x,-y,-z
-x,1/2+y,1/2-z
-x,-y,-z
x,1/2+y,1/2-z
-x,y,z
x,1/2-y,1/2+z
1/2+x,1/2+y,z
1/2-x,-y,1/2+z
1/2+x,1/2-y,-z
1/2-x,y,1/2-z
1/2-x,1/2-y,-z
1/2+x,y,1/2-z
1/2-x,1/2+y,z
1/2+x,-y,1/2+z
loop_
_atom_site_type_symbol
_atom_site_label
_atom_site_fract_x
_atom_site_fract_y
_atom_site_fract_z
Si Si1 0.110302 0.720416 0.424778
Si Si2 0.783369 0.500000 0.000000
Si Si3 0.130875 0.018427 0.276825
Si Si4 0.060934 0.922672 0.092344
Si Si5 0.788639 0.871063 0.875405
Si Si6 0.066435 0.168505 0.356726
O O1 0.078730 0.651405 0.504038
O O2 0.178167 0.707199 0.430927
O O3 0.094893 0.801497 0.504246
O O4 0.088628 0.721503 0.270030
O O5 0.821388 0.484370 0.127937
O O6 0.747081 0.581346 0.013495
O O7 0.160814 0.070060 0.162378
O O8 0.085044 0.075578 0.347147
O O9 0.102250 0.939328 0.216281
O O10 0.000000 0.903810 0.152217
O O11 0.058410 0.000000 0.000000
O O12 0.750000 0.846056 0.750000
O O13 0.000000 0.173736 0.364061
#
# Coordination Sequence:
#
# PCOD8263409 Si02
#       6
#    16   8  16  16  16  16
#     4  11  23  39  63  93 124 167 213 254 309 378
#     4  10  20  38  61  90 121 158 210 274 316 344
#     4  10  21  36  60  89 122 159 205 255 313 374
#     4  11  19  34  62  90 115 154 213 259 300 367
#     4   9  18  36  60  85 115 158 208 260 304 357
#     4  11  22  40  61  91 133 170 200 248 314 381
#
# _framework density 22.126792999999999
#
# number of rings (size 3 to 8) (size 9 to 14) (size 15 to 20)
#    0.000    1.636    3.636    3.273    0.000    1.455 
#    0.000   11.818    0.000    4.364    0.000    0.000 
#    0.000    0.000    0.000    0.000    0.000    0.000 
#
# Total GULP energy -545479.774207 kJ/mol
# GULP energy per Si atom -12397.267596 kJ/mol
# Density = 2.207643 g / cm^3
# Si number density = 22.126793 Si / 1000 Ang^3
#
#
#
# Elastic Constant Matrix: (Units=GPa)
#
#
# Indices 1 2 3 4 5 6 
#
# 1 158.3893 18.7871 47.6581 0.0000 0.0000 0.0000
# 2 18.7871 25.5739 10.7136 0.0000 0.0000 0.0000
# 3 47.6581 10.7136 65.8227 0.0000 0.0000 0.0000
# 4 0.0000 0.0000 0.0000 33.1773 0.0000 0.0000
# 5 0.0000 0.0000 0.0000 0.0000 41.3323 0.0000
# 6 0.0000 0.0000 0.0000 0.0000 0.0000 61.6146
#
#
#
# Elastic Compliance Matrix: (Units=1/GPa)
#
#
# Indices 1 2 3 4 5 6 
#
# 1 0.008419 -0.003897 -0.005461 0.000000 0.000000 0.000000
# 2 -0.003897 0.043767 -0.004302 0.000000 0.000000 0.000000
# 3 -0.005461 -0.004302 0.019847 0.000000 0.000000 0.000000
# 4 0.000000 0.000000 0.000000 0.030141 0.000000 0.000000
# 5 0.000000 0.000000 0.000000 0.000000 0.024194 0.000000
# 6 0.000000 0.000000 0.000000 0.000000 0.000000 0.016230
#
#
# Mechanical properties :
#
#
# Convention : Reuss Voigt Hill
#
# Bulk Modulus (GPa) = 22.36530 44.90039 33.63284
# Shear Modulus (GPa) = 27.05281 38.73333 32.89307
#
# Velocity S-wave (km/s) = 3.50040 4.18846 3.85979
# Velocity P-wave (km/s) = 5.14459 6.61266 5.92428
#
# Compressibility (1/GPa) = 0.04471211
#
# Stress axis : x y z
#
# Youngs Moduli (GPa) = 118.77762 22.84809 50.38572
#
# Poissons Ratio (x) = 0.08904 0.27518
# Poissons Ratio (y) = 0.46286 0.21677
# Poissons Ratio (z) = 0.64870 0.09830
#
# Static dielectric constant tensor:
#      x y z
#    x 4.425090 0.000000 0.000000 
#    y 0.000000 13.722420 0.000000 
#    z 0.000000 0.000000 3.813740 
# 
# 
# High freq. dielectric constant tensor:
#      x y z
#    x 1.892860 0.000000 0.000000 
#    y 0.000000 1.841290 0.000000 
#    z 0.000000 0.000000 1.861080 
# 
# From -- ./inp_files/9349.got.cif
#   From: 2010.03.12/outbox.cif.g09.slc.cpg/sg64_5_cif.got.tgz:9349.got - 2010.04.10 20:19:32.
