data_PCOD8263104
_publ_section_title
;
Structure prediction by ZEFSAII (Michael W. Deem and Ramdas Pophale) SiO2 
 PCOD8263104
Probable space group: C M C A
;
_chemical_formula_sum "Si O2"
_cell_formula_units_Z 96
_cell_length_a 17.654209
_cell_length_b 12.281813
_cell_length_c 24.941423
_cell_angle_alpha 90.000000
_cell_angle_beta 90.000000
_cell_angle_gamma 90.000000
_cell_volume 5407.941341
_symmetry_space_group_name_H-M "C M C A"
_symmetry_group_IT_number 64
_symmetry_cell_setting 'orthorhombic'
loop_
_space_group_symop_operation_xyz
x,y,z
-x,1/2-y,1/2+z
x,-y,-z
-x,1/2+y,1/2-z
-x,-y,-z
x,1/2+y,1/2-z
-x,y,z
x,1/2-y,1/2+z
1/2+x,1/2+y,z
1/2-x,-y,1/2+z
1/2+x,1/2-y,-z
1/2-x,y,1/2-z
1/2-x,1/2-y,-z
1/2+x,y,1/2-z
1/2-x,1/2+y,z
1/2+x,-y,1/2+z
loop_
_atom_site_type_symbol
_atom_site_label
_atom_site_fract_x
_atom_site_fract_y
_atom_site_fract_z
Si Si1 0.152208 0.129453 0.001149
Si Si2 0.000000 0.137613 0.612463
Si Si3 0.500000 0.120401 0.115294
Si Si4 0.500000 0.251738 0.505327
Si Si5 0.753828 0.755030 0.918999
Si Si6 0.750000 0.752244 0.750000
Si Si7 0.156249 0.632999 0.833725
Si Si8 0.841992 0.622173 0.159830
O O1 0.069940 0.171602 0.986714
O O2 0.214482 0.177269 0.961535
O O3 0.174800 0.176687 0.059091
O O4 0.153888 0.000000 0.000000
O O5 0.000000 0.188695 0.552561
O O6 0.926565 0.174849 0.646957
O O7 0.000000 0.008491 0.605881
O O8 0.500000 0.164470 0.054536
O O9 0.428877 0.160177 0.151196
O O10 0.780511 0.670418 0.874978
O O11 0.697770 0.846314 0.895865
O O12 0.817092 0.681285 0.776794
O O13 0.797520 0.824489 0.708771
O O14 0.159031 0.504719 0.829455
#
# Coordination Sequence:
#
# PCOD8263104 Si02
#       8
#    16   8   8   8  16   8  16  16
#     4  11  22  34  53  80 114 154 187 225 275 327
#     4  10  21  36  58  83 113 147 185 224 271 330
#     4  10  21  36  58  83 113 147 185 224 271 330
#     4  12  20  38  54  82 118 150 184 222 272 332
#     4  10  20  36  54  80 112 146 186 230 266 330
#     4  10  22  36  60  84 108 140 178 238 288 330
#     4  10  20  37  58  81 108 143 184 230 278 328
#     4  10  20  37  58  81 108 143 184 230 278 328
#
# _framework density 17.751671000000002
#
# number of rings (size 3 to 8) (size 9 to 14) (size 15 to 20)
#    0.000    1.667    3.333    2.000    0.000    0.667 
#    0.000    0.000    0.000    0.000    0.000    0.000 
#    0.000    0.000    0.000    0.000    0.000    0.000 
#
# Total GULP energy -594934.682396 kJ/mol
# GULP energy per Si atom -12394.472550 kJ/mol
# Density = 1.771127 g / cm^3
# Si number density = 17.751671 Si / 1000 Ang^3
#
#
#
# Elastic Constant Matrix: (Units=GPa)
#
#
# Indices 1 2 3 4 5 6 
#
# 1 112.4375 37.3787 31.3159 0.0000 0.0000 0.0000
# 2 37.3787 79.6975 35.4575 0.0000 0.0000 0.0000
# 3 31.3159 35.4575 76.8271 0.0000 0.0000 0.0000
# 4 0.0000 0.0000 0.0000 17.5503 0.0000 0.0000
# 5 0.0000 0.0000 0.0000 0.0000 25.6603 0.0000
# 6 0.0000 0.0000 0.0000 0.0000 0.0000 27.7172
#
#
#
# Elastic Compliance Matrix: (Units=1/GPa)
#
#
# Indices 1 2 3 4 5 6 
#
# 1 0.010944 -0.003962 -0.002633 0.000000 0.000000 0.000000
# 2 -0.003962 0.017224 -0.006334 0.000000 0.000000 0.000000
# 3 -0.002633 -0.006334 0.017013 0.000000 0.000000 0.000000
# 4 0.000000 0.000000 0.000000 0.056979 0.000000 0.000000
# 5 0.000000 0.000000 0.000000 0.000000 0.038971 0.000000
# 6 0.000000 0.000000 0.000000 0.000000 0.000000 0.036079
#
#
# Mechanical properties :
#
#
# Convention : Reuss Voigt Hill
#
# Bulk Modulus (GPa) = 51.75060 53.02958 52.39009
# Shear Modulus (GPa) = 23.86553 25.17287 24.51920
#
# Velocity S-wave (km/s) = 3.67060 3.76979 3.72053
# Velocity P-wave (km/s) = 6.86878 6.99188 6.93060
#
# Compressibility (1/GPa) = 0.01932345
#
# Stress axis : x y z
#
# Youngs Moduli (GPa) = 91.37384 58.05993 58.77948
#
# Poissons Ratio (x) = 0.23001 0.15474
# Poissons Ratio (y) = 0.36199 0.37233
# Poissons Ratio (z) = 0.24055 0.36777
#
# Static dielectric constant tensor:
#      x y z
#    x 3.606110 0.000000 0.000000 
#    y 0.000000 3.212670 0.000000 
#    z 0.000000 0.000000 3.410120 
# 
# 
# High freq. dielectric constant tensor:
#      x y z
#    x 1.702890 0.000000 0.000000 
#    y 0.000000 1.686050 0.000000 
#    z 0.000000 0.000000 1.686670 
# 
# From -- ./inp_files/18440.got.cif
#   From: 2010.03.12/outbox.cif.g09.slc.cpg/sg64_10_cif.got.tgz:18440.got - 2010.04.10 20:19:32.
