data_PCOD8263417
_publ_section_title
;
Structure prediction by ZEFSAII (Michael W. Deem and Ramdas Pophale) SiO2 
 PCOD8263417
Probable space group: C M C A
;
_chemical_formula_sum "Si O2"
_cell_formula_units_Z 88
_cell_length_a 10.548909
_cell_length_b 13.663922
_cell_length_c 32.221835
_cell_angle_alpha 90.000000
_cell_angle_beta 90.000000
_cell_angle_gamma 90.000000
_cell_volume 4644.438212
_symmetry_space_group_name_H-M "C M C A"
_symmetry_group_IT_number 64
_symmetry_cell_setting 'orthorhombic'
loop_
_space_group_symop_operation_xyz
x,y,z
-x,1/2-y,1/2+z
x,-y,-z
-x,1/2+y,1/2-z
-x,-y,-z
x,1/2+y,1/2-z
-x,y,z
x,1/2-y,1/2+z
1/2+x,1/2+y,z
1/2-x,-y,1/2+z
1/2+x,1/2-y,-z
1/2-x,y,1/2-z
1/2-x,1/2-y,-z
1/2+x,y,1/2-z
1/2-x,1/2+y,z
1/2+x,-y,1/2+z
loop_
_atom_site_type_symbol
_atom_site_label
_atom_site_fract_x
_atom_site_fract_y
_atom_site_fract_z
Si Si1 0.209485 0.806821 0.854744
Si Si2 0.000000 0.540262 0.954066
Si Si3 0.500000 0.545741 0.045485
Si Si4 0.000000 0.249461 0.581958
Si Si5 0.853362 0.620162 0.660618
Si Si6 0.360490 0.556130 0.218228
Si Si7 0.254190 0.012659 0.094256
O O1 0.118523 0.750819 0.886827
O O2 0.305863 0.731183 0.832520
O O3 0.134509 0.865751 0.819180
O O4 0.283870 0.887030 0.881576
O O5 0.873828 0.498721 0.934407
O O6 0.000000 0.656848 0.948505
O O7 0.000000 0.500000 0.000000
O O8 0.500000 0.663487 0.048071
O O9 0.625541 0.510147 0.068236
O O10 0.500000 0.500000 0.000000
O O11 0.837367 0.554506 0.701927
O O12 0.760629 0.576436 0.625964
O O13 0.000000 0.619676 0.646474
O O14 0.500000 0.560740 0.239699
O O15 0.250000 0.584492 0.250000
#
# Coordination Sequence:
#
# PCOD8263417 Si02
#       7
#    16   8   8   8  16  16  16
#     4  10  20  39  65  86 115 165 206 243 294 364
#     4  12  24  40  56  93 131 152 190 268 324 355
#     4  10  20  40  60  82 109 161 205 240 295 365
#     4  10  20  40  64  83 116 167 203 238 309 370
#     4  10  20  38  62  86 116 157 206 244 289 361
#     4  10  22  41  61  90 127 159 197 249 301 354
#     4  10  21  38  60  84 119 156 200 247 298 363
#
# _framework density 18.947393000000002
#
# number of rings (size 3 to 8) (size 9 to 14) (size 15 to 20)
#    0.000    1.818    3.636    0.545    1.273    1.455 
#    9.818    4.545    0.000    0.000    0.000    0.000 
#    0.000    0.000    0.000    0.000    0.000    0.000 
#
# Total GULP energy -545321.296791 kJ/mol
# GULP energy per Si atom -12393.665836 kJ/mol
# Density = 1.890427 g / cm^3
# Si number density = 18.947393 Si / 1000 Ang^3
#
#
#
# Elastic Constant Matrix: (Units=GPa)
#
#
# Indices 1 2 3 4 5 6 
#
# 1 129.6616 42.0253 47.5233 0.0000 0.0000 0.0000
# 2 42.0253 107.9433 35.5282 0.0000 0.0000 0.0000
# 3 47.5233 35.5282 86.0783 0.0000 0.0000 0.0000
# 4 0.0000 0.0000 0.0000 26.3224 0.0000 0.0000
# 5 0.0000 0.0000 0.0000 0.0000 22.0383 0.0000
# 6 0.0000 0.0000 0.0000 0.0000 0.0000 45.8580
#
#
#
# Elastic Compliance Matrix: (Units=1/GPa)
#
#
# Indices 1 2 3 4 5 6 
#
# 1 0.010200 -0.002451 -0.004620 0.000000 0.000000 0.000000
# 2 -0.002451 0.011309 -0.003315 0.000000 0.000000 0.000000
# 3 -0.004620 -0.003315 0.015536 0.000000 0.000000 0.000000
# 4 0.000000 0.000000 0.000000 0.037991 0.000000 0.000000
# 5 0.000000 0.000000 0.000000 0.000000 0.045375 0.000000
# 6 0.000000 0.000000 0.000000 0.000000 0.000000 0.021806
#
#
# Mechanical properties :
#
#
# Convention : Reuss Voigt Hill
#
# Bulk Modulus (GPa) = 61.44503 63.75963 62.60233
# Shear Modulus (GPa) = 29.68889 32.08418 30.88654
#
# Velocity S-wave (km/s) = 3.96272 4.11947 4.04186
# Velocity P-wave (km/s) = 7.31007 7.50671 7.40904
#
# Compressibility (1/GPa) = 0.01627471
#
# Stress axis : x y z
#
# Youngs Moduli (GPa) = 98.04015 88.42337 64.36610
#
# Poissons Ratio (x) = 0.21668 0.29736
# Poissons Ratio (y) = 0.24025 0.21337
# Poissons Ratio (z) = 0.45293 0.29311
#
# Static dielectric constant tensor:
#      x y z
#    x 3.203230 0.000000 0.000000 
#    y 0.000000 3.568310 0.000000 
#    z 0.000000 0.000000 3.286510 
# 
# 
# High freq. dielectric constant tensor:
#      x y z
#    x 1.743110 0.000000 0.000000 
#    y 0.000000 1.744170 0.000000 
#    z 0.000000 0.000000 1.719120 
# 
# From -- ./inp_files/49253.got.cif
#   From: 2010.03.12/outbox.cif.g09.slc.cpg/sg64_25_cif.got.tgz:49253.got - 2010.04.10 20:19:32.
