data_PCOD8263440
_publ_section_title
;
Structure prediction by ZEFSAII (Michael W. Deem and Ramdas Pophale) SiO2 
 PCOD8263440
Probable space group: C M C A
;
_chemical_formula_sum "Si O2"
_cell_formula_units_Z 104
_cell_length_a 18.436773
_cell_length_b 27.625388
_cell_length_c 9.695941
_cell_angle_alpha 90.000000
_cell_angle_beta 90.000000
_cell_angle_gamma 90.000000
_cell_volume 4938.365832
_symmetry_space_group_name_H-M "C M C A"
_symmetry_group_IT_number 64
_symmetry_cell_setting 'orthorhombic'
loop_
_space_group_symop_operation_xyz
x,y,z
-x,1/2-y,1/2+z
x,-y,-z
-x,1/2+y,1/2-z
-x,-y,-z
x,1/2+y,1/2-z
-x,y,z
x,1/2-y,1/2+z
1/2+x,1/2+y,z
1/2-x,-y,1/2+z
1/2+x,1/2-y,-z
1/2-x,y,1/2-z
1/2-x,1/2-y,-z
1/2+x,y,1/2-z
1/2-x,1/2+y,z
1/2+x,-y,1/2+z
loop_
_atom_site_type_symbol
_atom_site_label
_atom_site_fract_x
_atom_site_fract_y
_atom_site_fract_z
Si Si1 0.356052 0.342760 0.538398
Si Si2 0.181246 0.490335 0.838497
Si Si3 0.913430 0.647029 0.530172
Si Si4 0.333697 0.596876 0.724499
Si Si5 0.750000 0.689544 0.250000
Si Si6 0.832171 0.259327 0.547873
Si Si7 0.918821 0.904068 0.753170
O O1 0.353006 0.383913 0.425210
O O2 0.278380 0.342186 0.620844
O O3 0.375260 0.291195 0.467186
O O4 0.417344 0.358679 0.647393
O O5 0.250000 0.473380 0.750000
O O6 0.151505 0.539736 0.772007
O O7 0.123318 0.448408 0.815446
O O8 0.199657 0.500000 0.000000
O O9 0.887853 0.619548 0.665507
O O10 0.875848 0.699657 0.534108
O O11 0.887018 0.615350 0.398511
O O12 0.000000 0.653843 0.529345
O O13 0.250000 0.610176 0.750000
O O14 0.819938 0.722803 0.293916
O O15 0.750000 0.250000 0.500000
O O16 0.000000 0.922154 0.776027
#
# Coordination Sequence:
#
# PCOD8263440 Si02
#       7
#    16  16  16  16   8  16  16
#     4  11  23  38  68  94 135 174 223 279 332 392
#     4  11  26  44  71 104 135 172 224 290 337 401
#     4  11  26  47  69  99 141 183 227 284 344 413
#     4  11  25  42  67 107 132 173 227 284 344 403
#     4  10  20  38  64 102 132 176 226 282 330 406
#     4  10  22  37  67 102 132 178 225 276 333 402
#     4  11  26  46  69  95 134 186 228 270 344 416
#
# _framework density 21.059598000000001
#
# number of rings (size 3 to 8) (size 9 to 14) (size 15 to 20)
#    0.000    1.231    3.077    1.846   10.769    2.154 
#    0.000    3.077    0.000    0.000    0.000    0.000 
#    0.000    0.000    0.000    0.000    0.000    0.000 
#
# Total GULP energy -644526.722256 kJ/mol
# GULP energy per Si atom -12394.744659 kJ/mol
# Density = 2.101167 g / cm^3
# Si number density = 21.059598 Si / 1000 Ang^3
#
#
#
# Elastic Constant Matrix: (Units=GPa)
#
#
# Indices 1 2 3 4 5 6 
#
# 1 78.2322 44.7596 40.4899 0.0000 0.0000 0.0000
# 2 44.7596 98.5181 22.5470 0.0000 0.0000 0.0000
# 3 40.4899 22.5470 108.2387 0.0000 0.0000 0.0000
# 4 0.0000 0.0000 0.0000 32.4208 0.0000 0.0000
# 5 0.0000 0.0000 0.0000 0.0000 29.9765 0.0000
# 6 0.0000 0.0000 0.0000 0.0000 0.0000 21.5531
#
#
#
# Elastic Compliance Matrix: (Units=1/GPa)
#
#
# Indices 1 2 3 4 5 6 
#
# 1 0.020399 -0.007898 -0.005986 0.000000 0.000000 0.000000
# 2 -0.007898 0.013716 0.000097 0.000000 0.000000 0.000000
# 3 -0.005986 0.000097 0.011458 0.000000 0.000000 0.000000
# 4 0.000000 0.000000 0.000000 0.030844 0.000000 0.000000
# 5 0.000000 0.000000 0.000000 0.000000 0.033360 0.000000
# 6 0.000000 0.000000 0.000000 0.000000 0.000000 0.046397
#
#
# Mechanical properties :
#
#
# Convention : Reuss Voigt Hill
#
# Bulk Modulus (GPa) = 55.55439 55.62024 55.58731
# Shear Modulus (GPa) = 26.35081 28.60290 27.47685
#
# Velocity S-wave (km/s) = 3.54114 3.68936 3.61601
# Velocity P-wave (km/s) = 6.56935 6.67957 6.62469
#
# Compressibility (1/GPa) = 0.01800038
#
# Stress axis : x y z
#
# Youngs Moduli (GPa) = 49.02155 72.90497 87.27743
#
# Poissons Ratio (x) = 0.57581 0.52242
# Poissons Ratio (y) = 0.38717 -0.00849
# Poissons Ratio (z) = 0.29343 -0.00709
#
# Static dielectric constant tensor:
#      x y z
#    x 3.638830 0.000000 0.000000 
#    y 0.000000 4.077660 0.000000 
#    z 0.000000 0.000000 4.221250 
# 
# 
# High freq. dielectric constant tensor:
#      x y z
#    x 1.798800 0.000000 0.000000 
#    y 0.000000 1.836800 0.000000 
#    z 0.000000 0.000000 1.841370 
# 
# From -- ./inp_files/8656.got.cif
#   From: 2010.03.12/outbox.cif.g09.slc.cpg/sg64_5_cif.got.tgz:8656.got - 2010.04.10 20:19:32.
