data_PCOD8263115
_publ_section_title
;
Structure prediction by ZEFSAII (Michael W. Deem and Ramdas Pophale) SiO2 
 PCOD8263115
Probable space group: C M C A
;
_chemical_formula_sum "Si O2"
_cell_formula_units_Z 96
_cell_length_a 8.983519
_cell_length_b 20.573599
_cell_length_c 26.705859
_cell_angle_alpha 90.000000
_cell_angle_beta 90.000000
_cell_angle_gamma 90.000000
_cell_volume 4935.865457
_symmetry_space_group_name_H-M "C M C A"
_symmetry_group_IT_number 64
_symmetry_cell_setting 'orthorhombic'
loop_
_space_group_symop_operation_xyz
x,y,z
-x,1/2-y,1/2+z
x,-y,-z
-x,1/2+y,1/2-z
-x,-y,-z
x,1/2+y,1/2-z
-x,y,z
x,1/2-y,1/2+z
1/2+x,1/2+y,z
1/2-x,-y,1/2+z
1/2+x,1/2-y,-z
1/2-x,y,1/2-z
1/2-x,1/2-y,-z
1/2+x,y,1/2-z
1/2-x,1/2+y,z
1/2+x,-y,1/2+z
loop_
_atom_site_type_symbol
_atom_site_label
_atom_site_fract_x
_atom_site_fract_y
_atom_site_fract_z
Si Si1 0.323915 0.068656 0.696815
Si Si2 0.172916 0.186797 0.521270
Si Si3 0.171159 0.319316 0.138323
Si Si4 0.174422 0.810107 0.802900
Si Si5 0.174798 0.565286 0.470450
Si Si6 0.176716 0.060993 0.143174
O O1 0.500000 0.067755 0.703380
O O2 0.250000 0.080220 0.750000
O O3 0.279700 0.126937 0.660571
O O4 0.263626 0.001583 0.673105
O O5 0.250000 0.250000 0.500000
O O6 0.203024 0.184127 0.579955
O O7 0.239691 0.123410 0.496222
O O8 0.000000 0.190687 0.508585
O O9 0.213058 0.249890 0.161450
O O10 0.000000 0.337451 0.150066
O O11 0.250000 0.798607 0.750000
O O12 0.238866 0.874812 0.829363
O O13 0.000000 0.817220 0.793812
O O14 0.213700 0.500000 0.500000
O O15 0.234507 0.558170 0.413778
O O16 0.000000 0.580750 0.471840
O O17 0.000000 0.061335 0.142612
#
# Coordination Sequence:
#
# PCOD8263115 Si02
#       6
#    16  16  16  16  16  16
#     4  11  22  37  59  85 114 149 189 233 281 336
#     4  11  23  39  60  86 117 152 192 240 294 350
#     4  10  22  39  58  81 112 149 186 231 284 338
#     4  10  20  36  56  77 105 141 181 224 272 325
#     4  10  20  37  61  86 114 151 194 237 285 344
#     4   9  19  36  57  81 111 148 185 224 276 335
#
# _framework density 19.449477000000002
#
# number of rings (size 3 to 8) (size 9 to 14) (size 15 to 20)
#    0.000    1.833    0.000    4.000    0.000    7.667 
#    0.000    5.000    0.000    0.000    0.000    0.000 
#    0.000    0.000    0.000    0.000    0.000    0.000 
#
# Total GULP energy -595423.269612 kJ/mol
# GULP energy per Si atom -12404.651450 kJ/mol
# Density = 1.940521 g / cm^3
# Si number density = 19.449477 Si / 1000 Ang^3
#
#
#
# Elastic Constant Matrix: (Units=GPa)
#
#
# Indices 1 2 3 4 5 6 
#
# 1 64.0324 59.8018 43.3271 0.0000 0.0000 0.0000
# 2 59.8018 150.5513 54.3970 0.0000 0.0000 0.0000
# 3 43.3271 54.3970 100.5806 0.0000 0.0000 0.0000
# 4 0.0000 0.0000 0.0000 50.0496 0.0000 0.0000
# 5 0.0000 0.0000 0.0000 0.0000 24.5375 0.0000
# 6 0.0000 0.0000 0.0000 0.0000 0.0000 -4.8852
#
#
#
# Elastic Compliance Matrix: (Units=1/GPa)
#
#
# Indices 1 2 3 4 5 6 
#
# 1 0.029029 -0.008716 -0.007791 0.000000 0.000000 0.000000
# 2 -0.008716 0.010872 -0.002126 0.000000 0.000000 0.000000
# 3 -0.007791 -0.002126 0.014448 0.000000 0.000000 0.000000
# 4 0.000000 0.000000 0.000000 0.019980 0.000000 0.000000
# 5 0.000000 0.000000 0.000000 0.000000 0.040754 0.000000
# 6 0.000000 0.000000 0.000000 0.000000 0.000000 -0.204699
#
#
# Mechanical properties :
#
#
# Convention : Reuss Voigt Hill
#
# Bulk Modulus (GPa) = 58.53291 70.02400 64.27845
# Shear Modulus (GPa) = -107.16588 24.44960 -41.35814
#
# Velocity S-wave (km/s) = -7.43096 3.54938 -4.61634
# Velocity P-wave (km/s) = 6.59283 7.27177 2.16947
#
# Compressibility (1/GPa) = 0.01708441
#
# Stress axis : x y z
#
# Youngs Moduli (GPa) = 34.44870 91.97673 69.21380
#
# Poissons Ratio (x) = 0.80164 0.53924
# Poissons Ratio (y) = 0.30024 0.14712
# Poissons Ratio (z) = 0.26839 0.19551
#
# Static dielectric constant tensor:
#      x y z
#    x 3.370980 0.000000 0.000000 
#    y 0.000000 3.817770 0.000000 
#    z 0.000000 0.000000 3.792050 
# 
# 
# High freq. dielectric constant tensor:
#      x y z
#    x 1.738590 0.000000 0.000000 
#    y 0.000000 1.776860 0.000000 
#    z 0.000000 0.000000 1.777000 
# 
# From -- ./inp_files/48033.got.cif
#   From: 2010.03.12/outbox.cif.g09.slc.cpg/sg64_25_cif.got.tgz:48033.got - 2010.04.10 20:19:32.
