data_PCOD8263565
_publ_section_title
;
Structure prediction by ZEFSAII (Michael W. Deem and Ramdas Pophale) SiO2 
 PCOD8263565
Probable space group: C M C A
;
_chemical_formula_sum "Si O2"
_cell_formula_units_Z 56
_cell_length_a 25.614841
_cell_length_b 12.633855
_cell_length_c 7.712202
_cell_angle_alpha 90.000000
_cell_angle_beta 90.000000
_cell_angle_gamma 90.000000
_cell_volume 2495.777981
_symmetry_space_group_name_H-M "C M C A"
_symmetry_group_IT_number 64
_symmetry_cell_setting 'orthorhombic'
loop_
_space_group_symop_operation_xyz
x,y,z
-x,1/2-y,1/2+z
x,-y,-z
-x,1/2+y,1/2-z
-x,-y,-z
x,1/2+y,1/2-z
-x,y,z
x,1/2-y,1/2+z
1/2+x,1/2+y,z
1/2-x,-y,1/2+z
1/2+x,1/2-y,-z
1/2-x,y,1/2-z
1/2-x,1/2-y,-z
1/2+x,y,1/2-z
1/2-x,1/2+y,z
1/2+x,-y,1/2+z
loop_
_atom_site_type_symbol
_atom_site_label
_atom_site_fract_x
_atom_site_fract_y
_atom_site_fract_z
Si Si1 0.593341 0.378103 0.056240
Si Si2 0.862388 0.500000 0.000000
Si Si3 0.697706 0.933430 0.329875
Si Si4 0.442089 0.828953 0.083890
O O1 0.653401 0.349533 0.112135
O O2 0.554983 0.365182 0.217885
O O3 0.591017 0.500000 0.000000
O O4 0.574775 0.294967 0.912389
O O5 0.827795 0.496425 0.825147
O O6 0.899591 0.602603 0.020007
O O7 0.750000 0.879064 0.250000
O O8 0.713992 0.000000 0.500000
O O9 0.500000 0.843769 0.002787
#
# Coordination Sequence:
#
# PCOD8263565 Si02
#       4
#    16   8  16  16
#     4  10  25  44  66  99 139 173 229 284 332 408
#     4  10  23  42  64  98 134 172 235 280 334 404
#     4  10  20  40  69  96 133 178 221 283 340 400
#     4  11  24  42  68  95 134 182 225 279 342 397
#
# _framework density 22.437892000000002
#
# number of rings (size 3 to 8) (size 9 to 14) (size 15 to 20)
#    0.000    1.714    1.429    1.286   12.000    2.286 
#    0.000    7.143    0.000    0.857    0.000    0.000 
#    0.000    0.000    0.000    0.000    0.000    0.000 
#
# Total GULP energy -346898.110212 kJ/mol
# GULP energy per Si atom -12389.218222 kJ/mol
# Density = 2.238682 g / cm^3
# Si number density = 22.437892 Si / 1000 Ang^3
#
#
#
# Elastic Constant Matrix: (Units=GPa)
#
#
# Indices 1 2 3 4 5 6 
#
# 1 159.0622 45.5171 42.1919 0.0000 0.0000 0.0000
# 2 45.5171 120.2448 33.6807 0.0000 0.0000 0.0000
# 3 42.1919 33.6807 104.8277 0.0000 0.0000 0.0000
# 4 0.0000 0.0000 0.0000 30.1860 0.0000 0.0000
# 5 0.0000 0.0000 0.0000 0.0000 33.5964 0.0000
# 6 0.0000 0.0000 0.0000 0.0000 0.0000 22.9120
#
#
#
# Elastic Compliance Matrix: (Units=1/GPa)
#
#
# Indices 1 2 3 4 5 6 
#
# 1 0.007533 -0.002200 -0.002325 0.000000 0.000000 0.000000
# 2 -0.002200 0.009782 -0.002257 0.000000 0.000000 0.000000
# 3 -0.002325 -0.002257 0.011200 0.000000 0.000000 0.000000
# 4 0.000000 0.000000 0.000000 0.033128 0.000000 0.000000
# 5 0.000000 0.000000 0.000000 0.000000 0.029765 0.000000
# 6 0.000000 0.000000 0.000000 0.000000 0.000000 0.043645
#
#
# Mechanical properties :
#
#
# Convention : Reuss Voigt Hill
#
# Bulk Modulus (GPa) = 66.88920 69.65712 68.27316
# Shear Modulus (GPa) = 32.55165 34.85521 33.70343
#
# Velocity S-wave (km/s) = 3.81300 3.94561 3.87987
# Velocity P-wave (km/s) = 7.01860 7.20201 7.11090
#
# Compressibility (1/GPa) = 0.01495010
#
# Stress axis : x y z
#
# Youngs Moduli (GPa) = 132.74506 102.23372 89.28181
#
# Poissons Ratio (x) = 0.22495 0.20759
# Poissons Ratio (y) = 0.29209 0.20152
# Poissons Ratio (z) = 0.30864 0.23076
#
# Static dielectric constant tensor:
#      x y z
#    x 4.368810 0.000000 0.000000 
#    y 0.000000 3.785220 0.000000 
#    z 0.000000 0.000000 4.146030 
# 
# 
# High freq. dielectric constant tensor:
#      x y z
#    x 1.903300 0.000000 0.000000 
#    y 0.000000 1.841260 0.000000 
#    z 0.000000 0.000000 1.895140 
# 
# From -- ./inp_files/8888.got.cif
#   From: 2010.03.12/outbox.cif.g09.slc.cpg/sg64_5_cif.got.tgz:8888.got - 2010.04.10 20:19:32.
