data_PCOD8263619
_publ_section_title
;
Structure prediction by ZEFSAII (Michael W. Deem and Ramdas Pophale) SiO2 
 PCOD8263619
Probable space group: C M C A
;
_chemical_formula_sum "Si O2"
_cell_formula_units_Z 96
_cell_length_a 23.286081
_cell_length_b 10.548850
_cell_length_c 20.399834
_cell_angle_alpha 90.000000
_cell_angle_beta 90.000000
_cell_angle_gamma 90.000000
_cell_volume 5011.043285
_symmetry_space_group_name_H-M "C M C A"
_symmetry_group_IT_number 64
_symmetry_cell_setting 'orthorhombic'
loop_
_space_group_symop_operation_xyz
x,y,z
-x,1/2-y,1/2+z
x,-y,-z
-x,1/2+y,1/2-z
-x,-y,-z
x,1/2+y,1/2-z
-x,y,z
x,1/2-y,1/2+z
1/2+x,1/2+y,z
1/2-x,-y,1/2+z
1/2+x,1/2-y,-z
1/2-x,y,1/2-z
1/2-x,1/2-y,-z
1/2+x,y,1/2-z
1/2-x,1/2+y,z
1/2+x,-y,1/2+z
loop_
_atom_site_type_symbol
_atom_site_label
_atom_site_fract_x
_atom_site_fract_y
_atom_site_fract_z
Si Si1 0.935069 0.189205 0.463808
Si Si2 0.158759 0.614974 0.799014
Si Si3 0.692121 0.338009 0.711295
Si Si4 0.830722 0.142181 0.995783
Si Si5 0.241135 0.270012 0.101701
Si Si6 0.436407 0.937854 0.104339
O O1 0.884979 0.292102 0.461042
O O2 0.932267 0.128030 0.534740
O O3 0.000000 0.244187 0.452406
O O4 0.920673 0.086022 0.407244
O O5 0.156578 0.715586 0.738841
O O6 0.157307 0.468190 0.776179
O O7 0.216058 0.638877 0.841875
O O8 0.103453 0.634581 0.844332
O O9 0.750000 0.355054 0.750000
O O10 0.710457 0.320467 0.635014
O O11 0.773397 0.145363 0.951766
O O12 0.811937 0.195901 0.067177
O O13 0.851923 0.000000 0.000000
O O14 0.500000 0.926947 0.133488
#
# Coordination Sequence:
#
# PCOD8263619 Si02
#       6
#    16  16  16  16  16  16
#     4   9  18  34  55  81 108 144 185 224 279 342
#     4  11  20  37  57  79 107 147 188 235 278 336
#     4  10  21  35  54  77 106 145 184 224 279 339
#     4  11  21  32  52  85 117 144 179 233 284 339
#     4  10  21  35  51  80 114 151 182 222 278 347
#     4   9  18  35  59  79 102 141 190 229 270 338
#
# _framework density 19.157686000000002
#
# number of rings (size 3 to 8) (size 9 to 14) (size 15 to 20)
#    0.000    2.000    1.667    4.500    0.000    3.000 
#    0.000    0.833    0.000    1.000    0.000    0.000 
#    0.000    0.000    0.000    0.000    0.000    0.000 
#
# Total GULP energy -594895.180550 kJ/mol
# GULP energy per Si atom -12393.649595 kJ/mol
# Density = 1.911408 g / cm^3
# Si number density = 19.157686 Si / 1000 Ang^3
#
#
#
# Elastic Constant Matrix: (Units=GPa)
#
#
# Indices 1 2 3 4 5 6 
#
# 1 84.1407 33.2504 12.7498 0.0000 0.0000 0.0000
# 2 33.2504 100.0131 14.2418 0.0000 0.0000 0.0000
# 3 12.7498 14.2418 53.3489 0.0000 0.0000 0.0000
# 4 0.0000 0.0000 0.0000 20.7617 0.0000 0.0000
# 5 0.0000 0.0000 0.0000 0.0000 17.7891 0.0000
# 6 0.0000 0.0000 0.0000 0.0000 0.0000 22.7899
#
#
#
# Elastic Compliance Matrix: (Units=1/GPa)
#
#
# Indices 1 2 3 4 5 6 
#
# 1 0.013921 -0.004319 -0.002174 0.000000 0.000000 0.000000
# 2 -0.004319 0.011734 -0.002100 0.000000 0.000000 0.000000
# 3 -0.002174 -0.002100 0.019825 0.000000 0.000000 0.000000
# 4 0.000000 0.000000 0.000000 0.048166 0.000000 0.000000
# 5 0.000000 0.000000 0.000000 0.000000 0.056214 0.000000
# 6 0.000000 0.000000 0.000000 0.000000 0.000000 0.043879
#
#
# Mechanical properties :
#
#
# Convention : Reuss Voigt Hill
#
# Bulk Modulus (GPa) = 35.34388 39.77629 37.56009
# Shear Modulus (GPa) = 22.69067 24.08553 23.38810
#
# Velocity S-wave (km/s) = 3.44527 3.54958 3.49782
# Velocity P-wave (km/s) = 5.85794 6.13246 5.99677
#
# Compressibility (1/GPa) = 0.02829344
#
# Stress axis : x y z
#
# Youngs Moduli (GPa) = 71.83457 85.22598 50.44191
#
# Poissons Ratio (x) = 0.36805 0.10966
# Poissons Ratio (y) = 0.31022 0.10594
# Poissons Ratio (z) = 0.15617 0.17900
#
# Static dielectric constant tensor:
#      x y z
#    x 3.533010 0.000000 0.000000 
#    y 0.000000 3.503590 0.000000 
#    z 0.000000 0.000000 3.702440 
# 
# 
# High freq. dielectric constant tensor:
#      x y z
#    x 1.736180 0.000000 0.000000 
#    y 0.000000 1.732210 0.000000 
#    z 0.000000 0.000000 1.734450 
# 
# From -- ./inp_files/40868.got.cif
#   From: 2010.03.12/outbox.cif.g09.slc.cpg/sg64_21_cif.got.tgz:40868.got - 2010.04.10 20:19:32.
