data_PCOD8263903
_publ_section_title
;
Structure prediction by ZEFSAII (Michael W. Deem and Ramdas Pophale) SiO2 
 PCOD8263903
Probable space group: C M C A
;
_chemical_formula_sum "Si O2"
_cell_formula_units_Z 48
_cell_length_a 12.346261
_cell_length_b 9.190214
_cell_length_c 20.764919
_cell_angle_alpha 90.000000
_cell_angle_beta 90.000000
_cell_angle_gamma 90.000000
_cell_volume 2356.086980
_symmetry_space_group_name_H-M "C M C A"
_symmetry_group_IT_number 64
_symmetry_cell_setting 'orthorhombic'
loop_
_space_group_symop_operation_xyz
x,y,z
-x,1/2-y,1/2+z
x,-y,-z
-x,1/2+y,1/2-z
-x,-y,-z
x,1/2+y,1/2-z
-x,y,z
x,1/2-y,1/2+z
1/2+x,1/2+y,z
1/2-x,-y,1/2+z
1/2+x,1/2-y,-z
1/2-x,y,1/2-z
1/2-x,1/2-y,-z
1/2+x,y,1/2-z
1/2-x,1/2+y,z
1/2+x,-y,1/2+z
loop_
_atom_site_type_symbol
_atom_site_label
_atom_site_fract_x
_atom_site_fract_y
_atom_site_fract_z
Si Si1 0.120543 0.129645 0.602374
Si Si2 0.500000 0.714917 0.718171
Si Si3 0.000000 0.521936 0.665406
Si Si4 0.684925 0.056295 0.430170
O O1 0.106673 0.155951 0.679576
O O2 0.192151 0.988572 0.587420
O O3 0.178033 0.269516 0.570428
O O4 0.000000 0.110427 0.571708
O O5 0.500000 0.668771 0.792523
O O6 0.500000 0.889619 0.716373
O O7 0.894318 0.517732 0.621296
O O8 0.650890 0.000000 0.500000
#
# Coordination Sequence:
#
# PCOD8263903 Si02
#       4
#    16   8   8  16
#     4   9  22  41  58  89 122 153 204 248 293 358
#     4   8  20  40  55  88 117 154 204 250 292 352
#     4  10  21  38  64  86 123 158 202 246 300 360
#     4  11  21  40  64  90 125 161 194 250 306 356
#
# _framework density 20.372762999999999
#
# number of rings (size 3 to 8) (size 9 to 14) (size 15 to 20)
#    1.000    1.333    1.667    1.500    0.000    4.667 
#    3.000    6.667    0.000    0.000    0.000    0.000 
#    0.000    0.000    0.000    0.000    0.000    0.000 
#
# Total GULP energy -297484.357359 kJ/mol
# GULP energy per Si atom -12395.181557 kJ/mol
# Density = 2.032639 g / cm^3
# Si number density = 20.372763 Si / 1000 Ang^3
#
#
#
# Elastic Constant Matrix: (Units=GPa)
#
#
# Indices 1 2 3 4 5 6 
#
# 1 145.3114 68.6163 27.7945 0.0000 0.0000 0.0000
# 2 68.6163 62.0220 25.1533 0.0000 0.0000 0.0000
# 3 27.7945 25.1533 96.6682 0.0000 0.0000 0.0000
# 4 0.0000 0.0000 0.0000 29.2346 0.0000 0.0000
# 5 0.0000 0.0000 0.0000 0.0000 19.8102 0.0000
# 6 0.0000 0.0000 0.0000 0.0000 0.0000 31.0010
#
#
#
# Elastic Compliance Matrix: (Units=1/GPa)
#
#
# Indices 1 2 3 4 5 6 
#
# 1 0.014409 -0.015943 0.000006 0.000000 0.000000 0.000000
# 2 -0.015943 0.035667 -0.004696 0.000000 0.000000 0.000000
# 3 0.000006 -0.004696 0.011565 0.000000 0.000000 0.000000
# 4 0.000000 0.000000 0.000000 0.034206 0.000000 0.000000
# 5 0.000000 0.000000 0.000000 0.000000 0.050479 0.000000
# 6 0.000000 0.000000 0.000000 0.000000 0.000000 0.032257
#
#
# Mechanical properties :
#
#
# Convention : Reuss Voigt Hill
#
# Bulk Modulus (GPa) = 49.08649 60.79219 54.93934
# Shear Modulus (GPa) = 22.06120 28.17169 25.11644
#
# Velocity S-wave (km/s) = 3.29428 3.72265 3.51500
# Velocity P-wave (km/s) = 6.21419 6.95573 6.59539
#
# Compressibility (1/GPa) = 0.02037220
#
# Stress axis : x y z
#
# Youngs Moduli (GPa) = 69.39984 28.03748 86.46720
#
# Poissons Ratio (x) = 0.44702 -0.00048
# Poissons Ratio (y) = 1.10648 0.40608
# Poissons Ratio (z) = -0.00038 0.13167
#
# Static dielectric constant tensor:
#      x y z
#    x 3.557230 0.000000 0.000000 
#    y 0.000000 3.470900 0.000000 
#    z 0.000000 0.000000 3.489910 
# 
# 
# High freq. dielectric constant tensor:
#      x y z
#    x 1.790240 0.000000 0.000000 
#    y 0.000000 1.788380 0.000000 
#    z 0.000000 0.000000 1.787540 
# 
# From -- ./inp_files/43649.got.cif
#   From: 2010.03.12/outbox.cif.g09.slc.cpg/sg64_22_cif.got.tgz:43649.got - 2010.04.10 20:19:32.
