data_PCOD8263688
_publ_section_title
;
Structure prediction by ZEFSAII (Michael W. Deem and Ramdas Pophale) SiO2 
 PCOD8263688
Probable space group: C M C A
;
_chemical_formula_sum "Si O2"
_cell_formula_units_Z 88
_cell_length_a 15.393533
_cell_length_b 22.365052
_cell_length_c 13.742678
_cell_angle_alpha 90.000000
_cell_angle_beta 90.000000
_cell_angle_gamma 90.000000
_cell_volume 4731.290235
_symmetry_space_group_name_H-M "C M C A"
_symmetry_group_IT_number 64
_symmetry_cell_setting 'orthorhombic'
loop_
_space_group_symop_operation_xyz
x,y,z
-x,1/2-y,1/2+z
x,-y,-z
-x,1/2+y,1/2-z
-x,-y,-z
x,1/2+y,1/2-z
-x,y,z
x,1/2-y,1/2+z
1/2+x,1/2+y,z
1/2-x,-y,1/2+z
1/2+x,1/2-y,-z
1/2-x,y,1/2-z
1/2-x,1/2-y,-z
1/2+x,y,1/2-z
1/2-x,1/2+y,z
1/2+x,-y,1/2+z
loop_
_atom_site_type_symbol
_atom_site_label
_atom_site_fract_x
_atom_site_fract_y
_atom_site_fract_z
Si Si1 0.000000 0.316791 0.249094
Si Si2 0.831160 0.122261 0.318620
Si Si3 0.000000 0.742584 0.942848
Si Si4 0.323580 0.798963 0.006075
Si Si5 0.338789 0.622835 0.695753
Si Si6 0.101307 0.498646 0.888700
Si Si7 0.500000 0.185101 0.261064
O O1 0.909810 0.351005 0.273814
O O2 0.000000 0.249856 0.293774
O O3 0.000000 0.314376 0.130412
O O4 0.750000 0.134970 0.250000
O O5 0.813222 0.152048 0.422512
O O6 0.844025 0.051705 0.332628
O O7 0.915199 0.149071 0.267116
O O8 0.085570 0.736626 0.008972
O O9 0.000000 0.803736 0.878445
O O10 0.318161 0.830029 0.110926
O O11 0.250000 0.750000 0.000000
O O12 0.250000 0.608538 0.750000
O O13 0.379170 0.562181 0.656781
O O14 0.000000 0.482705 0.879931
O O15 0.131170 0.500000 0.000000
#
# Coordination Sequence:
#
# PCOD8263688 Si02
#       7
#     8  16   8  16  16  16   8
#     4   8  20  35  57  86 118 151 198 242 297 366
#     4  12  24  38  62  91 125 164 207 260 314 371
#     4   8  19  37  55  79 127 153 194 243 297 362
#     4  11  23  37  58  92 123 163 202 250 308 375
#     4  11  22  40  63  85 121 165 204 254 306 370
#     4  11  22  40  65  90 119 156 210 264 316 368
#     4  10  21  36  58  90 122 159 194 247 312 370
#
# _framework density 18.599578000000001
#
# number of rings (size 3 to 8) (size 9 to 14) (size 15 to 20)
#    0.545    0.909    3.636    2.182    2.545    0.000 
#    0.000    0.000    0.000    0.000    0.000    2.545 
#    0.000    0.000    0.000    0.000    0.000    0.000 
#
# Total GULP energy -545474.575798 kJ/mol
# GULP energy per Si atom -12397.149450 kJ/mol
# Density = 1.855724 g / cm^3
# Si number density = 18.599578 Si / 1000 Ang^3
#
#
#
# Elastic Constant Matrix: (Units=GPa)
#
#
# Indices 1 2 3 4 5 6 
#
# 1 110.1602 26.4903 16.9204 0.0000 0.0000 0.0000
# 2 26.4903 103.4410 11.3651 0.0000 0.0000 0.0000
# 3 16.9204 11.3651 46.6830 0.0000 0.0000 0.0000
# 4 0.0000 0.0000 0.0000 27.4881 0.0000 0.0000
# 5 0.0000 0.0000 0.0000 0.0000 25.6127 0.0000
# 6 0.0000 0.0000 0.0000 0.0000 0.0000 49.0022
#
#
#
# Elastic Compliance Matrix: (Units=1/GPa)
#
#
# Indices 1 2 3 4 5 6 
#
# 1 0.010095 -0.002243 -0.003113 0.000000 0.000000 0.000000
# 2 -0.002243 0.010432 -0.001726 0.000000 0.000000 0.000000
# 3 -0.003113 -0.001726 0.022970 0.000000 0.000000 0.000000
# 4 0.000000 0.000000 0.000000 0.036379 0.000000 0.000000
# 5 0.000000 0.000000 0.000000 0.000000 0.039043 0.000000
# 6 0.000000 0.000000 0.000000 0.000000 0.000000 0.020407
#
#
# Mechanical properties :
#
#
# Convention : Reuss Voigt Hill
#
# Bulk Modulus (GPa) = 34.09356 41.09287 37.59321
# Shear Modulus (GPa) = 30.62437 34.12117 32.37277
#
# Velocity S-wave (km/s) = 4.06212 4.28777 4.17647
# Velocity P-wave (km/s) = 6.35383 6.83042 6.59643
#
# Compressibility (1/GPa) = 0.02933105
#
# Stress axis : x y z
#
# Youngs Moduli (GPa) = 99.05629 95.86332 43.53566
#
# Poissons Ratio (x) = 0.21505 0.13552
# Poissons Ratio (y) = 0.22221 0.07516
# Poissons Ratio (z) = 0.30835 0.16551
#
# Static dielectric constant tensor:
#      x y z
#    x 3.433880 0.000000 0.000000 
#    y 0.000000 3.553980 0.000000 
#    z 0.000000 0.000000 3.113250 
# 
# 
# High freq. dielectric constant tensor:
#      x y z
#    x 1.736700 0.000000 0.000000 
#    y 0.000000 1.724110 0.000000 
#    z 0.000000 0.000000 1.701430 
# 
# From -- ./inp_files/22470.got.cif
#   From: 2010.03.12/outbox.cif.g09.slc.cpg/sg64_12_cif.got.tgz:22470.got - 2010.04.10 20:19:32.
