data_PCOD8263706
_publ_section_title
;
Structure prediction by ZEFSAII (Michael W. Deem and Ramdas Pophale) SiO2 
 PCOD8263706
Probable space group: C M C A
;
_chemical_formula_sum "Si O2"
_cell_formula_units_Z 48
_cell_length_a 12.611435
_cell_length_b 12.179994
_cell_length_c 11.858420
_cell_angle_alpha 90.000000
_cell_angle_beta 90.000000
_cell_angle_gamma 90.000000
_cell_volume 1821.538724
_symmetry_space_group_name_H-M "C M C A"
_symmetry_group_IT_number 64
_symmetry_cell_setting 'orthorhombic'
loop_
_space_group_symop_operation_xyz
x,y,z
-x,1/2-y,1/2+z
x,-y,-z
-x,1/2+y,1/2-z
-x,-y,-z
x,1/2+y,1/2-z
-x,y,z
x,1/2-y,1/2+z
1/2+x,1/2+y,z
1/2-x,-y,1/2+z
1/2+x,1/2-y,-z
1/2-x,y,1/2-z
1/2-x,1/2-y,-z
1/2+x,y,1/2-z
1/2-x,1/2+y,z
1/2+x,-y,1/2+z
loop_
_atom_site_type_symbol
_atom_site_label
_atom_site_fract_x
_atom_site_fract_y
_atom_site_fract_z
Si Si1 0.621237 0.194401 0.116826
Si Si2 0.383847 0.989174 0.707259
Si Si3 0.282928 0.894119 0.098752
O O1 0.500000 0.237524 0.099447
O O2 0.707301 0.289494 0.114693
O O3 0.628494 0.128998 0.234166
O O4 0.648329 0.109660 0.014787
O O5 0.500000 0.002670 0.655096
O O6 0.363533 0.090191 0.795704
O O7 0.296774 0.998681 0.606946
#
# Coordination Sequence:
#
# PCOD8263706 Si02
#       3
#    16  16  16
#     4  10  21  40  65  91 124 167 209 256 315 372
#     4  10  21  38  62  90 122 161 206 257 313 370
#     4  10  21  36  63  94 123 159 210 257 305 371
#
# _framework density 26.351345999999999
#
# number of rings (size 3 to 8) (size 9 to 14) (size 15 to 20)
#    0.000    2.000    0.000    3.000    0.000    8.000 
#    0.000    0.000    0.000  104.000    0.000    0.000 
#    0.000    0.000    0.000    0.000    0.000    0.000 
#
# Total GULP energy -297356.367837 kJ/mol
# GULP energy per Si atom -12389.848660 kJ/mol
# Density = 2.629137 g / cm^3
# Si number density = 26.351346 Si / 1000 Ang^3
#
#
#
# Elastic Constant Matrix: (Units=GPa)
#
#
# Indices 1 2 3 4 5 6 
#
# 1 123.7723 13.3678 -2.7638 0.0000 0.0000 0.0000
# 2 13.3678 73.4166 3.3572 0.0000 0.0000 0.0000
# 3 -2.7638 3.3572 47.1744 0.0000 0.0000 0.0000
# 4 0.0000 0.0000 0.0000 32.0462 0.0000 0.0000
# 5 0.0000 0.0000 0.0000 0.0000 42.9071 0.0000
# 6 0.0000 0.0000 0.0000 0.0000 0.0000 41.0453
#
#
#
# Elastic Compliance Matrix: (Units=1/GPa)
#
#
# Indices 1 2 3 4 5 6 
#
# 1 0.008258 -0.001531 0.000593 0.000000 0.000000 0.000000
# 2 -0.001531 0.013949 -0.001082 0.000000 0.000000 0.000000
# 3 0.000593 -0.001082 0.021310 0.000000 0.000000 0.000000
# 4 0.000000 0.000000 0.000000 0.031205 0.000000 0.000000
# 5 0.000000 0.000000 0.000000 0.000000 0.023306 0.000000
# 6 0.000000 0.000000 0.000000 0.000000 0.000000 0.024363
#
#
# Mechanical properties :
#
#
# Convention : Reuss Voigt Hill
#
# Bulk Modulus (GPa) = 25.33183 30.25394 27.79289
# Shear Modulus (GPa) = 35.81908 38.55989 37.18948
#
# Velocity S-wave (km/s) = 3.69085 3.82946 3.76079
# Velocity P-wave (km/s) = 5.27230 5.57305 5.42476
#
# Compressibility (1/GPa) = 0.03947603
#
# Stress axis : x y z
#
# Youngs Moduli (GPa) = 121.09601 71.68918 46.92701
#
# Poissons Ratio (x) = 0.10974 -0.02782
# Poissons Ratio (y) = 0.18536 0.05079
# Poissons Ratio (z) = -0.07178 0.07759
#
# Static dielectric constant tensor:
#      x y z
#    x 5.181260 0.000000 0.000000 
#    y 0.000000 4.668620 0.000000 
#    z 0.000000 0.000000 4.912620 
# 
# 
# High freq. dielectric constant tensor:
#      x y z
#    x 2.074020 0.000000 0.000000 
#    y 0.000000 2.055110 0.000000 
#    z 0.000000 0.000000 2.045050 
# 
# From -- ./inp_files/22958.got.cif
#   From: 2010.03.12/outbox.cif.g09.slc.cpg/sg64_12_cif.got.tgz:22958.got - 2010.04.10 20:19:32.
