data_PCOD8263126
_publ_section_title
;
Structure prediction by ZEFSAII (Michael W. Deem and Ramdas Pophale) SiO2 
 PCOD8263126
Probable space group: C M C A
;
_chemical_formula_sum "Si O2"
_cell_formula_units_Z 96
_cell_length_a 8.767339
_cell_length_b 23.380154
_cell_length_c 25.461280
_cell_angle_alpha 90.000000
_cell_angle_beta 90.000000
_cell_angle_gamma 90.000000
_cell_volume 5219.097375
_symmetry_space_group_name_H-M "C M C A"
_symmetry_group_IT_number 64
_symmetry_cell_setting 'orthorhombic'
loop_
_space_group_symop_operation_xyz
x,y,z
-x,1/2-y,1/2+z
x,-y,-z
-x,1/2+y,1/2-z
-x,-y,-z
x,1/2+y,1/2-z
-x,y,z
x,1/2-y,1/2+z
1/2+x,1/2+y,z
1/2-x,-y,1/2+z
1/2+x,1/2-y,-z
1/2-x,y,1/2-z
1/2-x,1/2-y,-z
1/2+x,y,1/2-z
1/2-x,1/2+y,z
1/2+x,-y,1/2+z
loop_
_atom_site_type_symbol
_atom_site_label
_atom_site_fract_x
_atom_site_fract_y
_atom_site_fract_z
Si Si1 0.321216 0.433655 0.194814
Si Si2 0.319634 0.936398 0.694158
Si Si3 0.823118 0.130693 0.600531
Si Si4 0.681353 0.366651 0.600355
Si Si5 0.322112 0.254773 0.942545
Si Si6 0.681511 0.936108 0.999761
O O1 0.500000 0.429146 0.200972
O O2 0.250000 0.415439 0.250000
O O3 0.272661 0.498455 0.179334
O O4 0.266539 0.388665 0.151784
O O5 0.500000 0.928792 0.696081
O O6 0.250000 0.919624 0.750000
O O7 0.249387 0.892671 0.652963
O O8 0.795921 0.197258 0.590339
O O9 0.756079 0.096203 0.550877
O O10 0.000000 0.116230 0.608805
O O11 0.500000 0.366155 0.603816
O O12 0.741183 0.302765 0.592262
O O13 0.742146 0.404389 0.551834
O O14 0.500000 0.268198 0.949641
O O15 0.250000 0.250000 0.000000
O O16 0.500000 0.935792 0.999848
O O17 0.747943 0.000000 0.000000
#
# Coordination Sequence:
#
# PCOD8263126 Si02
#       6
#    16  16  16  16  16  16
#     4  10  21  37  59  86 116 150 188 233 285 340
#     4  10  21  38  59  86 117 151 189 232 286 341
#     4  10  20  36  56  81 113 151 192 232 280 338
#     4  11  21  36  58  84 114 151 193 235 285 340
#     4  11  22  38  58  81 114 155 196 238 284 339
#     4   9  17  30  51  80 112 145 182 224 276 338
#
# _framework density 18.393985000000001
#
# number of rings (size 3 to 8) (size 9 to 14) (size 15 to 20)
#    0.000    1.833    1.667    3.000    0.000    4.667 
#    0.000    0.833    0.000    7.500    0.000    0.000 
#    0.000    0.000    0.000    0.000    0.000    0.000 
#
# Total GULP energy -595361.066181 kJ/mol
# GULP energy per Si atom -12403.355545 kJ/mol
# Density = 1.835212 g / cm^3
# Si number density = 18.393985 Si / 1000 Ang^3
#
#
#
# Elastic Constant Matrix: (Units=GPa)
#
#
# Indices 1 2 3 4 5 6 
#
# 1 77.1715 42.7170 55.6972 0.0000 0.0000 0.0000
# 2 42.7170 113.6604 72.7111 0.0000 0.0000 0.0000
# 3 55.6972 72.7111 150.2640 0.0000 0.0000 0.0000
# 4 0.0000 0.0000 0.0000 24.5329 0.0000 0.0000
# 5 0.0000 0.0000 0.0000 0.0000 33.2617 0.0000
# 6 0.0000 0.0000 0.0000 0.0000 0.0000 27.7908
#
#
#
# Elastic Compliance Matrix: (Units=1/GPa)
#
#
# Indices 1 2 3 4 5 6 
#
# 1 0.018741 -0.003765 -0.005125 0.000000 0.000000 0.000000
# 2 -0.003765 0.013499 -0.005137 0.000000 0.000000 0.000000
# 3 -0.005125 -0.005137 0.011040 0.000000 0.000000 0.000000
# 4 0.000000 0.000000 0.000000 0.040762 0.000000 0.000000
# 5 0.000000 0.000000 0.000000 0.000000 0.030065 0.000000
# 6 0.000000 0.000000 0.000000 0.000000 0.000000 0.035983
#
#
# Mechanical properties :
#
#
# Convention : Reuss Voigt Hill
#
# Bulk Modulus (GPa) = 65.67058 75.92741 70.79900
# Shear Modulus (GPa) = 27.28997 28.44845 27.86921
#
# Velocity S-wave (km/s) = 3.85598 3.93697 3.89668
# Velocity P-wave (km/s) = 7.45684 7.87619 7.66938
#
# Compressibility (1/GPa) = 0.01522752
#
# Stress axis : x y z
#
# Youngs Moduli (GPa) = 53.35934 74.07906 90.57977
#
# Poissons Ratio (x) = 0.27891 0.46419
# Poissons Ratio (y) = 0.20090 0.46526
# Poissons Ratio (z) = 0.27345 0.38051
#
# Static dielectric constant tensor:
#      x y z
#    x 3.326550 0.000000 0.000000 
#    y 0.000000 3.435490 0.000000 
#    z 0.000000 0.000000 3.390700 
# 
# 
# High freq. dielectric constant tensor:
#      x y z
#    x 1.709230 0.000000 0.000000 
#    y 0.000000 1.716700 0.000000 
#    z 0.000000 0.000000 1.717270 
# 
# From -- ./inp_files/43216.got.cif
#   From: 2010.03.12/outbox.cif.g09.slc.cpg/sg64_22_cif.got.tgz:43216.got - 2010.04.10 20:19:32.
