data_PCOD8263798
_publ_section_title
;
Structure prediction by ZEFSAII (Michael W. Deem and Ramdas Pophale) SiO2 
 PCOD8263798
Probable space group: C M C A
;
_chemical_formula_sum "Si O2"
_cell_formula_units_Z 80
_cell_length_a 22.706300
_cell_length_b 8.791269
_cell_length_c 19.310666
_cell_angle_alpha 90.000000
_cell_angle_beta 90.000000
_cell_angle_gamma 90.000000
_cell_volume 3854.740909
_symmetry_space_group_name_H-M "C M C A"
_symmetry_group_IT_number 64
_symmetry_cell_setting 'orthorhombic'
loop_
_space_group_symop_operation_xyz
x,y,z
-x,1/2-y,1/2+z
x,-y,-z
-x,1/2+y,1/2-z
-x,-y,-z
x,1/2+y,1/2-z
-x,y,z
x,1/2-y,1/2+z
1/2+x,1/2+y,z
1/2-x,-y,1/2+z
1/2+x,1/2-y,-z
1/2-x,y,1/2-z
1/2-x,1/2-y,-z
1/2+x,y,1/2-z
1/2-x,1/2+y,z
1/2+x,-y,1/2+z
loop_
_atom_site_type_symbol
_atom_site_label
_atom_site_fract_x
_atom_site_fract_y
_atom_site_fract_z
Si Si1 0.164867 0.223223 0.394548
Si Si2 0.625757 0.162769 0.466254
Si Si3 0.567433 0.277976 0.335596
Si Si4 0.265364 0.018719 0.419553
Si Si5 0.930049 0.108564 0.298215
O O1 0.138264 0.219024 0.472211
O O2 0.206499 0.075913 0.380938
O O3 0.207516 0.368818 0.384017
O O4 0.108780 0.225860 0.343825
O O5 0.576666 0.228370 0.415007
O O6 0.683785 0.147994 0.418070
O O7 0.607509 0.000000 0.500000
O O8 0.500000 0.311483 0.324981
O O9 0.585823 0.145556 0.281782
O O10 0.595461 0.441470 0.316299
O O11 0.249408 0.000000 0.500000
O O12 0.000000 0.132346 0.313870
#
# Coordination Sequence:
#
# PCOD8263798 Si02
#       5
#    16  16  16  16  16
#     4  10  21  37  65  91 124 159 206 256 300 373
#     4   9  20  37  63  93 126 161 211 255 310 369
#     4  10  23  42  63  90 124 169 209 256 321 372
#     4   9  19  35  59  92 121 165 195 244 317 358
#     4  10  24  42  65  89 123 168 207 257 319 377
#
# _framework density 20.753665999999999
#
# number of rings (size 3 to 8) (size 9 to 14) (size 15 to 20)
#    0.000    2.800    0.000    2.400   11.200    1.200 
#    0.000    3.000    0.000    0.600    0.000    0.000 
#    0.000    0.000    0.000    0.000    0.000    0.000 
#
# Total GULP energy -495575.642259 kJ/mol
# GULP energy per Si atom -12389.391056 kJ/mol
# Density = 2.070643 g / cm^3
# Si number density = 20.753666 Si / 1000 Ang^3
#
#
#
# Elastic Constant Matrix: (Units=GPa)
#
#
# Indices 1 2 3 4 5 6 
#
# 1 57.1657 36.8176 40.6756 0.0000 0.0000 0.0000
# 2 36.8176 85.5818 53.4339 0.0000 0.0000 0.0000
# 3 40.6756 53.4339 92.8085 0.0000 0.0000 0.0000
# 4 0.0000 0.0000 0.0000 28.7993 0.0000 0.0000
# 5 0.0000 0.0000 0.0000 0.0000 22.0655 0.0000
# 6 0.0000 0.0000 0.0000 0.0000 0.0000 26.8062
#
#
#
# Elastic Compliance Matrix: (Units=1/GPa)
#
#
# Indices 1 2 3 4 5 6 
#
# 1 0.027729 -0.006778 -0.008251 0.000000 0.000000 0.000000
# 2 -0.006778 0.019899 -0.008486 0.000000 0.000000 0.000000
# 3 -0.008251 -0.008486 0.019277 0.000000 0.000000 0.000000
# 4 0.000000 0.000000 0.000000 0.034723 0.000000 0.000000
# 5 0.000000 0.000000 0.000000 0.000000 0.045320 0.000000
# 6 0.000000 0.000000 0.000000 0.000000 0.000000 0.037305
#
#
# Mechanical properties :
#
#
# Convention : Reuss Voigt Hill
#
# Bulk Modulus (GPa) = 50.31309 55.26779 52.79044
# Shear Modulus (GPa) = 21.01669 22.50947 21.76308
#
# Velocity S-wave (km/s) = 3.18571 3.29690 3.24178
# Velocity P-wave (km/s) = 6.15039 6.41724 6.28523
#
# Compressibility (1/GPa) = 0.01987554
#
# Stress axis : x y z
#
# Youngs Moduli (GPa) = 36.06358 50.25383 51.87580
#
# Poissons Ratio (x) = 0.34060 0.42801
# Poissons Ratio (y) = 0.24443 0.44023
# Poissons Ratio (z) = 0.29755 0.42647
#
# Static dielectric constant tensor:
#      x y z
#    x 3.691440 0.000000 0.000000 
#    y 0.000000 3.744130 0.000000 
#    z 0.000000 0.000000 3.512710 
# 
# 
# High freq. dielectric constant tensor:
#      x y z
#    x 1.804470 0.000000 0.000000 
#    y 0.000000 1.812660 0.000000 
#    z 0.000000 0.000000 1.783450 
# 
# From -- ./inp_files/35378.got.cif
#   From: 2010.03.12/outbox.cif.g09.slc.cpg/sg64_18_cif.got.tgz:35378.got - 2010.04.10 20:19:32.
