data_PCOD8263916
_publ_section_title
;
Structure prediction by ZEFSAII (Michael W. Deem and Ramdas Pophale) SiO2 
 PCOD8263916
Probable space group: C M C A
;
_chemical_formula_sum "Si O2"
_cell_formula_units_Z 56
_cell_length_a 16.969141
_cell_length_b 16.520884
_cell_length_c 8.508991
_cell_angle_alpha 90.000000
_cell_angle_beta 90.000000
_cell_angle_gamma 90.000000
_cell_volume 2385.454869
_symmetry_space_group_name_H-M "C M C A"
_symmetry_group_IT_number 64
_symmetry_cell_setting 'orthorhombic'
loop_
_space_group_symop_operation_xyz
x,y,z
-x,1/2-y,1/2+z
x,-y,-z
-x,1/2+y,1/2-z
-x,-y,-z
x,1/2+y,1/2-z
-x,y,z
x,1/2-y,1/2+z
1/2+x,1/2+y,z
1/2-x,-y,1/2+z
1/2+x,1/2-y,-z
1/2-x,y,1/2-z
1/2-x,1/2-y,-z
1/2+x,y,1/2-z
1/2-x,1/2+y,z
1/2+x,-y,1/2+z
loop_
_atom_site_type_symbol
_atom_site_label
_atom_site_fract_x
_atom_site_fract_y
_atom_site_fract_z
Si Si1 0.250000 0.526104 0.750000
Si Si2 0.750000 0.788974 0.750000
Si Si3 0.000000 0.865994 0.460984
Si Si4 0.130304 0.000000 0.500000
Si Si5 0.167630 0.157103 0.955252
Si Si6 0.000000 0.701861 0.619252
O O1 0.184933 0.476480 0.849774
O O2 0.201296 0.577957 0.625038
O O3 0.807399 0.736073 0.642041
O O4 0.697896 0.844091 0.634664
O O5 0.000000 0.799482 0.598880
O O6 0.078207 0.920825 0.466727
O O7 0.000000 0.813215 0.304464
O O8 0.073598 0.157234 0.961248
#
# Coordination Sequence:
#
# PCOD8263916 Si02
#       6
#     8   8   8   8  16   8
#     4  11  24  47  72  98 147 201 252 298 377 455
#     4   9  20  35  60 104 143 183 240 304 363 415
#     4  11  26  48  78 109 158 193 248 314 385 447
#     4  11  26  52  72 107 154 208 242 313 382 462
#     4  10  21  38  68 104 143 188 245 306 363 444
#     4  12  22  44  74 116 146 193 243 319 370 454
#
# _framework density 23.475605999999999
#
# number of rings (size 3 to 8) (size 9 to 14) (size 15 to 20)
#    0.000    1.429    2.857    1.714    8.000    1.143 
#    5.143    0.000    0.000    4.286    0.000    0.000 
#    0.000    0.000    0.000    0.000    0.000    0.000 
#
# Total GULP energy -347265.738891 kJ/mol
# GULP energy per Si atom -12402.347818 kJ/mol
# Density = 2.342217 g / cm^3
# Si number density = 23.475606 Si / 1000 Ang^3
#
#
#
# Elastic Constant Matrix: (Units=GPa)
#
#
# Indices 1 2 3 4 5 6 
#
# 1 186.6228 40.3246 78.8849 0.0000 0.0000 0.0000
# 2 40.3246 69.0572 44.5734 0.0000 0.0000 0.0000
# 3 78.8849 44.5734 173.8606 0.0000 0.0000 0.0000
# 4 0.0000 0.0000 0.0000 19.0363 0.0000 0.0000
# 5 0.0000 0.0000 0.0000 0.0000 40.2611 0.0000
# 6 0.0000 0.0000 0.0000 0.0000 0.0000 56.8277
#
#
#
# Elastic Compliance Matrix: (Units=1/GPa)
#
#
# Indices 1 2 3 4 5 6 
#
# 1 0.006953 -0.002425 -0.002533 0.000000 0.000000 0.000000
# 2 -0.002425 0.018198 -0.003565 0.000000 0.000000 0.000000
# 3 -0.002533 -0.003565 0.007815 0.000000 0.000000 0.000000
# 4 0.000000 0.000000 0.000000 0.052531 0.000000 0.000000
# 5 0.000000 0.000000 0.000000 0.000000 0.024838 0.000000
# 6 0.000000 0.000000 0.000000 0.000000 0.000000 0.017597
#
#
# Mechanical properties :
#
#
# Convention : Reuss Voigt Hill
#
# Bulk Modulus (GPa) = 62.81614 84.12292 73.46953
# Shear Modulus (GPa) = 33.26995 40.94218 37.10607
#
# Velocity S-wave (km/s) = 3.76867 4.18069 3.98002
# Velocity P-wave (km/s) = 6.76412 7.69521 7.24464
#
# Compressibility (1/GPa) = 0.01591948
#
# Stress axis : x y z
#
# Youngs Moduli (GPa) = 143.82000 54.95097 127.95801
#
# Poissons Ratio (x) = 0.13327 0.32413
# Poissons Ratio (y) = 0.34879 0.45619
# Poissons Ratio (z) = 0.36430 0.19591
#
# Static dielectric constant tensor:
#      x y z
#    x 4.447750 0.000000 0.000000 
#    y 0.000000 3.945430 0.000000 
#    z 0.000000 0.000000 4.394630 
# 
# 
# High freq. dielectric constant tensor:
#      x y z
#    x 1.943210 0.000000 0.000000 
#    y 0.000000 1.914990 0.000000 
#    z 0.000000 0.000000 1.942960 
# 
# From -- ./inp_files/5430.got.cif
#   From: 2010.03.12/outbox.cif.g09.slc.cpg/sg64_3_cif.got.tgz:5430.got - 2010.04.10 20:19:32.
