data_PCOD8263729
_publ_section_title
;
Structure prediction by ZEFSAII (Michael W. Deem and Ramdas Pophale) SiO2 
 PCOD8263729
Probable space group: C M C A
;
_chemical_formula_sum "Si O2"
_cell_formula_units_Z 64
_cell_length_a 25.515000
_cell_length_b 5.041638
_cell_length_c 25.981874
_cell_angle_alpha 90.000000
_cell_angle_beta 90.000000
_cell_angle_gamma 90.000000
_cell_volume 3342.240551
_symmetry_space_group_name_H-M "C M C A"
_symmetry_group_IT_number 64
_symmetry_cell_setting 'orthorhombic'
loop_
_space_group_symop_operation_xyz
x,y,z
-x,1/2-y,1/2+z
x,-y,-z
-x,1/2+y,1/2-z
-x,-y,-z
x,1/2+y,1/2-z
-x,y,z
x,1/2-y,1/2+z
1/2+x,1/2+y,z
1/2-x,-y,1/2+z
1/2+x,1/2-y,-z
1/2-x,y,1/2-z
1/2-x,1/2-y,-z
1/2+x,y,1/2-z
1/2-x,1/2+y,z
1/2+x,-y,1/2+z
loop_
_atom_site_type_symbol
_atom_site_label
_atom_site_fract_x
_atom_site_fract_y
_atom_site_fract_z
Si Si1 0.940029 0.557223 0.783586
Si Si2 0.215854 0.521770 0.058856
Si Si3 0.060764 0.974343 0.941560
Si Si4 0.607197 0.975484 0.891243
O O1 0.928854 0.347990 0.738470
O O2 0.900946 0.508987 0.830573
O O3 0.000000 0.530584 0.803167
O O4 0.238350 0.812353 0.070083
O O5 0.167640 0.465695 0.096624
O O6 0.195981 0.500000 0.000000
O O7 0.093518 0.175834 0.906706
O O8 0.000000 0.046218 0.936662
O O9 0.070229 0.676346 0.922538
O O10 0.080417 0.000000 0.000000
#
# Coordination Sequence:
#
# PCOD8263729 Si02
#       4
#    16  16  16  16
#     4  10  21  37  57  82 111 145 189 236 280 332
#     4  10  21  37  57  82 111 145 189 236 280 332
#     4  11  22  34  52  84 120 149 180 220 276 351
#     4  12  22  37  60  81 112 154 192 230 284 336
#
# _framework density 19.148831000000001
#
# number of rings (size 3 to 8) (size 9 to 14) (size 15 to 20)
#    0.000    1.250    0.000    7.500    0.000    6.000 
#    0.000    0.000    0.000    4.500    0.000    0.000 
#    0.000    0.000    0.000    0.000    0.000    0.000 
#
# Total GULP energy -397078.812704 kJ/mol
# GULP energy per Si atom -12408.712897 kJ/mol
# Density = 1.910525 g / cm^3
# Si number density = 19.148831 Si / 1000 Ang^3
#
#
#
# Elastic Constant Matrix: (Units=GPa)
#
#
# Indices 1 2 3 4 5 6 
#
# 1 82.2480 7.3685 47.4791 0.0000 0.0000 0.0000
# 2 7.3685 73.6281 7.7039 0.0000 0.0000 0.0000
# 3 47.4791 7.7039 100.5401 0.0000 0.0000 0.0000
# 4 0.0000 0.0000 0.0000 23.0620 0.0000 0.0000
# 5 0.0000 0.0000 0.0000 0.0000 32.9548 0.0000
# 6 0.0000 0.0000 0.0000 0.0000 0.0000 18.7004
#
#
#
# Elastic Compliance Matrix: (Units=1/GPa)
#
#
# Indices 1 2 3 4 5 6 
#
# 1 0.016768 -0.000856 -0.007853 0.000000 0.000000 0.000000
# 2 -0.000856 0.013735 -0.000648 0.000000 0.000000 0.000000
# 3 -0.007853 -0.000648 0.013704 0.000000 0.000000 0.000000
# 4 0.000000 0.000000 0.000000 0.043361 0.000000 0.000000
# 5 0.000000 0.000000 0.000000 0.000000 0.030345 0.000000
# 6 0.000000 0.000000 0.000000 0.000000 0.000000 0.053475
#
#
# Mechanical properties :
#
#
# Convention : Reuss Voigt Hill
#
# Bulk Modulus (GPa) = 39.22636 42.39101 40.80868
# Shear Modulus (GPa) = 25.17603 27.86776 26.52190
#
# Velocity S-wave (km/s) = 3.62989 3.81901 3.72565
# Velocity P-wave (km/s) = 6.17232 6.45230 6.31386
#
# Compressibility (1/GPa) = 0.02549306
#
# Stress axis : x y z
#
# Youngs Moduli (GPa) = 59.63593 72.80518 72.96887
#
# Poissons Ratio (x) = 0.06235 0.57303
# Poissons Ratio (y) = 0.05107 0.04729
# Poissons Ratio (z) = 0.46833 0.04718
#
# Static dielectric constant tensor:
#      x y z
#    x 3.258790 0.000000 0.000000 
#    y 0.000000 3.637720 0.000000 
#    z 0.000000 0.000000 3.342870 
# 
# 
# High freq. dielectric constant tensor:
#      x y z
#    x 1.728400 0.000000 0.000000 
#    y 0.000000 1.766600 0.000000 
#    z 0.000000 0.000000 1.731380 
# 
# From -- ./inp_files/1667.got.cif
#   From: 2010.03.12/outbox.cif.g09.slc.cpg/sg64_1_cif.got.tgz:1667.got - 2010.04.10 20:19:32.
