data_PCOD8263056
_publ_section_title
;
Structure prediction by ZEFSAII (Michael W. Deem and Ramdas Pophale) SiO2 
 PCOD8263056
Probable space group: C M C A
;
_chemical_formula_sum "Si O2"
_cell_formula_units_Z 64
_cell_length_a 10.388506
_cell_length_b 17.459587
_cell_length_c 15.964943
_cell_angle_alpha 90.000000
_cell_angle_beta 90.000000
_cell_angle_gamma 90.000000
_cell_volume 2895.705784
_symmetry_space_group_name_H-M "C M C A"
_symmetry_group_IT_number 64
_symmetry_cell_setting 'orthorhombic'
loop_
_space_group_symop_operation_xyz
x,y,z
-x,1/2-y,1/2+z
x,-y,-z
-x,1/2+y,1/2-z
-x,-y,-z
x,1/2+y,1/2-z
-x,y,z
x,1/2-y,1/2+z
1/2+x,1/2+y,z
1/2-x,-y,1/2+z
1/2+x,1/2-y,-z
1/2-x,y,1/2-z
1/2-x,1/2-y,-z
1/2+x,y,1/2-z
1/2-x,1/2+y,z
1/2+x,-y,1/2+z
loop_
_atom_site_type_symbol
_atom_site_label
_atom_site_fract_x
_atom_site_fract_y
_atom_site_fract_z
Si Si1 0.644130 0.683378 0.819228
Si Si2 0.858177 0.494281 0.815028
Si Si3 0.779360 0.426721 0.454825
Si Si4 0.145394 0.840021 0.598453
O O1 0.500000 0.694795 0.780633
O O2 0.750000 0.659644 0.750000
O O3 0.630051 0.616622 0.888846
O O4 0.695784 0.761027 0.862090
O O5 0.750000 0.521534 0.750000
O O6 0.841346 0.537102 0.904020
O O7 0.847820 0.403492 0.828734
O O8 0.000000 0.515777 0.779455
O O9 0.849411 0.500000 0.500000
O O10 0.734740 0.363259 0.521077
O O11 0.000000 0.829948 0.565463
#
# Coordination Sequence:
#
# PCOD8263056 Si02
#       4
#    16  16  16  16
#     4  11  24  41  62  88 119 154 193 239 289 345
#     4  10  20  35  58  86 117 155 197 241 289 343
#     4  10  21  37  59  87 118 152 192 240 292 344
#     4   9  19  38  61  86 116 153 197 241 289 343
#
# _framework density 22.101693000000001
#
# number of rings (size 3 to 8) (size 9 to 14) (size 15 to 20)
#    0.000    2.000    0.000    3.000    0.000    8.500 
#    0.000    5.000    0.000    0.000    0.000    0.000 
#    0.000    0.000    0.000    0.000    0.000    0.000 
#
# Total GULP energy -396646.707296 kJ/mol
# GULP energy per Si atom -12395.209603 kJ/mol
# Density = 2.205139 g / cm^3
# Si number density = 22.101693 Si / 1000 Ang^3
#
#
#
# Elastic Constant Matrix: (Units=GPa)
#
#
# Indices 1 2 3 4 5 6 
#
# 1 115.1755 18.0796 47.1010 0.0000 0.0000 0.0000
# 2 18.0796 127.6866 44.7063 0.0000 0.0000 0.0000
# 3 47.1010 44.7063 102.3762 0.0000 0.0000 0.0000
# 4 0.0000 0.0000 0.0000 43.0798 0.0000 0.0000
# 5 0.0000 0.0000 0.0000 0.0000 23.5696 0.0000
# 6 0.0000 0.0000 0.0000 0.0000 0.0000 12.8978
#
#
#
# Elastic Compliance Matrix: (Units=1/GPa)
#
#
# Indices 1 2 3 4 5 6 
#
# 1 0.010701 0.000246 -0.005031 0.000000 0.000000 0.000000
# 2 0.000246 0.009251 -0.004153 0.000000 0.000000 0.000000
# 3 -0.005031 -0.004153 0.013896 0.000000 0.000000 0.000000
# 4 0.000000 0.000000 0.000000 0.023213 0.000000 0.000000
# 5 0.000000 0.000000 0.000000 0.000000 0.042428 0.000000
# 6 0.000000 0.000000 0.000000 0.000000 0.000000 0.077533
#
#
# Mechanical properties :
#
#
# Convention : Reuss Voigt Hill
#
# Bulk Modulus (GPa) = 62.60669 62.77913 62.69291
# Shear Modulus (GPa) = 24.97245 31.59954 28.28600
#
# Velocity S-wave (km/s) = 3.36503 3.78528 3.58133
# Velocity P-wave (km/s) = 6.59439 6.89716 6.74748
#
# Compressibility (1/GPa) = 0.01597273
#
# Stress axis : x y z
#
# Youngs Moduli (GPa) = 93.44810 108.09780 71.96290
#
# Poissons Ratio (x) = -0.02662 0.36204
# Poissons Ratio (y) = -0.02301 0.29886
# Poissons Ratio (z) = 0.47013 0.44893
#
# Static dielectric constant tensor:
#      x y z
#    x 3.563970 0.000000 0.000000 
#    y 0.000000 4.240780 0.000000 
#    z 0.000000 0.000000 3.795590 
# 
# 
# High freq. dielectric constant tensor:
#      x y z
#    x 1.840400 0.000000 0.000000 
#    y 0.000000 1.895680 0.000000 
#    z 0.000000 0.000000 1.859070 
# 
# From -- ./inp_files/21945.got.cif
#   From: 2010.03.12/outbox.cif.g09.slc.cpg/sg64_11_cif.got.tgz:21945.got - 2010.04.10 20:19:32.
