data_PCOD8263740
_publ_section_title
;
Structure prediction by ZEFSAII (Michael W. Deem and Ramdas Pophale) SiO2 
 PCOD8263740
Probable space group: C M C A
;
_chemical_formula_sum "Si O2"
_cell_formula_units_Z 96
_cell_length_a 8.755852
_cell_length_b 22.546424
_cell_length_c 23.107190
_cell_angle_alpha 90.000000
_cell_angle_beta 90.000000
_cell_angle_gamma 90.000000
_cell_volume 4561.663204
_symmetry_space_group_name_H-M "C M C A"
_symmetry_group_IT_number 64
_symmetry_cell_setting 'orthorhombic'
loop_
_space_group_symop_operation_xyz
x,y,z
-x,1/2-y,1/2+z
x,-y,-z
-x,1/2+y,1/2-z
-x,-y,-z
x,1/2+y,1/2-z
-x,y,z
x,1/2-y,1/2+z
1/2+x,1/2+y,z
1/2-x,-y,1/2+z
1/2+x,1/2-y,-z
1/2-x,y,1/2-z
1/2-x,1/2-y,-z
1/2+x,y,1/2-z
1/2-x,1/2+y,z
1/2+x,-y,1/2+z
loop_
_atom_site_type_symbol
_atom_site_label
_atom_site_fract_x
_atom_site_fract_y
_atom_site_fract_z
Si Si1 0.674830 0.400746 0.598087
Si Si2 0.682369 0.709005 0.879448
Si Si3 0.823630 0.864236 0.473724
Si Si4 0.829086 0.098186 0.808195
Si Si5 0.180296 0.319667 0.685993
Si Si6 0.174093 0.023301 0.916575
O O1 0.500000 0.402974 0.619089
O O2 0.691861 0.356321 0.543155
O O3 0.777925 0.380337 0.652488
O O4 0.725013 0.465110 0.575832
O O5 0.500000 0.712617 0.883280
O O6 0.747245 0.693223 0.943243
O O7 0.743174 0.656482 0.837649
O O8 0.748752 0.769090 0.854266
O O9 0.737790 0.924503 0.456442
O O10 0.000000 0.869135 0.455118
O O11 0.750000 0.078772 0.750000
O O12 0.818020 0.041916 0.849749
O O13 0.000000 0.115244 0.792344
O O14 0.250000 0.318600 0.750000
O O15 0.000000 0.312108 0.691358
O O16 0.000000 0.010495 0.935360
#
# Coordination Sequence:
#
# PCOD8263740 Si02
#       6
#    16  16  16  16  16  16
#     4  11  24  41  61  87 120 158 201 247 295 353
#     4  10  21  39  62  89 120 153 195 246 299 355
#     4  10  21  38  62  92 122 154 196 247 301 353
#     4   9  19  33  53  82 113 148 190 239 292 346
#     4  12  26  44  65  88 118 158 201 244 294 352
#     4  10  21  37  57  85 121 159 200 247 301 357
#
# _framework density 21.044955999999999
#
# number of rings (size 3 to 8) (size 9 to 14) (size 15 to 20)
#    0.000    1.667    0.000    5.500    0.000   11.333 
#    0.000    1.667    0.000    0.000    0.000    0.000 
#    0.000    0.000    0.000    0.000    0.000    0.000 
#
# Total GULP energy -595237.651772 kJ/mol
# GULP energy per Si atom -12400.784412 kJ/mol
# Density = 2.099706 g / cm^3
# Si number density = 21.044956 Si / 1000 Ang^3
#
#
#
# Elastic Constant Matrix: (Units=GPa)
#
#
# Indices 1 2 3 4 5 6 
#
# 1 122.0651 20.0654 50.6870 0.0000 0.0000 0.0000
# 2 20.0654 57.6477 23.7570 0.0000 0.0000 0.0000
# 3 50.6870 23.7570 91.3883 0.0000 0.0000 0.0000
# 4 0.0000 0.0000 0.0000 16.7036 0.0000 0.0000
# 5 0.0000 0.0000 0.0000 0.0000 32.2188 0.0000
# 6 0.0000 0.0000 0.0000 0.0000 0.0000 36.9115
#
#
#
# Elastic Compliance Matrix: (Units=1/GPa)
#
#
# Indices 1 2 3 4 5 6 
#
# 1 0.010749 -0.001439 -0.005588 0.000000 0.000000 0.000000
# 2 -0.001439 0.019621 -0.004303 0.000000 0.000000 0.000000
# 3 -0.005588 -0.004303 0.015160 0.000000 0.000000 0.000000
# 4 0.000000 0.000000 0.000000 0.059867 0.000000 0.000000
# 5 0.000000 0.000000 0.000000 0.000000 0.031038 0.000000
# 6 0.000000 0.000000 0.000000 0.000000 0.000000 0.027092
#
#
# Mechanical properties :
#
#
# Convention : Reuss Voigt Hill
#
# Bulk Modulus (GPa) = 43.72233 51.12443 47.42338
# Shear Modulus (GPa) = 25.79860 28.93955 27.36907
#
# Velocity S-wave (km/s) = 3.50506 3.71230 3.61016
# Velocity P-wave (km/s) = 6.09929 6.53610 6.32147
#
# Compressibility (1/GPa) = 0.02287161
#
# Stress axis : x y z
#
# Youngs Moduli (GPa) = 93.03041 50.96677 65.96301
#
# Poissons Ratio (x) = 0.07332 0.36859
# Poissons Ratio (y) = 0.13384 0.28381
# Poissons Ratio (z) = 0.51984 0.21929
#
# Static dielectric constant tensor:
#      x y z
#    x 3.862300 0.000000 0.000000 
#    y 0.000000 3.653010 0.000000 
#    z 0.000000 0.000000 3.966120 
# 
# 
# High freq. dielectric constant tensor:
#      x y z
#    x 1.832800 0.000000 0.000000 
#    y 0.000000 1.816490 0.000000 
#    z 0.000000 0.000000 1.833620 
# 
# From -- ./inp_files/42957.got.cif
#   From: 2010.03.12/outbox.cif.g09.slc.cpg/sg64_22_cif.got.tgz:42957.got - 2010.04.10 20:19:32.
