data_PCOD8263940
_publ_section_title
;
Structure prediction by ZEFSAII (Michael W. Deem and Ramdas Pophale) SiO2 
 PCOD8263940
Probable space group: C M C A
;
_chemical_formula_sum "Si O2"
_cell_formula_units_Z 96
_cell_length_a 8.981428
_cell_length_b 19.644251
_cell_length_c 28.765643
_cell_angle_alpha 90.000000
_cell_angle_beta 90.000000
_cell_angle_gamma 90.000000
_cell_volume 5075.220945
_symmetry_space_group_name_H-M "C M C A"
_symmetry_group_IT_number 64
_symmetry_cell_setting 'orthorhombic'
loop_
_space_group_symop_operation_xyz
x,y,z
-x,1/2-y,1/2+z
x,-y,-z
-x,1/2+y,1/2-z
-x,-y,-z
x,1/2+y,1/2-z
-x,y,z
x,1/2-y,1/2+z
1/2+x,1/2+y,z
1/2-x,-y,1/2+z
1/2+x,1/2-y,-z
1/2-x,y,1/2-z
1/2-x,1/2-y,-z
1/2+x,y,1/2-z
1/2-x,1/2+y,z
1/2+x,-y,1/2+z
loop_
_atom_site_type_symbol
_atom_site_label
_atom_site_fract_x
_atom_site_fract_y
_atom_site_fract_z
Si Si1 0.334344 0.557167 0.038307
Si Si2 0.827101 0.010403 0.373063
Si Si3 0.674537 0.257712 0.297877
Si Si4 0.174608 0.853295 0.381958
Si Si5 0.324573 0.314982 0.021971
Si Si6 0.825217 0.602472 0.297730
O O1 0.500000 0.565186 0.060677
O O2 0.212402 0.538142 0.076218
O O3 0.339773 0.500000 0.000000
O O4 0.282277 0.625694 0.013618
O O5 0.786660 0.930923 0.369263
O O6 0.000000 0.023446 0.363314
O O7 0.729714 0.051516 0.336760
O O8 0.500000 0.265096 0.290328
O O9 0.750000 0.281361 0.250000
O O10 0.729504 0.306255 0.339402
O O11 0.719068 0.180111 0.310597
O O12 0.262199 0.830428 0.427280
O O13 0.000000 0.843734 0.391646
O O14 0.500000 0.304879 0.026478
O O15 0.250000 0.250000 0.000000
O O16 0.750000 0.579891 0.250000
O O17 0.000000 0.594751 0.291883
#
# Coordination Sequence:
#
# PCOD8263940 Si02
#       6
#    16  16  16  16  16  16
#     4  10  21  40  61  82 115 156 198 237 286 346
#     4  11  23  37  59  89 120 153 194 242 292 346
#     4   9  20  39  61  84 112 149 189 234 287 342
#     4  10  22  40  59  85 120 154 193 239 290 345
#     4  11  24  40  60  86 117 154 195 242 291 345
#     4  10  21  39  62  86 116 151 193 240 291 350
#
# _framework density 18.915431999999999
#
# number of rings (size 3 to 8) (size 9 to 14) (size 15 to 20)
#    0.000    1.833    1.667    1.500    2.333    4.333 
#    0.000    1.667    0.000    0.000    0.000    0.000 
#    0.000    0.000    0.000    0.000    0.000    0.000 
#
# Total GULP energy -595351.543898 kJ/mol
# GULP energy per Si atom -12403.157165 kJ/mol
# Density = 1.887238 g / cm^3
# Si number density = 18.915432 Si / 1000 Ang^3
#
#
#
# Elastic Constant Matrix: (Units=GPa)
#
#
# Indices 1 2 3 4 5 6 
#
# 1 67.0448 50.3066 55.0599 0.0000 0.0000 0.0000
# 2 50.3066 130.0671 64.4341 0.0000 0.0000 0.0000
# 3 55.0599 64.4341 112.8837 0.0000 0.0000 0.0000
# 4 0.0000 0.0000 0.0000 27.4409 0.0000 0.0000
# 5 0.0000 0.0000 0.0000 0.0000 41.8051 0.0000
# 6 0.0000 0.0000 0.0000 0.0000 0.0000 31.0125
#
#
#
# Elastic Compliance Matrix: (Units=1/GPa)
#
#
# Indices 1 2 3 4 5 6 
#
# 1 0.027496 -0.005564 -0.010235 0.000000 0.000000 0.000000
# 2 -0.005564 0.011846 -0.004047 0.000000 0.000000 0.000000
# 3 -0.010235 -0.004047 0.016161 0.000000 0.000000 0.000000
# 4 0.000000 0.000000 0.000000 0.036442 0.000000 0.000000
# 5 0.000000 0.000000 0.000000 0.000000 0.023921 0.000000
# 6 0.000000 0.000000 0.000000 0.000000 0.000000 0.032245
#
#
# Mechanical properties :
#
#
# Convention : Reuss Voigt Hill
#
# Bulk Modulus (GPa) = 63.25558 72.17744 67.71651
# Shear Modulus (GPa) = 25.89675 29.39804 27.64739
#
# Velocity S-wave (km/s) = 3.70412 3.94659 3.82728
# Velocity P-wave (km/s) = 7.19777 7.68168 7.44366
#
# Compressibility (1/GPa) = 0.01580888
#
# Stress axis : x y z
#
# Youngs Moduli (GPa) = 36.36860 84.42009 61.87613
#
# Poissons Ratio (x) = 0.46974 0.63333
# Poissons Ratio (y) = 0.20237 0.25044
# Poissons Ratio (z) = 0.37225 0.34168
#
# Static dielectric constant tensor:
#      x y z
#    x 3.603580 0.000000 0.000000 
#    y 0.000000 3.639660 0.000000 
#    z 0.000000 0.000000 3.140140 
# 
# 
# High freq. dielectric constant tensor:
#      x y z
#    x 1.739010 0.000000 0.000000 
#    y 0.000000 1.746910 0.000000 
#    z 0.000000 0.000000 1.741020 
# 
# From -- ./inp_files/48128.got.cif
#   From: 2010.03.12/outbox.cif.g09.slc.cpg/sg64_25_cif.got.tgz:48128.got - 2010.04.10 20:19:32.
