data_PCOD8263069
_publ_section_title
;
Structure prediction by ZEFSAII (Michael W. Deem and Ramdas Pophale) SiO2 
 PCOD8263069
Probable space group: C M C A
;
_chemical_formula_sum "Si O2"
_cell_formula_units_Z 96
_cell_length_a 8.813093
_cell_length_b 20.149256
_cell_length_c 27.984297
_cell_angle_alpha 90.000000
_cell_angle_beta 90.000000
_cell_angle_gamma 90.000000
_cell_volume 4969.374980
_symmetry_space_group_name_H-M "C M C A"
_symmetry_group_IT_number 64
_symmetry_cell_setting 'orthorhombic'
loop_
_space_group_symop_operation_xyz
x,y,z
-x,1/2-y,1/2+z
x,-y,-z
-x,1/2+y,1/2-z
-x,-y,-z
x,1/2+y,1/2-z
-x,y,z
x,1/2-y,1/2+z
1/2+x,1/2+y,z
1/2-x,-y,1/2+z
1/2+x,1/2-y,-z
1/2-x,y,1/2-z
1/2-x,1/2-y,-z
1/2+x,y,1/2-z
1/2-x,1/2+y,z
1/2+x,-y,1/2+z
loop_
_atom_site_type_symbol
_atom_site_label
_atom_site_fract_x
_atom_site_fract_y
_atom_site_fract_z
Si Si1 0.176311 0.452886 0.799494
Si Si2 0.677487 0.298255 0.700276
Si Si3 0.822176 0.511615 0.394520
Si Si4 0.826695 0.888945 0.441721
Si Si5 0.176042 0.250296 0.106400
Si Si6 0.177327 0.633708 0.051365
O O1 0.250000 0.476333 0.750000
O O2 0.209566 0.375607 0.809251
O O3 0.247346 0.495198 0.842388
O O4 0.000000 0.468434 0.796544
O O5 0.500000 0.282361 0.700788
O O6 0.750000 0.275380 0.750000
O O7 0.758968 0.256335 0.659451
O O8 0.783231 0.447393 0.425548
O O9 0.764051 0.576419 0.421118
O O10 0.000000 0.517514 0.387770
O O11 0.798924 0.826006 0.408343
O O12 0.785380 0.869916 0.495638
O O13 0.000000 0.914048 0.438375
O O14 0.267214 0.204743 0.069547
O O15 0.000000 0.230057 0.105207
O O16 0.000000 0.626159 0.062513
#
# Coordination Sequence:
#
# PCOD8263069 Si02
#       6
#    16  16  16  16  16  16
#     4  10  20  36  60  88 119 152 191 240 292 346
#     4  10  20  35  59  88 118 153 191 239 291 344
#     4  12  24  38  60  89 120 155 198 245 293 348
#     4  10  24  42  59  83 120 161 198 242 297 349
#     4  11  22  38  61  89 120 154 195 244 292 348
#     4  11  22  39  62  86 116 157 201 245 293 347
#
# _framework density 19.318325000000002
#
# number of rings (size 3 to 8) (size 9 to 14) (size 15 to 20)
#    0.000    1.333    1.667    4.500    0.000    6.000 
#    0.000    0.833    0.000    4.000    0.000    0.000 
#    0.000    0.000    0.000    0.000    0.000    0.000 
#
# Total GULP energy -595542.253282 kJ/mol
# GULP energy per Si atom -12407.130277 kJ/mol
# Density = 1.927436 g / cm^3
# Si number density = 19.318325 Si / 1000 Ang^3
#
#
#
# Elastic Constant Matrix: (Units=GPa)
#
#
# Indices 1 2 3 4 5 6 
#
# 1 97.7696 14.9307 40.5889 0.0000 0.0000 0.0000
# 2 14.9307 29.8609 5.6903 0.0000 0.0000 0.0000
# 3 40.5889 5.6903 110.9159 0.0000 0.0000 0.0000
# 4 0.0000 0.0000 0.0000 5.9193 0.0000 0.0000
# 5 0.0000 0.0000 0.0000 0.0000 37.4014 0.0000
# 6 0.0000 0.0000 0.0000 0.0000 0.0000 30.0347
#
#
#
# Elastic Compliance Matrix: (Units=1/GPa)
#
#
# Indices 1 2 3 4 5 6 
#
# 1 0.012931 -0.005619 -0.004444 0.000000 0.000000 0.000000
# 2 -0.005619 0.036261 0.000196 0.000000 0.000000 0.000000
# 3 -0.004444 0.000196 0.010632 0.000000 0.000000 0.000000
# 4 0.000000 0.000000 0.000000 0.168940 0.000000 0.000000
# 5 0.000000 0.000000 0.000000 0.000000 0.026737 0.000000
# 6 0.000000 0.000000 0.000000 0.000000 0.000000 0.033295
#
#
# Mechanical properties :
#
#
# Convention : Reuss Voigt Hill
#
# Bulk Modulus (GPa) = 24.94365 40.10736 32.52550
# Shear Modulus (GPa) = 15.53315 26.49352 21.01333
#
# Velocity S-wave (km/s) = 2.83868 3.70728 3.30167
# Velocity P-wave (km/s) = 4.86663 6.25553 5.60427
#
# Compressibility (1/GPa) = 0.04009036
#
# Stress axis : x y z
#
# Youngs Moduli (GPa) = 77.33341 27.57802 94.05614
#
# Poissons Ratio (x) = 0.15496 0.41796
# Poissons Ratio (y) = 0.43452 -0.01843
# Poissons Ratio (z) = 0.34365 -0.00540
#
# Static dielectric constant tensor:
#      x y z
#    x 3.684830 0.000000 0.000000 
#    y 0.000000 3.327610 0.000000 
#    z 0.000000 0.000000 3.737020 
# 
# 
# High freq. dielectric constant tensor:
#      x y z
#    x 1.765630 0.000000 0.000000 
#    y 0.000000 1.733110 0.000000 
#    z 0.000000 0.000000 1.771110 
# 
# From -- ./inp_files/48134.got.cif
#   From: 2010.03.12/outbox.cif.g09.slc.cpg/sg64_25_cif.got.tgz:48134.got - 2010.04.10 20:19:32.
