data_PCOD8263917
_publ_section_title
;
Structure prediction by ZEFSAII (Michael W. Deem and Ramdas Pophale) SiO2 
 PCOD8263917
Probable space group: C M C A
;
_chemical_formula_sum "Si O2"
_cell_formula_units_Z 40
_cell_length_a 9.787528
_cell_length_b 16.283829
_cell_length_c 9.708600
_cell_angle_alpha 90.000000
_cell_angle_beta 90.000000
_cell_angle_gamma 90.000000
_cell_volume 1547.341448
_symmetry_space_group_name_H-M "C M C A"
_symmetry_group_IT_number 64
_symmetry_cell_setting 'orthorhombic'
loop_
_space_group_symop_operation_xyz
x,y,z
-x,1/2-y,1/2+z
x,-y,-z
-x,1/2+y,1/2-z
-x,-y,-z
x,1/2+y,1/2-z
-x,y,z
x,1/2-y,1/2+z
1/2+x,1/2+y,z
1/2-x,-y,1/2+z
1/2+x,1/2-y,-z
1/2-x,y,1/2-z
1/2-x,1/2-y,-z
1/2+x,y,1/2-z
1/2-x,1/2+y,z
1/2+x,-y,1/2+z
loop_
_atom_site_type_symbol
_atom_site_label
_atom_site_fract_x
_atom_site_fract_y
_atom_site_fract_z
Si Si1 0.000000 0.832158 0.160446
Si Si2 0.000000 0.669155 0.310496
Si Si3 0.278709 0.095087 0.469311
Si Si4 0.500000 0.169892 0.968942
O O1 0.859701 0.865206 0.097019
O O2 0.000000 0.728945 0.174973
O O3 0.000000 0.867388 0.315429
O O4 0.134548 0.612441 0.328059
O O5 0.000000 0.729698 0.449158
O O6 0.131882 0.136426 0.449745
O O7 0.262924 0.000000 0.500000
#
# Coordination Sequence:
#
# PCOD8263917 Si02
#       4
#     8   8  16   8
#     4   9  21  37  67  88 129 169 212 250 319 382
#     4   9  21  37  67  89 128 174 203 261 313 387
#     4  11  21  41  69  95 128 167 214 269 319 369
#     4  10  21  38  68  93 131 166 211 261 321 387
#
# _framework density 25.850791000000001
#
# number of rings (size 3 to 8) (size 9 to 14) (size 15 to 20)
#    1.200    0.800    0.000    5.400    0.000    0.000 
#    0.000    0.000   88.000    0.000    0.000    0.000 
#    0.000    0.000    0.000    0.000    0.000    0.000 
#
# Total GULP energy -248018.827629 kJ/mol
# GULP energy per Si atom -12400.941381 kJ/mol
# Density = 2.579195 g / cm^3
# Si number density = 25.850791 Si / 1000 Ang^3
#
#
#
# Elastic Constant Matrix: (Units=GPa)
#
#
# Indices 1 2 3 4 5 6 
#
# 1 208.3883 48.6894 6.4161 0.0000 0.0000 0.0000
# 2 48.6894 168.9349 8.7718 0.0000 0.0000 0.0000
# 3 6.4161 8.7718 68.5362 0.0000 0.0000 0.0000
# 4 0.0000 0.0000 0.0000 81.7022 0.0000 0.0000
# 5 0.0000 0.0000 0.0000 0.0000 -11.0799 0.0000
# 6 0.0000 0.0000 0.0000 0.0000 0.0000 20.9646
#
#
#
# Elastic Compliance Matrix: (Units=1/GPa)
#
#
# Indices 1 2 3 4 5 6 
#
# 1 0.005151 -0.001469 -0.000294 0.000000 0.000000 0.000000
# 2 -0.001469 0.006378 -0.000679 0.000000 0.000000 0.000000
# 3 -0.000294 -0.000679 0.014705 0.000000 0.000000 0.000000
# 4 0.000000 0.000000 0.000000 0.012240 0.000000 0.000000
# 5 0.000000 0.000000 0.000000 0.000000 -0.090254 0.000000
# 6 0.000000 0.000000 0.000000 0.000000 0.000000 0.047699
#
#
# Mechanical properties :
#
#
# Convention : Reuss Voigt Hill
#
# Bulk Modulus (GPa) = 46.83852 63.73487 55.28670
# Shear Modulus (GPa) = 631.21977 43.78286 337.50132
#
# Velocity S-wave (km/s) = 15.64315 4.11989 11.43857
# Velocity P-wave (km/s) = 18.55898 6.88039 13.99599
#
# Compressibility (1/GPa) = 0.02134995
#
# Stress axis : x y z
#
# Youngs Moduli (GPa) = 194.13331 156.78481 68.00292
#
# Poissons Ratio (x) = 0.23037 0.02000
# Poissons Ratio (y) = 0.28525 0.04616
# Poissons Ratio (z) = 0.05711 0.10642
#
# Static dielectric constant tensor:
#      x y z
#    x 4.425890 0.000000 0.000000 
#    y 0.000000 4.488500 0.000000 
#    z 0.000000 0.000000 5.054320 
# 
# 
# High freq. dielectric constant tensor:
#      x y z
#    x 2.038970 0.000000 0.000000 
#    y 0.000000 2.029990 0.000000 
#    z 0.000000 0.000000 2.083230 
# 
# From -- ./inp_files/20352.got.cif
#   From: 2010.03.12/outbox.cif.g09.slc.cpg/sg64_11_cif.got.tgz:20352.got - 2010.04.10 20:19:32.
