data_PCOD8263083
_publ_section_title
;
Structure prediction by ZEFSAII (Michael W. Deem and Ramdas Pophale) SiO2 
 PCOD8263083
Probable space group: C M C A
;
_chemical_formula_sum "Si O2"
_cell_formula_units_Z 64
_cell_length_a 16.296002
_cell_length_b 21.169956
_cell_length_c 8.632257
_cell_angle_alpha 90.000000
_cell_angle_beta 90.000000
_cell_angle_gamma 90.000000
_cell_volume 2978.004752
_symmetry_space_group_name_H-M "C M C A"
_symmetry_group_IT_number 64
_symmetry_cell_setting 'orthorhombic'
loop_
_space_group_symop_operation_xyz
x,y,z
-x,1/2-y,1/2+z
x,-y,-z
-x,1/2+y,1/2-z
-x,-y,-z
x,1/2+y,1/2-z
-x,y,z
x,1/2-y,1/2+z
1/2+x,1/2+y,z
1/2-x,-y,1/2+z
1/2+x,1/2-y,-z
1/2-x,y,1/2-z
1/2-x,1/2-y,-z
1/2+x,y,1/2-z
1/2-x,1/2+y,z
1/2+x,-y,1/2+z
loop_
_atom_site_type_symbol
_atom_site_label
_atom_site_fract_x
_atom_site_fract_y
_atom_site_fract_z
Si Si1 0.158960 0.314989 0.312468
Si Si2 0.340312 0.312274 0.822434
Si Si3 0.906928 0.931503 0.356614
Si Si4 0.842036 0.438201 0.811847
O O1 0.250000 0.324470 0.250000
O O2 0.161878 0.308474 0.494862
O O3 0.116943 0.251336 0.242805
O O4 0.105352 0.374942 0.263658
O O5 0.250000 0.314425 0.750000
O O6 0.385016 0.377072 0.768899
O O7 0.844860 0.926485 0.502370
O O8 0.000000 0.930526 0.418460
O O9 0.890531 0.997854 0.268571
O O10 0.750000 0.446071 0.750000
#
# Coordination Sequence:
#
# PCOD8263083 Si02
#       4
#    16  16  16  16
#     4  11  20  37  63  90 121 161 207 254 303 365
#     4  10  20  35  61  93 120 152 207 265 303 348
#     4  11  24  42  61  91 131 167 200 252 315 371
#     4  10  20  38  64  92 119 160 210 255 304 364
#
# _framework density 21.4909
#
# number of rings (size 3 to 8) (size 9 to 14) (size 15 to 20)
#    0.000    1.500    0.000    9.750    0.000    5.000 
#    0.000   10.000    0.000    0.000    0.000    0.000 
#    0.000    0.000    0.000    0.000    0.000    0.000 
#
# Total GULP energy -396682.410993 kJ/mol
# GULP energy per Si atom -12396.325344 kJ/mol
# Density = 2.144199 g / cm^3
# Si number density = 21.490900 Si / 1000 Ang^3
#
#
#
# Elastic Constant Matrix: (Units=GPa)
#
#
# Indices 1 2 3 4 5 6 
#
# 1 69.5071 31.0768 35.5476 0.0000 0.0000 0.0000
# 2 31.0768 235.0259 90.7549 0.0000 0.0000 0.0000
# 3 35.5476 90.7549 173.5831 0.0000 0.0000 0.0000
# 4 0.0000 0.0000 0.0000 44.8753 0.0000 0.0000
# 5 0.0000 0.0000 0.0000 0.0000 16.7490 0.0000
# 6 0.0000 0.0000 0.0000 0.0000 0.0000 1.5766
#
#
#
# Elastic Compliance Matrix: (Units=1/GPa)
#
#
# Indices 1 2 3 4 5 6 
#
# 1 0.016288 -0.001085 -0.002768 0.000000 0.000000 0.000000
# 2 -0.001085 0.005403 -0.002603 0.000000 0.000000 0.000000
# 3 -0.002768 -0.002603 0.007689 0.000000 0.000000 0.000000
# 4 0.000000 0.000000 0.000000 0.022284 0.000000 0.000000
# 5 0.000000 0.000000 0.000000 0.000000 0.059705 0.000000
# 6 0.000000 0.000000 0.000000 0.000000 0.000000 0.634285
#
#
# Mechanical properties :
#
#
# Convention : Reuss Voigt Hill
#
# Bulk Modulus (GPa) = 60.72421 88.09721 74.41071
# Shear Modulus (GPa) = 6.54403 34.02262 20.28332
#
# Velocity S-wave (km/s) = 1.74689 3.98316 3.07548
# Velocity P-wave (km/s) = 5.69087 7.88897 6.87829
#
# Compressibility (1/GPa) = 0.01646790
#
# Stress axis : x y z
#
# Youngs Moduli (GPa) = 61.39554 185.06878 130.05968
#
# Poissons Ratio (x) = 0.20074 0.36006
# Poissons Ratio (y) = 0.06659 0.33854
# Poissons Ratio (z) = 0.16997 0.48172
#
# Static dielectric constant tensor:
#      x y z
#    x 3.484100 0.000000 0.000000 
#    y 0.000000 5.111090 0.000000 
#    z 0.000000 0.000000 3.763940 
# 
# 
# High freq. dielectric constant tensor:
#      x y z
#    x 1.794770 0.000000 0.000000 
#    y 0.000000 1.883890 0.000000 
#    z 0.000000 0.000000 1.841370 
# 
# From -- ./inp_files/5604.got.cif
#   From: 2010.03.12/outbox.cif.g09.slc.cpg/sg64_3_cif.got.tgz:5604.got - 2010.04.10 20:19:32.
