data_PCOD8263333
_publ_section_title
;
Structure prediction by ZEFSAII (Michael W. Deem and Ramdas Pophale) SiO2 
 PCOD8263333
Probable space group: C M C A
;
_chemical_formula_sum "Si O2"
_cell_formula_units_Z 80
_cell_length_a 8.843799
_cell_length_b 25.308362
_cell_length_c 17.943761
_cell_angle_alpha 90.000000
_cell_angle_beta 90.000000
_cell_angle_gamma 90.000000
_cell_volume 4016.209669
_symmetry_space_group_name_H-M "C M C A"
_symmetry_group_IT_number 64
_symmetry_cell_setting 'orthorhombic'
loop_
_space_group_symop_operation_xyz
x,y,z
-x,1/2-y,1/2+z
x,-y,-z
-x,1/2+y,1/2-z
-x,-y,-z
x,1/2+y,1/2-z
-x,y,z
x,1/2-y,1/2+z
1/2+x,1/2+y,z
1/2-x,-y,1/2+z
1/2+x,1/2-y,-z
1/2-x,y,1/2-z
1/2-x,1/2-y,-z
1/2+x,y,1/2-z
1/2-x,1/2+y,z
1/2+x,-y,1/2+z
loop_
_atom_site_type_symbol
_atom_site_label
_atom_site_fract_x
_atom_site_fract_y
_atom_site_fract_z
Si Si1 0.823749 0.308481 0.075780
Si Si2 0.321883 0.091355 0.829677
Si Si3 0.175971 0.200609 0.404215
Si Si4 0.822356 0.987574 0.584680
Si Si5 0.178506 0.104519 0.171879
O O1 0.769548 0.361454 0.116450
O O2 0.728387 0.260454 0.110168
O O3 0.000000 0.296388 0.088255
O O4 0.787734 0.316081 0.988787
O O5 0.500000 0.091431 0.820993
O O6 0.250000 0.100148 0.750000
O O7 0.267012 0.036303 0.864723
O O8 0.268462 0.163238 0.348919
O O9 0.000000 0.195264 0.385308
O O10 0.000000 0.976484 0.593505
O O11 0.780394 0.000000 0.500000
O O12 0.732520 0.935614 0.608280
O O13 0.250000 0.086720 0.250000
O O14 0.000000 0.103014 0.179203
#
# Coordination Sequence:
#
# PCOD8263333 Si02
#       5
#    16  16  16  16  16
#     4   9  19  37  59  84 115 152 193 234 281 340
#     4  10  21  36  56  82 114 150 185 226 277 335
#     4  10  20  37  61  86 113 149 193 241 291 341
#     4  10  21  40  64  87 114 150 190 234 288 347
#     4  12  25  40  59  85 118 154 194 241 293 348
#
# _framework density 19.919279
#
# number of rings (size 3 to 8) (size 9 to 14) (size 15 to 20)
#    0.000    1.800    0.000    4.200    0.000    8.400 
#    0.000    4.000    0.000    0.000    0.000    0.000 
#    0.000    0.000    0.000    0.000    0.000    0.000 
#
# Total GULP energy -496254.865363 kJ/mol
# GULP energy per Si atom -12406.371634 kJ/mol
# Density = 1.987394 g / cm^3
# Si number density = 19.919279 Si / 1000 Ang^3
#
#
#
# Elastic Constant Matrix: (Units=GPa)
#
#
# Indices 1 2 3 4 5 6 
#
# 1 84.5851 36.8434 32.0526 0.0000 0.0000 0.0000
# 2 36.8434 91.8383 21.2900 0.0000 0.0000 0.0000
# 3 32.0526 21.2900 69.2553 0.0000 0.0000 0.0000
# 4 0.0000 0.0000 0.0000 32.2339 0.0000 0.0000
# 5 0.0000 0.0000 0.0000 0.0000 32.3757 0.0000
# 6 0.0000 0.0000 0.0000 0.0000 0.0000 35.2726
#
#
#
# Elastic Compliance Matrix: (Units=1/GPa)
#
#
# Indices 1 2 3 4 5 6 
#
# 1 0.016337 -0.005170 -0.005972 0.000000 0.000000 0.000000
# 2 -0.005170 0.013360 -0.001714 0.000000 0.000000 0.000000
# 3 -0.005972 -0.001714 0.017730 0.000000 0.000000 0.000000
# 4 0.000000 0.000000 0.000000 0.031023 0.000000 0.000000
# 5 0.000000 0.000000 0.000000 0.000000 0.030887 0.000000
# 6 0.000000 0.000000 0.000000 0.000000 0.000000 0.028351
#
#
# Mechanical properties :
#
#
# Convention : Reuss Voigt Hill
#
# Bulk Modulus (GPa) = 46.05009 47.33895 46.69452
# Shear Modulus (GPa) = 29.30157 30.34264 29.82210
#
# Velocity S-wave (km/s) = 3.83954 3.90716 3.87350
# Velocity P-wave (km/s) = 6.54406 6.64616 6.59531
#
# Compressibility (1/GPa) = 0.02171549
#
# Stress axis : x y z
#
# Youngs Moduli (GPa) = 61.21002 74.84975 56.40069
#
# Poissons Ratio (x) = 0.38695 0.33682
# Poissons Ratio (y) = 0.31644 0.09670
# Poissons Ratio (z) = 0.36554 0.12833
#
# Static dielectric constant tensor:
#      x y z
#    x 3.514100 0.000000 0.000000 
#    y 0.000000 3.771940 0.000000 
#    z 0.000000 0.000000 3.605300 
# 
# 
# High freq. dielectric constant tensor:
#      x y z
#    x 1.770150 0.000000 0.000000 
#    y 0.000000 1.790820 0.000000 
#    z 0.000000 0.000000 1.780450 
# 
# From -- ./inp_files/29988.got.cif
#   From: 2010.03.12/outbox.cif.g09.slc.cpg/sg64_15_cif.got.tgz:29988.got - 2010.04.10 20:19:32.
