data_PCOD8263866
_publ_section_title
;
Structure prediction by ZEFSAII (Michael W. Deem and Ramdas Pophale) SiO2 
 PCOD8263866
Probable space group: C M C A
;
_chemical_formula_sum "Si O2"
_cell_formula_units_Z 80
_cell_length_a 14.141874
_cell_length_b 25.581365
_cell_length_c 11.336575
_cell_angle_alpha 90.000000
_cell_angle_beta 90.000000
_cell_angle_gamma 90.000000
_cell_volume 4101.215059
_symmetry_space_group_name_H-M "C M C A"
_symmetry_group_IT_number 64
_symmetry_cell_setting 'orthorhombic'
loop_
_space_group_symop_operation_xyz
x,y,z
-x,1/2-y,1/2+z
x,-y,-z
-x,1/2+y,1/2-z
-x,-y,-z
x,1/2+y,1/2-z
-x,y,z
x,1/2-y,1/2+z
1/2+x,1/2+y,z
1/2-x,-y,1/2+z
1/2+x,1/2-y,-z
1/2-x,y,1/2-z
1/2-x,1/2-y,-z
1/2+x,y,1/2-z
1/2-x,1/2+y,z
1/2+x,-y,1/2+z
loop_
_atom_site_type_symbol
_atom_site_label
_atom_site_fract_x
_atom_site_fract_y
_atom_site_fract_z
Si Si1 0.394878 0.191047 0.297837
Si Si2 0.283876 0.158177 0.069268
Si Si3 0.155083 0.804823 0.321433
Si Si4 0.893973 0.917145 0.244213
Si Si5 0.757265 0.555178 0.941374
O O1 0.500000 0.167597 0.319427
O O2 0.355337 0.168897 0.175403
O O3 0.323649 0.174799 0.401808
O O4 0.406751 0.253754 0.296163
O O5 0.320472 0.191506 0.959260
O O6 0.285056 0.096380 0.042367
O O7 0.250000 0.797866 0.250000
O O8 0.100762 0.856121 0.277547
O O9 0.842559 0.949727 0.347628
O O10 0.837378 0.924359 0.122747
O O11 0.000000 0.938826 0.228948
O O12 0.736874 0.500000 0.000000
#
# Coordination Sequence:
#
# PCOD8263866 Si02
#       5
#    16  16  16  16  16
#     4  11  24  36  58  91 124 159 192 236 296 354
#     4  10  22  41  58  82 123 154 198 242 292 353
#     4  11  19  40  62  85 117 160 195 240 287 352
#     4  10  21  38  61  89 114 148 202 244 287 354
#     4  10  22  41  62  83 115 156 193 249 304 340
#
# _framework density 19.506412999999998
#
# number of rings (size 3 to 8) (size 9 to 14) (size 15 to 20)
#    0.000    1.600    6.000    1.200    0.000    8.800 
#    0.000    2.000    0.000    0.000    0.000    0.000 
#    0.000    0.000    0.000    0.000    0.000    0.000 
#
# Total GULP energy -496012.157322 kJ/mol
# GULP energy per Si atom -12400.303933 kJ/mol
# Density = 1.946202 g / cm^3
# Si number density = 19.506413 Si / 1000 Ang^3
#
#
#
# Elastic Constant Matrix: (Units=GPa)
#
#
# Indices 1 2 3 4 5 6 
#
# 1 143.9102 24.6467 35.4516 0.0000 0.0000 0.0000
# 2 24.6467 94.4407 57.8821 0.0000 0.0000 0.0000
# 3 35.4516 57.8821 100.7424 0.0000 0.0000 0.0000
# 4 0.0000 0.0000 0.0000 24.9850 0.0000 0.0000
# 5 0.0000 0.0000 0.0000 0.0000 6.1501 0.0000
# 6 0.0000 0.0000 0.0000 0.0000 0.0000 20.5474
#
#
#
# Elastic Compliance Matrix: (Units=1/GPa)
#
#
# Indices 1 2 3 4 5 6 
#
# 1 0.007626 -0.000533 -0.002377 0.000000 0.000000 0.000000
# 2 -0.000533 0.016381 -0.009224 0.000000 0.000000 0.000000
# 3 -0.002377 -0.009224 0.016063 0.000000 0.000000 0.000000
# 4 0.000000 0.000000 0.000000 0.040024 0.000000 0.000000
# 5 0.000000 0.000000 0.000000 0.000000 0.162600 0.000000
# 6 0.000000 0.000000 0.000000 0.000000 0.000000 0.048668
#
#
# Mechanical properties :
#
#
# Convention : Reuss Voigt Hill
#
# Bulk Modulus (GPa) = 63.28961 63.89489 63.59225
# Shear Modulus (GPa) = 15.58128 25.07734 20.32931
#
# Velocity S-wave (km/s) = 2.82933 3.58941 3.23179
# Velocity P-wave (km/s) = 6.57187 7.07145 6.82623
#
# Compressibility (1/GPa) = 0.01580038
#
# Stress axis : x y z
#
# Youngs Moduli (GPa) = 131.13561 61.04497 62.25576
#
# Poissons Ratio (x) = 0.03255 0.14799
# Poissons Ratio (y) = 0.06992 0.57427
# Poissons Ratio (z) = 0.31173 0.56310
#
# Static dielectric constant tensor:
#      x y z
#    x 3.619640 0.000000 0.000000 
#    y 0.000000 3.593600 0.000000 
#    z 0.000000 0.000000 3.645150 
# 
# 
# High freq. dielectric constant tensor:
#      x y z
#    x 1.758920 0.000000 0.000000 
#    y 0.000000 1.748400 0.000000 
#    z 0.000000 0.000000 1.763460 
# 
# From -- ./inp_files/14413.got.cif
#   From: 2010.03.12/outbox.cif.g09.slc.cpg/sg64_8_cif.got.tgz:14413.got - 2010.04.10 20:19:32.
