data_PCOD8263027
_publ_section_title
;
Structure prediction by ZEFSAII (Michael W. Deem and Ramdas Pophale) SiO2 
 PCOD8263027
Probable space group: C M C A
;
_chemical_formula_sum "Si O2"
_cell_formula_units_Z 64
_cell_length_a 18.276691
_cell_length_b 8.079507
_cell_length_c 21.121216
_cell_angle_alpha 90.000000
_cell_angle_beta 90.000000
_cell_angle_gamma 90.000000
_cell_volume 3118.899271
_symmetry_space_group_name_H-M "C M C A"
_symmetry_group_IT_number 64
_symmetry_cell_setting 'orthorhombic'
loop_
_space_group_symop_operation_xyz
x,y,z
-x,1/2-y,1/2+z
x,-y,-z
-x,1/2+y,1/2-z
-x,-y,-z
x,1/2+y,1/2-z
-x,y,z
x,1/2-y,1/2+z
1/2+x,1/2+y,z
1/2-x,-y,1/2+z
1/2+x,1/2-y,-z
1/2-x,y,1/2-z
1/2-x,1/2-y,-z
1/2+x,y,1/2-z
1/2-x,1/2+y,z
1/2+x,-y,1/2+z
loop_
_atom_site_type_symbol
_atom_site_label
_atom_site_fract_x
_atom_site_fract_y
_atom_site_fract_z
Si Si1 0.223281 0.682417 0.134141
Si Si2 0.664188 0.385187 0.294399
Si Si3 0.081086 0.434506 0.689396
Si Si4 0.348894 0.525235 0.927888
O O1 0.166369 0.547190 0.160887
O O2 0.287733 0.605523 0.092965
O O3 0.257749 0.789427 0.193677
O O4 0.179323 0.789830 0.083470
O O5 0.598201 0.261309 0.309832
O O6 0.645392 0.459836 0.224752
O O7 0.080718 0.494169 0.616598
O O8 0.000000 0.462783 0.718242
O O9 0.372108 0.500000 0.000000
#
# Coordination Sequence:
#
# PCOD8263027 Si02
#       4
#    16  16  16  16
#     4   9  20  36  57  86 112 136 176 233 291 333
#     4  10  21  36  57  83 111 139 177 232 286 328
#     4  11  23  37  54  78 111 150 187 221 264 328
#     4  10  20  35  57  82 111 146 182 225 275 330
#
# _framework density 20.520060000000001
#
# number of rings (size 3 to 8) (size 9 to 14) (size 15 to 20)
#    0.000    2.000    0.000    3.000    0.000   17.500 
#    0.000    1.250    0.000    1.500    0.000    0.000 
#    0.000    0.000    0.000    0.000    0.000    0.000 
#
# Total GULP energy -396462.976161 kJ/mol
# GULP energy per Si atom -12389.468005 kJ/mol
# Density = 2.047336 g / cm^3
# Si number density = 20.520060 Si / 1000 Ang^3
#
#
#
# Elastic Constant Matrix: (Units=GPa)
#
#
# Indices 1 2 3 4 5 6 
#
# 1 65.7947 33.6194 9.4218 0.0000 0.0000 0.0000
# 2 33.6194 121.7337 37.0937 0.0000 0.0000 0.0000
# 3 9.4218 37.0937 122.1890 0.0000 0.0000 0.0000
# 4 0.0000 0.0000 0.0000 23.8334 0.0000 0.0000
# 5 0.0000 0.0000 0.0000 0.0000 16.1881 0.0000
# 6 0.0000 0.0000 0.0000 0.0000 0.0000 20.8886
#
#
#
# Elastic Compliance Matrix: (Units=1/GPa)
#
#
# Indices 1 2 3 4 5 6 
#
# 1 0.017698 -0.004928 0.000131 0.000000 0.000000 0.000000
# 2 -0.004928 0.010424 -0.002785 0.000000 0.000000 0.000000
# 3 0.000131 -0.002785 0.009019 0.000000 0.000000 0.000000
# 4 0.000000 0.000000 0.000000 0.041958 0.000000 0.000000
# 5 0.000000 0.000000 0.000000 0.000000 0.061774 0.000000
# 6 0.000000 0.000000 0.000000 0.000000 0.000000 0.047873
#
#
# Mechanical properties :
#
#
# Convention : Reuss Voigt Hill
#
# Bulk Modulus (GPa) = 45.49729 52.22077 48.85903
# Shear Modulus (GPa) = 23.67041 27.48750 25.57896
#
# Velocity S-wave (km/s) = 3.40004 3.66395 3.53446
# Velocity P-wave (km/s) = 6.13465 6.58811 6.36542
#
# Compressibility (1/GPa) = 0.02197933
#
# Stress axis : x y z
#
# Youngs Moduli (GPa) = 56.50386 95.93240 110.87410
#
# Poissons Ratio (x) = 0.47272 -0.01455
# Poissons Ratio (y) = 0.27843 0.30873
# Poissons Ratio (z) = -0.00742 0.26713
#
# Static dielectric constant tensor:
#      x y z
#    x 3.394200 0.000000 0.000000 
#    y 0.000000 4.088180 0.000000 
#    z 0.000000 0.000000 3.591320 
# 
# 
# High freq. dielectric constant tensor:
#      x y z
#    x 1.773200 0.000000 0.000000 
#    y 0.000000 1.824870 0.000000 
#    z 0.000000 0.000000 1.785930 
# 
# From -- ./inp_files/33863.got.cif
#   From: 2010.03.12/outbox.cif.g09.slc.cpg/sg64_17_cif.got.tgz:33863.got - 2010.04.10 20:19:32.
