data_PCOD8263261
_publ_section_title
;
Structure prediction by ZEFSAII (Michael W. Deem and Ramdas Pophale) SiO2 
 PCOD8263261
Probable space group: C M C A
;
_chemical_formula_sum "Si O2"
_cell_formula_units_Z 88
_cell_length_a 17.807905
_cell_length_b 13.842353
_cell_length_c 16.855751
_cell_angle_alpha 90.000000
_cell_angle_beta 90.000000
_cell_angle_gamma 90.000000
_cell_volume 4154.998367
_symmetry_space_group_name_H-M "C M C A"
_symmetry_group_IT_number 64
_symmetry_cell_setting 'orthorhombic'
loop_
_space_group_symop_operation_xyz
x,y,z
-x,1/2-y,1/2+z
x,-y,-z
-x,1/2+y,1/2-z
-x,-y,-z
x,1/2+y,1/2-z
-x,y,z
x,1/2-y,1/2+z
1/2+x,1/2+y,z
1/2-x,-y,1/2+z
1/2+x,1/2-y,-z
1/2-x,y,1/2-z
1/2-x,1/2-y,-z
1/2+x,y,1/2-z
1/2-x,1/2+y,z
1/2+x,-y,1/2+z
loop_
_atom_site_type_symbol
_atom_site_label
_atom_site_fract_x
_atom_site_fract_y
_atom_site_fract_z
Si Si1 0.873347 0.500000 0.000000
Si Si2 0.500000 0.622683 0.571696
Si Si3 0.347874 0.511649 0.197243
Si Si4 0.500000 0.184140 0.528978
Si Si5 0.000000 0.420939 0.626374
Si Si6 0.300940 0.399501 0.643111
Si Si7 0.127468 0.302554 0.343136
Si Si8 0.500000 0.229236 0.777654
O O1 0.821760 0.564962 0.055863
O O2 0.924588 0.434819 0.055356
O O3 0.500000 0.715955 0.516873
O O4 0.500000 0.635855 0.666366
O O5 0.428346 0.520060 0.155972
O O6 0.349015 0.542685 0.289890
O O7 0.287261 0.580423 0.154789
O O8 0.327007 0.398400 0.184502
O O9 0.500000 0.093050 0.468800
O O10 0.576098 0.177260 0.580062
O O11 0.000000 0.317074 0.663460
O O12 0.313282 0.283919 0.644001
O O13 0.074496 0.266112 0.273184
#
# Coordination Sequence:
#
# PCOD8263261 Si02
#       8
#     8   8  16   8   8  16  16   8
#     4  11  22  40  68  93 150 164 220 285 336 390
#     4  10  20  36  64 107 123 179 218 270 327 400
#     4  11  26  44  70  95 132 180 226 273 332 403
#     4  10  22  39  67 102 131 169 220 278 325 391
#     4  11  22  44  69  96 131 170 228 273 325 399
#     4  11  25  45  64 101 133 176 221 277 338 400
#     4  11  22  44  67  96 136 176 219 277 332 397
#     4  10  20  37  72  95 129 172 224 266 333 386
#
# _framework density 21.179310000000001
#
# number of rings (size 3 to 8) (size 9 to 14) (size 15 to 20)
#    0.000    1.273    3.636    2.182    0.000    7.273 
#    6.545    1.818    0.000    0.000    0.000    0.000 
#    0.000    0.000    0.000    0.000    0.000    0.000 
#
# Total GULP energy -545601.595951 kJ/mol
# GULP energy per Si atom -12400.036272 kJ/mol
# Density = 2.113111 g / cm^3
# Si number density = 21.179310 Si / 1000 Ang^3
#
#
#
# Elastic Constant Matrix: (Units=GPa)
#
#
# Indices 1 2 3 4 5 6 
#
# 1 112.0204 46.6377 30.2458 0.0000 0.0000 0.0000
# 2 46.6377 122.8536 35.7351 0.0000 0.0000 0.0000
# 3 30.2458 35.7351 99.6357 0.0000 0.0000 0.0000
# 4 0.0000 0.0000 0.0000 27.6599 0.0000 0.0000
# 5 0.0000 0.0000 0.0000 0.0000 -0.4130 0.0000
# 6 0.0000 0.0000 0.0000 0.0000 0.0000 10.3361
#
#
#
# Elastic Compliance Matrix: (Units=1/GPa)
#
#
# Indices 1 2 3 4 5 6 
#
# 1 0.010965 -0.003566 -0.002049 0.000000 0.000000 0.000000
# 2 -0.003566 0.010248 -0.002593 0.000000 0.000000 0.000000
# 3 -0.002049 -0.002593 0.011589 0.000000 0.000000 0.000000
# 4 0.000000 0.000000 0.000000 0.036153 0.000000 0.000000
# 5 0.000000 0.000000 0.000000 0.000000 -2.421503 0.000000
# 6 0.000000 0.000000 0.000000 0.000000 0.000000 0.096748
#
#
# Mechanical properties :
#
#
# Convention : Reuss Voigt Hill
#
# Bulk Modulus (GPa) = 61.03468 62.19410 61.61439
# Shear Modulus (GPa) = -2.23822 22.30935 10.03556
#
# Velocity S-wave (km/s) = -1.02912 3.24907 2.17914
# Velocity P-wave (km/s) = 5.24104 6.59579 5.95705
#
# Compressibility (1/GPa) = 0.01638413
#
# Stress axis : x y z
#
# Youngs Moduli (GPa) = 91.19816 97.58145 86.29129
#
# Poissons Ratio (x) = 0.34802 0.17685
# Poissons Ratio (y) = 0.32525 0.22374
# Poissons Ratio (z) = 0.18691 0.25301
#
# Static dielectric constant tensor:
#      x y z
#    x 3.568290 0.000000 0.000000 
#    y 0.000000 3.963310 0.000000 
#    z 0.000000 0.000000 4.013380 
# 
# 
# High freq. dielectric constant tensor:
#      x y z
#    x 1.816290 0.000000 0.000000 
#    y 0.000000 1.845100 0.000000 
#    z 0.000000 0.000000 1.841340 
# 
# From -- ./inp_files/33183.got.cif
#   From: 2010.03.12/outbox.cif.g09.slc.cpg/sg64_17_cif.got.tgz:33183.got - 2010.04.10 20:19:32.
