data_PCOD8263315
_publ_section_title
;
Structure prediction by ZEFSAII (Michael W. Deem and Ramdas Pophale) SiO2 
 PCOD8263315
Probable space group: C M C A
;
_chemical_formula_sum "Si O2"
_cell_formula_units_Z 80
_cell_length_a 9.060606
_cell_length_b 14.550995
_cell_length_c 29.530540
_cell_angle_alpha 90.000000
_cell_angle_beta 90.000000
_cell_angle_gamma 90.000000
_cell_volume 3893.330981
_symmetry_space_group_name_H-M "C M C A"
_symmetry_group_IT_number 64
_symmetry_cell_setting 'orthorhombic'
loop_
_space_group_symop_operation_xyz
x,y,z
-x,1/2-y,1/2+z
x,-y,-z
-x,1/2+y,1/2-z
-x,-y,-z
x,1/2+y,1/2-z
-x,y,z
x,1/2-y,1/2+z
1/2+x,1/2+y,z
1/2-x,-y,1/2+z
1/2+x,1/2-y,-z
1/2-x,y,1/2-z
1/2-x,1/2-y,-z
1/2+x,y,1/2-z
1/2-x,1/2+y,z
1/2+x,-y,1/2+z
loop_
_atom_site_type_symbol
_atom_site_label
_atom_site_fract_x
_atom_site_fract_y
_atom_site_fract_z
Si Si1 0.831589 0.606463 0.118836
Si Si2 0.167524 0.606644 0.705787
Si Si3 0.172800 0.739368 0.547725
Si Si4 0.174033 0.604929 0.885159
Si Si5 0.835145 0.387668 0.706623
O O1 0.800569 0.666010 0.074471
O O2 0.788776 0.502074 0.107491
O O3 0.737937 0.647723 0.160309
O O4 0.000000 0.611981 0.134791
O O5 0.250000 0.646683 0.750000
O O6 0.255519 0.641260 0.661684
O O7 0.168992 0.497217 0.707694
O O8 0.000000 0.643934 0.704018
O O9 0.250000 0.750000 0.500000
O O10 0.249392 0.655422 0.573262
O O11 0.000000 0.718191 0.541728
O O12 0.000000 0.624521 0.884581
O O13 0.750000 0.347128 0.750000
O O14 0.000000 0.349189 0.708385
#
# Coordination Sequence:
#
# PCOD8263315 Si02
#       5
#    16  16  16  16  16
#     4   9  20  38  59  82 113 150 186 225 276 333
#     4   9  16  28  49  80 115 151 187 225 270 324
#     4  11  24  42  61  83 111 144 184 234 286 338
#     4  10  20  37  60  85 113 148 187 229 277 331
#     4   9  16  27  49  80 114 149 186 225 269 322
#
# _framework density 20.547958999999999
#
# number of rings (size 3 to 8) (size 9 to 14) (size 15 to 20)
#    0.000    2.400    0.000    2.400    0.000    8.000 
#    0.000    5.000    0.000    4.800    0.000    0.000 
#    0.000    0.000    0.000    0.000    0.000    0.000 
#
# Total GULP energy -496118.137565 kJ/mol
# GULP energy per Si atom -12402.953439 kJ/mol
# Density = 2.050119 g / cm^3
# Si number density = 20.547959 Si / 1000 Ang^3
#
#
#
# Elastic Constant Matrix: (Units=GPa)
#
#
# Indices 1 2 3 4 5 6 
#
# 1 175.0608 48.7344 106.8927 0.0000 0.0000 0.0000
# 2 48.7344 57.2268 47.0654 0.0000 0.0000 0.0000
# 3 106.8927 47.0654 189.7049 0.0000 0.0000 0.0000
# 4 0.0000 0.0000 0.0000 -367.8007 0.0000 0.0000
# 5 0.0000 0.0000 0.0000 0.0000 48.3148 0.0000
# 6 0.0000 0.0000 0.0000 0.0000 0.0000 23.2074
#
#
#
# Elastic Compliance Matrix: (Units=1/GPa)
#
#
# Indices 1 2 3 4 5 6 
#
# 1 0.009616 -0.004690 -0.004255 0.000000 0.000000 0.000000
# 2 -0.004690 0.024241 -0.003372 0.000000 0.000000 0.000000
# 3 -0.004255 -0.003372 0.008505 0.000000 0.000000 0.000000
# 4 0.000000 0.000000 0.000000 -0.002719 0.000000 0.000000
# 5 0.000000 0.000000 0.000000 0.000000 0.020698 0.000000
# 6 0.000000 0.000000 0.000000 0.000000 0.000000 0.043090
#
#
# Mechanical properties :
#
#
# Convention : Reuss Voigt Hill
#
# Bulk Modulus (GPa) = 56.40150 91.93083 74.16616
# Shear Modulus (GPa) = 37.32112 -44.63571 -3.65730
#
# Velocity S-wave (km/s) = 4.26642 -4.66582 -1.33557
# Velocity P-wave (km/s) = 7.19570 3.97622 5.81328
#
# Compressibility (1/GPa) = 0.01773003
#
# Stress axis : x y z
#
# Youngs Moduli (GPa) = 103.99622 41.25247 117.57446
#
# Poissons Ratio (x) = 0.19346 0.50024
# Poissons Ratio (y) = 0.48770 0.39643
# Poissons Ratio (z) = 0.44247 0.13909
#
# Static dielectric constant tensor:
#      x y z
#    x 3.868790 0.000000 0.000000 
#    y 0.000000 3.549250 0.000000 
#    z 0.000000 0.000000 3.712260 
# 
# 
# High freq. dielectric constant tensor:
#      x y z
#    x 1.815990 0.000000 0.000000 
#    y 0.000000 1.791530 0.000000 
#    z 0.000000 0.000000 1.803240 
# 
# From -- ./inp_files/47816.got.cif
#   From: 2010.03.12/outbox.cif.g09.slc.cpg/sg64_24_cif.got.tgz:47816.got - 2010.04.10 20:19:32.
