data_PCOD8263847
_publ_section_title
;
Structure prediction by ZEFSAII (Michael W. Deem and Ramdas Pophale) SiO2 
 PCOD8263847
Probable space group: C M C A
;
_chemical_formula_sum "Si O2"
_cell_formula_units_Z 64
_cell_length_a 16.586104
_cell_length_b 35.875551
_cell_length_c 5.009187
_cell_angle_alpha 90.000000
_cell_angle_beta 90.000000
_cell_angle_gamma 90.000000
_cell_volume 2980.644692
_symmetry_space_group_name_H-M "C M C A"
_symmetry_group_IT_number 64
_symmetry_cell_setting 'orthorhombic'
loop_
_space_group_symop_operation_xyz
x,y,z
-x,1/2-y,1/2+z
x,-y,-z
-x,1/2+y,1/2-z
-x,-y,-z
x,1/2+y,1/2-z
-x,y,z
x,1/2-y,1/2+z
1/2+x,1/2+y,z
1/2-x,-y,1/2+z
1/2+x,1/2-y,-z
1/2-x,y,1/2-z
1/2-x,1/2-y,-z
1/2+x,y,1/2-z
1/2-x,1/2+y,z
1/2+x,-y,1/2+z
loop_
_atom_site_type_symbol
_atom_site_label
_atom_site_fract_x
_atom_site_fract_y
_atom_site_fract_z
Si Si1 0.660412 0.647901 0.350785
Si Si2 0.592354 0.889934 0.364183
Si Si3 0.407331 0.225609 0.021012
Si Si4 0.694356 0.457974 0.001242
O O1 0.750000 0.639461 0.250000
O O2 0.643727 0.621747 0.605450
O O3 0.650776 0.690697 0.435876
O O4 0.600893 0.639858 0.103411
O O5 0.500000 0.892231 0.274840
O O6 0.619653 0.929817 0.481541
O O7 0.500000 0.212193 0.043681
O O8 0.388281 0.258142 0.230635
O O9 0.750000 0.451343 0.250000
O O10 0.659265 0.500000 0.000000
O O11 0.750000 0.449082 0.750000
#
# Coordination Sequence:
#
# PCOD8263847 Si02
#       4
#    16  16  16  16
#     4  12  25  41  63  91 124 161 205 254 304 361
#     4  12  24  40  63  91 125 162 205 253 302 360
#     4  10  21  38  60  86 119 157 197 246 305 363
#     4  10  21  39  63  90 123 162 202 247 302 361
#
# _framework density 21.471862999999999
#
# number of rings (size 3 to 8) (size 9 to 14) (size 15 to 20)
#    0.000    1.000    0.000    8.250    0.000    3.500 
#    0.000    0.000    0.000    7.500    0.000    0.000 
#    0.000    0.000    0.000    0.000    0.000    0.000 
#
# Total GULP energy -396992.136897 kJ/mol
# GULP energy per Si atom -12406.004278 kJ/mol
# Density = 2.142299 g / cm^3
# Si number density = 21.471863 Si / 1000 Ang^3
#
#
#
# Elastic Constant Matrix: (Units=GPa)
#
#
# Indices 1 2 3 4 5 6 
#
# 1 92.7342 52.7055 30.1849 0.0000 0.0000 0.0000
# 2 52.7055 111.3677 23.3730 0.0000 0.0000 0.0000
# 3 30.1849 23.3730 123.7340 0.0000 0.0000 0.0000
# 4 0.0000 0.0000 0.0000 31.5628 0.0000 0.0000
# 5 0.0000 0.0000 0.0000 0.0000 35.9169 0.0000
# 6 0.0000 0.0000 0.0000 0.0000 0.0000 27.4800
#
#
#
# Elastic Compliance Matrix: (Units=1/GPa)
#
#
# Indices 1 2 3 4 5 6 
#
# 1 0.015453 -0.006791 -0.002487 0.000000 0.000000 0.000000
# 2 -0.006791 0.012335 -0.000673 0.000000 0.000000 0.000000
# 3 -0.002487 -0.000673 0.008816 0.000000 0.000000 0.000000
# 4 0.000000 0.000000 0.000000 0.031683 0.000000 0.000000
# 5 0.000000 0.000000 0.000000 0.000000 0.027842 0.000000
# 6 0.000000 0.000000 0.000000 0.000000 0.000000 0.036390
#
#
# Mechanical properties :
#
#
# Convention : Reuss Voigt Hill
#
# Bulk Modulus (GPa) = 59.87889 60.04032 59.95960
# Shear Modulus (GPa) = 31.64809 33.76344 32.70576
#
# Velocity S-wave (km/s) = 3.84335 3.96972 3.90704
# Velocity P-wave (km/s) = 6.90238 7.00247 6.95260
#
# Compressibility (1/GPa) = 0.01670038
#
# Stress axis : x y z
#
# Youngs Moduli (GPa) = 64.71339 81.07319 113.43403
#
# Poissons Ratio (x) = 0.55058 0.28209
# Poissons Ratio (y) = 0.43948 0.07637
# Poissons Ratio (z) = 0.16093 0.05458
#
# Static dielectric constant tensor:
#      x y z
#    x 3.591030 0.000000 0.000000 
#    y 0.000000 3.648290 0.000000 
#    z 0.000000 0.000000 4.096400 
# 
# 
# High freq. dielectric constant tensor:
#      x y z
#    x 1.822800 0.000000 0.000000 
#    y 0.000000 1.853540 0.000000 
#    z 0.000000 0.000000 1.867070 
# 
# From -- ./inp_files/1324.got.cif
#   From: 2010.03.12/outbox.cif.g09.slc.cpg/sg64_1_cif.got.tgz:1324.got - 2010.04.10 20:19:32.
