data_PCOD8263459
_publ_section_title
;
Structure prediction by ZEFSAII (Michael W. Deem and Ramdas Pophale) SiO2 
 PCOD8263459
Probable space group: C M C A
;
_chemical_formula_sum "Si O2"
_cell_formula_units_Z 56
_cell_length_a 17.676483
_cell_length_b 30.390204
_cell_length_c 4.923192
_cell_angle_alpha 90.000000
_cell_angle_beta 90.000000
_cell_angle_gamma 90.000000
_cell_volume 2644.698985
_symmetry_space_group_name_H-M "C M C A"
_symmetry_group_IT_number 64
_symmetry_cell_setting 'orthorhombic'
loop_
_space_group_symop_operation_xyz
x,y,z
-x,1/2-y,1/2+z
x,-y,-z
-x,1/2+y,1/2-z
-x,-y,-z
x,1/2+y,1/2-z
-x,y,z
x,1/2-y,1/2+z
1/2+x,1/2+y,z
1/2-x,-y,1/2+z
1/2+x,1/2-y,-z
1/2-x,y,1/2-z
1/2-x,1/2-y,-z
1/2+x,y,1/2-z
1/2-x,1/2+y,z
1/2+x,-y,1/2+z
loop_
_atom_site_type_symbol
_atom_site_label
_atom_site_fract_x
_atom_site_fract_y
_atom_site_fract_z
Si Si1 0.588984 0.131128 0.729914
Si Si2 0.837222 0.721360 0.755718
Si Si3 0.161351 0.910819 0.728928
Si Si4 0.698875 0.000000 0.000000
O O1 0.500000 0.125044 0.728651
O O2 0.610954 0.181006 0.658560
O O3 0.624334 0.095633 0.523213
O O4 0.621625 0.123183 0.028877
O O5 0.855466 0.762196 0.557938
O O6 0.750000 0.706162 0.750000
O O7 0.250000 0.900740 0.750000
O O8 0.147694 0.960486 0.618529
O O9 0.750000 0.018336 0.750000
#
# Coordination Sequence:
#
# PCOD8263459 Si02
#       4
#    16  16  16   8
#     4  12  25  40  60  93 131 163 200 251 314 371
#     4  10  21  38  61  87 116 157 208 255 300 356
#     4  11  22  41  66  90 120 163 210 255 302 362
#     4  10  20  38  65  96 119 152 212 266 300 348
#
# _framework density 21.174433000000001
#
# number of rings (size 3 to 8) (size 9 to 14) (size 15 to 20)
#    0.000    1.143    0.000    8.571    0.000    3.429 
#    0.000    4.286    0.000    0.000    0.000    0.000 
#    0.000    0.000    0.000    0.000    0.000    0.000 
#
# Total GULP energy -347305.094725 kJ/mol
# GULP energy per Si atom -12403.753383 kJ/mol
# Density = 2.112624 g / cm^3
# Si number density = 21.174433 Si / 1000 Ang^3
#
#
#
# Elastic Constant Matrix: (Units=GPa)
#
#
# Indices 1 2 3 4 5 6 
#
# 1 140.7062 44.1006 36.6990 0.0000 0.0000 0.0000
# 2 44.1006 97.0790 10.4781 0.0000 0.0000 0.0000
# 3 36.6990 10.4781 89.1768 0.0000 0.0000 0.0000
# 4 0.0000 0.0000 0.0000 4.3160 0.0000 0.0000
# 5 0.0000 0.0000 0.0000 0.0000 25.5471 0.0000
# 6 0.0000 0.0000 0.0000 0.0000 0.0000 9.1130
#
#
#
# Elastic Compliance Matrix: (Units=1/GPa)
#
#
# Indices 1 2 3 4 5 6 
#
# 1 0.009167 -0.003805 -0.003325 0.000000 0.000000 0.000000
# 2 -0.003805 0.012013 0.000155 0.000000 0.000000 0.000000
# 3 -0.003325 0.000155 0.012564 0.000000 0.000000 0.000000
# 4 0.000000 0.000000 0.000000 0.231698 0.000000 0.000000
# 5 0.000000 0.000000 0.000000 0.000000 0.039143 0.000000
# 6 0.000000 0.000000 0.000000 0.000000 0.000000 0.109733
#
#
# Mechanical properties :
#
#
# Convention : Reuss Voigt Hill
#
# Bulk Modulus (GPa) = 50.52689 56.61305 53.56997
# Shear Modulus (GPa) = 11.49772 23.50750 17.50261
#
# Velocity S-wave (km/s) = 2.33276 3.33556 2.87817
# Velocity P-wave (km/s) = 5.58299 6.45206 6.03319
#
# Compressibility (1/GPa) = 0.01979144
#
# Stress axis : x y z
#
# Youngs Moduli (GPa) = 109.08647 83.24371 79.59244
#
# Poissons Ratio (x) = 0.31678 0.26468
# Poissons Ratio (y) = 0.41512 -0.01230
# Poissons Ratio (z) = 0.36275 -0.01287
#
# Static dielectric constant tensor:
#      x y z
#    x 3.560210 0.000000 0.000000 
#    y 0.000000 3.710830 0.000000 
#    z 0.000000 0.000000 4.043970 
# 
# 
# High freq. dielectric constant tensor:
#      x y z
#    x 1.801100 0.000000 0.000000 
#    y 0.000000 1.832590 0.000000 
#    z 0.000000 0.000000 1.854030 
# 
# From -- ./inp_files/851.got.cif
#   From: 2010.03.12/outbox.cif.g09.slc.cpg/sg64_1_cif.got.tgz:851.got - 2010.04.10 20:19:32.
