data_PCOD8263811
_publ_section_title
;
Structure prediction by ZEFSAII (Michael W. Deem and Ramdas Pophale) SiO2 
 PCOD8263811
Probable space group: C M C A
;
_chemical_formula_sum "Si O2"
_cell_formula_units_Z 96
_cell_length_a 8.618602
_cell_length_b 28.921905
_cell_length_c 20.441119
_cell_angle_alpha 90.000000
_cell_angle_beta 90.000000
_cell_angle_gamma 90.000000
_cell_volume 5095.283905
_symmetry_space_group_name_H-M "C M C A"
_symmetry_group_IT_number 64
_symmetry_cell_setting 'orthorhombic'
loop_
_space_group_symop_operation_xyz
x,y,z
-x,1/2-y,1/2+z
x,-y,-z
-x,1/2+y,1/2-z
-x,-y,-z
x,1/2+y,1/2-z
-x,y,z
x,1/2-y,1/2+z
1/2+x,1/2+y,z
1/2-x,-y,1/2+z
1/2+x,1/2-y,-z
1/2-x,y,1/2-z
1/2-x,1/2-y,-z
1/2+x,y,1/2-z
1/2-x,1/2+y,z
1/2+x,-y,1/2+z
loop_
_atom_site_type_symbol
_atom_site_label
_atom_site_fract_x
_atom_site_fract_y
_atom_site_fract_z
Si Si1 0.817266 0.528094 0.936317
Si Si2 0.184441 0.125087 0.125970
Si Si3 0.817597 0.779330 0.818633
Si Si4 0.683270 0.028654 0.319373
Si Si5 0.316260 0.280908 0.442077
Si Si6 0.183862 0.623117 0.522942
O O1 0.734618 0.508094 0.872852
O O2 0.000000 0.523587 0.927555
O O3 0.759204 0.500000 0.000000
O O4 0.768176 0.581122 0.941244
O O5 0.251766 0.170272 0.162377
O O6 0.244066 0.125122 0.051544
O O7 0.000000 0.126160 0.125541
O O8 0.248712 0.079501 0.162070
O O9 0.750000 0.762239 0.750000
O O10 0.770688 0.742604 0.873647
O O11 0.000000 0.783267 0.812304
O O12 0.500000 0.029572 0.315734
O O13 0.750000 0.013027 0.250000
O O14 0.500000 0.285691 0.450747
O O15 0.250000 0.250000 0.500000
O O16 0.234729 0.330434 0.440701
O O17 0.000000 0.616613 0.527206
#
# Coordination Sequence:
#
# PCOD8263811 Si02
#       6
#    16  16  16  16  16  16
#     4  11  23  39  60  89 121 154 200 249 294 353
#     4   9  18  34  57  86 120 153 188 237 295 354
#     4  10  21  38  57  84 120 156 194 239 290 349
#     4  11  22  38  60  87 122 161 198 242 299 358
#     4  11  22  38  60  87 120 156 198 247 295 351
#     4  11  21  38  62  89 119 153 199 247 298 353
#
# _framework density 18.840952000000001
#
# number of rings (size 3 to 8) (size 9 to 14) (size 15 to 20)
#    0.000    1.500    3.333    2.500    0.000    2.000 
#    0.000    1.667    0.000    2.000    0.000    0.000 
#    0.000    0.000    0.000    0.000    0.000    0.000 
#
# Total GULP energy -595416.911637 kJ/mol
# GULP energy per Si atom -12404.518992 kJ/mol
# Density = 1.879807 g / cm^3
# Si number density = 18.840952 Si / 1000 Ang^3
#
#
#
# Elastic Constant Matrix: (Units=GPa)
#
#
# Indices 1 2 3 4 5 6 
#
# 1 40.2892 14.8667 27.9705 0.0000 0.0000 0.0000
# 2 14.8667 121.9324 56.8779 0.0000 0.0000 0.0000
# 3 27.9705 56.8779 151.2413 0.0000 0.0000 0.0000
# 4 0.0000 0.0000 0.0000 47.0565 0.0000 0.0000
# 5 0.0000 0.0000 0.0000 0.0000 28.8040 0.0000
# 6 0.0000 0.0000 0.0000 0.0000 0.0000 30.6101
#
#
#
# Elastic Compliance Matrix: (Units=1/GPa)
#
#
# Indices 1 2 3 4 5 6 
#
# 1 0.028630 -0.001238 -0.004829 0.000000 0.000000 0.000000
# 2 -0.001238 0.010000 -0.003532 0.000000 0.000000 0.000000
# 3 -0.004829 -0.003532 0.008833 0.000000 0.000000 0.000000
# 4 0.000000 0.000000 0.000000 0.021251 0.000000 0.000000
# 5 0.000000 0.000000 0.000000 0.000000 0.034717 0.000000
# 6 0.000000 0.000000 0.000000 0.000000 0.000000 0.032669
#
#
# Mechanical properties :
#
#
# Convention : Reuss Voigt Hill
#
# Bulk Modulus (GPa) = 35.37934 56.98811 46.18372
# Shear Modulus (GPa) = 30.35460 35.54400 32.94930
#
# Velocity S-wave (km/s) = 4.01820 4.34813 4.18642
# Velocity P-wave (km/s) = 6.35190 7.45124 6.92342
#
# Compressibility (1/GPa) = 0.02826508
#
# Stress axis : x y z
#
# Youngs Moduli (GPa) = 34.92834 100.00386 113.20901
#
# Poissons Ratio (x) = 0.12381 0.54671
# Poissons Ratio (y) = 0.04324 0.39981
# Poissons Ratio (z) = 0.16868 0.35318
#
# Static dielectric constant tensor:
#      x y z
#    x 3.334280 0.000000 0.000000 
#    y 0.000000 3.593360 0.000000 
#    z 0.000000 0.000000 9.351680 
# 
# 
# High freq. dielectric constant tensor:
#      x y z
#    x 1.725770 0.000000 0.000000 
#    y 0.000000 1.737560 0.000000 
#    z 0.000000 0.000000 1.732940 
# 
# From -- ./inp_files/37130.got.cif
#   From: 2010.03.12/outbox.cif.g09.slc.cpg/sg64_19_cif.got.tgz:37130.got - 2010.04.10 20:19:32.
