data_PCOD8263781
_publ_section_title
;
Structure prediction by ZEFSAII (Michael W. Deem and Ramdas Pophale) SiO2 
 PCOD8263781
Probable space group: C M C A
;
_chemical_formula_sum "Si O2"
_cell_formula_units_Z 80
_cell_length_a 14.046150
_cell_length_b 12.518181
_cell_length_c 22.723552
_cell_angle_alpha 90.000000
_cell_angle_beta 90.000000
_cell_angle_gamma 90.000000
_cell_volume 3995.533232
_symmetry_space_group_name_H-M "C M C A"
_symmetry_group_IT_number 64
_symmetry_cell_setting 'orthorhombic'
loop_
_space_group_symop_operation_xyz
x,y,z
-x,1/2-y,1/2+z
x,-y,-z
-x,1/2+y,1/2-z
-x,-y,-z
x,1/2+y,1/2-z
-x,y,z
x,1/2-y,1/2+z
1/2+x,1/2+y,z
1/2-x,-y,1/2+z
1/2+x,1/2-y,-z
1/2-x,y,1/2-z
1/2-x,1/2-y,-z
1/2+x,y,1/2-z
1/2-x,1/2+y,z
1/2+x,-y,1/2+z
loop_
_atom_site_type_symbol
_atom_site_label
_atom_site_fract_x
_atom_site_fract_y
_atom_site_fract_z
Si Si1 0.232808 0.732066 0.182002
Si Si2 0.603938 0.171343 0.890093
Si Si3 0.715634 0.035117 0.110864
Si Si4 0.108072 0.882432 0.110113
Si Si5 0.651326 0.206431 0.019341
O O1 0.250000 0.751550 0.250000
O O2 0.324550 0.745333 0.139663
O O3 0.209907 0.608713 0.169093
O O4 0.149055 0.814485 0.164997
O O5 0.500000 0.188878 0.862251
O O6 0.640711 0.055208 0.873264
O O7 0.592987 0.181691 0.960585
O O8 0.673077 0.098675 0.055341
O O9 0.820796 0.983020 0.097707
O O10 0.100053 0.799833 0.055899
O O11 0.000000 0.923785 0.123185
O O12 0.750000 0.250000 0.000000
#
# Coordination Sequence:
#
# PCOD8263781 Si02
#       5
#    16  16  16  16  16
#     4  10  23  43  62  80 116 158 198 248 298 343
#     4  11  23  38  62  90 118 153 199 241 290 350
#     4  10  21  37  61  88 122 153 194 237 295 347
#     4  10  22  39  62  90 120 154 195 242 293 350
#     4  11  19  38  60  88 124 158 185 231 291 355
#
# _framework density 20.022359999999999
#
# number of rings (size 3 to 8) (size 9 to 14) (size 15 to 20)
#    0.000    1.600    6.000    1.200    0.000    9.600 
#    0.000    1.000    0.000    0.000    0.000    0.000 
#    0.000    0.000    0.000    0.000    0.000    0.000 
#
# Total GULP energy -495646.779963 kJ/mol
# GULP energy per Si atom -12391.169499 kJ/mol
# Density = 1.997679 g / cm^3
# Si number density = 20.022360 Si / 1000 Ang^3
#
#
#
# Elastic Constant Matrix: (Units=GPa)
#
#
# Indices 1 2 3 4 5 6 
#
# 1 102.8075 -10.4595 9.4001 0.0000 0.0000 0.0000
# 2 -10.4595 55.6948 14.8533 0.0000 0.0000 0.0000
# 3 9.4001 14.8533 116.0302 0.0000 0.0000 0.0000
# 4 0.0000 0.0000 0.0000 18.7601 0.0000 0.0000
# 5 0.0000 0.0000 0.0000 0.0000 13.5656 0.0000
# 6 0.0000 0.0000 0.0000 0.0000 0.0000 7.1020
#
#
#
# Elastic Compliance Matrix: (Units=1/GPa)
#
#
# Indices 1 2 3 4 5 6 
#
# 1 0.010048 0.002179 -0.001093 0.000000 0.000000 0.000000
# 2 0.002179 0.019062 -0.002617 0.000000 0.000000 0.000000
# 3 -0.001093 -0.002617 0.009042 0.000000 0.000000 0.000000
# 4 0.000000 0.000000 0.000000 0.053305 0.000000 0.000000
# 5 0.000000 0.000000 0.000000 0.000000 0.073716 0.000000
# 6 0.000000 0.000000 0.000000 0.000000 0.000000 0.140804
#
#
# Mechanical properties :
#
#
# Convention : Reuss Voigt Hill
#
# Bulk Modulus (GPa) = 28.49786 33.56891 31.03339
# Shear Modulus (GPa) = 15.58914 25.26812 20.42863
#
# Velocity S-wave (km/s) = 2.79334 3.55631 3.19766
# Velocity P-wave (km/s) = 4.96665 5.80218 5.40059
#
# Compressibility (1/GPa) = 0.03509035
#
# Stress axis : x y z
#
# Youngs Moduli (GPa) = 99.51739 52.46051 110.59552
#
# Poissons Ratio (x) = -0.11429 0.12088
# Poissons Ratio (y) = -0.21681 0.28939
# Poissons Ratio (z) = 0.10877 0.13727
#
# Static dielectric constant tensor:
#      x y z
#    x 3.585530 0.000000 0.000000 
#    y 0.000000 3.645780 0.000000 
#    z 0.000000 0.000000 2.693810 
# 
# 
# High freq. dielectric constant tensor:
#      x y z
#    x 1.780540 0.000000 0.000000 
#    y 0.000000 1.789050 0.000000 
#    z 0.000000 0.000000 1.762240 
# 
# From -- ./inp_files/44927.got.cif
#   From: 2010.03.12/outbox.cif.g09.slc.cpg/sg64_23_cif.got.tgz:44927.got - 2010.04.10 20:19:32.
