data_PCOD8263084
_publ_section_title
;
Structure prediction by ZEFSAII (Michael W. Deem and Ramdas Pophale) SiO2 
 PCOD8263084
Probable space group: C M C A
;
_chemical_formula_sum "Si O2"
_cell_formula_units_Z 96
_cell_length_a 17.225453
_cell_length_b 20.056252
_cell_length_c 14.273042
_cell_angle_alpha 90.000000
_cell_angle_beta 90.000000
_cell_angle_gamma 90.000000
_cell_volume 4931.022378
_symmetry_space_group_name_H-M "C M C A"
_symmetry_group_IT_number 64
_symmetry_cell_setting 'orthorhombic'
loop_
_space_group_symop_operation_xyz
x,y,z
-x,1/2-y,1/2+z
x,-y,-z
-x,1/2+y,1/2-z
-x,-y,-z
x,1/2+y,1/2-z
-x,y,z
x,1/2-y,1/2+z
1/2+x,1/2+y,z
1/2-x,-y,1/2+z
1/2+x,1/2-y,-z
1/2-x,y,1/2-z
1/2-x,1/2-y,-z
1/2+x,y,1/2-z
1/2-x,1/2+y,z
1/2+x,-y,1/2+z
loop_
_atom_site_type_symbol
_atom_site_label
_atom_site_fract_x
_atom_site_fract_y
_atom_site_fract_z
Si Si1 0.589069 0.426753 0.182763
Si Si2 0.589490 0.420589 0.815422
Si Si3 0.090008 0.311536 0.833472
Si Si4 0.837863 0.693265 0.777743
Si Si5 0.317608 0.924090 0.500437
Si Si6 0.805560 0.311587 0.014741
O O1 0.500000 0.405022 0.190760
O O2 0.601341 0.502910 0.214718
O O3 0.641131 0.382084 0.250602
O O4 0.614936 0.415783 0.076019
O O5 0.500000 0.407384 0.844027
O O6 0.615323 0.374774 0.728903
O O7 0.644917 0.401798 0.901584
O O8 0.107096 0.243943 0.777502
O O9 0.000000 0.313975 0.857952
O O10 0.134121 0.316249 0.931016
O O11 0.750000 0.709875 0.750000
O O12 0.851710 0.700223 0.888649
O O13 0.244040 0.878899 0.476861
O O14 0.287642 0.000000 0.500000
O O15 0.750000 0.250000 0.000000
#
# Coordination Sequence:
#
# PCOD8263084 Si02
#       6
#    16  16  16  16  16  16
#     4  10  20  38  62  91 123 158 201 248 293 354
#     4   9  20  38  61  89 124 162 202 245 297 353
#     4  11  25  43  62  88 121 161 202 246 302 363
#     4  12  23  40  63  88 121 158 200 247 302 359
#     4  10  20  35  61  94 122 157 200 249 301 351
#     4  12  24  40  61  88 121 153 198 252 300 357
#
# _framework density 19.468578999999998
#
# number of rings (size 3 to 8) (size 9 to 14) (size 15 to 20)
#    0.000    1.333    3.333    2.000    0.000    4.667 
#    0.000    2.500    0.000    3.500    0.000    0.000 
#    0.000    0.000    0.000    0.000    0.000    0.000 
#
# Total GULP energy -595464.554477 kJ/mol
# GULP energy per Si atom -12405.511552 kJ/mol
# Density = 1.942427 g / cm^3
# Si number density = 19.468579 Si / 1000 Ang^3
#
#
#
# Elastic Constant Matrix: (Units=GPa)
#
#
# Indices 1 2 3 4 5 6 
#
# 1 60.6154 27.2822 32.0750 0.0000 0.0000 0.0000
# 2 27.2822 90.9674 42.2639 0.0000 0.0000 0.0000
# 3 32.0750 42.2639 130.6414 0.0000 0.0000 0.0000
# 4 0.0000 0.0000 0.0000 31.3896 0.0000 0.0000
# 5 0.0000 0.0000 0.0000 0.0000 35.2492 0.0000
# 6 0.0000 0.0000 0.0000 0.0000 0.0000 29.6473
#
#
#
# Elastic Compliance Matrix: (Units=1/GPa)
#
#
# Indices 1 2 3 4 5 6 
#
# 1 0.020390 -0.004460 -0.003563 0.000000 0.000000 0.000000
# 2 -0.004460 0.013913 -0.003406 0.000000 0.000000 0.000000
# 3 -0.003563 -0.003406 0.009631 0.000000 0.000000 0.000000
# 4 0.000000 0.000000 0.000000 0.031858 0.000000 0.000000
# 5 0.000000 0.000000 0.000000 0.000000 0.028369 0.000000
# 6 0.000000 0.000000 0.000000 0.000000 0.000000 0.033730
#
#
# Mechanical properties :
#
#
# Convention : Reuss Voigt Hill
#
# Bulk Modulus (GPa) = 47.44693 53.94072 50.69382
# Shear Modulus (GPa) = 29.80174 31.29742 30.54958
#
# Velocity S-wave (km/s) = 3.91674 4.01382 3.96558
# Velocity P-wave (km/s) = 6.69913 7.01767 6.86025
#
# Compressibility (1/GPa) = 0.02107618
#
# Stress axis : x y z
#
# Youngs Moduli (GPa) = 49.04288 71.87561 103.82780
#
# Poissons Ratio (x) = 0.32054 0.36999
# Poissons Ratio (y) = 0.21872 0.35364
# Poissons Ratio (z) = 0.17476 0.24481
#
# Static dielectric constant tensor:
#      x y z
#    x 3.430450 0.000000 0.000000 
#    y 0.000000 3.735790 0.000000 
#    z 0.000000 0.000000 3.857000 
# 
# 
# High freq. dielectric constant tensor:
#      x y z
#    x 1.754000 0.000000 0.000000 
#    y 0.000000 1.772000 0.000000 
#    z 0.000000 0.000000 1.762130 
# 
# From -- ./inp_files/23873.got.cif
#   From: 2010.03.12/outbox.cif.g09.slc.cpg/sg64_12_cif.got.tgz:23873.got - 2010.04.10 20:19:32.
