data_PCOD8263788
_publ_section_title
;
Structure prediction by ZEFSAII (Michael W. Deem and Ramdas Pophale) SiO2 
 PCOD8263788
Probable space group: C M C A
;
_chemical_formula_sum "Si O2"
_cell_formula_units_Z 112
_cell_length_a 14.975325
_cell_length_b 24.308766
_cell_length_c 14.519433
_cell_angle_alpha 90.000000
_cell_angle_beta 90.000000
_cell_angle_gamma 90.000000
_cell_volume 5285.533460
_symmetry_space_group_name_H-M "C M C A"
_symmetry_group_IT_number 64
_symmetry_cell_setting 'orthorhombic'
loop_
_space_group_symop_operation_xyz
x,y,z
-x,1/2-y,1/2+z
x,-y,-z
-x,1/2+y,1/2-z
-x,-y,-z
x,1/2+y,1/2-z
-x,y,z
x,1/2-y,1/2+z
1/2+x,1/2+y,z
1/2-x,-y,1/2+z
1/2+x,1/2-y,-z
1/2-x,y,1/2-z
1/2-x,1/2-y,-z
1/2+x,y,1/2-z
1/2-x,1/2+y,z
1/2+x,-y,1/2+z
loop_
_atom_site_type_symbol
_atom_site_label
_atom_site_fract_x
_atom_site_fract_y
_atom_site_fract_z
Si Si1 0.399077 0.996512 0.658495
Si Si2 0.699839 0.343686 0.036412
Si Si3 0.599768 0.595395 0.303415
Si Si4 0.818601 0.707574 0.824069
Si Si5 0.235182 0.447173 0.952342
Si Si6 0.100891 0.817995 0.850376
Si Si7 0.602359 0.881745 0.297011
O O1 0.500000 0.999546 0.614532
O O2 0.403740 0.961735 0.750737
O O3 0.329556 0.967443 0.590175
O O4 0.363016 0.056218 0.688604
O O5 0.773849 0.300958 0.075180
O O6 0.619754 0.346162 0.110633
O O7 0.742025 0.404363 0.032294
O O8 0.666233 0.327383 0.935841
O O9 0.500000 0.609122 0.342233
O O10 0.670747 0.586245 0.383959
O O11 0.632215 0.644996 0.236358
O O12 0.750000 0.732625 0.750000
O O13 0.896880 0.752869 0.828647
O O14 0.849773 0.647482 0.789255
O O15 0.187305 0.500000 0.000000
O O16 0.000000 0.835161 0.876294
O O17 0.500000 0.882082 0.272364
#
# Coordination Sequence:
#
# PCOD8263788 Si02
#       7
#    16  16  16  16  16  16  16
#     4  10  21  37  62  93 124 163 214 265 322 390
#     4  11  23  38  61  98 125 160 213 270 323 390
#     4  10  24  42  63  92 125 172 223 271 330 394
#     4  10  24  40  63  90 126 167 213 260 330 397
#     4  12  24  38  65  94 135 175 210 268 333 399
#     4  11  23  43  67  90 122 166 222 277 326 383
#     4  10  21  40  62  89 128 166 207 263 322 391
#
# _framework density 21.189914999999999
#
# number of rings (size 3 to 8) (size 9 to 14) (size 15 to 20)
#    0.000    1.429    2.857    1.714    4.000    2.286 
#    0.000    1.429    0.000    0.000    0.000    0.000 
#    0.000    0.000    0.000    0.000    0.000    0.000 
#
# Total GULP energy -694133.598183 kJ/mol
# GULP energy per Si atom -12395.242825 kJ/mol
# Density = 2.114169 g / cm^3
# Si number density = 21.189915 Si / 1000 Ang^3
#
#
#
# Elastic Constant Matrix: (Units=GPa)
#
#
# Indices 1 2 3 4 5 6 
#
# 1 88.2164 34.8473 47.8284 0.0000 0.0000 0.0000
# 2 34.8473 115.8127 38.8486 0.0000 0.0000 0.0000
# 3 47.8284 38.8486 99.7372 0.0000 0.0000 0.0000
# 4 0.0000 0.0000 0.0000 25.0631 0.0000 0.0000
# 5 0.0000 0.0000 0.0000 0.0000 19.6797 0.0000
# 6 0.0000 0.0000 0.0000 0.0000 0.0000 31.4104
#
#
#
# Elastic Compliance Matrix: (Units=1/GPa)
#
#
# Indices 1 2 3 4 5 6 
#
# 1 0.015957 -0.002570 -0.006651 0.000000 0.000000 0.000000
# 2 -0.002570 0.010346 -0.002797 0.000000 0.000000 0.000000
# 3 -0.006651 -0.002797 0.014305 0.000000 0.000000 0.000000
# 4 0.000000 0.000000 0.000000 0.039899 0.000000 0.000000
# 5 0.000000 0.000000 0.000000 0.000000 0.050814 0.000000
# 6 0.000000 0.000000 0.000000 0.000000 0.000000 0.031837
#
#
# Mechanical properties :
#
#
# Convention : Reuss Voigt Hill
#
# Bulk Modulus (GPa) = 60.34489 60.75722 60.55105
# Shear Modulus (GPa) = 25.94441 27.38011 26.66226
#
# Velocity S-wave (km/s) = 3.50290 3.59852 3.55103
# Velocity P-wave (km/s) = 6.70077 6.78238 6.74170
#
# Compressibility (1/GPa) = 0.01657141
#
# Stress axis : x y z
#
# Youngs Moduli (GPa) = 62.66826 96.65178 69.90370
#
# Poissons Ratio (x) = 0.24843 0.46492
# Poissons Ratio (y) = 0.16108 0.19555
# Poissons Ratio (z) = 0.41680 0.27038
#
# Static dielectric constant tensor:
#      x y z
#    x 3.917570 0.000000 0.000000 
#    y 0.000000 4.057180 0.000000 
#    z 0.000000 0.000000 3.603490 
# 
# 
# High freq. dielectric constant tensor:
#      x y z
#    x 1.824440 0.000000 0.000000 
#    y 0.000000 1.842020 0.000000 
#    z 0.000000 0.000000 1.817110 
# 
# From -- ./inp_files/24269.got.cif
#   From: 2010.03.12/outbox.cif.g09.slc.cpg/sg64_13_cif.got.tgz:24269.got - 2010.04.10 20:19:32.
