data_PCOD8263999
_publ_section_title
;
Structure prediction by ZEFSAII (Michael W. Deem and Ramdas Pophale) SiO2 
 PCOD8263999
Probable space group: C M C A
;
_chemical_formula_sum "Si O2"
_cell_formula_units_Z 112
_cell_length_a 16.640760
_cell_length_b 14.953351
_cell_length_c 21.555943
_cell_angle_alpha 90.000000
_cell_angle_beta 90.000000
_cell_angle_gamma 90.000000
_cell_volume 5363.875775
_symmetry_space_group_name_H-M "C M C A"
_symmetry_group_IT_number 64
_symmetry_cell_setting 'orthorhombic'
loop_
_space_group_symop_operation_xyz
x,y,z
-x,1/2-y,1/2+z
x,-y,-z
-x,1/2+y,1/2-z
-x,-y,-z
x,1/2+y,1/2-z
-x,y,z
x,1/2-y,1/2+z
1/2+x,1/2+y,z
1/2-x,-y,1/2+z
1/2+x,1/2-y,-z
1/2-x,y,1/2-z
1/2-x,1/2-y,-z
1/2+x,y,1/2-z
1/2-x,1/2+y,z
1/2+x,-y,1/2+z
loop_
_atom_site_type_symbol
_atom_site_label
_atom_site_fract_x
_atom_site_fract_y
_atom_site_fract_z
Si Si1 0.593299 0.433220 0.178856
Si Si2 0.907588 0.374034 0.114419
Si Si3 0.842531 0.211918 0.733658
Si Si4 0.594575 0.601724 0.259808
Si Si5 0.693517 0.529566 0.936063
Si Si6 0.312350 0.329388 0.492766
Si Si7 0.662439 0.065671 0.109425
O O1 0.500000 0.444540 0.168821
O O2 0.613423 0.340045 0.211077
O O3 0.624996 0.517186 0.219444
O O4 0.630054 0.427683 0.110139
O O5 0.850952 0.346372 0.171619
O O6 0.885158 0.310655 0.055565
O O7 0.893855 0.478874 0.099845
O O8 0.000000 0.358327 0.132633
O O9 0.750000 0.224682 0.750000
O O10 0.885596 0.307245 0.723171
O O11 0.500000 0.593573 0.273957
O O12 0.644812 0.606846 0.323440
O O13 0.764394 0.593006 0.958463
O O14 0.741639 0.452630 0.898174
O O15 0.648496 0.500000 0.000000
O O16 0.250000 0.250000 0.500000
O O17 0.354892 0.359378 0.556841
#
# Coordination Sequence:
#
# PCOD8263999 Si02
#       7
#    16  16  16  16  16  16  16
#     4  11  24  43  65  94 134 171 216 276 328 388
#     4  11  22  42  66  93 130 170 221 278 329 386
#     4  12  26  40  65  95 131 173 217 275 335 398
#     4  11  25  41  65 100 132 170 217 272 336 397
#     4   9  21  40  62  90 123 170 217 260 313 390
#     4  10  23  40  62  95 131 166 220 269 322 393
#     4  10  21  39  67  91 125 169 216 270 323 394
#
# _framework density 20.880424000000001
#
# number of rings (size 3 to 8) (size 9 to 14) (size 15 to 20)
#    0.000    1.429    1.429    4.714    6.000    3.143 
#    0.000    0.714    0.000    0.000    0.000    0.000 
#    0.000    0.000    0.000    0.000    0.000    0.000 
#
# Total GULP energy -694259.235353 kJ/mol
# GULP energy per Si atom -12397.486346 kJ/mol
# Density = 2.083290 g / cm^3
# Si number density = 20.880424 Si / 1000 Ang^3
#
#
#
# Elastic Constant Matrix: (Units=GPa)
#
#
# Indices 1 2 3 4 5 6 
#
# 1 58.9650 8.6395 20.5391 0.0000 0.0000 0.0000
# 2 8.6395 68.8847 1.7966 0.0000 0.0000 0.0000
# 3 20.5391 1.7966 90.0469 0.0000 0.0000 0.0000
# 4 0.0000 0.0000 0.0000 20.8120 0.0000 0.0000
# 5 0.0000 0.0000 0.0000 0.0000 26.7860 0.0000
# 6 0.0000 0.0000 0.0000 0.0000 0.0000 31.4451
#
#
#
# Elastic Compliance Matrix: (Units=1/GPa)
#
#
# Indices 1 2 3 4 5 6 
#
# 1 0.018763 -0.002243 -0.004235 0.000000 0.000000 0.000000
# 2 -0.002243 0.014793 0.000216 0.000000 0.000000 0.000000
# 3 -0.004235 0.000216 0.012067 0.000000 0.000000 0.000000
# 4 0.000000 0.000000 0.000000 0.048049 0.000000 0.000000
# 5 0.000000 0.000000 0.000000 0.000000 0.037333 0.000000
# 6 0.000000 0.000000 0.000000 0.000000 0.000000 0.031801
#
#
# Mechanical properties :
#
#
# Convention : Reuss Voigt Hill
#
# Bulk Modulus (GPa) = 30.21151 31.09409 30.65280
# Shear Modulus (GPa) = 26.82947 28.27005 27.54976
#
# Velocity S-wave (km/s) = 3.58845 3.68353 3.63630
# Velocity P-wave (km/s) = 5.62757 5.74587 5.68703
#
# Compressibility (1/GPa) = 0.03309996
#
# Stress axis : x y z
#
# Youngs Moduli (GPa) = 53.29647 67.60114 82.87083
#
# Poissons Ratio (x) = 0.15161 0.35095
# Poissons Ratio (y) = 0.11953 -0.01794
# Poissons Ratio (z) = 0.22571 -0.01463
#
# Static dielectric constant tensor:
#      x y z
#    x 3.656810 0.000000 0.000000 
#    y 0.000000 5.923040 0.000000 
#    z 0.000000 0.000000 4.218950 
# 
# 
# High freq. dielectric constant tensor:
#      x y z
#    x 1.806730 0.000000 0.000000 
#    y 0.000000 1.807220 0.000000 
#    z 0.000000 0.000000 1.830180 
# 
# From -- ./inp_files/45265.got.cif
#   From: 2010.03.12/outbox.cif.g09.slc.cpg/sg64_23_cif.got.tgz:45265.got - 2010.04.10 20:19:32.
