data_PCOD8263947
_publ_section_title
;
Structure prediction by ZEFSAII (Michael W. Deem and Ramdas Pophale) SiO2 
 PCOD8263947
Probable space group: C M C A
;
_chemical_formula_sum "Si O2"
_cell_formula_units_Z 64
_cell_length_a 11.095020
_cell_length_b 13.374310
_cell_length_c 18.514796
_cell_angle_alpha 90.000000
_cell_angle_beta 90.000000
_cell_angle_gamma 90.000000
_cell_volume 2747.377936
_symmetry_space_group_name_H-M "C M C A"
_symmetry_group_IT_number 64
_symmetry_cell_setting 'orthorhombic'
loop_
_space_group_symop_operation_xyz
x,y,z
-x,1/2-y,1/2+z
x,-y,-z
-x,1/2+y,1/2-z
-x,-y,-z
x,1/2+y,1/2-z
-x,y,z
x,1/2-y,1/2+z
1/2+x,1/2+y,z
1/2-x,-y,1/2+z
1/2+x,1/2-y,-z
1/2-x,y,1/2-z
1/2-x,1/2-y,-z
1/2+x,y,1/2-z
1/2-x,1/2+y,z
1/2+x,-y,1/2+z
loop_
_atom_site_type_symbol
_atom_site_label
_atom_site_fract_x
_atom_site_fract_y
_atom_site_fract_z
Si Si1 0.284160 0.535173 0.170223
Si Si2 0.366415 0.139934 0.057658
Si Si3 0.771565 0.849564 0.084202
Si Si4 0.367137 0.256961 0.801137
O O1 0.250000 0.496374 0.250000
O O2 0.165548 0.575952 0.128690
O O3 0.337665 0.441085 0.125678
O O4 0.377591 0.626956 0.174514
O O5 0.500000 0.110816 0.033443
O O6 0.363819 0.258011 0.076370
O O7 0.273805 0.113161 0.993739
O O8 0.654271 0.813000 0.129497
O O9 0.500000 0.229542 0.767721
O O10 0.250000 0.243292 0.750000
#
# Coordination Sequence:
#
# PCOD8263947 Si02
#       4
#    16  16  16  16
#     4  10  22  38  58  89 123 159 202 251 306 366
#     4  10  22  40  62  89 121 158 205 258 307 363
#     4  10  21  39  62  89 121 161 207 255 313 371
#     4  10  22  40  61  90 129 168 211 263 313 368
#
# _framework density 23.29494
#
# number of rings (size 3 to 8) (size 9 to 14) (size 15 to 20)
#    0.000    2.000    0.000    2.250    0.000   14.000 
#    0.000    5.000    0.000    9.000    0.000    0.000 
#    0.000    0.000    0.000    0.000    0.000    0.000 
#
# Total GULP energy -396578.024629 kJ/mol
# GULP energy per Si atom -12393.063270 kJ/mol
# Density = 2.324192 g / cm^3
# Si number density = 23.294940 Si / 1000 Ang^3
#
#
#
# Elastic Constant Matrix: (Units=GPa)
#
#
# Indices 1 2 3 4 5 6 
#
# 1 106.7696 -6.7852 26.8414 0.0000 0.0000 0.0000
# 2 -6.7852 69.4717 39.2628 0.0000 0.0000 0.0000
# 3 26.8414 39.2628 136.6308 0.0000 0.0000 0.0000
# 4 0.0000 0.0000 0.0000 49.2816 0.0000 0.0000
# 5 0.0000 0.0000 0.0000 0.0000 20.3817 0.0000
# 6 0.0000 0.0000 0.0000 0.0000 0.0000 -0.2258
#
#
#
# Elastic Compliance Matrix: (Units=1/GPa)
#
#
# Indices 1 2 3 4 5 6 
#
# 1 0.010216 0.002545 -0.002738 0.000000 0.000000 0.000000
# 2 0.002545 0.017820 -0.005621 0.000000 0.000000 0.000000
# 3 -0.002738 -0.005621 0.009472 0.000000 0.000000 0.000000
# 4 0.000000 0.000000 0.000000 0.020292 0.000000 0.000000
# 5 0.000000 0.000000 0.000000 0.000000 0.049064 0.000000
# 6 0.000000 0.000000 0.000000 0.000000 0.000000 -4.429215
#
#
# Mechanical properties :
#
#
# Convention : Reuss Voigt Hill
#
# Bulk Modulus (GPa) = 38.63922 47.94556 43.29239
# Shear Modulus (GPa) = -1.16222 30.79105 14.81441
#
# Velocity S-wave (km/s) = -0.70711 3.63959 2.52454
# Velocity P-wave (km/s) = 3.99453 6.18779 5.20793
#
# Compressibility (1/GPa) = 0.02588044
#
# Stress axis : x y z
#
# Youngs Moduli (GPa) = 97.88405 56.11786 105.57226
#
# Poissons Ratio (x) = -0.14285 0.28911
# Poissons Ratio (y) = -0.24916 0.59340
# Poissons Ratio (z) = 0.26805 0.31543
#
# Static dielectric constant tensor:
#      x y z
#    x 3.534270 0.000000 0.000000 
#    y 0.000000 4.432410 0.000000 
#    z 0.000000 0.000000 4.315760 
# 
# 
# High freq. dielectric constant tensor:
#      x y z
#    x 1.873170 0.000000 0.000000 
#    y 0.000000 1.934810 0.000000 
#    z 0.000000 0.000000 1.930340 
# 
# From -- ./inp_files/37805.got.cif
#   From: 2010.03.12/outbox.cif.g09.slc.cpg/sg64_19_cif.got.tgz:37805.got - 2010.04.10 20:19:32.
