data_PCOD8263400
_publ_section_title
;
Structure prediction by ZEFSAII (Michael W. Deem and Ramdas Pophale) SiO2 
 PCOD8263400
Probable space group: C M C A
;
_chemical_formula_sum "Si O2"
_cell_formula_units_Z 80
_cell_length_a 22.509809
_cell_length_b 9.960260
_cell_length_c 17.869691
_cell_angle_alpha 90.000000
_cell_angle_beta 90.000000
_cell_angle_gamma 90.000000
_cell_volume 4006.448163
_symmetry_space_group_name_H-M "C M C A"
_symmetry_group_IT_number 64
_symmetry_cell_setting 'orthorhombic'
loop_
_space_group_symop_operation_xyz
x,y,z
-x,1/2-y,1/2+z
x,-y,-z
-x,1/2+y,1/2-z
-x,-y,-z
x,1/2+y,1/2-z
-x,y,z
x,1/2-y,1/2+z
1/2+x,1/2+y,z
1/2-x,-y,1/2+z
1/2+x,1/2-y,-z
1/2-x,y,1/2-z
1/2-x,1/2-y,-z
1/2+x,y,1/2-z
1/2-x,1/2+y,z
1/2+x,-y,1/2+z
loop_
_atom_site_type_symbol
_atom_site_label
_atom_site_fract_x
_atom_site_fract_y
_atom_site_fract_z
Si Si1 0.192609 0.592706 0.298197
Si Si2 0.882908 0.950210 0.582379
Si Si3 0.870429 0.632063 0.785970
Si Si4 0.500000 0.653982 0.339224
Si Si5 0.000000 0.395852 0.247626
Si Si6 0.739034 0.627061 0.447612
O O1 0.250000 0.557218 0.250000
O O2 0.165143 0.732439 0.270679
O O3 0.145747 0.473107 0.281026
O O4 0.210146 0.604818 0.385170
O O5 0.940995 0.880030 0.615065
O O6 0.827189 0.847826 0.585559
O O7 0.899468 0.000000 0.500000
O O8 0.857254 0.073211 0.632088
O O9 0.940592 0.662923 0.789524
O O10 0.500000 0.816197 0.327378
O O11 0.500000 0.559477 0.262532
O O12 0.736766 0.500000 0.500000
O O13 0.750000 0.750000 0.500000
#
# Coordination Sequence:
#
# PCOD8263400 Si02
#       6
#    16  16  16   8   8  16
#     4  12  24  38  64  92 124 162 208 253 312 372
#     4  10  20  38  60  87 119 161 207 254 306 369
#     4  11  23  40  62  92 123 162 209 262 306 372
#     4  10  21  38  60  90 115 162 204 258 301 370
#     4  10  22  38  60  88 124 154 204 260 310 348
#     4  11  25  41  60  89 128 165 202 256 318 374
#
# _framework density 19.96781
#
# number of rings (size 3 to 8) (size 9 to 14) (size 15 to 20)
#    0.000    1.200    2.000    5.700    2.800    0.000 
#    0.000    0.000    0.000    1.200    0.000   10.500 
#    0.000    0.000    0.000    0.000    0.000    0.000 
#
# Total GULP energy -495550.194912 kJ/mol
# GULP energy per Si atom -12388.754873 kJ/mol
# Density = 1.992236 g / cm^3
# Si number density = 19.967810 Si / 1000 Ang^3
#
#
#
# Elastic Constant Matrix: (Units=GPa)
#
#
# Indices 1 2 3 4 5 6 
#
# 1 129.2553 54.5496 38.8509 0.0000 0.0000 0.0000
# 2 54.5496 109.2602 41.0534 0.0000 0.0000 0.0000
# 3 38.8509 41.0534 100.2748 0.0000 0.0000 0.0000
# 4 0.0000 0.0000 0.0000 33.9904 0.0000 0.0000
# 5 0.0000 0.0000 0.0000 0.0000 20.3982 0.0000
# 6 0.0000 0.0000 0.0000 0.0000 0.0000 23.8085
#
#
#
# Elastic Compliance Matrix: (Units=1/GPa)
#
#
# Indices 1 2 3 4 5 6 
#
# 1 0.010199 -0.004263 -0.002206 0.000000 0.000000 0.000000
# 2 -0.004263 0.012598 -0.003506 0.000000 0.000000 0.000000
# 3 -0.002206 -0.003506 0.012263 0.000000 0.000000 0.000000
# 4 0.000000 0.000000 0.000000 0.029420 0.000000 0.000000
# 5 0.000000 0.000000 0.000000 0.000000 0.049024 0.000000
# 6 0.000000 0.000000 0.000000 0.000000 0.000000 0.042002
#
#
# Mechanical properties :
#
#
# Convention : Reuss Voigt Hill
#
# Bulk Modulus (GPa) = 66.18460 67.52204 66.85332
# Shear Modulus (GPa) = 27.70195 29.26185 28.48190
#
# Velocity S-wave (km/s) = 3.72873 3.83227 3.78086
# Velocity P-wave (km/s) = 7.19413 7.31236 7.25349
#
# Compressibility (1/GPa) = 0.01510926
#
# Stress axis : x y z
#
# Youngs Moduli (GPa) = 98.05029 79.37638 81.54726
#
# Poissons Ratio (x) = 0.33838 0.17991
# Poissons Ratio (y) = 0.41798 0.28592
# Poissons Ratio (z) = 0.21632 0.27831
#
# Static dielectric constant tensor:
#      x y z
#    x 4.092320 0.000000 0.000000 
#    y 0.000000 3.626570 0.000000 
#    z 0.000000 0.000000 3.734590 
# 
# 
# High freq. dielectric constant tensor:
#      x y z
#    x 1.802350 0.000000 0.000000 
#    y 0.000000 1.771790 0.000000 
#    z 0.000000 0.000000 1.769260 
# 
# From -- ./inp_files/34073.got.cif
#   From: 2010.03.12/outbox.cif.g09.slc.cpg/sg64_18_cif.got.tgz:34073.got - 2010.04.10 20:19:32.
