data_PCOD8263607
_publ_section_title
;
Structure prediction by ZEFSAII (Michael W. Deem and Ramdas Pophale) SiO2 
 PCOD8263607
Probable space group: C M C A
;
_chemical_formula_sum "Si O2"
_cell_formula_units_Z 56
_cell_length_a 30.322818
_cell_length_b 17.435662
_cell_length_c 5.058059
_cell_angle_alpha 90.000000
_cell_angle_beta 90.000000
_cell_angle_gamma 90.000000
_cell_volume 2674.187728
_symmetry_space_group_name_H-M "C M C A"
_symmetry_group_IT_number 64
_symmetry_cell_setting 'orthorhombic'
loop_
_space_group_symop_operation_xyz
x,y,z
-x,1/2-y,1/2+z
x,-y,-z
-x,1/2+y,1/2-z
-x,-y,-z
x,1/2+y,1/2-z
-x,y,z
x,1/2-y,1/2+z
1/2+x,1/2+y,z
1/2-x,-y,1/2+z
1/2+x,1/2-y,-z
1/2-x,y,1/2-z
1/2-x,1/2-y,-z
1/2+x,y,1/2-z
1/2-x,1/2+y,z
1/2+x,-y,1/2+z
loop_
_atom_site_type_symbol
_atom_site_label
_atom_site_fract_x
_atom_site_fract_y
_atom_site_fract_z
Si Si1 0.358674 0.051339 0.739926
Si Si2 0.953073 0.077230 0.661034
Si Si3 0.698684 0.200848 0.735477
Si Si4 0.000000 0.299444 0.891214
O O1 0.408271 0.082734 0.668607
O O2 0.327183 0.122829 0.784597
O O3 0.340888 0.000000 0.500000
O O4 0.358482 0.000000 0.000000
O O5 0.000000 0.077027 0.828288
O O6 0.956281 0.149499 0.456723
O O7 0.950059 0.000000 0.500000
O O8 0.685768 0.236387 0.454273
O O9 0.750000 0.179839 0.750000
O O10 0.000000 0.225197 0.085597
#
# Coordination Sequence:
#
# PCOD8263607 Si02
#       4
#    16  16  16   8
#     4  11  23  38  61  91 117 154 200 246 291 340
#     4   8  19  40  56  80 114 158 189 232 286 348
#     4  10  22  41  63  87 120 159 191 235 302 360
#     4  10  21  34  53  80 106 140 190 238 275 322
#
# _framework density 20.940936000000001
#
# number of rings (size 3 to 8) (size 9 to 14) (size 15 to 20)
#    0.857    1.429    0.000    1.714    0.000    8.571 
#    0.000    0.000    0.000    0.000    0.000    0.000 
#    0.000    0.000    0.000    0.000    0.000    0.000 
#
# Total GULP energy -346891.912029 kJ/mol
# GULP energy per Si atom -12388.996858 kJ/mol
# Density = 2.089327 g / cm^3
# Si number density = 20.940936 Si / 1000 Ang^3
#
#
#
# Elastic Constant Matrix: (Units=GPa)
#
#
# Indices 1 2 3 4 5 6 
#
# 1 105.5554 64.8866 30.7590 0.0000 0.0000 0.0000
# 2 64.8866 115.6538 14.0808 0.0000 0.0000 0.0000
# 3 30.7590 14.0808 71.5176 0.0000 0.0000 0.0000
# 4 0.0000 0.0000 0.0000 28.9179 0.0000 0.0000
# 5 0.0000 0.0000 0.0000 0.0000 -145.8360 0.0000
# 6 0.0000 0.0000 0.0000 0.0000 0.0000 144.8767
#
#
#
# Elastic Compliance Matrix: (Units=1/GPa)
#
#
# Indices 1 2 3 4 5 6 
#
# 1 0.016217 -0.008452 -0.005311 0.000000 0.000000 0.000000
# 2 -0.008452 0.013264 0.001024 0.000000 0.000000 0.000000
# 3 -0.005311 0.001024 0.016065 0.000000 0.000000 0.000000
# 4 0.000000 0.000000 0.000000 0.034581 0.000000 0.000000
# 5 0.000000 0.000000 0.000000 0.000000 -0.006857 0.000000
# 6 0.000000 0.000000 0.000000 0.000000 0.000000 0.006902
#
#
# Mechanical properties :
#
#
# Convention : Reuss Voigt Hill
#
# Bulk Modulus (GPa) = 49.83072 56.90884 53.36978
# Shear Modulus (GPa) = 44.50859 17.79176 31.15018
#
# Velocity S-wave (km/s) = 4.61525 2.91798 3.86103
# Velocity P-wave (km/s) = 7.22829 6.21190 6.73928
#
# Compressibility (1/GPa) = 0.02006794
#
# Stress axis : x y z
#
# Youngs Moduli (GPa) = 61.66544 75.39441 62.24680
#
# Poissons Ratio (x) = 0.63720 0.33057
# Poissons Ratio (y) = 0.52117 -0.06371
# Poissons Ratio (z) = 0.32748 -0.07717
#
# Static dielectric constant tensor:
#      x y z
#    x 4.205220 0.000000 0.000000 
#    y 0.000000 3.740480 0.000000 
#    z 0.000000 0.000000 3.449480 
# 
# 
# High freq. dielectric constant tensor:
#      x y z
#    x 1.811680 0.000000 0.000000 
#    y 0.000000 1.834360 0.000000 
#    z 0.000000 0.000000 1.802410 
# 
# From -- ./inp_files/3097.got.cif
#   From: 2010.03.12/outbox.cif.g09.slc.cpg/sg64_2_cif.got.tgz:3097.got - 2010.04.10 20:19:32.
