data_PCOD8263495
_publ_section_title
;
Structure prediction by ZEFSAII (Michael W. Deem and Ramdas Pophale) SiO2 
 PCOD8263495
Probable space group: C M C A
;
_chemical_formula_sum "Si O2"
_cell_formula_units_Z 112
_cell_length_a 14.776511
_cell_length_b 31.763040
_cell_length_c 11.626762
_cell_angle_alpha 90.000000
_cell_angle_beta 90.000000
_cell_angle_gamma 90.000000
_cell_volume 5456.984817
_symmetry_space_group_name_H-M "C M C A"
_symmetry_group_IT_number 64
_symmetry_cell_setting 'orthorhombic'
loop_
_space_group_symop_operation_xyz
x,y,z
-x,1/2-y,1/2+z
x,-y,-z
-x,1/2+y,1/2-z
-x,-y,-z
x,1/2+y,1/2-z
-x,y,z
x,1/2-y,1/2+z
1/2+x,1/2+y,z
1/2-x,-y,1/2+z
1/2+x,1/2-y,-z
1/2-x,y,1/2-z
1/2-x,1/2-y,-z
1/2+x,y,1/2-z
1/2-x,1/2+y,z
1/2+x,-y,1/2+z
loop_
_atom_site_type_symbol
_atom_site_label
_atom_site_fract_x
_atom_site_fract_y
_atom_site_fract_z
Si Si1 0.894813 0.283333 0.536677
Si Si2 0.605280 0.165388 0.249620
Si Si3 0.100801 0.419775 0.663856
Si Si4 0.698855 0.005273 0.632030
Si Si5 0.396575 0.686694 0.505529
Si Si6 0.273699 0.835537 0.371992
Si Si7 0.600029 0.589464 0.902425
O O1 0.854573 0.304294 0.652279
O O2 0.880539 0.233687 0.550333
O O3 0.837883 0.301626 0.431724
O O4 0.000000 0.293462 0.513032
O O5 0.500000 0.161120 0.274944
O O6 0.643992 0.117501 0.257111
O O7 0.625404 0.186529 0.128963
O O8 0.160955 0.460791 0.672031
O O9 0.097981 0.400108 0.536985
O O10 0.000000 0.432185 0.705323
O O11 0.750000 0.019945 0.750000
O O12 0.622019 0.040326 0.615762
O O13 0.744872 0.000000 0.500000
O O14 0.500000 0.671343 0.530507
O O15 0.322402 0.656311 0.563713
O O16 0.250000 0.815449 0.250000
O O17 0.324574 0.879887 0.349169
O O18 0.500000 0.597935 0.849424
#
# Coordination Sequence:
#
# PCOD8263495 Si02
#       7
#    16  16  16  16  16  16  16
#     4  10  21  41  63  84 115 160 206 254 307 367
#     4   9  18  36  62  89 117 154 205 256 310 367
#     4   9  17  34  61  90 115 150 205 260 309 359
#     4  10  21  36  59  91 128 161 203 255 315 375
#     4  10  24  41  60  88 124 161 203 258 317 371
#     4  12  25  38  57  87 121 159 211 250 308 375
#     4  10  20  39  62  88 120 162 212 260 303 364
#
# _framework density 20.524153999999999
#
# number of rings (size 3 to 8) (size 9 to 14) (size 15 to 20)
#    0.000    2.000    1.429    1.714    2.000    5.714 
#    0.000    0.000    0.000    1.714    0.000    0.000 
#    0.000    0.000    0.000    0.000    0.000    0.000 
#
# Total GULP energy -693827.434512 kJ/mol
# GULP energy per Si atom -12389.775616 kJ/mol
# Density = 2.047744 g / cm^3
# Si number density = 20.524154 Si / 1000 Ang^3
#
#
#
# Elastic Constant Matrix: (Units=GPa)
#
#
# Indices 1 2 3 4 5 6 
#
# 1 103.1331 37.9817 46.5014 0.0000 0.0000 0.0000
# 2 37.9817 92.1122 27.9399 0.0000 0.0000 0.0000
# 3 46.5014 27.9399 98.2940 0.0000 0.0000 0.0000
# 4 0.0000 0.0000 0.0000 17.0055 0.0000 0.0000
# 5 0.0000 0.0000 0.0000 0.0000 26.3088 0.0000
# 6 0.0000 0.0000 0.0000 0.0000 0.0000 27.6241
#
#
#
# Elastic Compliance Matrix: (Units=1/GPa)
#
#
# Indices 1 2 3 4 5 6 
#
# 1 0.013541 -0.003984 -0.005274 0.000000 0.000000 0.000000
# 2 -0.003984 0.013053 -0.001825 0.000000 0.000000 0.000000
# 3 -0.005274 -0.001825 0.013187 0.000000 0.000000 0.000000
# 4 0.000000 0.000000 0.000000 0.058805 0.000000 0.000000
# 5 0.000000 0.000000 0.000000 0.000000 0.038010 0.000000
# 6 0.000000 0.000000 0.000000 0.000000 0.000000 0.036200
#
#
# Mechanical properties :
#
#
# Convention : Reuss Voigt Hill
#
# Bulk Modulus (GPa) = 56.76955 57.59835 57.18395
# Shear Modulus (GPa) = 24.89611 26.26209 25.57910
#
# Velocity S-wave (km/s) = 3.48662 3.58099 3.53412
# Velocity P-wave (km/s) = 6.62786 6.72477 6.67649
#
# Compressibility (1/GPa) = 0.01761508
#
# Stress axis : x y z
#
# Youngs Moduli (GPa) = 73.84819 76.61189 75.83007
#
# Poissons Ratio (x) = 0.30522 0.39991
# Poissons Ratio (y) = 0.29421 0.13843
# Poissons Ratio (z) = 0.38946 0.13985
#
# Static dielectric constant tensor:
#      x y z
#    x 3.765420 0.000000 0.000000 
#    y 0.000000 3.630780 0.000000 
#    z 0.000000 0.000000 3.785640 
# 
# 
# High freq. dielectric constant tensor:
#      x y z
#    x 1.793310 0.000000 0.000000 
#    y 0.000000 1.804730 0.000000 
#    z 0.000000 0.000000 1.794120 
# 
# From -- ./inp_files/14931.got.cif
#   From: 2010.03.12/outbox.cif.g09.slc.cpg/sg64_8_cif.got.tgz:14931.got - 2010.04.10 20:19:32.
