data_PCOD8263656
_publ_section_title
;
Structure prediction by ZEFSAII (Michael W. Deem and Ramdas Pophale) SiO2 
 PCOD8263656
Probable space group: C M C A
;
_chemical_formula_sum "Si O2"
_cell_formula_units_Z 96
_cell_length_a 17.180661
_cell_length_b 25.120213
_cell_length_c 10.107591
_cell_angle_alpha 90.000000
_cell_angle_beta 90.000000
_cell_angle_gamma 90.000000
_cell_volume 4362.252962
_symmetry_space_group_name_H-M "C M C A"
_symmetry_group_IT_number 64
_symmetry_cell_setting 'orthorhombic'
loop_
_space_group_symop_operation_xyz
x,y,z
-x,1/2-y,1/2+z
x,-y,-z
-x,1/2+y,1/2-z
-x,-y,-z
x,1/2+y,1/2-z
-x,y,z
x,1/2-y,1/2+z
1/2+x,1/2+y,z
1/2-x,-y,1/2+z
1/2+x,1/2-y,-z
1/2-x,y,1/2-z
1/2-x,1/2-y,-z
1/2+x,y,1/2-z
1/2-x,1/2+y,z
1/2+x,-y,1/2+z
loop_
_atom_site_type_symbol
_atom_site_label
_atom_site_fract_x
_atom_site_fract_y
_atom_site_fract_z
Si Si1 0.913992 0.344139 0.785875
Si Si2 0.673824 0.127543 0.976419
Si Si3 0.085509 0.736365 0.559890
Si Si4 0.212270 0.540774 0.614468
Si Si5 0.410147 0.373452 0.209117
Si Si6 0.206817 0.300795 0.619271
O O1 0.910691 0.282416 0.831818
O O2 0.853509 0.347870 0.664365
O O3 0.000000 0.360968 0.738962
O O4 0.886924 0.382658 0.904038
O O5 0.718675 0.073586 0.951906
O O6 0.624027 0.144454 0.849934
O O7 0.732688 0.174726 0.016103
O O8 0.098853 0.678346 0.619847
O O9 0.155483 0.744863 0.453768
O O10 0.000000 0.738414 0.490218
O O11 0.185296 0.500000 0.500000
O O12 0.250000 0.515513 0.750000
O O13 0.138353 0.577529 0.648792
O O14 0.500000 0.391157 0.223085
O O15 0.250000 0.277152 0.750000
#
# Coordination Sequence:
#
# PCOD8263656 Si02
#       6
#    16  16  16  16  16  16
#     4  10  22  37  57  85 124 169 208 249 294 355
#     4  10  21  39  59  88 119 161 198 248 303 362
#     4  10  21  37  57  83 122 166 205 248 299 348
#     4  10  22  42  67  93 121 156 199 257 321 380
#     4  10  21  40  64  89 120 158 203 248 297 365
#     4  10  21  36  53  82 119 158 208 250 295 355
#
# _framework density 22.006976999999999
#
# number of rings (size 3 to 8) (size 9 to 14) (size 15 to 20)
#    0.000    2.000    1.667    1.000    2.333    5.000 
#    3.000    0.000    0.000   14.500    0.000    0.000 
#    0.000    0.000    0.000    0.000    0.000    0.000 
#
# Total GULP energy -594835.330552 kJ/mol
# GULP energy per Si atom -12392.402720 kJ/mol
# Density = 2.195689 g / cm^3
# Si number density = 22.006977 Si / 1000 Ang^3
#
#
#
# Elastic Constant Matrix: (Units=GPa)
#
#
# Indices 1 2 3 4 5 6 
#
# 1 147.1197 31.0062 44.7532 0.0000 0.0000 0.0000
# 2 31.0062 51.5587 37.3874 0.0000 0.0000 0.0000
# 3 44.7532 37.3874 103.6753 0.0000 0.0000 0.0000
# 4 0.0000 0.0000 0.0000 23.5908 0.0000 0.0000
# 5 0.0000 0.0000 0.0000 0.0000 26.6827 0.0000
# 6 0.0000 0.0000 0.0000 0.0000 0.0000 -630.3615
#
#
#
# Elastic Compliance Matrix: (Units=1/GPa)
#
#
# Indices 1 2 3 4 5 6 
#
# 1 0.008197 -0.003201 -0.002384 0.000000 0.000000 0.000000
# 2 -0.003201 0.027513 -0.008540 0.000000 0.000000 0.000000
# 3 -0.002384 -0.008540 0.013754 0.000000 0.000000 0.000000
# 4 0.000000 0.000000 0.000000 0.042389 0.000000 0.000000
# 5 0.000000 0.000000 0.000000 0.000000 0.037477 0.000000
# 6 0.000000 0.000000 0.000000 0.000000 0.000000 -0.001586
#
#
# Mechanical properties :
#
#
# Convention : Reuss Voigt Hill
#
# Bulk Modulus (GPa) = 47.13748 58.73859 52.93804
# Shear Modulus (GPa) = 30.66242 -103.40381 -36.37069
#
# Velocity S-wave (km/s) = 3.73675 -6.86213 -4.06974
# Velocity P-wave (km/s) = 6.33116 6.00302 1.42255
#
# Compressibility (1/GPa) = 0.02121454
#
# Stress axis : x y z
#
# Youngs Moduli (GPa) = 121.99607 36.34650 72.70400
#
# Poissons Ratio (x) = 0.11633 0.17334
# Poissons Ratio (y) = 0.39046 0.62090
# Poissons Ratio (z) = 0.29086 0.31040
#
# Static dielectric constant tensor:
#      x y z
#    x 4.629790 0.000000 0.000000 
#    y 0.000000 3.380440 0.000000 
#    z 0.000000 0.000000 4.270960 
# 
# 
# High freq. dielectric constant tensor:
#      x y z
#    x 1.895130 0.000000 0.000000 
#    y 0.000000 1.806340 0.000000 
#    z 0.000000 0.000000 1.878120 
# 
# From -- ./inp_files/16242.got.cif
#   From: 2010.03.12/outbox.cif.g09.slc.cpg/sg64_9_cif.got.tgz:16242.got - 2010.04.10 20:19:32.
