data_PCOD8263651
_publ_section_title
;
Structure prediction by ZEFSAII (Michael W. Deem and Ramdas Pophale) SiO2 
 PCOD8263651
Probable space group: C M C A
;
_chemical_formula_sum "Si O2"
_cell_formula_units_Z 72
_cell_length_a 25.088992
_cell_length_b 27.412654
_cell_length_c 5.133019
_cell_angle_alpha 90.000000
_cell_angle_beta 90.000000
_cell_angle_gamma 90.000000
_cell_volume 3530.263881
_symmetry_space_group_name_H-M "C M C A"
_symmetry_group_IT_number 64
_symmetry_cell_setting 'orthorhombic'
loop_
_space_group_symop_operation_xyz
x,y,z
-x,1/2-y,1/2+z
x,-y,-z
-x,1/2+y,1/2-z
-x,-y,-z
x,1/2+y,1/2-z
-x,y,z
x,1/2-y,1/2+z
1/2+x,1/2+y,z
1/2-x,-y,1/2+z
1/2+x,1/2-y,-z
1/2-x,y,1/2-z
1/2-x,1/2-y,-z
1/2+x,y,1/2-z
1/2-x,1/2+y,z
1/2+x,-y,1/2+z
loop_
_atom_site_type_symbol
_atom_site_label
_atom_site_fract_x
_atom_site_fract_y
_atom_site_fract_z
Si Si1 0.388169 0.500000 0.500000
Si Si2 0.062459 0.902748 0.422174
Si Si3 0.688881 0.280789 0.755451
Si Si4 0.121160 0.371715 0.560490
Si Si5 0.196375 0.951586 0.861770
O O1 0.424698 0.540079 0.649596
O O2 0.350022 0.533096 0.329979
O O3 0.083190 0.890548 0.709800
O O4 0.000000 0.894509 0.419141
O O5 0.086993 0.866230 0.203887
O O6 0.677951 0.262404 0.462422
O O7 0.750000 0.299409 0.750000
O O8 0.648342 0.322934 0.835860
O O9 0.168174 0.409450 0.470506
O O10 0.250000 0.927237 0.750000
O O11 0.217494 0.000000 0.000000
#
# Coordination Sequence:
#
# PCOD8263651 Si02
#       5
#     8  16  16  16  16
#     4  10  21  36  52  82 118 162 205 242 294 344
#     4  11  23  39  60  84 118 159 210 256 294 344
#     4  10  21  40  65  95 124 154 195 245 301 366
#     4  11  23  39  62  89 119 160 199 246 304 356
#     4  11  20  34  53  84 125 159 190 230 288 365
#
# _framework density 20.395078000000002
#
# number of rings (size 3 to 8) (size 9 to 14) (size 15 to 20)
#    0.000    1.333    3.333    3.000    0.000    0.000 
#    0.000    6.667    0.000   13.333    0.000    0.000 
#    0.000    0.000    0.000    0.000    0.000    0.000 
#
# Total GULP energy -446008.605808 kJ/mol
# GULP energy per Si atom -12389.127939 kJ/mol
# Density = 2.034866 g / cm^3
# Si number density = 20.395078 Si / 1000 Ang^3
#
#
#
# Elastic Constant Matrix: (Units=GPa)
#
#
# Indices 1 2 3 4 5 6 
#
# 1 123.6927 38.7698 22.9918 0.0000 0.0000 0.0000
# 2 38.7698 65.0949 0.6173 0.0000 0.0000 0.0000
# 3 22.9918 0.6173 82.8332 0.0000 0.0000 0.0000
# 4 0.0000 0.0000 0.0000 -39.7820 0.0000 0.0000
# 5 0.0000 0.0000 0.0000 0.0000 84.8471 0.0000
# 6 0.0000 0.0000 0.0000 0.0000 0.0000 23.4852
#
#
#
# Elastic Compliance Matrix: (Units=1/GPa)
#
#
# Indices 1 2 3 4 5 6 
#
# 1 0.010591 -0.006280 -0.002893 0.000000 0.000000 0.000000
# 2 -0.006280 0.019087 0.001601 0.000000 0.000000 0.000000
# 3 -0.002893 0.001601 0.012863 0.000000 0.000000 0.000000
# 4 0.000000 0.000000 0.000000 -0.025137 0.000000 0.000000
# 5 0.000000 0.000000 0.000000 0.000000 0.011786 0.000000
# 6 0.000000 0.000000 0.000000 0.000000 0.000000 0.042580
#
#
# Mechanical properties :
#
#
# Convention : Reuss Voigt Hill
#
# Bulk Modulus (GPa) = 36.49990 44.04207 40.27099
# Shear Modulus (GPa) = 52.05763 27.65952 39.85858
#
# Velocity S-wave (km/s) = 5.05767 3.68664 4.42557
# Velocity P-wave (km/s) = 7.21401 6.30580 6.77514
#
# Compressibility (1/GPa) = 0.02739734
#
# Stress axis : x y z
#
# Youngs Moduli (GPa) = 94.42213 52.39040 77.73943
#
# Poissons Ratio (x) = 0.32903 0.22489
# Poissons Ratio (y) = 0.59300 -0.12446
# Poissons Ratio (z) = 0.27315 -0.08387
#
# Static dielectric constant tensor:
#      x y z
#    x 3.694610 0.000000 0.000000 
#    y 0.000000 3.761320 0.000000 
#    z 0.000000 0.000000 3.602090 
# 
# 
# High freq. dielectric constant tensor:
#      x y z
#    x 1.802850 0.000000 0.000000 
#    y 0.000000 1.780610 0.000000 
#    z 0.000000 0.000000 1.794210 
# 
# From -- ./inp_files/2257.got.cif
#   From: 2010.03.12/outbox.cif.g09.slc.cpg/sg64_2_cif.got.tgz:2257.got - 2010.04.10 20:19:32.
