data_PCOD8263537
_publ_section_title
;
Structure prediction by ZEFSAII (Michael W. Deem and Ramdas Pophale) SiO2 
 PCOD8263537
Probable space group: C M C A
;
_chemical_formula_sum "Si O2"
_cell_formula_units_Z 88
_cell_length_a 17.645538
_cell_length_b 17.331602
_cell_length_c 12.017992
_cell_angle_alpha 90.000000
_cell_angle_beta 90.000000
_cell_angle_gamma 90.000000
_cell_volume 3675.407712
_symmetry_space_group_name_H-M "C M C A"
_symmetry_group_IT_number 64
_symmetry_cell_setting 'orthorhombic'
loop_
_space_group_symop_operation_xyz
x,y,z
-x,1/2-y,1/2+z
x,-y,-z
-x,1/2+y,1/2-z
-x,-y,-z
x,1/2+y,1/2-z
-x,y,z
x,1/2-y,1/2+z
1/2+x,1/2+y,z
1/2-x,-y,1/2+z
1/2+x,1/2-y,-z
1/2-x,y,1/2-z
1/2-x,1/2-y,-z
1/2+x,y,1/2-z
1/2-x,1/2+y,z
1/2+x,-y,1/2+z
loop_
_atom_site_type_symbol
_atom_site_label
_atom_site_fract_x
_atom_site_fract_y
_atom_site_fract_z
Si Si1 0.339992 0.866564 0.917329
Si Si2 0.500000 0.713957 0.649618
Si Si3 0.751403 0.500000 0.000000
Si Si4 0.162585 0.082604 0.171309
Si Si5 0.000000 0.520866 0.369472
Si Si6 0.500000 0.910328 0.982518
Si Si7 0.370387 0.790018 0.517631
Si Si8 0.000000 0.146573 0.871978
O O1 0.308247 0.894622 0.795762
O O2 0.429520 0.879785 0.911632
O O3 0.304157 0.923597 0.010500
O O4 0.325417 0.776219 0.948569
O O5 0.500000 0.626747 0.604444
O O6 0.423147 0.753544 0.611522
O O7 0.500000 0.714345 0.781960
O O8 0.701531 0.507006 0.114435
O O9 0.186443 0.152938 0.085577
O O10 0.072092 0.070709 0.169357
O O11 0.000000 0.500000 0.500000
O O12 0.000000 0.436877 0.311684
O O13 0.500000 0.000000 0.000000
O O14 0.423063 0.843908 0.441449
#
# Coordination Sequence:
#
# PCOD8263537 Si02
#       8
#    16   8   8  16   8   8  16   8
#     4  11  25  43  70  97 135 182 221 277 341 391
#     4   9  20  31  58  96 133 167 216 272 329 387
#     4  12  26  46  64  96 136 168 230 278 326 418
#     4  12  24  44  69  98 137 182 221 274 346 390
#     4  12  21  40  66 102 136 173 217 283 320 393
#     4  10  20  40  62  97 132 169 219 279 316 393
#     4  10  21  40  62  93 136 172 228 277 321 406
#     4  11  19  33  60  99 136 175 218 271 340 384
#
# _framework density 23.942921999999999
#
# number of rings (size 3 to 8) (size 9 to 14) (size 15 to 20)
#    0.000    1.091    3.636    3.273    2.545    0.727 
#    0.000    5.455    0.000    0.000    0.000    0.000 
#    0.000    0.000    0.000    0.000    0.000    0.000 
#
# Total GULP energy -545411.611789 kJ/mol
# GULP energy per Si atom -12395.718450 kJ/mol
# Density = 2.388843 g / cm^3
# Si number density = 23.942922 Si / 1000 Ang^3
#
#
#
# Elastic Constant Matrix: (Units=GPa)
#
#
# Indices 1 2 3 4 5 6 
#
# 1 54.9017 27.3253 22.2790 0.0000 0.0000 0.0000
# 2 27.3253 146.0327 44.8196 0.0000 0.0000 0.0000
# 3 22.2790 44.8196 141.7955 0.0000 0.0000 0.0000
# 4 0.0000 0.0000 0.0000 40.0748 0.0000 0.0000
# 5 0.0000 0.0000 0.0000 0.0000 17.7052 0.0000
# 6 0.0000 0.0000 0.0000 0.0000 0.0000 -110.8997
#
#
#
# Elastic Compliance Matrix: (Units=1/GPa)
#
#
# Indices 1 2 3 4 5 6 
#
# 1 0.020712 -0.003186 -0.002247 0.000000 0.000000 0.000000
# 2 -0.003186 0.008074 -0.002051 0.000000 0.000000 0.000000
# 3 -0.002247 -0.002051 0.008054 0.000000 0.000000 0.000000
# 4 0.000000 0.000000 0.000000 0.024953 0.000000 0.000000
# 5 0.000000 0.000000 0.000000 0.000000 0.056481 0.000000
# 6 0.000000 0.000000 0.000000 0.000000 0.000000 -0.009017
#
#
# Mechanical properties :
#
#
# Convention : Reuss Voigt Hill
#
# Bulk Modulus (GPa) = 45.72393 59.06418 52.39405
# Shear Modulus (GPa) = 38.01843 5.92979 21.97411
#
# Velocity S-wave (km/s) = 3.98914 1.57544 3.03276
# Velocity P-wave (km/s) = 6.35265 5.29449 5.84756
#
# Compressibility (1/GPa) = 0.02187039
#
# Stress axis : x y z
#
# Youngs Moduli (GPa) = 48.28134 123.86193 124.16328
#
# Poissons Ratio (x) = 0.39461 0.27903
# Poissons Ratio (y) = 0.15382 0.25470
# Poissons Ratio (z) = 0.10850 0.25409
#
# Static dielectric constant tensor:
#      x y z
#    x 4.451190 0.000000 0.000000 
#    y 0.000000 4.618310 0.000000 
#    z 0.000000 0.000000 4.132390 
# 
# 
# High freq. dielectric constant tensor:
#      x y z
#    x 1.969720 0.000000 0.000000 
#    y 0.000000 1.955580 0.000000 
#    z 0.000000 0.000000 1.931800 
# 
# From -- ./inp_files/17221.got.cif
#   From: 2010.03.12/outbox.cif.g09.slc.cpg/sg64_9_cif.got.tgz:17221.got - 2010.04.10 20:19:32.
