data_PCOD8263671
_publ_section_title
;
Structure prediction by ZEFSAII (Michael W. Deem and Ramdas Pophale) SiO2 
 PCOD8263671
Probable space group: C M C A
;
_chemical_formula_sum "Si O2"
_cell_formula_units_Z 112
_cell_length_a 15.193388
_cell_length_b 30.578011
_cell_length_c 10.614609
_cell_angle_alpha 90.000000
_cell_angle_beta 90.000000
_cell_angle_gamma 90.000000
_cell_volume 4931.373107
_symmetry_space_group_name_H-M "C M C A"
_symmetry_group_IT_number 64
_symmetry_cell_setting 'orthorhombic'
loop_
_space_group_symop_operation_xyz
x,y,z
-x,1/2-y,1/2+z
x,-y,-z
-x,1/2+y,1/2-z
-x,-y,-z
x,1/2+y,1/2-z
-x,y,z
x,1/2-y,1/2+z
1/2+x,1/2+y,z
1/2-x,-y,1/2+z
1/2+x,1/2-y,-z
1/2-x,y,1/2-z
1/2-x,1/2-y,-z
1/2+x,y,1/2-z
1/2-x,1/2+y,z
1/2+x,-y,1/2+z
loop_
_atom_site_type_symbol
_atom_site_label
_atom_site_fract_x
_atom_site_fract_y
_atom_site_fract_z
Si Si1 0.764268 0.464647 0.898992
Si Si2 0.096215 0.781854 0.115543
Si Si3 0.159991 0.189263 0.390779
Si Si4 0.100306 0.918228 0.984862
Si Si5 0.099883 0.395278 0.996657
Si Si6 0.603990 0.867581 0.266017
Si Si7 0.855220 0.331571 0.612732
O O1 0.750000 0.478029 0.750000
O O2 0.803236 0.500000 0.000000
O O3 0.666188 0.456828 0.950976
O O4 0.832563 0.423751 0.910946
O O5 0.153680 0.740218 0.073223
O O6 0.139837 0.817146 0.214564
O O7 0.000000 0.766199 0.162992
O O8 0.081596 0.808462 0.986613
O O9 0.091787 0.155130 0.451027
O O10 0.138473 0.192299 0.244099
O O11 0.254025 0.170524 0.432038
O O12 0.131749 0.898038 0.117792
O O13 0.000000 0.935730 0.987679
O O14 0.112959 0.881732 0.875952
O O15 0.137566 0.391665 0.139829
O O16 0.000000 0.414948 0.991897
O O17 0.500000 0.862607 0.261548
#
# Coordination Sequence:
#
# PCOD8263671 Si02
#       7
#    16  16  16  16  16  16  16
#     4  12  29  49  74 110 142 175 229 284 348 430
#     4  10  21  36  56  89 130 176 229 282 329 392
#     4  11  22  36  59  89 129 175 226 279 334 402
#     4  10  21  44  74  97 130 177 225 280 342 413
#     4  11  24  44  71 101 140 184 229 285 351 414
#     4   8  19  39  65  99 135 179 234 281 336 410
#     4  10  21  39  57  85 126 168 223 276 333 401
#
# _framework density 22.711725999999999
#
# number of rings (size 3 to 8) (size 9 to 14) (size 15 to 20)
#    0.000    1.714    1.429    3.000    4.000    4.571 
#    0.000    0.000    0.000    0.000    0.000    0.000 
#    0.000    0.000    0.000    0.000    0.000    0.000 
#
# Total GULP energy -693737.738811 kJ/mol
# GULP energy per Si atom -12388.173907 kJ/mol
# Density = 2.266003 g / cm^3
# Si number density = 22.711726 Si / 1000 Ang^3
#
#
#
# Elastic Constant Matrix: (Units=GPa)
#
#
# Indices 1 2 3 4 5 6 
#
# 1 87.3707 14.6432 28.4833 0.0000 0.0000 0.0000
# 2 14.6432 75.6503 34.4030 0.0000 0.0000 0.0000
# 3 28.4833 34.4030 91.7650 0.0000 0.0000 0.0000
# 4 0.0000 0.0000 0.0000 29.2855 0.0000 0.0000
# 5 0.0000 0.0000 0.0000 0.0000 26.5488 0.0000
# 6 0.0000 0.0000 0.0000 0.0000 0.0000 22.7819
#
#
#
# Elastic Compliance Matrix: (Units=1/GPa)
#
#
# Indices 1 2 3 4 5 6 
#
# 1 0.012775 -0.000807 -0.003663 0.000000 0.000000 0.000000
# 2 -0.000807 0.015987 -0.005743 0.000000 0.000000 0.000000
# 3 -0.003663 -0.005743 0.014187 0.000000 0.000000 0.000000
# 4 0.000000 0.000000 0.000000 0.034147 0.000000 0.000000
# 5 0.000000 0.000000 0.000000 0.000000 0.037667 0.000000
# 6 0.000000 0.000000 0.000000 0.000000 0.000000 0.043895
#
#
# Mechanical properties :
#
#
# Convention : Reuss Voigt Hill
#
# Bulk Modulus (GPa) = 44.39828 45.53833 44.96831
# Shear Modulus (GPa) = 26.79680 27.54033 27.16857
#
# Velocity S-wave (km/s) = 3.43864 3.48602 3.46242
# Velocity P-wave (km/s) = 5.94615 6.02472 5.98557
#
# Compressibility (1/GPa) = 0.02252339
#
# Stress axis : x y z
#
# Youngs Moduli (GPa) = 78.27918 62.55238 70.48562
#
# Poissons Ratio (x) = 0.05049 0.25816
# Poissons Ratio (y) = 0.06318 0.40479
# Poissons Ratio (z) = 0.28671 0.35923
#
# Static dielectric constant tensor:
#      x y z
#    x 3.943080 0.000000 0.000000 
#    y 0.000000 3.914260 0.000000 
#    z 0.000000 0.000000 4.248220 
# 
# 
# High freq. dielectric constant tensor:
#      x y z
#    x 1.890140 0.000000 0.000000 
#    y 0.000000 1.878070 0.000000 
#    z 0.000000 0.000000 1.894880 
# 
# From -- ./inp_files/14983.got.cif
#   From: 2010.03.12/outbox.cif.g09.slc.cpg/sg64_8_cif.got.tgz:14983.got - 2010.04.10 20:19:32.
