data_PCOD8263290
_publ_section_title
;
Structure prediction by ZEFSAII (Michael W. Deem and Ramdas Pophale) SiO2 
 PCOD8263290
Probable space group: C M C A
;
_chemical_formula_sum "Si O2"
_cell_formula_units_Z 64
_cell_length_a 8.720052
_cell_length_b 14.657497
_cell_length_c 24.487021
_cell_angle_alpha 90.000000
_cell_angle_beta 90.000000
_cell_angle_gamma 90.000000
_cell_volume 3129.787433
_symmetry_space_group_name_H-M "C M C A"
_symmetry_group_IT_number 64
_symmetry_cell_setting 'orthorhombic'
loop_
_space_group_symop_operation_xyz
x,y,z
-x,1/2-y,1/2+z
x,-y,-z
-x,1/2+y,1/2-z
-x,-y,-z
x,1/2+y,1/2-z
-x,y,z
x,1/2-y,1/2+z
1/2+x,1/2+y,z
1/2-x,-y,1/2+z
1/2+x,1/2-y,-z
1/2-x,y,1/2-z
1/2-x,1/2-y,-z
1/2+x,y,1/2-z
1/2-x,1/2+y,z
1/2+x,-y,1/2+z
loop_
_atom_site_type_symbol
_atom_site_label
_atom_site_fract_x
_atom_site_fract_y
_atom_site_fract_z
Si Si1 0.182422 0.978772 0.191677
Si Si2 0.181574 0.832120 0.379245
Si Si3 0.180306 0.347661 0.488366
Si Si4 0.820182 0.873660 0.893253
O O1 0.250000 0.004922 0.250000
O O2 0.249134 0.053604 0.149015
O O3 0.000000 0.977238 0.194043
O O4 0.244319 0.879982 0.173415
O O5 0.238271 0.886236 0.433934
O O6 0.244124 0.728005 0.380923
O O7 0.000000 0.837376 0.375500
O O8 0.250000 0.250000 0.500000
O O9 0.213737 0.405563 0.543867
O O10 0.000000 0.341399 0.477170
O O11 0.000000 0.868868 0.884014
#
# Coordination Sequence:
#
# PCOD8263290 Si02
#       4
#    16  16  16  16
#     4  11  23  40  57  78 106 143 187 231 272 322
#     4  10  20  37  58  84 114 146 180 223 274 330
#     4   9  16  31  55  84 113 145 181 223 273 331
#     4   8  18  36  58  80 110 146 181 220 272 328
#
# _framework density 20.448671999999998
#
# number of rings (size 3 to 8) (size 9 to 14) (size 15 to 20)
#    0.000    2.500    0.000    3.750    0.000    2.000 
#    0.000   22.500    0.000    0.000    0.000    0.000 
#    0.000    0.000    0.000    0.000    0.000    0.000 
#
# Total GULP energy -396594.412624 kJ/mol
# GULP energy per Si atom -12393.575395 kJ/mol
# Density = 2.040213 g / cm^3
# Si number density = 20.448672 Si / 1000 Ang^3
#
#
#
# Elastic Constant Matrix: (Units=GPa)
#
#
# Indices 1 2 3 4 5 6 
#
# 1 76.0662 16.2515 33.4289 0.0000 0.0000 0.0000
# 2 16.2515 48.8338 27.8137 0.0000 0.0000 0.0000
# 3 33.4289 27.8137 126.1539 0.0000 0.0000 0.0000
# 4 0.0000 0.0000 0.0000 36.2550 0.0000 0.0000
# 5 0.0000 0.0000 0.0000 0.0000 39.6602 0.0000
# 6 0.0000 0.0000 0.0000 0.0000 0.0000 18.9009
#
#
#
# Elastic Compliance Matrix: (Units=1/GPa)
#
#
# Indices 1 2 3 4 5 6 
#
# 1 0.015300 -0.003182 -0.003353 0.000000 0.000000 0.000000
# 2 -0.003182 0.024080 -0.004466 0.000000 0.000000 0.000000
# 3 -0.003353 -0.004466 0.009800 0.000000 0.000000 0.000000
# 4 0.000000 0.000000 0.000000 0.027582 0.000000 0.000000
# 5 0.000000 0.000000 0.000000 0.000000 0.025214 0.000000
# 6 0.000000 0.000000 0.000000 0.000000 0.000000 0.052908
#
#
# Mechanical properties :
#
#
# Convention : Reuss Voigt Hill
#
# Bulk Modulus (GPa) = 36.79374 45.11579 40.95476
# Shear Modulus (GPa) = 26.88974 30.53386 28.71180
#
# Velocity S-wave (km/s) = 3.63021 3.86838 3.75119
# Velocity P-wave (km/s) = 5.96687 6.48563 6.23165
#
# Compressibility (1/GPa) = 0.02717854
#
# Stress axis : x y z
#
# Youngs Moduli (GPa) = 65.36092 41.52798 102.04268
#
# Poissons Ratio (x) = 0.13215 0.34211
# Poissons Ratio (y) = 0.20798 0.45571
# Poissons Ratio (z) = 0.21913 0.18546
#
# Static dielectric constant tensor:
#      x y z
#    x 3.538230 0.000000 0.000000 
#    y 0.000000 3.767060 0.000000 
#    z 0.000000 0.000000 4.185750 
# 
# 
# High freq. dielectric constant tensor:
#      x y z
#    x 1.783190 0.000000 0.000000 
#    y 0.000000 1.785680 0.000000 
#    z 0.000000 0.000000 1.809010 
# 
# From -- ./inp_files/36290.got.cif
#   From: 2010.03.12/outbox.cif.g09.slc.cpg/sg64_19_cif.got.tgz:36290.got - 2010.04.10 20:19:32.
