data_PCOD8263058
_publ_section_title
;
Structure prediction by ZEFSAII (Michael W. Deem and Ramdas Pophale) SiO2 
 PCOD8263058
Probable space group: C M C A
;
_chemical_formula_sum "Si O2"
_cell_formula_units_Z 96
_cell_length_a 19.240472
_cell_length_b 27.315975
_cell_length_c 8.934103
_cell_angle_alpha 90.000000
_cell_angle_beta 90.000000
_cell_angle_gamma 90.000000
_cell_volume 4695.516635
_symmetry_space_group_name_H-M "C M C A"
_symmetry_group_IT_number 64
_symmetry_cell_setting 'orthorhombic'
loop_
_space_group_symop_operation_xyz
x,y,z
-x,1/2-y,1/2+z
x,-y,-z
-x,1/2+y,1/2-z
-x,-y,-z
x,1/2+y,1/2-z
-x,y,z
x,1/2-y,1/2+z
1/2+x,1/2+y,z
1/2-x,-y,1/2+z
1/2+x,1/2-y,-z
1/2-x,y,1/2-z
1/2-x,1/2-y,-z
1/2+x,y,1/2-z
1/2-x,1/2+y,z
1/2+x,-y,1/2+z
loop_
_atom_site_type_symbol
_atom_site_label
_atom_site_fract_x
_atom_site_fract_y
_atom_site_fract_z
Si Si1 0.827249 0.814515 0.763247
Si Si2 0.884389 0.758315 0.031673
Si Si3 0.174816 0.416857 0.818714
Si Si4 0.324516 0.592769 0.668662
Si Si5 0.073796 0.819325 0.297361
Si Si6 0.078892 0.504541 0.822577
O O1 0.750000 0.833754 0.750000
O O2 0.840797 0.795222 0.929015
O O3 0.835041 0.772476 0.640492
O O4 0.865289 0.866106 0.728608
O O5 0.927145 0.721434 0.928160
O O6 0.931585 0.791719 0.138088
O O7 0.250000 0.428191 0.750000
O O8 0.120993 0.457825 0.761488
O O9 0.187613 0.417322 0.995593
O O10 0.250000 0.591193 0.750000
O O11 0.359444 0.645990 0.693318
O O12 0.378335 0.552410 0.731813
O O13 0.000000 0.848030 0.315526
O O14 0.000000 0.506255 0.757205
O O15 0.074961 0.500000 0.000000
#
# Coordination Sequence:
#
# PCOD8263058 Si02
#       6
#    16  16  16  16  16  16
#     4  10  20  35  58  88 123 157 200 246 293 351
#     4  10  22  38  58  85 118 163 202 246 295 349
#     4  10  21  38  61  91 122 157 198 247 298 354
#     4  11  23  38  64  92 120 158 197 248 299 355
#     4  11  23  40  60  86 121 160 203 247 296 355
#     4   9  19  39  64  91 117 154 200 245 295 357
#
# _framework density 20.445034
#
# number of rings (size 3 to 8) (size 9 to 14) (size 15 to 20)
#    0.000    1.833    1.667    2.000    4.667    3.333 
#    0.000    1.667    0.000    1.000    0.000    0.000 
#    0.000    0.000    0.000    0.000    0.000    0.000 
#
# Total GULP energy -594804.000270 kJ/mol
# GULP energy per Si atom -12391.750006 kJ/mol
# Density = 2.039850 g / cm^3
# Si number density = 20.445034 Si / 1000 Ang^3
#
#
#
# Elastic Constant Matrix: (Units=GPa)
#
#
# Indices 1 2 3 4 5 6 
#
# 1 150.6929 60.3812 37.7565 0.0000 0.0000 0.0000
# 2 60.3812 120.6103 35.8835 0.0000 0.0000 0.0000
# 3 37.7565 35.8835 100.6865 0.0000 0.0000 0.0000
# 4 0.0000 0.0000 0.0000 8.0926 0.0000 0.0000
# 5 0.0000 0.0000 0.0000 0.0000 10.5476 0.0000
# 6 0.0000 0.0000 0.0000 0.0000 0.0000 29.7669
#
#
#
# Elastic Compliance Matrix: (Units=1/GPa)
#
#
# Indices 1 2 3 4 5 6 
#
# 1 0.008612 -0.003748 -0.001894 0.000000 0.000000 0.000000
# 2 -0.003748 0.010906 -0.002481 0.000000 0.000000 0.000000
# 3 -0.001894 -0.002481 0.011526 0.000000 0.000000 0.000000
# 4 0.000000 0.000000 0.000000 0.123570 0.000000 0.000000
# 5 0.000000 0.000000 0.000000 0.000000 0.094808 0.000000
# 6 0.000000 0.000000 0.000000 0.000000 0.000000 0.033594
#
#
# Mechanical properties :
#
#
# Convention : Reuss Voigt Hill
#
# Bulk Modulus (GPa) = 67.57589 71.11469 69.34529
# Shear Modulus (GPa) = 16.43681 25.54600 20.99140
#
# Velocity S-wave (km/s) = 2.83848 3.53866 3.20773
# Velocity P-wave (km/s) = 6.62321 7.18018 6.90731
#
# Compressibility (1/GPa) = 0.01479818
#
# Stress axis : x y z
#
# Youngs Moduli (GPa) = 116.11220 91.69427 86.75875
#
# Poissons Ratio (x) = 0.34369 0.16430
# Poissons Ratio (y) = 0.43521 0.21526
# Poissons Ratio (z) = 0.21989 0.22751
#
# Static dielectric constant tensor:
#      x y z
#    x 3.590350 0.000000 0.000000 
#    y 0.000000 3.877810 0.000000 
#    z 0.000000 0.000000 3.659400 
# 
# 
# High freq. dielectric constant tensor:
#      x y z
#    x 1.794500 0.000000 0.000000 
#    y 0.000000 1.812190 0.000000 
#    z 0.000000 0.000000 1.786300 
# 
# From -- ./inp_files/8416.got.cif
#   From: 2010.03.12/outbox.cif.g09.slc.cpg/sg64_5_cif.got.tgz:8416.got - 2010.04.10 20:19:32.
