data_PCOD8263280
_publ_section_title
;
Structure prediction by ZEFSAII (Michael W. Deem and Ramdas Pophale) SiO2 
 PCOD8263280
Probable space group: C M C A
;
_chemical_formula_sum "Si O2"
_cell_formula_units_Z 80
_cell_length_a 15.617479
_cell_length_b 13.930566
_cell_length_c 18.746981
_cell_angle_alpha 90.000000
_cell_angle_beta 90.000000
_cell_angle_gamma 90.000000
_cell_volume 4078.599222
_symmetry_space_group_name_H-M "C M C A"
_symmetry_group_IT_number 64
_symmetry_cell_setting 'orthorhombic'
loop_
_space_group_symop_operation_xyz
x,y,z
-x,1/2-y,1/2+z
x,-y,-z
-x,1/2+y,1/2-z
-x,-y,-z
x,1/2+y,1/2-z
-x,y,z
x,1/2-y,1/2+z
1/2+x,1/2+y,z
1/2-x,-y,1/2+z
1/2+x,1/2-y,-z
1/2-x,y,1/2-z
1/2-x,1/2-y,-z
1/2+x,y,1/2-z
1/2-x,1/2+y,z
1/2+x,-y,1/2+z
loop_
_atom_site_type_symbol
_atom_site_label
_atom_site_fract_x
_atom_site_fract_y
_atom_site_fract_z
Si Si1 0.219081 0.833468 0.642702
Si Si2 0.405166 0.893558 0.981331
Si Si3 0.721282 0.457478 0.174226
Si Si4 0.351317 0.822760 0.123533
Si Si5 0.402960 0.186426 0.717812
O O1 0.160324 0.850286 0.574653
O O2 0.301559 0.776435 0.617622
O O3 0.161757 0.775711 0.700915
O O4 0.264385 0.928910 0.673935
O O5 0.500000 0.893703 0.946902
O O6 0.410466 0.830862 0.053933
O O7 0.375391 0.000000 0.000000
O O8 0.750000 0.413818 0.250000
O O9 0.782254 0.409481 0.115476
O O10 0.625208 0.410532 0.172608
O O11 0.404855 0.830769 0.196786
O O12 0.500000 0.210829 0.693883
#
# Coordination Sequence:
#
# PCOD8263280 Si02
#       5
#    16  16  16  16  16
#     4  11  20  37  60  84 115 156 198 235 291 361
#     4  11  22  36  56  85 117 151 195 247 295 342
#     4   9  18  34  55  80 112 149 188 229 281 346
#     4  10  20  37  57  81 117 154 195 237 290 352
#     4  10  21  37  59  87 119 152 193 247 294 341
#
# _framework density 19.614578000000002
#
# number of rings (size 3 to 8) (size 9 to 14) (size 15 to 20)
#    0.000    1.800    2.000    4.800    0.000    0.000 
#    0.000    7.000    0.000    0.000    0.000    7.000 
#    0.000    0.000    0.000    0.000    0.000    0.000 
#
# Total GULP energy -495521.858213 kJ/mol
# GULP energy per Si atom -12388.046455 kJ/mol
# Density = 1.956993 g / cm^3
# Si number density = 19.614578 Si / 1000 Ang^3
#
#
#
# Elastic Constant Matrix: (Units=GPa)
#
#
# Indices 1 2 3 4 5 6 
#
# 1 81.1982 40.0433 10.8494 0.0000 0.0000 0.0000
# 2 40.0433 120.0868 18.2728 0.0000 0.0000 0.0000
# 3 10.8494 18.2728 76.4074 0.0000 0.0000 0.0000
# 4 0.0000 0.0000 0.0000 24.9555 0.0000 0.0000
# 5 0.0000 0.0000 0.0000 0.0000 24.2687 0.0000
# 6 0.0000 0.0000 0.0000 0.0000 0.0000 18.0021
#
#
#
# Elastic Compliance Matrix: (Units=1/GPa)
#
#
# Indices 1 2 3 4 5 6 
#
# 1 0.014806 -0.004792 -0.000956 0.000000 0.000000 0.000000
# 2 -0.004792 0.010192 -0.001757 0.000000 0.000000 0.000000
# 3 -0.000956 -0.001757 0.013644 0.000000 0.000000 0.000000
# 4 0.000000 0.000000 0.000000 0.040071 0.000000 0.000000
# 5 0.000000 0.000000 0.000000 0.000000 0.041205 0.000000
# 6 0.000000 0.000000 0.000000 0.000000 0.000000 0.055549
#
#
# Mechanical properties :
#
#
# Convention : Reuss Voigt Hill
#
# Bulk Modulus (GPa) = 42.31548 46.22481 44.27014
# Shear Modulus (GPa) = 25.20715 27.34704 26.27710
#
# Velocity S-wave (km/s) = 3.58875 3.73798 3.66412
# Velocity P-wave (km/s) = 6.22836 6.49982 6.36554
#
# Compressibility (1/GPa) = 0.02363201
#
# Stress axis : x y z
#
# Youngs Moduli (GPa) = 67.53843 98.11150 73.29348
#
# Poissons Ratio (x) = 0.47012 0.07011
# Poissons Ratio (y) = 0.32362 0.12879
# Poissons Ratio (z) = 0.06460 0.17239
#
# Static dielectric constant tensor:
#      x y z
#    x 3.460440 0.000000 0.000000 
#    y 0.000000 3.559420 0.000000 
#    z 0.000000 0.000000 3.556030 
# 
# 
# High freq. dielectric constant tensor:
#      x y z
#    x 1.756090 0.000000 0.000000 
#    y 0.000000 1.763930 0.000000 
#    z 0.000000 0.000000 1.754720 
# 
# From -- ./inp_files/33019.got.cif
#   From: 2010.03.12/outbox.cif.g09.slc.cpg/sg64_17_cif.got.tgz:33019.got - 2010.04.10 20:19:32.
