data_PCOD8263744
_publ_section_title
;
Structure prediction by ZEFSAII (Michael W. Deem and Ramdas Pophale) SiO2 
 PCOD8263744
Probable space group: C M C A
;
_chemical_formula_sum "Si O2"
_cell_formula_units_Z 96
_cell_length_a 8.804476
_cell_length_b 19.680633
_cell_length_c 30.090226
_cell_angle_alpha 90.000000
_cell_angle_beta 90.000000
_cell_angle_gamma 90.000000
_cell_volume 5213.963978
_symmetry_space_group_name_H-M "C M C A"
_symmetry_group_IT_number 64
_symmetry_cell_setting 'orthorhombic'
loop_
_space_group_symop_operation_xyz
x,y,z
-x,1/2-y,1/2+z
x,-y,-z
-x,1/2+y,1/2-z
-x,-y,-z
x,1/2+y,1/2-z
-x,y,z
x,1/2-y,1/2+z
1/2+x,1/2+y,z
1/2-x,-y,1/2+z
1/2+x,1/2-y,-z
1/2-x,y,1/2-z
1/2-x,1/2-y,-z
1/2+x,y,1/2-z
1/2-x,1/2+y,z
1/2+x,-y,1/2+z
loop_
_atom_site_type_symbol
_atom_site_label
_atom_site_fract_x
_atom_site_fract_y
_atom_site_fract_z
Si Si1 0.176645 0.543861 0.203463
Si Si2 0.826832 0.797409 0.464607
Si Si3 0.175701 0.048516 0.539063
Si Si4 0.823795 0.202740 0.296259
Si Si5 0.819198 0.802896 0.365279
Si Si6 0.320467 0.554143 0.866930
O O1 0.250000 0.521574 0.250000
O O2 0.201423 0.623468 0.194860
O O3 0.261447 0.505676 0.164188
O O4 0.000000 0.524424 0.204163
O O5 0.750000 0.750000 0.500000
O O6 0.803279 0.875270 0.478880
O O7 0.760627 0.786524 0.415096
O O8 0.000000 0.775915 0.464270
O O9 0.273515 0.035579 0.582949
O O10 0.000000 0.033891 0.550936
O O11 0.235399 0.000000 0.500000
O O12 0.750000 0.225320 0.250000
O O13 0.738802 0.242611 0.334820
O O14 0.000000 0.222523 0.295539
O O15 0.751307 0.875099 0.350203
O O16 0.000000 0.808988 0.363434
O O17 0.500000 0.559403 0.863580
#
# Coordination Sequence:
#
# PCOD8263744 Si02
#       6
#    16  16  16  16  16  16
#     4  10  21  38  58  81 111 144 180 223 271 323
#     4   9  19  34  53  77 105 138 174 217 265 313
#     4   9  19  37  57  77 105 142 182 223 270 320
#     4  10  21  37  58  83 110 142 179 221 269 321
#     4  10  21  38  57  79 110 145 182 224 270 320
#     4  11  22  36  56  82 111 143 183 227 271 321
#
# _framework density 18.412095999999998
#
# number of rings (size 3 to 8) (size 9 to 14) (size 15 to 20)
#    0.000    2.167    0.000    4.000    0.000    7.667 
#    0.000    8.333    0.000    0.000    0.000    0.000 
#    0.000    0.000    0.000    0.000    0.000    0.000 
#
# Total GULP energy -595325.794710 kJ/mol
# GULP energy per Si atom -12402.620723 kJ/mol
# Density = 1.837019 g / cm^3
# Si number density = 18.412096 Si / 1000 Ang^3
#
#
#
# Elastic Constant Matrix: (Units=GPa)
#
#
# Indices 1 2 3 4 5 6 
#
# 1 111.0416 45.6635 51.9461 0.0000 0.0000 0.0000
# 2 45.6635 77.0624 64.7958 0.0000 0.0000 0.0000
# 3 51.9461 64.7958 105.1603 0.0000 0.0000 0.0000
# 4 0.0000 0.0000 0.0000 55.5758 0.0000 0.0000
# 5 0.0000 0.0000 0.0000 0.0000 37.1803 0.0000
# 6 0.0000 0.0000 0.0000 0.0000 0.0000 33.5178
#
#
#
# Elastic Compliance Matrix: (Units=1/GPa)
#
#
# Indices 1 2 3 4 5 6 
#
# 1 0.012444 -0.004576 -0.003327 0.000000 0.000000 0.000000
# 2 -0.004576 0.028610 -0.015368 0.000000 0.000000 0.000000
# 3 -0.003327 -0.015368 0.020622 0.000000 0.000000 0.000000
# 4 0.000000 0.000000 0.000000 0.017993 0.000000 0.000000
# 5 0.000000 0.000000 0.000000 0.000000 0.026896 0.000000
# 6 0.000000 0.000000 0.000000 0.000000 0.000000 0.029835
#
#
# Mechanical properties :
#
#
# Convention : Reuss Voigt Hill
#
# Bulk Modulus (GPa) = 66.07960 68.67501 67.37731
# Shear Modulus (GPa) = 26.59768 33.97871 30.28819
#
# Velocity S-wave (km/s) = 3.80488 4.30054 4.06028
# Velocity P-wave (km/s) = 7.43438 7.87650 7.65863
#
# Compressibility (1/GPa) = 0.01513326
#
# Stress axis : x y z
#
# Youngs Moduli (GPa) = 80.36006 34.95342 48.49201
#
# Poissons Ratio (x) = 0.15994 0.16135
# Poissons Ratio (y) = 0.36772 0.74521
# Poissons Ratio (z) = 0.26739 0.53715
#
# Static dielectric constant tensor:
#      x y z
#    x 3.470270 0.000000 0.000000 
#    y 0.000000 3.395810 0.000000 
#    z 0.000000 0.000000 3.327550 
# 
# 
# High freq. dielectric constant tensor:
#      x y z
#    x 1.722300 0.000000 0.000000 
#    y 0.000000 1.715370 0.000000 
#    z 0.000000 0.000000 1.719250 
# 
# From -- ./inp_files/48058.got.cif
#   From: 2010.03.12/outbox.cif.g09.slc.cpg/sg64_25_cif.got.tgz:48058.got - 2010.04.10 20:19:32.
