data_PCOD8263874
_publ_section_title
;
Structure prediction by ZEFSAII (Michael W. Deem and Ramdas Pophale) SiO2 
 PCOD8263874
Probable space group: C M C A
;
_chemical_formula_sum "Si O2"
_cell_formula_units_Z 80
_cell_length_a 13.489400
_cell_length_b 12.012322
_cell_length_c 23.276788
_cell_angle_alpha 90.000000
_cell_angle_beta 90.000000
_cell_angle_gamma 90.000000
_cell_volume 3771.747832
_symmetry_space_group_name_H-M "C M C A"
_symmetry_group_IT_number 64
_symmetry_cell_setting 'orthorhombic'
loop_
_space_group_symop_operation_xyz
x,y,z
-x,1/2-y,1/2+z
x,-y,-z
-x,1/2+y,1/2-z
-x,-y,-z
x,1/2+y,1/2-z
-x,y,z
x,1/2-y,1/2+z
1/2+x,1/2+y,z
1/2-x,-y,1/2+z
1/2+x,1/2-y,-z
1/2-x,y,1/2-z
1/2-x,1/2-y,-z
1/2+x,y,1/2-z
1/2-x,1/2+y,z
1/2+x,-y,1/2+z
loop_
_atom_site_type_symbol
_atom_site_label
_atom_site_fract_x
_atom_site_fract_y
_atom_site_fract_z
Si Si1 0.725170 0.262396 0.933978
Si Si2 0.203498 0.923729 0.351752
Si Si3 0.387327 0.565436 0.132635
Si Si4 0.613906 0.248480 0.771992
Si Si5 0.385552 0.161197 0.150235
O O1 0.676334 0.149689 0.908352
O O2 0.652330 0.367822 0.923568
O O3 0.828252 0.279501 0.900930
O O4 0.750000 0.250000 0.000000
O O5 0.180748 0.853142 0.294491
O O6 0.319751 0.957883 0.354236
O O7 0.132580 0.029763 0.351434
O O8 0.500000 0.525695 0.122375
O O9 0.376956 0.645906 0.186694
O O10 0.500000 0.208690 0.768323
O O11 0.654430 0.287049 0.710019
O O12 0.500000 0.186141 0.141724
#
# Coordination Sequence:
#
# PCOD8263874 Si02
#       5
#    16  16  16  16  16
#     4  10  23  40  57  83 120 160 203 250 298 347
#     4  10  21  38  62  84 115 158 196 239 299 357
#     4   9  20  37  59  87 117 154 201 247 296 357
#     4   9  19  37  59  87 120 148 182 236 300 362
#     4  10  22  38  59  89 117 148 196 244 295 363
#
# _framework density 21.210325000000001
#
# number of rings (size 3 to 8) (size 9 to 14) (size 15 to 20)
#    0.000    2.400    0.000    0.600    0.000   16.000 
#    0.000    6.000    0.000    4.800    0.000    0.000 
#    0.000    0.000    0.000    0.000    0.000    0.000 
#
# Total GULP energy -496044.443837 kJ/mol
# GULP energy per Si atom -12401.111096 kJ/mol
# Density = 2.116205 g / cm^3
# Si number density = 21.210325 Si / 1000 Ang^3
#
#
#
# Elastic Constant Matrix: (Units=GPa)
#
#
# Indices 1 2 3 4 5 6 
#
# 1 79.0532 28.3846 34.8859 0.0000 0.0000 0.0000
# 2 28.3846 109.0410 53.9326 0.0000 0.0000 0.0000
# 3 34.8859 53.9326 163.7729 0.0000 0.0000 0.0000
# 4 0.0000 0.0000 0.0000 20.9343 0.0000 0.0000
# 5 0.0000 0.0000 0.0000 0.0000 25.9514 0.0000
# 6 0.0000 0.0000 0.0000 0.0000 0.0000 33.1501
#
#
#
# Elastic Compliance Matrix: (Units=1/GPa)
#
#
# Indices 1 2 3 4 5 6 
#
# 1 0.014600 -0.002702 -0.002220 0.000000 0.000000 0.000000
# 2 -0.002702 0.011455 -0.003197 0.000000 0.000000 0.000000
# 3 -0.002220 -0.003197 0.007632 0.000000 0.000000 0.000000
# 4 0.000000 0.000000 0.000000 0.047768 0.000000 0.000000
# 5 0.000000 0.000000 0.000000 0.000000 0.038534 0.000000
# 6 0.000000 0.000000 0.000000 0.000000 0.000000 0.030166
#
#
# Mechanical properties :
#
#
# Convention : Reuss Voigt Hill
#
# Bulk Modulus (GPa) = 57.31177 65.14146 61.22662
# Shear Modulus (GPa) = 29.03445 31.65144 30.34294
#
# Velocity S-wave (km/s) = 3.70386 3.86718 3.78640
# Velocity P-wave (km/s) = 6.73578 7.12172 6.93144
#
# Compressibility (1/GPa) = 0.01744842
#
# Stress axis : x y z
#
# Youngs Moduli (GPa) = 68.49445 87.29438 131.03327
#
# Poissons Ratio (x) = 0.23591 0.29089
# Poissons Ratio (y) = 0.18510 0.41889
# Poissons Ratio (z) = 0.15206 0.27906
#
# Static dielectric constant tensor:
#      x y z
#    x 4.013050 0.000000 0.000000 
#    y 0.000000 3.966630 0.000000 
#    z 0.000000 0.000000 3.607180 
# 
# 
# High freq. dielectric constant tensor:
#      x y z
#    x 1.841310 0.000000 0.000000 
#    y 0.000000 1.840380 0.000000 
#    z 0.000000 0.000000 1.809100 
# 
# From -- ./inp_files/44945.got.cif
#   From: 2010.03.12/outbox.cif.g09.slc.cpg/sg64_23_cif.got.tgz:44945.got - 2010.04.10 20:19:32.
