data_PCOD8263040
_publ_section_title
;
Structure prediction by ZEFSAII (Michael W. Deem and Ramdas Pophale) SiO2 
 PCOD8263040
Probable space group: C M C A
;
_chemical_formula_sum "Si O2"
_cell_formula_units_Z 96
_cell_length_a 22.549749
_cell_length_b 8.331071
_cell_length_c 26.649391
_cell_angle_alpha 90.000000
_cell_angle_beta 90.000000
_cell_angle_gamma 90.000000
_cell_volume 5006.449464
_symmetry_space_group_name_H-M "C M C A"
_symmetry_group_IT_number 64
_symmetry_cell_setting 'orthorhombic'
loop_
_space_group_symop_operation_xyz
x,y,z
-x,1/2-y,1/2+z
x,-y,-z
-x,1/2+y,1/2-z
-x,-y,-z
x,1/2+y,1/2-z
-x,y,z
x,1/2-y,1/2+z
1/2+x,1/2+y,z
1/2-x,-y,1/2+z
1/2+x,1/2-y,-z
1/2-x,y,1/2-z
1/2-x,1/2-y,-z
1/2+x,y,1/2-z
1/2-x,1/2+y,z
1/2+x,-y,1/2+z
loop_
_atom_site_type_symbol
_atom_site_label
_atom_site_fract_x
_atom_site_fract_y
_atom_site_fract_z
Si Si1 0.613439 0.505997 0.754184
Si Si2 0.164060 0.804382 0.590666
Si Si3 0.284586 0.343306 0.396792
Si Si4 0.933429 0.224060 0.324508
Si Si5 0.803104 0.249458 0.213837
Si Si6 0.816423 0.688905 0.492143
O O1 0.574493 0.622562 0.788511
O O2 0.575262 0.439043 0.707394
O O3 0.674551 0.580885 0.734188
O O4 0.637994 0.359767 0.786955
O O5 0.214466 0.664063 0.590407
O O6 0.111453 0.766928 0.628965
O O7 0.142048 0.788043 0.532353
O O8 0.194316 0.973418 0.603639
O O9 0.283294 0.261018 0.342866
O O10 0.328479 0.243956 0.434468
O O11 0.000000 0.225473 0.346074
O O12 0.750000 0.188635 0.250000
O O13 0.824973 0.500000 0.500000
O O14 0.750000 0.750000 0.500000
#
# Coordination Sequence:
#
# PCOD8263040 Si02
#       6
#    16  16  16  16  16  16
#     4  10  22  38  54  84 114 159 206 239 289 363
#     4  11  22  36  59  91 118 155 198 250 307 359
#     4  11  21  35  58  89 124 158 186 246 307 375
#     4  11  23  41  61  83 118 164 213 251 291 352
#     4  11  22  33  56  88 129 153 185 238 312 370
#     4  10  20  35  57  86 118 154 198 241 297 369
#
# _framework density 19.175266000000001
#
# number of rings (size 3 to 8) (size 9 to 14) (size 15 to 20)
#    0.000    1.333    1.667    7.500    7.000    0.000 
#    0.000    0.000    0.000    2.500    0.000    0.000 
#    0.000    0.000    0.000    0.000    0.000    0.000 
#
# Total GULP energy -594698.791079 kJ/mol
# GULP energy per Si atom -12389.558147 kJ/mol
# Density = 1.913162 g / cm^3
# Si number density = 19.175266 Si / 1000 Ang^3
#
#
#
# Elastic Constant Matrix: (Units=GPa)
#
#
# Indices 1 2 3 4 5 6 
#
# 1 96.1534 32.5681 48.2308 0.0000 0.0000 0.0000
# 2 32.5681 75.0685 33.4248 0.0000 0.0000 0.0000
# 3 48.2308 33.4248 151.4519 0.0000 0.0000 0.0000
# 4 0.0000 0.0000 0.0000 19.6757 0.0000 0.0000
# 5 0.0000 0.0000 0.0000 0.0000 16.3560 0.0000
# 6 0.0000 0.0000 0.0000 0.0000 0.0000 15.1222
#
#
#
# Elastic Compliance Matrix: (Units=1/GPa)
#
#
# Indices 1 2 3 4 5 6 
#
# 1 0.013570 -0.004395 -0.003351 0.000000 0.000000 0.000000
# 2 -0.004395 0.016196 -0.002175 0.000000 0.000000 0.000000
# 3 -0.003351 -0.002175 0.008150 0.000000 0.000000 0.000000
# 4 0.000000 0.000000 0.000000 0.050824 0.000000 0.000000
# 5 0.000000 0.000000 0.000000 0.000000 0.061139 0.000000
# 6 0.000000 0.000000 0.000000 0.000000 0.000000 0.066128
#
#
# Mechanical properties :
#
#
# Convention : Reuss Voigt Hill
#
# Bulk Modulus (GPa) = 55.32930 61.23569 58.28249
# Shear Modulus (GPa) = 20.67186 24.12744 22.39965
#
# Velocity S-wave (km/s) = 3.28693 3.55104 3.42153
# Velocity P-wave (km/s) = 6.58197 6.98693 6.78747
#
# Compressibility (1/GPa) = 0.01807361
#
# Stress axis : x y z
#
# Youngs Moduli (GPa) = 73.69337 61.74267 122.69903
#
# Poissons Ratio (x) = 0.27135 0.41122
# Poissons Ratio (y) = 0.32388 0.26685
# Poissons Ratio (z) = 0.24698 0.13428
#
# Static dielectric constant tensor:
#      x y z
#    x 2.895330 0.000000 0.000000 
#    y 0.000000 3.629000 0.000000 
#    z 0.000000 0.000000 4.201420 
# 
# 
# High freq. dielectric constant tensor:
#      x y z
#    x 1.690010 0.000000 0.000000 
#    y 0.000000 1.758900 0.000000 
#    z 0.000000 0.000000 1.763530 
# 
# From -- ./inp_files/50650.got.cif
#   From: 2010.03.12/outbox.cif.g09.slc.cpg/sg64_26_cif.got.tgz:50650.got - 2010.04.10 20:19:32.
