data_PCOD8263875
_publ_section_title
;
Structure prediction by ZEFSAII (Michael W. Deem and Ramdas Pophale) SiO2 
 PCOD8263875
Probable space group: C M C A
;
_chemical_formula_sum "Si O2"
_cell_formula_units_Z 80
_cell_length_a 13.692985
_cell_length_b 27.187711
_cell_length_c 10.870365
_cell_angle_alpha 90.000000
_cell_angle_beta 90.000000
_cell_angle_gamma 90.000000
_cell_volume 4046.829471
_symmetry_space_group_name_H-M "C M C A"
_symmetry_group_IT_number 64
_symmetry_cell_setting 'orthorhombic'
loop_
_space_group_symop_operation_xyz
x,y,z
-x,1/2-y,1/2+z
x,-y,-z
-x,1/2+y,1/2-z
-x,-y,-z
x,1/2+y,1/2-z
-x,y,z
x,1/2-y,1/2+z
1/2+x,1/2+y,z
1/2-x,-y,1/2+z
1/2+x,1/2-y,-z
1/2-x,y,1/2-z
1/2-x,1/2-y,-z
1/2+x,y,1/2-z
1/2-x,1/2+y,z
1/2+x,-y,1/2+z
loop_
_atom_site_type_symbol
_atom_site_label
_atom_site_fract_x
_atom_site_fract_y
_atom_site_fract_z
Si Si1 0.887771 0.721301 0.454083
Si Si2 0.219230 0.186395 0.616841
Si Si3 0.241877 0.466471 0.611126
Si Si4 0.111031 0.893391 0.539411
Si Si5 0.608135 0.623663 0.182896
O O1 0.866313 0.772838 0.385970
O O2 0.817248 0.712776 0.568738
O O3 0.863008 0.677179 0.362617
O O4 0.000000 0.721242 0.498556
O O5 0.250000 0.167737 0.750000
O O6 0.180861 0.137819 0.548909
O O7 0.197022 0.500000 0.500000
O O8 0.250000 0.491342 0.750000
O O9 0.346720 0.448791 0.557437
O O10 0.178110 0.417525 0.627493
O O11 0.114396 0.868440 0.672079
O O12 0.000000 0.896615 0.488207
O O13 0.500000 0.607928 0.140981
#
# Coordination Sequence:
#
# PCOD8263875 Si02
#       5
#    16  16  16  16  16
#     4  10  22  38  58  85 119 156 195 238 285 341
#     4  11  24  36  58  87 123 155 196 239 289 341
#     4  10  21  38  62  87 118 151 199 250 305 359
#     4  10  21  39  62  85 115 156 197 237 289 350
#     4   9  19  38  63  86 113 152 198 239 287 349
#
# _framework density 19.768561999999999
#
# number of rings (size 3 to 8) (size 9 to 14) (size 15 to 20)
#    0.000    2.000    2.000    0.600    5.600    3.200 
#    0.000    0.000    0.000    0.000    0.000    0.000 
#    0.000    0.000    0.000    0.000    0.000    0.000 
#
# Total GULP energy -495674.944971 kJ/mol
# GULP energy per Si atom -12391.873624 kJ/mol
# Density = 1.972357 g / cm^3
# Si number density = 19.768562 Si / 1000 Ang^3
#
#
#
# Elastic Constant Matrix: (Units=GPa)
#
#
# Indices 1 2 3 4 5 6 
#
# 1 101.3387 21.4511 31.2967 0.0000 0.0000 0.0000
# 2 21.4511 60.7056 43.7186 0.0000 0.0000 0.0000
# 3 31.2967 43.7186 109.1939 0.0000 0.0000 0.0000
# 4 0.0000 0.0000 0.0000 20.0564 0.0000 0.0000
# 5 0.0000 0.0000 0.0000 0.0000 22.7009 0.0000
# 6 0.0000 0.0000 0.0000 0.0000 0.0000 15.9308
#
#
#
# Elastic Compliance Matrix: (Units=1/GPa)
#
#
# Indices 1 2 3 4 5 6 
#
# 1 0.011046 -0.002281 -0.002253 0.000000 0.000000 0.000000
# 2 -0.002281 0.023618 -0.008802 0.000000 0.000000 0.000000
# 3 -0.002253 -0.008802 0.013328 0.000000 0.000000 0.000000
# 4 0.000000 0.000000 0.000000 0.049859 0.000000 0.000000
# 5 0.000000 0.000000 0.000000 0.000000 0.044051 0.000000
# 6 0.000000 0.000000 0.000000 0.000000 0.000000 0.062772
#
#
# Mechanical properties :
#
#
# Convention : Reuss Voigt Hill
#
# Bulk Modulus (GPa) = 46.90377 51.57455 49.23916
# Shear Modulus (GPa) = 20.96842 23.38908 22.17875
#
# Velocity S-wave (km/s) = 3.26037 3.44342 3.35314
# Velocity P-wave (km/s) = 6.16046 6.47729 6.32086
#
# Compressibility (1/GPa) = 0.02132025
#
# Stress axis : x y z
#
# Youngs Moduli (GPa) = 90.52658 42.34025 75.03007
#
# Poissons Ratio (x) = 0.09658 0.16903
# Poissons Ratio (y) = 0.20649 0.66044
# Poissons Ratio (z) = 0.20394 0.37270
#
# Static dielectric constant tensor:
#      x y z
#    x 3.940990 0.000000 0.000000 
#    y 0.000000 3.429940 0.000000 
#    z 0.000000 0.000000 3.570130 
# 
# 
# High freq. dielectric constant tensor:
#      x y z
#    x 1.782430 0.000000 0.000000 
#    y 0.000000 1.756830 0.000000 
#    z 0.000000 0.000000 1.760400 
# 
# From -- ./inp_files/14469.got.cif
#   From: 2010.03.12/outbox.cif.g09.slc.cpg/sg64_8_cif.got.tgz:14469.got - 2010.04.10 20:19:32.
