data_PCOD8263500
_publ_section_title
;
Structure prediction by ZEFSAII (Michael W. Deem and Ramdas Pophale) SiO2 
 PCOD8263500
Probable space group: C M C A
;
_chemical_formula_sum "Si O2"
_cell_formula_units_Z 112
_cell_length_a 13.798678
_cell_length_b 13.371172
_cell_length_c 32.247157
_cell_angle_alpha 90.000000
_cell_angle_beta 90.000000
_cell_angle_gamma 90.000000
_cell_volume 5949.745479
_symmetry_space_group_name_H-M "C M C A"
_symmetry_group_IT_number 64
_symmetry_cell_setting 'orthorhombic'
loop_
_space_group_symop_operation_xyz
x,y,z
-x,1/2-y,1/2+z
x,-y,-z
-x,1/2+y,1/2-z
-x,-y,-z
x,1/2+y,1/2-z
-x,y,z
x,1/2-y,1/2+z
1/2+x,1/2+y,z
1/2-x,-y,1/2+z
1/2+x,1/2-y,-z
1/2-x,y,1/2-z
1/2-x,1/2-y,-z
1/2+x,y,1/2-z
1/2-x,1/2+y,z
1/2+x,-y,1/2+z
loop_
_atom_site_type_symbol
_atom_site_label
_atom_site_fract_x
_atom_site_fract_y
_atom_site_fract_z
Si Si1 0.888490 0.326466 0.191689
Si Si2 0.239826 0.777541 0.047799
Si Si3 0.886920 0.601916 0.900950
Si Si4 0.387683 0.031107 0.237299
Si Si5 0.718663 0.874631 0.692938
Si Si6 0.746771 0.084614 0.098702
Si Si7 0.613283 0.464309 0.045352
O O1 0.865936 0.355987 0.144533
O O2 0.865899 0.419014 0.221964
O O3 0.819004 0.235788 0.204539
O O4 0.000000 0.292532 0.196270
O O5 0.339669 0.826042 0.064548
O O6 0.210512 0.682450 0.074948
O O7 0.151923 0.853794 0.053932
O O8 0.250000 0.750000 0.000000
O O9 0.842423 0.491501 0.903202
O O10 0.000000 0.594388 0.910976
O O11 0.500000 0.058148 0.232500
O O12 0.351331 0.043111 0.284802
O O13 0.328006 0.111481 0.209796
O O14 0.717223 0.890540 0.644367
O O15 0.842616 0.042309 0.077379
O O16 0.500000 0.464369 0.051950
O O17 0.644822 0.500000 0.000000
#
# Coordination Sequence:
#
# PCOD8263500 Si02
#       7
#    16  16  16  16  16  16  16
#     4  10  20  39  63  89 120 157 204 250 299 368
#     4  11  22  39  61  90 123 161 208 254 298 362
#     4  10  22  39  63  90 122 164 205 248 305 365
#     4  10  23  41  61  88 124 159 199 251 307 364
#     4  11  22  38  64  92 119 160 203 249 307 364
#     4  11  22  39  63  88 123 158 204 253 301 366
#     4  10  22  39  59  87 123 160 199 253 310 356
#
# _framework density 18.824334
#
# number of rings (size 3 to 8) (size 9 to 14) (size 15 to 20)
#    0.000    1.571    4.286    0.429    0.000    5.143 
#    0.000    0.714    0.000    0.857    0.000    0.000 
#    0.000    0.000    0.000    0.000    0.000    0.000 
#
# Total GULP energy -694522.954987 kJ/mol
# GULP energy per Si atom -12402.195625 kJ/mol
# Density = 1.878149 g / cm^3
# Si number density = 18.824334 Si / 1000 Ang^3
#
#
#
# Elastic Constant Matrix: (Units=GPa)
#
#
# Indices 1 2 3 4 5 6 
#
# 1 107.9812 57.2657 42.8384 0.0000 0.0000 0.0000
# 2 57.2657 126.7473 53.8447 0.0000 0.0000 0.0000
# 3 42.8384 53.8447 129.4411 0.0000 0.0000 0.0000
# 4 0.0000 0.0000 0.0000 37.3430 0.0000 0.0000
# 5 0.0000 0.0000 0.0000 0.0000 27.2530 0.0000
# 6 0.0000 0.0000 0.0000 0.0000 0.0000 11.6923
#
#
#
# Elastic Compliance Matrix: (Units=1/GPa)
#
#
# Indices 1 2 3 4 5 6 
#
# 1 0.012675 -0.004792 -0.002202 0.000000 0.000000 0.000000
# 2 -0.004792 0.011395 -0.003154 0.000000 0.000000 0.000000
# 3 -0.002202 -0.003154 0.009766 0.000000 0.000000 0.000000
# 4 0.000000 0.000000 0.000000 0.026779 0.000000 0.000000
# 5 0.000000 0.000000 0.000000 0.000000 0.036693 0.000000
# 6 0.000000 0.000000 0.000000 0.000000 0.000000 0.085526
#
#
# Mechanical properties :
#
#
# Convention : Reuss Voigt Hill
#
# Bulk Modulus (GPa) = 73.84774 74.67413 74.26093
# Shear Modulus (GPa) = 24.07977 29.27239 26.67608
#
# Velocity S-wave (km/s) = 3.58045 3.94766 3.76853
# Velocity P-wave (km/s) = 7.51052 7.78035 7.64662
#
# Compressibility (1/GPa) = 0.01354138
#
# Stress axis : x y z
#
# Youngs Moduli (GPa) = 78.89260 87.76153 102.39373
#
# Poissons Ratio (x) = 0.42051 0.22544
# Poissons Ratio (y) = 0.37802 0.32296
# Poissons Ratio (z) = 0.17370 0.27681
#
# Static dielectric constant tensor:
#      x y z
#    x 3.381410 0.000000 0.000000 
#    y 0.000000 3.717220 0.000000 
#    z 0.000000 0.000000 3.610870 
# 
# 
# High freq. dielectric constant tensor:
#      x y z
#    x 1.729840 0.000000 0.000000 
#    y 0.000000 1.739760 0.000000 
#    z 0.000000 0.000000 1.741090 
# 
# From -- ./inp_files/53247.got.cif
#   From: 2010.03.12/outbox.cif.g09.slc.cpg/sg64_27_cif.got.tgz:53247.got - 2010.04.10 20:19:32.
