data_PCOD8263766
_publ_section_title
;
Structure prediction by ZEFSAII (Michael W. Deem and Ramdas Pophale) SiO2 
 PCOD8263766
Probable space group: C M C A
;
_chemical_formula_sum "Si O2"
_cell_formula_units_Z 96
_cell_length_a 20.720063
_cell_length_b 15.411846
_cell_length_c 14.237322
_cell_angle_alpha 90.000000
_cell_angle_beta 90.000000
_cell_angle_gamma 90.000000
_cell_volume 4546.466964
_symmetry_space_group_name_H-M "C M C A"
_symmetry_group_IT_number 64
_symmetry_cell_setting 'orthorhombic'
loop_
_space_group_symop_operation_xyz
x,y,z
-x,1/2-y,1/2+z
x,-y,-z
-x,1/2+y,1/2-z
-x,-y,-z
x,1/2+y,1/2-z
-x,y,z
x,1/2-y,1/2+z
1/2+x,1/2+y,z
1/2-x,-y,1/2+z
1/2+x,1/2-y,-z
1/2-x,y,1/2-z
1/2-x,1/2-y,-z
1/2+x,y,1/2-z
1/2-x,1/2+y,z
1/2+x,-y,1/2+z
loop_
_atom_site_type_symbol
_atom_site_label
_atom_site_fract_x
_atom_site_fract_y
_atom_site_fract_z
Si Si1 0.792837 0.026521 0.844485
Si Si2 0.146922 0.781171 0.530968
Si Si3 0.572646 0.346521 0.366263
Si Si4 0.575403 0.297563 0.721050
Si Si5 0.573261 0.002926 0.266086
Si Si6 0.221104 0.867984 0.972473
O O1 0.750000 0.039050 0.750000
O O2 0.870263 0.038436 0.830183
O O3 0.785382 0.931217 0.885295
O O4 0.767219 0.091417 0.924100
O O5 0.112677 0.849186 0.462157
O O6 0.106883 0.768920 0.624484
O O7 0.155366 0.688450 0.478682
O O8 0.218109 0.811364 0.557745
O O9 0.500000 0.319684 0.391592
O O10 0.601280 0.271804 0.297450
O O11 0.574953 0.444433 0.327348
O O12 0.500000 0.284884 0.708195
O O13 0.591990 0.397584 0.744473
O O14 0.500000 0.997079 0.310220
#
# Coordination Sequence:
#
# PCOD8263766 Si02
#       6
#    16  16  16  16  16  16
#     4  11  21  40  61  82 115 152 189 243 296 338
#     4  11  21  38  55  80 119 150 184 241 284 334
#     4  10  21  37  59  86 114 149 191 234 290 352
#     4  10  21  37  59  86 114 149 191 234 290 352
#     4  10  21  37  59  86 114 149 195 238 285 348
#     4  10  24  36  55  86 110 147 202 230 280 361
#
# _framework density 21.115297999999999
#
# number of rings (size 3 to 8) (size 9 to 14) (size 15 to 20)
#    0.000    1.667    0.000    4.500    0.000    2.000 
#    0.000    9.167    0.000    0.000    0.000    0.000 
#    0.000    0.000    0.000    0.000    0.000    0.000 
#
# Total GULP energy -594929.475705 kJ/mol
# GULP energy per Si atom -12394.364077 kJ/mol
# Density = 2.106724 g / cm^3
# Si number density = 21.115298 Si / 1000 Ang^3
#
#
#
# Elastic Constant Matrix: (Units=GPa)
#
#
# Indices 1 2 3 4 5 6 
#
# 1 63.4869 1.0072 26.4571 0.0000 0.0000 0.0000
# 2 1.0072 62.9363 -13.9910 0.0000 0.0000 0.0000
# 3 26.4571 -13.9910 64.6886 0.0000 0.0000 0.0000
# 4 0.0000 0.0000 0.0000 24.0733 0.0000 0.0000
# 5 0.0000 0.0000 0.0000 0.0000 31.6931 0.0000
# 6 0.0000 0.0000 0.0000 0.0000 0.0000 23.6304
#
#
#
# Elastic Compliance Matrix: (Units=1/GPa)
#
#
# Indices 1 2 3 4 5 6 
#
# 1 0.019264 -0.002164 -0.008347 0.000000 0.000000 0.000000
# 2 -0.002164 0.016935 0.004548 0.000000 0.000000 0.000000
# 3 -0.008347 0.004548 0.019856 0.000000 0.000000 0.000000
# 4 0.000000 0.000000 0.000000 0.041540 0.000000 0.000000
# 5 0.000000 0.000000 0.000000 0.000000 0.031553 0.000000
# 6 0.000000 0.000000 0.000000 0.000000 0.000000 0.042318
#
#
# Mechanical properties :
#
#
# Convention : Reuss Voigt Hill
#
# Bulk Modulus (GPa) = 22.66096 24.22871 23.44483
# Shear Modulus (GPa) = 25.23962 27.72191 26.48076
#
# Velocity S-wave (km/s) = 3.46110 3.62730 3.54517
# Velocity P-wave (km/s) = 5.16987 5.38911 5.28063
#
# Compressibility (1/GPa) = 0.04412876
#
# Stress axis : x y z
#
# Youngs Moduli (GPa) = 51.91024 59.05041 50.36247
#
# Poissons Ratio (x) = 0.12778 0.42037
# Poissons Ratio (y) = 0.11233 -0.22903
# Poissons Ratio (z) = 0.43329 -0.26854
#
# Static dielectric constant tensor:
#      x y z
#    x 3.914740 0.000000 0.000000 
#    y 0.000000 4.038360 0.000000 
#    z 0.000000 0.000000 3.571710 
# 
# 
# High freq. dielectric constant tensor:
#      x y z
#    x 1.834420 0.000000 0.000000 
#    y 0.000000 1.838610 0.000000 
#    z 0.000000 0.000000 1.813410 
# 
# From -- ./inp_files/26357.got.cif
#   From: 2010.03.12/outbox.cif.g09.slc.cpg/sg64_14_cif.got.tgz:26357.got - 2010.04.10 20:19:32.
