data_PCOD8263256
_publ_section_title
;
Structure prediction by ZEFSAII (Michael W. Deem and Ramdas Pophale) SiO2 
 PCOD8263256
Probable space group: C M C A
;
_chemical_formula_sum "Si O2"
_cell_formula_units_Z 96
_cell_length_a 14.481764
_cell_length_b 13.437237
_cell_length_c 22.063236
_cell_angle_alpha 90.000000
_cell_angle_beta 90.000000
_cell_angle_gamma 90.000000
_cell_volume 4293.393094
_symmetry_space_group_name_H-M "C M C A"
_symmetry_group_IT_number 64
_symmetry_cell_setting 'orthorhombic'
loop_
_space_group_symop_operation_xyz
x,y,z
-x,1/2-y,1/2+z
x,-y,-z
-x,1/2+y,1/2-z
-x,-y,-z
x,1/2+y,1/2-z
-x,y,z
x,1/2-y,1/2+z
1/2+x,1/2+y,z
1/2-x,-y,1/2+z
1/2+x,1/2-y,-z
1/2-x,y,1/2-z
1/2-x,1/2-y,-z
1/2+x,y,1/2-z
1/2-x,1/2+y,z
1/2+x,-y,1/2+z
loop_
_atom_site_type_symbol
_atom_site_label
_atom_site_fract_x
_atom_site_fract_y
_atom_site_fract_z
Si Si1 0.896403 0.683766 0.622192
Si Si2 0.397209 0.609391 0.161897
Si Si3 0.211414 0.500592 0.431309
Si Si4 0.349779 0.215272 0.759033
Si Si5 0.605974 0.906088 0.898262
Si Si6 0.106589 0.507066 0.776253
O O1 0.821210 0.602099 0.600872
O O2 0.899460 0.700908 0.694588
O O3 0.873472 0.789385 0.589561
O O4 0.000000 0.649468 0.603541
O O5 0.500000 0.579024 0.141823
O O6 0.332265 0.596413 0.103278
O O7 0.403192 0.718360 0.191741
O O8 0.357164 0.534728 0.212505
O O9 0.175510 0.500000 0.500000
O O10 0.322441 0.519819 0.432254
O O11 0.250000 0.264440 0.750000
O O12 0.338089 0.107669 0.791342
O O13 0.500000 0.933323 0.916962
O O14 0.621474 0.922832 0.826566
O O15 0.000000 0.536432 0.770865
#
# Coordination Sequence:
#
# PCOD8263256 Si02
#       6
#    16  16  16  16  16  16
#     4  11  22  42  70  98 133 182 230 277 345 413
#     4  11  23  39  63  98 137 175 221 279 340 408
#     4  12  27  44  68 101 140 186 235 277 334 410
#     4  12  22  34  63 100 137 175 221 284 353 412
#     4  10  23  44  69  98 132 175 230 290 347 406
#     4  10  20  36  62  96 130 167 217 279 347 407
#
# _framework density 22.359936999999999
#
# number of rings (size 3 to 8) (size 9 to 14) (size 15 to 20)
#    0.000    1.000    3.333    4.000    0.000    2.333 
#    0.000    0.000    0.000    3.000    0.000    0.000 
#    0.000    0.000    0.000    0.000    0.000    0.000 
#
# Total GULP energy -594973.575015 kJ/mol
# GULP energy per Si atom -12395.282813 kJ/mol
# Density = 2.230904 g / cm^3
# Si number density = 22.359937 Si / 1000 Ang^3
#
#
#
# Elastic Constant Matrix: (Units=GPa)
#
#
# Indices 1 2 3 4 5 6 
#
# 1 102.4265 51.2484 33.0795 0.0000 0.0000 0.0000
# 2 51.2484 140.0214 37.7191 0.0000 0.0000 0.0000
# 3 33.0795 37.7191 106.4978 0.0000 0.0000 0.0000
# 4 0.0000 0.0000 0.0000 21.6784 0.0000 0.0000
# 5 0.0000 0.0000 0.0000 0.0000 20.5253 0.0000
# 6 0.0000 0.0000 0.0000 0.0000 0.0000 36.4943
#
#
#
# Elastic Compliance Matrix: (Units=1/GPa)
#
#
# Indices 1 2 3 4 5 6 
#
# 1 0.012529 -0.003910 -0.002507 0.000000 0.000000 0.000000
# 2 -0.003910 0.009116 -0.002014 0.000000 0.000000 0.000000
# 3 -0.002507 -0.002014 0.010882 0.000000 0.000000 0.000000
# 4 0.000000 0.000000 0.000000 0.046129 0.000000 0.000000
# 5 0.000000 0.000000 0.000000 0.000000 0.048720 0.000000
# 6 0.000000 0.000000 0.000000 0.000000 0.000000 0.027402
#
#
# Mechanical properties :
#
#
# Convention : Reuss Voigt Hill
#
# Bulk Modulus (GPa) = 63.83922 65.89330 64.86626
# Shear Modulus (GPa) = 28.27079 30.86618 29.56848
#
# Velocity S-wave (km/s) = 3.55963 3.71944 3.64041
# Velocity P-wave (km/s) = 6.74591 6.92668 6.83689
#
# Compressibility (1/GPa) = 0.01566435
#
# Stress axis : x y z
#
# Youngs Moduli (GPa) = 79.81318 109.70309 91.89699
#
# Poissons Ratio (x) = 0.42899 0.23036
# Poissons Ratio (y) = 0.31211 0.18507
# Poissons Ratio (z) = 0.20007 0.22093
#
# Static dielectric constant tensor:
#      x y z
#    x 4.228510 0.000000 0.000000 
#    y 0.000000 4.113300 0.000000 
#    z 0.000000 0.000000 3.627650 
# 
# 
# High freq. dielectric constant tensor:
#      x y z
#    x 1.890800 0.000000 0.000000 
#    y 0.000000 1.886600 0.000000 
#    z 0.000000 0.000000 1.836240 
# 
# From -- ./inp_files/39239.got.cif
#   From: 2010.03.12/outbox.cif.g09.slc.cpg/sg64_20_cif.got.tgz:39239.got - 2010.04.10 20:19:32.
