data_PCOD8263160
_publ_section_title
;
Structure prediction by ZEFSAII (Michael W. Deem and Ramdas Pophale) SiO2 
 PCOD8263160
Probable space group: C M C A
;
_chemical_formula_sum "Si O2"
_cell_formula_units_Z 64
_cell_length_a 15.864632
_cell_length_b 20.158568
_cell_length_c 9.588221
_cell_angle_alpha 90.000000
_cell_angle_beta 90.000000
_cell_angle_gamma 90.000000
_cell_volume 3066.392303
_symmetry_space_group_name_H-M "C M C A"
_symmetry_group_IT_number 64
_symmetry_cell_setting 'orthorhombic'
loop_
_space_group_symop_operation_xyz
x,y,z
-x,1/2-y,1/2+z
x,-y,-z
-x,1/2+y,1/2-z
-x,-y,-z
x,1/2+y,1/2-z
-x,y,z
x,1/2-y,1/2+z
1/2+x,1/2+y,z
1/2-x,-y,1/2+z
1/2+x,1/2-y,-z
1/2-x,y,1/2-z
1/2-x,1/2-y,-z
1/2+x,y,1/2-z
1/2-x,1/2+y,z
1/2+x,-y,1/2+z
loop_
_atom_site_type_symbol
_atom_site_label
_atom_site_fract_x
_atom_site_fract_y
_atom_site_fract_z
Si Si1 0.402772 0.557391 0.912310
Si Si2 0.402692 0.439992 0.404260
Si Si3 0.164483 0.800637 0.339570
Si Si4 0.904111 0.703174 0.556269
O O1 0.500000 0.562734 0.954682
O O2 0.392509 0.535756 0.753263
O O3 0.364540 0.628851 0.951766
O O4 0.356413 0.500000 0.000000
O O5 0.366716 0.500000 0.500000
O O6 0.500000 0.425395 0.443930
O O7 0.350938 0.371340 0.416627
O O8 0.250000 0.799320 0.250000
O O9 0.094650 0.781229 0.222751
O O10 0.159388 0.747104 0.463989
O O11 0.000000 0.710655 0.501996
#
# Coordination Sequence:
#
# PCOD8263160 Si02
#       4
#    16  16  16  16
#     4   8  15  29  50  78 107 135 178 236 285 326
#     4   9  18  34  56  80 107 144 193 241 282 342
#     4  11  22  37  55  84 121 154 190 246 310 358
#     4  10  20  36  58  81 110 153 201 244 291 359
#
# _framework density 20.871431000000001
#
# number of rings (size 3 to 8) (size 9 to 14) (size 15 to 20)
#    0.000    2.500    0.000    4.500    0.000    2.000 
#    0.000   10.000    0.000    3.000    0.000    0.000 
#    0.000    0.000    0.000    0.000    0.000    0.000 
#
# Total GULP energy -396431.012760 kJ/mol
# GULP energy per Si atom -12388.469149 kJ/mol
# Density = 2.082393 g / cm^3
# Si number density = 20.871431 Si / 1000 Ang^3
#
#
#
# Elastic Constant Matrix: (Units=GPa)
#
#
# Indices 1 2 3 4 5 6 
#
# 1 62.4507 32.2412 19.0089 0.0000 0.0000 0.0000
# 2 32.2412 164.0771 103.1235 0.0000 0.0000 0.0000
# 3 19.0089 103.1235 102.3765 0.0000 0.0000 0.0000
# 4 0.0000 0.0000 0.0000 56.3761 0.0000 0.0000
# 5 0.0000 0.0000 0.0000 0.0000 26.0891 0.0000
# 6 0.0000 0.0000 0.0000 0.0000 0.0000 12.9235
#
#
#
# Elastic Compliance Matrix: (Units=1/GPa)
#
#
# Indices 1 2 3 4 5 6 
#
# 1 0.017834 -0.003879 0.000596 0.000000 0.000000 0.000000
# 2 -0.003879 0.017455 -0.016862 0.000000 0.000000 0.000000
# 3 0.000596 -0.016862 0.026642 0.000000 0.000000 0.000000
# 4 0.000000 0.000000 0.000000 0.017738 0.000000 0.000000
# 5 0.000000 0.000000 0.000000 0.000000 0.038330 0.000000
# 6 0.000000 0.000000 0.000000 0.000000 0.000000 0.077379
#
#
# Mechanical properties :
#
#
# Convention : Reuss Voigt Hill
#
# Bulk Modulus (GPa) = 46.20881 70.85015 58.52948
# Shear Modulus (GPa) = 20.58627 30.71312 25.64969
#
# Velocity S-wave (km/s) = 3.14401 3.84023 3.50942
# Velocity P-wave (km/s) = 5.94706 7.32685 6.67272
#
# Compressibility (1/GPa) = 0.02164089
#
# Stress axis : x y z
#
# Youngs Moduli (GPa) = 56.07333 57.29143 37.53466
#
# Poissons Ratio (x) = 0.22222 -0.02236
# Poissons Ratio (y) = 0.21750 0.63290
# Poissons Ratio (z) = -0.03341 0.96603
#
# Static dielectric constant tensor:
#      x y z
#    x 3.514880 0.000000 0.000000 
#    y 0.000000 4.078930 0.000000 
#    z 0.000000 0.000000 3.922290 
# 
# 
# High freq. dielectric constant tensor:
#      x y z
#    x 1.795870 0.000000 0.000000 
#    y 0.000000 1.817750 0.000000 
#    z 0.000000 0.000000 1.811800 
# 
# From -- ./inp_files/6598.got.cif
#   From: 2010.03.12/outbox.cif.g09.slc.cpg/sg64_4_cif.got.tgz:6598.got - 2010.04.10 20:19:32.
