data_PCOD8263490
_publ_section_title
;
Structure prediction by ZEFSAII (Michael W. Deem and Ramdas Pophale) SiO2 
 PCOD8263490
Probable space group: C M C A
;
_chemical_formula_sum "Si O2"
_cell_formula_units_Z 96
_cell_length_a 8.720243
_cell_length_b 28.619131
_cell_length_c 20.387315
_cell_angle_alpha 90.000000
_cell_angle_beta 90.000000
_cell_angle_gamma 90.000000
_cell_volume 5087.976104
_symmetry_space_group_name_H-M "C M C A"
_symmetry_group_IT_number 64
_symmetry_cell_setting 'orthorhombic'
loop_
_space_group_symop_operation_xyz
x,y,z
-x,1/2-y,1/2+z
x,-y,-z
-x,1/2+y,1/2-z
-x,-y,-z
x,1/2+y,1/2-z
-x,y,z
x,1/2-y,1/2+z
1/2+x,1/2+y,z
1/2-x,-y,1/2+z
1/2+x,1/2-y,-z
1/2-x,y,1/2-z
1/2-x,1/2-y,-z
1/2+x,y,1/2-z
1/2-x,1/2+y,z
1/2+x,-y,1/2+z
loop_
_atom_site_type_symbol
_atom_site_label
_atom_site_fract_x
_atom_site_fract_y
_atom_site_fract_z
Si Si1 0.824505 0.624030 0.488466
Si Si2 0.823353 0.225104 0.062047
Si Si3 0.820479 0.466909 0.939198
Si Si4 0.819621 0.871069 0.371853
Si Si5 0.680978 0.277429 0.180881
Si Si6 0.819051 0.529700 0.818993
O O1 0.804787 0.669628 0.443725
O O2 0.775139 0.580528 0.444044
O O3 0.715678 0.627945 0.551240
O O4 0.000000 0.618677 0.511990
O O5 0.737309 0.240697 0.127266
O O6 0.000000 0.240507 0.066396
O O7 0.750000 0.250000 0.000000
O O8 0.765240 0.492552 0.873267
O O9 0.000000 0.454918 0.938111
O O10 0.780462 0.500000 0.000000
O O11 0.731082 0.829725 0.336308
O O12 0.760419 0.918945 0.339195
O O13 0.000000 0.863818 0.362306
O O14 0.500000 0.275745 0.184714
O O15 0.750000 0.261743 0.250000
O O16 0.750000 0.514076 0.750000
O O17 0.000000 0.530157 0.814240
#
# Coordination Sequence:
#
# PCOD8263490 Si02
#       6
#    16  16  16  16  16  16
#     4  11  23  37  59  93 122 150 197 251 299 352
#     4  11  23  40  62  89 122 159 202 250 301 359
#     4  10  20  39  61  83 116 158 202 242 291 354
#     4  11  21  37  61  88 123 161 196 242 301 360
#     4  12  25  41  61  90 124 161 204 249 304 365
#     4  10  22  38  58  86 118 157 196 241 294 355
#
# _framework density 18.868013999999999
#
# number of rings (size 3 to 8) (size 9 to 14) (size 15 to 20)
#    0.000    1.167    3.333    3.500    0.000    5.667 
#    0.000    0.833    0.000    2.000    0.000    0.000 
#    0.000    0.000    0.000    0.000    0.000    0.000 
#
# Total GULP energy -595495.265862 kJ/mol
# GULP energy per Si atom -12406.151372 kJ/mol
# Density = 1.882507 g / cm^3
# Si number density = 18.868014 Si / 1000 Ang^3
#
#
#
# Elastic Constant Matrix: (Units=GPa)
#
#
# Indices 1 2 3 4 5 6 
#
# 1 104.0233 50.9098 50.6827 0.0000 0.0000 0.0000
# 2 50.9098 113.5736 58.0618 0.0000 0.0000 0.0000
# 3 50.6827 58.0618 156.6789 0.0000 0.0000 0.0000
# 4 0.0000 0.0000 0.0000 16.5214 0.0000 0.0000
# 5 0.0000 0.0000 0.0000 0.0000 36.0757 0.0000
# 6 0.0000 0.0000 0.0000 0.0000 0.0000 33.5530
#
#
#
# Elastic Compliance Matrix: (Units=1/GPa)
#
#
# Indices 1 2 3 4 5 6 
#
# 1 0.013086 -0.004567 -0.002541 0.000000 0.000000 0.000000
# 2 -0.004567 0.012457 -0.003139 0.000000 0.000000 0.000000
# 3 -0.002541 -0.003139 0.008368 0.000000 0.000000 0.000000
# 4 0.000000 0.000000 0.000000 0.060528 0.000000 0.000000
# 5 0.000000 0.000000 0.000000 0.000000 0.027720 0.000000
# 6 0.000000 0.000000 0.000000 0.000000 0.000000 0.029804
#
#
# Mechanical properties :
#
#
# Convention : Reuss Voigt Hill
#
# Bulk Modulus (GPa) = 74.53065 77.06493 75.79779
# Shear Modulus (GPa) = 28.26023 31.53810 29.89916
#
# Velocity S-wave (km/s) = 3.87432 4.09285 3.98508
# Velocity P-wave (km/s) = 7.72014 7.95412 7.83801
#
# Compressibility (1/GPa) = 0.01341730
#
# Stress axis : x y z
#
# Youngs Moduli (GPa) = 76.41573 80.27784 119.50955
#
# Poissons Ratio (x) = 0.36664 0.30364
# Poissons Ratio (y) = 0.34900 0.37512
# Poissons Ratio (z) = 0.19415 0.25198
#
# Static dielectric constant tensor:
#      x y z
#    x 3.492940 0.000000 0.000000 
#    y 0.000000 3.630830 0.000000 
#    z 0.000000 0.000000 3.573450 
# 
# 
# High freq. dielectric constant tensor:
#      x y z
#    x 1.741270 0.000000 0.000000 
#    y 0.000000 1.736100 0.000000 
#    z 0.000000 0.000000 1.733710 
# 
# From -- ./inp_files/37047.got.cif
#   From: 2010.03.12/outbox.cif.g09.slc.cpg/sg64_19_cif.got.tgz:37047.got - 2010.04.10 20:19:32.
