data_PCOD8263969
_publ_section_title
;
Structure prediction by ZEFSAII (Michael W. Deem and Ramdas Pophale) SiO2 
 PCOD8263969
Probable space group: C M C A
;
_chemical_formula_sum "Si O2"
_cell_formula_units_Z 80
_cell_length_a 8.976372
_cell_length_b 24.292168
_cell_length_c 18.620108
_cell_angle_alpha 90.000000
_cell_angle_beta 90.000000
_cell_angle_gamma 90.000000
_cell_volume 4060.217643
_symmetry_space_group_name_H-M "C M C A"
_symmetry_group_IT_number 64
_symmetry_cell_setting 'orthorhombic'
loop_
_space_group_symop_operation_xyz
x,y,z
-x,1/2-y,1/2+z
x,-y,-z
-x,1/2+y,1/2-z
-x,-y,-z
x,1/2+y,1/2-z
-x,y,z
x,1/2-y,1/2+z
1/2+x,1/2+y,z
1/2-x,-y,1/2+z
1/2+x,1/2-y,-z
1/2-x,y,1/2-z
1/2-x,1/2-y,-z
1/2+x,y,1/2-z
1/2-x,1/2+y,z
1/2+x,-y,1/2+z
loop_
_atom_site_type_symbol
_atom_site_label
_atom_site_fract_x
_atom_site_fract_y
_atom_site_fract_z
Si Si1 0.175660 0.030202 0.927493
Si Si2 0.827142 0.645407 0.941267
Si Si3 0.326669 0.551544 0.324913
Si Si4 0.330055 0.334282 0.602406
Si Si5 0.825761 0.235689 0.675653
O O1 0.223009 0.093295 0.929582
O O2 0.000000 0.025818 0.917001
O O3 0.254821 0.002409 0.859704
O O4 0.228436 0.000000 0.000000
O O5 0.780987 0.690072 0.882413
O O6 0.000000 0.627698 0.935430
O O7 0.794364 0.672688 0.018385
O O8 0.500000 0.540358 0.312319
O O9 0.250000 0.564939 0.250000
O O10 0.297552 0.602770 0.377298
O O11 0.500000 0.318240 0.619883
O O12 0.225167 0.295361 0.648921
O O13 0.750000 0.219128 0.750000
O O14 0.000000 0.238263 0.688563
#
# Coordination Sequence:
#
# PCOD8263969 Si02
#       5
#    16  16  16  16  16
#     4  11  23  39  62  92 123 159 203 251 301 359
#     4  10  22  41  64  90 120 161 206 250 306 364
#     4  11  23  39  62  90 124 162 202 252 307 366
#     4  10  21  39  64  91 120 157 203 252 307 364
#     4  11  24  40  61  88 123 162 202 249 303 362
#
# _framework density 19.703379000000002
#
# number of rings (size 3 to 8) (size 9 to 14) (size 15 to 20)
#    0.000    1.400    2.000    3.000    0.000    7.200 
#    0.000    2.000    0.000    0.000    0.000    0.000 
#    0.000    0.000    0.000    0.000    0.000    0.000 
#
# Total GULP energy -496304.953529 kJ/mol
# GULP energy per Si atom -12407.623838 kJ/mol
# Density = 1.965853 g / cm^3
# Si number density = 19.703379 Si / 1000 Ang^3
#
#
#
# Elastic Constant Matrix: (Units=GPa)
#
#
# Indices 1 2 3 4 5 6 
#
# 1 84.8521 36.6591 44.9395 0.0000 0.0000 0.0000
# 2 36.6591 71.5709 25.7731 0.0000 0.0000 0.0000
# 3 44.9395 25.7731 125.0224 0.0000 0.0000 0.0000
# 4 0.0000 0.0000 0.0000 31.5171 0.0000 0.0000
# 5 0.0000 0.0000 0.0000 0.0000 28.9447 0.0000
# 6 0.0000 0.0000 0.0000 0.0000 0.0000 36.1949
#
#
#
# Elastic Compliance Matrix: (Units=1/GPa)
#
#
# Indices 1 2 3 4 5 6 
#
# 1 0.017430 -0.007207 -0.004780 0.000000 0.000000 0.000000
# 2 -0.007207 0.018072 -0.001135 0.000000 0.000000 0.000000
# 3 -0.004780 -0.001135 0.009951 0.000000 0.000000 0.000000
# 4 0.000000 0.000000 0.000000 0.031729 0.000000 0.000000
# 5 0.000000 0.000000 0.000000 0.000000 0.034549 0.000000
# 6 0.000000 0.000000 0.000000 0.000000 0.000000 0.027628
#
#
# Mechanical properties :
#
#
# Convention : Reuss Voigt Hill
#
# Bulk Modulus (GPa) = 52.05581 55.13208 53.59394
# Shear Modulus (GPa) = 29.06895 30.93625 30.00260
#
# Velocity S-wave (km/s) = 3.84517 3.96675 3.90643
# Velocity P-wave (km/s) = 6.79638 7.00156 6.89974
#
# Compressibility (1/GPa) = 0.01921015
#
# Stress axis : x y z
#
# Youngs Moduli (GPa) = 57.37185 55.33355 100.49624
#
# Poissons Ratio (x) = 0.39877 0.48034
# Poissons Ratio (y) = 0.41346 0.11407
# Poissons Ratio (z) = 0.27422 0.06281
#
# Static dielectric constant tensor:
#      x y z
#    x 3.591840 0.000000 0.000000 
#    y 0.000000 3.470060 0.000000 
#    z 0.000000 0.000000 3.722830 
# 
# 
# High freq. dielectric constant tensor:
#      x y z
#    x 1.773380 0.000000 0.000000 
#    y 0.000000 1.769700 0.000000 
#    z 0.000000 0.000000 1.780720 
# 
# From -- ./inp_files/29813.got.cif
#   From: 2010.03.12/outbox.cif.g09.slc.cpg/sg64_15_cif.got.tgz:29813.got - 2010.04.10 20:19:32.
