data_PCOD8263816
_publ_section_title
;
Structure prediction by ZEFSAII (Michael W. Deem and Ramdas Pophale) SiO2 
 PCOD8263816
Probable space group: C M C A
;
_chemical_formula_sum "Si O2"
_cell_formula_units_Z 80
_cell_length_a 17.085409
_cell_length_b 13.171038
_cell_length_c 18.334398
_cell_angle_alpha 90.000000
_cell_angle_beta 90.000000
_cell_angle_gamma 90.000000
_cell_volume 4125.836723
_symmetry_space_group_name_H-M "C M C A"
_symmetry_group_IT_number 64
_symmetry_cell_setting 'orthorhombic'
loop_
_space_group_symop_operation_xyz
x,y,z
-x,1/2-y,1/2+z
x,-y,-z
-x,1/2+y,1/2-z
-x,-y,-z
x,1/2+y,1/2-z
-x,y,z
x,1/2-y,1/2+z
1/2+x,1/2+y,z
1/2-x,-y,1/2+z
1/2+x,1/2-y,-z
1/2-x,y,1/2-z
1/2-x,1/2-y,-z
1/2+x,y,1/2-z
1/2-x,1/2+y,z
1/2+x,-y,1/2+z
loop_
_atom_site_type_symbol
_atom_site_label
_atom_site_fract_x
_atom_site_fract_y
_atom_site_fract_z
Si Si1 0.152788 0.743031 0.628742
Si Si2 0.912357 0.606994 0.228033
Si Si3 0.662358 0.399492 0.264071
Si Si4 0.907600 0.882524 0.994155
Si Si5 0.171000 0.287701 0.644380
O O1 0.096667 0.837926 0.649253
O O2 0.138931 0.660984 0.691839
O O3 0.132365 0.688652 0.553822
O O4 0.238403 0.793610 0.622539
O O5 0.898771 0.487754 0.220129
O O6 0.846299 0.648791 0.282679
O O7 0.000000 0.625165 0.258136
O O8 0.750000 0.440703 0.250000
O O9 0.654572 0.329885 0.336396
O O10 0.884029 0.833977 0.917455
O O11 0.000000 0.878097 0.004109
O O12 0.878708 0.000000 0.000000
#
# Coordination Sequence:
#
# PCOD8263816 Si02
#       5
#    16  16  16  16  16
#     4  10  21  38  58  81 111 147 189 228 269 328
#     4  11  21  34  57  86 115 145 180 228 279 325
#     4   9  19  36  58  82 108 144 186 227 271 325
#     4  11  23  38  58  84 113 145 183 231 283 329
#     4  10  21  38  58  80 110 148 188 229 271 327
#
# _framework density 19.390006
#
# number of rings (size 3 to 8) (size 9 to 14) (size 15 to 20)
#    0.000    1.800    0.000    6.000    0.000    8.000 
#    0.000    1.000    0.000    2.400    0.000    0.000 
#    0.000    0.000    0.000    0.000    0.000    0.000 
#
# Total GULP energy -495849.152836 kJ/mol
# GULP energy per Si atom -12396.228821 kJ/mol
# Density = 1.934587 g / cm^3
# Si number density = 19.390006 Si / 1000 Ang^3
#
#
#
# Elastic Constant Matrix: (Units=GPa)
#
#
# Indices 1 2 3 4 5 6 
#
# 1 88.6222 43.4821 13.5130 0.0000 0.0000 0.0000
# 2 43.4821 91.3361 24.8462 0.0000 0.0000 0.0000
# 3 13.5130 24.8462 69.8078 0.0000 0.0000 0.0000
# 4 0.0000 0.0000 0.0000 22.9683 0.0000 0.0000
# 5 0.0000 0.0000 0.0000 0.0000 29.3241 0.0000
# 6 0.0000 0.0000 0.0000 0.0000 0.0000 20.5273
#
#
#
# Elastic Compliance Matrix: (Units=1/GPa)
#
#
# Indices 1 2 3 4 5 6 
#
# 1 0.014733 -0.006907 -0.000394 0.000000 0.000000 0.000000
# 2 -0.006907 0.015360 -0.004130 0.000000 0.000000 0.000000
# 3 -0.000394 -0.004130 0.015871 0.000000 0.000000 0.000000
# 4 0.000000 0.000000 0.000000 0.043538 0.000000 0.000000
# 5 0.000000 0.000000 0.000000 0.000000 0.034102 0.000000
# 6 0.000000 0.000000 0.000000 0.000000 0.000000 0.048716
#
#
# Mechanical properties :
#
#
# Convention : Reuss Voigt Hill
#
# Bulk Modulus (GPa) = 43.28391 45.93876 44.61133
# Shear Modulus (GPa) = 24.64497 25.75892 25.20195
#
# Velocity S-wave (km/s) = 3.56900 3.64876 3.60910
# Velocity P-wave (km/s) = 6.27335 6.44164 6.35805
#
# Compressibility (1/GPa) = 0.02310327
#
# Stress axis : x y z
#
# Youngs Moduli (GPa) = 67.87688 65.10386 63.00709
#
# Poissons Ratio (x) = 0.44965 0.02480
# Poissons Ratio (y) = 0.46880 0.26022
# Poissons Ratio (z) = 0.02672 0.26888
#
# Static dielectric constant tensor:
#      x y z
#    x 3.471470 0.000000 0.000000 
#    y 0.000000 3.690640 0.000000 
#    z 0.000000 0.000000 3.456030 
# 
# 
# High freq. dielectric constant tensor:
#      x y z
#    x 1.757250 0.000000 0.000000 
#    y 0.000000 1.763380 0.000000 
#    z 0.000000 0.000000 1.739370 
# 
# From -- ./inp_files/32978.got.cif
#   From: 2010.03.12/outbox.cif.g09.slc.cpg/sg64_17_cif.got.tgz:32978.got - 2010.04.10 20:19:32.
