data_PCOD8263865
_publ_section_title
;
Structure prediction by ZEFSAII (Michael W. Deem and Ramdas Pophale) SiO2 
 PCOD8263865
Probable space group: C M C A
;
_chemical_formula_sum "Si O2"
_cell_formula_units_Z 96
_cell_length_a 24.150003
_cell_length_b 14.397832
_cell_length_c 14.489762
_cell_angle_alpha 90.000000
_cell_angle_beta 90.000000
_cell_angle_gamma 90.000000
_cell_volume 5038.201616
_symmetry_space_group_name_H-M "C M C A"
_symmetry_group_IT_number 64
_symmetry_cell_setting 'orthorhombic'
loop_
_space_group_symop_operation_xyz
x,y,z
-x,1/2-y,1/2+z
x,-y,-z
-x,1/2+y,1/2-z
-x,-y,-z
x,1/2+y,1/2-z
-x,y,z
x,1/2-y,1/2+z
1/2+x,1/2+y,z
1/2-x,-y,1/2+z
1/2+x,1/2-y,-z
1/2-x,y,1/2-z
1/2-x,1/2-y,-z
1/2+x,y,1/2-z
1/2-x,1/2+y,z
1/2+x,-y,1/2+z
loop_
_atom_site_type_symbol
_atom_site_label
_atom_site_fract_x
_atom_site_fract_y
_atom_site_fract_z
Si Si1 0.563409 0.270235 0.820205
Si Si2 0.864053 0.438197 0.727366
Si Si3 0.064012 0.613236 0.678467
Si Si4 0.794596 0.908066 0.945281
Si Si5 0.882913 0.728865 0.516315
Si Si6 0.166774 0.580413 0.069486
O O1 0.500000 0.300538 0.812233
O O2 0.598650 0.346839 0.766588
O O3 0.573995 0.172028 0.771056
O O4 0.579725 0.260879 0.926231
O O5 0.900132 0.520967 0.685853
O O6 0.812106 0.419697 0.660891
O O7 0.840235 0.460971 0.828066
O O8 0.082239 0.670618 0.589365
O O9 0.000000 0.585313 0.666927
O O10 0.825153 0.821298 0.992572
O O11 0.729541 0.889224 0.949979
O O12 0.811616 0.000000 0.000000
O O13 0.871680 0.830455 0.556444
O O14 0.147622 0.500000 0.000000
#
# Coordination Sequence:
#
# PCOD8263865 Si02
#       6
#    16  16  16  16  16  16
#     4  10  22  38  59  87 119 155 196 243 294 353
#     4  11  21  39  61  87 120 157 199 244 296 351
#     4  11  22  38  62  90 121 157 200 247 298 354
#     4  10  21  38  61  88 121 156 201 247 290 349
#     4  11  21  40  61  87 120 159 201 246 298 352
#     4  11  23  39  61  88 122 160 196 245 300 358
#
# _framework density 19.054417999999998
#
# number of rings (size 3 to 8) (size 9 to 14) (size 15 to 20)
#    0.000    1.333    3.333    3.000    0.000    0.000 
#    0.000    2.500    0.000    4.000    0.000    0.000 
#    0.000    0.000    0.000    0.000    0.000    0.000 
#
# Total GULP energy -595447.487705 kJ/mol
# GULP energy per Si atom -12405.155994 kJ/mol
# Density = 1.901105 g / cm^3
# Si number density = 19.054418 Si / 1000 Ang^3
#
#
#
# Elastic Constant Matrix: (Units=GPa)
#
#
# Indices 1 2 3 4 5 6 
#
# 1 37.4482 8.7309 2.3564 0.0000 0.0000 0.0000
# 2 8.7309 69.1528 11.9043 0.0000 0.0000 0.0000
# 3 2.3564 11.9043 100.0145 0.0000 0.0000 0.0000
# 4 0.0000 0.0000 0.0000 31.9541 0.0000 0.0000
# 5 0.0000 0.0000 0.0000 0.0000 10.6662 0.0000
# 6 0.0000 0.0000 0.0000 0.0000 0.0000 5.2339
#
#
#
# Elastic Compliance Matrix: (Units=1/GPa)
#
#
# Indices 1 2 3 4 5 6 
#
# 1 0.027519 -0.003433 -0.000240 0.000000 0.000000 0.000000
# 2 -0.003433 0.015192 -0.001727 0.000000 0.000000 0.000000
# 3 -0.000240 -0.001727 0.010210 0.000000 0.000000 0.000000
# 4 0.000000 0.000000 0.000000 0.031295 0.000000 0.000000
# 5 0.000000 0.000000 0.000000 0.000000 0.093754 0.000000
# 6 0.000000 0.000000 0.000000 0.000000 0.000000 0.191062
#
#
# Mechanical properties :
#
#
# Convention : Reuss Voigt Hill
#
# Bulk Modulus (GPa) = 23.74169 28.06653 25.90411
# Shear Modulus (GPa) = 12.69448 21.81244 17.25346
#
# Velocity S-wave (km/s) = 2.58393 3.38708 3.01239
# Velocity P-wave (km/s) = 4.62485 5.48252 5.07185
#
# Compressibility (1/GPa) = 0.04212000
#
# Stress axis : x y z
#
# Youngs Moduli (GPa) = 36.33849 65.82617 97.94518
#
# Poissons Ratio (x) = 0.22599 0.02348
# Poissons Ratio (y) = 0.12476 0.16918
# Poissons Ratio (z) = 0.00871 0.11370
#
# Static dielectric constant tensor:
#      x y z
#    x 3.406900 0.000000 0.000000 
#    y 0.000000 3.461270 0.000000 
#    z 0.000000 0.000000 3.542870 
# 
# 
# High freq. dielectric constant tensor:
#      x y z
#    x 1.743160 0.000000 0.000000 
#    y 0.000000 1.745070 0.000000 
#    z 0.000000 0.000000 1.754550 
# 
# From -- ./inp_files/26296.got.cif
#   From: 2010.03.12/outbox.cif.g09.slc.cpg/sg64_14_cif.got.tgz:26296.got - 2010.04.10 20:19:32.
