data_PCOD8263054
_publ_section_title
;
Structure prediction by ZEFSAII (Michael W. Deem and Ramdas Pophale) SiO2 
 PCOD8263054
Probable space group: C M C A
;
_chemical_formula_sum "Si O2"
_cell_formula_units_Z 104
_cell_length_a 9.260106
_cell_length_b 27.021029
_cell_length_c 21.392996
_cell_angle_alpha 90.000000
_cell_angle_beta 90.000000
_cell_angle_gamma 90.000000
_cell_volume 5352.903961
_symmetry_space_group_name_H-M "C M C A"
_symmetry_group_IT_number 64
_symmetry_cell_setting 'orthorhombic'
loop_
_space_group_symop_operation_xyz
x,y,z
-x,1/2-y,1/2+z
x,-y,-z
-x,1/2+y,1/2-z
-x,-y,-z
x,1/2+y,1/2-z
-x,y,z
x,1/2-y,1/2+z
1/2+x,1/2+y,z
1/2-x,-y,1/2+z
1/2+x,1/2-y,-z
1/2-x,y,1/2-z
1/2-x,1/2-y,-z
1/2+x,y,1/2-z
1/2-x,1/2+y,z
1/2+x,-y,1/2+z
loop_
_atom_site_type_symbol
_atom_site_label
_atom_site_fract_x
_atom_site_fract_y
_atom_site_fract_z
Si Si1 0.334699 0.783266 0.915006
Si Si2 0.164639 0.050193 0.124316
Si Si3 0.167040 0.818799 0.032076
Si Si4 0.335933 0.465511 0.308146
Si Si5 0.670791 0.861951 0.816789
Si Si6 0.654589 0.907746 0.071357
Si Si7 0.252874 0.000000 0.500000
O O1 0.500000 0.791154 0.934758
O O2 0.296030 0.724667 0.917716
O O3 0.306988 0.806935 0.846519
O O4 0.240859 0.811277 0.965893
O O5 0.255629 0.100810 0.133029
O O6 0.000000 0.058586 0.146587
O O7 0.244839 0.012337 0.169365
O O8 0.156634 0.029435 0.053107
O O9 0.214633 0.871401 0.058404
O O10 0.000000 0.822234 0.018096
O O11 0.500000 0.482093 0.292186
O O12 0.250000 0.443179 0.250000
O O13 0.335902 0.420723 0.356290
O O14 0.500000 0.873882 0.809052
O O15 0.750000 0.864580 0.750000
O O16 0.500000 0.882067 0.056739
O O17 0.655801 0.958797 0.032910
#
# Coordination Sequence:
#
# PCOD8263054 Si02
#       7
#    16  16  16  16  16  16   8
#     4   9  20  38  58  80 109 144 180 222 275 333
#     4  11  22  36  55  81 113 145 181 226 276 327
#     4  10  20  35  58  86 112 140 178 226 277 329
#     4  10  21  37  55  75 102 140 182 219 261 314
#     4  11  23  39  58  81 112 150 191 233 281 338
#     4  10  21  36  55  79 109 144 179 219 269 323
#     4  10  22  36  56  84 114 148 190 230 270 324
#
# _framework density 19.428706999999999
#
# number of rings (size 3 to 8) (size 9 to 14) (size 15 to 20)
#    0.000    1.846    0.000    3.692    0.000    9.846 
#    0.000    0.769    0.000    3.692    0.000    0.000 
#    0.000    0.000    0.000    0.000    0.000    0.000 
#
# Total GULP energy -644514.451235 kJ/mol
# GULP energy per Si atom -12394.508678 kJ/mol
# Density = 1.938449 g / cm^3
# Si number density = 19.428707 Si / 1000 Ang^3
#
#
#
# Elastic Constant Matrix: (Units=GPa)
#
#
# Indices 1 2 3 4 5 6 
#
# 1 127.0831 43.2672 55.2297 0.0000 0.0000 0.0000
# 2 43.2672 98.0531 48.6609 0.0000 0.0000 0.0000
# 3 55.2297 48.6609 105.4661 0.0000 0.0000 0.0000
# 4 0.0000 0.0000 0.0000 21.4765 0.0000 0.0000
# 5 0.0000 0.0000 0.0000 0.0000 23.2452 0.0000
# 6 0.0000 0.0000 0.0000 0.0000 0.0000 22.3597
#
#
#
# Elastic Compliance Matrix: (Units=1/GPa)
#
#
# Indices 1 2 3 4 5 6 
#
# 1 0.010641 -0.002503 -0.004417 0.000000 0.000000 0.000000
# 2 -0.002503 0.013816 -0.005064 0.000000 0.000000 0.000000
# 3 -0.004417 -0.005064 0.014131 0.000000 0.000000 0.000000
# 4 0.000000 0.000000 0.000000 0.046563 0.000000 0.000000
# 5 0.000000 0.000000 0.000000 0.000000 0.043020 0.000000
# 6 0.000000 0.000000 0.000000 0.000000 0.000000 0.044723
#
#
# Mechanical properties :
#
#
# Convention : Reuss Voigt Hill
#
# Bulk Modulus (GPa) = 68.40103 69.43534 68.91818
# Shear Modulus (GPa) = 24.78491 25.64593 25.21542
#
# Velocity S-wave (km/s) = 3.57555 3.63712 3.60647
# Velocity P-wave (km/s) = 7.23385 7.31125 7.27265
#
# Compressibility (1/GPa) = 0.01461966
#
# Stress axis : x y z
#
# Youngs Moduli (GPa) = 93.97705 72.37922 70.76466
#
# Poissons Ratio (x) = 0.18118 0.31260
# Poissons Ratio (y) = 0.23524 0.35833
# Poissons Ratio (z) = 0.41513 0.36651
#
# Static dielectric constant tensor:
#      x y z
#    x 3.686120 0.000000 0.000000 
#    y 0.000000 3.576620 0.000000 
#    z 0.000000 0.000000 3.600350 
# 
# 
# High freq. dielectric constant tensor:
#      x y z
#    x 1.769920 0.000000 0.000000 
#    y 0.000000 1.748420 0.000000 
#    z 0.000000 0.000000 1.749820 
# 
# From -- ./inp_files/37245.got.cif
#   From: 2010.03.12/outbox.cif.g09.slc.cpg/sg64_19_cif.got.tgz:37245.got - 2010.04.10 20:19:32.
