data_PCOD8263037
_publ_section_title
;
Structure prediction by ZEFSAII (Michael W. Deem and Ramdas Pophale) SiO2 
 PCOD8263037
Probable space group: C M C A
;
_chemical_formula_sum "Si O2"
_cell_formula_units_Z 96
_cell_length_a 8.913515
_cell_length_b 29.125892
_cell_length_c 18.843246
_cell_angle_alpha 90.000000
_cell_angle_beta 90.000000
_cell_angle_gamma 90.000000
_cell_volume 4891.971885
_symmetry_space_group_name_H-M "C M C A"
_symmetry_group_IT_number 64
_symmetry_cell_setting 'orthorhombic'
loop_
_space_group_symop_operation_xyz
x,y,z
-x,1/2-y,1/2+z
x,-y,-z
-x,1/2+y,1/2-z
-x,-y,-z
x,1/2+y,1/2-z
-x,y,z
x,1/2-y,1/2+z
1/2+x,1/2+y,z
1/2-x,-y,1/2+z
1/2+x,1/2-y,-z
1/2-x,y,1/2-z
1/2-x,1/2-y,-z
1/2+x,y,1/2-z
1/2-x,1/2+y,z
1/2+x,-y,1/2+z
loop_
_atom_site_type_symbol
_atom_site_label
_atom_site_fract_x
_atom_site_fract_y
_atom_site_fract_z
Si Si1 0.326844 0.281493 0.906200
Si Si2 0.672649 0.816563 0.046692
Si Si3 0.173375 0.013997 0.825666
Si Si4 0.327276 0.063109 0.081284
Si Si5 0.672468 0.352256 0.680610
Si Si6 0.326732 0.410070 0.060764
O O1 0.500000 0.295227 0.916754
O O2 0.309103 0.226415 0.899642
O O3 0.259014 0.304694 0.835934
O O4 0.231674 0.301275 0.970755
O O5 0.500000 0.831314 0.037831
O O6 0.763868 0.859509 0.076975
O O7 0.250000 0.019011 0.750000
O O8 0.196798 0.061371 0.867587
O O9 0.000000 0.002672 0.813503
O O10 0.242211 0.972849 0.870283
O O11 0.500000 0.048351 0.076204
O O12 0.308652 0.113325 0.114999
O O13 0.259046 0.064294 0.002773
O O14 0.500000 0.341773 0.697028
O O15 0.750000 0.374312 0.750000
O O16 0.500000 0.406782 0.039010
#
# Coordination Sequence:
#
# PCOD8263037 Si02
#       6
#    16  16  16  16  16  16
#     4  10  20  35  57  84 117 155 194 241 294 348
#     4  10  20  35  58  88 117 150 195 242 292 348
#     4  11  25  43  62  87 119 158 201 246 301 359
#     4  11  23  39  62  91 120 155 199 248 300 357
#     4  11  23  37  56  85 121 159 201 246 299 360
#     4  11  23  39  62  91 121 156 200 250 298 352
#
# _framework density 19.623989999999999
#
# number of rings (size 3 to 8) (size 9 to 14) (size 15 to 20)
#    0.000    1.333    1.667    4.000    0.000   10.000 
#    0.000    0.833    0.000    2.000    0.000    0.000 
#    0.000    0.000    0.000    0.000    0.000    0.000 
#
# Total GULP energy -595416.674927 kJ/mol
# GULP energy per Si atom -12404.514061 kJ/mol
# Density = 1.957932 g / cm^3
# Si number density = 19.623990 Si / 1000 Ang^3
#
#
#
# Elastic Constant Matrix: (Units=GPa)
#
#
# Indices 1 2 3 4 5 6 
#
# 1 132.9860 66.7267 50.4597 0.0000 0.0000 0.0000
# 2 66.7267 106.7881 45.9576 0.0000 0.0000 0.0000
# 3 50.4597 45.9576 49.4260 0.0000 0.0000 0.0000
# 4 0.0000 0.0000 0.0000 34.3112 0.0000 0.0000
# 5 0.0000 0.0000 0.0000 0.0000 36.0878 0.0000
# 6 0.0000 0.0000 0.0000 0.0000 0.0000 31.7357
#
#
#
# Elastic Compliance Matrix: (Units=1/GPa)
#
#
# Indices 1 2 3 4 5 6 
#
# 1 0.013272 -0.004104 -0.009734 0.000000 0.000000 0.000000
# 2 -0.004104 0.016881 -0.011506 0.000000 0.000000 0.000000
# 3 -0.009734 -0.011506 0.040868 0.000000 0.000000 0.000000
# 4 0.000000 0.000000 0.000000 0.029145 0.000000 0.000000
# 5 0.000000 0.000000 0.000000 0.000000 0.027710 0.000000
# 6 0.000000 0.000000 0.000000 0.000000 0.000000 0.031510
#
#
# Mechanical properties :
#
#
# Convention : Reuss Voigt Hill
#
# Bulk Modulus (GPa) = 49.18051 68.38756 58.78403
# Shear Modulus (GPa) = 23.05726 28.83069 25.94398
#
# Velocity S-wave (km/s) = 3.43148 3.83711 3.63995
# Velocity P-wave (km/s) = 6.38873 7.38619 6.90550
#
# Compressibility (1/GPa) = 0.02033326
#
# Stress axis : x y z
#
# Youngs Moduli (GPa) = 75.34570 59.23970 24.46901
#
# Poissons Ratio (x) = 0.24313 0.23817
# Poissons Ratio (y) = 0.30923 0.28154
# Poissons Ratio (z) = 0.73338 0.68161
#
# Static dielectric constant tensor:
#      x y z
#    x 3.792210 0.000000 0.000000 
#    y 0.000000 3.793400 0.000000 
#    z 0.000000 0.000000 3.479600 
# 
# 
# High freq. dielectric constant tensor:
#      x y z
#    x 1.786130 0.000000 0.000000 
#    y 0.000000 1.771570 0.000000 
#    z 0.000000 0.000000 1.749200 
# 
# From -- ./inp_files/37080.got.cif
#   From: 2010.03.12/outbox.cif.g09.slc.cpg/sg64_19_cif.got.tgz:37080.got - 2010.04.10 20:19:32.
