data_PCOD8263970
_publ_section_title
;
Structure prediction by ZEFSAII (Michael W. Deem and Ramdas Pophale) SiO2 
 PCOD8263970
Probable space group: C M C A
;
_chemical_formula_sum "Si O2"
_cell_formula_units_Z 112
_cell_length_a 29.951623
_cell_length_b 12.166736
_cell_length_c 14.825756
_cell_angle_alpha 90.000000
_cell_angle_beta 90.000000
_cell_angle_gamma 90.000000
_cell_volume 5402.705483
_symmetry_space_group_name_H-M "C M C A"
_symmetry_group_IT_number 64
_symmetry_cell_setting 'orthorhombic'
loop_
_space_group_symop_operation_xyz
x,y,z
-x,1/2-y,1/2+z
x,-y,-z
-x,1/2+y,1/2-z
-x,-y,-z
x,1/2+y,1/2-z
-x,y,z
x,1/2-y,1/2+z
1/2+x,1/2+y,z
1/2-x,-y,1/2+z
1/2+x,1/2-y,-z
1/2-x,y,1/2-z
1/2-x,1/2-y,-z
1/2+x,y,1/2-z
1/2-x,1/2+y,z
1/2+x,-y,1/2+z
loop_
_atom_site_type_symbol
_atom_site_label
_atom_site_fract_x
_atom_site_fract_y
_atom_site_fract_z
Si Si1 0.321347 0.835638 0.546370
Si Si2 0.867578 0.428513 0.214226
Si Si3 0.203572 0.046812 0.868724
Si Si4 0.551327 0.380090 0.522831
Si Si5 0.202882 0.415529 0.078257
Si Si6 0.592057 0.228630 0.371456
Si Si7 0.449336 0.410821 0.725285
O O1 0.320008 0.881268 0.445885
O O2 0.304710 0.709783 0.545693
O O3 0.371363 0.851724 0.585576
O O4 0.292065 0.916499 0.609040
O O5 0.828104 0.433064 0.285071
O O6 0.842452 0.463943 0.121933
O O7 0.883634 0.304192 0.202551
O O8 0.911501 0.497556 0.236900
O O9 0.254570 0.087598 0.853693
O O10 0.571934 0.500000 0.500000
O O11 0.500000 0.381199 0.496896
O O12 0.572804 0.291736 0.457388
O O13 0.558882 0.350460 0.628727
O O14 0.216333 0.500000 0.000000
O O15 0.554282 0.167026 0.312829
O O16 0.500000 0.460475 0.724979
#
# Coordination Sequence:
#
# PCOD8263970 Si02
#       7
#    16  16  16  16  16  16  16
#     4  10  23  40  65  94 125 174 216 259 322 386
#     4  11  25  40  63  97 126 168 214 268 319 385
#     4  11  22  45  64  90 136 172 213 261 327 389
#     4  10  21  39  64  91 124 169 217 273 334 391
#     4  11  24  41  67  97 128 169 216 267 322 387
#     4  11  23  40  65  95 130 167 223 268 326 393
#     4  11  24  42  65  95 131 171 217 272 331 389
#
# _framework density 20.730354999999999
#
# number of rings (size 3 to 8) (size 9 to 14) (size 15 to 20)
#    0.000    1.286    4.286    1.286    6.000    0.571 
#    0.000    1.429    0.000    0.857    0.000    0.000 
#    0.000    0.000    0.000    0.000    0.000    0.000 
#
# Total GULP energy -693860.266561 kJ/mol
# GULP energy per Si atom -12390.361903 kJ/mol
# Density = 2.068317 g / cm^3
# Si number density = 20.730355 Si / 1000 Ang^3
#
#
#
# Elastic Constant Matrix: (Units=GPa)
#
#
# Indices 1 2 3 4 5 6 
#
# 1 125.6411 47.0798 52.5921 0.0000 0.0000 0.0000
# 2 47.0798 78.5039 24.1806 0.0000 0.0000 0.0000
# 3 52.5921 24.1806 57.2503 0.0000 0.0000 0.0000
# 4 0.0000 0.0000 0.0000 27.9296 0.0000 0.0000
# 5 0.0000 0.0000 0.0000 0.0000 27.3921 0.0000
# 6 0.0000 0.0000 0.0000 0.0000 0.0000 24.7925
#
#
#
# Elastic Compliance Matrix: (Units=1/GPa)
#
#
# Indices 1 2 3 4 5 6 
#
# 1 0.014647 -0.005333 -0.011203 0.000000 0.000000 0.000000
# 2 -0.005333 0.016585 -0.002106 0.000000 0.000000 0.000000
# 3 -0.011203 -0.002106 0.028648 0.000000 0.000000 0.000000
# 4 0.000000 0.000000 0.000000 0.035804 0.000000 0.000000
# 5 0.000000 0.000000 0.000000 0.000000 0.036507 0.000000
# 6 0.000000 0.000000 0.000000 0.000000 0.000000 0.040335
#
#
# Mechanical properties :
#
#
# Convention : Reuss Voigt Hill
#
# Bulk Modulus (GPa) = 44.25434 56.56672 50.41053
# Shear Modulus (GPa) = 23.00529 25.19236 24.09882
#
# Velocity S-wave (km/s) = 3.33489 3.48981 3.41323
# Velocity P-wave (km/s) = 6.01852 6.60186 6.31693
#
# Compressibility (1/GPa) = 0.02259665
#
# Stress axis : x y z
#
# Youngs Moduli (GPa) = 68.27343 60.29438 34.90689
#
# Poissons Ratio (x) = 0.32157 0.39105
# Poissons Ratio (y) = 0.36413 0.07350
# Poissons Ratio (z) = 0.76484 0.12696
#
# Static dielectric constant tensor:
#      x y z
#    x 4.005880 0.000000 0.000000 
#    y 0.000000 3.664110 0.000000 
#    z 0.000000 0.000000 3.879510 
# 
# 
# High freq. dielectric constant tensor:
#      x y z
#    x 1.830340 0.000000 0.000000 
#    y 0.000000 1.793180 0.000000 
#    z 0.000000 0.000000 1.814000 
# 
# From -- ./inp_files/28375.got.cif
#   From: 2010.03.12/outbox.cif.g09.slc.cpg/sg64_15_cif.got.tgz:28375.got - 2010.04.10 20:19:32.
