data_PCOD8263899
_publ_section_title
;
Structure prediction by ZEFSAII (Michael W. Deem and Ramdas Pophale) SiO2 
 PCOD8263899
Probable space group: C M C A
;
_chemical_formula_sum "Si O2"
_cell_formula_units_Z 96
_cell_length_a 13.804479
_cell_length_b 19.870386
_cell_length_c 16.929024
_cell_angle_alpha 90.000000
_cell_angle_beta 90.000000
_cell_angle_gamma 90.000000
_cell_volume 4643.636806
_symmetry_space_group_name_H-M "C M C A"
_symmetry_group_IT_number 64
_symmetry_cell_setting 'orthorhombic'
loop_
_space_group_symop_operation_xyz
x,y,z
-x,1/2-y,1/2+z
x,-y,-z
-x,1/2+y,1/2-z
-x,-y,-z
x,1/2+y,1/2-z
-x,y,z
x,1/2-y,1/2+z
1/2+x,1/2+y,z
1/2-x,-y,1/2+z
1/2+x,1/2-y,-z
1/2-x,y,1/2-z
1/2-x,1/2-y,-z
1/2+x,y,1/2-z
1/2-x,1/2+y,z
1/2+x,-y,1/2+z
loop_
_atom_site_type_symbol
_atom_site_label
_atom_site_fract_x
_atom_site_fract_y
_atom_site_fract_z
Si Si1 0.707266 0.230637 0.415957
Si Si2 0.795745 0.976010 0.411249
Si Si3 0.793696 0.854057 0.167990
Si Si4 0.294747 0.111657 0.167477
Si Si5 0.000000 0.458056 0.161397
Si Si6 0.000000 0.789785 0.851368
Si Si7 0.500000 0.100623 0.224491
Si Si8 0.500000 0.169664 0.729760
O O1 0.750000 0.250000 0.500000
O O2 0.736917 0.286099 0.352107
O O3 0.755689 0.159227 0.400401
O O4 0.591315 0.221745 0.409253
O O5 0.763925 0.035624 0.352386
O O6 0.907673 0.958479 0.396026
O O7 0.781715 0.000000 0.500000
O O8 0.726176 0.911993 0.396628
O O9 0.750000 0.881555 0.250000
O O10 0.907218 0.837430 0.173001
O O11 0.250000 0.133727 0.250000
O O12 0.409191 0.123414 0.172503
O O13 0.000000 0.518480 0.226878
O O14 0.000000 0.388340 0.206107
O O15 0.000000 0.865368 0.812182
O O16 0.000000 0.740321 0.775856
#
# Coordination Sequence:
#
# PCOD8263899 Si02
#       8
#    16  16  16  16   8   8   8   8
#     4  12  26  42  65  95 130 167 206 264 325 379
#     4  11  23  40  63  95 133 167 208 263 324 374
#     4  12  23  43  66  96 125 169 218 260 314 377
#     4  11  22  40  63  93 122 166 217 260 310 374
#     4  10  21  38  63  96 123 166 214 265 310 369
#     4  12  22  42  65  92 126 167 211 260 314 380
#     4  10  22  36  65  92 121 161 217 267 303 371
#     4  12  24  38  70  96 124 164 224 266 304 378
#
# _framework density 20.673452999999999
#
# number of rings (size 3 to 8) (size 9 to 14) (size 15 to 20)
#    0.000    0.667    5.000    3.250    2.333    1.333 
#    0.000    2.083    0.000    0.000    0.000    0.000 
#    0.000    0.000    0.000    0.000    0.000    0.000 
#
# Total GULP energy -595314.879274 kJ/mol
# GULP energy per Si atom -12402.393318 kJ/mol
# Density = 2.062640 g / cm^3
# Si number density = 20.673453 Si / 1000 Ang^3
#
#
#
# Elastic Constant Matrix: (Units=GPa)
#
#
# Indices 1 2 3 4 5 6 
#
# 1 137.3241 25.0944 27.6706 0.0000 0.0000 0.0000
# 2 25.0944 69.9235 2.7461 0.0000 0.0000 0.0000
# 3 27.6706 2.7461 70.6758 0.0000 0.0000 0.0000
# 4 0.0000 0.0000 0.0000 31.8052 0.0000 0.0000
# 5 0.0000 0.0000 0.0000 0.0000 29.3401 0.0000
# 6 0.0000 0.0000 0.0000 0.0000 0.0000 28.6619
#
#
#
# Elastic Compliance Matrix: (Units=1/GPa)
#
#
# Indices 1 2 3 4 5 6 
#
# 1 0.008458 -0.002910 -0.003198 0.000000 0.000000 0.000000
# 2 -0.002910 0.015324 0.000544 0.000000 0.000000 0.000000
# 3 -0.003198 0.000544 0.015380 0.000000 0.000000 0.000000
# 4 0.000000 0.000000 0.000000 0.031441 0.000000 0.000000
# 5 0.000000 0.000000 0.000000 0.000000 0.034083 0.000000
# 6 0.000000 0.000000 0.000000 0.000000 0.000000 0.034890
#
#
# Mechanical properties :
#
#
# Convention : Reuss Voigt Hill
#
# Bulk Modulus (GPa) = 35.67132 43.21619 39.44376
# Shear Modulus (GPa) = 31.24015 32.78893 32.01454
#
# Velocity S-wave (km/s) = 3.89153 3.98683 3.93947
# Velocity P-wave (km/s) = 6.12243 6.49174 6.30979
#
# Compressibility (1/GPa) = 0.02803373
#
# Stress axis : x y z
#
# Youngs Moduli (GPa) = 118.22726 65.25582 65.01852
#
# Poissons Ratio (x) = 0.18989 0.20796
# Poissons Ratio (y) = 0.34403 -0.03536
# Poissons Ratio (z) = 0.37815 -0.03549
#
# Static dielectric constant tensor:
#      x y z
#    x 6.293080 0.000000 0.000000 
#    y 0.000000 3.990870 0.000000 
#    z 0.000000 0.000000 3.507680 
# 
# 
# High freq. dielectric constant tensor:
#      x y z
#    x 1.819290 0.000000 0.000000 
#    y 0.000000 1.825900 0.000000 
#    z 0.000000 0.000000 1.788660 
# 
# From -- ./inp_files/24009.got.cif
#   From: 2010.03.12/outbox.cif.g09.slc.cpg/sg64_13_cif.got.tgz:24009.got - 2010.04.10 20:19:32.
