data_PCOD8263024
_publ_section_title
;
Structure prediction by ZEFSAII (Michael W. Deem and Ramdas Pophale) SiO2 
 PCOD8263024
Probable space group: C M C A
;
_chemical_formula_sum "Si O2"
_cell_formula_units_Z 104
_cell_length_a 17.650203
_cell_length_b 23.534838
_cell_length_c 13.439207
_cell_angle_alpha 90.000000
_cell_angle_beta 90.000000
_cell_angle_gamma 90.000000
_cell_volume 5582.574934
_symmetry_space_group_name_H-M "C M C A"
_symmetry_group_IT_number 64
_symmetry_cell_setting 'orthorhombic'
loop_
_space_group_symop_operation_xyz
x,y,z
-x,1/2-y,1/2+z
x,-y,-z
-x,1/2+y,1/2-z
-x,-y,-z
x,1/2+y,1/2-z
-x,y,z
x,1/2-y,1/2+z
1/2+x,1/2+y,z
1/2-x,-y,1/2+z
1/2+x,1/2-y,-z
1/2-x,y,1/2-z
1/2-x,1/2-y,-z
1/2+x,y,1/2-z
1/2-x,1/2+y,z
1/2+x,-y,1/2+z
loop_
_atom_site_type_symbol
_atom_site_label
_atom_site_fract_x
_atom_site_fract_y
_atom_site_fract_z
Si Si1 0.706582 0.213249 0.353236
Si Si2 0.222031 0.075752 0.859916
Si Si3 0.912560 0.102427 0.429879
Si Si4 0.915610 0.998548 0.117638
Si Si5 0.178290 0.500000 0.000000
Si Si6 0.298541 0.175515 0.960573
Si Si7 0.912129 0.620080 0.299325
O O1 0.750000 0.214424 0.250000
O O2 0.676496 0.275927 0.382188
O O3 0.768130 0.198624 0.435802
O O4 0.637517 0.168632 0.352279
O O5 0.250000 0.084200 0.750000
O O6 0.232152 0.136015 0.914778
O O7 0.135353 0.055048 0.850989
O O8 0.268707 0.028582 0.918573
O O9 0.875230 0.141953 0.513984
O O10 0.900062 0.125583 0.318671
O O11 0.000000 0.097434 0.456874
O O12 0.874567 0.041101 0.436272
O O13 0.884333 0.058409 0.161252
O O14 0.000000 0.987958 0.160620
O O15 0.917013 0.000000 0.000000
O O16 0.000000 0.629469 0.328554
#
# Coordination Sequence:
#
# PCOD8263024 Si02
#       7
#    16  16  16  16   8  16  16
#     4  11  21  38  62  81 112 146 192 242 286 333
#     4  11  21  36  56  83 120 149 192 239 281 345
#     4  10  20  37  56  83 118 149 190 237 285 348
#     4  10  20  35  56  86 121 151 187 238 288 346
#     4  10  21  34  55  88 114 158 192 226 295 344
#     4  10  23  38  56  87 108 150 195 235 291 343
#     4  10  21  35  58  87 113 150 194 231 287 348
#
# _framework density 18.629396
#
# number of rings (size 3 to 8) (size 9 to 14) (size 15 to 20)
#    0.000    1.692    2.308    2.538    2.154    1.231 
#    0.000    3.077    0.000    3.692    0.000    0.000 
#    0.000    0.000    0.000    0.000    0.000    0.000 
#
# Total GULP energy -644794.305103 kJ/mol
# GULP energy per Si atom -12399.890483 kJ/mol
# Density = 1.858699 g / cm^3
# Si number density = 18.629396 Si / 1000 Ang^3
#
#
#
# Elastic Constant Matrix: (Units=GPa)
#
#
# Indices 1 2 3 4 5 6 
#
# 1 86.2189 44.9174 22.5428 0.0000 0.0000 0.0000
# 2 44.9174 106.8292 32.0760 0.0000 0.0000 0.0000
# 3 22.5428 32.0760 82.2425 0.0000 0.0000 0.0000
# 4 0.0000 0.0000 0.0000 32.1889 0.0000 0.0000
# 5 0.0000 0.0000 0.0000 0.0000 0.4235 0.0000
# 6 0.0000 0.0000 0.0000 0.0000 0.0000 20.7863
#
#
#
# Elastic Compliance Matrix: (Units=1/GPa)
#
#
# Indices 1 2 3 4 5 6 
#
# 1 0.015105 -0.005785 -0.001884 0.000000 0.000000 0.000000
# 2 -0.005785 0.012818 -0.003414 0.000000 0.000000 0.000000
# 3 -0.001884 -0.003414 0.014007 0.000000 0.000000 0.000000
# 4 0.000000 0.000000 0.000000 0.031067 0.000000 0.000000
# 5 0.000000 0.000000 0.000000 0.000000 2.361011 0.000000
# 6 0.000000 0.000000 0.000000 0.000000 0.000000 0.048109
#
#
# Mechanical properties :
#
#
# Convention : Reuss Voigt Hill
#
# Bulk Modulus (GPa) = 50.59600 52.70700 51.65150
# Shear Modulus (GPa) = 1.99134 22.39671 12.19403
#
# Velocity S-wave (km/s) = 1.03501 3.47107 2.56121
# Velocity P-wave (km/s) = 5.35224 6.66470 6.04420
#
# Compressibility (1/GPa) = 0.01976441
#
# Stress axis : x y z
#
# Youngs Moduli (GPa) = 66.20341 78.01417 71.39351
#
# Poissons Ratio (x) = 0.45134 0.13450
# Poissons Ratio (y) = 0.38301 0.24370
# Poissons Ratio (z) = 0.12472 0.26630
#
# Static dielectric constant tensor:
#      x y z
#    x 3.537540 0.000000 0.000000 
#    y 0.000000 -1.722310 0.000000 
#    z 0.000000 0.000000 3.462830 
# 
# 
# High freq. dielectric constant tensor:
#      x y z
#    x 1.719310 0.000000 0.000000 
#    y 0.000000 1.721980 0.000000 
#    z 0.000000 0.000000 1.732220 
# 
# From -- ./inp_files/16408.got.cif
#   From: 2010.03.12/outbox.cif.g09.slc.cpg/sg64_9_cif.got.tgz:16408.got - 2010.04.10 20:19:32.
