data_PCOD8263853
_publ_section_title
;
Structure prediction by ZEFSAII (Michael W. Deem and Ramdas Pophale) SiO2 
 PCOD8263853
Probable space group: C M C A
;
_chemical_formula_sum "Si O2"
_cell_formula_units_Z 96
_cell_length_a 22.956278
_cell_length_b 11.818166
_cell_length_c 16.242762
_cell_angle_alpha 90.000000
_cell_angle_beta 90.000000
_cell_angle_gamma 90.000000
_cell_volume 4406.679265
_symmetry_space_group_name_H-M "C M C A"
_symmetry_group_IT_number 64
_symmetry_cell_setting 'orthorhombic'
loop_
_space_group_symop_operation_xyz
x,y,z
-x,1/2-y,1/2+z
x,-y,-z
-x,1/2+y,1/2-z
-x,-y,-z
x,1/2+y,1/2-z
-x,y,z
x,1/2-y,1/2+z
1/2+x,1/2+y,z
1/2-x,-y,1/2+z
1/2+x,1/2-y,-z
1/2-x,y,1/2-z
1/2-x,1/2-y,-z
1/2+x,y,1/2-z
1/2-x,1/2+y,z
1/2+x,-y,1/2+z
loop_
_atom_site_type_symbol
_atom_site_label
_atom_site_fract_x
_atom_site_fract_y
_atom_site_fract_z
Si Si1 0.430939 0.823771 0.435669
Si Si2 0.343361 0.932626 0.329142
Si Si3 0.848878 0.395569 0.145427
Si Si4 0.563862 0.934224 0.915354
Si Si5 0.739963 0.617771 0.961632
Si Si6 0.651293 0.836750 0.583535
O O1 0.500000 0.842979 0.446589
O O2 0.408316 0.887402 0.353054
O O3 0.413312 0.692119 0.429638
O O4 0.396193 0.873494 0.514842
O O5 0.322763 0.909300 0.236178
O O6 0.298097 0.856580 0.380974
O O7 0.338504 0.065595 0.349645
O O8 0.895784 0.495497 0.145602
O O9 0.805873 0.406358 0.066849
O O10 0.874402 0.269050 0.135010
O O11 0.500000 0.928882 0.874673
O O12 0.561853 0.000000 0.000000
O O13 0.715852 0.500000 0.000000
O O14 0.715187 0.700206 0.037763
#
# Coordination Sequence:
#
# PCOD8263853 Si02
#       6
#    16  16  16  16  16  16
#     4  10  21  42  67  86 118 167 212 252 297 356
#     4  10  24  40  58  92 130 152 205 254 304 365
#     4  12  22  37  64  90 126 164 192 252 331 350
#     4  10  21  38  60  92 120 153 211 256 292 367
#     4   9  20  41  62  88 119 160 207 246 289 368
#     4  10  22  40  62  91 123 158 211 254 284 377
#
# _framework density 21.785112000000002
#
# number of rings (size 3 to 8) (size 9 to 14) (size 15 to 20)
#    0.000    1.833    1.667    3.000    2.333    2.000 
#    3.000    3.333    0.000    0.000    0.000    0.000 
#    0.000    0.000    0.000    0.000    0.000    0.000 
#
# Total GULP energy -594742.446810 kJ/mol
# GULP energy per Si atom -12390.467642 kJ/mol
# Density = 2.173553 g / cm^3
# Si number density = 21.785112 Si / 1000 Ang^3
#
#
#
# Elastic Constant Matrix: (Units=GPa)
#
#
# Indices 1 2 3 4 5 6 
#
# 1 85.2534 20.4640 21.5271 0.0000 0.0000 0.0000
# 2 20.4640 69.2233 34.6024 0.0000 0.0000 0.0000
# 3 21.5271 34.6024 101.8119 0.0000 0.0000 0.0000
# 4 0.0000 0.0000 0.0000 30.7156 0.0000 0.0000
# 5 0.0000 0.0000 0.0000 0.0000 36.0660 0.0000
# 6 0.0000 0.0000 0.0000 0.0000 0.0000 52.0589
#
#
#
# Elastic Compliance Matrix: (Units=1/GPa)
#
#
# Indices 1 2 3 4 5 6 
#
# 1 0.012871 -0.002945 -0.001721 0.000000 0.000000 0.000000
# 2 -0.002945 0.018076 -0.005521 0.000000 0.000000 0.000000
# 3 -0.001721 -0.005521 0.012062 0.000000 0.000000 0.000000
# 4 0.000000 0.000000 0.000000 0.032557 0.000000 0.000000
# 5 0.000000 0.000000 0.000000 0.000000 0.027727 0.000000
# 6 0.000000 0.000000 0.000000 0.000000 0.000000 0.019209
#
#
# Mechanical properties :
#
#
# Convention : Reuss Voigt Hill
#
# Bulk Modulus (GPa) = 44.17576 45.49729 44.83653
# Shear Modulus (GPa) = 33.24014 35.74777 34.49395
#
# Velocity S-wave (km/s) = 3.91041 4.05523 3.98348
# Velocity P-wave (km/s) = 6.38047 6.54648 6.46401
#
# Compressibility (1/GPa) = 0.02263685
#
# Stress axis : x y z
#
# Youngs Moduli (GPa) = 77.69352 55.32120 82.90373
#
# Poissons Ratio (x) = 0.16292 0.14264
# Poissons Ratio (y) = 0.22880 0.45770
# Poissons Ratio (z) = 0.13368 0.30542
#
# Static dielectric constant tensor:
#      x y z
#    x 4.017710 0.000000 0.000000 
#    y 0.000000 4.360310 0.000000 
#    z 0.000000 0.000000 3.699470 
# 
# 
# High freq. dielectric constant tensor:
#      x y z
#    x 1.849670 0.000000 0.000000 
#    y 0.000000 1.876320 0.000000 
#    z 0.000000 0.000000 1.836720 
# 
# From -- ./inp_files/34921.got.cif
#   From: 2010.03.12/outbox.cif.g09.slc.cpg/sg64_18_cif.got.tgz:34921.got - 2010.04.10 20:19:32.
