data_PCOD8263741
_publ_section_title
;
Structure prediction by ZEFSAII (Michael W. Deem and Ramdas Pophale) SiO2 
 PCOD8263741
Probable space group: C M C A
;
_chemical_formula_sum "Si O2"
_cell_formula_units_Z 112
_cell_length_a 32.363972
_cell_length_b 31.021247
_cell_length_c 5.225053
_cell_angle_alpha 90.000000
_cell_angle_beta 90.000000
_cell_angle_gamma 90.000000
_cell_volume 5245.800480
_symmetry_space_group_name_H-M "C M C A"
_symmetry_group_IT_number 64
_symmetry_cell_setting 'orthorhombic'
loop_
_space_group_symop_operation_xyz
x,y,z
-x,1/2-y,1/2+z
x,-y,-z
-x,1/2+y,1/2-z
-x,-y,-z
x,1/2+y,1/2-z
-x,y,z
x,1/2-y,1/2+z
1/2+x,1/2+y,z
1/2-x,-y,1/2+z
1/2+x,1/2-y,-z
1/2-x,y,1/2-z
1/2-x,1/2-y,-z
1/2+x,y,1/2-z
1/2-x,1/2+y,z
1/2+x,-y,1/2+z
loop_
_atom_site_type_symbol
_atom_site_label
_atom_site_fract_x
_atom_site_fract_y
_atom_site_fract_z
Si Si1 0.706881 0.548522 0.395093
Si Si2 0.817619 0.772722 0.461610
Si Si3 0.046788 0.089715 0.226498
Si Si4 0.413971 0.771262 0.085990
Si Si5 0.378102 0.472342 0.755394
Si Si6 0.953594 0.142898 0.728268
Si Si7 0.275952 0.360154 0.489178
O O1 0.702560 0.500000 0.500000
O O2 0.750000 0.548690 0.250000
O O3 0.663658 0.556980 0.247550
O O4 0.707921 0.590984 0.578030
O O5 0.797744 0.745525 0.697669
O O6 0.865766 0.762942 0.441323
O O7 0.811534 0.823980 0.510095
O O8 0.079867 0.052633 0.191059
O O9 0.051698 0.106208 0.515158
O O10 0.000000 0.072138 0.182877
O O11 0.056555 0.125635 0.011702
O O12 0.433900 0.741851 0.312854
O O13 0.421358 0.820506 0.157203
O O14 0.383833 0.500000 0.500000
O O15 0.369459 0.500000 0.000000
O O16 0.000000 0.161643 0.718848
O O17 0.250000 0.343946 0.250000
O O18 0.250000 0.361410 0.750000
#
# Coordination Sequence:
#
# PCOD8263741 Si02
#       7
#    16  16  16  16  16  16  16
#     4  10  22  42  65  91 130 163 205 264 313 364
#     4  10  22  40  59  87 125 161 201 258 311 362
#     4  10  22  40  61  91 126 160 202 254 309 366
#     4  10  21  37  57  86 120 159 203 247 309 364
#     4  11  24  41  64  94 120 162 211 246 315 377
#     4  10  21  38  60  88 121 161 202 248 310 364
#     4  11  24  40  62  93 117 161 215 247 315 379
#
# _framework density 21.350411999999999
#
# number of rings (size 3 to 8) (size 9 to 14) (size 15 to 20)
#    0.000    1.714    0.000    3.429    2.000    6.286 
#    5.143    0.000    0.000    0.000    0.000    0.000 
#    0.000    0.000    0.000    0.000    0.000    0.000 
#
# Total GULP energy -693777.931286 kJ/mol
# GULP energy per Si atom -12388.891630 kJ/mol
# Density = 2.130182 g / cm^3
# Si number density = 21.350412 Si / 1000 Ang^3
#
#
#
# Elastic Constant Matrix: (Units=GPa)
#
#
# Indices 1 2 3 4 5 6 
#
# 1 85.5485 25.9970 21.5691 0.0000 0.0000 0.0000
# 2 25.9970 106.1046 22.0768 0.0000 0.0000 0.0000
# 3 21.5691 22.0768 125.9859 0.0000 0.0000 0.0000
# 4 0.0000 0.0000 0.0000 33.0510 0.0000 0.0000
# 5 0.0000 0.0000 0.0000 0.0000 22.0896 0.0000
# 6 0.0000 0.0000 0.0000 0.0000 0.0000 47.9868
#
#
#
# Elastic Compliance Matrix: (Units=1/GPa)
#
#
# Indices 1 2 3 4 5 6 
#
# 1 0.012982 -0.002821 -0.001728 0.000000 0.000000 0.000000
# 2 -0.002821 0.010394 -0.001338 0.000000 0.000000 0.000000
# 3 -0.001728 -0.001338 0.008468 0.000000 0.000000 0.000000
# 4 0.000000 0.000000 0.000000 0.030256 0.000000 0.000000
# 5 0.000000 0.000000 0.000000 0.000000 0.045270 0.000000
# 6 0.000000 0.000000 0.000000 0.000000 0.000000 0.020839
#
#
# Mechanical properties :
#
#
# Convention : Reuss Voigt Hill
#
# Bulk Modulus (GPa) = 49.82877 50.76939 50.29908
# Shear Modulus (GPa) = 34.08886 37.15856 35.62371
#
# Velocity S-wave (km/s) = 4.00013 4.17635 4.08919
# Velocity P-wave (km/s) = 6.68760 6.86197 6.77534
#
# Compressibility (1/GPa) = 0.02006873
#
# Stress axis : x y z
#
# Youngs Moduli (GPa) = 77.02763 96.20582 118.09431
#
# Poissons Ratio (x) = 0.27142 0.20409
# Poissons Ratio (y) = 0.21731 0.15806
# Poissons Ratio (z) = 0.13312 0.12876
#
# Static dielectric constant tensor:
#      x y z
#    x 4.034180 0.000000 0.000000 
#    y 0.000000 3.867330 0.000000 
#    z 0.000000 0.000000 4.213220 
# 
# 
# High freq. dielectric constant tensor:
#      x y z
#    x 1.837140 0.000000 0.000000 
#    y 0.000000 1.833630 0.000000 
#    z 0.000000 0.000000 1.848950 
# 
# From -- ./inp_files/3480.got.cif
#   From: 2010.03.12/outbox.cif.g09.slc.cpg/sg64_2_cif.got.tgz:3480.got - 2010.04.10 20:19:32.
