data_PCOD8263477
_publ_section_title
;
Structure prediction by ZEFSAII (Michael W. Deem and Ramdas Pophale) SiO2 
 PCOD8263477
Probable space group: C M C A
;
_chemical_formula_sum "Si O2"
_cell_formula_units_Z 112
_cell_length_a 34.165940
_cell_length_b 4.951316
_cell_length_c 33.970120
_cell_angle_alpha 90.000000
_cell_angle_beta 90.000000
_cell_angle_gamma 90.000000
_cell_volume 5746.601732
_symmetry_space_group_name_H-M "C M C A"
_symmetry_group_IT_number 64
_symmetry_cell_setting 'orthorhombic'
loop_
_space_group_symop_operation_xyz
x,y,z
-x,1/2-y,1/2+z
x,-y,-z
-x,1/2+y,1/2-z
-x,-y,-z
x,1/2+y,1/2-z
-x,y,z
x,1/2-y,1/2+z
1/2+x,1/2+y,z
1/2-x,-y,1/2+z
1/2+x,1/2-y,-z
1/2-x,y,1/2-z
1/2-x,1/2-y,-z
1/2+x,y,1/2-z
1/2-x,1/2+y,z
1/2+x,-y,1/2+z
loop_
_atom_site_type_symbol
_atom_site_label
_atom_site_fract_x
_atom_site_fract_y
_atom_site_fract_z
Si Si1 0.870312 0.971603 0.453960
Si Si2 0.583375 0.668632 0.775880
Si Si3 0.826457 0.846086 0.224274
Si Si4 0.842266 0.493438 0.588738
Si Si5 0.544957 0.259156 0.144098
Si Si6 0.417338 0.244119 0.390596
Si Si7 0.723973 0.373023 0.147802
O O1 0.836431 0.749947 0.443216
O O2 0.911638 0.860361 0.435246
O O3 0.875861 0.000000 0.500000
O O4 0.859556 0.252977 0.434325
O O5 0.573216 0.460128 0.741429
O O6 0.628436 0.634889 0.788739
O O7 0.556365 0.616726 0.813694
O O8 0.816571 0.549180 0.240127
O O9 0.800297 0.922087 0.187186
O O10 0.874505 0.383968 0.620912
O O11 0.802136 0.568525 0.609608
O O12 0.500000 0.170954 0.142457
O O13 0.551687 0.498457 0.112111
O O14 0.571136 0.992777 0.137404
O O15 0.761697 0.565284 0.146469
#
# Coordination Sequence:
#
# PCOD8263477 Si02
#       7
#    16  16  16  16  16  16  16
#     4  10  20  38  69  96 112 147 203 257 288 350
#     4  10  22  39  58  82 114 158 208 255 297 342
#     4  10  22  38  57  81 112 156 205 253 293 341
#     4  10  21  39  63  91 118 156 198 250 283 366
#     4  12  23  37  59  90 128 160 201 248 303 362
#     4  10  21  38  62  91 115 160 197 251 288 361
#     4  12  25  38  59  87 125 161 196 247 303 361
#
# _framework density 19.489777
#
# number of rings (size 3 to 8) (size 9 to 14) (size 15 to 20)
#    0.857    0.571    1.429    4.286    0.000    4.571 
#    0.000    0.000    0.000   11.143    0.000    0.000 
#    0.000    0.000    0.000    0.000    0.000    0.000 
#
# Total GULP energy -694070.148250 kJ/mol
# GULP energy per Si atom -12394.109790 kJ/mol
# Density = 1.944542 g / cm^3
# Si number density = 19.489777 Si / 1000 Ang^3
#
#
#
# Elastic Constant Matrix: (Units=GPa)
#
#
# Indices 1 2 3 4 5 6 
#
# 1 69.6573 25.3168 48.2731 0.0000 0.0000 0.0000
# 2 25.3168 112.8300 32.1785 0.0000 0.0000 0.0000
# 3 48.2731 32.1785 102.1827 0.0000 0.0000 0.0000
# 4 0.0000 0.0000 0.0000 21.8327 0.0000 0.0000
# 5 0.0000 0.0000 0.0000 0.0000 12.2278 0.0000
# 6 0.0000 0.0000 0.0000 0.0000 0.0000 24.7470
#
#
#
# Elastic Compliance Matrix: (Units=1/GPa)
#
#
# Indices 1 2 3 4 5 6 
#
# 1 0.021807 -0.002148 -0.009626 0.000000 0.000000 0.000000
# 2 -0.002148 0.009949 -0.002118 0.000000 0.000000 0.000000
# 3 -0.009626 -0.002118 0.015001 0.000000 0.000000 0.000000
# 4 0.000000 0.000000 0.000000 0.045803 0.000000 0.000000
# 5 0.000000 0.000000 0.000000 0.000000 0.081781 0.000000
# 6 0.000000 0.000000 0.000000 0.000000 0.000000 0.040409
#
#
# Mechanical properties :
#
#
# Convention : Reuss Voigt Hill
#
# Bulk Modulus (GPa) = 52.70612 55.13410 53.92011
# Shear Modulus (GPa) = 20.09173 23.68826 21.88999
#
# Velocity S-wave (km/s) = 3.21422 3.49007 3.35498
# Velocity P-wave (km/s) = 6.39348 6.67764 6.53711
#
# Compressibility (1/GPa) = 0.01897313
#
# Stress axis : x y z
#
# Youngs Moduli (GPa) = 45.85588 100.51284 66.66254
#
# Poissons Ratio (x) = 0.21589 0.64168
# Poissons Ratio (y) = 0.09849 0.14121
# Poissons Ratio (z) = 0.44140 0.21292
#
# Static dielectric constant tensor:
#      x y z
#    x 3.337110 0.000000 0.000000 
#    y 0.000000 3.805890 0.000000 
#    z 0.000000 0.000000 3.343420 
# 
# 
# High freq. dielectric constant tensor:
#      x y z
#    x 1.733660 0.000000 0.000000 
#    y 0.000000 1.787320 0.000000 
#    z 0.000000 0.000000 1.737510 
# 
# From -- ./inp_files/54073.got.cif
#   From: 2010.03.12/outbox.cif.g09.slc.cpg/sg64_28_cif.got.tgz:54073.got - 2010.04.10 20:19:32.
