data_PCOD8263720
_publ_section_title
;
Structure prediction by ZEFSAII (Michael W. Deem and Ramdas Pophale) SiO2 
 PCOD8263720
Probable space group: C M C A
;
_chemical_formula_sum "Si O2"
_cell_formula_units_Z 96
_cell_length_a 22.830782
_cell_length_b 13.709646
_cell_length_c 15.398765
_cell_angle_alpha 90.000000
_cell_angle_beta 90.000000
_cell_angle_gamma 90.000000
_cell_volume 4819.843305
_symmetry_space_group_name_H-M "C M C A"
_symmetry_group_IT_number 64
_symmetry_cell_setting 'orthorhombic'
loop_
_space_group_symop_operation_xyz
x,y,z
-x,1/2-y,1/2+z
x,-y,-z
-x,1/2+y,1/2-z
-x,-y,-z
x,1/2+y,1/2-z
-x,y,z
x,1/2-y,1/2+z
1/2+x,1/2+y,z
1/2-x,-y,1/2+z
1/2+x,1/2-y,-z
1/2-x,y,1/2-z
1/2-x,1/2-y,-z
1/2+x,y,1/2-z
1/2-x,1/2+y,z
1/2+x,-y,1/2+z
loop_
_atom_site_type_symbol
_atom_site_label
_atom_site_fract_x
_atom_site_fract_y
_atom_site_fract_z
Si Si1 0.388529 0.289330 0.673976
Si Si2 0.658360 0.512716 0.906665
Si Si3 0.277795 0.707563 0.913626
Si Si4 0.067321 0.014574 0.403784
Si Si5 0.202314 0.159432 0.189334
Si Si6 0.932729 0.587707 0.730785
O O1 0.341035 0.256579 0.602781
O O2 0.425595 0.375059 0.630049
O O3 0.358237 0.325270 0.761648
O O4 0.430141 0.201691 0.706298
O O5 0.710807 0.592168 0.910501
O O6 0.690763 0.410195 0.891767
O O7 0.609042 0.530327 0.835197
O O8 0.627188 0.500000 0.000000
O O9 0.231402 0.737351 0.838910
O O10 0.250000 0.750000 0.000000
O O11 0.000000 0.990820 0.417035
O O12 0.097616 0.000000 0.500000
O O13 0.089977 0.938387 0.329076
O O14 0.250000 0.104929 0.250000
O O15 0.000000 0.552192 0.719875
#
# Coordination Sequence:
#
# PCOD8263720 Si02
#       6
#    16  16  16  16  16  16
#     4  10  21  39  61  85 121 159 198 252 308 369
#     4  11  21  38  65  88 121 160 199 252 305 370
#     4  10  21  37  55  87 119 152 198 243 294 363
#     4  10  21  40  63  90 121 158 209 261 308 368
#     4  10  21  38  56  86 118 156 198 239 299 355
#     4  10  22  40  63  90 122 161 203 255 315 369
#
# _framework density 19.917660000000001
#
# number of rings (size 3 to 8) (size 9 to 14) (size 15 to 20)
#    0.000    1.833    3.333    0.500    0.000    5.000 
#    6.000    0.000    0.000    0.000    0.000    0.000 
#    0.000    0.000    0.000    0.000    0.000    0.000 
#
# Total GULP energy -594779.578998 kJ/mol
# GULP energy per Si atom -12391.241229 kJ/mol
# Density = 1.987233 g / cm^3
# Si number density = 19.917660 Si / 1000 Ang^3
#
#
#
# Elastic Constant Matrix: (Units=GPa)
#
#
# Indices 1 2 3 4 5 6 
#
# 1 59.3372 19.0496 41.2579 0.0000 0.0000 0.0000
# 2 19.0496 99.6922 46.5726 0.0000 0.0000 0.0000
# 3 41.2579 46.5726 160.8893 0.0000 0.0000 0.0000
# 4 0.0000 0.0000 0.0000 23.8141 0.0000 0.0000
# 5 0.0000 0.0000 0.0000 0.0000 29.8221 0.0000
# 6 0.0000 0.0000 0.0000 0.0000 0.0000 13.7414
#
#
#
# Elastic Compliance Matrix: (Units=1/GPa)
#
#
# Indices 1 2 3 4 5 6 
#
# 1 0.020759 -0.001711 -0.004828 0.000000 0.000000 0.000000
# 2 -0.001711 0.011741 -0.002960 0.000000 0.000000 0.000000
# 3 -0.004828 -0.002960 0.008310 0.000000 0.000000 0.000000
# 4 0.000000 0.000000 0.000000 0.041992 0.000000 0.000000
# 5 0.000000 0.000000 0.000000 0.000000 0.033532 0.000000
# 6 0.000000 0.000000 0.000000 0.000000 0.000000 0.072773
#
#
# Mechanical properties :
#
#
# Convention : Reuss Voigt Hill
#
# Bulk Modulus (GPa) = 45.84631 59.29764 52.57198
# Shear Modulus (GPa) = 23.21526 27.67809 25.44668
#
# Velocity S-wave (km/s) = 3.41774 3.73181 3.57822
# Velocity P-wave (km/s) = 6.21631 6.95734 6.59724
#
# Compressibility (1/GPa) = 0.02181200
#
# Stress axis : x y z
#
# Youngs Moduli (GPa) = 48.17137 85.17496 120.33266
#
# Poissons Ratio (x) = 0.14576 0.58097
# Poissons Ratio (y) = 0.08243 0.35615
# Poissons Ratio (z) = 0.23257 0.25209
#
# Static dielectric constant tensor:
#      x y z
#    x 3.376210 0.000000 0.000000 
#    y 0.000000 3.682840 0.000000 
#    z 0.000000 0.000000 4.177290 
# 
# 
# High freq. dielectric constant tensor:
#      x y z
#    x 1.759320 0.000000 0.000000 
#    y 0.000000 1.773550 0.000000 
#    z 0.000000 0.000000 1.793320 
# 
# From -- ./inp_files/26326.got.cif
#   From: 2010.03.12/outbox.cif.g09.slc.cpg/sg64_14_cif.got.tgz:26326.got - 2010.04.10 20:19:32.
