data_PCOD8263714
_publ_section_title
;
Structure prediction by ZEFSAII (Michael W. Deem and Ramdas Pophale) SiO2 
 PCOD8263714
Probable space group: C M C A
;
_chemical_formula_sum "Si O2"
_cell_formula_units_Z 64
_cell_length_a 14.354638
_cell_length_b 14.277410
_cell_length_c 16.244717
_cell_angle_alpha 90.000000
_cell_angle_beta 90.000000
_cell_angle_gamma 90.000000
_cell_volume 3329.306862
_symmetry_space_group_name_H-M "C M C A"
_symmetry_group_IT_number 64
_symmetry_cell_setting 'orthorhombic'
loop_
_space_group_symop_operation_xyz
x,y,z
-x,1/2-y,1/2+z
x,-y,-z
-x,1/2+y,1/2-z
-x,-y,-z
x,1/2+y,1/2-z
-x,y,z
x,1/2-y,1/2+z
1/2+x,1/2+y,z
1/2-x,-y,1/2+z
1/2+x,1/2-y,-z
1/2-x,y,1/2-z
1/2-x,1/2-y,-z
1/2+x,y,1/2-z
1/2-x,1/2+y,z
1/2+x,-y,1/2+z
loop_
_atom_site_type_symbol
_atom_site_label
_atom_site_fract_x
_atom_site_fract_y
_atom_site_fract_z
Si Si1 0.396697 0.942212 0.916378
Si Si2 0.773047 0.907278 0.343405
Si Si3 0.891279 0.212027 0.535762
Si Si4 0.896552 0.098949 0.957357
O O1 0.500000 0.939025 0.875399
O O2 0.324019 0.991112 0.853680
O O3 0.364595 0.839560 0.948630
O O4 0.399814 0.000000 0.000000
O O5 0.750000 0.883446 0.250000
O O6 0.835376 0.826584 0.385515
O O7 0.671490 0.907754 0.381618
O O8 0.865883 0.320944 0.522713
O O9 0.000000 0.195645 0.555317
O O10 0.000000 0.123094 0.924218
O O11 0.894888 0.000000 0.000000
#
# Coordination Sequence:
#
# PCOD8263714 Si02
#       4
#    16  16  16  16
#     4   8  15  31  55  77  97 130 177 217 250 302
#     4  11  21  32  52  82 112 137 165 219 279 322
#     4   9  18  36  60  78  98 139 189 224 253 308
#     4  10  21  37  55  75 104 144 185 221 260 312
#
# _framework density 19.223219
#
# number of rings (size 3 to 8) (size 9 to 14) (size 15 to 20)
#    0.000    2.500    0.000    5.250    0.000    2.000 
#    0.000    5.000    0.000    9.000    0.000    0.000 
#    0.000    0.000    0.000    0.000    0.000    0.000 
#
# Total GULP energy -396547.563675 kJ/mol
# GULP energy per Si atom -12392.111365 kJ/mol
# Density = 1.917947 g / cm^3
# Si number density = 19.223219 Si / 1000 Ang^3
#
#
#
# Elastic Constant Matrix: (Units=GPa)
#
#
# Indices 1 2 3 4 5 6 
#
# 1 119.0787 42.4478 72.0340 0.0000 0.0000 0.0000
# 2 42.4478 128.7728 37.9151 0.0000 0.0000 0.0000
# 3 72.0340 37.9151 98.6864 0.0000 0.0000 0.0000
# 4 0.0000 0.0000 0.0000 7.2615 0.0000 0.0000
# 5 0.0000 0.0000 0.0000 0.0000 29.2653 0.0000
# 6 0.0000 0.0000 0.0000 0.0000 0.0000 27.8467
#
#
#
# Elastic Compliance Matrix: (Units=1/GPa)
#
#
# Indices 1 2 3 4 5 6 
#
# 1 0.015483 -0.002003 -0.010532 0.000000 0.000000 0.000000
# 2 -0.002003 0.009015 -0.002002 0.000000 0.000000 0.000000
# 3 -0.010532 -0.002002 0.018590 0.000000 0.000000 0.000000
# 4 0.000000 0.000000 0.000000 0.137713 0.000000 0.000000
# 5 0.000000 0.000000 0.000000 0.000000 0.034170 0.000000
# 6 0.000000 0.000000 0.000000 0.000000 0.000000 0.035911
#
#
# Mechanical properties :
#
#
# Convention : Reuss Voigt Hill
#
# Bulk Modulus (GPa) = 71.35252 72.37019 71.86136
# Shear Modulus (GPa) = 17.56693 25.81744 21.69218
#
# Velocity S-wave (km/s) = 3.02626 3.66872 3.36287
# Velocity P-wave (km/s) = 7.02918 7.46157 7.24860
#
# Compressibility (1/GPa) = 0.01401492
#
# Stress axis : x y z
#
# Youngs Moduli (GPa) = 64.58827 110.92423 53.79333
#
# Poissons Ratio (x) = 0.22215 0.56654
# Poissons Ratio (y) = 0.12935 0.10768
# Poissons Ratio (z) = 0.68023 0.22205
#
# Static dielectric constant tensor:
#      x y z
#    x 4.118030 0.000000 0.000000 
#    y 0.000000 4.176340 0.000000 
#    z 0.000000 0.000000 3.023200 
# 
# 
# High freq. dielectric constant tensor:
#      x y z
#    x 1.770650 0.000000 0.000000 
#    y 0.000000 1.756990 0.000000 
#    z 0.000000 0.000000 1.687350 
# 
# From -- ./inp_files/23215.got.cif
#   From: 2010.03.12/outbox.cif.g09.slc.cpg/sg64_12_cif.got.tgz:23215.got - 2010.04.10 20:19:32.
