data_PCOD8263683
_publ_section_title
;
Structure prediction by ZEFSAII (Michael W. Deem and Ramdas Pophale) SiO2 
 PCOD8263683
Probable space group: C M C A
;
_chemical_formula_sum "Si O2"
_cell_formula_units_Z 120
_cell_length_a 24.783490
_cell_length_b 11.295131
_cell_length_c 21.130640
_cell_angle_alpha 90.000000
_cell_angle_beta 90.000000
_cell_angle_gamma 90.000000
_cell_volume 5915.158507
_symmetry_space_group_name_H-M "C M C A"
_symmetry_group_IT_number 64
_symmetry_cell_setting 'orthorhombic'
loop_
_space_group_symop_operation_xyz
x,y,z
-x,1/2-y,1/2+z
x,-y,-z
-x,1/2+y,1/2-z
-x,-y,-z
x,1/2+y,1/2-z
-x,y,z
x,1/2-y,1/2+z
1/2+x,1/2+y,z
1/2-x,-y,1/2+z
1/2+x,1/2-y,-z
1/2-x,y,1/2-z
1/2-x,1/2-y,-z
1/2+x,y,1/2-z
1/2-x,1/2+y,z
1/2+x,-y,1/2+z
loop_
_atom_site_type_symbol
_atom_site_label
_atom_site_fract_x
_atom_site_fract_y
_atom_site_fract_z
Si Si1 0.163978 0.723555 0.361590
Si Si2 0.233720 0.152683 0.551317
Si Si3 0.382536 0.307988 0.168137
Si Si4 0.389454 0.575367 0.700359
Si Si5 0.311817 0.375721 0.731612
Si Si6 0.560749 0.095005 0.109967
Si Si7 0.861827 0.000000 0.500000
Si Si8 0.340639 0.008158 0.568207
O O1 0.221648 0.783153 0.381093
O O2 0.119036 0.825068 0.353406
O O3 0.160260 0.652032 0.297145
O O4 0.151923 0.628308 0.414674
O O5 0.250000 0.250000 0.500000
O O6 0.176223 0.099766 0.530092
O O7 0.278091 0.050167 0.561016
O O8 0.405856 0.369484 0.231782
O O9 0.328685 0.229196 0.182859
O O10 0.427617 0.226206 0.136101
O O11 0.370012 0.407606 0.117054
O O12 0.332968 0.502314 0.707236
O O13 0.435004 0.490173 0.671766
O O14 0.250000 0.382452 0.750000
O O15 0.500000 0.090101 0.083661
O O16 0.601482 0.059490 0.054128
O O17 0.368952 0.000000 0.500000
#
# Coordination Sequence:
#
# PCOD8263683 Si02
#       8
#    16  16  16  16  16  16   8  16
#     4  11  22  36  56  83 125 166 209 257 307 368
#     4  12  22  37  58  91 131 180 212 249 304 386
#     4  10  23  42  63  95 129 165 214 269 314 385
#     4  10  22  41  63  91 125 161 214 271 319 382
#     4  10  21  36  58  88 128 173 205 253 309 380
#     4  11  25  45  72  94 120 168 219 280 335 368
#     4  12  23  42  62  96 134 162 221 266 308 384
#     4  12  23  37  59  94 131 176 210 242 314 387
#
# _framework density 20.286860999999998
#
# number of rings (size 3 to 8) (size 9 to 14) (size 15 to 20)
#    0.000    1.067    4.667    1.800    1.867    3.733 
#    0.000    0.000    0.000    0.400    0.000    0.000 
#    0.000    0.000    0.000    0.000    0.000    0.000 
#
# Total GULP energy -743414.068971 kJ/mol
# GULP energy per Si atom -12390.234483 kJ/mol
# Density = 2.024069 g / cm^3
# Si number density = 20.286861 Si / 1000 Ang^3
#
#
#
# Elastic Constant Matrix: (Units=GPa)
#
#
# Indices 1 2 3 4 5 6 
#
# 1 79.1291 24.2744 18.4584 0.0000 0.0000 0.0000
# 2 24.2744 109.4496 47.1307 0.0000 0.0000 0.0000
# 3 18.4584 47.1307 108.1139 0.0000 0.0000 0.0000
# 4 0.0000 0.0000 0.0000 56.4491 0.0000 0.0000
# 5 0.0000 0.0000 0.0000 0.0000 20.1900 0.0000
# 6 0.0000 0.0000 0.0000 0.0000 0.0000 14.3505
#
#
#
# Elastic Compliance Matrix: (Units=1/GPa)
#
#
# Indices 1 2 3 4 5 6 
#
# 1 0.013696 -0.002500 -0.001248 0.000000 0.000000 0.000000
# 2 -0.002500 0.011704 -0.004676 0.000000 0.000000 0.000000
# 3 -0.001248 -0.004676 0.011501 0.000000 0.000000 0.000000
# 4 0.000000 0.000000 0.000000 0.017715 0.000000 0.000000
# 5 0.000000 0.000000 0.000000 0.000000 0.049529 0.000000
# 6 0.000000 0.000000 0.000000 0.000000 0.000000 0.069684
#
#
# Mechanical properties :
#
#
# Convention : Reuss Voigt Hill
#
# Bulk Modulus (GPa) = 49.86753 52.93553 51.40153
# Shear Modulus (GPa) = 25.33421 31.98654 28.66038
#
# Velocity S-wave (km/s) = 3.53767 3.97509 3.76274
# Velocity P-wave (km/s) = 6.42817 6.87158 6.65357
#
# Compressibility (1/GPa) = 0.02005313
#
# Stress axis : x y z
#
# Youngs Moduli (GPa) = 73.01557 85.43764 86.94967
#
# Poissons Ratio (x) = 0.21359 0.10856
# Poissons Ratio (y) = 0.18253 0.40654
# Poissons Ratio (z) = 0.09116 0.39947
#
# Static dielectric constant tensor:
#      x y z
#    x 3.183040 0.000000 0.000000 
#    y 0.000000 4.027620 0.000000 
#    z 0.000000 0.000000 3.980880 
# 
# 
# High freq. dielectric constant tensor:
#      x y z
#    x 1.734730 0.000000 0.000000 
#    y 0.000000 1.815840 0.000000 
#    z 0.000000 0.000000 1.813190 
# 
# From -- ./inp_files/41986.got.cif
#   From: 2010.03.12/outbox.cif.g09.slc.cpg/sg64_21_cif.got.tgz:41986.got - 2010.04.10 20:19:32.
