data_PCOD8263997
_publ_section_title
;
Structure prediction by ZEFSAII (Michael W. Deem and Ramdas Pophale) SiO2 
 PCOD8263997
Probable space group: C M C A
;
_chemical_formula_sum "Si O2"
_cell_formula_units_Z 112
_cell_length_a 17.354684
_cell_length_b 13.518230
_cell_length_c 22.811513
_cell_angle_alpha 90.000000
_cell_angle_beta 90.000000
_cell_angle_gamma 90.000000
_cell_volume 5351.686108
_symmetry_space_group_name_H-M "C M C A"
_symmetry_group_IT_number 64
_symmetry_cell_setting 'orthorhombic'
loop_
_space_group_symop_operation_xyz
x,y,z
-x,1/2-y,1/2+z
x,-y,-z
-x,1/2+y,1/2-z
-x,-y,-z
x,1/2+y,1/2-z
-x,y,z
x,1/2-y,1/2+z
1/2+x,1/2+y,z
1/2-x,-y,1/2+z
1/2+x,1/2-y,-z
1/2-x,y,1/2-z
1/2-x,1/2-y,-z
1/2+x,y,1/2-z
1/2-x,1/2+y,z
1/2+x,-y,1/2+z
loop_
_atom_site_type_symbol
_atom_site_label
_atom_site_fract_x
_atom_site_fract_y
_atom_site_fract_z
Si Si1 0.164513 0.778344 0.477888
Si Si2 0.910556 0.991586 0.262754
Si Si3 0.913230 0.696061 0.180773
Si Si4 0.911917 0.583858 0.065900
Si Si5 0.089555 0.097381 0.966201
Si Si6 0.334394 0.608463 0.840239
Si Si7 0.338574 0.903523 0.130696
O O1 0.250000 0.750000 0.500000
O O2 0.131874 0.876938 0.508712
O O3 0.107765 0.688029 0.490687
O O4 0.160799 0.802326 0.407969
O O5 0.883100 0.099356 0.285135
O O6 0.000000 0.991520 0.250893
O O7 0.869999 0.975797 0.200743
O O8 0.893911 0.906924 0.312188
O O9 0.914516 0.673582 0.111667
O O10 0.854861 0.786627 0.190505
O O11 0.000000 0.725879 0.200886
O O12 0.861102 0.493749 0.088936
O O13 0.000000 0.549529 0.052086
O O14 0.134521 0.104266 0.905765
O O15 0.000000 0.095415 0.951272
O O16 0.116934 0.000000 0.000000
O O17 0.245031 0.585529 0.841284
#
# Coordination Sequence:
#
# PCOD8263997 Si02
#       7
#    16  16  16  16  16  16  16
#     4  12  23  39  64  97 135 180 218 277 335 397
#     4  10  23  43  67  96 126 167 228 283 333 399
#     4   9  18  38  66  93 120 164 220 263 318 398
#     4  10  21  39  66  95 127 169 216 266 330 399
#     4  11  25  43  66  95 132 180 228 267 329 415
#     4  12  22  43  68  92 134 177 216 275 345 404
#     4  11  24  39  63  99 136 163 216 280 338 398
#
# _framework density 20.927983999999999
#
# number of rings (size 3 to 8) (size 9 to 14) (size 15 to 20)
#    0.000    1.286    2.857    3.857    2.000    2.857 
#    2.571    2.857    0.000    0.000    0.000    0.000 
#    0.000    0.000    0.000    0.000    0.000    0.000 
#
# Total GULP energy -694302.318391 kJ/mol
# GULP energy per Si atom -12398.255686 kJ/mol
# Density = 2.088035 g / cm^3
# Si number density = 20.927984 Si / 1000 Ang^3
#
#
#
# Elastic Constant Matrix: (Units=GPa)
#
#
# Indices 1 2 3 4 5 6 
#
# 1 91.7321 37.2126 30.6743 0.0000 0.0000 0.0000
# 2 37.2126 76.5813 40.8352 0.0000 0.0000 0.0000
# 3 30.6743 40.8352 75.1854 0.0000 0.0000 0.0000
# 4 0.0000 0.0000 0.0000 33.1858 0.0000 0.0000
# 5 0.0000 0.0000 0.0000 0.0000 35.7607 0.0000
# 6 0.0000 0.0000 0.0000 0.0000 0.0000 35.5757
#
#
#
# Elastic Compliance Matrix: (Units=1/GPa)
#
#
# Indices 1 2 3 4 5 6 
#
# 1 0.013995 -0.005287 -0.002838 0.000000 0.000000 0.000000
# 2 -0.005287 0.020379 -0.008911 0.000000 0.000000 0.000000
# 3 -0.002838 -0.008911 0.019298 0.000000 0.000000 0.000000
# 4 0.000000 0.000000 0.000000 0.030133 0.000000 0.000000
# 5 0.000000 0.000000 0.000000 0.000000 0.027964 0.000000
# 6 0.000000 0.000000 0.000000 0.000000 0.000000 0.028109
#
#
# Mechanical properties :
#
#
# Convention : Reuss Voigt Hill
#
# Bulk Modulus (GPa) = 51.02254 51.21590 51.11922
# Shear Modulus (GPa) = 27.70317 29.88956 28.79637
#
# Velocity S-wave (km/s) = 3.64227 3.78327 3.71344
# Velocity P-wave (km/s) = 6.49008 6.60377 6.54717
#
# Compressibility (1/GPa) = 0.01959918
#
# Stress axis : x y z
#
# Youngs Moduli (GPa) = 71.45296 49.07040 51.81806
#
# Poissons Ratio (x) = 0.25945 0.14707
# Poissons Ratio (y) = 0.37779 0.46176
# Poissons Ratio (z) = 0.20280 0.43728
#
# Static dielectric constant tensor:
#      x y z
#    x 3.864130 0.000000 0.000000 
#    y 0.000000 3.822220 0.000000 
#    z 0.000000 0.000000 3.877160 
# 
# 
# High freq. dielectric constant tensor:
#      x y z
#    x 1.823250 0.000000 0.000000 
#    y 0.000000 1.814570 0.000000 
#    z 0.000000 0.000000 1.823050 
# 
# From -- ./inp_files/45229.got.cif
#   From: 2010.03.12/outbox.cif.g09.slc.cpg/sg64_23_cif.got.tgz:45229.got - 2010.04.10 20:19:32.
