data_PCOD8263497
_publ_section_title
;
Structure prediction by ZEFSAII (Michael W. Deem and Ramdas Pophale) SiO2 
 PCOD8263497
Probable space group: C M C A
;
_chemical_formula_sum "Si O2"
_cell_formula_units_Z 120
_cell_length_a 10.847467
_cell_length_b 21.603072
_cell_length_c 24.155631
_cell_angle_alpha 90.000000
_cell_angle_beta 90.000000
_cell_angle_gamma 90.000000
_cell_volume 5660.597007
_symmetry_space_group_name_H-M "C M C A"
_symmetry_group_IT_number 64
_symmetry_cell_setting 'orthorhombic'
loop_
_space_group_symop_operation_xyz
x,y,z
-x,1/2-y,1/2+z
x,-y,-z
-x,1/2+y,1/2-z
-x,-y,-z
x,1/2+y,1/2-z
-x,y,z
x,1/2-y,1/2+z
1/2+x,1/2+y,z
1/2-x,-y,1/2+z
1/2+x,1/2-y,-z
1/2-x,y,1/2-z
1/2-x,1/2-y,-z
1/2+x,y,1/2-z
1/2-x,1/2+y,z
1/2+x,-y,1/2+z
loop_
_atom_site_type_symbol
_atom_site_label
_atom_site_fract_x
_atom_site_fract_y
_atom_site_fract_z
Si Si1 0.225101 0.135222 0.579885
Si Si2 0.798579 0.864223 0.895613
Si Si3 0.139115 0.561916 0.289548
Si Si4 0.139608 0.244031 0.652466
Si Si5 0.860594 0.573981 0.673287
Si Si6 0.132181 0.294981 0.499603
Si Si7 0.250000 0.672805 0.750000
Si Si8 0.138289 0.436287 0.978837
O O1 0.146719 0.189586 0.607690
O O2 0.263483 0.081963 0.623148
O O3 0.351927 0.161920 0.554220
O O4 0.140825 0.110353 0.530353
O O5 0.863967 0.907592 0.850449
O O6 0.765252 0.800003 0.863033
O O7 0.880380 0.839608 0.946879
O O8 0.690432 0.904864 0.922987
O O9 0.250000 0.588754 0.250000
O O10 0.168670 0.489654 0.295971
O O11 0.000000 0.571488 0.264101
O O12 0.169569 0.217709 0.712293
O O13 0.000000 0.270374 0.652820
O O14 0.844395 0.630602 0.715692
O O15 0.000000 0.574446 0.650806
O O16 0.250000 0.250000 0.500000
O O17 0.000000 0.259745 0.494118
O O18 0.000000 0.453024 0.962222
O O19 0.205286 0.500000 0.000000
#
# Coordination Sequence:
#
# PCOD8263497 Si02
#       8
#    16  16  16  16  16  16   8  16
#     4  10  21  37  61  92 121 166 204 257 311 386
#     4  11  24  41  62  92 126 167 209 256 317 386
#     4  11  24  43  67  92 125 167 213 266 319 377
#     4  11  22  39  60  87 124 166 210 262 322 381
#     4  10  20  39  62  90 123 159 209 266 315 372
#     4  11  22  38  60  89 125 166 208 256 310 380
#     4  10  22  38  60  92 118 166 212 270 314 382
#     4  10  22  41  64  94 130 166 211 264 318 380
#
# _framework density 21.199178
#
# number of rings (size 3 to 8) (size 9 to 14) (size 15 to 20)
#    0.000    1.467    2.000    3.200    0.933    2.667 
#    0.000    2.000    0.000    8.400    0.000    0.000 
#    0.000    0.000    0.000    0.000    0.000    0.000 
#
# Total GULP energy -743312.700006 kJ/mol
# GULP energy per Si atom -12388.545000 kJ/mol
# Density = 2.115093 g / cm^3
# Si number density = 21.199178 Si / 1000 Ang^3
#
#
#
# Elastic Constant Matrix: (Units=GPa)
#
#
# Indices 1 2 3 4 5 6 
#
# 1 118.0587 34.4493 36.1827 0.0000 0.0000 0.0000
# 2 34.4493 90.6307 32.9224 0.0000 0.0000 0.0000
# 3 36.1827 32.9224 110.8729 0.0000 0.0000 0.0000
# 4 0.0000 0.0000 0.0000 23.3392 0.0000 0.0000
# 5 0.0000 0.0000 0.0000 0.0000 12.2863 0.0000
# 6 0.0000 0.0000 0.0000 0.0000 0.0000 31.1781
#
#
#
# Elastic Compliance Matrix: (Units=1/GPa)
#
#
# Indices 1 2 3 4 5 6 
#
# 1 0.010070 -0.002952 -0.002410 0.000000 0.000000 0.000000
# 2 -0.002952 0.013233 -0.002966 0.000000 0.000000 0.000000
# 3 -0.002410 -0.002966 0.010686 0.000000 0.000000 0.000000
# 4 0.000000 0.000000 0.000000 0.042846 0.000000 0.000000
# 5 0.000000 0.000000 0.000000 0.000000 0.081392 0.000000
# 6 0.000000 0.000000 0.000000 0.000000 0.000000 0.032074
#
#
# Mechanical properties :
#
#
# Convention : Reuss Voigt Hill
#
# Bulk Modulus (GPa) = 57.69022 58.51898 58.10460
# Shear Modulus (GPa) = 23.50326 27.76125 25.63225
#
# Velocity S-wave (km/s) = 3.33331 3.62269 3.48101
# Velocity P-wave (km/s) = 6.48746 6.72033 6.60492
#
# Compressibility (1/GPa) = 0.01733396
#
# Stress axis : x y z
#
# Youngs Moduli (GPa) = 99.30072 75.56603 93.57643
#
# Poissons Ratio (x) = 0.22311 0.22549
# Poissons Ratio (y) = 0.29318 0.27755
# Poissons Ratio (z) = 0.23929 0.22413
#
# Static dielectric constant tensor:
#      x y z
#    x 3.799990 0.000000 0.000000 
#    y 0.000000 3.985510 0.000000 
#    z 0.000000 0.000000 3.973770 
# 
# 
# High freq. dielectric constant tensor:
#      x y z
#    x 1.810380 0.000000 0.000000 
#    y 0.000000 1.838490 0.000000 
#    z 0.000000 0.000000 1.837320 
# 
# From -- ./inp_files/44473.got.cif
#   From: 2010.03.12/outbox.cif.g09.slc.cpg/sg64_23_cif.got.tgz:44473.got - 2010.04.10 20:19:32.
