data_PCOD8263047
_publ_section_title
;
Structure prediction by ZEFSAII (Michael W. Deem and Ramdas Pophale) SiO2 
 PCOD8263047
Probable space group: C M C A
;
_chemical_formula_sum "Si O2"
_cell_formula_units_Z 96
_cell_length_a 8.891562
_cell_length_b 22.843068
_cell_length_c 23.708689
_cell_angle_alpha 90.000000
_cell_angle_beta 90.000000
_cell_angle_gamma 90.000000
_cell_volume 4815.484990
_symmetry_space_group_name_H-M "C M C A"
_symmetry_group_IT_number 64
_symmetry_cell_setting 'orthorhombic'
loop_
_space_group_symop_operation_xyz
x,y,z
-x,1/2-y,1/2+z
x,-y,-z
-x,1/2+y,1/2-z
-x,-y,-z
x,1/2+y,1/2-z
-x,y,z
x,1/2-y,1/2+z
1/2+x,1/2+y,z
1/2-x,-y,1/2+z
1/2+x,1/2-y,-z
1/2-x,y,1/2-z
1/2-x,1/2-y,-z
1/2+x,y,1/2-z
1/2-x,1/2+y,z
1/2+x,-y,1/2+z
loop_
_atom_site_type_symbol
_atom_site_label
_atom_site_fract_x
_atom_site_fract_y
_atom_site_fract_z
Si Si1 0.323668 0.088399 0.307104
Si Si2 0.322804 0.817928 0.311545
Si Si3 0.323680 0.367277 0.525272
Si Si4 0.672222 0.024264 0.097298
Si Si5 0.173913 0.610977 0.904969
Si Si6 0.822039 0.695778 0.134929
O O1 0.500000 0.094975 0.300229
O O2 0.250000 0.066064 0.250000
O O3 0.283720 0.038548 0.351804
O O4 0.256113 0.151399 0.322545
O O5 0.500000 0.821394 0.303265
O O6 0.250000 0.819597 0.250000
O O7 0.267793 0.872073 0.349570
O O8 0.272814 0.760314 0.346234
O O9 0.500000 0.361820 0.518748
O O10 0.282443 0.432913 0.545843
O O11 0.260059 0.357054 0.461684
O O12 0.266162 0.318776 0.570716
O O13 0.500000 0.037488 0.115557
O O14 0.693561 0.957287 0.080830
O O15 0.000000 0.626574 0.893332
O O16 0.000000 0.686786 0.139494
#
# Coordination Sequence:
#
# PCOD8263047 Si02
#       6
#    16  16  16  16  16  16
#     4  11  21  33  53  80 108 140 180 229 281 327
#     4  11  24  40  57  78 108 147 187 228 272 319
#     4   8  15  32  59  87 111 138 176 219 267 325
#     4   9  18  34  55  80 111 146 183 221 264 319
#     4  10  20  35  58  84 111 147 184 218 262 321
#     4   9  19  37  59  82 109 141 179 224 273 325
#
# _framework density 19.935687000000001
#
# number of rings (size 3 to 8) (size 9 to 14) (size 15 to 20)
#    0.000    2.333    0.000    4.000    0.000    6.667 
#    0.000    3.333    0.000    5.000    0.000    0.000 
#    0.000    0.000    0.000    0.000    0.000    0.000 
#
# Total GULP energy -594978.242283 kJ/mol
# GULP energy per Si atom -12395.380048 kJ/mol
# Density = 1.989031 g / cm^3
# Si number density = 19.935687 Si / 1000 Ang^3
#
#
#
# Elastic Constant Matrix: (Units=GPa)
#
#
# Indices 1 2 3 4 5 6 
#
# 1 54.3557 18.3490 38.4436 0.0000 0.0000 0.0000
# 2 18.3490 60.2185 52.5798 0.0000 0.0000 0.0000
# 3 38.4436 52.5798 147.4154 0.0000 0.0000 0.0000
# 4 0.0000 0.0000 0.0000 -4.2192 0.0000 0.0000
# 5 0.0000 0.0000 0.0000 0.0000 23.1300 0.0000
# 6 0.0000 0.0000 0.0000 0.0000 0.0000 23.4100
#
#
#
# Elastic Compliance Matrix: (Units=1/GPa)
#
#
# Indices 1 2 3 4 5 6 
#
# 1 0.022825 -0.002553 -0.005042 0.000000 0.000000 0.000000
# 2 -0.002553 0.024402 -0.008038 0.000000 0.000000 0.000000
# 3 -0.005042 -0.008038 0.010965 0.000000 0.000000 0.000000
# 4 0.000000 0.000000 0.000000 -0.237014 0.000000 0.000000
# 5 0.000000 0.000000 0.000000 0.000000 0.043234 0.000000
# 6 0.000000 0.000000 0.000000 0.000000 0.000000 0.042717
#
#
# Mechanical properties :
#
#
# Convention : Reuss Voigt Hill
#
# Bulk Modulus (GPa) = 37.13667 53.41494 45.27580
# Shear Modulus (GPa) = -95.00468 18.63864 -38.18302
#
# Velocity S-wave (km/s) = -6.91079 3.06099 -4.38117
# Velocity P-wave (km/s) = 6.70895 6.27254 1.68305
#
# Compressibility (1/GPa) = 0.02692757
#
# Stress axis : x y z
#
# Youngs Moduli (GPa) = 43.81166 40.97944 91.19560
#
# Poissons Ratio (x) = 0.10460 0.45980
# Poissons Ratio (y) = 0.11183 0.73304
# Poissons Ratio (z) = 0.22090 0.32940
#
# Static dielectric constant tensor:
#      x y z
#    x 3.384520 0.000000 0.000000 
#    y 0.000000 3.530940 0.000000 
#    z 0.000000 0.000000 4.992020 
# 
# 
# High freq. dielectric constant tensor:
#      x y z
#    x 1.752110 0.000000 0.000000 
#    y 0.000000 1.768010 0.000000 
#    z 0.000000 0.000000 1.792120 
# 
# From -- ./inp_files/42995.got.cif
#   From: 2010.03.12/outbox.cif.g09.slc.cpg/sg64_22_cif.got.tgz:42995.got - 2010.04.10 20:19:32.
