data_PCOD8263502
_publ_section_title
;
Structure prediction by ZEFSAII (Michael W. Deem and Ramdas Pophale) SiO2 
 PCOD8263502
Probable space group: C M C A
;
_chemical_formula_sum "Si O2"
_cell_formula_units_Z 80
_cell_length_a 26.231328
_cell_length_b 13.006754
_cell_length_c 12.985815
_cell_angle_alpha 90.000000
_cell_angle_beta 90.000000
_cell_angle_gamma 90.000000
_cell_volume 4430.557894
_symmetry_space_group_name_H-M "C M C A"
_symmetry_group_IT_number 64
_symmetry_cell_setting 'orthorhombic'
loop_
_space_group_symop_operation_xyz
x,y,z
-x,1/2-y,1/2+z
x,-y,-z
-x,1/2+y,1/2-z
-x,-y,-z
x,1/2+y,1/2-z
-x,y,z
x,1/2-y,1/2+z
1/2+x,1/2+y,z
1/2-x,-y,1/2+z
1/2+x,1/2-y,-z
1/2-x,y,1/2-z
1/2-x,1/2-y,-z
1/2+x,y,1/2-z
1/2-x,1/2+y,z
1/2+x,-y,1/2+z
loop_
_atom_site_type_symbol
_atom_site_label
_atom_site_fract_x
_atom_site_fract_y
_atom_site_fract_z
Si Si1 0.055668 0.524788 0.116576
Si Si2 0.694016 0.426516 0.781944
Si Si3 0.805839 0.255493 0.552447
Si Si4 0.639915 0.116316 0.787093
Si Si5 0.871060 0.206367 0.361517
O O1 0.092982 0.437376 0.157470
O O2 0.078277 0.639306 0.125651
O O3 0.000000 0.522423 0.172538
O O4 0.046425 0.500000 0.000000
O O5 0.750000 0.455083 0.750000
O O6 0.689622 0.363926 0.888216
O O7 0.665566 0.535401 0.791383
O O8 0.673520 0.363315 0.684751
O O9 0.750000 0.250000 0.500000
O O10 0.817756 0.161570 0.632152
O O11 0.850445 0.253252 0.468016
O O12 0.615091 0.204535 0.718192
#
# Coordination Sequence:
#
# PCOD8263502 Si02
#       5
#    16  16  16  16  16
#     4  10  20  39  64  85 107 147 195 242 292 338
#     4  10  21  34  52  82 113 155 193 224 276 341
#     4  11  21  36  55  79 119 160 189 229 285 335
#     4  10  23  37  56  85 118 143 195 240 276 353
#     4  10  21  38  56  83 115 149 190 233 280 343
#
# _framework density 18.056417
#
# number of rings (size 3 to 8) (size 9 to 14) (size 15 to 20)
#    0.000    1.800    4.000    0.000    2.800    1.600 
#    0.000    0.000    0.000    0.000    0.000    5.600 
#    0.000    0.000    0.000    0.000    0.000    0.000 
#
# Total GULP energy -495802.413373 kJ/mol
# GULP energy per Si atom -12395.060334 kJ/mol
# Density = 1.801532 g / cm^3
# Si number density = 18.056417 Si / 1000 Ang^3
#
#
#
# Elastic Constant Matrix: (Units=GPa)
#
#
# Indices 1 2 3 4 5 6 
#
# 1 121.5895 66.1443 38.0882 0.0000 0.0000 0.0000
# 2 66.1443 121.3871 50.2220 0.0000 0.0000 0.0000
# 3 38.0882 50.2220 83.7918 0.0000 0.0000 0.0000
# 4 0.0000 0.0000 0.0000 30.1131 0.0000 0.0000
# 5 0.0000 0.0000 0.0000 0.0000 26.8295 0.0000
# 6 0.0000 0.0000 0.0000 0.0000 0.0000 17.1525
#
#
#
# Elastic Compliance Matrix: (Units=1/GPa)
#
#
# Indices 1 2 3 4 5 6 
#
# 1 0.011944 -0.005668 -0.002032 0.000000 0.000000 0.000000
# 2 -0.005668 0.013644 -0.005601 0.000000 0.000000 0.000000
# 3 -0.002032 -0.005601 0.016215 0.000000 0.000000 0.000000
# 4 0.000000 0.000000 0.000000 0.033208 0.000000 0.000000
# 5 0.000000 0.000000 0.000000 0.000000 0.037272 0.000000
# 6 0.000000 0.000000 0.000000 0.000000 0.000000 0.058301
#
#
# Mechanical properties :
#
#
# Convention : Reuss Voigt Hill
#
# Bulk Modulus (GPa) = 65.78609 70.63082 68.20846
# Shear Modulus (GPa) = 24.72134 26.30662 25.51398
#
# Velocity S-wave (km/s) = 3.70417 3.82109 3.76309
# Velocity P-wave (km/s) = 7.40319 7.65959 7.53248
#
# Compressibility (1/GPa) = 0.01520078
#
# Stress axis : x y z
#
# Youngs Moduli (GPa) = 83.72287 73.29279 61.66942
#
# Poissons Ratio (x) = 0.41539 0.12533
# Poissons Ratio (y) = 0.47450 0.34544
# Poissons Ratio (z) = 0.17016 0.41055
#
# Static dielectric constant tensor:
#      x y z
#    x 3.379110 0.000000 0.000000 
#    y 0.000000 3.371490 0.000000 
#    z 0.000000 0.000000 3.359230 
# 
# 
# High freq. dielectric constant tensor:
#      x y z
#    x 1.690950 0.000000 0.000000 
#    y 0.000000 1.707740 0.000000 
#    z 0.000000 0.000000 1.697010 
# 
# From -- ./inp_files/18998.got.cif
#   From: 2010.03.12/outbox.cif.g09.slc.cpg/sg64_10_cif.got.tgz:18998.got - 2010.04.10 20:19:32.
