data_PCOD8263309
_publ_section_title
;
Structure prediction by ZEFSAII (Michael W. Deem and Ramdas Pophale) SiO2 
 PCOD8263309
Probable space group: C M C A
;
_chemical_formula_sum "Si O2"
_cell_formula_units_Z 96
_cell_length_a 27.967440
_cell_length_b 18.419233
_cell_length_c 9.857576
_cell_angle_alpha 90.000000
_cell_angle_beta 90.000000
_cell_angle_gamma 90.000000
_cell_volume 5078.019810
_symmetry_space_group_name_H-M "C M C A"
_symmetry_group_IT_number 64
_symmetry_cell_setting 'orthorhombic'
loop_
_space_group_symop_operation_xyz
x,y,z
-x,1/2-y,1/2+z
x,-y,-z
-x,1/2+y,1/2-z
-x,-y,-z
x,1/2+y,1/2-z
-x,y,z
x,1/2-y,1/2+z
1/2+x,1/2+y,z
1/2-x,-y,1/2+z
1/2+x,1/2-y,-z
1/2-x,y,1/2-z
1/2-x,1/2-y,-z
1/2+x,y,1/2-z
1/2-x,1/2+y,z
1/2+x,-y,1/2+z
loop_
_atom_site_type_symbol
_atom_site_label
_atom_site_fract_x
_atom_site_fract_y
_atom_site_fract_z
Si Si1 0.109290 0.787410 0.902324
Si Si2 0.163252 0.914400 0.021205
Si Si3 0.734187 0.062416 0.901730
Si Si4 0.446808 0.713691 0.361998
Si Si5 0.553603 0.419813 0.459319
Si Si6 0.856751 0.358057 0.186474
O O1 0.065928 0.790196 0.796349
O O2 0.145665 0.727937 0.840367
O O3 0.137553 0.864416 0.907747
O O4 0.089072 0.763839 0.049813
O O5 0.220458 0.901796 0.021289
O O6 0.144021 0.883557 0.160675
O O7 0.151197 0.000000 0.000000
O O8 0.750000 0.035634 0.750000
O O9 0.689560 0.115769 0.895436
O O10 0.715169 0.000000 0.000000
O O11 0.500000 0.746673 0.375443
O O12 0.445421 0.630375 0.408366
O O13 0.569368 0.500000 0.500000
O O14 0.500000 0.419582 0.394384
O O15 0.591977 0.388871 0.356059
#
# Coordination Sequence:
#
# PCOD8263309 Si02
#       6
#    16  16  16  16  16  16
#     4  11  21  39  59  85 117 153 201 243 295 350
#     4  10  22  39  59  86 122 155 194 247 293 350
#     4   9  19  38  59  86 119 155 194 238 295 357
#     4  10  21  37  59  84 115 156 198 243 292 355
#     4   9  19  34  55  84 114 145 193 245 289 347
#     4  10  20  37  60  83 115 156 194 240 294 347
#
# _framework density 18.905007000000001
#
# number of rings (size 3 to 8) (size 9 to 14) (size 15 to 20)
#    0.000    2.167    1.667    1.000    2.333    1.333 
#    9.000    0.000    0.000    2.500    0.000    0.000 
#    0.000    0.000    0.000    0.000    0.000    0.000 
#
# Total GULP energy -594793.408884 kJ/mol
# GULP energy per Si atom -12391.529352 kJ/mol
# Density = 1.886198 g / cm^3
# Si number density = 18.905007 Si / 1000 Ang^3
#
#
#
# Elastic Constant Matrix: (Units=GPa)
#
#
# Indices 1 2 3 4 5 6 
#
# 1 92.9814 54.7212 32.7542 0.0000 0.0000 0.0000
# 2 54.7212 133.3247 33.1199 0.0000 0.0000 0.0000
# 3 32.7542 33.1199 65.7345 0.0000 0.0000 0.0000
# 4 0.0000 0.0000 0.0000 23.8464 0.0000 0.0000
# 5 0.0000 0.0000 0.0000 0.0000 29.2699 0.0000
# 6 0.0000 0.0000 0.0000 0.0000 0.0000 25.9545
#
#
#
# Elastic Compliance Matrix: (Units=1/GPa)
#
#
# Indices 1 2 3 4 5 6 
#
# 1 0.015591 -0.005109 -0.005195 0.000000 0.000000 0.000000
# 2 -0.005109 0.010248 -0.002618 0.000000 0.000000 0.000000
# 3 -0.005195 -0.002618 0.019120 0.000000 0.000000 0.000000
# 4 0.000000 0.000000 0.000000 0.041935 0.000000 0.000000
# 5 0.000000 0.000000 0.000000 0.000000 0.034165 0.000000
# 6 0.000000 0.000000 0.000000 0.000000 0.000000 0.038529
#
#
# Mechanical properties :
#
#
# Convention : Reuss Voigt Hill
#
# Bulk Modulus (GPa) = 52.31057 59.24792 55.77924
# Shear Modulus (GPa) = 26.06850 27.24387 26.65619
#
# Velocity S-wave (km/s) = 3.71741 3.80029 3.75908
# Velocity P-wave (km/s) = 6.79381 7.11787 6.95773
#
# Compressibility (1/GPa) = 0.01911660
#
# Stress axis : x y z
#
# Youngs Moduli (GPa) = 64.13776 97.58434 52.30115
#
# Poissons Ratio (x) = 0.49854 0.27170
# Poissons Ratio (y) = 0.32767 0.13690
# Poissons Ratio (z) = 0.33319 0.25543
#
# Static dielectric constant tensor:
#      x y z
#    x 3.682530 0.000000 0.000000 
#    y 0.000000 3.684600 0.000000 
#    z 0.000000 0.000000 3.411330 
# 
# 
# High freq. dielectric constant tensor:
#      x y z
#    x 1.744850 0.000000 0.000000 
#    y 0.000000 1.730610 0.000000 
#    z 0.000000 0.000000 1.727190 
# 
# From -- ./inp_files/19140.got.cif
#   From: 2010.03.12/outbox.cif.g09.slc.cpg/sg64_10_cif.got.tgz:19140.got - 2010.04.10 20:19:32.
