data_PCOD8263067
_publ_section_title
;
Structure prediction by ZEFSAII (Michael W. Deem and Ramdas Pophale) SiO2 
 PCOD8263067
Probable space group: C M C A
;
_chemical_formula_sum "Si O2"
_cell_formula_units_Z 112
_cell_length_a 14.287707
_cell_length_b 23.735696
_cell_length_c 17.583779
_cell_angle_alpha 90.000000
_cell_angle_beta 90.000000
_cell_angle_gamma 90.000000
_cell_volume 5963.163584
_symmetry_space_group_name_H-M "C M C A"
_symmetry_group_IT_number 64
_symmetry_cell_setting 'orthorhombic'
loop_
_space_group_symop_operation_xyz
x,y,z
-x,1/2-y,1/2+z
x,-y,-z
-x,1/2+y,1/2-z
-x,-y,-z
x,1/2+y,1/2-z
-x,y,z
x,1/2-y,1/2+z
1/2+x,1/2+y,z
1/2-x,-y,1/2+z
1/2+x,1/2-y,-z
1/2-x,y,1/2-z
1/2-x,1/2-y,-z
1/2+x,y,1/2-z
1/2-x,1/2+y,z
1/2+x,-y,1/2+z
loop_
_atom_site_type_symbol
_atom_site_label
_atom_site_fract_x
_atom_site_fract_y
_atom_site_fract_z
Si Si1 0.393532 0.283751 0.636189
Si Si2 0.606709 0.163876 0.579282
Si Si3 0.106625 0.042466 0.864454
Si Si4 0.729732 0.026018 0.074456
Si Si5 0.608706 0.147604 0.285334
Si Si6 0.106946 0.472072 0.779898
Si Si7 0.727816 0.844590 0.567619
O O1 0.500000 0.300939 0.614234
O O2 0.381748 0.216245 0.636927
O O3 0.368756 0.307752 0.719250
O O4 0.324251 0.309840 0.573392
O O5 0.500000 0.159415 0.549674
O O6 0.634426 0.107906 0.626083
O O7 0.672877 0.174281 0.507225
O O8 0.000000 0.031180 0.889691
O O9 0.169844 0.003998 0.918126
O O10 0.120436 0.024448 0.776804
O O11 0.666413 0.012966 0.146719
O O12 0.745065 0.091034 0.060971
O O13 0.679549 0.000000 0.000000
O O14 0.500000 0.145866 0.306862
O O15 0.643342 0.085501 0.259527
O O16 0.664695 0.167553 0.358827
O O17 0.000000 0.463615 0.805184
#
# Coordination Sequence:
#
# PCOD8263067 Si02
#       7
#    16  16  16  16  16  16  16
#     4  10  22  39  59  82 116 158 198 239 289 347
#     4  10  22  40  60  84 120 157 191 242 298 351
#     4  10  21  37  60  88 118 153 192 238 296 351
#     4  12  23  35  56  89 124 152 191 244 295 352
#     4  10  20  35  59  88 112 145 195 248 291 336
#     4  10  21  38  59  83 116 157 198 241 286 344
#     4  12  21  35  60  90 118 148 196 246 297 345
#
# _framework density 18.781976
#
# number of rings (size 3 to 8) (size 9 to 14) (size 15 to 20)
#    0.000    1.429    4.286    1.714    0.000    1.143 
#    0.000    2.857    0.000    0.000    0.000    0.000 
#    0.000    0.000    0.000    0.000    0.000    0.000 
#
# Total GULP energy -694552.498079 kJ/mol
# GULP energy per Si atom -12402.723180 kJ/mol
# Density = 1.873923 g / cm^3
# Si number density = 18.781976 Si / 1000 Ang^3
#
#
#
# Elastic Constant Matrix: (Units=GPa)
#
#
# Indices 1 2 3 4 5 6 
#
# 1 70.2981 32.0977 37.4782 0.0000 0.0000 0.0000
# 2 32.0977 108.7227 38.9603 0.0000 0.0000 0.0000
# 3 37.4782 38.9603 101.6388 0.0000 0.0000 0.0000
# 4 0.0000 0.0000 0.0000 22.8141 0.0000 0.0000
# 5 0.0000 0.0000 0.0000 0.0000 27.1384 0.0000
# 6 0.0000 0.0000 0.0000 0.0000 0.0000 23.4715
#
#
#
# Elastic Compliance Matrix: (Units=1/GPa)
#
#
# Indices 1 2 3 4 5 6 
#
# 1 0.018823 -0.003559 -0.005577 0.000000 0.000000 0.000000
# 2 -0.003559 0.011335 -0.003033 0.000000 0.000000 0.000000
# 3 -0.005577 -0.003033 0.013058 0.000000 0.000000 0.000000
# 4 0.000000 0.000000 0.000000 0.043833 0.000000 0.000000
# 5 0.000000 0.000000 0.000000 0.000000 0.036848 0.000000
# 6 0.000000 0.000000 0.000000 0.000000 0.000000 0.042605
#
#
# Mechanical properties :
#
#
# Convention : Reuss Voigt Hill
#
# Bulk Modulus (GPa) = 52.96728 55.30354 54.13541
# Shear Modulus (GPa) = 25.36383 26.15967 25.76175
#
# Velocity S-wave (km/s) = 3.67881 3.73608 3.70756
# Velocity P-wave (km/s) = 6.80494 6.93686 6.87122
#
# Compressibility (1/GPa) = 0.01887958
#
# Stress axis : x y z
#
# Youngs Moduli (GPa) = 53.12608 88.22157 76.58358
#
# Poissons Ratio (x) = 0.31395 0.42708
# Poissons Ratio (y) = 0.18906 0.23226
# Poissons Ratio (z) = 0.29627 0.26755
#
# Static dielectric constant tensor:
#      x y z
#    x 3.634960 0.000000 0.000000 
#    y 0.000000 3.533060 0.000000 
#    z 0.000000 0.000000 3.407400 
# 
# 
# High freq. dielectric constant tensor:
#      x y z
#    x 1.738480 0.000000 0.000000 
#    y 0.000000 1.728160 0.000000 
#    z 0.000000 0.000000 1.719330 
# 
# From -- ./inp_files/24207.got.cif
#   From: 2010.03.12/outbox.cif.g09.slc.cpg/sg64_13_cif.got.tgz:24207.got - 2010.04.10 20:19:32.
