data_PCOD8263263
_publ_section_title
;
Structure prediction by ZEFSAII (Michael W. Deem and Ramdas Pophale) SiO2 
 PCOD8263263
Probable space group: C M C A
;
_chemical_formula_sum "Si O2"
_cell_formula_units_Z 112
_cell_length_a 14.286312
_cell_length_b 32.232703
_cell_length_c 11.496245
_cell_angle_alpha 90.000000
_cell_angle_beta 90.000000
_cell_angle_gamma 90.000000
_cell_volume 5293.865067
_symmetry_space_group_name_H-M "C M C A"
_symmetry_group_IT_number 64
_symmetry_cell_setting 'orthorhombic'
loop_
_space_group_symop_operation_xyz
x,y,z
-x,1/2-y,1/2+z
x,-y,-z
-x,1/2+y,1/2-z
-x,-y,-z
x,1/2+y,1/2-z
-x,y,z
x,1/2-y,1/2+z
1/2+x,1/2+y,z
1/2-x,-y,1/2+z
1/2+x,1/2-y,-z
1/2-x,y,1/2-z
1/2-x,1/2-y,-z
1/2+x,y,1/2-z
1/2-x,1/2+y,z
1/2+x,-y,1/2+z
loop_
_atom_site_type_symbol
_atom_site_label
_atom_site_fract_x
_atom_site_fract_y
_atom_site_fract_z
Si Si1 0.780066 0.957063 0.065072
Si Si2 0.391047 0.934548 0.214745
Si Si3 0.782318 0.871452 0.967815
Si Si4 0.656951 0.773336 0.175212
Si Si5 0.107645 0.174119 0.466593
Si Si6 0.601682 0.348307 0.181086
Si Si7 0.602991 0.182960 0.300365
O O1 0.673903 0.950783 0.110338
O O2 0.856567 0.956973 0.167482
O O3 0.806453 0.920151 0.974699
O O4 0.788407 0.000000 0.000000
O O5 0.500000 0.945368 0.190788
O O6 0.373653 0.885057 0.227741
O O7 0.669199 0.867897 0.970806
O O8 0.823374 0.850199 0.851361
O O9 0.822755 0.846674 0.079123
O O10 0.750000 0.767672 0.250000
O O11 0.594665 0.805138 0.250345
O O12 0.612149 0.728918 0.147778
O O13 0.662661 0.792546 0.045877
O O14 0.114555 0.190648 0.336247
O O15 0.000000 0.165703 0.505488
O O16 0.500000 0.357422 0.125151
O O17 0.500000 0.165487 0.330114
#
# Coordination Sequence:
#
# PCOD8263263 Si02
#       7
#    16  16  16  16  16  16  16
#     4  10  22  40  67  97 128 164 214 269 329 391
#     4   9  20  40  64  96 133 165 211 271 324 381
#     4  11  22  42  66  89 124 169 212 262 323 390
#     4  12  23  38  63  92 127 168 219 269 315 365
#     4  11  24  42  60  89 131 172 215 265 316 379
#     4  10  20  36  64  94 121 162 214 267 315 369
#     4  11  26  43  60  90 131 173 217 260 314 384
#
# _framework density 21.156563999999999
#
# number of rings (size 3 to 8) (size 9 to 14) (size 15 to 20)
#    0.000    1.429    1.429    3.857    4.000    4.000 
#    5.143    0.000    0.000    0.000    0.000    0.000 
#    0.000    0.000    0.000    0.000    0.000    0.000 
#
# Total GULP energy -694140.666998 kJ/mol
# GULP energy per Si atom -12395.369054 kJ/mol
# Density = 2.110841 g / cm^3
# Si number density = 21.156564 Si / 1000 Ang^3
#
#
#
# Elastic Constant Matrix: (Units=GPa)
#
#
# Indices 1 2 3 4 5 6 
#
# 1 119.4056 37.6187 34.8174 0.0000 0.0000 0.0000
# 2 37.6187 126.7748 44.0383 0.0000 0.0000 0.0000
# 3 34.8174 44.0383 82.3806 0.0000 0.0000 0.0000
# 4 0.0000 0.0000 0.0000 29.3297 0.0000 0.0000
# 5 0.0000 0.0000 0.0000 0.0000 27.2883 0.0000
# 6 0.0000 0.0000 0.0000 0.0000 0.0000 18.4054
#
#
#
# Elastic Compliance Matrix: (Units=1/GPa)
#
#
# Indices 1 2 3 4 5 6 
#
# 1 0.009882 -0.001819 -0.003204 0.000000 0.000000 0.000000
# 2 -0.001819 0.010022 -0.004588 0.000000 0.000000 0.000000
# 3 -0.003204 -0.004588 0.015946 0.000000 0.000000 0.000000
# 4 0.000000 0.000000 0.000000 0.034095 0.000000 0.000000
# 5 0.000000 0.000000 0.000000 0.000000 0.036646 0.000000
# 6 0.000000 0.000000 0.000000 0.000000 0.000000 0.054332
#
#
# Mechanical properties :
#
#
# Convention : Reuss Voigt Hill
#
# Bulk Modulus (GPa) = 60.14638 62.38997 61.26818
# Shear Modulus (GPa) = 26.92684 29.14380 28.03532
#
# Velocity S-wave (km/s) = 3.57142 3.71554 3.64419
# Velocity P-wave (km/s) = 6.74519 6.92536 6.83587
#
# Compressibility (1/GPa) = 0.01662610
#
# Stress axis : x y z
#
# Youngs Moduli (GPa) = 101.19108 99.78268 62.71261
#
# Poissons Ratio (x) = 0.18155 0.20093
# Poissons Ratio (y) = 0.18411 0.28775
# Poissons Ratio (z) = 0.32422 0.45784
#
# Static dielectric constant tensor:
#      x y z
#    x 4.021760 0.000000 0.000000 
#    y 0.000000 3.566010 0.000000 
#    z 0.000000 0.000000 3.748260 
# 
# 
# High freq. dielectric constant tensor:
#      x y z
#    x 1.843910 0.000000 0.000000 
#    y 0.000000 1.802100 0.000000 
#    z 0.000000 0.000000 1.825840 
# 
# From -- ./inp_files/14936.got.cif
#   From: 2010.03.12/outbox.cif.g09.slc.cpg/sg64_8_cif.got.tgz:14936.got - 2010.04.10 20:19:32.
