data_PCOD8263857
_publ_section_title
;
Structure prediction by ZEFSAII (Michael W. Deem and Ramdas Pophale) SiO2 
 PCOD8263857
Probable space group: C M C A
;
_chemical_formula_sum "Si O2"
_cell_formula_units_Z 64
_cell_length_a 18.512772
_cell_length_b 13.483439
_cell_length_c 11.983543
_cell_angle_alpha 90.000000
_cell_angle_beta 90.000000
_cell_angle_gamma 90.000000
_cell_volume 2991.282056
_symmetry_space_group_name_H-M "C M C A"
_symmetry_group_IT_number 64
_symmetry_cell_setting 'orthorhombic'
loop_
_space_group_symop_operation_xyz
x,y,z
-x,1/2-y,1/2+z
x,-y,-z
-x,1/2+y,1/2-z
-x,-y,-z
x,1/2+y,1/2-z
-x,y,z
x,1/2-y,1/2+z
1/2+x,1/2+y,z
1/2-x,-y,1/2+z
1/2+x,1/2-y,-z
1/2-x,y,1/2-z
1/2-x,1/2-y,-z
1/2+x,y,1/2-z
1/2-x,1/2+y,z
1/2+x,-y,1/2+z
loop_
_atom_site_type_symbol
_atom_site_label
_atom_site_fract_x
_atom_site_fract_y
_atom_site_fract_z
Si Si1 0.309170 0.892164 0.544335
Si Si2 0.920997 0.419107 0.095216
Si Si3 0.161195 0.298011 0.929513
Si Si4 0.915129 0.587384 0.254421
O O1 0.237939 0.846926 0.602344
O O2 0.332214 0.820792 0.441222
O O3 0.374601 0.898178 0.630264
O O4 0.289073 0.000000 0.500000
O O5 0.893702 0.478948 0.204589
O O6 0.000000 0.370246 0.117748
O O7 0.930092 0.500000 0.000000
O O8 0.864634 0.336643 0.052702
O O9 0.105194 0.324565 0.832036
O O10 0.000000 0.594166 0.277035
#
# Coordination Sequence:
#
# PCOD8263857 Si02
#       4
#    16  16  16  16
#     4  11  24  39  57  86 120 149 187 242 293 335
#     4   8  15  32  59  85 107 140 189 233 269 325
#     4  10  21  39  62  84 112 155 196 231 280 346
#     4  10  21  38  61  87 116 151 191 237 286 337
#
# _framework density 21.395509000000001
#
# number of rings (size 3 to 8) (size 9 to 14) (size 15 to 20)
#    0.000    2.250    0.000    5.250    0.000    4.500 
#    0.000    7.500    0.000    0.000    0.000    0.000 
#    0.000    0.000    0.000    0.000    0.000    0.000 
#
# Total GULP energy -396706.643628 kJ/mol
# GULP energy per Si atom -12397.082613 kJ/mol
# Density = 2.134681 g / cm^3
# Si number density = 21.395509 Si / 1000 Ang^3
#
#
#
# Elastic Constant Matrix: (Units=GPa)
#
#
# Indices 1 2 3 4 5 6 
#
# 1 99.9472 16.5303 29.3831 0.0000 0.0000 0.0000
# 2 16.5303 103.8699 18.2246 0.0000 0.0000 0.0000
# 3 29.3831 18.2246 61.3396 0.0000 0.0000 0.0000
# 4 0.0000 0.0000 0.0000 15.8917 0.0000 0.0000
# 5 0.0000 0.0000 0.0000 0.0000 30.8555 0.0000
# 6 0.0000 0.0000 0.0000 0.0000 0.0000 18.6260
#
#
#
# Elastic Compliance Matrix: (Units=1/GPa)
#
#
# Indices 1 2 3 4 5 6 
#
# 1 0.011730 -0.000929 -0.005343 0.000000 0.000000 0.000000
# 2 -0.000929 0.010231 -0.002594 0.000000 0.000000 0.000000
# 3 -0.005343 -0.002594 0.019633 0.000000 0.000000 0.000000
# 4 0.000000 0.000000 0.000000 0.062926 0.000000 0.000000
# 5 0.000000 0.000000 0.000000 0.000000 0.032409 0.000000
# 6 0.000000 0.000000 0.000000 0.000000 0.000000 0.053688
#
#
# Mechanical properties :
#
#
# Convention : Reuss Voigt Hill
#
# Bulk Modulus (GPa) = 41.91091 43.71476 42.81284
# Shear Modulus (GPa) = 23.11579 26.47591 24.79585
#
# Velocity S-wave (km/s) = 3.29052 3.52156 3.40800
# Velocity P-wave (km/s) = 5.83677 6.08369 5.96151
#
# Compressibility (1/GPa) = 0.02386013
#
# Stress axis : x y z
#
# Youngs Moduli (GPa) = 85.25403 97.74665 50.93522
#
# Poissons Ratio (x) = 0.09084 0.27213
# Poissons Ratio (y) = 0.07923 0.13215
# Poissons Ratio (z) = 0.45548 0.25360
#
# Static dielectric constant tensor:
#      x y z
#    x 3.939050 0.000000 0.000000 
#    y 0.000000 3.980630 0.000000 
#    z 0.000000 0.000000 3.666510 
# 
# 
# High freq. dielectric constant tensor:
#      x y z
#    x 1.850040 0.000000 0.000000 
#    y 0.000000 1.829810 0.000000 
#    z 0.000000 0.000000 1.811400 
# 
# From -- ./inp_files/15477.got.cif
#   From: 2010.03.12/outbox.cif.g09.slc.cpg/sg64_8_cif.got.tgz:15477.got - 2010.04.10 20:19:32.
