data_PCOD8263443
_publ_section_title
;
Structure prediction by ZEFSAII (Michael W. Deem and Ramdas Pophale) SiO2 
 PCOD8263443
Probable space group: C M C A
;
_chemical_formula_sum "Si O2"
_cell_formula_units_Z 72
_cell_length_a 28.481919
_cell_length_b 8.875440
_cell_length_c 13.914916
_cell_angle_alpha 90.000000
_cell_angle_beta 90.000000
_cell_angle_gamma 90.000000
_cell_volume 3517.545537
_symmetry_space_group_name_H-M "C M C A"
_symmetry_group_IT_number 64
_symmetry_cell_setting 'orthorhombic'
loop_
_space_group_symop_operation_xyz
x,y,z
-x,1/2-y,1/2+z
x,-y,-z
-x,1/2+y,1/2-z
-x,-y,-z
x,1/2+y,1/2-z
-x,y,z
x,1/2-y,1/2+z
1/2+x,1/2+y,z
1/2-x,-y,1/2+z
1/2+x,1/2-y,-z
1/2-x,y,1/2-z
1/2-x,1/2-y,-z
1/2+x,y,1/2-z
1/2-x,1/2+y,z
1/2+x,-y,1/2+z
loop_
_atom_site_type_symbol
_atom_site_label
_atom_site_fract_x
_atom_site_fract_y
_atom_site_fract_z
Si Si1 0.312906 0.341077 0.328781
Si Si2 0.250000 0.913814 0.750000
Si Si3 0.886923 0.669246 0.987169
Si Si4 0.896240 0.671613 0.683379
Si Si5 0.055149 0.857142 0.841116
O O1 0.285857 0.185474 0.311575
O O2 0.277480 0.481760 0.326346
O O3 0.337134 0.330150 0.432305
O O4 0.351578 0.369752 0.247194
O O5 0.877653 0.742426 0.090092
O O6 0.905691 0.500000 0.000000
O O7 0.926825 0.758386 0.929876
O O8 0.921930 0.520363 0.651933
O O9 0.932189 0.778610 0.740452
O O10 0.000000 0.874820 0.850030
#
# Coordination Sequence:
#
# PCOD8263443 Si02
#       5
#    16   8  16  16  16
#     4  10  21  40  60  88 119 158 201 246 304 358
#     4  10  20  38  64  86 120 154 198 258 298 352
#     4  11  23  40  62  88 123 163 201 244 301 362
#     4  11  22  41  64  87 124 164 199 247 305 361
#     4  11  24  40  63  93 121 158 205 250 297 354
#
# _framework density 20.468819
#
# number of rings (size 3 to 8) (size 9 to 14) (size 15 to 20)
#    0.000    1.333    0.000    8.000    0.000    3.111 
#    0.000   12.222    0.000    0.000    0.000    0.000 
#    0.000    0.000    0.000    0.000    0.000    0.000 
#
# Total GULP energy -446635.353641 kJ/mol
# GULP energy per Si atom -12406.537601 kJ/mol
# Density = 2.042223 g / cm^3
# Si number density = 20.468819 Si / 1000 Ang^3
#
#
#
# Elastic Constant Matrix: (Units=GPa)
#
#
# Indices 1 2 3 4 5 6 
#
# 1 99.0996 17.2134 -3.0199 0.0000 0.0000 0.0000
# 2 17.2134 110.0691 -1.7071 0.0000 0.0000 0.0000
# 3 -3.0199 -1.7071 71.6655 0.0000 0.0000 0.0000
# 4 0.0000 0.0000 0.0000 35.6160 0.0000 0.0000
# 5 0.0000 0.0000 0.0000 0.0000 19.7951 0.0000
# 6 0.0000 0.0000 0.0000 0.0000 0.0000 28.8344
#
#
#
# Elastic Compliance Matrix: (Units=1/GPa)
#
#
# Indices 1 2 3 4 5 6 
#
# 1 0.010384 -0.001618 0.000399 0.000000 0.000000 0.000000
# 2 -0.001618 0.009341 0.000154 0.000000 0.000000 0.000000
# 3 0.000399 0.000154 0.013974 0.000000 0.000000 0.000000
# 4 0.000000 0.000000 0.000000 0.028077 0.000000 0.000000
# 5 0.000000 0.000000 0.000000 0.000000 0.050517 0.000000
# 6 0.000000 0.000000 0.000000 0.000000 0.000000 0.034681
#
#
# Mechanical properties :
#
#
# Convention : Reuss Voigt Hill
#
# Bulk Modulus (GPa) = 31.67556 33.97853 32.82704
# Shear Modulus (GPa) = 31.32313 34.73896 33.03104
#
# Velocity S-wave (km/s) = 3.91613 4.12414 4.02148
# Velocity P-wave (km/s) = 5.99639 6.27010 6.13477
#
# Compressibility (1/GPa) = 0.03157008
#
# Stress axis : x y z
#
# Youngs Moduli (GPa) = 96.30182 107.05965 71.56043
#
# Poissons Ratio (x) = 0.17319 -0.02856
# Poissons Ratio (y) = 0.15579 -0.01104
# Poissons Ratio (z) = -0.03843 -0.01652
#
# Static dielectric constant tensor:
#      x y z
#    x 3.748210 0.000000 0.000000 
#    y 0.000000 3.984490 0.000000 
#    z 0.000000 0.000000 3.825170 
# 
# 
# High freq. dielectric constant tensor:
#      x y z
#    x 1.802610 0.000000 0.000000 
#    y 0.000000 1.824750 0.000000 
#    z 0.000000 0.000000 1.796510 
# 
# From -- ./inp_files/27814.got.cif
#   From: 2010.03.12/outbox.cif.g09.slc.cpg/sg64_14_cif.got.tgz:27814.got - 2010.04.10 20:19:32.
