data_PCOD8263863
_publ_section_title
;
Structure prediction by ZEFSAII (Michael W. Deem and Ramdas Pophale) SiO2 
 PCOD8263863
Probable space group: C M C A
;
_chemical_formula_sum "Si O2"
_cell_formula_units_Z 96
_cell_length_a 8.630508
_cell_length_b 23.486234
_cell_length_c 25.224869
_cell_angle_alpha 90.000000
_cell_angle_beta 90.000000
_cell_angle_gamma 90.000000
_cell_volume 5113.033787
_symmetry_space_group_name_H-M "C M C A"
_symmetry_group_IT_number 64
_symmetry_cell_setting 'orthorhombic'
loop_
_space_group_symop_operation_xyz
x,y,z
-x,1/2-y,1/2+z
x,-y,-z
-x,1/2+y,1/2-z
-x,-y,-z
x,1/2+y,1/2-z
-x,y,z
x,1/2-y,1/2+z
1/2+x,1/2+y,z
1/2-x,-y,1/2+z
1/2+x,1/2-y,-z
1/2-x,y,1/2-z
1/2-x,1/2-y,-z
1/2+x,y,1/2-z
1/2-x,1/2+y,z
1/2+x,-y,1/2+z
loop_
_atom_site_type_symbol
_atom_site_label
_atom_site_fract_x
_atom_site_fract_y
_atom_site_fract_z
Si Si1 0.679089 0.251722 0.057997
Si Si2 0.184486 0.935959 0.807606
Si Si3 0.319504 0.864570 0.096334
Si Si4 0.180566 0.065464 0.998358
Si Si5 0.183648 0.942601 0.306578
Si Si6 0.681253 0.372225 0.596549
O O1 0.500000 0.260642 0.048785
O O2 0.739201 0.303519 0.093486
O O3 0.716916 0.194315 0.089579
O O4 0.750000 0.250000 0.000000
O O5 0.250000 0.921942 0.750000
O O6 0.259202 0.889198 0.845731
O O7 0.000000 0.931958 0.808385
O O8 0.236946 0.998909 0.825496
O O9 0.500000 0.853445 0.093935
O O10 0.276344 0.904089 0.047252
O O11 0.270834 0.894438 0.151170
O O12 0.000000 0.073130 0.986185
O O13 0.220584 0.092299 0.054562
O O14 0.230058 0.000000 0.000000
O O15 0.250000 0.922816 0.250000
O O16 0.000000 0.952365 0.302619
O O17 0.500000 0.385857 0.589611
#
# Coordination Sequence:
#
# PCOD8263863 Si02
#       6
#    16  16  16  16  16  16
#     4  11  23  39  61  85 115 155 198 242 291 350
#     4  11  22  38  62  89 119 155 194 240 292 350
#     4  11  23  38  58  85 117 155 196 240 292 348
#     4  11  23  36  55  85 117 151 191 239 294 350
#     4  10  21  38  61  88 119 155 195 240 292 350
#     4  11  23  39  59  85 116 153 195 241 293 348
#
# _framework density 18.775545000000001
#
# number of rings (size 3 to 8) (size 9 to 14) (size 15 to 20)
#    0.000    1.167    1.667    6.000    0.000    8.667 
#    0.000    0.833    0.000    2.000    0.000    0.000 
#    0.000    0.000    0.000    0.000    0.000    0.000 
#
# Total GULP energy -595464.077359 kJ/mol
# GULP energy per Si atom -12405.501612 kJ/mol
# Density = 1.873281 g / cm^3
# Si number density = 18.775545 Si / 1000 Ang^3
#
#
#
# Elastic Constant Matrix: (Units=GPa)
#
#
# Indices 1 2 3 4 5 6 
#
# 1 64.5328 56.0486 35.8959 0.0000 0.0000 0.0000
# 2 56.0486 146.4423 77.6537 0.0000 0.0000 0.0000
# 3 35.8959 77.6537 110.7176 0.0000 0.0000 0.0000
# 4 0.0000 0.0000 0.0000 -38.3525 0.0000 0.0000
# 5 0.0000 0.0000 0.0000 0.0000 34.7434 0.0000
# 6 0.0000 0.0000 0.0000 0.0000 0.0000 14.5067
#
#
#
# Elastic Compliance Matrix: (Units=1/GPa)
#
#
# Indices 1 2 3 4 5 6 
#
# 1 0.023511 -0.007892 -0.002088 0.000000 0.000000 0.000000
# 2 -0.007892 0.013521 -0.006925 0.000000 0.000000 0.000000
# 3 -0.002088 -0.006925 0.014566 0.000000 0.000000 0.000000
# 4 0.000000 0.000000 0.000000 -0.026074 0.000000 0.000000
# 5 0.000000 0.000000 0.000000 0.000000 0.028782 0.000000
# 6 0.000000 0.000000 0.000000 0.000000 0.000000 0.068934
#
#
# Mechanical properties :
#
#
# Convention : Reuss Voigt Hill
#
# Bulk Modulus (GPa) = 56.21146 73.43214 64.82180
# Shear Modulus (GPa) = 30.67904 12.31915 21.49910
#
# Velocity S-wave (km/s) = 4.04665 2.56428 3.38754
# Velocity P-wave (km/s) = 7.19982 6.92552 7.06400
#
# Compressibility (1/GPa) = 0.01778997
#
# Stress axis : x y z
#
# Youngs Moduli (GPa) = 42.53271 73.95981 68.65520
#
# Poissons Ratio (x) = 0.58365 0.14334
# Poissons Ratio (y) = 0.33565 0.47541
# Poissons Ratio (z) = 0.08880 0.51214
#
# Static dielectric constant tensor:
#      x y z
#    x 3.658390 0.000000 0.000000 
#    y 0.000000 3.594630 0.000000 
#    z 0.000000 0.000000 3.533570 
# 
# 
# High freq. dielectric constant tensor:
#      x y z
#    x 1.749480 0.000000 0.000000 
#    y 0.000000 1.732750 0.000000 
#    z 0.000000 0.000000 1.731910 
# 
# From -- ./inp_files/43047.got.cif
#   From: 2010.03.12/outbox.cif.g09.slc.cpg/sg64_22_cif.got.tgz:43047.got - 2010.04.10 20:19:32.
