data_PCOD8263779
_publ_section_title
;
Structure prediction by ZEFSAII (Michael W. Deem and Ramdas Pophale) SiO2 
 PCOD8263779
Probable space group: C M C A
;
_chemical_formula_sum "Si O2"
_cell_formula_units_Z 56
_cell_length_a 22.210464
_cell_length_b 8.772508
_cell_length_c 12.815354
_cell_angle_alpha 90.000000
_cell_angle_beta 90.000000
_cell_angle_gamma 90.000000
_cell_volume 2496.962452
_symmetry_space_group_name_H-M "C M C A"
_symmetry_group_IT_number 64
_symmetry_cell_setting 'orthorhombic'
loop_
_space_group_symop_operation_xyz
x,y,z
-x,1/2-y,1/2+z
x,-y,-z
-x,1/2+y,1/2-z
-x,-y,-z
x,1/2+y,1/2-z
-x,y,z
x,1/2-y,1/2+z
1/2+x,1/2+y,z
1/2-x,-y,1/2+z
1/2+x,1/2-y,-z
1/2-x,y,1/2-z
1/2-x,1/2-y,-z
1/2+x,y,1/2-z
1/2-x,1/2+y,z
1/2+x,-y,1/2+z
loop_
_atom_site_type_symbol
_atom_site_label
_atom_site_fract_x
_atom_site_fract_y
_atom_site_fract_z
Si Si1 0.930338 0.466009 0.888157
Si Si2 0.250000 0.256197 0.750000
Si Si3 0.815532 0.994683 0.118721
Si Si4 0.070153 0.638330 0.686720
O O1 0.907038 0.308993 0.837458
O O2 0.918209 0.606247 0.809958
O O3 0.000000 0.441842 0.909573
O O4 0.898156 0.500000 0.000000
O O5 0.205168 0.356314 0.680210
O O6 0.210608 0.155321 0.827177
O O7 0.888531 0.979669 0.121635
O O8 0.792862 0.000000 0.000000
O O9 0.000000 0.608225 0.658672
#
# Coordination Sequence:
#
# PCOD8263779 Si02
#       4
#    16   8  16  16
#     4   9  19  36  56  82 123 166 198 237 292 356
#     4  10  24  44  64  90 120 158 214 258 292 354
#     4  11  23  42  66  91 122 162 203 253 307 356
#     4  10  21  37  60  93 126 157 199 247 303 372
#
# _framework density 22.427251999999999
#
# number of rings (size 3 to 8) (size 9 to 14) (size 15 to 20)
#    0.000    2.000    0.000    2.571    0.000    5.143 
#    0.000   12.857    0.000    0.000    0.000    0.000 
#    0.000    1.143    0.000    0.000    0.000    0.000 
#
# Total GULP energy -347112.732411 kJ/mol
# GULP energy per Si atom -12396.883300 kJ/mol
# Density = 2.237621 g / cm^3
# Si number density = 22.427252 Si / 1000 Ang^3
#
#
#
# Elastic Constant Matrix: (Units=GPa)
#
#
# Indices 1 2 3 4 5 6 
#
# 1 85.1590 49.2187 47.4397 0.0000 0.0000 0.0000
# 2 49.2187 122.3218 84.6591 0.0000 0.0000 0.0000
# 3 47.4397 84.6591 187.3114 0.0000 0.0000 0.0000
# 4 0.0000 0.0000 0.0000 21.5527 0.0000 0.0000
# 5 0.0000 0.0000 0.0000 0.0000 21.2870 0.0000
# 6 0.0000 0.0000 0.0000 0.0000 0.0000 16.3508
#
#
#
# Elastic Compliance Matrix: (Units=1/GPa)
#
#
# Indices 1 2 3 4 5 6 
#
# 1 0.015634 -0.005166 -0.001625 0.000000 0.000000 0.000000
# 2 -0.005166 0.013604 -0.004840 0.000000 0.000000 0.000000
# 3 -0.001625 -0.004840 0.007938 0.000000 0.000000 0.000000
# 4 0.000000 0.000000 0.000000 0.046398 0.000000 0.000000
# 5 0.000000 0.000000 0.000000 0.000000 0.046977 0.000000
# 6 0.000000 0.000000 0.000000 0.000000 0.000000 0.061159
#
#
# Mechanical properties :
#
#
# Convention : Reuss Voigt Hill
#
# Bulk Modulus (GPa) = 71.87262 84.15858 78.01560
# Shear Modulus (GPa) = 22.76784 26.06975 24.41880
#
# Velocity S-wave (km/s) = 3.18966 3.41312 3.30328
# Velocity P-wave (km/s) = 6.75883 7.28966 7.02926
#
# Compressibility (1/GPa) = 0.01391350
#
# Stress axis : x y z
#
# Youngs Moduli (GPa) = 63.96498 73.50967 125.98136
#
# Poissons Ratio (x) = 0.37976 0.20466
# Poissons Ratio (y) = 0.33045 0.60975
# Poissons Ratio (z) = 0.10391 0.35579
#
# Static dielectric constant tensor:
#      x y z
#    x 4.008000 0.000000 0.000000 
#    y 0.000000 4.051670 0.000000 
#    z 0.000000 0.000000 4.206100 
# 
# 
# High freq. dielectric constant tensor:
#      x y z
#    x 1.875310 0.000000 0.000000 
#    y 0.000000 1.884070 0.000000 
#    z 0.000000 0.000000 1.884870 
# 
# From -- ./inp_files/18832.got.cif
#   From: 2010.03.12/outbox.cif.g09.slc.cpg/sg64_10_cif.got.tgz:18832.got - 2010.04.10 20:19:32.
