data_PCOD8263892
_publ_section_title
;
Structure prediction by ZEFSAII (Michael W. Deem and Ramdas Pophale) SiO2 
 PCOD8263892
Probable space group: C M C A
;
_chemical_formula_sum "Si O2"
_cell_formula_units_Z 96
_cell_length_a 25.755715
_cell_length_b 19.526916
_cell_length_c 9.566082
_cell_angle_alpha 90.000000
_cell_angle_beta 90.000000
_cell_angle_gamma 90.000000
_cell_volume 4811.066591
_symmetry_space_group_name_H-M "C M C A"
_symmetry_group_IT_number 64
_symmetry_cell_setting 'orthorhombic'
loop_
_space_group_symop_operation_xyz
x,y,z
-x,1/2-y,1/2+z
x,-y,-z
-x,1/2+y,1/2-z
-x,-y,-z
x,1/2+y,1/2-z
-x,y,z
x,1/2-y,1/2+z
1/2+x,1/2+y,z
1/2-x,-y,1/2+z
1/2+x,1/2-y,-z
1/2-x,y,1/2-z
1/2-x,1/2-y,-z
1/2+x,y,1/2-z
1/2-x,1/2+y,z
1/2+x,-y,1/2+z
loop_
_atom_site_type_symbol
_atom_site_label
_atom_site_fract_x
_atom_site_fract_y
_atom_site_fract_z
Si Si1 0.443550 0.994684 0.666894
Si Si2 0.439964 0.855666 0.351438
Si Si3 0.756638 0.931338 0.914903
Si Si4 0.859001 0.755042 0.230755
Si Si5 0.701625 0.297672 0.482881
Si Si6 0.370345 0.383510 0.885288
O O1 0.500000 0.967425 0.718965
O O2 0.397015 0.943739 0.708897
O O3 0.444307 0.000000 0.500000
O O4 0.434264 0.071195 0.728376
O O5 0.500000 0.837172 0.377782
O O6 0.413611 0.795397 0.261107
O O7 0.409970 0.860386 0.496547
O O8 0.750000 0.944421 0.750000
O O9 0.715448 0.873732 0.963975
O O10 0.815633 0.908678 0.949177
O O11 0.743730 0.000000 0.000000
O O12 0.841915 0.743533 0.071016
O O13 0.817318 0.798782 0.321659
O O14 0.862025 0.678707 0.284091
O O15 0.750000 0.250000 0.500000
#
# Coordination Sequence:
#
# PCOD8263892 Si02
#       6
#    16  16  16  16  16  16
#     4   8  16  32  56  85 117 152 198 253 303 360
#     4  10  21  38  62  97 125 158 210 261 319 385
#     4  12  25  41  62  96 132 169 221 269 317 388
#     4  12  23  40  65  90 126 167 208 264 317 386
#     4  12  23  43  63  88 127 169 213 261 322 377
#     4  11  20  37  64  88 127 160 213 260 314 370
#
# _framework density 19.953996
#
# number of rings (size 3 to 8) (size 9 to 14) (size 15 to 20)
#    0.000    1.167    5.000    3.500    0.000    5.333 
#    0.000    0.000    0.000    0.000    0.000    2.333 
#    0.000    0.000    0.000    0.000    0.000    0.000 
#
# Total GULP energy -594920.399431 kJ/mol
# GULP energy per Si atom -12394.174988 kJ/mol
# Density = 1.990858 g / cm^3
# Si number density = 19.953996 Si / 1000 Ang^3
#
#
#
# Elastic Constant Matrix: (Units=GPa)
#
#
# Indices 1 2 3 4 5 6 
#
# 1 118.5330 47.4368 11.5196 0.0000 0.0000 0.0000
# 2 47.4368 126.9484 22.5027 0.0000 0.0000 0.0000
# 3 11.5196 22.5027 36.7071 0.0000 0.0000 0.0000
# 4 0.0000 0.0000 0.0000 20.8996 0.0000 0.0000
# 5 0.0000 0.0000 0.0000 0.0000 18.9366 0.0000
# 6 0.0000 0.0000 0.0000 0.0000 0.0000 43.6490
#
#
#
# Elastic Compliance Matrix: (Units=1/GPa)
#
#
# Indices 1 2 3 4 5 6 
#
# 1 0.009949 -0.003550 -0.000946 0.000000 0.000000 0.000000
# 2 -0.003550 0.010104 -0.005080 0.000000 0.000000 0.000000
# 3 -0.000946 -0.005080 0.030654 0.000000 0.000000 0.000000
# 4 0.000000 0.000000 0.000000 0.047848 0.000000 0.000000
# 5 0.000000 0.000000 0.000000 0.000000 0.052808 0.000000
# 6 0.000000 0.000000 0.000000 0.000000 0.000000 0.022910
#
#
# Mechanical properties :
#
#
# Convention : Reuss Voigt Hill
#
# Bulk Modulus (GPa) = 31.69082 49.45630 40.57356
# Shear Modulus (GPa) = 24.51660 30.07901 27.29780
#
# Velocity S-wave (km/s) = 3.50902 3.88676 3.70271
# Velocity P-wave (km/s) = 5.68631 6.70683 6.21754
#
# Compressibility (1/GPa) = 0.03155488
#
# Stress axis : x y z
#
# Youngs Moduli (GPa) = 100.51149 98.96831 32.62233
#
# Poissons Ratio (x) = 0.35134 0.03086
# Poissons Ratio (y) = 0.35682 0.16573
# Poissons Ratio (z) = 0.09509 0.50277
#
# Static dielectric constant tensor:
#      x y z
#    x 4.058770 0.000000 0.000000 
#    y 0.000000 4.168690 0.000000 
#    z 0.000000 0.000000 3.620170 
# 
# 
# High freq. dielectric constant tensor:
#      x y z
#    x 1.786780 0.000000 0.000000 
#    y 0.000000 1.795620 0.000000 
#    z 0.000000 0.000000 1.737110 
# 
# From -- ./inp_files/10384.got.cif
#   From: 2010.03.12/outbox.cif.g09.slc.cpg/sg64_6_cif.got.tgz:10384.got - 2010.04.10 20:19:32.
