data_PCOD8263711
_publ_section_title
;
Structure prediction by ZEFSAII (Michael W. Deem and Ramdas Pophale) SiO2 
 PCOD8263711
Probable space group: C M C A
;
_chemical_formula_sum "Si O2"
_cell_formula_units_Z 96
_cell_length_a 9.261347
_cell_length_b 20.288029
_cell_length_c 29.418408
_cell_angle_alpha 90.000000
_cell_angle_beta 90.000000
_cell_angle_gamma 90.000000
_cell_volume 5527.556371
_symmetry_space_group_name_H-M "C M C A"
_symmetry_group_IT_number 64
_symmetry_cell_setting 'orthorhombic'
loop_
_space_group_symop_operation_xyz
x,y,z
-x,1/2-y,1/2+z
x,-y,-z
-x,1/2+y,1/2-z
-x,-y,-z
x,1/2+y,1/2-z
-x,y,z
x,1/2-y,1/2+z
1/2+x,1/2+y,z
1/2-x,-y,1/2+z
1/2+x,1/2-y,-z
1/2-x,y,1/2-z
1/2-x,1/2-y,-z
1/2+x,y,1/2-z
1/2-x,1/2+y,z
1/2+x,-y,1/2+z
loop_
_atom_site_type_symbol
_atom_site_label
_atom_site_fract_x
_atom_site_fract_y
_atom_site_fract_z
Si Si1 0.836570 0.107759 0.793404
Si Si2 0.166319 0.428647 0.019885
Si Si3 0.162638 0.235095 0.292929
Si Si4 0.835952 0.262735 0.620981
Si Si5 0.166002 0.111091 0.619086
Si Si6 0.832328 0.689997 0.477323
O O1 0.750000 0.079433 0.750000
O O2 0.832530 0.186321 0.792315
O O3 0.762559 0.082668 0.839874
O O4 0.000000 0.081170 0.791599
O O5 0.202188 0.429534 0.073565
O O6 0.000000 0.407164 0.012483
O O7 0.198539 0.500000 0.000000
O O8 0.269345 0.378827 0.993752
O O9 0.250000 0.206535 0.250000
O O10 0.234582 0.209067 0.339282
O O11 0.000000 0.208315 0.290485
O O12 0.797281 0.187307 0.608696
O O13 0.811100 0.307218 0.576843
O O14 0.000000 0.266867 0.638557
O O15 0.000000 0.102813 0.633749
O O16 0.750000 0.750000 0.500000
O O17 0.000000 0.695135 0.490710
#
# Coordination Sequence:
#
# PCOD8263711 Si02
#       6
#    16  16  16  16  16  16
#     4   9  16  25  39  63  92 124 159 198 244 295
#     4  10  21  37  54  74 103 139 176 214 260 310
#     4   9  16  25  39  62  93 127 159 196 243 298
#     4   9  17  29  45  67  95 128 164 206 250 296
#     4   9  16  29  46  66  95 130 164 202 248 297
#     4  11  21  34  53  76 103 134 173 215 257 302
#
# _framework density 17.367529000000001
#
# number of rings (size 3 to 8) (size 9 to 14) (size 15 to 20)
#    0.000    2.500    1.667    1.500    0.000    6.333 
#    0.000    0.000    0.000    0.000    0.000    1.167 
#    0.000    8.000    0.000    0.000    0.000    0.000 
#
# Total GULP energy -595231.175186 kJ/mol
# GULP energy per Si atom -12400.649483 kJ/mol
# Density = 1.732800 g / cm^3
# Si number density = 17.367529 Si / 1000 Ang^3
#
#
#
# Elastic Constant Matrix: (Units=GPa)
#
#
# Indices 1 2 3 4 5 6 
#
# 1 140.2182 41.2332 91.9190 0.0000 0.0000 0.0000
# 2 41.2332 46.5419 43.3939 0.0000 0.0000 0.0000
# 3 91.9190 43.3939 148.5512 0.0000 0.0000 0.0000
# 4 0.0000 0.0000 0.0000 13.9708 0.0000 0.0000
# 5 0.0000 0.0000 0.0000 0.0000 37.4431 0.0000
# 6 0.0000 0.0000 0.0000 0.0000 0.0000 15.8223
#
#
#
# Elastic Compliance Matrix: (Units=1/GPa)
#
#
# Indices 1 2 3 4 5 6 
#
# 1 0.012948 -0.005499 -0.006405 0.000000 0.000000 0.000000
# 2 -0.005499 0.031863 -0.005905 0.000000 0.000000 0.000000
# 3 -0.006405 -0.005905 0.012420 0.000000 0.000000 0.000000
# 4 0.000000 0.000000 0.000000 0.071578 0.000000 0.000000
# 5 0.000000 0.000000 0.000000 0.000000 0.026707 0.000000
# 6 0.000000 0.000000 0.000000 0.000000 0.000000 0.063202
#
#
# Mechanical properties :
#
#
# Convention : Reuss Voigt Hill
#
# Bulk Modulus (GPa) = 46.26962 76.48929 61.37946
# Shear Modulus (GPa) = 19.11746 24.03159 21.57452
#
# Velocity S-wave (km/s) = 3.32137 3.72386 3.52836
# Velocity P-wave (km/s) = 6.43490 7.91370 7.21230
#
# Compressibility (1/GPa) = 0.02161245
#
# Stress axis : x y z
#
# Youngs Moduli (GPa) = 77.23345 31.38393 80.51401
#
# Poissons Ratio (x) = 0.17257 0.51573
# Poissons Ratio (y) = 0.42469 0.47546
# Poissons Ratio (z) = 0.49471 0.18533
#
# Static dielectric constant tensor:
#      x y z
#    x 3.390180 0.000000 0.000000 
#    y 0.000000 2.776040 0.000000 
#    z 0.000000 0.000000 3.443350 
# 
# 
# High freq. dielectric constant tensor:
#      x y z
#    x 1.681370 0.000000 0.000000 
#    y 0.000000 1.601010 0.000000 
#    z 0.000000 0.000000 1.687470 
# 
# From -- ./inp_files/48064.got.cif
#   From: 2010.03.12/outbox.cif.g09.slc.cpg/sg64_25_cif.got.tgz:48064.got - 2010.04.10 20:19:32.
