data_PCOD8263530
_publ_section_title
;
Structure prediction by ZEFSAII (Michael W. Deem and Ramdas Pophale) SiO2 
 PCOD8263530
Probable space group: C M C A
;
_chemical_formula_sum "Si O2"
_cell_formula_units_Z 96
_cell_length_a 22.458500
_cell_length_b 11.099605
_cell_length_c 17.936659
_cell_angle_alpha 90.000000
_cell_angle_beta 90.000000
_cell_angle_gamma 90.000000
_cell_volume 4471.258945
_symmetry_space_group_name_H-M "C M C A"
_symmetry_group_IT_number 64
_symmetry_cell_setting 'orthorhombic'
loop_
_space_group_symop_operation_xyz
x,y,z
-x,1/2-y,1/2+z
x,-y,-z
-x,1/2+y,1/2-z
-x,-y,-z
x,1/2+y,1/2-z
-x,y,z
x,1/2-y,1/2+z
1/2+x,1/2+y,z
1/2-x,-y,1/2+z
1/2+x,1/2-y,-z
1/2-x,y,1/2-z
1/2-x,1/2-y,-z
1/2+x,y,1/2-z
1/2-x,1/2+y,z
1/2+x,-y,1/2+z
loop_
_atom_site_type_symbol
_atom_site_label
_atom_site_fract_x
_atom_site_fract_y
_atom_site_fract_z
Si Si1 0.214175 0.312358 0.090776
Si Si2 0.339892 0.777421 0.940988
Si Si3 0.143475 0.886795 0.833677
Si Si4 0.931898 0.099786 0.887857
Si Si5 0.159690 0.985923 0.678587
Si Si6 0.566146 0.668053 0.717726
O O1 0.283343 0.310485 0.070226
O O2 0.195595 0.180564 0.121426
O O3 0.208982 0.418702 0.150950
O O4 0.170870 0.342979 0.020384
O O5 0.399299 0.695210 0.942634
O O6 0.344544 0.871695 0.874424
O O7 0.175538 0.951114 0.763571
O O8 0.096536 0.792862 0.801593
O O9 0.106885 0.977161 0.887233
O O10 0.932354 0.155702 0.806137
O O11 0.000000 0.076656 0.915492
O O12 0.096406 0.054298 0.677595
O O13 0.500000 0.671937 0.685984
#
# Coordination Sequence:
#
# PCOD8263530 Si02
#       6
#    16  16  16  16  16  16
#     4  10  25  42  63  87 128 169 205 262 319 382
#     4  11  23  43  62  90 126 170 209 252 327 379
#     4  10  20  40  61  96 123 162 209 260 309 369
#     4  10  21  37  62  92 125 164 207 256 309 371
#     4  10  21  40  62  92 119 159 217 258 306 370
#     4   9  18  36  62  92 126 163 203 255 314 365
#
# _framework density 21.470464
#
# number of rings (size 3 to 8) (size 9 to 14) (size 15 to 20)
#    0.000    2.000    1.667    1.000    2.333    2.667 
#    3.000    5.000    0.000    5.000    0.000    0.000 
#    0.000    0.000    0.000    0.000    0.000    0.000 
#
# Total GULP energy -595210.755399 kJ/mol
# GULP energy per Si atom -12400.224071 kJ/mol
# Density = 2.142160 g / cm^3
# Si number density = 21.470464 Si / 1000 Ang^3
#
#
#
# Elastic Constant Matrix: (Units=GPa)
#
#
# Indices 1 2 3 4 5 6 
#
# 1 72.7493 14.3516 24.0037 0.0000 0.0000 0.0000
# 2 14.3516 72.2459 10.9073 0.0000 0.0000 0.0000
# 3 24.0037 10.9073 57.5092 0.0000 0.0000 0.0000
# 4 0.0000 0.0000 0.0000 24.9772 0.0000 0.0000
# 5 0.0000 0.0000 0.0000 0.0000 29.3135 0.0000
# 6 0.0000 0.0000 0.0000 0.0000 0.0000 16.6287
#
#
#
# Elastic Compliance Matrix: (Units=1/GPa)
#
#
# Indices 1 2 3 4 5 6 
#
# 1 0.016297 -0.002276 -0.006370 0.000000 0.000000 0.000000
# 2 -0.002276 0.014567 -0.001813 0.000000 0.000000 0.000000
# 3 -0.006370 -0.001813 0.020391 0.000000 0.000000 0.000000
# 4 0.000000 0.000000 0.000000 0.040036 0.000000 0.000000
# 5 0.000000 0.000000 0.000000 0.000000 0.034114 0.000000
# 6 0.000000 0.000000 0.000000 0.000000 0.000000 0.060137
#
#
# Mechanical properties :
#
#
# Convention : Reuss Voigt Hill
#
# Bulk Modulus (GPa) = 32.96280 33.44773 33.20526
# Shear Modulus (GPa) = 23.08686 24.40002 23.74344
#
# Velocity S-wave (km/s) = 3.28271 3.37478 3.32906
# Velocity P-wave (km/s) = 5.45474 5.54958 5.50236
#
# Compressibility (1/GPa) = 0.03033723
#
# Stress axis : x y z
#
# Youngs Moduli (GPa) = 61.36221 68.64656 49.04042
#
# Poissons Ratio (x) = 0.15621 0.31241
# Poissons Ratio (y) = 0.13963 0.08891
# Poissons Ratio (z) = 0.39091 0.12446
#
# Static dielectric constant tensor:
#      x y z
#    x 3.919360 0.000000 0.000000 
#    y 0.000000 3.896960 0.000000 
#    z 0.000000 0.000000 3.880000 
# 
# 
# High freq. dielectric constant tensor:
#      x y z
#    x 1.838630 0.000000 0.000000 
#    y 0.000000 1.848720 0.000000 
#    z 0.000000 0.000000 1.833980 
# 
# From -- ./inp_files/34960.got.cif
#   From: 2010.03.12/outbox.cif.g09.slc.cpg/sg64_18_cif.got.tgz:34960.got - 2010.04.10 20:19:32.
