data_PCOD8263882
_publ_section_title
;
Structure prediction by ZEFSAII (Michael W. Deem and Ramdas Pophale) SiO2 
 PCOD8263882
Probable space group: C M C A
;
_chemical_formula_sum "Si O2"
_cell_formula_units_Z 80
_cell_length_a 8.750653
_cell_length_b 24.652708
_cell_length_c 18.218725
_cell_angle_alpha 90.000000
_cell_angle_beta 90.000000
_cell_angle_gamma 90.000000
_cell_volume 3930.276230
_symmetry_space_group_name_H-M "C M C A"
_symmetry_group_IT_number 64
_symmetry_cell_setting 'orthorhombic'
loop_
_space_group_symop_operation_xyz
x,y,z
-x,1/2-y,1/2+z
x,-y,-z
-x,1/2+y,1/2-z
-x,-y,-z
x,1/2+y,1/2-z
-x,y,z
x,1/2-y,1/2+z
1/2+x,1/2+y,z
1/2-x,-y,1/2+z
1/2+x,1/2-y,-z
1/2-x,y,1/2-z
1/2-x,1/2-y,-z
1/2+x,y,1/2-z
1/2-x,1/2+y,z
1/2+x,-y,1/2+z
loop_
_atom_site_type_symbol
_atom_site_label
_atom_site_fract_x
_atom_site_fract_y
_atom_site_fract_z
Si Si1 0.821763 0.178797 0.172961
Si Si2 0.821315 0.406220 0.931891
Si Si3 0.320862 0.505754 0.673369
Si Si4 0.321737 0.195331 0.826990
Si Si5 0.180751 0.397517 0.411941
O O1 0.750000 0.160087 0.250000
O O2 0.743675 0.147072 0.106854
O O3 0.789026 0.241726 0.157849
O O4 0.000000 0.165276 0.175573
O O5 0.784144 0.459000 0.884560
O O6 0.000000 0.398339 0.944986
O O7 0.740486 0.415426 0.009088
O O8 0.500000 0.516056 0.681850
O O9 0.250000 0.486547 0.750000
O O10 0.241144 0.561079 0.648970
O O11 0.500000 0.182179 0.824902
O O12 0.250000 0.176991 0.750000
O O13 0.242625 0.162245 0.892468
O O14 0.000000 0.396986 0.412158
#
# Coordination Sequence:
#
# PCOD8263882 Si02
#       5
#    16  16  16  16  16
#     4  10  21  38  62  90 120 157 199 244 293 347
#     4  11  24  41  62  88 121 158 196 243 296 351
#     4  11  24  42  64  89 118 154 196 241 292 350
#     4  10  21  39  62  88 120 157 199 245 293 348
#     4  12  25  40  61  88 120 157 197 244 297 352
#
# _framework density 20.354804000000001
#
# number of rings (size 3 to 8) (size 9 to 14) (size 15 to 20)
#    0.000    1.200    0.000    6.000    0.000   10.400 
#    0.000    0.000    0.000    0.000    0.000    0.000 
#    0.000    0.000    0.000    0.000    0.000    0.000 
#
# Total GULP energy -496352.890549 kJ/mol
# GULP energy per Si atom -12408.822264 kJ/mol
# Density = 2.030848 g / cm^3
# Si number density = 20.354804 Si / 1000 Ang^3
#
#
#
# Elastic Constant Matrix: (Units=GPa)
#
#
# Indices 1 2 3 4 5 6 
#
# 1 136.8449 52.1953 50.7208 0.0000 0.0000 0.0000
# 2 52.1953 78.9655 31.4511 0.0000 0.0000 0.0000
# 3 50.7208 31.4511 96.3715 0.0000 0.0000 0.0000
# 4 0.0000 0.0000 0.0000 34.6281 0.0000 0.0000
# 5 0.0000 0.0000 0.0000 0.0000 43.3882 0.0000
# 6 0.0000 0.0000 0.0000 0.0000 0.0000 27.3812
#
#
#
# Elastic Compliance Matrix: (Units=1/GPa)
#
#
# Indices 1 2 3 4 5 6 
#
# 1 0.010910 -0.005660 -0.003895 0.000000 0.000000 0.000000
# 2 -0.005660 0.017492 -0.002730 0.000000 0.000000 0.000000
# 3 -0.003895 -0.002730 0.013317 0.000000 0.000000 0.000000
# 4 0.000000 0.000000 0.000000 0.028878 0.000000 0.000000
# 5 0.000000 0.000000 0.000000 0.000000 0.023048 0.000000
# 6 0.000000 0.000000 0.000000 0.000000 0.000000 0.036521
#
#
# Mechanical properties :
#
#
# Convention : Reuss Voigt Hill
#
# Bulk Modulus (GPa) = 58.30824 64.54626 61.42725
# Shear Modulus (GPa) = 31.16180 32.93382 32.04781
#
# Velocity S-wave (km/s) = 3.91696 4.02679 3.97225
# Velocity P-wave (km/s) = 7.01176 7.30749 7.16115
#
# Compressibility (1/GPa) = 0.01715024
#
# Stress axis : x y z
#
# Youngs Moduli (GPa) = 91.65895 57.16819 75.09086
#
# Poissons Ratio (x) = 0.32358 0.29246
# Poissons Ratio (y) = 0.51880 0.20497
# Poissons Ratio (z) = 0.35699 0.15605
#
# Static dielectric constant tensor:
#      x y z
#    x 3.830530 0.000000 0.000000 
#    y 0.000000 3.745590 0.000000 
#    z 0.000000 0.000000 3.692320 
# 
# 
# High freq. dielectric constant tensor:
#      x y z
#    x 1.813230 0.000000 0.000000 
#    y 0.000000 1.806190 0.000000 
#    z 0.000000 0.000000 1.800760 
# 
# From -- ./inp_files/29773.got.cif
#   From: 2010.03.12/outbox.cif.g09.slc.cpg/sg64_15_cif.got.tgz:29773.got - 2010.04.10 20:19:32.
