data_PCOD8263813
_publ_section_title
;
Structure prediction by ZEFSAII (Michael W. Deem and Ramdas Pophale) SiO2 
 PCOD8263813
Probable space group: C M C A
;
_chemical_formula_sum "Si O2"
_cell_formula_units_Z 80
_cell_length_a 18.045252
_cell_length_b 24.629390
_cell_length_c 9.932825
_cell_angle_alpha 90.000000
_cell_angle_beta 90.000000
_cell_angle_gamma 90.000000
_cell_volume 4414.579996
_symmetry_space_group_name_H-M "C M C A"
_symmetry_group_IT_number 64
_symmetry_cell_setting 'orthorhombic'
loop_
_space_group_symop_operation_xyz
x,y,z
-x,1/2-y,1/2+z
x,-y,-z
-x,1/2+y,1/2-z
-x,-y,-z
x,1/2+y,1/2-z
-x,y,z
x,1/2-y,1/2+z
1/2+x,1/2+y,z
1/2-x,-y,1/2+z
1/2+x,1/2-y,-z
1/2-x,y,1/2-z
1/2-x,1/2-y,-z
1/2+x,y,1/2-z
1/2-x,1/2+y,z
1/2+x,-y,1/2+z
loop_
_atom_site_type_symbol
_atom_site_label
_atom_site_fract_x
_atom_site_fract_y
_atom_site_fract_z
Si Si1 0.417709 0.387570 0.988561
Si Si2 0.000000 0.308314 0.911474
Si Si3 0.000000 0.290895 0.608332
Si Si4 0.165835 0.081231 0.757414
Si Si5 0.665752 0.544587 0.234117
Si Si6 0.417998 0.408798 0.518813
O O1 0.500000 0.414039 0.004352
O O2 0.426962 0.326160 0.931372
O O3 0.377671 0.383710 0.132069
O O4 0.369977 0.423120 0.887593
O O5 0.000000 0.278442 0.767699
O O6 0.072755 0.347002 0.925523
O O7 0.000000 0.265625 0.031742
O O8 0.250000 0.101760 0.750000
O O9 0.129773 0.091925 0.614465
O O10 0.162443 0.018651 0.801866
O O11 0.750000 0.564508 0.250000
O O12 0.622160 0.553803 0.372256
O O13 0.500000 0.433506 0.489893
#
# Coordination Sequence:
#
# PCOD8263813 Si02
#       6
#    16   8   8  16  16  16
#     4  10  21  38  57  89 113 152 198 244 279 338
#     4  10  22  40  65  89 110 144 193 247 307 338
#     4  10  22  40  65  89 110 144 193 247 307 338
#     4  11  23  35  55  88 124 164 191 221 287 347
#     4  11  21  37  57  82 126 164 187 229 287 347
#     4  10  21  38  57  89 113 152 198 244 279 338
#
# _framework density 18.121770000000001
#
# number of rings (size 3 to 8) (size 9 to 14) (size 15 to 20)
#    1.200    0.400    2.000    3.600    2.800    8.000 
#    0.000    0.000    0.000    7.200    0.000    0.000 
#    0.000    0.000    0.000    0.000    0.000    0.000 
#
# Total GULP energy -495925.786396 kJ/mol
# GULP energy per Si atom -12398.144660 kJ/mol
# Density = 1.808052 g / cm^3
# Si number density = 18.121770 Si / 1000 Ang^3
#
#
#
# Elastic Constant Matrix: (Units=GPa)
#
#
# Indices 1 2 3 4 5 6 
#
# 1 119.5721 11.8838 26.7350 0.0000 0.0000 0.0000
# 2 11.8838 44.0650 -4.1783 0.0000 0.0000 0.0000
# 3 26.7350 -4.1783 84.6181 0.0000 0.0000 0.0000
# 4 0.0000 0.0000 0.0000 125.7761 0.0000 0.0000
# 5 0.0000 0.0000 0.0000 0.0000 29.2487 0.0000
# 6 0.0000 0.0000 0.0000 0.0000 0.0000 -64.6374
#
#
#
# Elastic Compliance Matrix: (Units=1/GPa)
#
#
# Indices 1 2 3 4 5 6 
#
# 1 0.009333 -0.002810 -0.003087 0.000000 0.000000 0.000000
# 2 -0.002810 0.023646 0.002055 0.000000 0.000000 0.000000
# 3 -0.003087 0.002055 0.012895 0.000000 0.000000 0.000000
# 4 0.000000 0.000000 0.000000 0.007951 0.000000 0.000000
# 5 0.000000 0.000000 0.000000 0.000000 0.034190 0.000000
# 6 0.000000 0.000000 0.000000 0.000000 0.000000 -0.015471
#
#
# Mechanical properties :
#
#
# Convention : Reuss Voigt Hill
#
# Bulk Modulus (GPa) = 26.18462 35.23737 30.71099
# Shear Modulus (GPa) = 53.78846 32.33177 43.06012
#
# Velocity S-wave (km/s) = 5.45400 4.22849 4.87987
# Velocity P-wave (km/s) = 7.35813 6.58234 6.98102
#
# Compressibility (1/GPa) = 0.03819036
#
# Stress axis : x y z
#
# Youngs Moduli (GPa) = 107.15005 42.28979 77.55090
#
# Poissons Ratio (x) = 0.11882 0.23943
# Poissons Ratio (y) = 0.30106 -0.15939
# Poissons Ratio (z) = 0.33082 -0.08692
#
# Static dielectric constant tensor:
#      x y z
#    x 2.930980 0.000000 0.000000 
#    y 0.000000 3.097200 0.000000 
#    z 0.000000 0.000000 -0.027570 
# 
# 
# High freq. dielectric constant tensor:
#      x y z
#    x 1.699940 0.000000 0.000000 
#    y 0.000000 1.675980 0.000000 
#    z 0.000000 0.000000 1.721580 
# 
# From -- ./inp_files/7291.got.cif
#   From: 2010.03.12/outbox.cif.g09.slc.cpg/sg64_4_cif.got.tgz:7291.got - 2010.04.10 20:19:32.
