data_PCOD8263232
_publ_section_title
;
Structure prediction by ZEFSAII (Michael W. Deem and Ramdas Pophale) SiO2 
 PCOD8263232
Probable space group: C M C A
;
_chemical_formula_sum "Si O2"
_cell_formula_units_Z 112
_cell_length_a 14.336312
_cell_length_b 14.206267
_cell_length_c 25.945063
_cell_angle_alpha 90.000000
_cell_angle_beta 90.000000
_cell_angle_gamma 90.000000
_cell_volume 5284.113607
_symmetry_space_group_name_H-M "C M C A"
_symmetry_group_IT_number 64
_symmetry_cell_setting 'orthorhombic'
loop_
_space_group_symop_operation_xyz
x,y,z
-x,1/2-y,1/2+z
x,-y,-z
-x,1/2+y,1/2-z
-x,-y,-z
x,1/2+y,1/2-z
-x,y,z
x,1/2-y,1/2+z
1/2+x,1/2+y,z
1/2-x,-y,1/2+z
1/2+x,1/2-y,-z
1/2-x,y,1/2-z
1/2-x,1/2-y,-z
1/2+x,y,1/2-z
1/2-x,1/2+y,z
1/2+x,-y,1/2+z
loop_
_atom_site_type_symbol
_atom_site_label
_atom_site_fract_x
_atom_site_fract_y
_atom_site_fract_z
Si Si1 0.603510 0.940992 0.047889
Si Si2 0.216926 0.842975 0.373571
Si Si3 0.108976 0.097123 0.022572
Si Si4 0.887970 0.845830 0.865017
Si Si5 0.247428 0.971825 0.810655
Si Si6 0.099600 0.102946 0.374480
Si Si7 0.894961 0.787924 0.074197
O O1 0.500000 0.901460 0.032704
O O2 0.671622 0.859894 0.069084
O O3 0.594673 0.002851 0.098874
O O4 0.646217 0.000000 0.000000
O O5 0.161371 0.753416 0.349817
O O6 0.326784 0.828906 0.382567
O O7 0.218257 0.928488 0.333190
O O8 0.150067 0.124133 0.078261
O O9 0.000000 0.081359 0.030622
O O10 0.131933 0.181886 0.983561
O O11 0.153013 0.000000 0.000000
O O12 0.853642 0.931361 0.828077
O O13 0.000000 0.835174 0.861175
O O14 0.250000 0.980261 0.750000
O O15 0.321007 0.893081 0.830937
O O16 0.115499 0.175572 0.421779
O O17 0.000000 0.125140 0.347275
O O18 0.000000 0.823513 0.086974
#
# Coordination Sequence:
#
# PCOD8263232 Si02
#       7
#    16  16  16  16  16  16  16
#     4   9  19  34  56  86 124 163 200 246 308 378
#     4  11  23  39  63  95 128 165 214 272 323 385
#     4   9  19  35  58  91 134 176 211 250 307 386
#     4  11  24  43  67  98 134 171 215 270 328 388
#     4  11  25  45  68  89 121 162 215 277 340 389
#     4   9  19  38  60  87 120 158 204 252 307 375
#     4  10  20  36  60  89 127 169 207 246 305 384
#
# _framework density 21.195606000000002
#
# number of rings (size 3 to 8) (size 9 to 14) (size 15 to 20)
#    0.000    2.000    1.429    1.286    2.000    6.857 
#    0.000    0.000    0.000    0.000    0.000    0.000 
#    0.000    0.000    0.000    0.000    0.000    0.000 
#
# Total GULP energy -693903.711133 kJ/mol
# GULP energy per Si atom -12391.137699 kJ/mol
# Density = 2.114736 g / cm^3
# Si number density = 21.195606 Si / 1000 Ang^3
#
#
#
# Elastic Constant Matrix: (Units=GPa)
#
#
# Indices 1 2 3 4 5 6 
#
# 1 97.5464 34.9028 41.1139 0.0000 0.0000 0.0000
# 2 34.9028 98.9648 39.5278 0.0000 0.0000 0.0000
# 3 41.1139 39.5278 107.6861 0.0000 0.0000 0.0000
# 4 0.0000 0.0000 0.0000 25.6620 0.0000 0.0000
# 5 0.0000 0.0000 0.0000 0.0000 20.9931 0.0000
# 6 0.0000 0.0000 0.0000 0.0000 0.0000 26.3736
#
#
#
# Elastic Compliance Matrix: (Units=1/GPa)
#
#
# Indices 1 2 3 4 5 6 
#
# 1 0.012953 -0.003038 -0.003830 0.000000 0.000000 0.000000
# 2 -0.003038 0.012553 -0.003448 0.000000 0.000000 0.000000
# 3 -0.003830 -0.003448 0.012014 0.000000 0.000000 0.000000
# 4 0.000000 0.000000 0.000000 0.038968 0.000000 0.000000
# 5 0.000000 0.000000 0.000000 0.000000 0.047635 0.000000
# 6 0.000000 0.000000 0.000000 0.000000 0.000000 0.037917
#
#
# Mechanical properties :
#
#
# Convention : Reuss Voigt Hill
#
# Bulk Modulus (GPa) = 59.21457 59.47626 59.34542
# Shear Modulus (GPa) = 26.55311 27.18260 26.86785
#
# Velocity S-wave (km/s) = 3.54328 3.58504 3.56422
# Velocity P-wave (km/s) = 6.68862 6.72742 6.70805
#
# Compressibility (1/GPa) = 0.01688774
#
# Stress axis : x y z
#
# Youngs Moduli (GPa) = 77.20204 79.66021 83.23543
#
# Poissons Ratio (x) = 0.24205 0.31880
# Poissons Ratio (y) = 0.23458 0.28698
# Poissons Ratio (z) = 0.29569 0.27465
#
# Static dielectric constant tensor:
#      x y z
#    x 4.135650 0.000000 0.000000 
#    y 0.000000 3.874370 0.000000 
#    z 0.000000 0.000000 3.414120 
# 
# 
# High freq. dielectric constant tensor:
#      x y z
#    x 1.841320 0.000000 0.000000 
#    y 0.000000 1.831990 0.000000 
#    z 0.000000 0.000000 1.787100 
# 
# From -- ./inp_files/45279.got.cif
#   From: 2010.03.12/outbox.cif.g09.slc.cpg/sg64_23_cif.got.tgz:45279.got - 2010.04.10 20:19:32.
