data_PCOD8263327
_publ_section_title
;
Structure prediction by ZEFSAII (Michael W. Deem and Ramdas Pophale) SiO2 
 PCOD8263327
Probable space group: C M C A
;
_chemical_formula_sum "Si O2"
_cell_formula_units_Z 96
_cell_length_a 8.620391
_cell_length_b 23.343935
_cell_length_c 25.227660
_cell_angle_alpha 90.000000
_cell_angle_beta 90.000000
_cell_angle_gamma 90.000000
_cell_volume 5076.659077
_symmetry_space_group_name_H-M "C M C A"
_symmetry_group_IT_number 64
_symmetry_cell_setting 'orthorhombic'
loop_
_space_group_symop_operation_xyz
x,y,z
-x,1/2-y,1/2+z
x,-y,-z
-x,1/2+y,1/2-z
-x,-y,-z
x,1/2+y,1/2-z
-x,y,z
x,1/2-y,1/2+z
1/2+x,1/2+y,z
1/2-x,-y,1/2+z
1/2+x,1/2-y,-z
1/2-x,y,1/2-z
1/2-x,1/2-y,-z
1/2+x,y,1/2-z
1/2-x,1/2+y,z
1/2+x,-y,1/2+z
loop_
_atom_site_type_symbol
_atom_site_label
_atom_site_fract_x
_atom_site_fract_y
_atom_site_fract_z
Si Si1 0.179951 0.254659 0.941876
Si Si2 0.182256 0.062227 0.306377
Si Si3 0.177591 0.372005 0.408325
Si Si4 0.179676 0.434239 0.995599
Si Si5 0.180868 0.367618 0.600458
Si Si6 0.818957 0.559508 0.694343
O O1 0.204261 0.195775 0.910372
O O2 0.269619 0.302392 0.908730
O O3 0.000000 0.271428 0.946970
O O4 0.250000 0.250000 0.000000
O O5 0.250000 0.081356 0.250000
O O6 0.226030 0.109469 0.349314
O O7 0.000000 0.057570 0.301351
O O8 0.246440 0.000552 0.324272
O O9 0.291430 0.403613 0.448654
O O10 0.219132 0.392499 0.349244
O O11 0.000000 0.387516 0.423036
O O12 0.284189 0.405095 0.951183
O O13 0.000000 0.427968 0.979792
O O14 0.229596 0.500000 0.000000
O O15 0.000000 0.370670 0.612883
O O16 0.750000 0.580932 0.750000
O O17 0.000000 0.549462 0.701776
#
# Coordination Sequence:
#
# PCOD8263327 Si02
#       6
#    16  16  16  16  16  16
#     4  11  22  39  60  85 115 156 201 245 295 351
#     4  11  22  39  62  89 119 154 194 241 292 349
#     4  10  22  38  58  83 115 153 194 239 292 349
#     4  11  23  36  55  85 117 149 189 240 295 352
#     4  12  24  39  59  85 117 156 197 241 293 350
#     4  10  20  37  60  88 119 155 193 236 289 349
#
# _framework density 18.910074000000002
#
# number of rings (size 3 to 8) (size 9 to 14) (size 15 to 20)
#    0.000    1.167    1.667    6.500    0.000    6.000 
#    0.000    0.833    0.000    2.000    0.000    0.000 
#    0.000    0.000    0.000    0.000    0.000    0.000 
#
# Total GULP energy -595507.291025 kJ/mol
# GULP energy per Si atom -12406.401896 kJ/mol
# Density = 1.886703 g / cm^3
# Si number density = 18.910074 Si / 1000 Ang^3
#
#
#
# Elastic Constant Matrix: (Units=GPa)
#
#
# Indices 1 2 3 4 5 6 
#
# 1 101.6670 29.5437 38.3145 0.0000 0.0000 0.0000
# 2 29.5437 114.3360 62.1738 0.0000 0.0000 0.0000
# 3 38.3145 62.1738 122.2421 0.0000 0.0000 0.0000
# 4 0.0000 0.0000 0.0000 15.4121 0.0000 0.0000
# 5 0.0000 0.0000 0.0000 0.0000 34.3321 0.0000
# 6 0.0000 0.0000 0.0000 0.0000 0.0000 -7.5123
#
#
#
# Elastic Compliance Matrix: (Units=1/GPa)
#
#
# Indices 1 2 3 4 5 6 
#
# 1 0.011308 -0.001375 -0.002845 0.000000 0.000000 0.000000
# 2 -0.001375 0.012257 -0.005803 0.000000 0.000000 0.000000
# 3 -0.002845 -0.005803 0.012024 0.000000 0.000000 0.000000
# 4 0.000000 0.000000 0.000000 0.064884 0.000000 0.000000
# 5 0.000000 0.000000 0.000000 0.000000 0.029127 0.000000
# 6 0.000000 0.000000 0.000000 0.000000 0.000000 -0.133116
#
#
# Mechanical properties :
#
#
# Convention : Reuss Voigt Hill
#
# Bulk Modulus (GPa) = 64.33913 66.47879 65.40896
# Shear Modulus (GPa) = 230.29675 22.32726 126.31200
#
# Velocity S-wave (km/s) = 11.04761 3.43987 8.18176
# Velocity P-wave (km/s) = 14.02963 7.14202 11.13191
#
# Compressibility (1/GPa) = 0.01554264
#
# Stress axis : x y z
#
# Youngs Moduli (GPa) = 88.43532 81.58566 83.16871
#
# Poissons Ratio (x) = 0.11216 0.23661
# Poissons Ratio (y) = 0.12158 0.48264
# Poissons Ratio (z) = 0.25159 0.47346
#
# Static dielectric constant tensor:
#      x y z
#    x 3.616210 0.000000 0.000000 
#    y 0.000000 3.610050 0.000000 
#    z 0.000000 0.000000 3.454200 
# 
# 
# High freq. dielectric constant tensor:
#      x y z
#    x 1.751460 0.000000 0.000000 
#    y 0.000000 1.736260 0.000000 
#    z 0.000000 0.000000 1.735430 
# 
# From -- ./inp_files/48054.got.cif
#   From: 2010.03.12/outbox.cif.g09.slc.cpg/sg64_25_cif.got.tgz:48054.got - 2010.04.10 20:19:32.
