data_PCOD8263079
_publ_section_title
;
Structure prediction by ZEFSAII (Michael W. Deem and Ramdas Pophale) SiO2 
 PCOD8263079
Probable space group: C M C A
;
_chemical_formula_sum "Si O2"
_cell_formula_units_Z 64
_cell_length_a 7.596348
_cell_length_b 21.291221
_cell_length_c 20.785654
_cell_angle_alpha 90.000000
_cell_angle_beta 90.000000
_cell_angle_gamma 90.000000
_cell_volume 3361.778643
_symmetry_space_group_name_H-M "C M C A"
_symmetry_group_IT_number 64
_symmetry_cell_setting 'orthorhombic'
loop_
_space_group_symop_operation_xyz
x,y,z
-x,1/2-y,1/2+z
x,-y,-z
-x,1/2+y,1/2-z
-x,-y,-z
x,1/2+y,1/2-z
-x,y,z
x,1/2-y,1/2+z
1/2+x,1/2+y,z
1/2-x,-y,1/2+z
1/2+x,1/2-y,-z
1/2-x,y,1/2-z
1/2-x,1/2-y,-z
1/2+x,y,1/2-z
1/2-x,1/2+y,z
1/2+x,-y,1/2+z
loop_
_atom_site_type_symbol
_atom_site_label
_atom_site_fract_x
_atom_site_fract_y
_atom_site_fract_z
Si Si1 0.295119 0.589842 0.320909
Si Si2 0.500000 0.400657 0.038782
Si Si3 0.500000 0.468344 0.903845
Si Si4 0.704389 0.765571 0.821346
Si Si5 0.696923 0.301349 0.447467
O O1 0.500000 0.580365 0.337299
O O2 0.250000 0.565511 0.250000
O O3 0.236439 0.662226 0.327009
O O4 0.179971 0.548725 0.368460
O O5 0.500000 0.456666 0.090038
O O6 0.674513 0.360101 0.048717
O O7 0.500000 0.430224 0.969119
O O8 0.500000 0.757518 0.835259
O O9 0.750000 0.739890 0.750000
O O10 0.805986 0.726998 0.875654
O O11 0.500000 0.324944 0.463126
O O12 0.750000 0.250000 0.500000
#
# Coordination Sequence:
#
# PCOD8263079 Si02
#       5
#    16   8   8  16  16
#     4  10  20  36  65  97 120 158 207 258 309 359
#     4  11  26  44  59  92 124 169 205 250 314 368
#     4  11  24  42  65  84 130 161 205 260 300 370
#     4  10  20  35  60  96 129 156 202 261 316 369
#     4  12  23  40  65  92 126 162 207 256 311 378
#
# _framework density 19.037541999999998
#
# number of rings (size 3 to 8) (size 9 to 14) (size 15 to 20)
#    0.000    1.250    3.750    2.250    3.500    4.000 
#    0.000    3.750    0.000    0.000    0.000    0.000 
#    0.000    0.000    0.000    0.000    0.000    0.000 
#
# Total GULP energy -396904.636144 kJ/mol
# GULP energy per Si atom -12403.269879 kJ/mol
# Density = 1.899421 g / cm^3
# Si number density = 19.037542 Si / 1000 Ang^3
#
#
#
# Elastic Constant Matrix: (Units=GPa)
#
#
# Indices 1 2 3 4 5 6 
#
# 1 147.6441 62.8641 37.8963 0.0000 0.0000 0.0000
# 2 62.8641 113.3867 58.2587 0.0000 0.0000 0.0000
# 3 37.8963 58.2587 106.0165 0.0000 0.0000 0.0000
# 4 0.0000 0.0000 0.0000 30.9313 0.0000 0.0000
# 5 0.0000 0.0000 0.0000 0.0000 26.5215 0.0000
# 6 0.0000 0.0000 0.0000 0.0000 0.0000 31.6823
#
#
#
# Elastic Compliance Matrix: (Units=1/GPa)
#
#
# Indices 1 2 3 4 5 6 
#
# 1 0.008898 -0.004597 -0.000655 0.000000 0.000000 0.000000
# 2 -0.004597 0.014664 -0.006415 0.000000 0.000000 0.000000
# 3 -0.000655 -0.006415 0.013192 0.000000 0.000000 0.000000
# 4 0.000000 0.000000 0.000000 0.032330 0.000000 0.000000
# 5 0.000000 0.000000 0.000000 0.000000 0.037705 0.000000
# 6 0.000000 0.000000 0.000000 0.000000 0.000000 0.031563
#
#
# Mechanical properties :
#
#
# Convention : Reuss Voigt Hill
#
# Bulk Modulus (GPa) = 74.51121 76.12062 75.31592
# Shear Modulus (GPa) = 30.09149 31.69557 30.89353
#
# Velocity S-wave (km/s) = 3.98004 4.08474 4.03273
# Velocity P-wave (km/s) = 7.76820 7.89418 7.83145
#
# Compressibility (1/GPa) = 0.01342080
#
# Stress axis : x y z
#
# Youngs Moduli (GPa) = 112.37916 68.19300 75.80514
#
# Poissons Ratio (x) = 0.31350 0.04962
# Poissons Ratio (y) = 0.51663 0.48630
# Poissons Ratio (z) = 0.07356 0.43746
#
# Static dielectric constant tensor:
#      x y z
#    x -2.185290 0.000000 0.000000 
#    y 0.000000 3.355840 0.000000 
#    z 0.000000 0.000000 3.704170 
# 
# 
# High freq. dielectric constant tensor:
#      x y z
#    x 1.759860 0.000000 0.000000 
#    y 0.000000 1.711340 0.000000 
#    z 0.000000 0.000000 1.754960 
# 
# From -- ./inp_files/36319.got.cif
#   From: 2010.03.12/outbox.cif.g09.slc.cpg/sg64_19_cif.got.tgz:36319.got - 2010.04.10 20:19:32.
