data_PCOD8263835
_publ_section_title
;
Structure prediction by ZEFSAII (Michael W. Deem and Ramdas Pophale) SiO2 
 PCOD8263835
Probable space group: C M C A
;
_chemical_formula_sum "Si O2"
_cell_formula_units_Z 112
_cell_length_a 15.394065
_cell_length_b 28.593783
_cell_length_c 12.264488
_cell_angle_alpha 90.000000
_cell_angle_beta 90.000000
_cell_angle_gamma 90.000000
_cell_volume 5398.515537
_symmetry_space_group_name_H-M "C M C A"
_symmetry_group_IT_number 64
_symmetry_cell_setting 'orthorhombic'
loop_
_space_group_symop_operation_xyz
x,y,z
-x,1/2-y,1/2+z
x,-y,-z
-x,1/2+y,1/2-z
-x,-y,-z
x,1/2+y,1/2-z
-x,y,z
x,1/2-y,1/2+z
1/2+x,1/2+y,z
1/2-x,-y,1/2+z
1/2+x,1/2-y,-z
1/2-x,y,1/2-z
1/2-x,1/2-y,-z
1/2+x,y,1/2-z
1/2-x,1/2+y,z
1/2+x,-y,1/2+z
loop_
_atom_site_type_symbol
_atom_site_label
_atom_site_fract_x
_atom_site_fract_y
_atom_site_fract_z
Si Si1 0.405189 0.291090 0.259917
Si Si2 0.404493 0.930892 0.941278
Si Si3 0.095708 0.402994 0.698005
Si Si4 0.798227 0.131777 0.858044
Si Si5 0.861909 0.833191 0.481037
Si Si6 0.155962 0.691517 0.220932
Si Si7 0.291273 0.947782 0.513895
O O1 0.500000 0.278158 0.216159
O O2 0.370953 0.331060 0.177805
O O3 0.412086 0.307785 0.384284
O O4 0.349870 0.243949 0.265915
O O5 0.500000 0.955303 0.967802
O O6 0.392093 0.929210 0.812119
O O7 0.413398 0.880267 0.994469
O O8 0.314860 0.952834 0.988679
O O9 0.096082 0.346776 0.718640
O O10 0.172586 0.422936 0.622535
O O11 0.000000 0.414221 0.648499
O O12 0.750000 0.114964 0.750000
O O13 0.737074 0.157751 0.944774
O O14 0.830012 0.083807 0.914788
O O15 0.860947 0.803332 0.591726
O O16 0.250000 0.671772 0.250000
O O17 0.329323 0.000000 0.500000
#
# Coordination Sequence:
#
# PCOD8263835 Si02
#       7
#    16  16  16  16  16  16  16
#     4  11  23  36  54  84 120 157 198 245 299 361
#     4   9  18  36  62  86 112 150 197 249 299 352
#     4  10  21  38  59  86 120 155 197 247 298 358
#     4   9  20  39  57  77 110 154 199 245 296 350
#     4   9  19  37  57  79 112 153 195 242 298 354
#     4  11  21  36  61  89 116 152 198 249 307 364
#     4  11  23  38  61  89 121 159 200 249 306 363
#
# _framework density 20.746444
#
# number of rings (size 3 to 8) (size 9 to 14) (size 15 to 20)
#    0.000    2.000    0.000    5.143    0.000    7.429 
#    0.000    0.000    0.000    3.429    0.000    0.000 
#    0.000    0.000    0.000    0.000    0.000    0.000 
#
# Total GULP energy -693734.184935 kJ/mol
# GULP energy per Si atom -12388.110445 kJ/mol
# Density = 2.069922 g / cm^3
# Si number density = 20.746444 Si / 1000 Ang^3
#
#
#
# Elastic Constant Matrix: (Units=GPa)
#
#
# Indices 1 2 3 4 5 6 
#
# 1 91.6109 14.9610 22.1193 0.0000 0.0000 0.0000
# 2 14.9610 114.5573 45.5082 0.0000 0.0000 0.0000
# 3 22.1193 45.5082 93.7404 0.0000 0.0000 0.0000
# 4 0.0000 0.0000 0.0000 18.7045 0.0000 0.0000
# 5 0.0000 0.0000 0.0000 0.0000 11.9159 0.0000
# 6 0.0000 0.0000 0.0000 0.0000 0.0000 4.7968
#
#
#
# Elastic Compliance Matrix: (Units=1/GPa)
#
#
# Indices 1 2 3 4 5 6 
#
# 1 0.011601 -0.000530 -0.002480 0.000000 0.000000 0.000000
# 2 -0.000530 0.010839 -0.005137 0.000000 0.000000 0.000000
# 3 -0.002480 -0.005137 0.013747 0.000000 0.000000 0.000000
# 4 0.000000 0.000000 0.000000 0.053463 0.000000 0.000000
# 5 0.000000 0.000000 0.000000 0.000000 0.083921 0.000000
# 6 0.000000 0.000000 0.000000 0.000000 0.000000 0.208473
#
#
# Mechanical properties :
#
#
# Convention : Reuss Voigt Hill
#
# Bulk Modulus (GPa) = 50.26910 51.67619 50.97265
# Shear Modulus (GPa) = 12.34660 21.57145 16.95902
#
# Velocity S-wave (km/s) = 2.44215 3.22804 2.86220
# Velocity P-wave (km/s) = 5.67759 6.23347 5.96201
#
# Compressibility (1/GPa) = 0.01989293
#
# Stress axis : x y z
#
# Youngs Moduli (GPa) = 86.19867 92.25799 72.74359
#
# Poissons Ratio (x) = 0.04888 0.18042
# Poissons Ratio (y) = 0.04567 0.37369
# Poissons Ratio (z) = 0.21379 0.47394
#
# Static dielectric constant tensor:
#      x y z
#    x 3.808100 0.000000 0.000000 
#    y 0.000000 3.520830 0.000000 
#    z 0.000000 0.000000 3.803260 
# 
# 
# High freq. dielectric constant tensor:
#      x y z
#    x 1.813410 0.000000 0.000000 
#    y 0.000000 1.797630 0.000000 
#    z 0.000000 0.000000 1.808440 
# 
# From -- ./inp_files/15014.got.cif
#   From: 2010.03.12/outbox.cif.g09.slc.cpg/sg64_8_cif.got.tgz:15014.got - 2010.04.10 20:19:32.
