data_PCOD8263881
_publ_section_title
;
Structure prediction by ZEFSAII (Michael W. Deem and Ramdas Pophale) SiO2 
 PCOD8263881
Probable space group: C M C A
;
_chemical_formula_sum "Si O2"
_cell_formula_units_Z 96
_cell_length_a 15.656367
_cell_length_b 14.584154
_cell_length_c 20.167484
_cell_angle_alpha 90.000000
_cell_angle_beta 90.000000
_cell_angle_gamma 90.000000
_cell_volume 4604.939785
_symmetry_space_group_name_H-M "C M C A"
_symmetry_group_IT_number 64
_symmetry_cell_setting 'orthorhombic'
loop_
_space_group_symop_operation_xyz
x,y,z
-x,1/2-y,1/2+z
x,-y,-z
-x,1/2+y,1/2-z
-x,-y,-z
x,1/2+y,1/2-z
-x,y,z
x,1/2-y,1/2+z
1/2+x,1/2+y,z
1/2-x,-y,1/2+z
1/2+x,1/2-y,-z
1/2-x,y,1/2-z
1/2-x,1/2-y,-z
1/2+x,y,1/2-z
1/2-x,1/2+y,z
1/2+x,-y,1/2+z
loop_
_atom_site_type_symbol
_atom_site_label
_atom_site_fract_x
_atom_site_fract_y
_atom_site_fract_z
Si Si1 0.097916 0.176278 0.033493
Si Si2 0.597539 0.792817 0.909064
Si Si3 0.904603 0.297872 0.151973
Si Si4 0.259761 0.437705 0.559466
Si Si5 0.689390 0.018973 0.807936
Si Si6 0.348343 0.322412 0.731587
O O1 0.130696 0.258062 0.082301
O O2 0.163655 0.094320 0.044178
O O3 0.000000 0.147102 0.051678
O O4 0.102340 0.204629 0.956495
O O5 0.500000 0.832212 0.909564
O O6 0.666247 0.862854 0.937401
O O7 0.625056 0.765324 0.834191
O O8 0.863301 0.392379 0.173323
O O9 0.901063 0.217325 0.207041
O O10 0.000000 0.326960 0.138989
O O11 0.291837 0.500000 0.500000
O O12 0.253933 0.489817 0.629250
O O13 0.750000 0.053154 0.750000
O O14 0.633295 0.930893 0.782689
O O15 0.250000 0.307685 0.750000
#
# Coordination Sequence:
#
# PCOD8263881 Si02
#       6
#    16  16  16  16  16  16
#     4  10  22  40  61  88 122 163 211 258 310 369
#     4  10  21  38  62  90 120 156 200 253 311 369
#     4  11  22  37  60  87 118 159 203 252 307 365
#     4  11  23  38  60  87 119 162 205 253 311 367
#     4  10  22  38  57  85 117 154 200 250 306 368
#     4  10  21  39  61  86 121 160 202 253 306 365
#
# _framework density 20.847179000000001
#
# number of rings (size 3 to 8) (size 9 to 14) (size 15 to 20)
#    0.000    1.667    0.000    5.500    0.000    6.667 
#    0.000    0.833    0.000    0.000    0.000    0.000 
#    0.000    0.000    0.000    0.000    0.000    0.000 
#
# Total GULP energy -594920.639213 kJ/mol
# GULP energy per Si atom -12394.179984 kJ/mol
# Density = 2.079973 g / cm^3
# Si number density = 20.847179 Si / 1000 Ang^3
#
#
#
# Elastic Constant Matrix: (Units=GPa)
#
#
# Indices 1 2 3 4 5 6 
#
# 1 83.7296 21.6847 27.9776 0.0000 0.0000 0.0000
# 2 21.6847 60.3275 19.0667 0.0000 0.0000 0.0000
# 3 27.9776 19.0667 101.1449 0.0000 0.0000 0.0000
# 4 0.0000 0.0000 0.0000 29.2620 0.0000 0.0000
# 5 0.0000 0.0000 0.0000 0.0000 31.6183 0.0000
# 6 0.0000 0.0000 0.0000 0.0000 0.0000 3.4039
#
#
#
# Elastic Compliance Matrix: (Units=1/GPa)
#
#
# Indices 1 2 3 4 5 6 
#
# 1 0.014036 -0.004060 -0.003117 0.000000 0.000000 0.000000
# 2 -0.004060 0.018801 -0.002421 0.000000 0.000000 0.000000
# 3 -0.003117 -0.002421 0.011205 0.000000 0.000000 0.000000
# 4 0.000000 0.000000 0.000000 0.034174 0.000000 0.000000
# 5 0.000000 0.000000 0.000000 0.000000 0.031627 0.000000
# 6 0.000000 0.000000 0.000000 0.000000 0.000000 0.293782
#
#
# Mechanical properties :
#
#
# Convention : Reuss Voigt Hill
#
# Bulk Modulus (GPa) = 40.24828 42.51776 41.38302
# Shear Modulus (GPa) = 11.59811 24.62171 18.10991
#
# Velocity S-wave (km/s) = 2.36124 3.44038 2.95057
# Velocity P-wave (km/s) = 5.17515 6.01838 5.61262
#
# Compressibility (1/GPa) = 0.02484578
#
# Stress axis : x y z
#
# Youngs Moduli (GPa) = 71.24376 53.18924 89.24243
#
# Poissons Ratio (x) = 0.21596 0.27819
# Poissons Ratio (y) = 0.28926 0.21606
# Poissons Ratio (z) = 0.22208 0.12877
#
# Static dielectric constant tensor:
#      x y z
#    x 3.881080 0.000000 0.000000 
#    y 0.000000 3.646950 0.000000 
#    z 0.000000 0.000000 4.238090 
# 
# 
# High freq. dielectric constant tensor:
#      x y z
#    x 1.814880 0.000000 0.000000 
#    y 0.000000 1.794570 0.000000 
#    z 0.000000 0.000000 1.842090 
# 
# From -- ./inp_files/39221.got.cif
#   From: 2010.03.12/outbox.cif.g09.slc.cpg/sg64_20_cif.got.tgz:39221.got - 2010.04.10 20:19:32.
