data_PCOD8263052
_publ_section_title
;
Structure prediction by ZEFSAII (Michael W. Deem and Ramdas Pophale) SiO2 
 PCOD8263052
Probable space group: C M C A
;
_chemical_formula_sum "Si O2"
_cell_formula_units_Z 112
_cell_length_a 28.788080
_cell_length_b 14.788140
_cell_length_c 13.877448
_cell_angle_alpha 90.000000
_cell_angle_beta 90.000000
_cell_angle_gamma 90.000000
_cell_volume 5907.937101
_symmetry_space_group_name_H-M "C M C A"
_symmetry_group_IT_number 64
_symmetry_cell_setting 'orthorhombic'
loop_
_space_group_symop_operation_xyz
x,y,z
-x,1/2-y,1/2+z
x,-y,-z
-x,1/2+y,1/2-z
-x,-y,-z
x,1/2+y,1/2-z
-x,y,z
x,1/2-y,1/2+z
1/2+x,1/2+y,z
1/2-x,-y,1/2+z
1/2+x,1/2-y,-z
1/2-x,y,1/2-z
1/2-x,1/2-y,-z
1/2+x,y,1/2-z
1/2-x,1/2+y,z
1/2+x,-y,1/2+z
loop_
_atom_site_type_symbol
_atom_site_label
_atom_site_fract_x
_atom_site_fract_y
_atom_site_fract_z
Si Si1 0.405568 0.893746 0.237212
Si Si2 0.000000 0.140010 0.439538
Si Si3 0.000000 0.559129 0.853089
Si Si4 0.403708 0.725794 0.379586
Si Si5 0.213480 0.924881 0.559897
Si Si6 0.652325 0.429992 0.731481
Si Si7 0.718083 0.191745 0.340973
Si Si8 0.851956 0.181501 0.561469
O O1 0.457628 0.924679 0.218901
O O2 0.402609 0.819674 0.321441
O O3 0.390001 0.851885 0.136043
O O4 0.375845 0.982318 0.266908
O O5 0.955732 0.197000 0.405536
O O6 0.000000 0.126826 0.555259
O O7 0.000000 0.043293 0.388842
O O8 0.380377 0.646187 0.316740
O O9 0.375990 0.744426 0.479669
O O10 0.168548 0.096615 0.504865
O O11 0.242038 0.000000 0.500000
O O12 0.193443 0.962518 0.660396
O O13 0.247380 0.840724 0.575289
O O14 0.679594 0.385333 0.820585
O O15 0.750000 0.220035 0.250000
O O16 0.690926 0.276849 0.380688
#
# Coordination Sequence:
#
# PCOD8263052 Si02
#       8
#    16   8   8  16  16  16  16  16
#     4  12  22  40  64  92 124 162 203 251 320 364
#     4  11  21  38  62  96 123 155 208 258 312 364
#     4  11  23  36  68  96 121 159 202 264 310 364
#     4  11  23  38  64  89 124 164 200 254 310 372
#     4  10  20  35  58  85 115 157 206 260 298 346
#     4  10  21  38  59  87 119 158 204 250 303 364
#     4  10  22  41  57  86 125 162 206 254 307 365
#     4  11  22  39  62  87 122 163 207 253 307 368
#
# _framework density 18.957547000000002
#
# number of rings (size 3 to 8) (size 9 to 14) (size 15 to 20)
#    0.000    1.286    5.714    0.857    0.000    1.143 
#    2.571    0.000    0.000    0.000    0.000    4.000 
#    0.000    0.000    0.000    0.000    0.000    0.000 
#
# Total GULP energy -694123.484927 kJ/mol
# GULP energy per Si atom -12395.062231 kJ/mol
# Density = 1.891440 g / cm^3
# Si number density = 18.957547 Si / 1000 Ang^3
#
#
#
# Elastic Constant Matrix: (Units=GPa)
#
#
# Indices 1 2 3 4 5 6 
#
# 1 96.6283 28.2694 25.0473 0.0000 0.0000 0.0000
# 2 28.2694 82.2982 27.5044 0.0000 0.0000 0.0000
# 3 25.0473 27.5044 65.0515 0.0000 0.0000 0.0000
# 4 0.0000 0.0000 0.0000 32.6452 0.0000 0.0000
# 5 0.0000 0.0000 0.0000 0.0000 20.3237 0.0000
# 6 0.0000 0.0000 0.0000 0.0000 0.0000 31.1752
#
#
#
# Elastic Compliance Matrix: (Units=1/GPa)
#
#
# Indices 1 2 3 4 5 6 
#
# 1 0.012112 -0.003030 -0.003383 0.000000 0.000000 0.000000
# 2 -0.003030 0.014908 -0.005137 0.000000 0.000000 0.000000
# 3 -0.003383 -0.005137 0.018847 0.000000 0.000000 0.000000
# 4 0.000000 0.000000 0.000000 0.030632 0.000000 0.000000
# 5 0.000000 0.000000 0.000000 0.000000 0.049204 0.000000
# 6 0.000000 0.000000 0.000000 0.000000 0.000000 0.032077
#
#
# Mechanical properties :
#
#
# Convention : Reuss Voigt Hill
#
# Bulk Modulus (GPa) = 43.91997 45.06892 44.49445
# Shear Modulus (GPa) = 26.52964 27.70596 27.11780
#
# Velocity S-wave (km/s) = 3.74495 3.82707 3.78623
# Velocity P-wave (km/s) = 6.47436 6.58436 6.52959
#
# Compressibility (1/GPa) = 0.02276868
#
# Stress axis : x y z
#
# Youngs Moduli (GPa) = 82.56136 67.07587 53.05970
#
# Poissons Ratio (x) = 0.20325 0.17947
# Poissons Ratio (y) = 0.25017 0.27256
# Poissons Ratio (z) = 0.27926 0.34455
#
# Static dielectric constant tensor:
#      x y z
#    x 3.630190 0.000000 0.000000 
#    y 0.000000 3.305410 0.000000 
#    z 0.000000 0.000000 3.589920 
# 
# 
# High freq. dielectric constant tensor:
#      x y z
#    x 1.748960 0.000000 0.000000 
#    y 0.000000 1.723870 0.000000 
#    z 0.000000 0.000000 1.732900 
# 
# From -- ./inp_files/28118.got.cif
#   From: 2010.03.12/outbox.cif.g09.slc.cpg/sg64_15_cif.got.tgz:28118.got - 2010.04.10 20:19:32.
