data_PCOD8263070
_publ_section_title
;
Structure prediction by ZEFSAII (Michael W. Deem and Ramdas Pophale) SiO2 
 PCOD8263070
Probable space group: C M C A
;
_chemical_formula_sum "Si O2"
_cell_formula_units_Z 64
_cell_length_a 25.027476
_cell_length_b 12.681956
_cell_length_c 9.200910
_cell_angle_alpha 90.000000
_cell_angle_beta 90.000000
_cell_angle_gamma 90.000000
_cell_volume 2920.344446
_symmetry_space_group_name_H-M "C M C A"
_symmetry_group_IT_number 64
_symmetry_cell_setting 'orthorhombic'
loop_
_space_group_symop_operation_xyz
x,y,z
-x,1/2-y,1/2+z
x,-y,-z
-x,1/2+y,1/2-z
-x,-y,-z
x,1/2+y,1/2-z
-x,y,z
x,1/2-y,1/2+z
1/2+x,1/2+y,z
1/2-x,-y,1/2+z
1/2+x,1/2-y,-z
1/2-x,y,1/2-z
1/2-x,1/2-y,-z
1/2+x,y,1/2-z
1/2-x,1/2+y,z
1/2+x,-y,1/2+z
loop_
_atom_site_type_symbol
_atom_site_label
_atom_site_fract_x
_atom_site_fract_y
_atom_site_fract_z
Si Si1 0.061555 0.349944 0.813684
Si Si2 0.633825 0.032969 0.849844
Si Si3 0.207392 0.425844 0.627614
Si Si4 0.620212 0.238233 0.436231
O O1 0.076966 0.470364 0.852333
O O2 0.074748 0.330374 0.644388
O O3 0.000000 0.329957 0.848930
O O4 0.099132 0.268938 0.904569
O O5 0.626746 0.157023 0.839960
O O6 0.665113 0.999738 0.707337
O O7 0.664287 0.000000 0.000000
O O8 0.232286 0.500000 0.500000
O O9 0.250000 0.388538 0.750000
O O10 0.177085 0.323840 0.559819
#
# Coordination Sequence:
#
# PCOD8263070 Si02
#       4
#    16  16  16  16
#     4  10  20  35  59  89 121 158 197 241 296 356
#     4   9  20  38  57  83 117 153 196 244 291 350
#     4  11  23  40  61  86 116 153 198 248 301 356
#     4  10  21  38  59  86 120 156 198 246 295 352
#
# _framework density 21.915223000000001
#
# number of rings (size 3 to 8) (size 9 to 14) (size 15 to 20)
#    0.000    2.000    0.000    3.000    0.000    6.500 
#    0.000   13.750    0.000    8.250    0.000    0.000 
#    0.000    0.000    0.000    0.000    0.000    0.000 
#
# Total GULP energy -396530.674206 kJ/mol
# GULP energy per Si atom -12391.583569 kJ/mol
# Density = 2.186534 g / cm^3
# Si number density = 21.915223 Si / 1000 Ang^3
#
#
#
# Elastic Constant Matrix: (Units=GPa)
#
#
# Indices 1 2 3 4 5 6 
#
# 1 114.8568 33.6415 19.2947 0.0000 0.0000 0.0000
# 2 33.6415 113.5510 17.6897 0.0000 0.0000 0.0000
# 3 19.2947 17.6897 63.5197 0.0000 0.0000 0.0000
# 4 0.0000 0.0000 0.0000 28.8878 0.0000 0.0000
# 5 0.0000 0.0000 0.0000 0.0000 29.6125 0.0000
# 6 0.0000 0.0000 0.0000 0.0000 0.0000 15.0196
#
#
#
# Elastic Compliance Matrix: (Units=1/GPa)
#
#
# Indices 1 2 3 4 5 6 
#
# 1 0.009839 -0.002560 -0.002276 0.000000 0.000000 0.000000
# 2 -0.002560 0.009872 -0.001972 0.000000 0.000000 0.000000
# 3 -0.002276 -0.001972 0.016983 0.000000 0.000000 0.000000
# 4 0.000000 0.000000 0.000000 0.034617 0.000000 0.000000
# 5 0.000000 0.000000 0.000000 0.000000 0.033770 0.000000
# 6 0.000000 0.000000 0.000000 0.000000 0.000000 0.066580
#
#
# Mechanical properties :
#
#
# Convention : Reuss Voigt Hill
#
# Bulk Modulus (GPa) = 43.32874 48.13102 45.72988
# Shear Modulus (GPa) = 25.91096 29.45743 27.68419
#
# Velocity S-wave (km/s) = 3.44223 3.67025 3.55807
# Velocity P-wave (km/s) = 5.96763 6.32226 6.14750
#
# Compressibility (1/GPa) = 0.02307937
#
# Stress axis : x y z
#
# Youngs Moduli (GPa) = 101.63951 101.29325 58.88085
#
# Poissons Ratio (x) = 0.25935 0.13399
# Poissons Ratio (y) = 0.26024 0.11609
# Poissons Ratio (z) = 0.23129 0.19971
#
# Static dielectric constant tensor:
#      x y z
#    x 3.620830 0.000000 0.000000 
#    y 0.000000 3.968280 0.000000 
#    z 0.000000 0.000000 4.006110 
# 
# 
# High freq. dielectric constant tensor:
#      x y z
#    x 1.836270 0.000000 0.000000 
#    y 0.000000 1.860250 0.000000 
#    z 0.000000 0.000000 1.875010 
# 
# From -- ./inp_files/8960.got.cif
#   From: 2010.03.12/outbox.cif.g09.slc.cpg/sg64_5_cif.got.tgz:8960.got - 2010.04.10 20:19:32.
