data_PCOD8263384
_publ_section_title
;
Structure prediction by ZEFSAII (Michael W. Deem and Ramdas Pophale) SiO2 
 PCOD8263384
Probable space group: C M C A
;
_chemical_formula_sum "Si O2"
_cell_formula_units_Z 96
_cell_length_a 9.182071
_cell_length_b 20.177406
_cell_length_c 27.964723
_cell_angle_alpha 90.000000
_cell_angle_beta 90.000000
_cell_angle_gamma 90.000000
_cell_volume 5181.034703
_symmetry_space_group_name_H-M "C M C A"
_symmetry_group_IT_number 64
_symmetry_cell_setting 'orthorhombic'
loop_
_space_group_symop_operation_xyz
x,y,z
-x,1/2-y,1/2+z
x,-y,-z
-x,1/2+y,1/2-z
-x,-y,-z
x,1/2+y,1/2-z
-x,y,z
x,1/2-y,1/2+z
1/2+x,1/2+y,z
1/2-x,-y,1/2+z
1/2+x,1/2-y,-z
1/2-x,y,1/2-z
1/2-x,1/2-y,-z
1/2+x,y,1/2-z
1/2-x,1/2+y,z
1/2+x,-y,1/2+z
loop_
_atom_site_type_symbol
_atom_site_label
_atom_site_fract_x
_atom_site_fract_y
_atom_site_fract_z
Si Si1 0.327703 0.508606 0.897853
Si Si2 0.331416 0.229244 0.399878
Si Si3 0.667535 0.197832 0.295422
Si Si4 0.670374 0.390569 0.551439
Si Si5 0.332069 0.628459 0.559510
Si Si6 0.669745 0.953823 0.703712
O O1 0.500000 0.503121 0.905501
O O2 0.250529 0.457304 0.933186
O O3 0.272045 0.581795 0.909594
O O4 0.283485 0.494118 0.843205
O O5 0.500000 0.208309 0.407047
O O6 0.298013 0.238865 0.343485
O O7 0.230451 0.172011 0.420188
O O8 0.293125 0.296546 0.426883
O O9 0.500000 0.200859 0.281894
O O10 0.750000 0.229421 0.250000
O O11 0.717816 0.122185 0.304378
O O12 0.500000 0.397863 0.562178
O O13 0.702481 0.380583 0.495882
O O14 0.500000 0.612131 0.571327
O O15 0.500000 0.960004 0.713379
O O16 0.750000 0.984155 0.750000
#
# Coordination Sequence:
#
# PCOD8263384 Si02
#       6
#    16  16  16  16  16  16
#     4  11  22  38  58  82 112 147 186 228 275 328
#     4  10  20  38  59  80 112 148 182 224 277 328
#     4   9  17  32  54  80 107 137 177 223 270 324
#     4  11  22  36  57  84 111 143 190 234 270 323
#     4  10  23  39  55  80 115 151 184 226 278 328
#     4   9  18  33  54  81 107 136 179 225 271 324
#
# _framework density 18.529118
#
# number of rings (size 3 to 8) (size 9 to 14) (size 15 to 20)
#    0.000    2.000    1.667    2.000    0.000    6.000 
#    0.000    0.833    0.000    4.000    0.000    0.000 
#    0.000    0.000    0.000    0.000    0.000    0.000 
#
# Total GULP energy -595353.268101 kJ/mol
# GULP energy per Si atom -12403.193085 kJ/mol
# Density = 1.848695 g / cm^3
# Si number density = 18.529118 Si / 1000 Ang^3
#
#
#
# Elastic Constant Matrix: (Units=GPa)
#
#
# Indices 1 2 3 4 5 6 
#
# 1 57.2351 18.1417 35.5171 0.0000 0.0000 0.0000
# 2 18.1417 42.6808 11.9781 0.0000 0.0000 0.0000
# 3 35.5171 11.9781 92.3066 0.0000 0.0000 0.0000
# 4 0.0000 0.0000 0.0000 0.2358 0.0000 0.0000
# 5 0.0000 0.0000 0.0000 0.0000 34.4231 0.0000
# 6 0.0000 0.0000 0.0000 0.0000 0.0000 26.5005
#
#
#
# Elastic Compliance Matrix: (Units=1/GPa)
#
#
# Indices 1 2 3 4 5 6 
#
# 1 0.025565 -0.008412 -0.008745 0.000000 0.000000 0.000000
# 2 -0.008412 0.027083 -0.000278 0.000000 0.000000 0.000000
# 3 -0.008745 -0.000278 0.014234 0.000000 0.000000 0.000000
# 4 0.000000 0.000000 0.000000 4.241531 0.000000 0.000000
# 5 0.000000 0.000000 0.000000 0.000000 0.029050 0.000000
# 6 0.000000 0.000000 0.000000 0.000000 0.000000 0.037735
#
#
# Mechanical properties :
#
#
# Convention : Reuss Voigt Hill
#
# Bulk Modulus (GPa) = 31.23762 35.94403 33.59083
# Shear Modulus (GPa) = 1.13103 20.67092 10.90098
#
# Velocity S-wave (km/s) = 0.78213 3.34367 2.42815
# Velocity P-wave (km/s) = 4.20843 5.86068 5.10189
#
# Compressibility (1/GPa) = 0.03201268
#
# Stress axis : x y z
#
# Youngs Moduli (GPa) = 39.11603 36.92310 70.25250
#
# Poissons Ratio (x) = 0.31061 0.61437
# Poissons Ratio (y) = 0.32905 0.01951
# Poissons Ratio (z) = 0.34207 0.01025
#
# Static dielectric constant tensor:
#      x y z
#    x 3.436450 0.000000 0.000000 
#    y 0.000000 3.270340 0.000000 
#    z 0.000000 0.000000 3.624700 
# 
# 
# High freq. dielectric constant tensor:
#      x y z
#    x 1.719970 0.000000 0.000000 
#    y 0.000000 1.700380 0.000000 
#    z 0.000000 0.000000 1.733960 
# 
# From -- ./inp_files/48024.got.cif
#   From: 2010.03.12/outbox.cif.g09.slc.cpg/sg64_25_cif.got.tgz:48024.got - 2010.04.10 20:19:32.
