data_PCOD8263559
_publ_section_title
;
Structure prediction by ZEFSAII (Michael W. Deem and Ramdas Pophale) SiO2 
 PCOD8263559
Probable space group: C M C A
;
_chemical_formula_sum "Si O2"
_cell_formula_units_Z 112
_cell_length_a 25.904033
_cell_length_b 14.739638
_cell_length_c 12.817339
_cell_angle_alpha 90.000000
_cell_angle_beta 90.000000
_cell_angle_gamma 90.000000
_cell_volume 4893.865994
_symmetry_space_group_name_H-M "C M C A"
_symmetry_group_IT_number 64
_symmetry_cell_setting 'orthorhombic'
loop_
_space_group_symop_operation_xyz
x,y,z
-x,1/2-y,1/2+z
x,-y,-z
-x,1/2+y,1/2-z
-x,-y,-z
x,1/2+y,1/2-z
-x,y,z
x,1/2-y,1/2+z
1/2+x,1/2+y,z
1/2-x,-y,1/2+z
1/2+x,1/2-y,-z
1/2-x,y,1/2-z
1/2-x,1/2-y,-z
1/2+x,y,1/2-z
1/2-x,1/2+y,z
1/2+x,-y,1/2+z
loop_
_atom_site_type_symbol
_atom_site_label
_atom_site_fract_x
_atom_site_fract_y
_atom_site_fract_z
Si Si1 0.784422 0.457244 0.652320
Si Si2 0.439367 0.283234 0.847647
Si Si3 0.560591 0.409032 0.271495
Si Si4 0.799255 0.167066 0.441400
Si Si5 0.377896 0.587307 0.288255
Si Si6 0.260731 0.850036 0.371151
Si Si7 0.938841 0.402847 0.464312
O O1 0.750000 0.486194 0.750000
O O2 0.755835 0.376408 0.592833
O O3 0.839995 0.424169 0.690006
O O4 0.787878 0.554712 0.593289
O O5 0.500000 0.297442 0.837441
O O6 0.425474 0.176670 0.844345
O O7 0.416748 0.333941 0.746326
O O8 0.418267 0.324609 0.956968
O O9 0.500000 0.432678 0.274675
O O10 0.591732 0.495118 0.314107
O O11 0.578434 0.383790 0.153950
O O12 0.848067 0.113986 0.394605
O O13 0.794688 0.160022 0.567515
O O14 0.800540 0.270988 0.404285
O O15 0.250000 0.837756 0.250000
O O16 0.916022 0.500000 0.500000
O O17 0.000000 0.405531 0.471899
#
# Coordination Sequence:
#
# PCOD8263559 Si02
#       7
#    16  16  16  16  16  16  16
#     4   9  20  38  60  88 123 164 206 265 325 397
#     4  10  21  38  64  97 140 183 230 296 350 411
#     4  10  21  38  65 100 138 182 228 288 356 411
#     4  10  22  40  61  96 128 168 213 277 341 403
#     4  11  21  37  64  96 136 169 230 281 341 415
#     4  10  20  40  68  85 123 174 211 257 333 408
#     4   9  16  34  61  90 126 174 230 286 346 405
#
# _framework density 22.885793
#
# number of rings (size 3 to 8) (size 9 to 14) (size 15 to 20)
#    0.000    2.143    1.429    2.143    2.000    0.000 
#    7.714    1.429    9.429    0.000    0.000    5.000 
#    0.000    0.000    0.000    0.000    0.000    0.000 
#
# Total GULP energy -694176.365007 kJ/mol
# GULP energy per Si atom -12396.006518 kJ/mol
# Density = 2.283370 g / cm^3
# Si number density = 22.885793 Si / 1000 Ang^3
#
#
#
# Elastic Constant Matrix: (Units=GPa)
#
#
# Indices 1 2 3 4 5 6 
#
# 1 62.5754 44.8820 26.6429 0.0000 0.0000 0.0000
# 2 44.8820 147.2661 36.1608 0.0000 0.0000 0.0000
# 3 26.6429 36.1608 99.8706 0.0000 0.0000 0.0000
# 4 0.0000 0.0000 0.0000 30.2077 0.0000 0.0000
# 5 0.0000 0.0000 0.0000 0.0000 28.0725 0.0000
# 6 0.0000 0.0000 0.0000 0.0000 0.0000 26.8117
#
#
#
# Elastic Compliance Matrix: (Units=1/GPa)
#
#
# Indices 1 2 3 4 5 6 
#
# 1 0.021638 -0.005682 -0.003715 0.000000 0.000000 0.000000
# 2 -0.005682 0.008945 -0.001723 0.000000 0.000000 0.000000
# 3 -0.003715 -0.001723 0.011628 0.000000 0.000000 0.000000
# 4 0.000000 0.000000 0.000000 0.033104 0.000000 0.000000
# 5 0.000000 0.000000 0.000000 0.000000 0.035622 0.000000
# 6 0.000000 0.000000 0.000000 0.000000 0.000000 0.037297
#
#
# Mechanical properties :
#
#
# Convention : Reuss Voigt Hill
#
# Bulk Modulus (GPa) = 50.07380 58.34263 54.20822
# Shear Modulus (GPa) = 28.22748 30.48681 29.35715
#
# Velocity S-wave (km/s) = 3.51580 3.65379 3.58546
# Velocity P-wave (km/s) = 6.19746 6.58396 6.39363
#
# Compressibility (1/GPa) = 0.01997052
#
# Stress axis : x y z
#
# Youngs Moduli (GPa) = 46.21465 111.79033 86.00022
#
# Poissons Ratio (x) = 0.63524 0.31949
# Poissons Ratio (y) = 0.26261 0.14818
# Poissons Ratio (z) = 0.17169 0.19261
#
# Static dielectric constant tensor:
#      x y z
#    x 3.848360 0.000000 0.000000 
#    y 0.000000 4.317780 0.000000 
#    z 0.000000 0.000000 4.254010 
# 
# 
# High freq. dielectric constant tensor:
#      x y z
#    x 1.877740 0.000000 0.000000 
#    y 0.000000 1.919250 0.000000 
#    z 0.000000 0.000000 1.896860 
# 
# From -- ./inp_files/28058.got.cif
#   From: 2010.03.12/outbox.cif.g09.slc.cpg/sg64_15_cif.got.tgz:28058.got - 2010.04.10 20:19:32.
