data_PCOD8263691
_publ_section_title
;
Structure prediction by ZEFSAII (Michael W. Deem and Ramdas Pophale) SiO2 
 PCOD8263691
Probable space group: C M C A
;
_chemical_formula_sum "Si O2"
_cell_formula_units_Z 96
_cell_length_a 16.802838
_cell_length_b 24.032380
_cell_length_c 11.697185
_cell_angle_alpha 90.000000
_cell_angle_beta 90.000000
_cell_angle_gamma 90.000000
_cell_volume 4723.465867
_symmetry_space_group_name_H-M "C M C A"
_symmetry_group_IT_number 64
_symmetry_cell_setting 'orthorhombic'
loop_
_space_group_symop_operation_xyz
x,y,z
-x,1/2-y,1/2+z
x,-y,-z
-x,1/2+y,1/2-z
-x,-y,-z
x,1/2+y,1/2-z
-x,y,z
x,1/2-y,1/2+z
1/2+x,1/2+y,z
1/2-x,-y,1/2+z
1/2+x,1/2-y,-z
1/2-x,y,1/2-z
1/2-x,1/2-y,-z
1/2+x,y,1/2-z
1/2-x,1/2+y,z
1/2+x,-y,1/2+z
loop_
_atom_site_type_symbol
_atom_site_label
_atom_site_fract_x
_atom_site_fract_y
_atom_site_fract_z
Si Si1 0.592591 0.324452 0.876903
Si Si2 0.407054 0.296040 0.325471
Si Si3 0.092846 0.599966 0.972201
Si Si4 0.660290 0.912900 0.782999
Si Si5 0.094311 0.365875 0.384196
Si Si6 0.843237 0.961493 0.253581
O O1 0.500000 0.315046 0.898401
O O2 0.632135 0.264366 0.848723
O O3 0.603699 0.367032 0.773357
O O4 0.631038 0.349089 0.993191
O O5 0.500000 0.288494 0.302905
O O6 0.392165 0.336491 0.433120
O O7 0.369855 0.323708 0.211191
O O8 0.147811 0.588436 0.081182
O O9 0.000000 0.589902 0.000929
O O10 0.118517 0.557717 0.872905
O O11 0.750000 0.897385 0.750000
O O12 0.637561 0.973619 0.735389
O O13 0.118923 0.428711 0.353018
O O14 0.000000 0.363174 0.385212
O O15 0.750000 0.950028 0.250000
#
# Coordination Sequence:
#
# PCOD8263691 Si02
#       6
#    16  16  16  16  16  16
#     4  10  21  36  59  87 116 154 190 234 292 350
#     4   8  17  35  60  87 114 147 191 240 289 340
#     4  10  21  40  66  90 113 154 207 249 284 344
#     4  11  25  39  55  86 122 154 194 241 295 351
#     4   9  19  36  59  86 114 147 194 238 282 351
#     4  10  22  39  61  83 116 157 191 240 301 349
#
# _framework density 20.324058999999998
#
# number of rings (size 3 to 8) (size 9 to 14) (size 15 to 20)
#    0.000    2.333    0.000    2.500    4.667    4.000 
#    0.000    5.833    0.000    0.000    0.000    0.000 
#    0.000    0.000    0.000    0.000    0.000    0.000 
#
# Total GULP energy -595197.272794 kJ/mol
# GULP energy per Si atom -12399.943183 kJ/mol
# Density = 2.027780 g / cm^3
# Si number density = 20.324059 Si / 1000 Ang^3
#
#
#
# Elastic Constant Matrix: (Units=GPa)
#
#
# Indices 1 2 3 4 5 6 
#
# 1 44.3259 18.1243 11.3382 0.0000 0.0000 0.0000
# 2 18.1243 133.2689 28.0579 0.0000 0.0000 0.0000
# 3 11.3382 28.0579 59.1912 0.0000 0.0000 0.0000
# 4 0.0000 0.0000 0.0000 24.1726 0.0000 0.0000
# 5 0.0000 0.0000 0.0000 0.0000 28.0058 0.0000
# 6 0.0000 0.0000 0.0000 0.0000 0.0000 9.4096
#
#
#
# Elastic Compliance Matrix: (Units=1/GPa)
#
#
# Indices 1 2 3 4 5 6 
#
# 1 0.024510 -0.002605 -0.003460 0.000000 0.000000 0.000000
# 2 -0.002605 0.008612 -0.003583 0.000000 0.000000 0.000000
# 3 -0.003460 -0.003583 0.019256 0.000000 0.000000 0.000000
# 4 0.000000 0.000000 0.000000 0.041369 0.000000 0.000000
# 5 0.000000 0.000000 0.000000 0.000000 0.035707 0.000000
# 6 0.000000 0.000000 0.000000 0.000000 0.000000 0.106274
#
#
# Mechanical properties :
#
#
# Convention : Reuss Voigt Hill
#
# Bulk Modulus (GPa) = 30.22845 39.09187 34.66016
# Shear Modulus (GPa) = 18.79326 24.26866 21.53096
#
# Velocity S-wave (km/s) = 3.04415 3.45930 3.25835
# Velocity P-wave (km/s) = 5.22124 5.93563 5.58986
#
# Compressibility (1/GPa) = 0.03308142
#
# Stress axis : x y z
#
# Youngs Moduli (GPa) = 40.79909 116.11255 51.93224
#
# Poissons Ratio (x) = 0.30246 0.17970
# Poissons Ratio (y) = 0.10628 0.18610
# Poissons Ratio (z) = 0.14117 0.41609
#
# Static dielectric constant tensor:
#      x y z
#    x 3.375000 0.000000 0.000000 
#    y 0.000000 3.935630 0.000000 
#    z 0.000000 0.000000 3.876290 
# 
# 
# High freq. dielectric constant tensor:
#      x y z
#    x 1.765470 0.000000 0.000000 
#    y 0.000000 1.806020 0.000000 
#    z 0.000000 0.000000 1.795730 
# 
# From -- ./inp_files/16182.got.cif
#   From: 2010.03.12/outbox.cif.g09.slc.cpg/sg64_9_cif.got.tgz:16182.got - 2010.04.10 20:19:32.
