data_PCOD8263824
_publ_section_title
;
Structure prediction by ZEFSAII (Michael W. Deem and Ramdas Pophale) SiO2 
 PCOD8263824
Probable space group: C M C A
;
_chemical_formula_sum "Si O2"
_cell_formula_units_Z 96
_cell_length_a 15.617270
_cell_length_b 15.106972
_cell_length_c 20.394602
_cell_angle_alpha 90.000000
_cell_angle_beta 90.000000
_cell_angle_gamma 90.000000
_cell_volume 4811.691528
_symmetry_space_group_name_H-M "C M C A"
_symmetry_group_IT_number 64
_symmetry_cell_setting 'orthorhombic'
loop_
_space_group_symop_operation_xyz
x,y,z
-x,1/2-y,1/2+z
x,-y,-z
-x,1/2+y,1/2-z
-x,-y,-z
x,1/2+y,1/2-z
-x,y,z
x,1/2-y,1/2+z
1/2+x,1/2+y,z
1/2-x,-y,1/2+z
1/2+x,1/2-y,-z
1/2-x,y,1/2-z
1/2-x,1/2-y,-z
1/2+x,y,1/2-z
1/2-x,1/2+y,z
1/2+x,-y,1/2+z
loop_
_atom_site_type_symbol
_atom_site_label
_atom_site_fract_x
_atom_site_fract_y
_atom_site_fract_z
Si Si1 0.753059 0.440426 0.561105
Si Si2 0.097615 0.304315 0.559597
Si Si3 0.098784 0.322378 0.790858
Si Si4 0.902811 0.686484 0.061639
Si Si5 0.811488 0.491655 0.192706
Si Si6 0.401844 0.190004 0.816833
O O1 0.777654 0.500000 0.500000
O O2 0.834934 0.379896 0.575226
O O3 0.665353 0.389056 0.544280
O O4 0.740770 0.499481 0.625393
O O5 0.112353 0.269532 0.485863
O O6 0.116683 0.225185 0.610243
O O7 0.000000 0.339597 0.568283
O O8 0.110944 0.281052 0.863606
O O9 0.143760 0.417208 0.786849
O O10 0.141600 0.254600 0.738221
O O11 0.000000 0.339863 0.774570
O O12 0.000000 0.648936 0.052260
O O13 0.750000 0.460934 0.250000
O O14 0.877296 0.411992 0.185133
O O15 0.500000 0.192961 0.798371
#
# Coordination Sequence:
#
# PCOD8263824 Si02
#       6
#    16  16  16  16  16  16
#     4  11  23  37  56  84 116 151 189 235 287 340
#     4  10  21  38  59  82 111 151 195 238 287 340
#     4   9  19  37  58  81 112 148 187 234 285 339
#     4   9  19  36  59  84 110 144 186 234 287 340
#     4  11  23  36  55  85 115 148 189 232 285 346
#     4  10  21  38  60  83 110 149 193 239 289 339
#
# _framework density 19.951402999999999
#
# number of rings (size 3 to 8) (size 9 to 14) (size 15 to 20)
#    0.000    2.000    0.000    3.000    0.000    6.000 
#    0.000    0.833    0.000    0.000    0.000    0.000 
#    0.000    0.000    0.000    0.000    0.000    0.000 
#
# Total GULP energy -595167.783187 kJ/mol
# GULP energy per Si atom -12399.328816 kJ/mol
# Density = 1.990599 g / cm^3
# Si number density = 19.951403 Si / 1000 Ang^3
#
#
#
# Elastic Constant Matrix: (Units=GPa)
#
#
# Indices 1 2 3 4 5 6 
#
# 1 66.5449 37.8768 35.2153 0.0000 0.0000 0.0000
# 2 37.8768 110.4034 49.7784 0.0000 0.0000 0.0000
# 3 35.2153 49.7784 108.4713 0.0000 0.0000 0.0000
# 4 0.0000 0.0000 0.0000 35.5586 0.0000 0.0000
# 5 0.0000 0.0000 0.0000 0.0000 25.1061 0.0000
# 6 0.0000 0.0000 0.0000 0.0000 0.0000 34.5222
#
#
#
# Elastic Compliance Matrix: (Units=1/GPa)
#
#
# Indices 1 2 3 4 5 6 
#
# 1 0.020110 -0.004988 -0.004240 0.000000 0.000000 0.000000
# 2 -0.004988 0.012658 -0.004190 0.000000 0.000000 0.000000
# 3 -0.004240 -0.004190 0.012518 0.000000 0.000000 0.000000
# 4 0.000000 0.000000 0.000000 0.028123 0.000000 0.000000
# 5 0.000000 0.000000 0.000000 0.000000 0.039831 0.000000
# 6 0.000000 0.000000 0.000000 0.000000 0.000000 0.028967
#
#
# Mechanical properties :
#
#
# Convention : Reuss Voigt Hill
#
# Bulk Modulus (GPa) = 54.19495 59.01786 56.60641
# Shear Modulus (GPa) = 28.54025 29.87398 29.20711
#
# Velocity S-wave (km/s) = 3.78628 3.87374 3.83026
# Velocity P-wave (km/s) = 6.80713 7.04648 6.92784
#
# Compressibility (1/GPa) = 0.01845190
#
# Stress axis : x y z
#
# Youngs Moduli (GPa) = 49.72626 79.00271 79.88412
#
# Poissons Ratio (x) = 0.39404 0.33870
# Poissons Ratio (y) = 0.24802 0.33468
# Poissons Ratio (z) = 0.21083 0.33098
#
# Static dielectric constant tensor:
#      x y z
#    x 3.651730 0.000000 0.000000 
#    y 0.000000 3.410740 0.000000 
#    z 0.000000 0.000000 3.915040 
# 
# 
# High freq. dielectric constant tensor:
#      x y z
#    x 1.781400 0.000000 0.000000 
#    y 0.000000 1.760490 0.000000 
#    z 0.000000 0.000000 1.797490 
# 
# From -- ./inp_files/39160.got.cif
#   From: 2010.03.12/outbox.cif.g09.slc.cpg/sg64_20_cif.got.tgz:39160.got - 2010.04.10 20:19:32.
