data_PCOD8263804
_publ_section_title
;
Structure prediction by ZEFSAII (Michael W. Deem and Ramdas Pophale) SiO2 
 PCOD8263804
Probable space group: C M C A
;
_chemical_formula_sum "Si O2"
_cell_formula_units_Z 72
_cell_length_a 25.709905
_cell_length_b 31.440085
_cell_length_c 5.063169
_cell_angle_alpha 90.000000
_cell_angle_beta 90.000000
_cell_angle_gamma 90.000000
_cell_volume 4092.668860
_symmetry_space_group_name_H-M "C M C A"
_symmetry_group_IT_number 64
_symmetry_cell_setting 'orthorhombic'
loop_
_space_group_symop_operation_xyz
x,y,z
-x,1/2-y,1/2+z
x,-y,-z
-x,1/2+y,1/2-z
-x,-y,-z
x,1/2+y,1/2-z
-x,y,z
x,1/2-y,1/2+z
1/2+x,1/2+y,z
1/2-x,-y,1/2+z
1/2+x,1/2-y,-z
1/2-x,y,1/2-z
1/2-x,1/2-y,-z
1/2+x,y,1/2-z
1/2-x,1/2+y,z
1/2+x,-y,1/2+z
loop_
_atom_site_type_symbol
_atom_site_label
_atom_site_fract_x
_atom_site_fract_y
_atom_site_fract_z
Si Si1 0.717935 0.000000 0.000000
Si Si2 0.654292 0.418918 0.662121
Si Si3 0.940838 0.028578 0.243849
Si Si4 0.810117 0.370638 0.326765
Si Si5 0.811698 0.274117 0.268224
O O1 0.684018 0.036861 0.128622
O O2 0.750000 0.981046 0.250000
O O3 0.594866 0.429425 0.739958
O O4 0.654057 0.393792 0.387726
O O5 0.682113 0.391005 0.886103
O O6 0.000000 0.044354 0.206328
O O7 0.934179 0.000000 0.500000
O O8 0.922221 0.000000 0.000000
O O9 0.750000 0.374795 0.250000
O O10 0.828968 0.321946 0.333856
O O11 0.834484 0.242589 0.491569
O O12 0.750000 0.271438 0.250000
#
# Coordination Sequence:
#
# PCOD8263804 Si02
#       5
#     8  16  16  16  16
#     4  12  24  34  47  68 103 146 178 198 234 298
#     4  12  22  35  51  72 103 135 175 212 250 296
#     4  10  21  38  56  72  92 127 176 224 264 292
#     4  11  22  34  49  76 108 138 167 207 249 294
#     4   9  17  31  50  69  96 133 169 201 243 295
#
# _framework density 17.592433
#
# number of rings (size 3 to 8) (size 9 to 14) (size 15 to 20)
#    0.000    1.333    1.111    6.667    1.556    3.556 
#    0.000    0.000    0.000    0.000    0.000    0.000 
#    0.000   17.778    0.000    0.000    0.000    0.000 
#
# Total GULP energy -446484.214498 kJ/mol
# GULP energy per Si atom -12402.339292 kJ/mol
# Density = 1.755239 g / cm^3
# Si number density = 17.592433 Si / 1000 Ang^3
#
#
#
# Elastic Constant Matrix: (Units=GPa)
#
#
# Indices 1 2 3 4 5 6 
#
# 1 56.9892 25.6636 7.8638 0.0000 0.0000 0.0000
# 2 25.6636 116.9022 38.7787 0.0000 0.0000 0.0000
# 3 7.8638 38.7787 109.8018 0.0000 0.0000 0.0000
# 4 0.0000 0.0000 0.0000 36.2940 0.0000 0.0000
# 5 0.0000 0.0000 0.0000 0.0000 23.1634 0.0000
# 6 0.0000 0.0000 0.0000 0.0000 0.0000 8.6572
#
#
#
# Elastic Compliance Matrix: (Units=1/GPa)
#
#
# Indices 1 2 3 4 5 6 
#
# 1 0.019474 -0.004318 0.000130 0.000000 0.000000 0.000000
# 2 -0.004318 0.010647 -0.003451 0.000000 0.000000 0.000000
# 3 0.000130 -0.003451 0.010317 0.000000 0.000000 0.000000
# 4 0.000000 0.000000 0.000000 0.027553 0.000000 0.000000
# 5 0.000000 0.000000 0.000000 0.000000 0.043172 0.000000
# 6 0.000000 0.000000 0.000000 0.000000 0.000000 0.115511
#
#
# Mechanical properties :
#
#
# Convention : Reuss Voigt Hill
#
# Bulk Modulus (GPa) = 39.74588 47.58948 43.66768
# Shear Modulus (GPa) = 19.97308 27.71538 23.84423
#
# Velocity S-wave (km/s) = 3.37311 3.97346 3.68553
# Velocity P-wave (km/s) = 6.14916 6.93981 6.55641
#
# Compressibility (1/GPa) = 0.02515984
#
# Stress axis : x y z
#
# Youngs Moduli (GPa) = 51.35089 93.92407 96.92989
#
# Poissons Ratio (x) = 0.40560 -0.01264
# Poissons Ratio (y) = 0.22175 0.33450
# Poissons Ratio (z) = -0.00670 0.32412
#
# Static dielectric constant tensor:
#      x y z
#    x 3.080910 0.000000 0.000000 
#    y 0.000000 3.317670 0.000000 
#    z 0.000000 0.000000 3.591370 
# 
# 
# High freq. dielectric constant tensor:
#      x y z
#    x 1.632230 0.000000 0.000000 
#    y 0.000000 1.674500 0.000000 
#    z 0.000000 0.000000 1.709480 
# 
# From -- ./inp_files/2275.got.cif
#   From: 2010.03.12/outbox.cif.g09.slc.cpg/sg64_2_cif.got.tgz:2275.got - 2010.04.10 20:19:32.
