data_PCOD8263584
_publ_section_title
;
Structure prediction by ZEFSAII (Michael W. Deem and Ramdas Pophale) SiO2 
 PCOD8263584
Probable space group: C M C A
;
_chemical_formula_sum "Si O2"
_cell_formula_units_Z 112
_cell_length_a 14.138173
_cell_length_b 27.519914
_cell_length_c 12.278117
_cell_angle_alpha 90.000000
_cell_angle_beta 90.000000
_cell_angle_gamma 90.000000
_cell_volume 4777.185786
_symmetry_space_group_name_H-M "C M C A"
_symmetry_group_IT_number 64
_symmetry_cell_setting 'orthorhombic'
loop_
_space_group_symop_operation_xyz
x,y,z
-x,1/2-y,1/2+z
x,-y,-z
-x,1/2+y,1/2-z
-x,-y,-z
x,1/2+y,1/2-z
-x,y,z
x,1/2-y,1/2+z
1/2+x,1/2+y,z
1/2-x,-y,1/2+z
1/2+x,1/2-y,-z
1/2-x,y,1/2-z
1/2-x,1/2-y,-z
1/2+x,y,1/2-z
1/2-x,1/2+y,z
1/2+x,-y,1/2+z
loop_
_atom_site_type_symbol
_atom_site_label
_atom_site_fract_x
_atom_site_fract_y
_atom_site_fract_z
Si Si1 0.607866 0.893436 0.456865
Si Si2 0.102058 0.656824 0.919235
Si Si3 0.110637 0.381148 0.704261
Si Si4 0.113483 0.531850 0.146023
Si Si5 0.850003 0.308348 0.293883
Si Si6 0.387329 0.297441 0.639593
Si Si7 0.797282 0.938547 0.418206
O O1 0.500000 0.914431 0.454827
O O2 0.639527 0.878122 0.578589
O O3 0.610727 0.845256 0.384104
O O4 0.681994 0.935660 0.420510
O O5 0.085397 0.691891 0.815020
O O6 0.167544 0.613331 0.876391
O O7 0.000000 0.636516 0.957658
O O8 0.148480 0.684792 0.020951
O O9 0.144525 0.432241 0.756608
O O10 0.153072 0.335375 0.770736
O O11 0.000000 0.377965 0.720179
O O12 0.165770 0.479989 0.164873
O O13 0.000000 0.524970 0.138209
O O14 0.154966 0.553586 0.035144
O O15 0.750000 0.326319 0.250000
O O16 0.841720 0.254890 0.343132
O O17 0.500000 0.291863 0.642997
#
# Coordination Sequence:
#
# PCOD8263584 Si02
#       7
#    16  16  16  16  16  16  16
#     4  11  25  46  67  97 148 192 231 288 352 425
#     4  11  22  41  67  98 138 183 234 290 346 407
#     4   9  20  41  70 102 143 189 227 279 353 418
#     4  10  20  41  73 110 142 174 229 297 354 412
#     4  12  26  44  65  99 140 185 242 284 347 413
#     4  10  22  40  66 101 140 184 232 285 348 413
#     4  11  21  39  69 104 137 181 232 289 350 413
#
# _framework density 23.444766000000001
#
# number of rings (size 3 to 8) (size 9 to 14) (size 15 to 20)
#    0.000    1.429    2.857    3.000    2.000    2.286 
#    0.000    7.143    0.000    3.429    0.000    1.000 
#    0.000    0.000    0.000    0.000    0.000    0.000 
#
# Total GULP energy -694153.757704 kJ/mol
# GULP energy per Si atom -12395.602816 kJ/mol
# Density = 2.339140 g / cm^3
# Si number density = 23.444766 Si / 1000 Ang^3
#
#
#
# Elastic Constant Matrix: (Units=GPa)
#
#
# Indices 1 2 3 4 5 6 
#
# 1 117.9505 43.3865 24.8055 0.0000 0.0000 0.0000
# 2 43.3865 121.8203 50.6813 0.0000 0.0000 0.0000
# 3 24.8055 50.6813 124.7029 0.0000 0.0000 0.0000
# 4 0.0000 0.0000 0.0000 14.2194 0.0000 0.0000
# 5 0.0000 0.0000 0.0000 0.0000 18.7216 0.0000
# 6 0.0000 0.0000 0.0000 0.0000 0.0000 29.8508
#
#
#
# Elastic Compliance Matrix: (Units=1/GPa)
#
#
# Indices 1 2 3 4 5 6 
#
# 1 0.009798 -0.003224 -0.000639 0.000000 0.000000 0.000000
# 2 -0.003224 0.010940 -0.003805 0.000000 0.000000 0.000000
# 3 -0.000639 -0.003805 0.009693 0.000000 0.000000 0.000000
# 4 0.000000 0.000000 0.000000 0.070326 0.000000 0.000000
# 5 0.000000 0.000000 0.000000 0.000000 0.053414 0.000000
# 6 0.000000 0.000000 0.000000 0.000000 0.000000 0.033500
#
#
# Mechanical properties :
#
#
# Convention : Reuss Voigt Hill
#
# Bulk Modulus (GPa) = 66.24456 66.91338 66.57897
# Shear Modulus (GPa) = 24.03400 28.93171 26.48285
#
# Velocity S-wave (km/s) = 3.20524 3.51670 3.36458
# Velocity P-wave (km/s) = 6.48190 6.71509 6.59952
#
# Compressibility (1/GPa) = 0.01509558
#
# Stress axis : x y z
#
# Youngs Moduli (GPa) = 102.05786 91.40776 103.17255
#
# Poissons Ratio (x) = 0.29469 0.06591
# Poissons Ratio (y) = 0.32903 0.39256
# Poissons Ratio (z) = 0.06519 0.34780
#
# Static dielectric constant tensor:
#      x y z
#    x 4.318060 0.000000 0.000000 
#    y 0.000000 4.287120 0.000000 
#    z 0.000000 0.000000 4.450050 
# 
# 
# High freq. dielectric constant tensor:
#      x y z
#    x 1.935210 0.000000 0.000000 
#    y 0.000000 1.917070 0.000000 
#    z 0.000000 0.000000 1.931090 
# 
# From -- ./inp_files/15015.got.cif
#   From: 2010.03.12/outbox.cif.g09.slc.cpg/sg64_8_cif.got.tgz:15015.got - 2010.04.10 20:19:32.
