data_PCOD8263328
_publ_section_title
;
Structure prediction by ZEFSAII (Michael W. Deem and Ramdas Pophale) SiO2 
 PCOD8263328
Probable space group: C M C A
;
_chemical_formula_sum "Si O2"
_cell_formula_units_Z 72
_cell_length_a 25.430753
_cell_length_b 13.464734
_cell_length_c 9.826291
_cell_angle_alpha 90.000000
_cell_angle_beta 90.000000
_cell_angle_gamma 90.000000
_cell_volume 3364.702101
_symmetry_space_group_name_H-M "C M C A"
_symmetry_group_IT_number 64
_symmetry_cell_setting 'orthorhombic'
loop_
_space_group_symop_operation_xyz
x,y,z
-x,1/2-y,1/2+z
x,-y,-z
-x,1/2+y,1/2-z
-x,-y,-z
x,1/2+y,1/2-z
-x,y,z
x,1/2-y,1/2+z
1/2+x,1/2+y,z
1/2-x,-y,1/2+z
1/2+x,1/2-y,-z
1/2-x,y,1/2-z
1/2-x,1/2-y,-z
1/2+x,y,1/2-z
1/2-x,1/2+y,z
1/2+x,-y,1/2+z
loop_
_atom_site_type_symbol
_atom_site_label
_atom_site_fract_x
_atom_site_fract_y
_atom_site_fract_z
Si Si1 0.308004 0.347275 0.288950
Si Si2 0.059394 0.652705 0.020039
Si Si3 0.347378 0.789062 0.487475
Si Si4 0.404251 0.517344 0.703871
Si Si5 0.384005 0.500000 0.000000
O O1 0.250000 0.384712 0.250000
O O2 0.307980 0.276829 0.421610
O O3 0.330319 0.278380 0.168567
O O4 0.343931 0.444851 0.313143
O O5 0.057543 0.591503 0.878365
O O6 0.000000 0.678765 0.063566
O O7 0.092253 0.752689 0.997009
O O8 0.089009 0.591397 0.139130
O O9 0.346405 0.905238 0.529117
O O10 0.419386 0.517260 0.864401
#
# Coordination Sequence:
#
# PCOD8263328 Si02
#       5
#    16  16  16  16   8
#     4  10  20  37  60  89 119 154 191 235 291 347
#     4  10  20  40  62  82 112 159 198 234 291 358
#     4  10  21  38  59  83 118 155 197 242 286 350
#     4   9  19  36  59  84 115 146 190 240 285 347
#     4  10  20  38  53  80 120 148 184 254 293 316
#
# _framework density 21.398627000000001
#
# number of rings (size 3 to 8) (size 9 to 14) (size 15 to 20)
#    0.000    2.222    0.000    3.333    0.000    0.000 
#    0.000   53.889    0.000    0.000    0.000    0.000 
#    0.000    0.000    0.000    0.000    0.000    0.000 
#
# Total GULP energy -446277.864878 kJ/mol
# GULP energy per Si atom -12396.607358 kJ/mol
# Density = 2.134992 g / cm^3
# Si number density = 21.398627 Si / 1000 Ang^3
#
#
#
# Elastic Constant Matrix: (Units=GPa)
#
#
# Indices 1 2 3 4 5 6 
#
# 1 128.6853 34.7212 12.5069 0.0000 0.0000 0.0000
# 2 34.7212 87.2988 10.1682 0.0000 0.0000 0.0000
# 3 12.5069 10.1682 125.3733 0.0000 0.0000 0.0000
# 4 0.0000 0.0000 0.0000 24.4866 0.0000 0.0000
# 5 0.0000 0.0000 0.0000 0.0000 25.6368 0.0000
# 6 0.0000 0.0000 0.0000 0.0000 0.0000 17.2943
#
#
#
# Elastic Compliance Matrix: (Units=1/GPa)
#
#
# Indices 1 2 3 4 5 6 
#
# 1 0.008749 -0.003410 -0.000596 0.000000 0.000000 0.000000
# 2 -0.003410 0.012893 -0.000706 0.000000 0.000000 0.000000
# 3 -0.000596 -0.000706 0.008093 0.000000 0.000000 0.000000
# 4 0.000000 0.000000 0.000000 0.040839 0.000000 0.000000
# 5 0.000000 0.000000 0.000000 0.000000 0.039006 0.000000
# 6 0.000000 0.000000 0.000000 0.000000 0.000000 0.057823
#
#
# Mechanical properties :
#
#
# Convention : Reuss Voigt Hill
#
# Bulk Modulus (GPa) = 49.23353 50.68334 49.95844
# Shear Modulus (GPa) = 27.23350 32.41426 29.82388
#
# Velocity S-wave (km/s) = 3.57133 3.89624 3.73732
# Velocity P-wave (km/s) = 6.32958 6.63157 6.48233
#
# Compressibility (1/GPa) = 0.02031136
#
# Stress axis : x y z
#
# Youngs Moduli (GPa) = 114.29898 77.55878 123.56553
#
# Poissons Ratio (x) = 0.26450 0.07367
# Poissons Ratio (y) = 0.38979 0.08718
# Poissons Ratio (z) = 0.06814 0.05472
#
# Static dielectric constant tensor:
#      x y z
#    x 3.526430 0.000000 0.000000 
#    y 0.000000 3.757080 0.000000 
#    z 0.000000 0.000000 4.133040 
# 
# 
# High freq. dielectric constant tensor:
#      x y z
#    x 1.806370 0.000000 0.000000 
#    y 0.000000 1.832190 0.000000 
#    z 0.000000 0.000000 1.854430 
# 
# From -- ./inp_files/10005.got.cif
#   From: 2010.03.12/outbox.cif.g09.slc.cpg/sg64_6_cif.got.tgz:10005.got - 2010.04.10 20:19:32.
