data_PCOD8263627
_publ_section_title
;
Structure prediction by ZEFSAII (Michael W. Deem and Ramdas Pophale) SiO2 
 PCOD8263627
Probable space group: C M C A
;
_chemical_formula_sum "Si O2"
_cell_formula_units_Z 96
_cell_length_a 16.061918
_cell_length_b 12.196101
_cell_length_c 23.517110
_cell_angle_alpha 90.000000
_cell_angle_beta 90.000000
_cell_angle_gamma 90.000000
_cell_volume 4606.831919
_symmetry_space_group_name_H-M "C M C A"
_symmetry_group_IT_number 64
_symmetry_cell_setting 'orthorhombic'
loop_
_space_group_symop_operation_xyz
x,y,z
-x,1/2-y,1/2+z
x,-y,-z
-x,1/2+y,1/2-z
-x,-y,-z
x,1/2+y,1/2-z
-x,y,z
x,1/2-y,1/2+z
1/2+x,1/2+y,z
1/2-x,-y,1/2+z
1/2+x,1/2-y,-z
1/2-x,y,1/2-z
1/2-x,1/2-y,-z
1/2+x,y,1/2-z
1/2-x,1/2+y,z
1/2+x,-y,1/2+z
loop_
_atom_site_type_symbol
_atom_site_label
_atom_site_fract_x
_atom_site_fract_y
_atom_site_fract_z
Si Si1 0.097477 0.484186 0.373785
Si Si2 0.905531 0.591917 0.841302
Si Si3 0.400348 0.151328 0.148169
Si Si4 0.099744 0.716196 0.418366
Si Si5 0.097010 0.292699 0.455451
Si Si6 0.841822 0.159854 0.774538
O O1 0.129506 0.606574 0.385963
O O2 0.114146 0.413474 0.430620
O O3 0.149324 0.435410 0.321386
O O4 0.000000 0.478988 0.357583
O O5 0.863995 0.471814 0.847160
O O6 0.862875 0.679712 0.884074
O O7 0.903889 0.635414 0.777176
O O8 0.000000 0.579359 0.861078
O O9 0.500000 0.157435 0.153180
O O10 0.368437 0.201026 0.088206
O O11 0.363152 0.221566 0.199937
O O12 0.137906 0.719360 0.482111
O O13 0.000000 0.715625 0.419198
O O14 0.000000 0.272248 0.463074
O O15 0.750000 0.158561 0.750000
#
# Coordination Sequence:
#
# PCOD8263627 Si02
#       6
#    16  16  16  16  16  16
#     4   9  17  32  55  83 112 145 180 223 274 322
#     4  10  21  35  53  81 111 143 179 220 272 327
#     4   9  19  36  57  79 108 144 180 223 275 326
#     4   9  17  29  52  86 113 136 175 223 271 325
#     4   8  14  28  52  83 112 137 173 223 274 320
#     4  11  23  37  54  76 106 144 186 228 271 320
#
# _framework density 20.838615999999998
#
# number of rings (size 3 to 8) (size 9 to 14) (size 15 to 20)
#    0.000    2.667    0.000    3.000    2.333    3.333 
#    0.000    3.333    0.000    4.000    8.667    0.000 
#    0.000    0.000    0.000    0.000    0.000    0.000 
#
# Total GULP energy -595075.903380 kJ/mol
# GULP energy per Si atom -12397.414654 kJ/mol
# Density = 2.079119 g / cm^3
# Si number density = 20.838616 Si / 1000 Ang^3
#
#
#
# Elastic Constant Matrix: (Units=GPa)
#
#
# Indices 1 2 3 4 5 6 
#
# 1 28.8104 26.0384 23.1392 0.0000 0.0000 0.0000
# 2 26.0384 213.7980 101.0411 0.0000 0.0000 0.0000
# 3 23.1392 101.0411 155.1692 0.0000 0.0000 0.0000
# 4 0.0000 0.0000 0.0000 25.5689 0.0000 0.0000
# 5 0.0000 0.0000 0.0000 0.0000 11.6305 0.0000
# 6 0.0000 0.0000 0.0000 0.0000 0.0000 10.5895
#
#
#
# Elastic Compliance Matrix: (Units=1/GPa)
#
#
# Indices 1 2 3 4 5 6 
#
# 1 0.040739 -0.003020 -0.004109 0.000000 0.000000 0.000000
# 2 -0.003020 0.006980 -0.004095 0.000000 0.000000 0.000000
# 3 -0.004109 -0.004095 0.009724 0.000000 0.000000 0.000000
# 4 0.000000 0.000000 0.000000 0.039110 0.000000 0.000000
# 5 0.000000 0.000000 0.000000 0.000000 0.085981 0.000000
# 6 0.000000 0.000000 0.000000 0.000000 0.000000 0.094433
#
#
# Mechanical properties :
#
#
# Convention : Reuss Voigt Hill
#
# Bulk Modulus (GPa) = 28.57470 77.57946 53.07708
# Shear Modulus (GPa) = 16.07306 26.06170 21.06738
#
# Velocity S-wave (km/s) = 2.78026 3.54028 3.18304
# Velocity P-wave (km/s) = 4.90394 7.34990 6.24778
#
# Compressibility (1/GPa) = 0.03499599
#
# Stress axis : x y z
#
# Youngs Moduli (GPa) = 24.54658 143.25720 102.83966
#
# Poissons Ratio (x) = 0.43261 0.42253
# Poissons Ratio (y) = 0.07413 0.42114
# Poissons Ratio (z) = 0.10085 0.58666
#
# Static dielectric constant tensor:
#      x y z
#    x 3.154950 0.000000 0.000000 
#    y 0.000000 4.049000 0.000000 
#    z 0.000000 0.000000 4.009390 
# 
# 
# High freq. dielectric constant tensor:
#      x y z
#    x 1.764410 0.000000 0.000000 
#    y 0.000000 1.824320 0.000000 
#    z 0.000000 0.000000 1.824630 
# 
# From -- ./inp_files/40862.got.cif
#   From: 2010.03.12/outbox.cif.g09.slc.cpg/sg64_21_cif.got.tgz:40862.got - 2010.04.10 20:19:32.
