data_PCOD8263068
_publ_section_title
;
Structure prediction by ZEFSAII (Michael W. Deem and Ramdas Pophale) SiO2 
 PCOD8263068
Probable space group: C M C A
;
_chemical_formula_sum "Si O2"
_cell_formula_units_Z 96
_cell_length_a 8.927585
_cell_length_b 28.595866
_cell_length_c 20.387282
_cell_angle_alpha 90.000000
_cell_angle_beta 90.000000
_cell_angle_gamma 90.000000
_cell_volume 5204.710493
_symmetry_space_group_name_H-M "C M C A"
_symmetry_group_IT_number 64
_symmetry_cell_setting 'orthorhombic'
loop_
_space_group_symop_operation_xyz
x,y,z
-x,1/2-y,1/2+z
x,-y,-z
-x,1/2+y,1/2-z
-x,-y,-z
x,1/2+y,1/2-z
-x,y,z
x,1/2-y,1/2+z
1/2+x,1/2+y,z
1/2-x,-y,1/2+z
1/2+x,1/2-y,-z
1/2-x,y,1/2-z
1/2-x,1/2-y,-z
1/2+x,y,1/2-z
1/2-x,1/2+y,z
1/2+x,-y,1/2+z
loop_
_atom_site_type_symbol
_atom_site_label
_atom_site_fract_x
_atom_site_fract_y
_atom_site_fract_z
Si Si1 0.825806 0.724146 0.940411
Si Si2 0.674027 0.621249 0.521742
Si Si3 0.674420 0.372833 0.629959
Si Si4 0.823591 0.525262 0.181042
Si Si5 0.323732 0.528930 0.936091
Si Si6 0.823186 0.717829 0.316900
O O1 0.789477 0.669189 0.940437
O O2 0.767609 0.746273 0.872669
O O3 0.000000 0.733225 0.949342
O O4 0.750000 0.750000 0.000000
O O5 0.500000 0.606905 0.527827
O O6 0.719317 0.627037 0.446073
O O7 0.777313 0.582536 0.554943
O O8 0.500000 0.361110 0.639241
O O9 0.718822 0.422119 0.661408
O O10 0.771136 0.334479 0.667247
O O11 0.750000 0.512307 0.250000
O O12 0.760882 0.490291 0.126915
O O13 0.000000 0.518158 0.185966
O O14 0.500000 0.524992 0.924559
O O15 0.272458 0.500000 0.000000
O O16 0.750000 0.735765 0.250000
O O17 0.000000 0.717847 0.308984
#
# Coordination Sequence:
#
# PCOD8263068 Si02
#       6
#    16  16  16  16  16  16
#     4  10  21  37  59  85 114 150 193 239 287 340
#     4  10  20  37  60  87 117 150 192 238 290 344
#     4  10  20  35  59  88 118 153 189 235 291 346
#     4  11  23  39  59  85 118 155 194 236 291 349
#     4  11  23  38  59  87 118 152 194 241 287 342
#     4  11  23  37  56  84 118 155 192 235 288 342
#
# _framework density 18.444831000000001
#
# number of rings (size 3 to 8) (size 9 to 14) (size 15 to 20)
#    0.000    1.500    3.333    2.000    0.000    5.333 
#    0.000    0.833    0.000    2.000    0.000    0.000 
#    0.000    0.000    0.000    0.000    0.000    0.000 
#
# Total GULP energy -595478.732463 kJ/mol
# GULP energy per Si atom -12405.806926 kJ/mol
# Density = 1.840285 g / cm^3
# Si number density = 18.444831 Si / 1000 Ang^3
#
#
#
# Elastic Constant Matrix: (Units=GPa)
#
#
# Indices 1 2 3 4 5 6 
#
# 1 57.9457 38.1190 46.7374 0.0000 0.0000 0.0000
# 2 38.1190 100.8298 63.0013 0.0000 0.0000 0.0000
# 3 46.7374 63.0013 149.7928 0.0000 0.0000 0.0000
# 4 0.0000 0.0000 0.0000 24.5628 0.0000 0.0000
# 5 0.0000 0.0000 0.0000 0.0000 28.4802 0.0000
# 6 0.0000 0.0000 0.0000 0.0000 0.0000 29.9266
#
#
#
# Elastic Compliance Matrix: (Units=1/GPa)
#
#
# Indices 1 2 3 4 5 6 
#
# 1 0.025788 -0.006405 -0.005352 0.000000 0.000000 0.000000
# 2 -0.006405 0.015044 -0.004329 0.000000 0.000000 0.000000
# 3 -0.005352 -0.004329 0.010167 0.000000 0.000000 0.000000
# 4 0.000000 0.000000 0.000000 0.040712 0.000000 0.000000
# 5 0.000000 0.000000 0.000000 0.000000 0.035112 0.000000
# 6 0.000000 0.000000 0.000000 0.000000 0.000000 0.033415
#
#
# Mechanical properties :
#
#
# Convention : Reuss Voigt Hill
#
# Bulk Modulus (GPa) = 53.11763 67.14264 60.13014
# Shear Modulus (GPa) = 25.16540 27.30795 26.23667
#
# Velocity S-wave (km/s) = 3.69773 3.85193 3.77562
# Velocity P-wave (km/s) = 6.86233 7.50094 7.18873
#
# Compressibility (1/GPa) = 0.01882614
#
# Stress axis : x y z
#
# Youngs Moduli (GPa) = 38.77770 66.47200 98.36144
#
# Poissons Ratio (x) = 0.42575 0.52647
# Poissons Ratio (y) = 0.24837 0.42580
# Poissons Ratio (z) = 0.20755 0.28775
#
# Static dielectric constant tensor:
#      x y z
#    x 3.404020 0.000000 0.000000 
#    y 0.000000 3.418470 0.000000 
#    z 0.000000 0.000000 3.534970 
# 
# 
# High freq. dielectric constant tensor:
#      x y z
#    x 1.718880 0.000000 0.000000 
#    y 0.000000 1.715770 0.000000 
#    z 0.000000 0.000000 1.720530 
# 
# From -- ./inp_files/37000.got.cif
#   From: 2010.03.12/outbox.cif.g09.slc.cpg/sg64_19_cif.got.tgz:37000.got - 2010.04.10 20:19:32.
