data_PCOD8263983
_publ_section_title
;
Structure prediction by ZEFSAII (Michael W. Deem and Ramdas Pophale) SiO2 
 PCOD8263983
Probable space group: C M C A
;
_chemical_formula_sum "Si O2"
_cell_formula_units_Z 120
_cell_length_a 14.746419
_cell_length_b 18.872512
_cell_length_c 20.095657
_cell_angle_alpha 90.000000
_cell_angle_beta 90.000000
_cell_angle_gamma 90.000000
_cell_volume 5592.660922
_symmetry_space_group_name_H-M "C M C A"
_symmetry_group_IT_number 64
_symmetry_cell_setting 'orthorhombic'
loop_
_space_group_symop_operation_xyz
x,y,z
-x,1/2-y,1/2+z
x,-y,-z
-x,1/2+y,1/2-z
-x,-y,-z
x,1/2+y,1/2-z
-x,y,z
x,1/2-y,1/2+z
1/2+x,1/2+y,z
1/2-x,-y,1/2+z
1/2+x,1/2-y,-z
1/2-x,y,1/2-z
1/2-x,1/2-y,-z
1/2+x,y,1/2-z
1/2-x,1/2+y,z
1/2+x,-y,1/2+z
loop_
_atom_site_type_symbol
_atom_site_label
_atom_site_fract_x
_atom_site_fract_y
_atom_site_fract_z
Si Si1 0.779314 0.418712 0.501196
Si Si2 0.602012 0.860262 0.384476
Si Si3 0.104095 0.590217 0.759057
Si Si4 0.250000 0.519485 0.250000
Si Si5 0.781469 0.365610 0.646894
Si Si6 0.400221 0.298501 0.621261
Si Si7 0.394780 0.227653 0.841563
Si Si8 0.600851 0.847826 0.023274
O O1 0.807772 0.500000 0.500000
O O2 0.830778 0.378079 0.443356
O O3 0.808287 0.384413 0.571339
O O4 0.671871 0.411785 0.486404
O O5 0.500000 0.867404 0.412227
O O6 0.616297 0.909942 0.320619
O O7 0.620173 0.781452 0.357119
O O8 0.172122 0.529096 0.784767
O O9 0.133441 0.665269 0.790852
O O10 0.000000 0.573024 0.779548
O O11 0.201348 0.567174 0.306130
O O12 0.674227 0.349449 0.653381
O O13 0.838670 0.298790 0.673282
O O14 0.500000 0.323068 0.646387
O O15 0.396428 0.298293 0.541232
O O16 0.500000 0.246943 0.833239
O O17 0.371007 0.201918 0.915661
O O18 0.500000 0.880425 0.034781
#
# Coordination Sequence:
#
# PCOD8263983 Si02
#       8
#    16  16  16   8  16  16  16  16
#     4  11  23  38  60  91 133 169 208 262 326 393
#     4  10  21  39  65  90 118 162 214 266 320 378
#     4  10  25  45  65  92 125 173 222 260 316 389
#     4  12  28  42  64  90 132 178 204 262 328 398
#     4  11  25  40  61 100 127 169 216 267 328 378
#     4   9  19  37  62  91 123 159 206 263 319 370
#     4  10  22  41  68  94 123 164 216 271 316 372
#     4   9  19  37  60  90 125 162 206 257 311 371
#
# _framework density 21.456692
#
# number of rings (size 3 to 8) (size 9 to 14) (size 15 to 20)
#    0.000    1.867    0.000    2.400    7.467    5.333 
#    0.000    0.000    0.000    0.000    0.000    0.000 
#    0.000    0.000    0.000    0.000    0.000    0.000 
#
# Total GULP energy -744093.758450 kJ/mol
# GULP energy per Si atom -12401.562641 kJ/mol
# Density = 2.140786 g / cm^3
# Si number density = 21.456692 Si / 1000 Ang^3
#
#
#
# Elastic Constant Matrix: (Units=GPa)
#
#
# Indices 1 2 3 4 5 6 
#
# 1 93.2435 60.0371 26.0778 0.0000 0.0000 0.0000
# 2 60.0371 116.4263 30.6960 0.0000 0.0000 0.0000
# 3 26.0778 30.6960 67.3932 0.0000 0.0000 0.0000
# 4 0.0000 0.0000 0.0000 27.3850 0.0000 0.0000
# 5 0.0000 0.0000 0.0000 0.0000 24.7770 0.0000
# 6 0.0000 0.0000 0.0000 0.0000 0.0000 28.8175
#
#
#
# Elastic Compliance Matrix: (Units=1/GPa)
#
#
# Indices 1 2 3 4 5 6 
#
# 1 0.016525 -0.007769 -0.002856 0.000000 0.000000 0.000000
# 2 -0.007769 0.013413 -0.003103 0.000000 0.000000 0.000000
# 3 -0.002856 -0.003103 0.017357 0.000000 0.000000 0.000000
# 4 0.000000 0.000000 0.000000 0.036516 0.000000 0.000000
# 5 0.000000 0.000000 0.000000 0.000000 0.040360 0.000000
# 6 0.000000 0.000000 0.000000 0.000000 0.000000 0.034701
#
#
# Mechanical properties :
#
#
# Convention : Reuss Voigt Hill
#
# Bulk Modulus (GPa) = 50.40437 56.74276 53.57356
# Shear Modulus (GPa) = 25.91447 26.87938 26.39692
#
# Velocity S-wave (km/s) = 3.47905 3.54323 3.51129
# Velocity P-wave (km/s) = 6.29925 6.57586 6.43904
#
# Compressibility (1/GPa) = 0.01983955
#
# Stress axis : x y z
#
# Youngs Moduli (GPa) = 60.51306 74.55279 57.61367
#
# Poissons Ratio (x) = 0.57917 0.16455
# Poissons Ratio (y) = 0.47010 0.17880
# Poissons Ratio (z) = 0.17283 0.23137
#
# Static dielectric constant tensor:
#      x y z
#    x 4.053630 0.000000 0.000000 
#    y 0.000000 3.648150 0.000000 
#    z 0.000000 0.000000 3.859940 
# 
# 
# High freq. dielectric constant tensor:
#      x y z
#    x 1.848130 0.000000 0.000000 
#    y 0.000000 1.826560 0.000000 
#    z 0.000000 0.000000 1.844260 
# 
# From -- ./inp_files/39643.got.cif
#   From: 2010.03.12/outbox.cif.g09.slc.cpg/sg64_20_cif.got.tgz:39643.got - 2010.04.10 20:19:32.
