data_PCOD8263810
_publ_section_title
;
Structure prediction by ZEFSAII (Michael W. Deem and Ramdas Pophale) SiO2 
 PCOD8263810
Probable space group: C M C A
;
_chemical_formula_sum "Si O2"
_cell_formula_units_Z 64
_cell_length_a 8.797443
_cell_length_b 28.297524
_cell_length_c 14.120447
_cell_angle_alpha 90.000000
_cell_angle_beta 90.000000
_cell_angle_gamma 90.000000
_cell_volume 3515.226743
_symmetry_space_group_name_H-M "C M C A"
_symmetry_group_IT_number 64
_symmetry_cell_setting 'orthorhombic'
loop_
_space_group_symop_operation_xyz
x,y,z
-x,1/2-y,1/2+z
x,-y,-z
-x,1/2+y,1/2-z
-x,-y,-z
x,1/2+y,1/2-z
-x,y,z
x,1/2-y,1/2+z
1/2+x,1/2+y,z
1/2-x,-y,1/2+z
1/2+x,1/2-y,-z
1/2-x,y,1/2-z
1/2-x,1/2-y,-z
1/2+x,y,1/2-z
1/2-x,1/2+y,z
1/2+x,-y,1/2+z
loop_
_atom_site_type_symbol
_atom_site_label
_atom_site_fract_x
_atom_site_fract_y
_atom_site_fract_z
Si Si1 0.819555 0.125143 0.353217
Si Si2 0.820284 0.554375 0.491651
Si Si3 0.325774 0.875125 0.350753
Si Si4 0.322446 0.199044 0.492466
O O1 0.750000 0.127158 0.250000
O O2 0.765418 0.076571 0.402099
O O3 0.760544 0.170563 0.409828
O O4 0.000000 0.126378 0.347888
O O5 0.774302 0.500000 0.500000
O O6 0.764318 0.580914 0.586867
O O7 0.000000 0.561857 0.476546
O O8 0.500000 0.883686 0.330096
O O9 0.250000 0.872391 0.250000
O O10 0.296350 0.826651 0.407154
O O11 0.500000 0.202394 0.467524
O O12 0.250000 0.250000 0.500000
#
# Coordination Sequence:
#
# PCOD8263810 Si02
#       4
#    16  16  16  16
#     4  11  22  37  57  81 110 145 185 229 276 327
#     4   9  19  37  57  79 110 144 179 225 276 323
#     4   9  19  34  53  77 106 139 174 214 262 316
#     4  10  21  38  57  80 109 142 181 225 275 326
#
# _framework density 18.206506999999998
#
# number of rings (size 3 to 8) (size 9 to 14) (size 15 to 20)
#    0.000    2.250    0.000    4.500    0.000    7.500 
#    0.000    5.000    0.000    0.000    0.000    0.000 
#    0.000    0.000    0.000    0.000    0.000    0.000 
#
# Total GULP energy -396826.029278 kJ/mol
# GULP energy per Si atom -12400.813415 kJ/mol
# Density = 1.816507 g / cm^3
# Si number density = 18.206507 Si / 1000 Ang^3
#
#
#
# Elastic Constant Matrix: (Units=GPa)
#
#
# Indices 1 2 3 4 5 6 
#
# 1 108.2848 56.1307 60.6953 0.0000 0.0000 0.0000
# 2 56.1307 139.6498 43.4170 0.0000 0.0000 0.0000
# 3 60.6953 43.4170 133.8235 0.0000 0.0000 0.0000
# 4 0.0000 0.0000 0.0000 9.6714 0.0000 0.0000
# 5 0.0000 0.0000 0.0000 0.0000 38.2697 0.0000
# 6 0.0000 0.0000 0.0000 0.0000 0.0000 31.7961
#
#
#
# Elastic Compliance Matrix: (Units=1/GPa)
#
#
# Indices 1 2 3 4 5 6 
#
# 1 0.014249 -0.004135 -0.005121 0.000000 0.000000 0.000000
# 2 -0.004135 0.009164 -0.001098 0.000000 0.000000 0.000000
# 3 -0.005121 -0.001098 0.010151 0.000000 0.000000 0.000000
# 4 0.000000 0.000000 0.000000 0.103397 0.000000 0.000000
# 5 0.000000 0.000000 0.000000 0.000000 0.026130 0.000000
# 6 0.000000 0.000000 0.000000 0.000000 0.000000 0.031450
#
#
# Mechanical properties :
#
#
# Convention : Reuss Voigt Hill
#
# Bulk Modulus (GPa) = 77.78041 78.02714 77.90377
# Shear Modulus (GPa) = 22.77543 30.71512 26.74528
#
# Velocity S-wave (km/s) = 3.54071 4.11182 3.83691
# Velocity P-wave (km/s) = 7.71554 8.09274 7.90639
#
# Compressibility (1/GPa) = 0.01285671
#
# Stress axis : x y z
#
# Youngs Moduli (GPa) = 70.18182 109.12179 98.51005
#
# Poissons Ratio (x) = 0.45122 0.50446
# Poissons Ratio (y) = 0.29020 0.10814
# Poissons Ratio (z) = 0.35940 0.11978
#
# Static dielectric constant tensor:
#      x y z
#    x 3.185680 0.000000 0.000000 
#    y 0.000000 3.518970 0.000000 
#    z 0.000000 0.000000 3.638140 
# 
# 
# High freq. dielectric constant tensor:
#      x y z
#    x 1.710380 0.000000 0.000000 
#    y 0.000000 1.711460 0.000000 
#    z 0.000000 0.000000 1.710170 
# 
# From -- ./inp_files/12115.got.cif
#   From: 2010.03.12/outbox.cif.g09.slc.cpg/sg64_7_cif.got.tgz:12115.got - 2010.04.10 20:19:32.
