data_PCOD8263900
_publ_section_title
;
Structure prediction by ZEFSAII (Michael W. Deem and Ramdas Pophale) SiO2 
 PCOD8263900
Probable space group: C M C A
;
_chemical_formula_sum "Si O2"
_cell_formula_units_Z 112
_cell_length_a 10.581315
_cell_length_b 15.153221
_cell_length_c 32.272898
_cell_angle_alpha 90.000000
_cell_angle_beta 90.000000
_cell_angle_gamma 90.000000
_cell_volume 5174.668889
_symmetry_space_group_name_H-M "C M C A"
_symmetry_group_IT_number 64
_symmetry_cell_setting 'orthorhombic'
loop_
_space_group_symop_operation_xyz
x,y,z
-x,1/2-y,1/2+z
x,-y,-z
-x,1/2+y,1/2-z
-x,-y,-z
x,1/2+y,1/2-z
-x,y,z
x,1/2-y,1/2+z
1/2+x,1/2+y,z
1/2-x,-y,1/2+z
1/2+x,1/2-y,-z
1/2-x,y,1/2-z
1/2-x,1/2-y,-z
1/2+x,y,1/2-z
1/2-x,1/2+y,z
1/2+x,-y,1/2+z
loop_
_atom_site_type_symbol
_atom_site_label
_atom_site_fract_x
_atom_site_fract_y
_atom_site_fract_z
Si Si1 0.144265 0.529152 0.544030
Si Si2 0.638237 0.771949 0.469822
Si Si3 0.740364 0.485433 0.629026
Si Si4 0.638298 0.300695 0.614827
Si Si5 0.863845 0.672174 0.862253
Si Si6 0.634910 0.246191 0.776363
Si Si7 0.646122 0.449404 0.785000
O O1 0.210228 0.500000 0.500000
O O2 0.165277 0.633344 0.551325
O O3 0.188778 0.477014 0.584956
O O4 0.000000 0.502259 0.540010
O O5 0.500000 0.774284 0.492342
O O6 0.750000 0.750000 0.500000
O O7 0.635695 0.696302 0.435035
O O8 0.657643 0.397288 0.633901
O O9 0.653002 0.570881 0.625401
O O10 0.828570 0.494199 0.670045
O O11 0.500000 0.267204 0.630849
O O12 0.748466 0.233674 0.625751
O O13 0.875617 0.677284 0.813146
O O14 0.000000 0.703081 0.881678
O O15 0.500000 0.245183 0.751773
O O16 0.750000 0.209475 0.750000
O O17 0.662556 0.344927 0.792293
O O18 0.500000 0.472230 0.771681
O O19 0.750000 0.479898 0.750000
#
# Coordination Sequence:
#
# PCOD8263900 Si02
#       7
#    16  16  16  16  16  16  16
#     4  10  21  38  63  97 135 173 221 274 329 397
#     4  10  21  40  62  91 128 171 218 270 330 398
#     4  12  23  41  69 100 135 174 221 278 340 395
#     4  11  24  42  64  94 132 172 218 272 333 394
#     4  11  24  42  64  94 130 169 220 270 327 398
#     4   9  19  39  62  90 124 166 216 268 321 390
#     4  10  22  40  66  97 132 178 225 272 331 400
#
# _framework density 21.643896000000002
#
# number of rings (size 3 to 8) (size 9 to 14) (size 15 to 20)
#    0.000    1.571    2.857    1.714    0.000    4.000 
#    0.000    1.429    0.000    3.000    0.000    0.000 
#    0.000    0.000    0.000    0.000    0.000    0.000 
#
# Total GULP energy -693792.212875 kJ/mol
# GULP energy per Si atom -12389.146658 kJ/mol
# Density = 2.159463 g / cm^3
# Si number density = 21.643896 Si / 1000 Ang^3
#
#
#
# Elastic Constant Matrix: (Units=GPa)
#
#
# Indices 1 2 3 4 5 6 
#
# 1 191.6014 59.2350 58.7703 0.0000 0.0000 0.0000
# 2 59.2350 84.5249 17.1903 0.0000 0.0000 0.0000
# 3 58.7703 17.1903 116.4611 0.0000 0.0000 0.0000
# 4 0.0000 0.0000 0.0000 32.5576 0.0000 0.0000
# 5 0.0000 0.0000 0.0000 0.0000 32.1272 0.0000
# 6 0.0000 0.0000 0.0000 0.0000 0.0000 21.0200
#
#
#
# Elastic Compliance Matrix: (Units=1/GPa)
#
#
# Indices 1 2 3 4 5 6 
#
# 1 0.007647 -0.004716 -0.003163 0.000000 0.000000 0.000000
# 2 -0.004716 0.015105 0.000150 0.000000 0.000000 0.000000
# 3 -0.003163 0.000150 0.010161 0.000000 0.000000 0.000000
# 4 0.000000 0.000000 0.000000 0.030715 0.000000 0.000000
# 5 0.000000 0.000000 0.000000 0.000000 0.031126 0.000000
# 6 0.000000 0.000000 0.000000 0.000000 0.000000 0.047574
#
#
# Mechanical properties :
#
#
# Convention : Reuss Voigt Hill
#
# Bulk Modulus (GPa) = 57.28817 73.66429 65.47623
# Shear Modulus (GPa) = 30.56159 34.30040 32.43100
#
# Velocity S-wave (km/s) = 3.76176 3.98522 3.87510
# Velocity P-wave (km/s) = 6.73749 7.43536 7.09501
#
# Compressibility (1/GPa) = 0.01745561
#
# Stress axis : x y z
#
# Youngs Moduli (GPa) = 130.76435 66.20220 98.41981
#
# Poissons Ratio (x) = 0.31221 0.31130
# Poissons Ratio (y) = 0.61668 -0.01478
# Poissons Ratio (z) = 0.41361 -0.00995
#
# Static dielectric constant tensor:
#      x y z
#    x 4.389240 0.000000 0.000000 
#    y 0.000000 3.848900 0.000000 
#    z 0.000000 0.000000 3.911060 
# 
# 
# High freq. dielectric constant tensor:
#      x y z
#    x 1.859660 0.000000 0.000000 
#    y 0.000000 1.838540 0.000000 
#    z 0.000000 0.000000 1.839060 
# 
# From -- ./inp_files/52836.got.cif
#   From: 2010.03.12/outbox.cif.g09.slc.cpg/sg64_27_cif.got.tgz:52836.got - 2010.04.10 20:19:32.
