data_PCOD8263715
_publ_section_title
;
Structure prediction by ZEFSAII (Michael W. Deem and Ramdas Pophale) SiO2 
 PCOD8263715
Probable space group: C M C A
;
_chemical_formula_sum "Si O2"
_cell_formula_units_Z 80
_cell_length_a 8.857357
_cell_length_b 19.217203
_cell_length_c 25.275433
_cell_angle_alpha 90.000000
_cell_angle_beta 90.000000
_cell_angle_gamma 90.000000
_cell_volume 4302.223138
_symmetry_space_group_name_H-M "C M C A"
_symmetry_group_IT_number 64
_symmetry_cell_setting 'orthorhombic'
loop_
_space_group_symop_operation_xyz
x,y,z
-x,1/2-y,1/2+z
x,-y,-z
-x,1/2+y,1/2-z
-x,-y,-z
x,1/2+y,1/2-z
-x,y,z
x,1/2-y,1/2+z
1/2+x,1/2+y,z
1/2-x,-y,1/2+z
1/2+x,1/2-y,-z
1/2-x,y,1/2-z
1/2-x,1/2-y,-z
1/2+x,y,1/2-z
1/2-x,1/2+y,z
1/2+x,-y,1/2+z
loop_
_atom_site_type_symbol
_atom_site_label
_atom_site_fract_x
_atom_site_fract_y
_atom_site_fract_z
Si Si1 0.171680 0.882461 0.973658
Si Si2 0.822055 0.628517 0.193168
Si Si3 0.824067 0.883018 0.416206
Si Si4 0.825168 0.983088 0.878400
Si Si5 0.674788 0.727847 0.112746
O O1 0.201829 0.947529 0.935210
O O2 0.205177 0.810953 0.942724
O O3 0.000000 0.884158 0.994972
O O4 0.284639 0.888438 0.022191
O O5 0.750000 0.637952 0.250000
O O6 0.764507 0.557302 0.166961
O O7 0.776792 0.695321 0.158463
O O8 0.000000 0.625010 0.198585
O O9 0.779146 0.807718 0.393888
O O10 0.000000 0.897904 0.409802
O O11 0.733108 0.938227 0.381141
O O12 0.000000 0.981796 0.862712
O O13 0.500000 0.717961 0.128733
#
# Coordination Sequence:
#
# PCOD8263715 Si02
#       5
#    16  16  16  16  16
#     4   9  18  33  52  74 107 152 189 219 262 313
#     4  11  22  39  63  84 103 133 175 221 270 325
#     4  11  21  32  51  81 115 147 181 223 266 313
#     4  10  21  37  55  78 110 145 182 223 267 316
#     4   9  20  37  54  78 112 145 180 222 266 314
#
# _framework density 18.595036
#
# number of rings (size 3 to 8) (size 9 to 14) (size 15 to 20)
#    0.000    2.000    0.000    5.400    0.000    8.000 
#    0.000    1.000    0.000    4.800    0.000    0.000 
#    0.000    0.000    0.000    0.000    0.000    0.000 
#
# Total GULP energy -496183.241454 kJ/mol
# GULP energy per Si atom -12404.581036 kJ/mol
# Density = 1.855271 g / cm^3
# Si number density = 18.595036 Si / 1000 Ang^3
#
#
#
# Elastic Constant Matrix: (Units=GPa)
#
#
# Indices 1 2 3 4 5 6 
#
# 1 101.0652 43.2592 33.1473 0.0000 0.0000 0.0000
# 2 43.2592 125.1252 21.3947 0.0000 0.0000 0.0000
# 3 33.1473 21.3947 65.6536 0.0000 0.0000 0.0000
# 4 0.0000 0.0000 0.0000 8.5563 0.0000 0.0000
# 5 0.0000 0.0000 0.0000 0.0000 34.4459 0.0000
# 6 0.0000 0.0000 0.0000 0.0000 0.0000 32.9649
#
#
#
# Elastic Compliance Matrix: (Units=1/GPa)
#
#
# Indices 1 2 3 4 5 6 
#
# 1 0.013260 -0.003643 -0.005508 0.000000 0.000000 0.000000
# 2 -0.003643 0.009464 -0.001245 0.000000 0.000000 0.000000
# 3 -0.005508 -0.001245 0.018418 0.000000 0.000000 0.000000
# 4 0.000000 0.000000 0.000000 0.116873 0.000000 0.000000
# 5 0.000000 0.000000 0.000000 0.000000 0.029031 0.000000
# 6 0.000000 0.000000 0.000000 0.000000 0.000000 0.030335
#
#
# Mechanical properties :
#
#
# Convention : Reuss Voigt Hill
#
# Bulk Modulus (GPa) = 49.13650 54.16070 51.64860
# Shear Modulus (GPa) = 20.41179 28.12960 24.27070
#
# Velocity S-wave (km/s) = 3.31675 3.89363 3.61671
# Velocity P-wave (km/s) = 6.41480 7.02876 6.72879
#
# Compressibility (1/GPa) = 0.02035147
#
# Stress axis : x y z
#
# Youngs Moduli (GPa) = 75.41345 105.66083 54.29478
#
# Poissons Ratio (x) = 0.38489 0.29905
# Poissons Ratio (y) = 0.27471 0.06760
# Poissons Ratio (z) = 0.41536 0.13155
#
# Static dielectric constant tensor:
#      x y z
#    x 3.426950 0.000000 0.000000 
#    y 0.000000 3.653560 0.000000 
#    z 0.000000 0.000000 3.228940 
# 
# 
# High freq. dielectric constant tensor:
#      x y z
#    x 1.728880 0.000000 0.000000 
#    y 0.000000 1.730360 0.000000 
#    z 0.000000 0.000000 1.703560 
# 
# From -- ./inp_files/47784.got.cif
#   From: 2010.03.12/outbox.cif.g09.slc.cpg/sg64_24_cif.got.tgz:47784.got - 2010.04.10 20:19:32.
