data_PCOD8263394
_publ_section_title
;
Structure prediction by ZEFSAII (Michael W. Deem and Ramdas Pophale) SiO2 
 PCOD8263394
Probable space group: C M C A
;
_chemical_formula_sum "Si O2"
_cell_formula_units_Z 80
_cell_length_a 16.634240
_cell_length_b 26.569698
_cell_length_c 9.250117
_cell_angle_alpha 90.000000
_cell_angle_beta 90.000000
_cell_angle_gamma 90.000000
_cell_volume 4088.243993
_symmetry_space_group_name_H-M "C M C A"
_symmetry_group_IT_number 64
_symmetry_cell_setting 'orthorhombic'
loop_
_space_group_symop_operation_xyz
x,y,z
-x,1/2-y,1/2+z
x,-y,-z
-x,1/2+y,1/2-z
-x,-y,-z
x,1/2+y,1/2-z
-x,y,z
x,1/2-y,1/2+z
1/2+x,1/2+y,z
1/2-x,-y,1/2+z
1/2+x,1/2-y,-z
1/2-x,y,1/2-z
1/2-x,1/2-y,-z
1/2+x,y,1/2-z
1/2-x,1/2+y,z
1/2+x,-y,1/2+z
loop_
_atom_site_type_symbol
_atom_site_label
_atom_site_fract_x
_atom_site_fract_y
_atom_site_fract_z
Si Si1 0.356159 0.296533 0.504152
Si Si2 0.707690 0.546229 0.395827
Si Si3 0.089106 0.123115 0.294149
Si Si4 0.802203 0.142670 0.027280
Si Si5 0.404709 0.198583 0.675609
O O1 0.415186 0.337791 0.573746
O O2 0.263881 0.312976 0.528747
O O3 0.373915 0.243196 0.574430
O O4 0.375620 0.291942 0.336253
O O5 0.691474 0.500000 0.500000
O O6 0.750000 0.526820 0.250000
O O7 0.622172 0.569960 0.351775
O O8 0.761199 0.587879 0.479301
O O9 0.147192 0.147272 0.174453
O O10 0.000000 0.114623 0.231051
O O11 0.861369 0.148683 0.889424
O O12 0.500000 0.192185 0.667121
#
# Coordination Sequence:
#
# PCOD8263394 Si02
#       5
#    16  16  16  16  16
#     4  11  23  38  54  81 114 152 190 228 277 336
#     4   9  20  37  59  84 111 146 185 228 280 338
#     4  10  20  38  60  84 114 145 186 235 282 328
#     4  10  22  39  59  81 110 150 191 230 275 335
#     4  12  23  36  56  83 116 151 190 235 281 326
#
# _framework density 19.568304999999999
#
# number of rings (size 3 to 8) (size 9 to 14) (size 15 to 20)
#    0.000    1.600    0.000    6.600    0.000    5.200 
#    0.000    0.000    0.000   17.400    0.000    0.000 
#    0.000    0.000    0.000    0.000    0.000    0.000 
#
# Total GULP energy -496040.371838 kJ/mol
# GULP energy per Si atom -12401.009296 kJ/mol
# Density = 1.952377 g / cm^3
# Si number density = 19.568305 Si / 1000 Ang^3
#
#
#
# Elastic Constant Matrix: (Units=GPa)
#
#
# Indices 1 2 3 4 5 6 
#
# 1 167.9722 43.2094 51.3498 0.0000 0.0000 0.0000
# 2 43.2094 52.0860 36.3017 0.0000 0.0000 0.0000
# 3 51.3498 36.3017 111.8473 0.0000 0.0000 0.0000
# 4 0.0000 0.0000 0.0000 35.5552 0.0000 0.0000
# 5 0.0000 0.0000 0.0000 0.0000 29.0163 0.0000
# 6 0.0000 0.0000 0.0000 0.0000 0.0000 10.1328
#
#
#
# Elastic Compliance Matrix: (Units=1/GPa)
#
#
# Indices 1 2 3 4 5 6 
#
# 1 0.007879 -0.005189 -0.001933 0.000000 0.000000 0.000000
# 2 -0.005189 0.028229 -0.006780 0.000000 0.000000 0.000000
# 3 -0.001933 -0.006780 0.012029 0.000000 0.000000 0.000000
# 4 0.000000 0.000000 0.000000 0.028125 0.000000 0.000000
# 5 0.000000 0.000000 0.000000 0.000000 0.034463 0.000000
# 6 0.000000 0.000000 0.000000 0.000000 0.000000 0.098689
#
#
# Mechanical properties :
#
#
# Convention : Reuss Voigt Hill
#
# Bulk Modulus (GPa) = 49.18147 65.95857 57.57002
# Shear Modulus (GPa) = 20.49210 28.34384 24.41797
#
# Velocity S-wave (km/s) = 3.23957 3.80999 3.53630
# Velocity P-wave (km/s) = 6.25946 7.28936 6.79395
#
# Compressibility (1/GPa) = 0.02033286
#
# Stress axis : x y z
#
# Youngs Moduli (GPa) = 126.91662 35.42459 83.13389
#
# Poissons Ratio (x) = 0.18382 0.16071
# Poissons Ratio (y) = 0.65858 0.56363
# Poissons Ratio (z) = 0.24536 0.24017
#
# Static dielectric constant tensor:
#      x y z
#    x 3.749210 0.000000 0.000000 
#    y 0.000000 3.380710 0.000000 
#    z 0.000000 0.000000 3.712240 
# 
# 
# High freq. dielectric constant tensor:
#      x y z
#    x 1.773580 0.000000 0.000000 
#    y 0.000000 1.743350 0.000000 
#    z 0.000000 0.000000 1.770270 
# 
# From -- ./inp_files/7039.got.cif
#   From: 2010.03.12/outbox.cif.g09.slc.cpg/sg64_4_cif.got.tgz:7039.got - 2010.04.10 20:19:32.
