data_PCOD8263421
_publ_section_title
;
Structure prediction by ZEFSAII (Michael W. Deem and Ramdas Pophale) SiO2 
 PCOD8263421
Probable space group: C M C A
;
_chemical_formula_sum "Si O2"
_cell_formula_units_Z 72
_cell_length_a 12.959379
_cell_length_b 29.245928
_cell_length_c 8.755979
_cell_angle_alpha 90.000000
_cell_angle_beta 90.000000
_cell_angle_gamma 90.000000
_cell_volume 3318.595415
_symmetry_space_group_name_H-M "C M C A"
_symmetry_group_IT_number 64
_symmetry_cell_setting 'orthorhombic'
loop_
_space_group_symop_operation_xyz
x,y,z
-x,1/2-y,1/2+z
x,-y,-z
-x,1/2+y,1/2-z
-x,-y,-z
x,1/2+y,1/2-z
-x,y,z
x,1/2-y,1/2+z
1/2+x,1/2+y,z
1/2-x,-y,1/2+z
1/2+x,1/2-y,-z
1/2-x,y,1/2-z
1/2-x,1/2-y,-z
1/2+x,y,1/2-z
1/2-x,1/2+y,z
1/2+x,-y,1/2+z
loop_
_atom_site_type_symbol
_atom_site_label
_atom_site_fract_x
_atom_site_fract_y
_atom_site_fract_z
Si Si1 0.116392 0.725099 0.348480
Si Si2 0.750000 0.531455 0.250000
Si Si3 0.116979 0.049941 0.825048
Si Si4 0.194550 0.411457 0.025156
Si Si5 0.683914 0.807827 0.977131
O O1 0.192480 0.694372 0.452002
O O2 0.127397 0.713265 0.170626
O O3 0.147424 0.778329 0.376662
O O4 0.000000 0.715452 0.401702
O O5 0.832090 0.500408 0.343332
O O6 0.684431 0.562991 0.364089
O O7 0.120699 0.063480 0.646350
O O8 0.185503 0.086430 0.919849
O O9 0.000000 0.049767 0.885412
O O10 0.154008 0.360035 0.005646
#
# Coordination Sequence:
#
# PCOD8263421 Si02
#       5
#    16   8  16  16  16
#     4  10  21  38  59  83 115 152 192 241 297 350
#     4  10  20  38  62  88 122 154 188 242 296 346
#     4  10  22  39  60  86 119 160 197 236 293 354
#     4  10  22  40  60  87 121 154 196 246 292 346
#     4  10  22  39  59  86 117 153 197 243 291 348
#
# _framework density 21.695926
#
# number of rings (size 3 to 8) (size 9 to 14) (size 15 to 20)
#    0.000    2.222    0.000    4.667    0.000   13.333 
#    0.000    2.222    0.000    0.000    0.000    0.000 
#    0.000    0.000    0.000    0.000    0.000    0.000 
#
# Total GULP energy -446369.816172 kJ/mol
# GULP energy per Si atom -12399.161560 kJ/mol
# Density = 2.164654 g / cm^3
# Si number density = 21.695926 Si / 1000 Ang^3
#
#
#
# Elastic Constant Matrix: (Units=GPa)
#
#
# Indices 1 2 3 4 5 6 
#
# 1 121.0633 -15.8716 -12.8535 0.0000 0.0000 0.0000
# 2 -15.8716 118.9333 23.8042 0.0000 0.0000 0.0000
# 3 -12.8535 23.8042 66.3257 0.0000 0.0000 0.0000
# 4 0.0000 0.0000 0.0000 33.9418 0.0000 0.0000
# 5 0.0000 0.0000 0.0000 0.0000 18.7053 0.0000
# 6 0.0000 0.0000 0.0000 0.0000 0.0000 9.4144
#
#
#
# Elastic Compliance Matrix: (Units=1/GPa)
#
#
# Indices 1 2 3 4 5 6 
#
# 1 0.008516 0.000869 0.001339 0.000000 0.000000 0.000000
# 2 0.000869 0.009147 -0.003115 0.000000 0.000000 0.000000
# 3 0.001339 -0.003115 0.016454 0.000000 0.000000 0.000000
# 4 0.000000 0.000000 0.000000 0.029462 0.000000 0.000000
# 5 0.000000 0.000000 0.000000 0.000000 0.053461 0.000000
# 6 0.000000 0.000000 0.000000 0.000000 0.000000 0.106220
#
#
# Mechanical properties :
#
#
# Convention : Reuss Voigt Hill
#
# Bulk Modulus (GPa) = 30.95691 32.94229 31.94960
# Shear Modulus (GPa) = 21.20048 33.16184 27.18116
#
# Velocity S-wave (km/s) = 3.12935 3.91382 3.54336
# Velocity P-wave (km/s) = 5.23036 5.96998 5.61236
#
# Compressibility (1/GPa) = 0.03230296
#
# Stress axis : x y z
#
# Youngs Moduli (GPa) = 117.42416 109.32104 60.77407
#
# Poissons Ratio (x) = -0.09495 -0.08136
# Poissons Ratio (y) = -0.10199 0.18929
# Poissons Ratio (z) = -0.15719 0.34050
#
# Static dielectric constant tensor:
#      x y z
#    x 3.796180 0.000000 0.000000 
#    y 0.000000 3.789910 0.000000 
#    z 0.000000 0.000000 3.814050 
# 
# 
# High freq. dielectric constant tensor:
#      x y z
#    x 1.835820 0.000000 0.000000 
#    y 0.000000 1.842730 0.000000 
#    z 0.000000 0.000000 1.854140 
# 
# From -- ./inp_files/5960.got.cif
#   From: 2010.03.12/outbox.cif.g09.slc.cpg/sg64_3_cif.got.tgz:5960.got - 2010.04.10 20:19:32.
