data_PCOD8263592
_publ_section_title
;
Structure prediction by ZEFSAII (Michael W. Deem and Ramdas Pophale) SiO2 
 PCOD8263592
Probable space group: C M C A
;
_chemical_formula_sum "Si O2"
_cell_formula_units_Z 64
_cell_length_a 15.577943
_cell_length_b 12.028339
_cell_length_c 14.622114
_cell_angle_alpha 90.000000
_cell_angle_beta 90.000000
_cell_angle_gamma 90.000000
_cell_volume 2739.844628
_symmetry_space_group_name_H-M "C M C A"
_symmetry_group_IT_number 64
_symmetry_cell_setting 'orthorhombic'
loop_
_space_group_symop_operation_xyz
x,y,z
-x,1/2-y,1/2+z
x,-y,-z
-x,1/2+y,1/2-z
-x,-y,-z
x,1/2+y,1/2-z
-x,y,z
x,1/2-y,1/2+z
1/2+x,1/2+y,z
1/2-x,-y,1/2+z
1/2+x,1/2-y,-z
1/2-x,y,1/2-z
1/2-x,1/2-y,-z
1/2+x,y,1/2-z
1/2-x,1/2+y,z
1/2+x,-y,1/2+z
loop_
_atom_site_type_symbol
_atom_site_label
_atom_site_fract_x
_atom_site_fract_y
_atom_site_fract_z
Si Si1 0.902447 0.018087 0.606679
Si Si2 0.335872 0.267047 0.310286
Si Si3 0.095145 0.219090 0.367490
Si Si4 0.602817 0.624987 0.026285
O O1 0.839095 0.117998 0.634109
O O2 0.000000 0.043305 0.640643
O O3 0.901130 0.000000 0.500000
O O4 0.862814 0.903063 0.646454
O O5 0.250000 0.250473 0.250000
O O6 0.408597 0.275707 0.232064
O O7 0.351847 0.164241 0.379684
O O8 0.139411 0.296985 0.444087
O O9 0.000000 0.198163 0.405361
O O10 0.500000 0.633320 0.037740
O O11 0.630274 0.500000 0.000000
#
# Coordination Sequence:
#
# PCOD8263592 Si02
#       4
#    16  16  16  16
#     4  10  20  42  72  97 130 179 239 295 336 401
#     4  12  26  42  64 102 146 181 218 284 363 434
#     4  10  22  41  69 100 130 178 239 295 343 401
#     4  10  22  44  71 101 137 182 239 293 342 408
#
# _framework density 23.358989000000001
#
# number of rings (size 3 to 8) (size 9 to 14) (size 15 to 20)
#    0.000    1.500    2.500    2.250    3.500    2.000 
#    0.000    0.000    0.000    0.000    0.000    0.000 
#    0.000    0.000    0.000    0.000    0.000    0.000 
#
# Total GULP energy -396482.436848 kJ/mol
# GULP energy per Si atom -12390.076151 kJ/mol
# Density = 2.330582 g / cm^3
# Si number density = 23.358989 Si / 1000 Ang^3
#
#
#
# Elastic Constant Matrix: (Units=GPa)
#
#
# Indices 1 2 3 4 5 6 
#
# 1 58.9988 57.3825 39.4671 0.0000 0.0000 0.0000
# 2 57.3825 184.5342 81.6972 0.0000 0.0000 0.0000
# 3 39.4671 81.6972 166.6517 0.0000 0.0000 0.0000
# 4 0.0000 0.0000 0.0000 43.3852 0.0000 0.0000
# 5 0.0000 0.0000 0.0000 0.0000 29.2978 0.0000
# 6 0.0000 0.0000 0.0000 0.0000 0.0000 5.4449
#
#
#
# Elastic Compliance Matrix: (Units=1/GPa)
#
#
# Indices 1 2 3 4 5 6 
#
# 1 0.025227 -0.006641 -0.002719 0.000000 0.000000 0.000000
# 2 -0.006641 0.008669 -0.002677 0.000000 0.000000 0.000000
# 3 -0.002719 -0.002677 0.007957 0.000000 0.000000 0.000000
# 4 0.000000 0.000000 0.000000 0.023049 0.000000 0.000000
# 5 0.000000 0.000000 0.000000 0.000000 0.034132 0.000000
# 6 0.000000 0.000000 0.000000 0.000000 0.000000 0.183657
#
#
# Mechanical properties :
#
#
# Convention : Reuss Voigt Hill
#
# Bulk Modulus (GPa) = 56.24462 85.25315 70.74888
# Shear Modulus (GPa) = 15.99016 31.06812 23.52914
#
# Velocity S-wave (km/s) = 2.61921 3.65091 3.17722
# Velocity P-wave (km/s) = 5.76868 7.37214 6.61914
#
# Compressibility (1/GPa) = 0.01777948
#
# Stress axis : x y z
#
# Youngs Moduli (GPa) = 39.63965 115.34859 125.67745
#
# Poissons Ratio (x) = 0.76602 0.34170
# Poissons Ratio (y) = 0.26324 0.33647
# Poissons Ratio (z) = 0.10777 0.30881
#
# Static dielectric constant tensor:
#      x y z
#    x 3.944670 0.000000 0.000000 
#    y 0.000000 5.642820 0.000000 
#    z 0.000000 0.000000 4.766270 
# 
# 
# High freq. dielectric constant tensor:
#      x y z
#    x 1.893950 0.000000 0.000000 
#    y 0.000000 1.936510 0.000000 
#    z 0.000000 0.000000 1.936430 
# 
# From -- ./inp_files/24851.got.cif
#   From: 2010.03.12/outbox.cif.g09.slc.cpg/sg64_13_cif.got.tgz:24851.got - 2010.04.10 20:19:32.
