data_PCOD8263993
_publ_section_title
;
Structure prediction by ZEFSAII (Michael W. Deem and Ramdas Pophale) SiO2 
 PCOD8263993
Probable space group: C M C A
;
_chemical_formula_sum "Si O2"
_cell_formula_units_Z 112
_cell_length_a 25.619951
_cell_length_b 13.704954
_cell_length_c 13.762764
_cell_angle_alpha 90.000000
_cell_angle_beta 90.000000
_cell_angle_gamma 90.000000
_cell_volume 4832.385136
_symmetry_space_group_name_H-M "C M C A"
_symmetry_group_IT_number 64
_symmetry_cell_setting 'orthorhombic'
loop_
_space_group_symop_operation_xyz
x,y,z
-x,1/2-y,1/2+z
x,-y,-z
-x,1/2+y,1/2-z
-x,-y,-z
x,1/2+y,1/2-z
-x,y,z
x,1/2-y,1/2+z
1/2+x,1/2+y,z
1/2-x,-y,1/2+z
1/2+x,1/2-y,-z
1/2-x,y,1/2-z
1/2-x,1/2-y,-z
1/2+x,y,1/2-z
1/2-x,1/2+y,z
1/2+x,-y,1/2+z
loop_
_atom_site_type_symbol
_atom_site_label
_atom_site_fract_x
_atom_site_fract_y
_atom_site_fract_z
Si Si1 0.886795 0.488568 0.216173
Si Si2 0.774839 0.488852 0.147949
Si Si3 0.438556 0.209957 0.776081
Si Si4 0.440852 0.196830 0.552921
Si Si5 0.264166 0.640345 0.017121
Si Si6 0.939919 0.590624 0.061424
Si Si7 0.122617 0.623303 0.390662
O O1 0.832650 0.450197 0.170113
O O2 0.927972 0.402352 0.195326
O O3 0.907794 0.585741 0.162074
O O4 0.882040 0.522940 0.328965
O O5 0.750000 0.514692 0.250000
O O6 0.779018 0.588829 0.085579
O O7 0.738124 0.412839 0.088229
O O8 0.500000 0.235527 0.794074
O O9 0.422654 0.211145 0.662987
O O10 0.400674 0.284586 0.831830
O O11 0.500000 0.161436 0.548309
O O12 0.432587 0.305745 0.506024
O O13 0.408809 0.116721 0.492396
O O14 0.318008 0.635054 0.075917
O O15 0.250000 0.750000 0.000000
O O16 0.000000 0.577143 0.089128
O O17 0.918207 0.500000 0.000000
#
# Coordination Sequence:
#
# PCOD8263993 Si02
#       7
#    16  16  16  16  16  16  16
#     4  12  25  43  73 100 142 197 236 301 375 430
#     4  11  26  49  70 108 149 183 248 315 364 456
#     4  11  25  44  70 109 150 192 245 297 365 449
#     4  10  23  40  63 100 145 184 233 299 352 429
#     4  11  27  47  75 106 141 190 245 308 380 441
#     4  10  21  39  66 101 138 184 240 290 354 428
#     4  12  25  45  73 104 142 193 247 303 370 446
#
# _framework density 23.176960999999999
#
# number of rings (size 3 to 8) (size 9 to 14) (size 15 to 20)
#    0.000    1.000    2.857    2.571    6.000    4.000 
#    0.000    1.429    0.000    0.000    0.000    0.000 
#    0.000    0.000    0.000    0.000    0.000    0.000 
#
# Total GULP energy -694041.724654 kJ/mol
# GULP energy per Si atom -12393.602226 kJ/mol
# Density = 2.312421 g / cm^3
# Si number density = 23.176961 Si / 1000 Ang^3
#
#
#
# Elastic Constant Matrix: (Units=GPa)
#
#
# Indices 1 2 3 4 5 6 
#
# 1 72.3287 14.9504 33.8809 0.0000 0.0000 0.0000
# 2 14.9504 92.0656 25.0399 0.0000 0.0000 0.0000
# 3 33.8809 25.0399 97.2174 0.0000 0.0000 0.0000
# 4 0.0000 0.0000 0.0000 34.3217 0.0000 0.0000
# 5 0.0000 0.0000 0.0000 0.0000 48.6157 0.0000
# 6 0.0000 0.0000 0.0000 0.0000 0.0000 26.8467
#
#
#
# Elastic Compliance Matrix: (Units=1/GPa)
#
#
# Indices 1 2 3 4 5 6 
#
# 1 0.016648 -0.001210 -0.005490 0.000000 0.000000 0.000000
# 2 -0.001210 0.011768 -0.002609 0.000000 0.000000 0.000000
# 3 -0.005490 -0.002609 0.012872 0.000000 0.000000 0.000000
# 4 0.000000 0.000000 0.000000 0.029136 0.000000 0.000000
# 5 0.000000 0.000000 0.000000 0.000000 0.020569 0.000000
# 6 0.000000 0.000000 0.000000 0.000000 0.000000 0.037249
#
#
# Mechanical properties :
#
#
# Convention : Reuss Voigt Hill
#
# Bulk Modulus (GPa) = 44.11481 45.48378 44.79929
# Shear Modulus (GPa) = 32.37994 34.47287 33.42641
#
# Velocity S-wave (km/s) = 3.74180 3.86084 3.80178
# Velocity P-wave (km/s) = 6.14356 6.28824 6.21632
#
# Compressibility (1/GPa) = 0.02266813
#
# Stress axis : x y z
#
# Youngs Moduli (GPa) = 60.06852 84.97616 77.69027
#
# Poissons Ratio (x) = 0.10284 0.42653
# Poissons Ratio (y) = 0.07269 0.20272
# Poissons Ratio (z) = 0.32978 0.22173
#
# Static dielectric constant tensor:
#      x y z
#    x 4.128880 0.000000 0.000000 
#    y 0.000000 4.206120 0.000000 
#    z 0.000000 0.000000 4.674690 
# 
# 
# High freq. dielectric constant tensor:
#      x y z
#    x 1.907870 0.000000 0.000000 
#    y 0.000000 1.911200 0.000000 
#    z 0.000000 0.000000 1.938460 
# 
# From -- ./inp_files/27404.got.cif
#   From: 2010.03.12/outbox.cif.g09.slc.cpg/sg64_14_cif.got.tgz:27404.got - 2010.04.10 20:19:32.
