data_PCOD8263988
_publ_section_title
;
Structure prediction by ZEFSAII (Michael W. Deem and Ramdas Pophale) SiO2 
 PCOD8263988
Probable space group: C M C A
;
_chemical_formula_sum "Si O2"
_cell_formula_units_Z 80
_cell_length_a 30.750357
_cell_length_b 5.014178
_cell_length_c 25.956700
_cell_angle_alpha 90.000000
_cell_angle_beta 90.000000
_cell_angle_gamma 90.000000
_cell_volume 4002.205522
_symmetry_space_group_name_H-M "C M C A"
_symmetry_group_IT_number 64
_symmetry_cell_setting 'orthorhombic'
loop_
_space_group_symop_operation_xyz
x,y,z
-x,1/2-y,1/2+z
x,-y,-z
-x,1/2+y,1/2-z
-x,-y,-z
x,1/2+y,1/2-z
-x,y,z
x,1/2-y,1/2+z
1/2+x,1/2+y,z
1/2-x,-y,1/2+z
1/2+x,1/2-y,-z
1/2-x,y,1/2-z
1/2-x,1/2-y,-z
1/2+x,y,1/2-z
1/2-x,1/2+y,z
1/2+x,-y,1/2+z
loop_
_atom_site_type_symbol
_atom_site_label
_atom_site_fract_x
_atom_site_fract_y
_atom_site_fract_z
Si Si1 0.500000 0.418295 0.165048
Si Si2 0.407334 0.024096 0.058410
Si Si3 0.631758 0.022676 0.390458
Si Si4 0.778445 0.022716 0.058843
Si Si5 0.908305 0.936455 0.216690
Si Si6 0.000000 0.417451 0.096295
O O1 0.457901 0.473995 0.199233
O O2 0.500000 0.615606 0.116434
O O3 0.500000 0.114767 0.145272
O O4 0.399691 0.321798 0.078884
O O5 0.379903 0.822826 0.093536
O O6 0.458282 0.961938 0.060757
O O7 0.390851 0.000000 0.000000
O O8 0.681787 0.962666 0.403187
O O9 0.624943 0.989969 0.329707
O O10 0.739787 0.816161 0.069854
O O11 0.795123 0.000000 0.000000
O O12 0.899203 0.640810 0.237121
#
# Coordination Sequence:
#
# PCOD8263988 Si02
#       6
#     8  16  16  16  16   8
#     4  12  22  41  61  83 122 163 215 267 310 338
#     4  12  23  38  60  88 126 169 203 242 303 367
#     4  12  24  42  63  91 126 158 207 258 304 365
#     4  10  21  39  65  95 123 154 193 241 307 378
#     4  12  24  41  63  88 119 164 211 265 311 351
#     4  12  21  39  56  85 126 167 200 253 293 366
#
# _framework density 19.988980000000002
#
# number of rings (size 3 to 8) (size 9 to 14) (size 15 to 20)
#    0.000    0.400    4.000    6.300    0.000    1.600 
#    0.000    3.000    0.000    3.600    0.000    0.000 
#    0.000    0.000    0.000    0.000    0.000    0.000 
#
# Total GULP energy -496396.351212 kJ/mol
# GULP energy per Si atom -12409.908780 kJ/mol
# Density = 1.994348 g / cm^3
# Si number density = 19.988980 Si / 1000 Ang^3
#
#
#
# Elastic Constant Matrix: (Units=GPa)
#
#
# Indices 1 2 3 4 5 6 
#
# 1 99.7752 3.3700 33.1269 0.0000 0.0000 0.0000
# 2 3.3700 75.5790 10.3484 0.0000 0.0000 0.0000
# 3 33.1269 10.3484 97.8066 0.0000 0.0000 0.0000
# 4 0.0000 0.0000 0.0000 35.8946 0.0000 0.0000
# 5 0.0000 0.0000 0.0000 0.0000 16.7005 0.0000
# 6 0.0000 0.0000 0.0000 0.0000 0.0000 10.0703
#
#
#
# Elastic Compliance Matrix: (Units=1/GPa)
#
#
# Indices 1 2 3 4 5 6 
#
# 1 0.011292 0.000020 -0.003827 0.000000 0.000000 0.000000
# 2 0.000020 0.013426 -0.001427 0.000000 0.000000 0.000000
# 3 -0.003827 -0.001427 0.011671 0.000000 0.000000 0.000000
# 4 0.000000 0.000000 0.000000 0.027859 0.000000 0.000000
# 5 0.000000 0.000000 0.000000 0.000000 0.059878 0.000000
# 6 0.000000 0.000000 0.000000 0.000000 0.000000 0.099302
#
#
# Mechanical properties :
#
#
# Convention : Reuss Voigt Hill
#
# Bulk Modulus (GPa) = 38.57746 40.76127 39.66936
# Shear Modulus (GPa) = 20.61534 27.62077 24.11806
#
# Velocity S-wave (km/s) = 3.21493 3.72129 3.47734
# Velocity P-wave (km/s) = 5.75519 6.23700 6.00093
#
# Compressibility (1/GPa) = 0.02592187
#
# Stress axis : x y z
#
# Youngs Moduli (GPa) = 88.55492 74.48390 85.67913
#
# Poissons Ratio (x) = -0.00152 0.32788
# Poissons Ratio (y) = -0.00181 0.12230
# Poissons Ratio (z) = 0.33889 0.10632
#
# Static dielectric constant tensor:
#      x y z
#    x 3.467310 0.000000 0.000000 
#    y 0.000000 3.793120 0.000000 
#    z 0.000000 0.000000 3.550320 
# 
# 
# High freq. dielectric constant tensor:
#      x y z
#    x 1.767560 0.000000 0.000000 
#    y 0.000000 1.801300 0.000000 
#    z 0.000000 0.000000 1.769460 
# 
# From -- ./inp_files/3283.got.cif
#   From: 2010.03.12/outbox.cif.g09.slc.cpg/sg64_2_cif.got.tgz:3283.got - 2010.04.10 20:19:32.
