data_PCOD8263423
_publ_section_title
;
Structure prediction by ZEFSAII (Michael W. Deem and Ramdas Pophale) SiO2 
 PCOD8263423
Probable space group: C M C A
;
_chemical_formula_sum "Si O2"
_cell_formula_units_Z 96
_cell_length_a 8.384536
_cell_length_b 23.193802
_cell_length_c 25.491760
_cell_angle_alpha 90.000000
_cell_angle_beta 90.000000
_cell_angle_gamma 90.000000
_cell_volume 4957.363903
_symmetry_space_group_name_H-M "C M C A"
_symmetry_group_IT_number 64
_symmetry_cell_setting 'orthorhombic'
loop_
_space_group_symop_operation_xyz
x,y,z
-x,1/2-y,1/2+z
x,-y,-z
-x,1/2+y,1/2-z
-x,-y,-z
x,1/2+y,1/2-z
-x,y,z
x,1/2-y,1/2+z
1/2+x,1/2+y,z
1/2-x,-y,1/2+z
1/2+x,1/2-y,-z
1/2-x,y,1/2-z
1/2-x,1/2-y,-z
1/2+x,y,1/2-z
1/2-x,1/2+y,z
1/2+x,-y,1/2+z
loop_
_atom_site_type_symbol
_atom_site_label
_atom_site_fract_x
_atom_site_fract_y
_atom_site_fract_z
Si Si1 0.684826 0.504786 0.940047
Si Si2 0.314640 0.813628 0.505598
Si Si3 0.185894 0.121732 0.592325
Si Si4 0.687438 0.812024 0.194470
Si Si5 0.810845 0.681196 0.306359
Si Si6 0.316135 0.388097 0.597448
O O1 0.500000 0.522009 0.938875
O O2 0.785368 0.553401 0.909719
O O3 0.710033 0.444783 0.910522
O O4 0.745762 0.500000 0.000000
O O5 0.500000 0.813177 0.520827
O O6 0.250000 0.750000 0.500000
O O7 0.290530 0.848294 0.452205
O O8 0.216483 0.842662 0.551870
O O9 0.247118 0.146174 0.648104
O O10 0.000000 0.136029 0.583646
O O11 0.500000 0.812072 0.197567
O O12 0.750000 0.835792 0.250000
O O13 0.747823 0.746881 0.183661
O O14 0.750000 0.660229 0.250000
O O15 0.726778 0.639774 0.347423
O O16 0.000000 0.675616 0.311111
O O17 0.500000 0.406186 0.596309
#
# Coordination Sequence:
#
# PCOD8263423 Si02
#       6
#    16  16  16  16  16  16
#     4  11  23  40  61  85 116 158 203 247 299 356
#     4  12  24  38  57  86 120 155 193 241 299 358
#     4  11  22  38  60  88 119 154 198 245 296 355
#     4   9  20  37  60  88 119 155 193 237 290 349
#     4  10  20  38  62  89 123 159 198 244 296 356
#     4  12  24  39  61  88 118 156 200 247 300 357
#
# _framework density 19.365130000000001
#
# number of rings (size 3 to 8) (size 9 to 14) (size 15 to 20)
#    0.000    1.167    1.667    5.500    0.000    4.000 
#    0.000    0.833    0.000    2.000    0.000    0.000 
#    0.000    0.000    0.000    0.000    0.000    0.000 
#
# Total GULP energy -595504.816886 kJ/mol
# GULP energy per Si atom -12406.350352 kJ/mol
# Density = 1.932105 g / cm^3
# Si number density = 19.365130 Si / 1000 Ang^3
#
#
#
# Elastic Constant Matrix: (Units=GPa)
#
#
# Indices 1 2 3 4 5 6 
#
# 1 62.6790 7.5818 19.6751 0.0000 0.0000 0.0000
# 2 7.5818 114.9570 60.9940 0.0000 0.0000 0.0000
# 3 19.6751 60.9940 147.5519 0.0000 0.0000 0.0000
# 4 0.0000 0.0000 0.0000 12.3461 0.0000 0.0000
# 5 0.0000 0.0000 0.0000 0.0000 33.5571 0.0000
# 6 0.0000 0.0000 0.0000 0.0000 0.0000 32.0280
#
#
#
# Elastic Compliance Matrix: (Units=1/GPa)
#
#
# Indices 1 2 3 4 5 6 
#
# 1 0.016652 0.000102 -0.002263 0.000000 0.000000 0.000000
# 2 0.000102 0.011143 -0.004620 0.000000 0.000000 0.000000
# 3 -0.002263 -0.004620 0.008989 0.000000 0.000000 0.000000
# 4 0.000000 0.000000 0.000000 0.080998 0.000000 0.000000
# 5 0.000000 0.000000 0.000000 0.000000 0.029800 0.000000
# 6 0.000000 0.000000 0.000000 0.000000 0.000000 0.031223
#
#
# Mechanical properties :
#
#
# Convention : Reuss Voigt Hill
#
# Bulk Modulus (GPa) = 43.05985 55.74329 49.40157
# Shear Modulus (GPa) = 24.98665 31.38203 28.18434
#
# Velocity S-wave (km/s) = 3.59596 4.02996 3.81913
# Velocity P-wave (km/s) = 6.28691 7.10648 6.70922
#
# Compressibility (1/GPa) = 0.02322349
#
# Stress axis : x y z
#
# Youngs Moduli (GPa) = 60.05204 89.73869 111.24952
#
# Poissons Ratio (x) = -0.00918 0.25173
# Poissons Ratio (y) = -0.00614 0.51398
# Poissons Ratio (z) = 0.13588 0.41460
#
# Static dielectric constant tensor:
#      x y z
#    x 3.475320 0.000000 0.000000 
#    y 0.000000 3.618810 0.000000 
#    z 0.000000 0.000000 3.712770 
# 
# 
# High freq. dielectric constant tensor:
#      x y z
#    x 1.762360 0.000000 0.000000 
#    y 0.000000 1.753550 0.000000 
#    z 0.000000 0.000000 1.755850 
# 
# From -- ./inp_files/43026.got.cif
#   From: 2010.03.12/outbox.cif.g09.slc.cpg/sg64_22_cif.got.tgz:43026.got - 2010.04.10 20:19:32.
