data_PCOD8263620
_publ_section_title
;
Structure prediction by ZEFSAII (Michael W. Deem and Ramdas Pophale) SiO2 
 PCOD8263620
Probable space group: C M C A
;
_chemical_formula_sum "Si O2"
_cell_formula_units_Z 88
_cell_length_a 13.569105
_cell_length_b 23.819218
_cell_length_c 14.727324
_cell_angle_alpha 90.000000
_cell_angle_beta 90.000000
_cell_angle_gamma 90.000000
_cell_volume 4759.951676
_symmetry_space_group_name_H-M "C M C A"
_symmetry_group_IT_number 64
_symmetry_cell_setting 'orthorhombic'
loop_
_space_group_symop_operation_xyz
x,y,z
-x,1/2-y,1/2+z
x,-y,-z
-x,1/2+y,1/2-z
-x,-y,-z
x,1/2+y,1/2-z
-x,y,z
x,1/2-y,1/2+z
1/2+x,1/2+y,z
1/2-x,-y,1/2+z
1/2+x,1/2-y,-z
1/2-x,y,1/2-z
1/2-x,1/2-y,-z
1/2+x,y,1/2-z
1/2-x,1/2+y,z
1/2+x,-y,1/2+z
loop_
_atom_site_type_symbol
_atom_site_label
_atom_site_fract_x
_atom_site_fract_y
_atom_site_fract_z
Si Si1 0.804371 0.691078 0.910987
Si Si2 0.387133 0.952714 0.874679
Si Si3 0.250000 0.120991 0.250000
Si Si4 0.389738 0.251637 0.580431
Si Si5 0.611413 0.786018 0.714317
Si Si6 0.612280 0.424350 0.417436
O O1 0.687766 0.700605 0.926676
O O2 0.843441 0.730636 0.830566
O O3 0.819371 0.626520 0.882140
O O4 0.864370 0.702439 0.003728
O O5 0.500000 0.940033 0.846496
O O6 0.314003 0.918019 0.813535
O O7 0.363844 0.018953 0.861923
O O8 0.368477 0.935365 0.977425
O O9 0.322103 0.160142 0.311666
O O10 0.500000 0.227741 0.564390
O O11 0.383691 0.281908 0.677052
O O12 0.500000 0.794803 0.679747
O O13 0.500000 0.406236 0.400529
#
# Coordination Sequence:
#
# PCOD8263620 Si02
#       6
#    16  16   8  16  16  16
#     4  11  20  35  58  84 111 146 185 223 279 332
#     4   9  20  37  57  80 104 139 187 232 270 311
#     4  12  20  34  52  82 108 148 172 222 274 328
#     4  10  21  35  52  81 116 148 181 222 273 331
#     4  11  22  36  53  81 115 145 182 223 275 335
#     4   9  18  36  60  80 102 138 187 235 270 311
#
# _framework density 18.487583999999998
#
# number of rings (size 3 to 8) (size 9 to 14) (size 15 to 20)
#    0.000    1.818    1.818    4.364    2.545    2.909 
#    3.273    0.000    0.000    1.091    0.000    6.364 
#    0.000    0.000    0.000    0.000    0.000    0.000 
#
# Total GULP energy -545561.092683 kJ/mol
# GULP energy per Si atom -12399.115743 kJ/mol
# Density = 1.844551 g / cm^3
# Si number density = 18.487584 Si / 1000 Ang^3
#
#
#
# Elastic Constant Matrix: (Units=GPa)
#
#
# Indices 1 2 3 4 5 6 
#
# 1 150.4040 73.7570 27.4069 0.0000 0.0000 0.0000
# 2 73.7570 138.7132 25.7156 0.0000 0.0000 0.0000
# 3 27.4069 25.7156 62.0694 0.0000 0.0000 0.0000
# 4 0.0000 0.0000 0.0000 22.7810 0.0000 0.0000
# 5 0.0000 0.0000 0.0000 0.0000 23.9092 0.0000
# 6 0.0000 0.0000 0.0000 0.0000 0.0000 33.5635
#
#
#
# Elastic Compliance Matrix: (Units=1/GPa)
#
#
# Indices 1 2 3 4 5 6 
#
# 1 0.009268 -0.004516 -0.002221 0.000000 0.000000 0.000000
# 2 -0.004516 0.010010 -0.002153 0.000000 0.000000 0.000000
# 3 -0.002221 -0.002153 0.017984 0.000000 0.000000 0.000000
# 4 0.000000 0.000000 0.000000 0.043896 0.000000 0.000000
# 5 0.000000 0.000000 0.000000 0.000000 0.041825 0.000000
# 6 0.000000 0.000000 0.000000 0.000000 0.000000 0.029794
#
#
# Mechanical properties :
#
#
# Convention : Reuss Voigt Hill
#
# Bulk Modulus (GPa) = 51.33277 67.21619 59.27448
# Shear Modulus (GPa) = 28.24033 31.00454 29.62244
#
# Velocity S-wave (km/s) = 3.91260 4.09962 4.00720
# Velocity P-wave (km/s) = 6.94533 7.67109 7.31721
#
# Compressibility (1/GPa) = 0.01948073
#
# Stress axis : x y z
#
# Youngs Moduli (GPa) = 107.89436 99.90317 55.60576
#
# Poissons Ratio (x) = 0.45120 0.12352
# Poissons Ratio (y) = 0.48729 0.11971
# Poissons Ratio (z) = 0.23966 0.21508
#
# Static dielectric constant tensor:
#      x y z
#    x 3.680760 0.000000 0.000000 
#    y 0.000000 3.600100 0.000000 
#    z 0.000000 0.000000 3.937730 
# 
# 
# High freq. dielectric constant tensor:
#      x y z
#    x 1.725800 0.000000 0.000000 
#    y 0.000000 1.709680 0.000000 
#    z 0.000000 0.000000 1.700970 
# 
# From -- ./inp_files/23762.got.cif
#   From: 2010.03.12/outbox.cif.g09.slc.cpg/sg64_12_cif.got.tgz:23762.got - 2010.04.10 20:19:32.
