data_PCOD8263075
_publ_section_title
;
Structure prediction by ZEFSAII (Michael W. Deem and Ramdas Pophale) SiO2 
 PCOD8263075
Probable space group: C M C A
;
_chemical_formula_sum "Si O2"
_cell_formula_units_Z 112
_cell_length_a 15.550049
_cell_length_b 21.470966
_cell_length_c 15.978040
_cell_angle_alpha 90.000000
_cell_angle_beta 90.000000
_cell_angle_gamma 90.000000
_cell_volume 5334.661288
_symmetry_space_group_name_H-M "C M C A"
_symmetry_group_IT_number 64
_symmetry_cell_setting 'orthorhombic'
loop_
_space_group_symop_operation_xyz
x,y,z
-x,1/2-y,1/2+z
x,-y,-z
-x,1/2+y,1/2-z
-x,-y,-z
x,1/2+y,1/2-z
-x,y,z
x,1/2-y,1/2+z
1/2+x,1/2+y,z
1/2-x,-y,1/2+z
1/2+x,1/2-y,-z
1/2-x,y,1/2-z
1/2-x,1/2-y,-z
1/2+x,y,1/2-z
1/2-x,1/2+y,z
1/2+x,-y,1/2+z
loop_
_atom_site_type_symbol
_atom_site_label
_atom_site_fract_x
_atom_site_fract_y
_atom_site_fract_z
Si Si1 0.665653 0.122407 0.298935
Si Si2 0.740924 0.833433 0.088303
Si Si3 0.597688 0.749520 0.141152
Si Si4 0.593829 0.949984 0.852075
Si Si5 0.755865 0.564452 0.453477
Si Si6 0.336358 0.930051 0.217860
Si Si7 0.096214 0.678159 0.686697
O O1 0.750000 0.147293 0.250000
O O2 0.617041 0.176949 0.347606
O O3 0.604130 0.091598 0.230670
O O4 0.688289 0.070158 0.368854
O O5 0.667990 0.779377 0.076160
O O6 0.699382 0.878972 0.154984
O O7 0.830037 0.801958 0.120653
O O8 0.766768 0.872739 0.006891
O O9 0.500000 0.758766 0.106715
O O10 0.607044 0.779446 0.232255
O O11 0.500000 0.937722 0.888895
O O12 0.656208 0.935563 0.928481
O O13 0.601559 0.022252 0.827392
O O14 0.781891 0.500000 0.500000
O O15 0.250000 0.966037 0.250000
O O16 0.389370 0.894719 0.290277
O O17 0.000000 0.685825 0.648372
#
# Coordination Sequence:
#
# PCOD8263075 Si02
#       7
#    16  16  16  16  16  16  16
#     4  10  22  39  63  83 115 160 209 245 300 358
#     4  10  20  35  60  85 124 159 195 243 312 364
#     4  10  20  38  62  91 121 156 206 256 301 356
#     4  11  22  36  58  86 115 153 205 254 296 353
#     4  11  23  40  58  87 124 165 200 243 306 372
#     4   9  16  31  53  80 115 154 197 240 292 353
#     4   9  18  32  57  88 116 151 199 251 298 352
#
# _framework density 20.994772000000001
#
# number of rings (size 3 to 8) (size 9 to 14) (size 15 to 20)
#    0.000    2.000    1.429    4.286    2.000    2.000 
#    0.000    1.429    0.000    5.571    0.000    0.000 
#    0.000    0.000    0.000    0.000    0.000    0.000 
#
# Total GULP energy -694121.950451 kJ/mol
# GULP energy per Si atom -12395.034829 kJ/mol
# Density = 2.094699 g / cm^3
# Si number density = 20.994772 Si / 1000 Ang^3
#
#
#
# Elastic Constant Matrix: (Units=GPa)
#
#
# Indices 1 2 3 4 5 6 
#
# 1 95.1714 19.8784 2.0086 0.0000 0.0000 0.0000
# 2 19.8784 70.0496 7.4782 0.0000 0.0000 0.0000
# 3 2.0086 7.4782 39.3978 0.0000 0.0000 0.0000
# 4 0.0000 0.0000 0.0000 13.4044 0.0000 0.0000
# 5 0.0000 0.0000 0.0000 0.0000 20.5229 0.0000
# 6 0.0000 0.0000 0.0000 0.0000 0.0000 14.1182
#
#
#
# Elastic Compliance Matrix: (Units=1/GPa)
#
#
# Indices 1 2 3 4 5 6 
#
# 1 0.011169 -0.003173 0.000033 0.000000 0.000000 0.000000
# 2 -0.003173 0.015472 -0.002775 0.000000 0.000000 0.000000
# 3 0.000033 -0.002775 0.025907 0.000000 0.000000 0.000000
# 4 0.000000 0.000000 0.000000 0.074602 0.000000 0.000000
# 5 0.000000 0.000000 0.000000 0.000000 0.048726 0.000000
# 6 0.000000 0.000000 0.000000 0.000000 0.000000 0.070830
#
#
# Mechanical properties :
#
#
# Convention : Reuss Voigt Hill
#
# Bulk Modulus (GPa) = 24.55901 29.26102 26.91002
# Shear Modulus (GPa) = 18.37486 21.29270 19.83378
#
# Velocity S-wave (km/s) = 2.96161 3.18809 3.07693
# Velocity P-wave (km/s) = 4.83920 5.24590 5.04665
#
# Compressibility (1/GPa) = 0.04071825
#
# Stress axis : x y z
#
# Youngs Moduli (GPa) = 89.53008 64.63161 38.59936
#
# Poissons Ratio (x) = 0.20508 -0.00127
# Poissons Ratio (y) = 0.28409 0.10712
# Poissons Ratio (z) = -0.00294 0.17936
#
# Static dielectric constant tensor:
#      x y z
#    x 3.990730 0.000000 0.000000 
#    y 0.000000 3.760010 0.000000 
#    z 0.000000 0.000000 3.696360 
# 
# 
# High freq. dielectric constant tensor:
#      x y z
#    x 1.821400 0.000000 0.000000 
#    y 0.000000 1.820580 0.000000 
#    z 0.000000 0.000000 1.796970 
# 
# From -- ./inp_files/24281.got.cif
#   From: 2010.03.12/outbox.cif.g09.slc.cpg/sg64_13_cif.got.tgz:24281.got - 2010.04.10 20:19:32.
