data_PCOD8263198
_publ_section_title
;
Structure prediction by ZEFSAII (Michael W. Deem and Ramdas Pophale) SiO2 
 PCOD8263198
Probable space group: C M C A
;
_chemical_formula_sum "Si O2"
_cell_formula_units_Z 96
_cell_length_a 8.858803
_cell_length_b 30.188529
_cell_length_c 18.609350
_cell_angle_alpha 90.000000
_cell_angle_beta 90.000000
_cell_angle_gamma 90.000000
_cell_volume 4976.777212
_symmetry_space_group_name_H-M "C M C A"
_symmetry_group_IT_number 64
_symmetry_cell_setting 'orthorhombic'
loop_
_space_group_symop_operation_xyz
x,y,z
-x,1/2-y,1/2+z
x,-y,-z
-x,1/2+y,1/2-z
-x,-y,-z
x,1/2+y,1/2-z
-x,y,z
x,1/2-y,1/2+z
1/2+x,1/2+y,z
1/2-x,-y,1/2+z
1/2+x,1/2-y,-z
1/2-x,y,1/2-z
1/2-x,1/2-y,-z
1/2+x,y,1/2-z
1/2-x,1/2+y,z
1/2+x,-y,1/2+z
loop_
_atom_site_type_symbol
_atom_site_label
_atom_site_fract_x
_atom_site_fract_y
_atom_site_fract_z
Si Si1 0.675512 0.291845 0.591239
Si Si2 0.675266 0.298842 0.426688
Si Si3 0.320813 0.869450 0.673518
Si Si4 0.178653 0.955164 0.090264
Si Si5 0.677226 0.879064 0.175066
Si Si6 0.178549 0.553877 0.429748
O O1 0.500000 0.296456 0.609611
O O2 0.712573 0.307153 0.510199
O O3 0.725518 0.241360 0.603629
O O4 0.769694 0.321672 0.645848
O O5 0.500000 0.286768 0.416252
O O6 0.722798 0.342595 0.383944
O O7 0.500000 0.870774 0.679328
O O8 0.250000 0.879803 0.750000
O O9 0.256299 0.906993 0.619604
O O10 0.260835 0.926536 0.150633
O O11 0.000000 0.948840 0.097991
O O12 0.227131 0.006256 0.102252
O O13 0.236886 0.940158 0.011347
O O14 0.500000 0.882435 0.185344
O O15 0.750000 0.864750 0.250000
O O16 0.000000 0.555816 0.432145
#
# Coordination Sequence:
#
# PCOD8263198 Si02
#       6
#    16  16  16  16  16  16
#     4  10  20  36  59  84 107 136 177 224 272 319
#     4   9  20  38  58  80 108 141 179 222 266 318
#     4  11  22  36  53  77 110 146 181 218 266 320
#     4   9  17  35  60  83 107 138 179 223 268 317
#     4  11  23  37  53  78 111 145 180 219 266 318
#     4   8  17  34  58  83 107 140 180 221 265 318
#
# _framework density 19.28959
#
# number of rings (size 3 to 8) (size 9 to 14) (size 15 to 20)
#    0.000    2.333    0.000    3.500    0.000    3.333 
#    0.000    7.500    0.000    0.000    0.000    0.000 
#    0.000    0.000    0.000    0.000    0.000    0.000 
#
# Total GULP energy -595327.883281 kJ/mol
# GULP energy per Si atom -12402.664235 kJ/mol
# Density = 1.924569 g / cm^3
# Si number density = 19.289590 Si / 1000 Ang^3
#
#
#
# Elastic Constant Matrix: (Units=GPa)
#
#
# Indices 1 2 3 4 5 6 
#
# 1 62.5720 30.2740 26.5052 0.0000 0.0000 0.0000
# 2 30.2740 81.9079 29.0153 0.0000 0.0000 0.0000
# 3 26.5052 29.0153 67.1282 0.0000 0.0000 0.0000
# 4 0.0000 0.0000 0.0000 18.8574 0.0000 0.0000
# 5 0.0000 0.0000 0.0000 0.0000 29.3867 0.0000
# 6 0.0000 0.0000 0.0000 0.0000 0.0000 25.7617
#
#
#
# Elastic Compliance Matrix: (Units=1/GPa)
#
#
# Indices 1 2 3 4 5 6 
#
# 1 0.021276 -0.005772 -0.005906 0.000000 0.000000 0.000000
# 2 -0.005772 0.015982 -0.004629 0.000000 0.000000 0.000000
# 3 -0.005906 -0.004629 0.019230 0.000000 0.000000 0.000000
# 4 0.000000 0.000000 0.000000 0.053030 0.000000 0.000000
# 5 0.000000 0.000000 0.000000 0.000000 0.034029 0.000000
# 6 0.000000 0.000000 0.000000 0.000000 0.000000 0.038817
#
#
# Mechanical properties :
#
#
# Convention : Reuss Voigt Hill
#
# Bulk Modulus (GPa) = 41.88640 42.57747 42.23194
# Shear Modulus (GPa) = 22.42811 23.18874 22.80843
#
# Velocity S-wave (km/s) = 3.41355 3.47095 3.44237
# Velocity P-wave (km/s) = 6.10721 6.17932 6.14337
#
# Compressibility (1/GPa) = 0.02387410
#
# Stress axis : x y z
#
# Youngs Moduli (GPa) = 47.00179 62.57078 52.00301
#
# Poissons Ratio (x) = 0.36113 0.30713
# Poissons Ratio (y) = 0.27128 0.24073
# Poissons Ratio (z) = 0.27759 0.28965
#
# Static dielectric constant tensor:
#      x y z
#    x 3.310090 0.000000 0.000000 
#    y 0.000000 3.632900 0.000000 
#    z 0.000000 0.000000 3.599360 
# 
# 
# High freq. dielectric constant tensor:
#      x y z
#    x 1.737180 0.000000 0.000000 
#    y 0.000000 1.758880 0.000000 
#    z 0.000000 0.000000 1.748660 
# 
# From -- ./inp_files/37122.got.cif
#   From: 2010.03.12/outbox.cif.g09.slc.cpg/sg64_19_cif.got.tgz:37122.got - 2010.04.10 20:19:32.
