data_PCOD8263133
_publ_section_title
;
Structure prediction by ZEFSAII (Michael W. Deem and Ramdas Pophale) SiO2 
 PCOD8263133
Probable space group: C M C A
;
_chemical_formula_sum "Si O2"
_cell_formula_units_Z 96
_cell_length_a 23.612975
_cell_length_b 8.667164
_cell_length_c 21.977263
_cell_angle_alpha 90.000000
_cell_angle_beta 90.000000
_cell_angle_gamma 90.000000
_cell_volume 4497.812293
_symmetry_space_group_name_H-M "C M C A"
_symmetry_group_IT_number 64
_symmetry_cell_setting 'orthorhombic'
loop_
_space_group_symop_operation_xyz
x,y,z
-x,1/2-y,1/2+z
x,-y,-z
-x,1/2+y,1/2-z
-x,-y,-z
x,1/2+y,1/2-z
-x,y,z
x,1/2-y,1/2+z
1/2+x,1/2+y,z
1/2-x,-y,1/2+z
1/2+x,1/2-y,-z
1/2-x,y,1/2-z
1/2-x,1/2-y,-z
1/2+x,y,1/2-z
1/2-x,1/2+y,z
1/2+x,-y,1/2+z
loop_
_atom_site_type_symbol
_atom_site_label
_atom_site_fract_x
_atom_site_fract_y
_atom_site_fract_z
Si Si1 0.882334 0.319850 0.837891
Si Si2 0.000000 0.298451 0.165470
Si Si3 0.807795 0.675057 0.277595
Si Si4 0.620324 0.847868 0.122070
Si Si5 0.796646 0.584139 0.627361
Si Si6 0.715377 0.287727 0.940039
Si Si7 0.500000 0.142132 0.211811
O O1 0.847344 0.367633 0.778657
O O2 0.880463 0.467427 0.882193
O O3 0.856880 0.171836 0.872889
O O4 0.946027 0.277673 0.819261
O O5 0.943884 0.283446 0.123872
O O6 0.000000 0.459283 0.201752
O O7 0.000000 0.164275 0.215637
O O8 0.750000 0.750761 0.250000
O O9 0.844145 0.788935 0.319802
O O10 0.791476 0.514629 0.311207
O O11 0.652198 0.785945 0.061014
O O12 0.748059 0.714993 0.619403
O O13 0.790649 0.471478 0.568855
O O14 0.750000 0.250000 0.000000
#
# Coordination Sequence:
#
# PCOD8263133 Si02
#       7
#    16   8  16  16  16  16   8
#     4  11  21  36  55  88 127 164 204 241 297 374
#     4  10  20  36  56  87 123 168 212 250 302 368
#     4  11  21  33  53  84 123 166 200 245 302 377
#     4  10  21  36  57  85 119 160 207 254 307 370
#     4  11  24  37  58  88 119 160 204 255 315 370
#     4  11  23  42  63  87 116 156 210 272 329 367
#     4  10  22  34  58  85 129 177 210 241 291 364
#
# _framework density 21.343709
#
# number of rings (size 3 to 8) (size 9 to 14) (size 15 to 20)
#    0.000    1.333    1.667    5.500    2.333    2.667 
#    0.000    0.000    0.000    1.000    0.000   11.667 
#    0.000    0.000    0.000    0.000    0.000    0.000 
#
# Total GULP energy -595043.129671 kJ/mol
# GULP energy per Si atom -12396.731868 kJ/mol
# Density = 2.129513 g / cm^3
# Si number density = 21.343709 Si / 1000 Ang^3
#
#
#
# Elastic Constant Matrix: (Units=GPa)
#
#
# Indices 1 2 3 4 5 6 
#
# 1 188.4046 46.4748 46.2580 0.0000 0.0000 0.0000
# 2 46.4748 87.2313 18.0956 0.0000 0.0000 0.0000
# 3 46.2580 18.0956 63.1947 0.0000 0.0000 0.0000
# 4 0.0000 0.0000 0.0000 20.7722 0.0000 0.0000
# 5 0.0000 0.0000 0.0000 0.0000 34.2400 0.0000
# 6 0.0000 0.0000 0.0000 0.0000 0.0000 32.9848
#
#
#
# Elastic Compliance Matrix: (Units=1/GPa)
#
#
# Indices 1 2 3 4 5 6 
#
# 1 0.007088 -0.002870 -0.004366 0.000000 0.000000 0.000000
# 2 -0.002870 0.013350 -0.001722 0.000000 0.000000 0.000000
# 3 -0.004366 -0.001722 0.019513 0.000000 0.000000 0.000000
# 4 0.000000 0.000000 0.000000 0.048141 0.000000 0.000000
# 5 0.000000 0.000000 0.000000 0.000000 0.029206 0.000000
# 6 0.000000 0.000000 0.000000 0.000000 0.000000 0.030317
#
#
# Mechanical properties :
#
#
# Convention : Reuss Voigt Hill
#
# Bulk Modulus (GPa) = 45.38344 62.27638 53.82991
# Shear Modulus (GPa) = 28.92234 32.79954 30.86094
#
# Velocity S-wave (km/s) = 3.68513 3.92437 3.80663
# Velocity P-wave (km/s) = 6.27823 7.05517 6.67801
#
# Compressibility (1/GPa) = 0.02203447
#
# Stress axis : x y z
#
# Youngs Moduli (GPa) = 141.08679 74.90499 51.24738
#
# Poissons Ratio (x) = 0.21501 0.22376
# Poissons Ratio (y) = 0.40499 0.08823
# Poissons Ratio (z) = 0.61603 0.12896
#
# Static dielectric constant tensor:
#      x y z
#    x 4.298820 0.000000 0.000000 
#    y 0.000000 3.911850 0.000000 
#    z 0.000000 0.000000 3.518630 
# 
# 
# High freq. dielectric constant tensor:
#      x y z
#    x 1.845040 0.000000 0.000000 
#    y 0.000000 1.846700 0.000000 
#    z 0.000000 0.000000 1.796630 
# 
# From -- ./inp_files/46642.got.cif
#   From: 2010.03.12/outbox.cif.g09.slc.cpg/sg64_24_cif.got.tgz:46642.got - 2010.04.10 20:19:32.
