data_PCOD8263554
_publ_section_title
;
Structure prediction by ZEFSAII (Michael W. Deem and Ramdas Pophale) SiO2 
 PCOD8263554
Probable space group: C M C A
;
_chemical_formula_sum "Si O2"
_cell_formula_units_Z 64
_cell_length_a 17.819720
_cell_length_b 9.745894
_cell_length_c 17.695000
_cell_angle_alpha 90.000000
_cell_angle_beta 90.000000
_cell_angle_gamma 90.000000
_cell_volume 3073.074764
_symmetry_space_group_name_H-M "C M C A"
_symmetry_group_IT_number 64
_symmetry_cell_setting 'orthorhombic'
loop_
_space_group_symop_operation_xyz
x,y,z
-x,1/2-y,1/2+z
x,-y,-z
-x,1/2+y,1/2-z
-x,-y,-z
x,1/2+y,1/2-z
-x,y,z
x,1/2-y,1/2+z
1/2+x,1/2+y,z
1/2-x,-y,1/2+z
1/2+x,1/2-y,-z
1/2-x,y,1/2-z
1/2-x,1/2-y,-z
1/2+x,y,1/2-z
1/2-x,1/2+y,z
1/2+x,-y,1/2+z
loop_
_atom_site_type_symbol
_atom_site_label
_atom_site_fract_x
_atom_site_fract_y
_atom_site_fract_z
Si Si1 0.914522 0.285904 0.815241
Si Si2 0.643312 0.356316 0.530172
Si Si3 0.335255 0.510441 0.776628
Si Si4 0.686323 0.890525 0.562977
O O1 0.910398 0.292633 0.906298
O O2 0.886280 0.430741 0.783098
O O3 0.000000 0.259069 0.791367
O O4 0.863015 0.166183 0.781531
O O5 0.610526 0.500000 0.500000
O O6 0.649312 0.254883 0.458526
O O7 0.724283 0.377344 0.568714
O O8 0.250000 0.513444 0.750000
O O9 0.345567 0.436462 0.856947
O O10 0.662792 0.000000 0.500000
#
# Coordination Sequence:
#
# PCOD8263554 Si02
#       4
#    16  16  16  16
#     4  12  27  45  64  99 143 176 215 276 347 404
#     4  10  22  38  67  97 129 166 219 280 327 386
#     4  12  25  43  71 100 128 180 230 275 327 399
#     4  10  20  40  66  98 126 165 225 279 316 381
#
# _framework density 20.826046999999999
#
# number of rings (size 3 to 8) (size 9 to 14) (size 15 to 20)
#    0.000    1.000    5.000    1.500    3.500    0.500 
#    0.000    3.750    0.000    0.000    0.000    0.000 
#    0.000    0.000    0.000    0.000    0.000    0.000 
#
# Total GULP energy -397020.456738 kJ/mol
# GULP energy per Si atom -12406.889273 kJ/mol
# Density = 2.077865 g / cm^3
# Si number density = 20.826047 Si / 1000 Ang^3
#
#
#
# Elastic Constant Matrix: (Units=GPa)
#
#
# Indices 1 2 3 4 5 6 
#
# 1 75.8948 22.6489 32.4204 0.0000 0.0000 0.0000
# 2 22.6489 128.7611 32.1789 0.0000 0.0000 0.0000
# 3 32.4204 32.1789 87.1358 0.0000 0.0000 0.0000
# 4 0.0000 0.0000 0.0000 37.4430 0.0000 0.0000
# 5 0.0000 0.0000 0.0000 0.0000 13.5027 0.0000
# 6 0.0000 0.0000 0.0000 0.0000 0.0000 16.2443
#
#
#
# Elastic Compliance Matrix: (Units=1/GPa)
#
#
# Indices 1 2 3 4 5 6 
#
# 1 0.015909 -0.001453 -0.005383 0.000000 0.000000 0.000000
# 2 -0.001453 0.008689 -0.002668 0.000000 0.000000 0.000000
# 3 -0.005383 -0.002668 0.014464 0.000000 0.000000 0.000000
# 4 0.000000 0.000000 0.000000 0.026707 0.000000 0.000000
# 5 0.000000 0.000000 0.000000 0.000000 0.074059 0.000000
# 6 0.000000 0.000000 0.000000 0.000000 0.000000 0.061560
#
#
# Mechanical properties :
#
#
# Convention : Reuss Voigt Hill
#
# Bulk Modulus (GPa) = 49.86413 51.80977 50.83695
# Shear Modulus (GPa) = 22.01855 27.07423 24.54639
#
# Velocity S-wave (km/s) = 3.25508 3.60949 3.43686
# Velocity P-wave (km/s) = 6.17435 6.50404 6.34134
#
# Compressibility (1/GPa) = 0.02005450
#
# Stress axis : x y z
#
# Youngs Moduli (GPa) = 62.85707 115.09195 69.13570
#
# Poissons Ratio (x) = 0.16725 0.37213
# Poissons Ratio (y) = 0.09134 0.18445
# Poissons Ratio (z) = 0.33833 0.30707
#
# Static dielectric constant tensor:
#      x y z
#    x 3.432260 0.000000 0.000000 
#    y 0.000000 3.916600 0.000000 
#    z 0.000000 0.000000 3.773700 
# 
# 
# High freq. dielectric constant tensor:
#      x y z
#    x 1.784740 0.000000 0.000000 
#    y 0.000000 1.831680 0.000000 
#    z 0.000000 0.000000 1.821750 
# 
# From -- ./inp_files/33889.got.cif
#   From: 2010.03.12/outbox.cif.g09.slc.cpg/sg64_17_cif.got.tgz:33889.got - 2010.04.10 20:19:32.
