data_PCOD8263162
_publ_section_title
;
Structure prediction by ZEFSAII (Michael W. Deem and Ramdas Pophale) SiO2 
 PCOD8263162
Probable space group: C M C A
;
_chemical_formula_sum "Si O2"
_cell_formula_units_Z 96
_cell_length_a 8.939075
_cell_length_b 27.296649
_cell_length_c 19.280318
_cell_angle_alpha 90.000000
_cell_angle_beta 90.000000
_cell_angle_gamma 90.000000
_cell_volume 4704.528557
_symmetry_space_group_name_H-M "C M C A"
_symmetry_group_IT_number 64
_symmetry_cell_setting 'orthorhombic'
loop_
_space_group_symop_operation_xyz
x,y,z
-x,1/2-y,1/2+z
x,-y,-z
-x,1/2+y,1/2-z
-x,-y,-z
x,1/2+y,1/2-z
-x,y,z
x,1/2-y,1/2+z
1/2+x,1/2+y,z
1/2-x,-y,1/2+z
1/2+x,1/2-y,-z
1/2-x,y,1/2-z
1/2-x,1/2-y,-z
1/2+x,y,1/2-z
1/2-x,1/2+y,z
1/2+x,-y,1/2+z
loop_
_atom_site_type_symbol
_atom_site_label
_atom_site_fract_x
_atom_site_fract_y
_atom_site_fract_z
Si Si1 0.170226 0.502425 0.816921
Si Si2 0.176800 0.611469 0.820472
Si Si3 0.179023 0.711750 0.326662
Si Si4 0.323378 0.696637 0.583716
Si Si5 0.827919 0.954725 0.541429
Si Si6 0.821419 0.653650 0.057066
O O1 0.250000 0.480221 0.750000
O O2 0.232206 0.556310 0.837781
O O3 0.193675 0.464006 0.877493
O O4 0.000000 0.508944 0.796104
O O5 0.250000 0.630685 0.750000
O O6 0.234310 0.646527 0.881423
O O7 0.000000 0.614938 0.812680
O O8 0.250000 0.712702 0.250000
O O9 0.240336 0.757708 0.372324
O O10 0.237741 0.665180 0.370607
O O11 0.000000 0.710483 0.319547
O O12 0.500000 0.699977 0.587103
O O13 0.274603 0.693406 0.502487
O O14 0.765602 0.899921 0.529396
O O15 0.000000 0.954572 0.517366
O O16 0.748155 0.000000 0.500000
O O17 0.000000 0.652963 0.069944
#
# Coordination Sequence:
#
# PCOD8263162 Si02
#       6
#    16  16  16  16  16  16
#     4   9  17  29  47  72 101 133 169 211 257 306
#     4   9  16  28  47  73 104 136 173 217 264 313
#     4  11  23  39  57  79 108 141 179 220 264 316
#     4   9  18  33  55  80 105 136 174 218 266 317
#     4   9  17  31  54  81 105 135 177 218 256 306
#     4  10  20  36  58  82 108 139 176 219 267 317
#
# _framework density 20.405871000000001
#
# number of rings (size 3 to 8) (size 9 to 14) (size 15 to 20)
#    0.000    2.500    0.000    2.500    0.000    4.667 
#    0.000    5.000    0.000    4.000    0.000    0.000 
#    0.000    0.000    0.000    0.000    0.000    0.000 
#
# Total GULP energy -594790.298694 kJ/mol
# GULP energy per Si atom -12391.464556 kJ/mol
# Density = 2.035943 g / cm^3
# Si number density = 20.405871 Si / 1000 Ang^3
#
#
#
# Elastic Constant Matrix: (Units=GPa)
#
#
# Indices 1 2 3 4 5 6 
#
# 1 35.6925 22.8253 34.9724 0.0000 0.0000 0.0000
# 2 22.8253 104.9796 54.1689 0.0000 0.0000 0.0000
# 3 34.9724 54.1689 114.3535 0.0000 0.0000 0.0000
# 4 0.0000 0.0000 0.0000 44.4401 0.0000 0.0000
# 5 0.0000 0.0000 0.0000 0.0000 28.1700 0.0000
# 6 0.0000 0.0000 0.0000 0.0000 0.0000 15.0832
#
#
#
# Elastic Compliance Matrix: (Units=1/GPa)
#
#
# Indices 1 2 3 4 5 6 
#
# 1 0.040811 -0.003220 -0.010956 0.000000 0.000000 0.000000
# 2 -0.003220 0.012861 -0.005107 0.000000 0.000000 0.000000
# 3 -0.010956 -0.005107 0.014515 0.000000 0.000000 0.000000
# 4 0.000000 0.000000 0.000000 0.022502 0.000000 0.000000
# 5 0.000000 0.000000 0.000000 0.000000 0.035499 0.000000
# 6 0.000000 0.000000 0.000000 0.000000 0.000000 0.066299
#
#
# Mechanical properties :
#
#
# Convention : Reuss Voigt Hill
#
# Bulk Modulus (GPa) = 33.76080 53.21766 43.48923
# Shear Modulus (GPa) = 20.75314 27.07592 23.91453
#
# Velocity S-wave (km/s) = 3.19253 3.64657 3.42708
# Velocity P-wave (km/s) = 5.49274 6.62316 6.08426
#
# Compressibility (1/GPa) = 0.02962015
#
# Stress axis : x y z
#
# Youngs Moduli (GPa) = 24.50313 77.75280 68.89533
#
# Poissons Ratio (x) = 0.25039 0.75480
# Poissons Ratio (y) = 0.07891 0.35188
# Poissons Ratio (z) = 0.26845 0.39712
#
# Static dielectric constant tensor:
#      x y z
#    x 3.253870 0.000000 0.000000 
#    y 0.000000 3.895770 0.000000 
#    z 0.000000 0.000000 3.954540 
# 
# 
# High freq. dielectric constant tensor:
#      x y z
#    x 1.744770 0.000000 0.000000 
#    y 0.000000 1.804550 0.000000 
#    z 0.000000 0.000000 1.808550 
# 
# From -- ./inp_files/31079.got.cif
#   From: 2010.03.12/outbox.cif.g09.slc.cpg/sg64_16_cif.got.tgz:31079.got - 2010.04.10 20:19:32.
