data_PCOD8263152
_publ_section_title
;
Structure prediction by ZEFSAII (Michael W. Deem and Ramdas Pophale) SiO2 
 PCOD8263152
Probable space group: C M C A
;
_chemical_formula_sum "Si O2"
_cell_formula_units_Z 112
_cell_length_a 18.798399
_cell_length_b 11.083257
_cell_length_c 25.907353
_cell_angle_alpha 90.000000
_cell_angle_beta 90.000000
_cell_angle_gamma 90.000000
_cell_volume 5397.731900
_symmetry_space_group_name_H-M "C M C A"
_symmetry_group_IT_number 64
_symmetry_cell_setting 'orthorhombic'
loop_
_space_group_symop_operation_xyz
x,y,z
-x,1/2-y,1/2+z
x,-y,-z
-x,1/2+y,1/2-z
-x,-y,-z
x,1/2+y,1/2-z
-x,y,z
x,1/2-y,1/2+z
1/2+x,1/2+y,z
1/2-x,-y,1/2+z
1/2+x,1/2-y,-z
1/2-x,y,1/2-z
1/2-x,1/2-y,-z
1/2+x,y,1/2-z
1/2-x,1/2+y,z
1/2+x,-y,1/2+z
loop_
_atom_site_type_symbol
_atom_site_label
_atom_site_fract_x
_atom_site_fract_y
_atom_site_fract_z
Si Si1 0.167709 0.304816 0.266459
Si Si2 0.673247 0.045661 0.224046
Si Si3 0.312983 0.983802 0.110527
Si Si4 0.187966 0.315336 0.967294
Si Si5 0.418130 0.169793 0.946089
Si Si6 0.081911 0.953385 0.944029
Si Si7 0.168796 0.367601 0.382756
O O1 0.250000 0.297262 0.250000
O O2 0.131511 0.419323 0.236597
O O3 0.136724 0.169471 0.253927
O O4 0.148996 0.325680 0.325974
O O5 0.750000 0.028675 0.250000
O O6 0.679450 0.061980 0.162512
O O7 0.283990 0.069059 0.064279
O O8 0.386474 0.912469 0.099883
O O9 0.253548 0.882583 0.117149
O O10 0.149068 0.229348 0.926239
O O11 0.250000 0.250000 0.000000
O O12 0.125547 0.365190 0.003152
O O13 0.500000 0.135456 0.953716
O O14 0.407469 0.311401 0.936344
O O15 0.000000 0.991849 0.938219
O O16 0.126197 0.011439 0.897257
O O17 0.110168 0.000000 0.000000
#
# Coordination Sequence:
#
# PCOD8263152 Si02
#       7
#    16  16  16  16  16  16  16
#     4  10  20  36  57  90 126 163 202 262 330 380
#     4  10  20  37  58  87 127 162 203 262 321 387
#     4  12  24  37  61  95 128 164 215 261 322 390
#     4  12  24  37  56  92 133 166 209 263 318 377
#     4  11  25  43  62  88 131 179 215 257 317 388
#     4  10  22  40  61  87 125 173 216 252 307 381
#     4  12  22  35  62  93 123 163 208 264 315 375
#
# _framework density 20.749455000000001
#
# number of rings (size 3 to 8) (size 9 to 14) (size 15 to 20)
#    0.000    1.000    7.143    1.286    0.000    2.286 
#    0.000    0.000    0.000    0.857    0.000    0.000 
#    0.000    0.000    0.000    0.000    0.000    0.000 
#
# Total GULP energy -693963.679602 kJ/mol
# GULP energy per Si atom -12392.208564 kJ/mol
# Density = 2.070223 g / cm^3
# Si number density = 20.749455 Si / 1000 Ang^3
#
#
#
# Elastic Constant Matrix: (Units=GPa)
#
#
# Indices 1 2 3 4 5 6 
#
# 1 61.2090 18.5827 24.1008 0.0000 0.0000 0.0000
# 2 18.5827 142.7555 37.2885 0.0000 0.0000 0.0000
# 3 24.1008 37.2885 108.3464 0.0000 0.0000 0.0000
# 4 0.0000 0.0000 0.0000 23.3063 0.0000 0.0000
# 5 0.0000 0.0000 0.0000 0.0000 16.5761 0.0000
# 6 0.0000 0.0000 0.0000 0.0000 0.0000 13.8735
#
#
#
# Elastic Compliance Matrix: (Units=1/GPa)
#
#
# Indices 1 2 3 4 5 6 
#
# 1 0.018171 -0.001439 -0.003547 0.000000 0.000000 0.000000
# 2 -0.001439 0.007811 -0.002368 0.000000 0.000000 0.000000
# 3 -0.003547 -0.002368 0.010834 0.000000 0.000000 0.000000
# 4 0.000000 0.000000 0.000000 0.042907 0.000000 0.000000
# 5 0.000000 0.000000 0.000000 0.000000 0.060328 0.000000
# 6 0.000000 0.000000 0.000000 0.000000 0.000000 0.072080
#
#
# Mechanical properties :
#
#
# Convention : Reuss Voigt Hill
#
# Bulk Modulus (GPa) = 45.23297 52.47278 48.85287
# Shear Modulus (GPa) = 21.34870 26.24045 23.79457
#
# Velocity S-wave (km/s) = 3.21110 3.56003 3.39005
# Velocity P-wave (km/s) = 5.96616 6.49939 6.23847
#
# Compressibility (1/GPa) = 0.02210777
#
# Stress axis : x y z
#
# Youngs Moduli (GPa) = 55.03329 128.02700 92.30531
#
# Poissons Ratio (x) = 0.18422 0.32738
# Poissons Ratio (y) = 0.07919 0.21859
# Poissons Ratio (z) = 0.19519 0.30318
#
# Static dielectric constant tensor:
#      x y z
#    x 3.333620 0.000000 0.000000 
#    y 0.000000 4.380840 0.000000 
#    z 0.000000 0.000000 3.874440 
# 
# 
# High freq. dielectric constant tensor:
#      x y z
#    x 1.751490 0.000000 0.000000 
#    y 0.000000 1.842450 0.000000 
#    z 0.000000 0.000000 1.812760 
# 
# From -- ./inp_files/46334.got.cif
#   From: 2010.03.12/outbox.cif.g09.slc.cpg/sg64_24_cif.got.tgz:46334.got - 2010.04.10 20:19:32.
