data_PCOD8263786
_publ_section_title
;
Structure prediction by ZEFSAII (Michael W. Deem and Ramdas Pophale) SiO2 
 PCOD8263786
Probable space group: C M C A
;
_chemical_formula_sum "Si O2"
_cell_formula_units_Z 104
_cell_length_a 17.836394
_cell_length_b 24.987201
_cell_length_c 12.877581
_cell_angle_alpha 90.000000
_cell_angle_beta 90.000000
_cell_angle_gamma 90.000000
_cell_volume 5739.300415
_symmetry_space_group_name_H-M "C M C A"
_symmetry_group_IT_number 64
_symmetry_cell_setting 'orthorhombic'
loop_
_space_group_symop_operation_xyz
x,y,z
-x,1/2-y,1/2+z
x,-y,-z
-x,1/2+y,1/2-z
-x,-y,-z
x,1/2+y,1/2-z
-x,y,z
x,1/2-y,1/2+z
1/2+x,1/2+y,z
1/2-x,-y,1/2+z
1/2+x,1/2-y,-z
1/2-x,y,1/2-z
1/2-x,1/2-y,-z
1/2+x,y,1/2-z
1/2-x,1/2+y,z
1/2+x,-y,1/2+z
loop_
_atom_site_type_symbol
_atom_site_label
_atom_site_fract_x
_atom_site_fract_y
_atom_site_fract_z
Si Si1 0.796427 0.724774 0.350295
Si Si2 0.729618 0.581003 0.868623
Si Si3 0.586442 0.633678 0.178733
Si Si4 0.913080 0.095206 0.407290
Si Si5 0.084499 0.437288 0.481078
Si Si6 0.691553 0.325634 0.482145
Si Si7 0.177484 0.500000 0.000000
O O1 0.750000 0.744558 0.250000
O O2 0.866032 0.687717 0.320825
O O3 0.738966 0.691438 0.418905
O O4 0.831338 0.774874 0.412320
O O5 0.750000 0.576985 0.750000
O O6 0.639959 0.578668 0.887464
O O7 0.757657 0.637025 0.911478
O O8 0.768515 0.531197 0.923145
O O9 0.500000 0.650706 0.169800
O O10 0.602377 0.603283 0.285859
O O11 0.609397 0.593793 0.085664
O O12 0.882013 0.144003 0.476947
O O13 0.000000 0.090916 0.433646
O O14 0.874247 0.039585 0.434708
O O15 0.089244 0.500000 0.500000
O O16 0.000000 0.420917 0.448314
#
# Coordination Sequence:
#
# PCOD8263786 Si02
#       7
#    16  16  16  16  16  16   8
#     4  11  20  37  62  85 113 149 194 246 294 340
#     4  11  22  38  57  86 119 152 198 241 288 353
#     4  10  21  37  62  89 116 150 196 241 291 352
#     4  10  21  39  58  86 120 157 196 239 293 353
#     4  10  21  38  58  86 120 151 189 243 295 347
#     4  10  22  37  58  84 114 152 193 242 293 347
#     4  10  23  36  57  88 118 160 192 240 291 350
#
# _framework density 18.120674999999999
#
# number of rings (size 3 to 8) (size 9 to 14) (size 15 to 20)
#    0.000    1.692    3.846    0.692    2.154    0.615 
#    0.000    3.077    0.000    2.769    0.000    0.000 
#    0.000    0.000    0.000    0.000    0.000    0.000 
#
# Total GULP energy -644909.711515 kJ/mol
# GULP energy per Si atom -12402.109837 kJ/mol
# Density = 1.807943 g / cm^3
# Si number density = 18.120675 Si / 1000 Ang^3
#
#
#
# Elastic Constant Matrix: (Units=GPa)
#
#
# Indices 1 2 3 4 5 6 
#
# 1 113.2318 48.4650 56.6461 0.0000 0.0000 0.0000
# 2 48.4650 91.5255 36.0664 0.0000 0.0000 0.0000
# 3 56.6461 36.0664 115.3021 0.0000 0.0000 0.0000
# 4 0.0000 0.0000 0.0000 18.1948 0.0000 0.0000
# 5 0.0000 0.0000 0.0000 0.0000 31.1618 0.0000
# 6 0.0000 0.0000 0.0000 0.0000 0.0000 16.9794
#
#
#
# Elastic Compliance Matrix: (Units=1/GPa)
#
#
# Indices 1 2 3 4 5 6 
#
# 1 0.013583 -0.005204 -0.005045 0.000000 0.000000 0.000000
# 2 -0.005204 0.014456 -0.001965 0.000000 0.000000 0.000000
# 3 -0.005045 -0.001965 0.011766 0.000000 0.000000 0.000000
# 4 0.000000 0.000000 0.000000 0.054961 0.000000 0.000000
# 5 0.000000 0.000000 0.000000 0.000000 0.032091 0.000000
# 6 0.000000 0.000000 0.000000 0.000000 0.000000 0.058895
#
#
# Mechanical properties :
#
#
# Convention : Reuss Voigt Hill
#
# Bulk Modulus (GPa) = 65.03635 66.93496 65.98566
# Shear Modulus (GPa) = 23.22279 25.19266 24.20773
#
# Velocity S-wave (km/s) = 3.58378 3.73268 3.65899
# Velocity P-wave (km/s) = 7.28651 7.45626 7.37187
#
# Compressibility (1/GPa) = 0.01537602
#
# Stress axis : x y z
#
# Youngs Moduli (GPa) = 73.62180 69.17490 84.98979
#
# Poissons Ratio (x) = 0.36001 0.42879
# Poissons Ratio (y) = 0.38316 0.16701
# Poissons Ratio (z) = 0.37143 0.13593
#
# Static dielectric constant tensor:
#      x y z
#    x 3.437490 0.000000 0.000000 
#    y 0.000000 3.367040 0.000000 
#    z 0.000000 0.000000 3.358200 
# 
# 
# High freq. dielectric constant tensor:
#      x y z
#    x 1.705580 0.000000 0.000000 
#    y 0.000000 1.709300 0.000000 
#    z 0.000000 0.000000 1.705990 
# 
# From -- ./inp_files/16395.got.cif
#   From: 2010.03.12/outbox.cif.g09.slc.cpg/sg64_9_cif.got.tgz:16395.got - 2010.04.10 20:19:32.
