data_PCOD8263158
_publ_section_title
;
Structure prediction by ZEFSAII (Michael W. Deem and Ramdas Pophale) SiO2 
 PCOD8263158
Probable space group: C M C A
;
_chemical_formula_sum "Si O2"
_cell_formula_units_Z 80
_cell_length_a 8.901910
_cell_length_b 18.111824
_cell_length_c 25.815303
_cell_angle_alpha 90.000000
_cell_angle_beta 90.000000
_cell_angle_gamma 90.000000
_cell_volume 4162.196841
_symmetry_space_group_name_H-M "C M C A"
_symmetry_group_IT_number 64
_symmetry_cell_setting 'orthorhombic'
loop_
_space_group_symop_operation_xyz
x,y,z
-x,1/2-y,1/2+z
x,-y,-z
-x,1/2+y,1/2-z
-x,-y,-z
x,1/2+y,1/2-z
-x,y,z
x,1/2-y,1/2+z
1/2+x,1/2+y,z
1/2-x,-y,1/2+z
1/2+x,1/2-y,-z
1/2-x,y,1/2-z
1/2-x,1/2-y,-z
1/2+x,y,1/2-z
1/2-x,1/2+y,z
1/2+x,-y,1/2+z
loop_
_atom_site_type_symbol
_atom_site_label
_atom_site_fract_x
_atom_site_fract_y
_atom_site_fract_z
Si Si1 0.323272 0.084007 0.303209
Si Si2 0.826121 0.913229 0.995112
Si Si3 0.177242 0.838027 0.600790
Si Si4 0.822404 0.330418 0.403244
Si Si5 0.676671 0.914197 0.303092
O O1 0.500000 0.095310 0.299796
O O2 0.250000 0.111636 0.250000
O O3 0.258557 0.133765 0.348350
O O4 0.280236 0.999057 0.313929
O O5 0.762350 0.874765 0.046927
O O6 0.000000 0.892560 0.984991
O O7 0.726459 0.886115 0.947810
O O8 0.805111 0.000000 0.000000
O O9 0.229251 0.753919 0.591894
O O10 0.000000 0.844296 0.608543
O O11 0.756786 0.366477 0.350667
O O12 0.000000 0.338510 0.401418
O O13 0.500000 0.903874 0.297376
O O14 0.750000 0.885432 0.250000
#
# Coordination Sequence:
#
# PCOD8263158 Si02
#       5
#    16  16  16  16  16
#     4  10  20  36  58  81 107 142 183 224 265 313
#     4  10  20  37  60  80 102 139 184 225 267 318
#     4  11  22  35  53  80 114 144 173 217 269 322
#     4   9  19  35  54  78 109 142 176 217 266 318
#     4   9  18  35  57  79 104 137 178 221 263 311
#
# _framework density 19.220618999999999
#
# number of rings (size 3 to 8) (size 9 to 14) (size 15 to 20)
#    0.000    2.200    0.000    3.000    0.000    5.200 
#    0.000    6.000    0.000    0.000    0.000    0.000 
#    0.000    0.000    0.000    0.000    0.000    0.000 
#
# Total GULP energy -496133.372787 kJ/mol
# GULP energy per Si atom -12403.334320 kJ/mol
# Density = 1.917687 g / cm^3
# Si number density = 19.220619 Si / 1000 Ang^3
#
#
#
# Elastic Constant Matrix: (Units=GPa)
#
#
# Indices 1 2 3 4 5 6 
#
# 1 49.0393 33.4075 39.7977 0.0000 0.0000 0.0000
# 2 33.4075 94.8663 62.6004 0.0000 0.0000 0.0000
# 3 39.7977 62.6004 160.8953 0.0000 0.0000 0.0000
# 4 0.0000 0.0000 0.0000 165.2339 0.0000 0.0000
# 5 0.0000 0.0000 0.0000 0.0000 36.7701 0.0000
# 6 0.0000 0.0000 0.0000 0.0000 0.0000 -73.4723
#
#
#
# Elastic Compliance Matrix: (Units=1/GPa)
#
#
# Indices 1 2 3 4 5 6 
#
# 1 0.028869 -0.007338 -0.004286 0.000000 0.000000 0.000000
# 2 -0.007338 0.016048 -0.004429 0.000000 0.000000 0.000000
# 3 -0.004286 -0.004429 0.008998 0.000000 0.000000 0.000000
# 4 0.000000 0.000000 0.000000 0.006052 0.000000 0.000000
# 5 0.000000 0.000000 0.000000 0.000000 0.027196 0.000000
# 6 0.000000 0.000000 0.000000 0.000000 0.000000 -0.013611
#
#
# Mechanical properties :
#
#
# Convention : Reuss Voigt Hill
#
# Bulk Modulus (GPa) = 45.85075 64.04578 54.94826
# Shear Modulus (GPa) = 44.27617 36.97270 40.62444
#
# Velocity S-wave (km/s) = 4.80477 4.39064 4.60236
# Velocity P-wave (km/s) = 7.39512 7.68748 7.54272
#
# Compressibility (1/GPa) = 0.02180989
#
# Stress axis : x y z
#
# Youngs Moduli (GPa) = 34.63932 62.31410 111.13153
#
# Poissons Ratio (x) = 0.45728 0.47627
# Poissons Ratio (y) = 0.25419 0.49216
# Poissons Ratio (z) = 0.14845 0.27597
#
# Static dielectric constant tensor:
#      x y z
#    x 3.323220 0.000000 0.000000 
#    y 0.000000 3.594870 0.000000 
#    z 0.000000 0.000000 3.409140 
# 
# 
# High freq. dielectric constant tensor:
#      x y z
#    x 1.727970 0.000000 0.000000 
#    y 0.000000 1.751420 0.000000 
#    z 0.000000 0.000000 1.766300 
# 
# From -- ./inp_files/47782.got.cif
#   From: 2010.03.12/outbox.cif.g09.slc.cpg/sg64_24_cif.got.tgz:47782.got - 2010.04.10 20:19:32.
