data_PCOD8263478
_publ_section_title
;
Structure prediction by ZEFSAII (Michael W. Deem and Ramdas Pophale) SiO2 
 PCOD8263478
Probable space group: C M C A
;
_chemical_formula_sum "Si O2"
_cell_formula_units_Z 104
_cell_length_a 28.679051
_cell_length_b 8.636641
_cell_length_c 20.554438
_cell_angle_alpha 90.000000
_cell_angle_beta 90.000000
_cell_angle_gamma 90.000000
_cell_volume 5091.142473
_symmetry_space_group_name_H-M "C M C A"
_symmetry_group_IT_number 64
_symmetry_cell_setting 'orthorhombic'
loop_
_space_group_symop_operation_xyz
x,y,z
-x,1/2-y,1/2+z
x,-y,-z
-x,1/2+y,1/2-z
-x,-y,-z
x,1/2+y,1/2-z
-x,y,z
x,1/2-y,1/2+z
1/2+x,1/2+y,z
1/2-x,-y,1/2+z
1/2+x,1/2-y,-z
1/2-x,y,1/2-z
1/2-x,1/2-y,-z
1/2+x,y,1/2-z
1/2-x,1/2+y,z
1/2+x,-y,1/2+z
loop_
_atom_site_type_symbol
_atom_site_label
_atom_site_fract_x
_atom_site_fract_y
_atom_site_fract_z
Si Si1 0.146549 0.000000 0.500000
Si Si2 0.351047 0.708878 0.181633
Si Si3 0.199494 0.985048 0.716625
Si Si4 0.500000 0.822727 0.516515
Si Si5 0.213419 0.692467 0.085241
Si Si6 0.192993 0.534552 0.430961
Si Si7 0.576346 0.347334 0.402123
Si Si8 0.000000 0.565518 0.073756
O O1 0.176165 0.135111 0.466875
O O2 0.118092 0.094277 0.553238
O O3 0.343113 0.584301 0.239285
O O4 0.343539 0.617274 0.114824
O O5 0.402900 0.780143 0.166917
O O6 0.313461 0.842117 0.195224
O O7 0.250000 0.988193 0.750000
O O8 0.203478 0.880459 0.654328
O O9 0.545509 0.778977 0.559214
O O10 0.500000 0.747722 0.442645
O O11 0.500000 0.000000 0.500000
O O12 0.211259 0.874841 0.099774
O O13 0.263869 0.649825 0.057022
O O14 0.168475 0.500000 0.500000
O O15 0.545081 0.501062 0.387449
O O16 0.000000 0.500000 0.000000
#
# Coordination Sequence:
#
# PCOD8263478 Si02
#       8
#     8  16  16   8  16  16  16   8
#     4  12  20  37  66  96 132 164 210 259 346 374
#     4  12  25  42  64  92 125 176 229 278 311 392
#     4  12  25  41  62  86 126 182 238 270 315 364
#     4  10  20  38  70 102 137 162 196 254 328 415
#     4  12  25  38  60  86 127 176 217 279 319 387
#     4  12  25  41  57  89 128 169 220 274 347 378
#     4  10  20  39  64  96 129 161 203 255 328 394
#     4   8  16  38  62  90 127 162 190 240 326 403
#
# _framework density 20.427634999999999
#
# number of rings (size 3 to 8) (size 9 to 14) (size 15 to 20)
#    0.000    0.923    6.154    3.692    0.000    1.846 
#    0.000    0.000    0.000    3.692    0.000    0.000 
#    0.000    0.000    0.000    0.000    0.000    0.000 
#
# Total GULP energy -644471.900390 kJ/mol
# GULP energy per Si atom -12393.690392 kJ/mol
# Density = 2.038114 g / cm^3
# Si number density = 20.427635 Si / 1000 Ang^3
#
#
#
# Elastic Constant Matrix: (Units=GPa)
#
#
# Indices 1 2 3 4 5 6 
#
# 1 80.1323 13.0257 8.5797 0.0000 0.0000 0.0000
# 2 13.0257 119.6919 13.4619 0.0000 0.0000 0.0000
# 3 8.5797 13.4619 67.5148 0.0000 0.0000 0.0000
# 4 0.0000 0.0000 0.0000 25.1930 0.0000 0.0000
# 5 0.0000 0.0000 0.0000 0.0000 55.4284 0.0000
# 6 0.0000 0.0000 0.0000 0.0000 0.0000 24.0852
#
#
#
# Elastic Compliance Matrix: (Units=1/GPa)
#
#
# Indices 1 2 3 4 5 6 
#
# 1 0.012829 -0.001241 -0.001383 0.000000 0.000000 0.000000
# 2 -0.001241 0.008666 -0.001570 0.000000 0.000000 0.000000
# 3 -0.001383 -0.001570 0.015300 0.000000 0.000000 0.000000
# 4 0.000000 0.000000 0.000000 0.039694 0.000000 0.000000
# 5 0.000000 0.000000 0.000000 0.000000 0.018041 0.000000
# 6 0.000000 0.000000 0.000000 0.000000 0.000000 0.041519
#
#
# Mechanical properties :
#
#
# Convention : Reuss Voigt Hill
#
# Bulk Modulus (GPa) = 35.20119 37.49706 36.34913
# Shear Modulus (GPa) = 32.48711 36.42611 34.45661
#
# Velocity S-wave (km/s) = 3.99225 4.22735 4.11148
# Velocity P-wave (km/s) = 6.20647 6.49794 6.35388
#
# Compressibility (1/GPa) = 0.02840813
#
# Stress axis : x y z
#
# Youngs Moduli (GPa) = 77.94781 115.38796 65.35771
#
# Poissons Ratio (x) = 0.14315 0.09039
# Poissons Ratio (y) = 0.09670 0.10264
# Poissons Ratio (z) = 0.10780 0.18120
#
# Static dielectric constant tensor:
#      x y z
#    x 3.761550 0.000000 0.000000 
#    y 0.000000 4.202400 0.000000 
#    z 0.000000 0.000000 3.848310 
# 
# 
# High freq. dielectric constant tensor:
#      x y z
#    x 1.776910 0.000000 0.000000 
#    y 0.000000 1.816560 0.000000 
#    z 0.000000 0.000000 1.785690 
# 
# From -- ./inp_files/41890.got.cif
#   From: 2010.03.12/outbox.cif.g09.slc.cpg/sg64_21_cif.got.tgz:41890.got - 2010.04.10 20:19:32.
