data_PCOD8263383
_publ_section_title
;
Structure prediction by ZEFSAII (Michael W. Deem and Ramdas Pophale) SiO2 
 PCOD8263383
Probable space group: C M C A
;
_chemical_formula_sum "Si O2"
_cell_formula_units_Z 88
_cell_length_a 9.033943
_cell_length_b 23.369239
_cell_length_c 20.297434
_cell_angle_alpha 90.000000
_cell_angle_beta 90.000000
_cell_angle_gamma 90.000000
_cell_volume 4285.120649
_symmetry_space_group_name_H-M "C M C A"
_symmetry_group_IT_number 64
_symmetry_cell_setting 'orthorhombic'
loop_
_space_group_symop_operation_xyz
x,y,z
-x,1/2-y,1/2+z
x,-y,-z
-x,1/2+y,1/2-z
-x,-y,-z
x,1/2+y,1/2-z
-x,y,z
x,1/2-y,1/2+z
1/2+x,1/2+y,z
1/2-x,-y,1/2+z
1/2+x,1/2-y,-z
1/2-x,y,1/2-z
1/2-x,1/2-y,-z
1/2+x,y,1/2-z
1/2-x,1/2+y,z
1/2+x,-y,1/2+z
loop_
_atom_site_type_symbol
_atom_site_label
_atom_site_fract_x
_atom_site_fract_y
_atom_site_fract_z
Si Si1 0.662521 0.827578 0.350889
Si Si2 0.825577 0.412632 0.455724
Si Si3 0.822756 0.795673 0.682837
Si Si4 0.833057 0.997189 0.364758
Si Si5 0.673961 0.393042 0.892293
Si Si6 0.750000 0.416695 0.250000
O O1 0.500000 0.807822 0.371832
O O2 0.736048 0.857382 0.415012
O O3 0.742243 0.768597 0.330081
O O4 0.647008 0.874089 0.292179
O O5 0.741866 0.467977 0.428245
O O6 0.790514 0.404715 0.531646
O O7 0.000000 0.421565 0.442190
O O8 0.750000 0.818359 0.750000
O O9 0.761412 0.835415 0.624852
O O10 0.000000 0.798948 0.688011
O O11 0.839364 0.956733 0.300427
O O12 0.000000 0.014146 0.383172
O O13 0.738934 0.054415 0.349415
O O14 0.500000 0.386301 0.878198
#
# Coordination Sequence:
#
# PCOD8263383 Si02
#       6
#    16  16  16  16  16   8
#     4   9  18  36  62  87 115 150 194 245 298 356
#     4   9  20  40  63  88 120 161 201 243 300 358
#     4  11  23  40  62  88 120 156 195 246 299 355
#     4  11  23  37  61  92 122 157 202 254 301 353
#     4  11  24  41  60  84 122 166 203 242 295 359
#     4  10  20  38  58  86 120 154 194 246 304 362
#
# _framework density 20.536178
#
# number of rings (size 3 to 8) (size 9 to 14) (size 15 to 20)
#    0.000    1.818    0.909    2.727    1.273    6.545 
#    0.000    0.909    0.000    0.000    0.000    0.000 
#    0.000    0.000    0.000    0.000    0.000    0.000 
#
# Total GULP energy -545429.225773 kJ/mol
# GULP energy per Si atom -12396.118768 kJ/mol
# Density = 2.048944 g / cm^3
# Si number density = 20.536178 Si / 1000 Ang^3
#
#
#
# Elastic Constant Matrix: (Units=GPa)
#
#
# Indices 1 2 3 4 5 6 
#
# 1 99.3341 42.1226 30.3914 0.0000 0.0000 0.0000
# 2 42.1226 137.8107 51.9148 0.0000 0.0000 0.0000
# 3 30.3914 51.9148 83.0786 0.0000 0.0000 0.0000
# 4 0.0000 0.0000 0.0000 23.6286 0.0000 0.0000
# 5 0.0000 0.0000 0.0000 0.0000 26.3705 0.0000
# 6 0.0000 0.0000 0.0000 0.0000 0.0000 21.1440
#
#
#
# Elastic Compliance Matrix: (Units=1/GPa)
#
#
# Indices 1 2 3 4 5 6 
#
# 1 0.012028 -0.002640 -0.002750 0.000000 0.000000 0.000000
# 2 -0.002640 0.010070 -0.005327 0.000000 0.000000 0.000000
# 3 -0.002750 -0.005327 0.016371 0.000000 0.000000 0.000000
# 4 0.000000 0.000000 0.000000 0.042322 0.000000 0.000000
# 5 0.000000 0.000000 0.000000 0.000000 0.037921 0.000000
# 6 0.000000 0.000000 0.000000 0.000000 0.000000 0.047295
#
#
# Mechanical properties :
#
#
# Convention : Reuss Voigt Hill
#
# Bulk Modulus (GPa) = 58.70253 63.23124 60.96688
# Shear Modulus (GPa) = 25.89064 27.28158 26.58611
#
# Velocity S-wave (km/s) = 3.55453 3.64876 3.60196
# Velocity P-wave (km/s) = 6.74487 6.97197 6.85936
#
# Compressibility (1/GPa) = 0.01703504
#
# Stress axis : x y z
#
# Youngs Moduli (GPa) = 83.13851 99.30437 61.08204
#
# Poissons Ratio (x) = 0.26221 0.16798
# Poissons Ratio (y) = 0.21953 0.32537
# Poissons Ratio (z) = 0.22864 0.52897
#
# Static dielectric constant tensor:
#      x y z
#    x 3.465970 0.000000 0.000000 
#    y 0.000000 3.939060 0.000000 
#    z 0.000000 0.000000 3.678460 
# 
# 
# High freq. dielectric constant tensor:
#      x y z
#    x 1.786510 0.000000 0.000000 
#    y 0.000000 1.813200 0.000000 
#    z 0.000000 0.000000 1.802220 
# 
# From -- ./inp_files/36757.got.cif
#   From: 2010.03.12/outbox.cif.g09.slc.cpg/sg64_19_cif.got.tgz:36757.got - 2010.04.10 20:19:32.
