data_PCOD8263462
_publ_section_title
;
Structure prediction by ZEFSAII (Michael W. Deem and Ramdas Pophale) SiO2 
 PCOD8263462
Probable space group: C M C A
;
_chemical_formula_sum "Si O2"
_cell_formula_units_Z 80
_cell_length_a 16.194074
_cell_length_b 8.697381
_cell_length_c 26.495050
_cell_angle_alpha 90.000000
_cell_angle_beta 90.000000
_cell_angle_gamma 90.000000
_cell_volume 3731.722647
_symmetry_space_group_name_H-M "C M C A"
_symmetry_group_IT_number 64
_symmetry_cell_setting 'orthorhombic'
loop_
_space_group_symop_operation_xyz
x,y,z
-x,1/2-y,1/2+z
x,-y,-z
-x,1/2+y,1/2-z
-x,-y,-z
x,1/2+y,1/2-z
-x,y,z
x,1/2-y,1/2+z
1/2+x,1/2+y,z
1/2-x,-y,1/2+z
1/2+x,1/2-y,-z
1/2-x,y,1/2-z
1/2-x,1/2-y,-z
1/2+x,y,1/2-z
1/2-x,1/2+y,z
1/2+x,-y,1/2+z
loop_
_atom_site_type_symbol
_atom_site_label
_atom_site_fract_x
_atom_site_fract_y
_atom_site_fract_z
Si Si1 0.500000 0.373413 0.852435
Si Si2 0.000000 0.881341 0.603751
Si Si3 0.500000 0.205191 0.948577
Si Si4 0.231857 0.500000 0.500000
Si Si5 0.364915 0.758724 0.715812
Si Si6 0.000000 0.705919 0.700638
Si Si7 0.864281 0.725435 0.033396
Si Si8 0.750000 0.016866 0.750000
O O1 0.500000 0.359306 0.913559
O O2 0.579410 0.277910 0.833420
O O3 0.500000 0.547395 0.831520
O O4 0.000000 0.854323 0.663697
O O5 0.081123 0.796462 0.582736
O O6 0.000000 0.059458 0.588794
O O7 0.418560 0.198710 0.982889
O O8 0.172681 0.603247 0.535166
O O9 0.288461 0.606433 0.464661
O O10 0.418827 0.719700 0.765366
O O11 0.297807 0.623483 0.709000
O O12 0.317211 0.918385 0.720837
#
# Coordination Sequence:
#
# PCOD8263462 Si02
#       8
#     8   8   8   8  16   8  16   8
#     4  11  24  40  62  91 120 158 203 243 292 361
#     4  11  23  40  62  87 119 160 203 245 292 356
#     4  11  23  40  62  87 119 160 203 245 292 356
#     4  10  20  38  66  86 118 160 192 254 302 350
#     4  10  22  42  64  84 122 156 200 242 298 350
#     4  11  24  40  62  91 120 158 203 243 292 361
#     4  10  21  42  63  85 121 157 203 244 301 350
#     4  10  20  40  66  86 116 162 192 246 302 348
#
# _framework density 21.437819999999999
#
# number of rings (size 3 to 8) (size 9 to 14) (size 15 to 20)
#    0.000    1.600    4.000    0.600    5.600    0.800 
#    0.000   12.000    0.000    0.000    0.000    0.000 
#    0.000    0.000    0.000    0.000    0.000    0.000 
#
# Total GULP energy -495975.651542 kJ/mol
# GULP energy per Si atom -12399.391289 kJ/mol
# Density = 2.138903 g / cm^3
# Si number density = 21.437820 Si / 1000 Ang^3
#
#
#
# Elastic Constant Matrix: (Units=GPa)
#
#
# Indices 1 2 3 4 5 6 
#
# 1 109.8042 43.7439 12.0645 0.0000 0.0000 0.0000
# 2 43.7439 112.3597 9.5349 0.0000 0.0000 0.0000
# 3 12.0645 9.5349 73.2014 0.0000 0.0000 0.0000
# 4 0.0000 0.0000 0.0000 25.5260 0.0000 0.0000
# 5 0.0000 0.0000 0.0000 0.0000 5.6599 0.0000
# 6 0.0000 0.0000 0.0000 0.0000 0.0000 29.9382
#
#
#
# Elastic Compliance Matrix: (Units=1/GPa)
#
#
# Indices 1 2 3 4 5 6 
#
# 1 0.010892 -0.004134 -0.001257 0.000000 0.000000 0.000000
# 2 -0.004134 0.010568 -0.000695 0.000000 0.000000 0.000000
# 3 -0.001257 -0.000695 0.013959 0.000000 0.000000 0.000000
# 4 0.000000 0.000000 0.000000 0.039176 0.000000 0.000000
# 5 0.000000 0.000000 0.000000 0.000000 0.176680 0.000000
# 6 0.000000 0.000000 0.000000 0.000000 0.000000 0.033402
#
#
# Mechanical properties :
#
#
# Convention : Reuss Voigt Hill
#
# Bulk Modulus (GPa) = 43.01556 47.33911 45.17734
# Shear Modulus (GPa) = 16.41508 27.55963 21.98736
#
# Velocity S-wave (km/s) = 2.77014 3.58936 3.20603
# Velocity P-wave (km/s) = 5.50821 6.26961 5.90120
#
# Compressibility (1/GPa) = 0.02324740
#
# Stress axis : x y z
#
# Youngs Moduli (GPa) = 91.81012 94.62181 71.64034
#
# Poissons Ratio (x) = 0.39115 0.09003
# Poissons Ratio (y) = 0.37953 0.04981
# Poissons Ratio (z) = 0.11538 0.06579
#
# Static dielectric constant tensor:
#      x y z
#    x 4.229260 0.000000 0.000000 
#    y 0.000000 4.044600 0.000000 
#    z 0.000000 0.000000 3.394850 
# 
# 
# High freq. dielectric constant tensor:
#      x y z
#    x 1.863650 0.000000 0.000000 
#    y 0.000000 1.859090 0.000000 
#    z 0.000000 0.000000 1.796240 
# 
# From -- ./inp_files/35420.got.cif
#   From: 2010.03.12/outbox.cif.g09.slc.cpg/sg64_18_cif.got.tgz:35420.got - 2010.04.10 20:19:32.
