data_PCOD8263726
_publ_section_title
;
Structure prediction by ZEFSAII (Michael W. Deem and Ramdas Pophale) SiO2 
 PCOD8263726
Probable space group: C M C A
;
_chemical_formula_sum "Si O2"
_cell_formula_units_Z 96
_cell_length_a 9.219882
_cell_length_b 20.396777
_cell_length_c 26.531259
_cell_angle_alpha 90.000000
_cell_angle_beta 90.000000
_cell_angle_gamma 90.000000
_cell_volume 4989.359182
_symmetry_space_group_name_H-M "C M C A"
_symmetry_group_IT_number 64
_symmetry_cell_setting 'orthorhombic'
loop_
_space_group_symop_operation_xyz
x,y,z
-x,1/2-y,1/2+z
x,-y,-z
-x,1/2+y,1/2-z
-x,-y,-z
x,1/2+y,1/2-z
-x,y,z
x,1/2-y,1/2+z
1/2+x,1/2+y,z
1/2-x,-y,1/2+z
1/2+x,1/2-y,-z
1/2-x,y,1/2-z
1/2-x,1/2-y,-z
1/2+x,y,1/2-z
1/2-x,1/2+y,z
1/2+x,-y,1/2+z
loop_
_atom_site_type_symbol
_atom_site_label
_atom_site_fract_x
_atom_site_fract_y
_atom_site_fract_z
Si Si1 0.170468 0.075624 0.698177
Si Si2 0.830526 0.308700 0.473417
Si Si3 0.332101 0.310846 0.141815
Si Si4 0.332937 0.821350 0.800834
Si Si5 0.170102 0.561025 0.467469
Si Si6 0.330962 0.054476 0.137237
O O1 0.250000 0.059416 0.750000
O O2 0.232768 0.142022 0.674965
O O3 0.000000 0.084413 0.708248
O O4 0.203234 0.016060 0.660589
O O5 0.750000 0.250000 0.500000
O O6 0.780069 0.315572 0.415756
O O7 0.787086 0.374597 0.501899
O O8 0.000000 0.293822 0.476064
O O9 0.500000 0.332052 0.147790
O O10 0.306838 0.236686 0.159494
O O11 0.500000 0.828280 0.786240
O O12 0.250000 0.804800 0.750000
O O13 0.274904 0.888861 0.825079
O O14 0.226505 0.500000 0.500000
O O15 0.247700 0.561613 0.414448
O O16 0.000000 0.555753 0.457335
O O17 0.500000 0.064469 0.126256
#
# Coordination Sequence:
#
# PCOD8263726 Si02
#       6
#    16  16  16  16  16  16
#     4  11  23  38  58  84 113 146 185 229 278 333
#     4  10  21  37  58  84 114 149 187 230 280 331
#     4  10  21  38  59  82 112 149 186 228 277 328
#     4  10  21  37  57  81 109 143 183 226 273 325
#     4  10  21  37  58  84 112 145 186 228 273 326
#     4  10  22  39  58  82 111 145 185 227 275 328
#
# _framework density 19.240946999999998
#
# number of rings (size 3 to 8) (size 9 to 14) (size 15 to 20)
#    0.000    1.833    0.000    3.500    0.000    8.333 
#    0.000    0.000    0.000    0.000    0.000    0.000 
#    0.000    0.000    0.000    0.000    0.000    0.000 
#
# Total GULP energy -595475.086476 kJ/mol
# GULP energy per Si atom -12405.730968 kJ/mol
# Density = 1.919715 g / cm^3
# Si number density = 19.240947 Si / 1000 Ang^3
#
#
#
# Elastic Constant Matrix: (Units=GPa)
#
#
# Indices 1 2 3 4 5 6 
#
# 1 57.2996 37.7443 47.8197 0.0000 0.0000 0.0000
# 2 37.7443 103.9865 30.2363 0.0000 0.0000 0.0000
# 3 47.8197 30.2363 125.8219 0.0000 0.0000 0.0000
# 4 0.0000 0.0000 0.0000 36.5035 0.0000 0.0000
# 5 0.0000 0.0000 0.0000 0.0000 40.9256 0.0000
# 6 0.0000 0.0000 0.0000 0.0000 0.0000 32.4943
#
#
#
# Elastic Compliance Matrix: (Units=1/GPa)
#
#
# Indices 1 2 3 4 5 6 
#
# 1 0.031250 -0.008482 -0.009839 0.000000 0.000000 0.000000
# 2 -0.008482 0.012641 0.000186 0.000000 0.000000 0.000000
# 3 -0.009839 0.000186 0.011642 0.000000 0.000000 0.000000
# 4 0.000000 0.000000 0.000000 0.027395 0.000000 0.000000
# 5 0.000000 0.000000 0.000000 0.000000 0.024435 0.000000
# 6 0.000000 0.000000 0.000000 0.000000 0.000000 0.030775
#
#
# Mechanical properties :
#
#
# Convention : Reuss Voigt Hill
#
# Bulk Modulus (GPa) = 51.90981 57.63428 54.77205
# Shear Modulus (GPa) = 27.65038 33.40521 30.52780
#
# Velocity S-wave (km/s) = 3.79497 4.17124 3.98754
# Velocity P-wave (km/s) = 6.79998 7.29506 7.05187
#
# Compressibility (1/GPa) = 0.01926418
#
# Stress axis : x y z
#
# Youngs Moduli (GPa) = 31.99956 79.10516 85.89350
#
# Poissons Ratio (x) = 0.67099 0.84507
# Poissons Ratio (y) = 0.27143 -0.01597
# Poissons Ratio (z) = 0.31483 -0.01471
#
# Static dielectric constant tensor:
#      x y z
#    x 3.508100 0.000000 0.000000 
#    y 0.000000 3.783640 0.000000 
#    z 0.000000 0.000000 3.611920 
# 
# 
# High freq. dielectric constant tensor:
#      x y z
#    x 1.741710 0.000000 0.000000 
#    y 0.000000 1.766790 0.000000 
#    z 0.000000 0.000000 1.763180 
# 
# From -- ./inp_files/48036.got.cif
#   From: 2010.03.12/outbox.cif.g09.slc.cpg/sg64_25_cif.got.tgz:48036.got - 2010.04.10 20:19:32.
