data_PCOD8263472
_publ_section_title
;
Structure prediction by ZEFSAII (Michael W. Deem and Ramdas Pophale) SiO2 
 PCOD8263472
Probable space group: C M C A
;
_chemical_formula_sum "Si O2"
_cell_formula_units_Z 112
_cell_length_a 17.246155
_cell_length_b 28.302777
_cell_length_c 11.573228
_cell_angle_alpha 90.000000
_cell_angle_beta 90.000000
_cell_angle_gamma 90.000000
_cell_volume 5649.055527
_symmetry_space_group_name_H-M "C M C A"
_symmetry_group_IT_number 64
_symmetry_cell_setting 'orthorhombic'
loop_
_space_group_symop_operation_xyz
x,y,z
-x,1/2-y,1/2+z
x,-y,-z
-x,1/2+y,1/2-z
-x,-y,-z
x,1/2+y,1/2-z
-x,y,z
x,1/2-y,1/2+z
1/2+x,1/2+y,z
1/2-x,-y,1/2+z
1/2+x,1/2-y,-z
1/2-x,y,1/2-z
1/2-x,1/2-y,-z
1/2+x,y,1/2-z
1/2-x,1/2+y,z
1/2+x,-y,1/2+z
loop_
_atom_site_type_symbol
_atom_site_label
_atom_site_fract_x
_atom_site_fract_y
_atom_site_fract_z
Si Si1 0.089443 0.917042 0.773948
Si Si2 0.666707 0.156675 0.118510
Si Si3 0.410498 0.484201 0.127469
Si Si4 0.840605 0.649923 0.447505
Si Si5 0.834151 0.388725 0.304297
Si Si6 0.589582 0.326829 0.376009
Si Si7 0.090398 0.775769 0.799707
O O1 0.136852 0.893440 0.669074
O O2 0.115506 0.895729 0.896956
O O3 0.000000 0.904663 0.753252
O O4 0.102635 0.973259 0.780965
O O5 0.759243 0.155514 0.118720
O O6 0.637272 0.200694 0.194429
O O7 0.638750 0.162501 0.988681
O O8 0.500000 0.467876 0.126747
O O9 0.355773 0.442097 0.166927
O O10 0.385107 0.500000 0.000000
O O11 0.832768 0.644673 0.583743
O O12 0.891472 0.696299 0.418657
O O13 0.750000 0.387699 0.250000
O O14 0.897034 0.368463 0.215485
O O15 0.500000 0.324285 0.410999
O O16 0.617474 0.277957 0.317568
O O17 0.000000 0.778869 0.769823
#
# Coordination Sequence:
#
# PCOD8263472 Si02
#       7
#    16  16  16  16  16  16  16
#     4  10  20  38  67  94 117 156 207 255 303 360
#     4  11  22  41  61  91 129 161 201 253 307 374
#     4  10  21  40  66  93 120 156 205 257 303 356
#     4  11  22  39  63  90 124 161 203 254 309 360
#     4  12  25  42  59  92 129 162 205 251 308 370
#     4  11  25  42  62  87 125 169 203 253 311 362
#     4  10  23  40  64  93 118 161 215 254 301 363
#
# _framework density 19.826324
#
# number of rings (size 3 to 8) (size 9 to 14) (size 15 to 20)
#    0.000    1.286    2.857    4.714    2.000    4.571 
#    0.000    0.714    0.000    2.571    0.000    0.000 
#    0.000    0.000    0.000    0.000    0.000    0.000 
#
# Total GULP energy -694602.549125 kJ/mol
# GULP energy per Si atom -12403.616949 kJ/mol
# Density = 1.978120 g / cm^3
# Si number density = 19.826324 Si / 1000 Ang^3
#
#
#
# Elastic Constant Matrix: (Units=GPa)
#
#
# Indices 1 2 3 4 5 6 
#
# 1 41.9795 15.8245 8.6728 0.0000 0.0000 0.0000
# 2 15.8245 94.6560 38.6434 0.0000 0.0000 0.0000
# 3 8.6728 38.6434 95.4389 0.0000 0.0000 0.0000
# 4 0.0000 0.0000 0.0000 26.8421 0.0000 0.0000
# 5 0.0000 0.0000 0.0000 0.0000 28.9149 0.0000
# 6 0.0000 0.0000 0.0000 0.0000 0.0000 18.3903
#
#
#
# Elastic Compliance Matrix: (Units=1/GPa)
#
#
# Indices 1 2 3 4 5 6 
#
# 1 0.025463 -0.003968 -0.000707 0.000000 0.000000 0.000000
# 2 -0.003968 0.013275 -0.005015 0.000000 0.000000 0.000000
# 3 -0.000707 -0.005015 0.012573 0.000000 0.000000 0.000000
# 4 0.000000 0.000000 0.000000 0.037255 0.000000 0.000000
# 5 0.000000 0.000000 0.000000 0.000000 0.034584 0.000000
# 6 0.000000 0.000000 0.000000 0.000000 0.000000 0.054377
#
#
# Mechanical properties :
#
#
# Convention : Reuss Voigt Hill
#
# Bulk Modulus (GPa) = 31.31753 39.81731 35.56742
# Shear Modulus (GPa) = 24.09057 26.09169 25.09113
#
# Velocity S-wave (km/s) = 3.48958 3.63162 3.56131
# Velocity P-wave (km/s) = 5.66273 6.14098 5.90669
#
# Compressibility (1/GPa) = 0.03193100
#
# Stress axis : x y z
#
# Youngs Moduli (GPa) = 39.27255 75.32874 79.53828
#
# Poissons Ratio (x) = 0.29892 0.05625
# Poissons Ratio (y) = 0.15584 0.39885
# Poissons Ratio (z) = 0.02777 0.37774
#
# Static dielectric constant tensor:
#      x y z
#    x 3.620180 0.000000 0.000000 
#    y 0.000000 3.616830 0.000000 
#    z 0.000000 0.000000 3.553080 
# 
# 
# High freq. dielectric constant tensor:
#      x y z
#    x 1.782470 0.000000 0.000000 
#    y 0.000000 1.774740 0.000000 
#    z 0.000000 0.000000 1.772400 
# 
# From -- ./inp_files/15000.got.cif
#   From: 2010.03.12/outbox.cif.g09.slc.cpg/sg64_8_cif.got.tgz:15000.got - 2010.04.10 20:19:32.
