data_PCOD8263852
_publ_section_title
;
Structure prediction by ZEFSAII (Michael W. Deem and Ramdas Pophale) SiO2 
 PCOD8263852
Probable space group: C M C A
;
_chemical_formula_sum "Si O2"
_cell_formula_units_Z 104
_cell_length_a 18.727892
_cell_length_b 18.959138
_cell_length_c 14.597293
_cell_angle_alpha 90.000000
_cell_angle_beta 90.000000
_cell_angle_gamma 90.000000
_cell_volume 5182.983297
_symmetry_space_group_name_H-M "C M C A"
_symmetry_group_IT_number 64
_symmetry_cell_setting 'orthorhombic'
loop_
_space_group_symop_operation_xyz
x,y,z
-x,1/2-y,1/2+z
x,-y,-z
-x,1/2+y,1/2-z
-x,-y,-z
x,1/2+y,1/2-z
-x,y,z
x,1/2-y,1/2+z
1/2+x,1/2+y,z
1/2-x,-y,1/2+z
1/2+x,1/2-y,-z
1/2-x,y,1/2-z
1/2-x,1/2-y,-z
1/2+x,y,1/2-z
1/2-x,1/2+y,z
1/2+x,-y,1/2+z
loop_
_atom_site_type_symbol
_atom_site_label
_atom_site_fract_x
_atom_site_fract_y
_atom_site_fract_z
Si Si1 0.083527 0.213305 0.221119
Si Si2 0.919119 0.556567 0.317197
Si Si3 0.138785 0.000000 0.000000
Si Si4 0.660867 0.673710 0.596533
Si Si5 0.583479 0.764612 0.933906
Si Si6 0.831369 0.939013 0.262311
Si Si7 0.819859 0.360499 0.416763
O O1 0.107781 0.136803 0.184938
O O2 0.132363 0.267842 0.166862
O O3 0.099580 0.215781 0.329313
O O4 0.000000 0.229032 0.201433
O O5 0.911970 0.522455 0.417085
O O6 0.876718 0.509890 0.243977
O O7 0.000000 0.554314 0.284392
O O8 0.188460 0.066734 0.974029
O O9 0.618689 0.676801 0.500440
O O10 0.650305 0.596096 0.640156
O O11 0.745968 0.683180 0.582309
O O12 0.500000 0.759008 0.955412
O O13 0.619256 0.689543 0.959725
O O14 0.750000 0.962803 0.250000
O O15 0.847213 0.880107 0.184944
#
# Coordination Sequence:
#
# PCOD8263852 Si02
#       7
#    16  16   8  16  16  16  16
#     4  10  22  40  60  91 128 159 204 262 308 366
#     4  10  21  38  60  88 123 160 204 256 316 371
#     4  10  21  38  60  94 123 156 202 264 317 370
#     4  11  21  40  63  87 123 163 208 251 308 372
#     4  11  23  38  59  91 124 160 207 258 313 370
#     4   9  20  39  58  85 119 159 204 253 308 370
#     4  10  21  40  61  89 123 156 203 260 311 371
#
# _framework density 20.065664000000002
#
# number of rings (size 3 to 8) (size 9 to 14) (size 15 to 20)
#    0.000    1.846    1.538    2.077    0.000    5.538 
#   11.077    0.000    0.000    2.769    0.000    0.000 
#    0.000    0.000    0.000    0.000    0.000    0.000 
#
# Total GULP energy -644781.249886 kJ/mol
# GULP energy per Si atom -12399.639421 kJ/mol
# Density = 2.001999 g / cm^3
# Si number density = 20.065664 Si / 1000 Ang^3
#
#
#
# Elastic Constant Matrix: (Units=GPa)
#
#
# Indices 1 2 3 4 5 6 
#
# 1 103.7831 61.6949 27.1544 0.0000 0.0000 0.0000
# 2 61.6949 107.3569 30.2201 0.0000 0.0000 0.0000
# 3 27.1544 30.2201 72.4781 0.0000 0.0000 0.0000
# 4 0.0000 0.0000 0.0000 33.1664 0.0000 0.0000
# 5 0.0000 0.0000 0.0000 0.0000 30.0201 0.0000
# 6 0.0000 0.0000 0.0000 0.0000 0.0000 33.6870
#
#
#
# Elastic Compliance Matrix: (Units=1/GPa)
#
#
# Indices 1 2 3 4 5 6 
#
# 1 0.014963 -0.007954 -0.002289 0.000000 0.000000 0.000000
# 2 -0.007954 0.014782 -0.003183 0.000000 0.000000 0.000000
# 3 -0.002289 -0.003183 0.015982 0.000000 0.000000 0.000000
# 4 0.000000 0.000000 0.000000 0.030151 0.000000 0.000000
# 5 0.000000 0.000000 0.000000 0.000000 0.033311 0.000000
# 6 0.000000 0.000000 0.000000 0.000000 0.000000 0.029685
#
#
# Mechanical properties :
#
#
# Convention : Reuss Voigt Hill
#
# Bulk Modulus (GPa) = 52.98508 57.97301 55.47905
# Shear Modulus (GPa) = 29.06647 30.34460 29.70554
#
# Velocity S-wave (km/s) = 3.81013 3.89300 3.85179
# Velocity P-wave (km/s) = 6.76900 7.01154 6.89134
#
# Compressibility (1/GPa) = 0.01887324
#
# Stress axis : x y z
#
# Youngs Moduli (GPa) = 66.83128 67.65014 62.56928
#
# Poissons Ratio (x) = 0.53812 0.14325
# Poissons Ratio (y) = 0.53160 0.19917
# Poissons Ratio (z) = 0.15300 0.21535
#
# Static dielectric constant tensor:
#      x y z
#    x 3.532560 0.000000 0.000000 
#    y 0.000000 3.624910 0.000000 
#    z 0.000000 0.000000 3.833050 
# 
# 
# High freq. dielectric constant tensor:
#      x y z
#    x 1.777040 0.000000 0.000000 
#    y 0.000000 1.781010 0.000000 
#    z 0.000000 0.000000 1.786240 
# 
# From -- ./inp_files/25645.got.cif
#   From: 2010.03.12/outbox.cif.g09.slc.cpg/sg64_13_cif.got.tgz:25645.got - 2010.04.10 20:19:32.
