data_PCOD8263746
_publ_section_title
;
Structure prediction by ZEFSAII (Michael W. Deem and Ramdas Pophale) SiO2 
 PCOD8263746
Probable space group: C M C A
;
_chemical_formula_sum "Si O2"
_cell_formula_units_Z 64
_cell_length_a 8.389102
_cell_length_b 19.953556
_cell_length_c 19.968620
_cell_angle_alpha 90.000000
_cell_angle_beta 90.000000
_cell_angle_gamma 90.000000
_cell_volume 3342.595557
_symmetry_space_group_name_H-M "C M C A"
_symmetry_group_IT_number 64
_symmetry_cell_setting 'orthorhombic'
loop_
_space_group_symop_operation_xyz
x,y,z
-x,1/2-y,1/2+z
x,-y,-z
-x,1/2+y,1/2-z
-x,-y,-z
x,1/2+y,1/2-z
-x,y,z
x,1/2-y,1/2+z
1/2+x,1/2+y,z
1/2-x,-y,1/2+z
1/2+x,1/2-y,-z
1/2-x,y,1/2-z
1/2-x,1/2-y,-z
1/2+x,y,1/2-z
1/2-x,1/2+y,z
1/2+x,-y,1/2+z
loop_
_atom_site_type_symbol
_atom_site_label
_atom_site_fract_x
_atom_site_fract_y
_atom_site_fract_z
Si Si1 0.815213 0.432022 0.425250
Si Si2 0.688702 0.818693 0.321863
Si Si3 0.683629 0.925919 0.932466
Si Si4 0.813001 0.173438 0.176592
O O1 0.758588 0.373323 0.376110
O O2 0.785970 0.409178 0.501511
O O3 0.718010 0.498852 0.407122
O O4 0.000000 0.447945 0.414747
O O5 0.500000 0.806826 0.319752
O O6 0.750000 0.843969 0.250000
O O7 0.773765 0.749774 0.342231
O O8 0.500000 0.919479 0.951984
O O9 0.724648 0.874157 0.874953
O O10 0.750000 0.155587 0.250000
O O11 0.000000 0.160645 0.172943
#
# Coordination Sequence:
#
# PCOD8263746 Si02
#       4
#    16  16  16  16
#     4  10  21  38  58  82 113 147 185 229 277 327
#     4  10  21  37  58  83 112 145 182 226 274 327
#     4  11  22  37  58  83 112 146 186 229 276 329
#     4  11  22  38  59  82 112 146 183 228 275 327
#
# _framework density 19.146796999999999
#
# number of rings (size 3 to 8) (size 9 to 14) (size 15 to 20)
#    0.000    1.500    0.000    9.000    0.000    6.000 
#    0.000    2.500    0.000    0.000    0.000    0.000 
#    0.000    0.000    0.000    0.000    0.000    0.000 
#
# Total GULP energy -396962.618010 kJ/mol
# GULP energy per Si atom -12405.081813 kJ/mol
# Density = 1.910322 g / cm^3
# Si number density = 19.146797 Si / 1000 Ang^3
#
#
#
# Elastic Constant Matrix: (Units=GPa)
#
#
# Indices 1 2 3 4 5 6 
#
# 1 66.4931 8.5857 1.6891 0.0000 0.0000 0.0000
# 2 8.5857 101.9684 83.4655 0.0000 0.0000 0.0000
# 3 1.6891 83.4655 105.7174 0.0000 0.0000 0.0000
# 4 0.0000 0.0000 0.0000 -102.3380 0.0000 0.0000
# 5 0.0000 0.0000 0.0000 0.0000 33.1540 0.0000
# 6 0.0000 0.0000 0.0000 0.0000 0.0000 34.1384
#
#
#
# Elastic Compliance Matrix: (Units=1/GPa)
#
#
# Indices 1 2 3 4 5 6 
#
# 1 0.015383 -0.003093 0.002196 0.000000 0.000000 0.000000
# 2 -0.003093 0.028345 -0.022329 0.000000 0.000000 0.000000
# 3 0.002196 -0.022329 0.027053 0.000000 0.000000 0.000000
# 4 0.000000 0.000000 0.000000 -0.009772 0.000000 0.000000
# 5 0.000000 0.000000 0.000000 0.000000 0.030162 0.000000
# 6 0.000000 0.000000 0.000000 0.000000 0.000000 0.029293
#
#
# Mechanical properties :
#
#
# Convention : Reuss Voigt Hill
#
# Bulk Modulus (GPa) = 41.10337 51.29550 46.19944
# Shear Modulus (GPa) = 28.56719 5.02011 16.79365
#
# Velocity S-wave (km/s) = 3.86684 1.62099 2.96480
# Velocity P-wave (km/s) = 6.43822 5.50929 5.99179
#
# Compressibility (1/GPa) = 0.02432891
#
# Stress axis : x y z
#
# Youngs Moduli (GPa) = 65.00804 35.27976 36.96390
#
# Poissons Ratio (x) = 0.10911 -0.08117
# Poissons Ratio (y) = 0.20105 0.82538
# Poissons Ratio (z) = -0.14276 0.78777
#
# Static dielectric constant tensor:
#      x y z
#    x 3.669360 0.000000 0.000000 
#    y 0.000000 3.527560 0.000000 
#    z 0.000000 0.000000 3.534050 
# 
# 
# High freq. dielectric constant tensor:
#      x y z
#    x 1.763340 0.000000 0.000000 
#    y 0.000000 1.746850 0.000000 
#    z 0.000000 0.000000 1.746950 
# 
# From -- ./inp_files/29258.got.cif
#   From: 2010.03.12/outbox.cif.g09.slc.cpg/sg64_15_cif.got.tgz:29258.got - 2010.04.10 20:19:32.
