data_PCOD8263832
_publ_section_title
;
Structure prediction by ZEFSAII (Michael W. Deem and Ramdas Pophale) SiO2 
 PCOD8263832
Probable space group: C M C A
;
_chemical_formula_sum "Si O2"
_cell_formula_units_Z 96
_cell_length_a 8.716652
_cell_length_b 19.831633
_cell_length_c 28.944229
_cell_angle_alpha 90.000000
_cell_angle_beta 90.000000
_cell_angle_gamma 90.000000
_cell_volume 5003.456981
_symmetry_space_group_name_H-M "C M C A"
_symmetry_group_IT_number 64
_symmetry_cell_setting 'orthorhombic'
loop_
_space_group_symop_operation_xyz
x,y,z
-x,1/2-y,1/2+z
x,-y,-z
-x,1/2+y,1/2-z
-x,-y,-z
x,1/2+y,1/2-z
-x,y,z
x,1/2-y,1/2+z
1/2+x,1/2+y,z
1/2-x,-y,1/2+z
1/2+x,1/2-y,-z
1/2-x,y,1/2-z
1/2-x,1/2-y,-z
1/2+x,y,1/2-z
1/2-x,1/2+y,z
1/2+x,-y,1/2+z
loop_
_atom_site_type_symbol
_atom_site_label
_atom_site_fract_x
_atom_site_fract_y
_atom_site_fract_z
Si Si1 0.179849 0.991801 0.875108
Si Si2 0.181795 0.685515 0.975890
Si Si3 0.318894 0.856545 0.380266
Si Si4 0.181288 0.744948 0.700650
Si Si5 0.171756 0.560628 0.035092
Si Si6 0.682936 0.387304 0.799634
O O1 0.217834 0.954904 0.922644
O O2 0.244082 0.945920 0.833554
O O3 0.000000 0.997423 0.869951
O O4 0.248643 0.067678 0.873469
O O5 0.243247 0.678548 0.924207
O O6 0.000000 0.689323 0.973757
O O7 0.250000 0.750000 0.000000
O O8 0.238643 0.623917 0.007445
O O9 0.500000 0.858059 0.388348
O O10 0.274640 0.813367 0.335330
O O11 0.250000 0.723690 0.750000
O O12 0.253238 0.815289 0.683159
O O13 0.000000 0.754255 0.705488
O O14 0.000000 0.574425 0.053921
O O15 0.170199 0.500000 0.000000
O O16 0.500000 0.383433 0.797774
O O17 0.750000 0.405707 0.750000
#
# Coordination Sequence:
#
# PCOD8263832 Si02
#       6
#    16  16  16  16  16  16
#     4  10  22  38  59  86 115 150 191 234 281 338
#     4  11  24  40  59  85 117 152 192 238 284 339
#     4  10  22  40  59  84 117 152 191 235 285 339
#     4  10  21  38  60  84 113 149 188 234 285 339
#     4  10  21  39  59  83 115 150 190 233 280 334
#     4  10  21  38  59  86 115 147 189 234 283 341
#
# _framework density 19.186734999999999
#
# number of rings (size 3 to 8) (size 9 to 14) (size 15 to 20)
#    0.000    1.833    1.667    2.500    2.333    5.000 
#    0.000    0.000    0.000    0.000    0.000    0.000 
#    0.000    0.000    0.000    0.000    0.000    0.000 
#
# Total GULP energy -595279.849219 kJ/mol
# GULP energy per Si atom -12401.663525 kJ/mol
# Density = 1.914307 g / cm^3
# Si number density = 19.186735 Si / 1000 Ang^3
#
#
#
# Elastic Constant Matrix: (Units=GPa)
#
#
# Indices 1 2 3 4 5 6 
#
# 1 51.7233 40.7885 41.9556 0.0000 0.0000 0.0000
# 2 40.7885 153.0395 91.8468 0.0000 0.0000 0.0000
# 3 41.9556 91.8468 137.0395 0.0000 0.0000 0.0000
# 4 0.0000 0.0000 0.0000 39.9557 0.0000 0.0000
# 5 0.0000 0.0000 0.0000 0.0000 33.6145 0.0000
# 6 0.0000 0.0000 0.0000 0.0000 0.0000 22.2850
#
#
#
# Elastic Compliance Matrix: (Units=1/GPa)
#
#
# Indices 1 2 3 4 5 6 
#
# 1 0.026937 -0.003730 -0.005747 0.000000 0.000000 0.000000
# 2 -0.003730 0.011448 -0.006530 0.000000 0.000000 0.000000
# 3 -0.005747 -0.006530 0.013433 0.000000 0.000000 0.000000
# 4 0.000000 0.000000 0.000000 0.025028 0.000000 0.000000
# 5 0.000000 0.000000 0.000000 0.000000 0.029749 0.000000
# 6 0.000000 0.000000 0.000000 0.000000 0.000000 0.044873
#
#
# Mechanical properties :
#
#
# Convention : Reuss Voigt Hill
#
# Bulk Modulus (GPa) = 50.49764 76.77603 63.63683
# Shear Modulus (GPa) = 26.30416 30.31848 28.31132
#
# Velocity S-wave (km/s) = 3.70666 3.97946 3.84548
# Velocity P-wave (km/s) = 6.68545 7.82412 7.27709
#
# Compressibility (1/GPa) = 0.01980291
#
# Stress axis : x y z
#
# Youngs Moduli (GPa) = 37.12385 87.35348 74.44132
#
# Poissons Ratio (x) = 0.32586 0.42779
# Poissons Ratio (y) = 0.13849 0.48613
# Poissons Ratio (z) = 0.21334 0.57046
#
# Static dielectric constant tensor:
#      x y z
#    x 3.521660 0.000000 0.000000 
#    y 0.000000 3.830370 0.000000 
#    z 0.000000 0.000000 4.513610 
# 
# 
# High freq. dielectric constant tensor:
#      x y z
#    x 1.744230 0.000000 0.000000 
#    y 0.000000 1.759830 0.000000 
#    z 0.000000 0.000000 1.752740 
# 
# From -- ./inp_files/48052.got.cif
#   From: 2010.03.12/outbox.cif.g09.slc.cpg/sg64_25_cif.got.tgz:48052.got - 2010.04.10 20:19:32.
