data_PCOD8263203
_publ_section_title
;
Structure prediction by ZEFSAII (Michael W. Deem and Ramdas Pophale) SiO2 
 PCOD8263203
Probable space group: C M C A
;
_chemical_formula_sum "Si O2"
_cell_formula_units_Z 96
_cell_length_a 8.798761
_cell_length_b 19.124675
_cell_length_c 30.338204
_cell_angle_alpha 90.000000
_cell_angle_beta 90.000000
_cell_angle_gamma 90.000000
_cell_volume 5105.114088
_symmetry_space_group_name_H-M "C M C A"
_symmetry_group_IT_number 64
_symmetry_cell_setting 'orthorhombic'
loop_
_space_group_symop_operation_xyz
x,y,z
-x,1/2-y,1/2+z
x,-y,-z
-x,1/2+y,1/2-z
-x,-y,-z
x,1/2+y,1/2-z
-x,y,z
x,1/2-y,1/2+z
1/2+x,1/2+y,z
1/2-x,-y,1/2+z
1/2+x,1/2-y,-z
1/2-x,y,1/2-z
1/2-x,1/2-y,-z
1/2+x,y,1/2-z
1/2-x,1/2+y,z
1/2+x,-y,1/2+z
loop_
_atom_site_type_symbol
_atom_site_label
_atom_site_fract_x
_atom_site_fract_y
_atom_site_fract_z
Si Si1 0.675097 0.498800 0.365194
Si Si2 0.675676 0.787043 0.143133
Si Si3 0.327156 0.109581 0.936387
Si Si4 0.679151 0.901082 0.297367
Si Si5 0.678035 0.322565 0.985541
Si Si6 0.176351 0.345764 0.892602
O O1 0.500000 0.479755 0.354159
O O2 0.717522 0.462162 0.411705
O O3 0.780187 0.468481 0.326783
O O4 0.702588 0.580902 0.368278
O O5 0.500000 0.776964 0.155181
O O6 0.696189 0.825367 0.096473
O O7 0.753872 0.830414 0.181938
O O8 0.756034 0.712172 0.140032
O O9 0.500000 0.107064 0.953532
O O10 0.218023 0.118489 0.978300
O O11 0.500000 0.893558 0.293609
O O12 0.750000 0.913702 0.250000
O O13 0.500000 0.312016 0.981995
O O14 0.738542 0.347703 0.938823
O O15 0.750000 0.250000 0.000000
O O16 0.000000 0.330699 0.901316
#
# Coordination Sequence:
#
# PCOD8263203 Si02
#       6
#    16  16  16  16  16  16
#     4   9  21  40  60  84 117 153 190 235 291 348
#     4  10  20  36  59  85 116 149 186 234 285 338
#     4   9  18  35  56  78 109 151 194 237 283 336
#     4  11  22  39  65  91 116 147 187 232 280 343
#     4  12  23  34  52  79 113 153 200 249 289 336
#     4  11  22  37  58  84 116 154 194 238 290 343
#
# _framework density 18.804672
#
# number of rings (size 3 to 8) (size 9 to 14) (size 15 to 20)
#    0.000    1.667    1.667    5.000    0.000    4.667 
#    0.000    4.167    0.000    4.000    0.000    0.000 
#    0.000    0.000    0.000    0.000    0.000    0.000 
#
# Total GULP energy -595423.752966 kJ/mol
# GULP energy per Si atom -12404.661520 kJ/mol
# Density = 1.876187 g / cm^3
# Si number density = 18.804672 Si / 1000 Ang^3
#
#
#
# Elastic Constant Matrix: (Units=GPa)
#
#
# Indices 1 2 3 4 5 6 
#
# 1 151.6170 51.4463 54.3980 0.0000 0.0000 0.0000
# 2 51.4463 105.7279 30.8259 0.0000 0.0000 0.0000
# 3 54.3980 30.8259 88.9949 0.0000 0.0000 0.0000
# 4 0.0000 0.0000 0.0000 14.5903 0.0000 0.0000
# 5 0.0000 0.0000 0.0000 0.0000 33.3371 0.0000
# 6 0.0000 0.0000 0.0000 0.0000 0.0000 30.3082
#
#
#
# Elastic Compliance Matrix: (Units=1/GPa)
#
#
# Indices 1 2 3 4 5 6 
#
# 1 0.009330 -0.003200 -0.004594 0.000000 0.000000 0.000000
# 2 -0.003200 0.011618 -0.002068 0.000000 0.000000 0.000000
# 3 -0.004594 -0.002068 0.014761 0.000000 0.000000 0.000000
# 4 0.000000 0.000000 0.000000 0.068538 0.000000 0.000000
# 5 0.000000 0.000000 0.000000 0.000000 0.029997 0.000000
# 6 0.000000 0.000000 0.000000 0.000000 0.000000 0.032994
#
#
# Mechanical properties :
#
#
# Convention : Reuss Voigt Hill
#
# Bulk Modulus (GPa) = 62.56301 68.85338 65.70819
# Shear Modulus (GPa) = 26.00202 29.62512 27.81357
#
# Velocity S-wave (km/s) = 3.72256 3.97345 3.85005
# Velocity P-wave (km/s) = 7.19852 7.59905 7.40150
#
# Compressibility (1/GPa) = 0.01598389
#
# Stress axis : x y z
#
# Youngs Moduli (GPa) = 107.18261 86.06968 67.74490
#
# Poissons Ratio (x) = 0.27545 0.31124
# Poissons Ratio (y) = 0.34302 0.14011
# Poissons Ratio (z) = 0.49243 0.17801
#
# Static dielectric constant tensor:
#      x y z
#    x 3.569250 0.000000 0.000000 
#    y 0.000000 3.460810 0.000000 
#    z 0.000000 0.000000 3.353800 
# 
# 
# High freq. dielectric constant tensor:
#      x y z
#    x 1.739680 0.000000 0.000000 
#    y 0.000000 1.729400 0.000000 
#    z 0.000000 0.000000 1.718510 
# 
# From -- ./inp_files/48111.got.cif
#   From: 2010.03.12/outbox.cif.g09.slc.cpg/sg64_25_cif.got.tgz:48111.got - 2010.04.10 20:19:32.
