data_PCOD8263411
_publ_section_title
;
Structure prediction by ZEFSAII (Michael W. Deem and Ramdas Pophale) SiO2 
 PCOD8263411
Probable space group: C M C A
;
_chemical_formula_sum "Si O2"
_cell_formula_units_Z 96
_cell_length_a 13.098116
_cell_length_b 14.025308
_cell_length_c 24.296519
_cell_angle_alpha 90.000000
_cell_angle_beta 90.000000
_cell_angle_gamma 90.000000
_cell_volume 4463.394723
_symmetry_space_group_name_H-M "C M C A"
_symmetry_group_IT_number 64
_symmetry_cell_setting 'orthorhombic'
loop_
_space_group_symop_operation_xyz
x,y,z
-x,1/2-y,1/2+z
x,-y,-z
-x,1/2+y,1/2-z
-x,-y,-z
x,1/2+y,1/2-z
-x,y,z
x,1/2-y,1/2+z
1/2+x,1/2+y,z
1/2-x,-y,1/2+z
1/2+x,1/2-y,-z
1/2-x,y,1/2-z
1/2-x,1/2-y,-z
1/2+x,y,1/2-z
1/2-x,1/2+y,z
1/2+x,-y,1/2+z
loop_
_atom_site_type_symbol
_atom_site_label
_atom_site_fract_x
_atom_site_fract_y
_atom_site_fract_z
Si Si1 0.884339 0.059922 0.729556
Si Si2 0.882512 0.791542 0.545381
Si Si3 0.115353 0.239086 0.187501
Si Si4 0.183588 0.804750 0.425879
Si Si5 0.794754 0.457581 0.675709
Si Si6 0.228046 0.985161 0.560338
O O1 0.846383 0.168987 0.721900
O O2 0.000000 0.050034 0.710212
O O3 0.870411 0.032288 0.793929
O O4 0.820393 0.986958 0.691766
O O5 0.865720 0.763876 0.481615
O O6 0.803662 0.725564 0.579786
O O7 0.856295 0.902385 0.555703
O O8 0.000000 0.771636 0.562750
O O9 0.118101 0.261852 0.122972
O O10 0.185976 0.148028 0.199487
O O11 0.000000 0.212179 0.204051
O O12 0.171332 0.918281 0.422678
O O13 0.808944 0.460311 0.609139
O O14 0.282060 0.000000 0.500000
#
# Coordination Sequence:
#
# PCOD8263411 Si02
#       6
#    16  16  16  16  16  16
#     4  10  24  43  67  92 122 168 221 268 321 384
#     4  10  21  37  62  95 129 172 219 261 311 377
#     4  11  22  40  66  95 123 168 215 260 329 392
#     4  10  20  38  61  91 134 169 211 265 319 375
#     4  11  22  42  67  96 133 164 210 277 326 378
#     4  10  21  38  65  95 134 170 213 260 321 379
#
# _framework density 21.508293999999999
#
# number of rings (size 3 to 8) (size 9 to 14) (size 15 to 20)
#    0.000    1.667    3.333    1.000    0.000    7.000 
#    0.000    1.667    0.000    5.500    0.000    0.000 
#    0.000    0.000    0.000    0.000    0.000    0.000 
#
# Total GULP energy -594934.990764 kJ/mol
# GULP energy per Si atom -12394.478974 kJ/mol
# Density = 2.145934 g / cm^3
# Si number density = 21.508294 Si / 1000 Ang^3
#
#
#
# Elastic Constant Matrix: (Units=GPa)
#
#
# Indices 1 2 3 4 5 6 
#
# 1 105.3146 49.6090 22.1252 0.0000 0.0000 0.0000
# 2 49.6090 127.6498 40.8619 0.0000 0.0000 0.0000
# 3 22.1252 40.8619 104.7776 0.0000 0.0000 0.0000
# 4 0.0000 0.0000 0.0000 29.4837 0.0000 0.0000
# 5 0.0000 0.0000 0.0000 0.0000 22.0194 0.0000
# 6 0.0000 0.0000 0.0000 0.0000 0.0000 31.9455
#
#
#
# Elastic Compliance Matrix: (Units=1/GPa)
#
#
# Indices 1 2 3 4 5 6 
#
# 1 0.011681 -0.004285 -0.000796 0.000000 0.000000 0.000000
# 2 -0.004285 0.010523 -0.003199 0.000000 0.000000 0.000000
# 3 -0.000796 -0.003199 0.010960 0.000000 0.000000 0.000000
# 4 0.000000 0.000000 0.000000 0.033917 0.000000 0.000000
# 5 0.000000 0.000000 0.000000 0.000000 0.045414 0.000000
# 6 0.000000 0.000000 0.000000 0.000000 0.000000 0.031303
#
#
# Mechanical properties :
#
#
# Convention : Reuss Voigt Hill
#
# Bulk Modulus (GPa) = 60.22400 62.54824 61.38612
# Shear Modulus (GPa) = 30.13997 31.69946 30.91972
#
# Velocity S-wave (km/s) = 3.74748 3.84321 3.79565
# Velocity P-wave (km/s) = 6.84003 6.98840 6.91461
#
# Compressibility (1/GPa) = 0.01660468
#
# Stress axis : x y z
#
# Youngs Moduli (GPa) = 85.60964 95.02749 91.24405
#
# Poissons Ratio (x) = 0.40719 0.07259
# Poissons Ratio (y) = 0.36683 0.29190
# Poissons Ratio (z) = 0.06810 0.30400
#
# Static dielectric constant tensor:
#      x y z
#    x 3.569500 0.000000 0.000000 
#    y 0.000000 4.084390 0.000000 
#    z 0.000000 0.000000 4.066180 
# 
# 
# High freq. dielectric constant tensor:
#      x y z
#    x 1.810230 0.000000 0.000000 
#    y 0.000000 1.856410 0.000000 
#    z 0.000000 0.000000 1.843900 
# 
# From -- ./inp_files/53329.got.cif
#   From: 2010.03.12/outbox.cif.g09.slc.cpg/sg64_27_cif.got.tgz:53329.got - 2010.04.10 20:19:32.
