data_PCOD8263356
_publ_section_title
;
Structure prediction by ZEFSAII (Michael W. Deem and Ramdas Pophale) SiO2 
 PCOD8263356
Probable space group: C M C A
;
_chemical_formula_sum "Si O2"
_cell_formula_units_Z 112
_cell_length_a 29.079283
_cell_length_b 12.023956
_cell_length_c 14.531929
_cell_angle_alpha 90.000000
_cell_angle_beta 90.000000
_cell_angle_gamma 90.000000
_cell_volume 5081.060192
_symmetry_space_group_name_H-M "C M C A"
_symmetry_group_IT_number 64
_symmetry_cell_setting 'orthorhombic'
loop_
_space_group_symop_operation_xyz
x,y,z
-x,1/2-y,1/2+z
x,-y,-z
-x,1/2+y,1/2-z
-x,-y,-z
x,1/2+y,1/2-z
-x,y,z
x,1/2-y,1/2+z
1/2+x,1/2+y,z
1/2-x,-y,1/2+z
1/2+x,1/2-y,-z
1/2-x,y,1/2-z
1/2-x,1/2-y,-z
1/2+x,y,1/2-z
1/2-x,1/2+y,z
1/2+x,-y,1/2+z
loop_
_atom_site_type_symbol
_atom_site_label
_atom_site_fract_x
_atom_site_fract_y
_atom_site_fract_z
Si Si1 0.086205 0.964859 0.598478
Si Si2 0.275244 0.731873 0.654138
Si Si3 0.119034 0.199981 0.652087
Si Si4 0.714924 0.876675 0.481269
Si Si5 0.377650 0.760102 0.449584
Si Si6 0.447378 0.558013 0.902862
Si Si7 0.550957 0.635372 0.232114
O O1 0.124309 0.867949 0.584248
O O2 0.047614 0.910396 0.663452
O O3 0.064352 0.000000 0.500000
O O4 0.109206 0.068983 0.649236
O O5 0.250000 0.757510 0.750000
O O6 0.328132 0.713611 0.680565
O O7 0.268168 0.831175 0.580284
O O8 0.254713 0.625737 0.597551
O O9 0.107858 0.260612 0.556356
O O10 0.086010 0.260813 0.725817
O O11 0.673180 0.807360 0.437583
O O12 0.697667 0.000000 0.500000
O O13 0.414805 0.834153 0.394554
O O14 0.500000 0.596859 0.885599
O O15 0.431287 0.467722 0.828524
O O16 0.441495 0.500000 0.000000
O O17 0.500000 0.674335 0.200973
#
# Coordination Sequence:
#
# PCOD8263356 Si02
#       7
#    16  16  16  16  16  16  16
#     4  10  25  45  68  96 136 187 221 278 344 413
#     4  10  24  43  65  98 135 178 227 275 340 405
#     4  10  23  45  67  97 132 173 227 278 333 406
#     4  10  23  42  67 101 138 180 227 287 333 404
#     4  10  21  41  69  96 134 177 224 274 341 402
#     4  10  20  37  63  97 136 176 223 280 339 399
#     4  11  25  42  66  99 134 175 229 285 335 405
#
# _framework density 22.042642000000001
#
# number of rings (size 3 to 8) (size 9 to 14) (size 15 to 20)
#    0.000    1.857    1.429    0.429    6.000    6.000 
#    0.000    2.857    0.000    0.000    0.000    0.000 
#    0.000    0.000    0.000    0.000    0.000    0.000 
#
# Total GULP energy -694226.292167 kJ/mol
# GULP energy per Si atom -12396.898074 kJ/mol
# Density = 2.199247 g / cm^3
# Si number density = 22.042642 Si / 1000 Ang^3
#
#
#
# Elastic Constant Matrix: (Units=GPa)
#
#
# Indices 1 2 3 4 5 6 
#
# 1 131.9753 66.2052 44.9403 0.0000 0.0000 0.0000
# 2 66.2052 141.5224 48.7111 0.0000 0.0000 0.0000
# 3 44.9403 48.7111 118.7023 0.0000 0.0000 0.0000
# 4 0.0000 0.0000 0.0000 27.3278 0.0000 0.0000
# 5 0.0000 0.0000 0.0000 0.0000 21.3703 0.0000
# 6 0.0000 0.0000 0.0000 0.0000 0.0000 23.1017
#
#
#
# Elastic Compliance Matrix: (Units=1/GPa)
#
#
# Indices 1 2 3 4 5 6 
#
# 1 0.010396 -0.004086 -0.002259 0.000000 0.000000 0.000000
# 2 -0.004086 0.009834 -0.002489 0.000000 0.000000 0.000000
# 3 -0.002259 -0.002489 0.010301 0.000000 0.000000 0.000000
# 4 0.000000 0.000000 0.000000 0.036593 0.000000 0.000000
# 5 0.000000 0.000000 0.000000 0.000000 0.046794 0.000000
# 6 0.000000 0.000000 0.000000 0.000000 0.000000 0.043287
#
#
# Mechanical properties :
#
#
# Convention : Reuss Voigt Hill
#
# Bulk Modulus (GPa) = 77.73789 79.10147 78.41968
# Shear Modulus (GPa) = 27.90803 29.84952 28.87877
#
# Velocity S-wave (km/s) = 3.56208 3.68390 3.62350
# Velocity P-wave (km/s) = 7.22921 7.35244 7.29109
#
# Compressibility (1/GPa) = 0.01286374
#
# Stress axis : x y z
#
# Youngs Moduli (GPa) = 96.18974 101.68862 97.07753
#
# Poissons Ratio (x) = 0.41547 0.21933
# Poissons Ratio (y) = 0.39301 0.24159
# Poissons Ratio (z) = 0.21732 0.25307
#
# Static dielectric constant tensor:
#      x y z
#    x 3.752350 0.000000 0.000000 
#    y 0.000000 3.924460 0.000000 
#    z 0.000000 0.000000 4.122660 
# 
# 
# High freq. dielectric constant tensor:
#      x y z
#    x 1.852380 0.000000 0.000000 
#    y 0.000000 1.865850 0.000000 
#    z 0.000000 0.000000 1.878020 
# 
# From -- ./inp_files/28386.got.cif
#   From: 2010.03.12/outbox.cif.g09.slc.cpg/sg64_15_cif.got.tgz:28386.got - 2010.04.10 20:19:32.
