data_PCOD8263718
_publ_section_title
;
Structure prediction by ZEFSAII (Michael W. Deem and Ramdas Pophale) SiO2 
 PCOD8263718
Probable space group: C M C A
;
_chemical_formula_sum "Si O2"
_cell_formula_units_Z 96
_cell_length_a 8.902298
_cell_length_b 19.128845
_cell_length_c 30.385563
_cell_angle_alpha 90.000000
_cell_angle_beta 90.000000
_cell_angle_gamma 90.000000
_cell_volume 5174.378142
_symmetry_space_group_name_H-M "C M C A"
_symmetry_group_IT_number 64
_symmetry_cell_setting 'orthorhombic'
loop_
_space_group_symop_operation_xyz
x,y,z
-x,1/2-y,1/2+z
x,-y,-z
-x,1/2+y,1/2-z
-x,-y,-z
x,1/2+y,1/2-z
-x,y,z
x,1/2-y,1/2+z
1/2+x,1/2+y,z
1/2-x,-y,1/2+z
1/2+x,1/2-y,-z
1/2-x,y,1/2-z
1/2-x,1/2-y,-z
1/2+x,y,1/2-z
1/2-x,1/2+y,z
1/2+x,-y,1/2+z
loop_
_atom_site_type_symbol
_atom_site_label
_atom_site_fract_x
_atom_site_fract_y
_atom_site_fract_z
Si Si1 0.328692 0.290572 0.856601
Si Si2 0.328472 0.610056 0.063991
Si Si3 0.177186 0.602105 0.202614
Si Si4 0.174568 0.859864 0.389392
Si Si5 0.823640 0.177457 0.513119
Si Si6 0.823984 0.500146 0.635407
O O1 0.500000 0.306227 0.842317
O O2 0.300077 0.323584 0.904525
O O3 0.220200 0.324718 0.820578
O O4 0.296809 0.208334 0.859546
O O5 0.500000 0.608375 0.047785
O O6 0.285871 0.539067 0.089616
O O7 0.223143 0.617230 0.021398
O O8 0.250000 0.599122 0.250000
O O9 0.236393 0.536428 0.174984
O O10 0.000000 0.597146 0.206953
O O11 0.231473 0.846357 0.438876
O O12 0.272819 0.920279 0.367681
O O13 0.000000 0.881210 0.389207
O O14 0.750000 0.250000 0.500000
O O15 0.000000 0.188839 0.512891
O O16 0.000000 0.495279 0.645688
#
# Coordination Sequence:
#
# PCOD8263718 Si02
#       6
#    16  16  16  16  16  16
#     4   9  18  36  58  81 114 148 182 229 279 327
#     4   9  18  35  54  76 109 150 192 234 279 327
#     4  11  22  39  64  90 113 142 182 225 275 339
#     4  10  21  37  55  80 116 153 190 235 284 332
#     4  11  21  33  52  79 111 150 196 242 283 327
#     4  10  22  39  58  82 115 151 188 233 286 339
#
# _framework density 18.552954
#
# number of rings (size 3 to 8) (size 9 to 14) (size 15 to 20)
#    0.000    2.000    1.667    3.500    0.000    6.000 
#    0.000    4.167    0.000    4.000    0.000    0.000 
#    0.000    0.000    0.000    0.000    0.000    0.000 
#
# Total GULP energy -595350.530424 kJ/mol
# GULP energy per Si atom -12403.136051 kJ/mol
# Density = 1.851073 g / cm^3
# Si number density = 18.552954 Si / 1000 Ang^3
#
#
#
# Elastic Constant Matrix: (Units=GPa)
#
#
# Indices 1 2 3 4 5 6 
#
# 1 104.0563 48.7435 61.6617 0.0000 0.0000 0.0000
# 2 48.7435 116.4791 47.3126 0.0000 0.0000 0.0000
# 3 61.6617 47.3126 117.0004 0.0000 0.0000 0.0000
# 4 0.0000 0.0000 0.0000 13.0703 0.0000 0.0000
# 5 0.0000 0.0000 0.0000 0.0000 33.4080 0.0000
# 6 0.0000 0.0000 0.0000 0.0000 0.0000 33.1417
#
#
#
# Elastic Compliance Matrix: (Units=1/GPa)
#
#
# Indices 1 2 3 4 5 6 
#
# 1 0.015212 -0.003721 -0.006513 0.000000 0.000000 0.000000
# 2 -0.003721 0.011183 -0.002561 0.000000 0.000000 0.000000
# 3 -0.006513 -0.002561 0.013015 0.000000 0.000000 0.000000
# 4 0.000000 0.000000 0.000000 0.076509 0.000000 0.000000
# 5 0.000000 0.000000 0.000000 0.000000 0.029933 0.000000
# 6 0.000000 0.000000 0.000000 0.000000 0.000000 0.030173
#
#
# Mechanical properties :
#
#
# Convention : Reuss Voigt Hill
#
# Bulk Modulus (GPa) = 72.35383 72.55236 72.45309
# Shear Modulus (GPa) = 24.24581 27.91187 26.07884
#
# Velocity S-wave (km/s) = 3.61895 3.88292 3.75326
# Velocity P-wave (km/s) = 7.51968 7.70021 7.61048
#
# Compressibility (1/GPa) = 0.01382097
#
# Stress axis : x y z
#
# Youngs Moduli (GPa) = 65.73618 89.42540 76.83444
#
# Poissons Ratio (x) = 0.33271 0.50040
# Poissons Ratio (y) = 0.24458 0.19679
# Poissons Ratio (z) = 0.42812 0.22903
#
# Static dielectric constant tensor:
#      x y z
#    x 3.398780 0.000000 0.000000 
#    y 0.000000 3.527190 0.000000 
#    z 0.000000 0.000000 3.397140 
# 
# 
# High freq. dielectric constant tensor:
#      x y z
#    x 1.721750 0.000000 0.000000 
#    y 0.000000 1.719220 0.000000 
#    z 0.000000 0.000000 1.709520 
# 
# From -- ./inp_files/48074.got.cif
#   From: 2010.03.12/outbox.cif.g09.slc.cpg/sg64_25_cif.got.tgz:48074.got - 2010.04.10 20:19:32.
