data_PCOD8263427
_publ_section_title
;
Structure prediction by ZEFSAII (Michael W. Deem and Ramdas Pophale) SiO2 
 PCOD8263427
Probable space group: C M C A
;
_chemical_formula_sum "Si O2"
_cell_formula_units_Z 112
_cell_length_a 22.693674
_cell_length_b 14.192331
_cell_length_c 16.929928
_cell_angle_alpha 90.000000
_cell_angle_beta 90.000000
_cell_angle_gamma 90.000000
_cell_volume 5452.725742
_symmetry_space_group_name_H-M "C M C A"
_symmetry_group_IT_number 64
_symmetry_cell_setting 'orthorhombic'
loop_
_space_group_symop_operation_xyz
x,y,z
-x,1/2-y,1/2+z
x,-y,-z
-x,1/2+y,1/2-z
-x,-y,-z
x,1/2+y,1/2-z
-x,y,z
x,1/2-y,1/2+z
1/2+x,1/2+y,z
1/2-x,-y,1/2+z
1/2+x,1/2-y,-z
1/2-x,y,1/2-z
1/2-x,1/2-y,-z
1/2+x,y,1/2-z
1/2-x,1/2+y,z
1/2+x,-y,1/2+z
loop_
_atom_site_type_symbol
_atom_site_label
_atom_site_fract_x
_atom_site_fract_y
_atom_site_fract_z
Si Si1 0.167937 0.389494 0.926019
Si Si2 0.863465 0.648805 0.779517
Si Si3 0.932729 0.529796 0.173261
Si Si4 0.665330 0.322065 0.103819
Si Si5 0.432116 0.391591 0.991252
Si Si6 0.216012 0.916405 0.408906
Si Si7 0.933419 0.331198 0.685747
O O1 0.102915 0.418615 0.896597
O O2 0.184547 0.287572 0.890402
O O3 0.214358 0.469851 0.896440
O O4 0.170361 0.387372 0.021382
O O5 0.911284 0.576197 0.813067
O O6 0.849687 0.632731 0.688028
O O7 0.803218 0.636395 0.828890
O O8 0.887579 0.752864 0.789297
O O9 0.923889 0.581265 0.256498
O O10 0.000000 0.528704 0.145311
O O11 0.608285 0.328494 0.047993
O O12 0.718746 0.382860 0.067386
O O13 0.500000 0.373603 0.015377
O O14 0.414987 0.500000 0.000000
O O15 0.419147 0.363830 0.901993
O O16 0.000000 0.292461 0.692887
#
# Coordination Sequence:
#
# PCOD8263427 Si02
#       7
#    16  16  16  16  16  16  16
#     4  10  22  43  64  93 124 167 222 265 319 390
#     4  11  22  40  61  94 127 166 219 260 321 390
#     4  10  21  40  65  94 131 167 207 268 323 385
#     4  12  23  41  67  93 125 175 216 268 329 379
#     4  10  23  40  63  97 131 163 210 265 328 396
#     4  10  24  43  62  89 131 167 220 275 317 379
#     4  10  20  38  62  91 127 165 204 259 326 388
#
# _framework density 20.540185000000001
#
# number of rings (size 3 to 8) (size 9 to 14) (size 15 to 20)
#    0.000    1.571    1.429    3.000    2.000    2.857 
#    2.571    7.857    0.000    0.000    0.000    0.000 
#    0.000    0.000    0.000    0.000    0.000    0.000 
#
# Total GULP energy -694586.248937 kJ/mol
# GULP energy per Si atom -12403.325874 kJ/mol
# Density = 2.049343 g / cm^3
# Si number density = 20.540185 Si / 1000 Ang^3
#
#
#
# Elastic Constant Matrix: (Units=GPa)
#
#
# Indices 1 2 3 4 5 6 
#
# 1 105.9601 34.1045 45.6041 0.0000 0.0000 0.0000
# 2 34.1045 67.3016 2.7396 0.0000 0.0000 0.0000
# 3 45.6041 2.7396 116.4624 0.0000 0.0000 0.0000
# 4 0.0000 0.0000 0.0000 28.7951 0.0000 0.0000
# 5 0.0000 0.0000 0.0000 0.0000 31.1660 0.0000
# 6 0.0000 0.0000 0.0000 0.0000 0.0000 27.5472
#
#
#
# Elastic Compliance Matrix: (Units=1/GPa)
#
#
# Indices 1 2 3 4 5 6 
#
# 1 0.013913 -0.006835 -0.005287 0.000000 0.000000 0.000000
# 2 -0.006835 0.018231 0.002248 0.000000 0.000000 0.000000
# 3 -0.005287 0.002248 0.010604 0.000000 0.000000 0.000000
# 4 0.000000 0.000000 0.000000 0.034728 0.000000 0.000000
# 5 0.000000 0.000000 0.000000 0.000000 0.032086 0.000000
# 6 0.000000 0.000000 0.000000 0.000000 0.000000 0.036301
#
#
# Mechanical properties :
#
#
# Convention : Reuss Voigt Hill
#
# Bulk Modulus (GPa) = 43.48170 50.51339 46.99755
# Shear Modulus (GPa) = 28.85524 31.32006 30.08765
#
# Velocity S-wave (km/s) = 3.75216 3.90913 3.83145
# Velocity P-wave (km/s) = 6.32350 6.70976 6.51949
#
# Compressibility (1/GPa) = 0.02299818
#
# Stress axis : x y z
#
# Youngs Moduli (GPa) = 71.87505 54.85275 94.30442
#
# Poissons Ratio (x) = 0.37492 0.49861
# Poissons Ratio (y) = 0.49127 -0.21196
# Poissons Ratio (z) = 0.38002 -0.12329
#
# Static dielectric constant tensor:
#      x y z
#    x 3.622100 0.000000 0.000000 
#    y 0.000000 3.758090 0.000000 
#    z 0.000000 0.000000 -54.994180 
# 
# 
# High freq. dielectric constant tensor:
#      x y z
#    x 1.795960 0.000000 0.000000 
#    y 0.000000 1.810720 0.000000 
#    z 0.000000 0.000000 1.808910 
# 
# From -- ./inp_files/27432.got.cif
#   From: 2010.03.12/outbox.cif.g09.slc.cpg/sg64_14_cif.got.tgz:27432.got - 2010.04.10 20:19:32.
