data_PCOD8263654
_publ_section_title
;
Structure prediction by ZEFSAII (Michael W. Deem and Ramdas Pophale) SiO2 
 PCOD8263654
Probable space group: C M C A
;
_chemical_formula_sum "Si O2"
_cell_formula_units_Z 64
_cell_length_a 37.481090
_cell_length_b 17.426120
_cell_length_c 5.074435
_cell_angle_alpha 90.000000
_cell_angle_beta 90.000000
_cell_angle_gamma 90.000000
_cell_volume 3314.367079
_symmetry_space_group_name_H-M "C M C A"
_symmetry_group_IT_number 64
_symmetry_cell_setting 'orthorhombic'
loop_
_space_group_symop_operation_xyz
x,y,z
-x,1/2-y,1/2+z
x,-y,-z
-x,1/2+y,1/2-z
-x,-y,-z
x,1/2+y,1/2-z
-x,y,z
x,1/2-y,1/2+z
1/2+x,1/2+y,z
1/2-x,-y,1/2+z
1/2+x,1/2-y,-z
1/2-x,y,1/2-z
1/2-x,1/2-y,-z
1/2+x,y,1/2-z
1/2-x,1/2+y,z
1/2+x,-y,1/2+z
loop_
_atom_site_type_symbol
_atom_site_label
_atom_site_fract_x
_atom_site_fract_y
_atom_site_fract_z
Si Si1 0.959410 0.550353 0.257824
Si Si2 0.166933 0.702725 0.120935
Si Si3 0.727318 0.910090 0.997862
Si Si4 0.415852 0.298508 0.629960
O O1 0.943856 0.500000 0.500000
O O2 0.936867 0.626217 0.211590
O O3 0.000000 0.574951 0.321292
O O4 0.957102 0.500000 0.000000
O O5 0.176325 0.728971 0.416672
O O6 0.188927 0.629179 0.025264
O O7 0.125649 0.679459 0.120674
O O8 0.750000 0.883408 0.750000
O O9 0.750000 0.883424 0.250000
O O10 0.719724 0.000000 0.000000
O O11 0.425955 0.267526 0.340971
#
# Coordination Sequence:
#
# PCOD8263654 Si02
#       4
#    16  16  16  16
#     4  10  21  37  57  83 113 145 185 229 273 327
#     4  10  21  36  54  78 106 137 176 219 263 317
#     4  10  21  36  53  76 105 136 174 219 265 317
#     4  10  21  37  56  81 112 144 182 226 272 326
#
# _framework density 19.309871000000001
#
# number of rings (size 3 to 8) (size 9 to 14) (size 15 to 20)
#    0.000    2.000    0.000    3.000    0.000    5.000 
#    0.000    3.750    0.000    0.000    0.000    0.000 
#    0.000    0.000    0.000    0.000    0.000    0.000 
#
# Total GULP energy -396808.122759 kJ/mol
# GULP energy per Si atom -12400.253836 kJ/mol
# Density = 1.926592 g / cm^3
# Si number density = 19.309871 Si / 1000 Ang^3
#
#
#
# Elastic Constant Matrix: (Units=GPa)
#
#
# Indices 1 2 3 4 5 6 
#
# 1 93.2352 71.7012 42.3449 0.0000 0.0000 0.0000
# 2 71.7012 93.2782 32.0618 0.0000 0.0000 0.0000
# 3 42.3449 32.0618 128.3449 0.0000 0.0000 0.0000
# 4 0.0000 0.0000 0.0000 -8.3810 0.0000 0.0000
# 5 0.0000 0.0000 0.0000 0.0000 27.1716 0.0000
# 6 0.0000 0.0000 0.0000 0.0000 0.0000 26.5588
#
#
#
# Elastic Compliance Matrix: (Units=1/GPa)
#
#
# Indices 1 2 3 4 5 6 
#
# 1 0.028209 -0.020221 -0.004256 0.000000 0.000000 0.000000
# 2 -0.020221 0.026223 0.000121 0.000000 0.000000 0.000000
# 3 -0.004256 0.000121 0.009165 0.000000 0.000000 0.000000
# 4 0.000000 0.000000 0.000000 -0.119317 0.000000 0.000000
# 5 0.000000 0.000000 0.000000 0.000000 0.036803 0.000000
# 6 0.000000 0.000000 0.000000 0.000000 0.000000 0.037652
#
#
# Mechanical properties :
#
#
# Convention : Reuss Voigt Hill
#
# Bulk Modulus (GPa) = 67.17956 67.45268 67.31612
# Shear Modulus (GPa) = 69.05277 20.31990 44.68633
#
# Velocity S-wave (km/s) = 5.98648 3.24745 4.81580
# Velocity P-wave (km/s) = 9.09119 7.00491 8.11537
#
# Compressibility (1/GPa) = 0.01488548
#
# Stress axis : x y z
#
# Youngs Moduli (GPa) = 35.44965 38.13512 109.10637
#
# Poissons Ratio (x) = 0.77113 0.46432
# Poissons Ratio (y) = 0.71683 -0.01319
# Poissons Ratio (z) = 0.15086 -0.00461
#
# Static dielectric constant tensor:
#      x y z
#    x 3.389080 0.000000 0.000000 
#    y 0.000000 3.222410 0.000000 
#    z 0.000000 0.000000 3.892420 
# 
# 
# High freq. dielectric constant tensor:
#      x y z
#    x 1.746990 0.000000 0.000000 
#    y 0.000000 1.742510 0.000000 
#    z 0.000000 0.000000 1.777140 
# 
# From -- ./inp_files/3152.got.cif
#   From: 2010.03.12/outbox.cif.g09.slc.cpg/sg64_2_cif.got.tgz:3152.got - 2010.04.10 20:19:32.
