data_PCOD8263722
_publ_section_title
;
Structure prediction by ZEFSAII (Michael W. Deem and Ramdas Pophale) SiO2 
 PCOD8263722
Probable space group: C M C A
;
_chemical_formula_sum "Si O2"
_cell_formula_units_Z 104
_cell_length_a 14.545946
_cell_length_b 18.749058
_cell_length_c 20.771567
_cell_angle_alpha 90.000000
_cell_angle_beta 90.000000
_cell_angle_gamma 90.000000
_cell_volume 5664.879606
_symmetry_space_group_name_H-M "C M C A"
_symmetry_group_IT_number 64
_symmetry_cell_setting 'orthorhombic'
loop_
_space_group_symop_operation_xyz
x,y,z
-x,1/2-y,1/2+z
x,-y,-z
-x,1/2+y,1/2-z
-x,-y,-z
x,1/2+y,1/2-z
-x,y,z
x,1/2-y,1/2+z
1/2+x,1/2+y,z
1/2-x,-y,1/2+z
1/2+x,1/2-y,-z
1/2-x,y,1/2-z
1/2-x,1/2-y,-z
1/2+x,y,1/2-z
1/2-x,1/2+y,z
1/2+x,-y,1/2+z
loop_
_atom_site_type_symbol
_atom_site_label
_atom_site_fract_x
_atom_site_fract_y
_atom_site_fract_z
Si Si1 0.216907 0.112875 0.357813
Si Si2 0.397218 0.769893 0.788856
Si Si3 0.896729 0.418146 0.983569
Si Si4 0.892308 0.340184 0.107585
Si Si5 0.607986 0.885524 0.246973
Si Si6 0.102080 0.684750 0.358127
Si Si7 0.250000 0.999182 0.750000
O O1 0.176165 0.187212 0.330975
O O2 0.164370 0.091670 0.421332
O O3 0.324001 0.124332 0.375299
O O4 0.208392 0.049540 0.306499
O O5 0.500000 0.780440 0.817339
O O6 0.371740 0.685920 0.788422
O O7 0.395059 0.799543 0.717197
O O8 0.000000 0.389480 0.969802
O O9 0.900472 0.500000 0.000000
O O10 0.850135 0.376896 0.043967
O O11 0.854606 0.374022 0.173953
O O12 0.871960 0.256214 0.103135
O O13 0.000000 0.355031 0.108975
O O14 0.500000 0.903959 0.249231
O O15 0.666199 0.951329 0.275823
O O16 0.000000 0.657858 0.377663
#
# Coordination Sequence:
#
# PCOD8263722 Si02
#       7
#    16  16  16  16  16  16   8
#     4  12  22  34  53  87 113 147 190 231 279 330
#     4   9  18  35  56  79 109 146 183 231 282 326
#     4  10  21  37  56  80 113 142 179 238 290 335
#     4   8  16  34  57  77  98 140 187 224 277 326
#     4   9  20  36  56  80 111 148 184 229 280 334
#     4   9  18  33  54  77 108 143 183 226 272 330
#     4  12  24  30  50  82 114 152 180 220 276 348
#
# _framework density 18.358730999999999
#
# number of rings (size 3 to 8) (size 9 to 14) (size 15 to 20)
#    0.000    2.308    1.538    3.231    4.308    3.692 
#    0.000    0.000    0.000    0.462    0.000    0.000 
#    0.000    0.000    0.000    0.000    0.000    0.000 
#
# Total GULP energy -644646.538366 kJ/mol
# GULP energy per Si atom -12397.048815 kJ/mol
# Density = 1.831695 g / cm^3
# Si number density = 18.358731 Si / 1000 Ang^3
#
#
#
# Elastic Constant Matrix: (Units=GPa)
#
#
# Indices 1 2 3 4 5 6 
#
# 1 93.6343 48.1564 22.9564 0.0000 0.0000 0.0000
# 2 48.1564 84.2697 30.4799 0.0000 0.0000 0.0000
# 3 22.9564 30.4799 66.6747 0.0000 0.0000 0.0000
# 4 0.0000 0.0000 0.0000 23.1580 0.0000 0.0000
# 5 0.0000 0.0000 0.0000 0.0000 25.1321 0.0000
# 6 0.0000 0.0000 0.0000 0.0000 0.0000 38.8040
#
#
#
# Elastic Compliance Matrix: (Units=1/GPa)
#
#
# Indices 1 2 3 4 5 6 
#
# 1 0.015252 -0.008167 -0.001518 0.000000 0.000000 0.000000
# 2 -0.008167 0.018591 -0.005687 0.000000 0.000000 0.000000
# 3 -0.001518 -0.005687 0.018120 0.000000 0.000000 0.000000
# 4 0.000000 0.000000 0.000000 0.043182 0.000000 0.000000
# 5 0.000000 0.000000 0.000000 0.000000 0.039790 0.000000
# 6 0.000000 0.000000 0.000000 0.000000 0.000000 0.025771
#
#
# Mechanical properties :
#
#
# Convention : Reuss Voigt Hill
#
# Bulk Modulus (GPa) = 47.12498 49.75158 48.43828
# Shear Modulus (GPa) = 25.18616 26.95121 26.06869
#
# Velocity S-wave (km/s) = 3.70792 3.83565 3.77233
# Velocity P-wave (km/s) = 6.63749 6.83921 6.73910
#
# Compressibility (1/GPa) = 0.02122017
#
# Stress axis : x y z
#
# Youngs Moduli (GPa) = 65.56381 53.79076 55.18636
#
# Poissons Ratio (x) = 0.43931 0.08377
# Poissons Ratio (y) = 0.53546 0.31382
# Poissons Ratio (z) = 0.09952 0.30589
#
# Static dielectric constant tensor:
#      x y z
#    x 3.589470 0.000000 0.000000 
#    y 0.000000 3.439810 0.000000 
#    z 0.000000 0.000000 3.264670 
# 
# 
# High freq. dielectric constant tensor:
#      x y z
#    x 1.709610 0.000000 0.000000 
#    y 0.000000 1.710010 0.000000 
#    z 0.000000 0.000000 1.680470 
# 
# From -- ./inp_files/39466.got.cif
#   From: 2010.03.12/outbox.cif.g09.slc.cpg/sg64_20_cif.got.tgz:39466.got - 2010.04.10 20:19:32.
