data_PCOD8263214
_publ_section_title
;
Structure prediction by ZEFSAII (Michael W. Deem and Ramdas Pophale) SiO2 
 PCOD8263214
Probable space group: C M C A
;
_chemical_formula_sum "Si O2"
_cell_formula_units_Z 88
_cell_length_a 16.213784
_cell_length_b 16.528911
_cell_length_c 15.845112
_cell_angle_alpha 90.000000
_cell_angle_beta 90.000000
_cell_angle_gamma 90.000000
_cell_volume 4246.429689
_symmetry_space_group_name_H-M "C M C A"
_symmetry_group_IT_number 64
_symmetry_cell_setting 'orthorhombic'
loop_
_space_group_symop_operation_xyz
x,y,z
-x,1/2-y,1/2+z
x,-y,-z
-x,1/2+y,1/2-z
-x,-y,-z
x,1/2+y,1/2-z
-x,y,z
x,1/2-y,1/2+z
1/2+x,1/2+y,z
1/2-x,-y,1/2+z
1/2+x,1/2-y,-z
1/2-x,y,1/2-z
1/2-x,1/2-y,-z
1/2+x,y,1/2-z
1/2-x,1/2+y,z
1/2+x,-y,1/2+z
loop_
_atom_site_type_symbol
_atom_site_label
_atom_site_fract_x
_atom_site_fract_y
_atom_site_fract_z
Si Si1 0.908517 0.693149 0.949371
Si Si2 0.407316 0.950585 0.772391
Si Si3 0.907218 0.866292 0.263737
Si Si4 0.250000 0.234623 0.750000
Si Si5 0.337421 0.154539 0.374332
Si Si6 0.690180 0.423556 0.558605
O O1 0.898846 0.641236 0.864305
O O2 0.893530 0.788580 0.933072
O O3 0.000000 0.683535 0.986284
O O4 0.846589 0.657625 0.018096
O O5 0.500000 0.938458 0.806159
O O6 0.392683 0.888731 0.696025
O O7 0.345270 0.935868 0.848321
O O8 0.395205 0.040960 0.736775
O O9 0.831610 0.816546 0.222604
O O10 0.000000 0.835808 0.236184
O O11 0.268487 0.288864 0.831056
O O12 0.288620 0.089316 0.431357
O O13 0.671069 0.500000 0.500000
#
# Coordination Sequence:
#
# PCOD8263214 Si02
#       6
#    16  16  16   8  16  16
#     4  10  21  39  60  85 123 160 199 251 311 366
#     4  11  22  39  63  90 122 159 209 258 303 369
#     4   9  20  35  58  88 119 158 200 248 303 358
#     4  10  20  36  60  82 126 156 196 254 302 368
#     4  11  23  40  59  91 120 162 205 250 314 369
#     4  12  23  38  62  91 123 159 204 254 308 373
#
# _framework density 20.723292000000001
#
# number of rings (size 3 to 8) (size 9 to 14) (size 15 to 20)
#    0.000    1.455    3.636    1.636    2.545    1.455 
#    0.000    0.000    0.000    4.364    0.000    0.000 
#    0.000    0.000    0.000    0.000    0.000    0.000 
#
# Total GULP energy -545577.187645 kJ/mol
# GULP energy per Si atom -12399.481537 kJ/mol
# Density = 2.067612 g / cm^3
# Si number density = 20.723292 Si / 1000 Ang^3
#
#
#
# Elastic Constant Matrix: (Units=GPa)
#
#
# Indices 1 2 3 4 5 6 
#
# 1 88.0209 35.0261 9.4309 0.0000 0.0000 0.0000
# 2 35.0261 86.1727 12.3378 0.0000 0.0000 0.0000
# 3 9.4309 12.3378 31.1411 0.0000 0.0000 0.0000
# 4 0.0000 0.0000 0.0000 29.7006 0.0000 0.0000
# 5 0.0000 0.0000 0.0000 0.0000 23.5658 0.0000
# 6 0.0000 0.0000 0.0000 0.0000 0.0000 34.3375
#
#
#
# Elastic Compliance Matrix: (Units=1/GPa)
#
#
# Indices 1 2 3 4 5 6 
#
# 1 0.013676 -0.005264 -0.002056 0.000000 0.000000 0.000000
# 2 -0.005264 0.014329 -0.004083 0.000000 0.000000 0.000000
# 3 -0.002056 -0.004083 0.034352 0.000000 0.000000 0.000000
# 4 0.000000 0.000000 0.000000 0.033669 0.000000 0.000000
# 5 0.000000 0.000000 0.000000 0.000000 0.042434 0.000000
# 6 0.000000 0.000000 0.000000 0.000000 0.000000 0.029123
#
#
# Mechanical properties :
#
#
# Convention : Reuss Voigt Hill
#
# Bulk Modulus (GPa) = 25.28389 35.43602 30.35996
# Shear Modulus (GPa) = 24.56115 27.42344 25.99229
#
# Velocity S-wave (km/s) = 3.44640 3.64169 3.54539
# Velocity P-wave (km/s) = 5.29756 5.90078 5.60729
#
# Compressibility (1/GPa) = 0.03955087
#
# Stress axis : x y z
#
# Youngs Moduli (GPa) = 73.12017 69.78869 29.11029
#
# Poissons Ratio (x) = 0.36740 0.05985
# Poissons Ratio (y) = 0.38494 0.11885
# Poissons Ratio (z) = 0.15033 0.28493
#
# Static dielectric constant tensor:
#      x y z
#    x 3.904920 0.000000 0.000000 
#    y 0.000000 3.856550 0.000000 
#    z 0.000000 0.000000 3.347540 
# 
# 
# High freq. dielectric constant tensor:
#      x y z
#    x 1.820860 0.000000 0.000000 
#    y 0.000000 1.818000 0.000000 
#    z 0.000000 0.000000 1.777320 
# 
# From -- ./inp_files/32147.got.cif
#   From: 2010.03.12/outbox.cif.g09.slc.cpg/sg64_17_cif.got.tgz:32147.got - 2010.04.10 20:19:32.
