data_PCOD8263763
_publ_section_title
;
Structure prediction by ZEFSAII (Michael W. Deem and Ramdas Pophale) SiO2 
 PCOD8263763
Probable space group: C M C A
;
_chemical_formula_sum "Si O2"
_cell_formula_units_Z 56
_cell_length_a 13.678745
_cell_length_b 17.650903
_cell_length_c 11.172141
_cell_angle_alpha 90.000000
_cell_angle_beta 90.000000
_cell_angle_gamma 90.000000
_cell_volume 2697.426315
_symmetry_space_group_name_H-M "C M C A"
_symmetry_group_IT_number 64
_symmetry_cell_setting 'orthorhombic'
loop_
_space_group_symop_operation_xyz
x,y,z
-x,1/2-y,1/2+z
x,-y,-z
-x,1/2+y,1/2-z
-x,-y,-z
x,1/2+y,1/2-z
-x,y,z
x,1/2-y,1/2+z
1/2+x,1/2+y,z
1/2-x,-y,1/2+z
1/2+x,1/2-y,-z
1/2-x,y,1/2-z
1/2-x,1/2-y,-z
1/2+x,y,1/2-z
1/2-x,1/2+y,z
1/2+x,-y,1/2+z
loop_
_atom_site_type_symbol
_atom_site_label
_atom_site_fract_x
_atom_site_fract_y
_atom_site_fract_z
Si Si1 0.888459 0.373889 0.661377
Si Si2 0.719846 0.125347 0.587709
Si Si3 0.110266 0.202281 0.701301
Si Si4 0.250000 0.510359 0.250000
O O1 0.821735 0.377015 0.543976
O O2 0.880147 0.292021 0.722338
O O3 0.846348 0.436107 0.753497
O O4 0.000000 0.394082 0.628786
O O5 0.818190 0.176453 0.593626
O O6 0.638632 0.160559 0.676128
O O7 0.747641 0.040835 0.630823
O O8 0.000000 0.180333 0.665416
#
# Coordination Sequence:
#
# PCOD8263763 Si02
#       4
#    16  16  16   8
#     4  11  22  38  61  84 113 154 193 232 285 344
#     4  10  21  37  59  82 117 153 188 236 284 340
#     4   9  19  35  57  85 113 146 192 241 282 329
#     4  10  22  36  54  84 112 144 192 236 272 332
#
# _framework density 20.760529999999999
#
# number of rings (size 3 to 8) (size 9 to 14) (size 15 to 20)
#    0.000    2.286    0.000    4.286    0.000    6.857 
#    0.000    4.286    0.000    8.571    0.000    0.000 
#    0.000    0.000    0.000    0.000    0.000    0.000 
#
# Total GULP energy -347176.505232 kJ/mol
# GULP energy per Si atom -12399.160901 kJ/mol
# Density = 2.071328 g / cm^3
# Si number density = 20.760530 Si / 1000 Ang^3
#
#
#
# Elastic Constant Matrix: (Units=GPa)
#
#
# Indices 1 2 3 4 5 6 
#
# 1 164.7461 67.5414 30.0965 0.0000 0.0000 0.0000
# 2 67.5414 134.0054 28.5184 0.0000 0.0000 0.0000
# 3 30.0965 28.5184 67.2672 0.0000 0.0000 0.0000
# 4 0.0000 0.0000 0.0000 17.1819 0.0000 0.0000
# 5 0.0000 0.0000 0.0000 0.0000 22.9439 0.0000
# 6 0.0000 0.0000 0.0000 0.0000 0.0000 18.7633
#
#
#
# Elastic Compliance Matrix: (Units=1/GPa)
#
#
# Indices 1 2 3 4 5 6 
#
# 1 0.007895 -0.003548 -0.002028 0.000000 0.000000 0.000000
# 2 -0.003548 0.009797 -0.002566 0.000000 0.000000 0.000000
# 3 -0.002028 -0.002566 0.016861 0.000000 0.000000 0.000000
# 4 0.000000 0.000000 0.000000 0.058201 0.000000 0.000000
# 5 0.000000 0.000000 0.000000 0.000000 0.043584 0.000000
# 6 0.000000 0.000000 0.000000 0.000000 0.000000 0.053296
#
#
# Mechanical properties :
#
#
# Convention : Reuss Voigt Hill
#
# Bulk Modulus (GPa) = 54.73733 68.70348 61.72040
# Shear Modulus (GPa) = 23.58409 27.76864 25.67637
#
# Velocity S-wave (km/s) = 3.37413 3.66125 3.52061
# Velocity P-wave (km/s) = 6.45003 7.14410 6.80592
#
# Compressibility (1/GPa) = 0.01826907
#
# Stress axis : x y z
#
# Youngs Moduli (GPa) = 126.66453 102.07724 59.30671
#
# Poissons Ratio (x) = 0.36212 0.12029
# Poissons Ratio (y) = 0.44934 0.15219
# Poissons Ratio (z) = 0.25692 0.26194
#
# Static dielectric constant tensor:
#      x y z
#    x 3.960100 0.000000 0.000000 
#    y 0.000000 4.068580 0.000000 
#    z 0.000000 0.000000 3.360200 
# 
# 
# High freq. dielectric constant tensor:
#      x y z
#    x 1.819360 0.000000 0.000000 
#    y 0.000000 1.832780 0.000000 
#    z 0.000000 0.000000 1.782370 
# 
# From -- ./inp_files/23160.got.cif
#   From: 2010.03.12/outbox.cif.g09.slc.cpg/sg64_12_cif.got.tgz:23160.got - 2010.04.10 20:19:32.
