data_PCOD8263814
_publ_section_title
;
Structure prediction by ZEFSAII (Michael W. Deem and Ramdas Pophale) SiO2 
 PCOD8263814
Probable space group: C M C A
;
_chemical_formula_sum "Si O2"
_cell_formula_units_Z 72
_cell_length_a 31.660996
_cell_length_b 24.858808
_cell_length_c 5.083524
_cell_angle_alpha 90.000000
_cell_angle_beta 90.000000
_cell_angle_gamma 90.000000
_cell_volume 4001.011053
_symmetry_space_group_name_H-M "C M C A"
_symmetry_group_IT_number 64
_symmetry_cell_setting 'orthorhombic'
loop_
_space_group_symop_operation_xyz
x,y,z
-x,1/2-y,1/2+z
x,-y,-z
-x,1/2+y,1/2-z
-x,-y,-z
x,1/2+y,1/2-z
-x,y,z
x,1/2-y,1/2+z
1/2+x,1/2+y,z
1/2-x,-y,1/2+z
1/2+x,1/2-y,-z
1/2-x,y,1/2-z
1/2-x,1/2-y,-z
1/2+x,y,1/2-z
1/2-x,1/2+y,z
1/2+x,-y,1/2+z
loop_
_atom_site_type_symbol
_atom_site_label
_atom_site_fract_x
_atom_site_fract_y
_atom_site_fract_z
Si Si1 0.871179 0.061740 0.929357
Si Si2 0.083088 0.601083 0.093047
Si Si3 0.500000 0.537822 0.258715
Si Si4 0.950752 0.215961 0.458934
Si Si5 0.726712 0.436756 0.005737
O O1 0.893949 0.070474 0.647939
O O2 0.821994 0.075523 0.938972
O O3 0.887367 0.101867 0.153195
O O4 0.880590 0.000000 0.000000
O O5 0.040996 0.574543 0.212717
O O6 0.074768 0.661315 0.995977
O O7 0.500000 0.500000 0.500000
O O8 0.500000 0.500000 0.000000
O O9 0.938063 0.258367 0.681856
O O10 0.000000 0.201802 0.475090
O O11 0.750000 0.409526 0.250000
O O12 0.734531 0.500000 0.000000
O O13 0.750000 0.411430 0.750000
#
# Coordination Sequence:
#
# PCOD8263814 Si02
#       5
#    16  16   8  16  16
#     4  11  22  34  53  79 115 148 178 219 263 319
#     4  12  22  37  53  78 108 144 187 224 270 320
#     4  12  24  36  50  72 108 154 188 212 247 318
#     4  10  21  38  58  76  98 133 183 239 288 316
#     4   9  17  31  50  73 103 142 179 213 259 314
#
# _framework density 17.995450999999999
#
# number of rings (size 3 to 8) (size 9 to 14) (size 15 to 20)
#    0.000    1.333    1.111    6.667    0.000    3.556 
#    0.000    0.000    0.000    0.000    0.000    0.000 
#    0.000   62.222    0.000    0.000    0.000    0.000 
#
# Total GULP energy -446148.055277 kJ/mol
# GULP energy per Si atom -12393.001535 kJ/mol
# Density = 1.795449 g / cm^3
# Si number density = 17.995451 Si / 1000 Ang^3
#
#
#
# Elastic Constant Matrix: (Units=GPa)
#
#
# Indices 1 2 3 4 5 6 
#
# 1 108.2149 36.0857 68.2249 0.0000 0.0000 0.0000
# 2 36.0857 67.0013 21.6247 0.0000 0.0000 0.0000
# 3 68.2249 21.6247 146.8411 0.0000 0.0000 0.0000
# 4 0.0000 0.0000 0.0000 17.5137 0.0000 0.0000
# 5 0.0000 0.0000 0.0000 0.0000 29.3775 0.0000
# 6 0.0000 0.0000 0.0000 0.0000 0.0000 7.4169
#
#
#
# Elastic Compliance Matrix: (Units=1/GPa)
#
#
# Indices 1 2 3 4 5 6 
#
# 1 0.015176 -0.006192 -0.006139 0.000000 0.000000 0.000000
# 2 -0.006192 0.018196 0.000197 0.000000 0.000000 0.000000
# 3 -0.006139 0.000197 0.009633 0.000000 0.000000 0.000000
# 4 0.000000 0.000000 0.000000 0.057098 0.000000 0.000000
# 5 0.000000 0.000000 0.000000 0.000000 0.034040 0.000000
# 6 0.000000 0.000000 0.000000 0.000000 0.000000 0.134827
#
#
# Mechanical properties :
#
#
# Convention : Reuss Voigt Hill
#
# Bulk Modulus (GPa) = 53.36814 63.76976 58.56895
# Shear Modulus (GPa) = 16.69529 23.93642 20.31585
#
# Velocity S-wave (km/s) = 3.04920 3.65106 3.36362
# Velocity P-wave (km/s) = 6.48982 7.29981 6.90670
#
# Compressibility (1/GPa) = 0.01873777
#
# Stress axis : x y z
#
# Youngs Moduli (GPa) = 65.89221 54.95588 103.80520
#
# Poissons Ratio (x) = 0.34030 0.63729
# Poissons Ratio (y) = 0.40802 -0.02048
# Poissons Ratio (z) = 0.40453 -0.01084
#
# Static dielectric constant tensor:
#      x y z
#    x 3.374550 0.000000 0.000000 
#    y 0.000000 3.005830 0.000000 
#    z 0.000000 0.000000 3.660700 
# 
# 
# High freq. dielectric constant tensor:
#      x y z
#    x 1.698170 0.000000 0.000000 
#    y 0.000000 1.656750 0.000000 
#    z 0.000000 0.000000 1.723380 
# 
# From -- ./inp_files/2833.got.cif
#   From: 2010.03.12/outbox.cif.g09.slc.cpg/sg64_2_cif.got.tgz:2833.got - 2010.04.10 20:19:32.
