data_PCOD8263668
_publ_section_title
;
Structure prediction by ZEFSAII (Michael W. Deem and Ramdas Pophale) SiO2 
 PCOD8263668
Probable space group: C M C A
;
_chemical_formula_sum "Si O2"
_cell_formula_units_Z 96
_cell_length_a 21.971634
_cell_length_b 8.881072
_cell_length_c 24.434889
_cell_angle_alpha 90.000000
_cell_angle_beta 90.000000
_cell_angle_gamma 90.000000
_cell_volume 4768.020538
_symmetry_space_group_name_H-M "C M C A"
_symmetry_group_IT_number 64
_symmetry_cell_setting 'orthorhombic'
loop_
_space_group_symop_operation_xyz
x,y,z
-x,1/2-y,1/2+z
x,-y,-z
-x,1/2+y,1/2-z
-x,-y,-z
x,1/2+y,1/2-z
-x,y,z
x,1/2-y,1/2+z
1/2+x,1/2+y,z
1/2-x,-y,1/2+z
1/2+x,1/2-y,-z
1/2-x,y,1/2-z
1/2-x,1/2-y,-z
1/2+x,y,1/2-z
1/2-x,1/2+y,z
1/2+x,-y,1/2+z
loop_
_atom_site_type_symbol
_atom_site_label
_atom_site_fract_x
_atom_site_fract_y
_atom_site_fract_z
Si Si1 0.165864 0.188825 0.153538
Si Si2 0.427949 0.339796 0.624359
Si Si3 0.070848 0.343496 0.477748
Si Si4 0.069744 0.170012 0.583247
Si Si5 0.752635 0.437632 0.323141
Si Si6 0.665414 0.813486 0.778908
O O1 0.106309 0.204158 0.117082
O O2 0.203527 0.038237 0.138022
O O3 0.210205 0.330121 0.140406
O O4 0.143105 0.182865 0.216457
O O5 0.500000 0.328403 0.635798
O O6 0.404631 0.212215 0.581437
O O7 0.410736 0.501117 0.598296
O O8 0.392656 0.316970 0.681103
O O9 0.101224 0.500000 0.500000
O O10 0.081916 0.204882 0.519506
O O11 0.000000 0.374355 0.470096
O O12 0.000000 0.197730 0.598533
O O13 0.710138 0.546799 0.287456
O O14 0.795967 0.338678 0.284235
#
# Coordination Sequence:
#
# PCOD8263668 Si02
#       6
#    16  16  16  16  16  16
#     4  11  20  35  58  84 114 147 186 230 274 326
#     4  10  21  37  58  84 114 148 183 226 283 337
#     4   9  19  37  59  82 107 142 190 232 271 331
#     4  10  21  37  58  84 114 148 183 226 283 337
#     4  10  21  36  56  81 110 151 196 228 263 322
#     4  11  20  35  58  84 114 147 186 230 274 326
#
# _framework density 20.134143000000002
#
# number of rings (size 3 to 8) (size 9 to 14) (size 15 to 20)
#    0.000    1.833    1.667    4.500    2.333    2.667 
#    0.000    0.000    0.000    6.000    0.000    0.000 
#    0.000    0.000    0.000    0.000    0.000    0.000 
#
# Total GULP energy -594949.627154 kJ/mol
# GULP energy per Si atom -12394.783899 kJ/mol
# Density = 2.008832 g / cm^3
# Si number density = 20.134143 Si / 1000 Ang^3
#
#
#
# Elastic Constant Matrix: (Units=GPa)
#
#
# Indices 1 2 3 4 5 6 
#
# 1 63.5206 27.5099 38.0788 0.0000 0.0000 0.0000
# 2 27.5099 104.5298 17.8608 0.0000 0.0000 0.0000
# 3 38.0788 17.8608 66.7459 0.0000 0.0000 0.0000
# 4 0.0000 0.0000 0.0000 19.9203 0.0000 0.0000
# 5 0.0000 0.0000 0.0000 0.0000 16.0846 0.0000
# 6 0.0000 0.0000 0.0000 0.0000 0.0000 49.2694
#
#
#
# Elastic Compliance Matrix: (Units=1/GPa)
#
#
# Indices 1 2 3 4 5 6 
#
# 1 0.025780 -0.004476 -0.013510 0.000000 0.000000 0.000000
# 2 -0.004476 0.010802 -0.000337 0.000000 0.000000 0.000000
# 3 -0.013510 -0.000337 0.022780 0.000000 0.000000 0.000000
# 4 0.000000 0.000000 0.000000 0.050200 0.000000 0.000000
# 5 0.000000 0.000000 0.000000 0.000000 0.062171 0.000000
# 6 0.000000 0.000000 0.000000 0.000000 0.000000 0.020297
#
#
# Mechanical properties :
#
#
# Convention : Reuss Voigt Hill
#
# Bulk Modulus (GPa) = 44.02156 44.63280 44.32718
# Shear Modulus (GPa) = 21.16413 27.14465 24.15439
#
# Velocity S-wave (km/s) = 3.24567 3.67575 3.46739
# Velocity P-wave (km/s) = 5.99645 6.34277 6.17204
#
# Compressibility (1/GPa) = 0.02271614
#
# Stress axis : x y z
#
# Youngs Moduli (GPa) = 38.78907 92.57299 43.89848
#
# Poissons Ratio (x) = 0.41439 0.59307
# Poissons Ratio (y) = 0.17364 0.01479
# Poissons Ratio (z) = 0.52404 0.03118
#
# Static dielectric constant tensor:
#      x y z
#    x 3.539020 0.000000 0.000000 
#    y 0.000000 4.102540 0.000000 
#    z 0.000000 0.000000 3.398540 
# 
# 
# High freq. dielectric constant tensor:
#      x y z
#    x 1.762460 0.000000 0.000000 
#    y 0.000000 1.810330 0.000000 
#    z 0.000000 0.000000 1.762890 
# 
# From -- ./inp_files/46583.got.cif
#   From: 2010.03.12/outbox.cif.g09.slc.cpg/sg64_24_cif.got.tgz:46583.got - 2010.04.10 20:19:32.
