data_PCOD8263212
_publ_section_title
;
Structure prediction by ZEFSAII (Michael W. Deem and Ramdas Pophale) SiO2 
 PCOD8263212
Probable space group: C M C A
;
_chemical_formula_sum "Si O2"
_cell_formula_units_Z 88
_cell_length_a 14.053279
_cell_length_b 25.491023
_cell_length_c 12.149130
_cell_angle_alpha 90.000000
_cell_angle_beta 90.000000
_cell_angle_gamma 90.000000
_cell_volume 4352.212705
_symmetry_space_group_name_H-M "C M C A"
_symmetry_group_IT_number 64
_symmetry_cell_setting 'orthorhombic'
loop_
_space_group_symop_operation_xyz
x,y,z
-x,1/2-y,1/2+z
x,-y,-z
-x,1/2+y,1/2-z
-x,-y,-z
x,1/2+y,1/2-z
-x,y,z
x,1/2-y,1/2+z
1/2+x,1/2+y,z
1/2-x,-y,1/2+z
1/2+x,1/2-y,-z
1/2-x,y,1/2-z
1/2-x,1/2-y,-z
1/2+x,y,1/2-z
1/2-x,1/2+y,z
1/2+x,-y,1/2+z
loop_
_atom_site_type_symbol
_atom_site_label
_atom_site_fract_x
_atom_site_fract_y
_atom_site_fract_z
Si Si1 0.892329 0.657258 0.087228
Si Si2 0.106001 0.402744 0.225166
Si Si3 0.601166 0.439858 0.030137
Si Si4 0.750000 0.212084 0.250000
Si Si5 0.806593 0.061435 0.511653
Si Si6 0.607869 0.707979 0.648833
O O1 0.818181 0.675894 0.177745
O O2 0.000000 0.665402 0.130001
O O3 0.877304 0.595128 0.064039
O O4 0.874321 0.688681 0.975081
O O5 0.113926 0.432361 0.339829
O O6 0.181381 0.427183 0.141128
O O7 0.125171 0.340029 0.234687
O O8 0.000000 0.409905 0.174647
O O9 0.500000 0.412265 0.993020
O O10 0.699087 0.419973 0.975217
O O11 0.591435 0.500000 0.000000
O O12 0.683188 0.246763 0.327946
O O13 0.825182 0.000000 0.500000
O O14 0.500000 0.729525 0.662066
#
# Coordination Sequence:
#
# PCOD8263212 Si02
#       6
#    16  16  16   8  16  16
#     4  10  23  42  60  88 122 148 197 252 290 356
#     4   9  18  33  56  84 113 149 200 247 286 341
#     4   9  18  33  52  82 120 154 191 244 293 337
#     4  12  22  38  64  86 118 158 188 238 318 358
#     4  10  20  36  60  82 112 155 198 235 287 352
#     4   9  20  37  60  88 116 155 204 248 288 350
#
# _framework density 20.219601000000001
#
# number of rings (size 3 to 8) (size 9 to 14) (size 15 to 20)
#    0.000    2.364    0.000    3.273    5.091    1.455 
#    6.545    1.818    0.000    0.000    0.000    0.000 
#    0.000    0.000    0.000    0.000    0.000    0.000 
#
# Total GULP energy -545145.631242 kJ/mol
# GULP energy per Si atom -12389.673437 kJ/mol
# Density = 2.017358 g / cm^3
# Si number density = 20.219601 Si / 1000 Ang^3
#
#
#
# Elastic Constant Matrix: (Units=GPa)
#
#
# Indices 1 2 3 4 5 6 
#
# 1 132.0767 57.7791 41.9109 0.0000 0.0000 0.0000
# 2 57.7791 100.7970 49.4915 0.0000 0.0000 0.0000
# 3 41.9109 49.4915 72.5466 0.0000 0.0000 0.0000
# 4 0.0000 0.0000 0.0000 28.3130 0.0000 0.0000
# 5 0.0000 0.0000 0.0000 0.0000 31.3816 0.0000
# 6 0.0000 0.0000 0.0000 0.0000 0.0000 30.2358
#
#
#
# Elastic Compliance Matrix: (Units=1/GPa)
#
#
# Indices 1 2 3 4 5 6 
#
# 1 0.010509 -0.004576 -0.002950 0.000000 0.000000 0.000000
# 2 -0.004576 0.016910 -0.008893 0.000000 0.000000 0.000000
# 3 -0.002950 -0.008893 0.021555 0.000000 0.000000 0.000000
# 4 0.000000 0.000000 0.000000 0.035320 0.000000 0.000000
# 5 0.000000 0.000000 0.000000 0.000000 0.031866 0.000000
# 6 0.000000 0.000000 0.000000 0.000000 0.000000 0.033073
#
#
# Mechanical properties :
#
#
# Convention : Reuss Voigt Hill
#
# Bulk Modulus (GPa) = 61.96554 67.08703 64.52629
# Shear Modulus (GPa) = 26.67402 28.40201 27.53801
#
# Velocity S-wave (km/s) = 3.63604 3.75197 3.69446
# Velocity P-wave (km/s) = 6.95274 7.21255 7.08384
#
# Compressibility (1/GPa) = 0.01613800
#
# Stress axis : x y z
#
# Youngs Moduli (GPa) = 95.15575 59.13587 46.39322
#
# Poissons Ratio (x) = 0.27059 0.13684
# Poissons Ratio (y) = 0.43541 0.41256
# Poissons Ratio (z) = 0.28067 0.52588
#
# Static dielectric constant tensor:
#      x y z
#    x 4.395370 0.000000 0.000000 
#    y 0.000000 3.488710 0.000000 
#    z 0.000000 0.000000 3.364510 
# 
# 
# High freq. dielectric constant tensor:
#      x y z
#    x 1.824210 0.000000 0.000000 
#    y 0.000000 1.769330 0.000000 
#    z 0.000000 0.000000 1.762460 
# 
# From -- ./inp_files/14591.got.cif
#   From: 2010.03.12/outbox.cif.g09.slc.cpg/sg64_8_cif.got.tgz:14591.got - 2010.04.10 20:19:32.
