data_PCOD8263697
_publ_section_title
;
Structure prediction by ZEFSAII (Michael W. Deem and Ramdas Pophale) SiO2 
 PCOD8263697
Probable space group: C M C A
;
_chemical_formula_sum "Si O2"
_cell_formula_units_Z 88
_cell_length_a 9.369226
_cell_length_b 22.714963
_cell_length_c 20.655187
_cell_angle_alpha 90.000000
_cell_angle_beta 90.000000
_cell_angle_gamma 90.000000
_cell_volume 4395.870399
_symmetry_space_group_name_H-M "C M C A"
_symmetry_group_IT_number 64
_symmetry_cell_setting 'orthorhombic'
loop_
_space_group_symop_operation_xyz
x,y,z
-x,1/2-y,1/2+z
x,-y,-z
-x,1/2+y,1/2-z
-x,-y,-z
x,1/2+y,1/2-z
-x,y,z
x,1/2-y,1/2+z
1/2+x,1/2+y,z
1/2-x,-y,1/2+z
1/2+x,1/2-y,-z
1/2-x,y,1/2-z
1/2-x,1/2-y,-z
1/2+x,y,1/2-z
1/2-x,1/2+y,z
1/2+x,-y,1/2+z
loop_
_atom_site_type_symbol
_atom_site_label
_atom_site_fract_x
_atom_site_fract_y
_atom_site_fract_z
Si Si1 0.843149 0.251223 0.860281
Si Si2 0.836356 0.646705 0.900346
Si Si3 0.667500 0.145189 0.047227
Si Si4 0.167341 0.038682 0.688957
Si Si5 0.250000 0.167717 0.250000
Si Si6 0.837926 0.424172 0.649284
O O1 0.738803 0.195820 0.856318
O O2 0.802252 0.291112 0.922023
O O3 0.844963 0.290335 0.795267
O O4 0.000000 0.224845 0.869448
O O5 0.812293 0.582130 0.871301
O O6 0.000000 0.664990 0.899917
O O7 0.778322 0.646309 0.973495
O O8 0.500000 0.127915 0.053192
O O9 0.762964 0.097058 0.083550
O O10 0.250000 0.067160 0.750000
O O11 0.000000 0.028501 0.704791
O O12 0.242060 0.977097 0.674796
O O13 0.153882 0.126911 0.203565
O O14 0.000000 0.444345 0.634525
#
# Coordination Sequence:
#
# PCOD8263697 Si02
#       6
#    16  16  16  16   8  16
#     4  10  21  36  60  89 118 155 199 248 292 350
#     4  10  23  41  60  85 121 163 198 240 298 360
#     4   9  20  40  62  87 121 159 199 242 298 354
#     4  11  24  41  61  86 119 158 199 243 297 354
#     4  10  22  38  58  88 120 156 196 242 306 358
#     4  11  22  38  64  91 118 153 200 251 298 349
#
# _framework density 20.018788000000001
#
# number of rings (size 3 to 8) (size 9 to 14) (size 15 to 20)
#    0.000    1.818    0.909    2.182    1.273    8.000 
#    0.000    3.636    0.000    0.000    0.000    0.000 
#    0.000    0.000    0.000    0.000    0.000    0.000 
#
# Total GULP energy -545623.117830 kJ/mol
# GULP energy per Si atom -12400.525405 kJ/mol
# Density = 1.997322 g / cm^3
# Si number density = 20.018788 Si / 1000 Ang^3
#
#
#
# Elastic Constant Matrix: (Units=GPa)
#
#
# Indices 1 2 3 4 5 6 
#
# 1 109.0978 48.9288 43.0030 0.0000 0.0000 0.0000
# 2 48.9288 87.7657 57.7038 0.0000 0.0000 0.0000
# 3 43.0030 57.7038 108.6028 0.0000 0.0000 0.0000
# 4 0.0000 0.0000 0.0000 22.2907 0.0000 0.0000
# 5 0.0000 0.0000 0.0000 0.0000 25.8175 0.0000
# 6 0.0000 0.0000 0.0000 0.0000 0.0000 29.1244
#
#
#
# Elastic Compliance Matrix: (Units=1/GPa)
#
#
# Indices 1 2 3 4 5 6 
#
# 1 0.012475 -0.005697 -0.001913 0.000000 0.000000 0.000000
# 2 -0.005697 0.020113 -0.008431 0.000000 0.000000 0.000000
# 3 -0.001913 -0.008431 0.014445 0.000000 0.000000 0.000000
# 4 0.000000 0.000000 0.000000 0.044862 0.000000 0.000000
# 5 0.000000 0.000000 0.000000 0.000000 0.038733 0.000000
# 6 0.000000 0.000000 0.000000 0.000000 0.000000 0.034335
#
#
# Mechanical properties :
#
#
# Convention : Reuss Voigt Hill
#
# Bulk Modulus (GPa) = 66.88211 67.19305 67.03758
# Shear Modulus (GPa) = 24.74890 25.83522 25.29206
#
# Velocity S-wave (km/s) = 3.51990 3.59632 3.55831
# Velocity P-wave (km/s) = 7.07119 7.13320 7.10226
#
# Compressibility (1/GPa) = 0.01495168
#
# Stress axis : x y z
#
# Youngs Moduli (GPa) = 80.15940 49.71845 69.22948
#
# Poissons Ratio (x) = 0.28326 0.13241
# Poissons Ratio (y) = 0.45670 0.58366
# Poissons Ratio (z) = 0.15331 0.41917
#
# Static dielectric constant tensor:
#      x y z
#    x 3.572040 0.000000 0.000000 
#    y 0.000000 3.464600 0.000000 
#    z 0.000000 0.000000 3.919060 
# 
# 
# High freq. dielectric constant tensor:
#      x y z
#    x 1.780530 0.000000 0.000000 
#    y 0.000000 1.774980 0.000000 
#    z 0.000000 0.000000 1.787230 
# 
# From -- ./inp_files/36793.got.cif
#   From: 2010.03.12/outbox.cif.g09.slc.cpg/sg64_19_cif.got.tgz:36793.got - 2010.04.10 20:19:32.
