data_PCOD8263416
_publ_section_title
;
Structure prediction by ZEFSAII (Michael W. Deem and Ramdas Pophale) SiO2 
 PCOD8263416
Probable space group: C M C A
;
_chemical_formula_sum "Si O2"
_cell_formula_units_Z 88
_cell_length_a 10.111286
_cell_length_b 14.133272
_cell_length_c 31.447114
_cell_angle_alpha 90.000000
_cell_angle_beta 90.000000
_cell_angle_gamma 90.000000
_cell_volume 4493.967289
_symmetry_space_group_name_H-M "C M C A"
_symmetry_group_IT_number 64
_symmetry_cell_setting 'orthorhombic'
loop_
_space_group_symop_operation_xyz
x,y,z
-x,1/2-y,1/2+z
x,-y,-z
-x,1/2+y,1/2-z
-x,-y,-z
x,1/2+y,1/2-z
-x,y,z
x,1/2-y,1/2+z
1/2+x,1/2+y,z
1/2-x,-y,1/2+z
1/2+x,1/2-y,-z
1/2-x,y,1/2-z
1/2-x,1/2-y,-z
1/2+x,y,1/2-z
1/2-x,1/2+y,z
1/2+x,-y,1/2+z
loop_
_atom_site_type_symbol
_atom_site_label
_atom_site_fract_x
_atom_site_fract_y
_atom_site_fract_z
Si Si1 0.250000 0.731188 0.750000
Si Si2 0.151565 0.668268 0.409864
Si Si3 0.347756 0.379767 0.817662
Si Si4 0.148541 0.591182 0.685899
Si Si5 0.149021 0.622788 0.887804
Si Si6 0.847717 0.540114 0.046356
O O1 0.315600 0.798834 0.715724
O O2 0.147568 0.661113 0.726442
O O3 0.215553 0.638182 0.364102
O O4 0.157038 0.781018 0.414598
O O5 0.247340 0.626517 0.446056
O O6 0.000000 0.632245 0.416225
O O7 0.500000 0.370163 0.826826
O O8 0.309609 0.484230 0.800412
O O9 0.250889 0.628861 0.651334
O O10 0.000000 0.590368 0.666870
O O11 0.188600 0.539345 0.919262
O O12 0.000000 0.609236 0.869719
O O13 0.000000 0.573708 0.050811
O O14 0.820167 0.500000 0.000000
#
# Coordination Sequence:
#
# PCOD8263416 Si02
#       6
#     8  16  16  16  16  16
#     4  12  22  38  58  86 118 156 196 246 292 342
#     4  10  20  38  62  85 117 159 196 236 293 354
#     4  10  21  38  56  82 119 154 193 243 291 344
#     4  11  23  38  60  87 116 153 200 246 288 345
#     4  10  21  39  62  85 118 160 193 236 300 355
#     4  10  22  40  62  91 122 151 193 247 296 351
#
# _framework density 19.581807000000001
#
# number of rings (size 3 to 8) (size 9 to 14) (size 15 to 20)
#    0.000    1.636    3.636    1.091    0.000    2.545 
#    0.000    1.818    0.000    0.000    0.000    0.000 
#    0.000    0.000    0.000    0.000    0.000    0.000 
#
# Total GULP energy -545452.455814 kJ/mol
# GULP energy per Si atom -12396.646723 kJ/mol
# Density = 1.953724 g / cm^3
# Si number density = 19.581807 Si / 1000 Ang^3
#
#
#
# Elastic Constant Matrix: (Units=GPa)
#
#
# Indices 1 2 3 4 5 6 
#
# 1 78.7500 28.1868 27.2415 0.0000 0.0000 0.0000
# 2 28.1868 87.2725 5.6986 0.0000 0.0000 0.0000
# 3 27.2415 5.6986 54.7392 0.0000 0.0000 0.0000
# 4 0.0000 0.0000 0.0000 23.6856 0.0000 0.0000
# 5 0.0000 0.0000 0.0000 0.0000 25.5098 0.0000
# 6 0.0000 0.0000 0.0000 0.0000 0.0000 21.8924
#
#
#
# Elastic Compliance Matrix: (Units=1/GPa)
#
#
# Indices 1 2 3 4 5 6 
#
# 1 0.017307 -0.005062 -0.008086 0.000000 0.000000 0.000000
# 2 -0.005062 0.013017 0.001164 0.000000 0.000000 0.000000
# 3 -0.008086 0.001164 0.022171 0.000000 0.000000 0.000000
# 4 0.000000 0.000000 0.000000 0.042220 0.000000 0.000000
# 5 0.000000 0.000000 0.000000 0.000000 0.039201 0.000000
# 6 0.000000 0.000000 0.000000 0.000000 0.000000 0.045678
#
#
# Mechanical properties :
#
#
# Convention : Reuss Voigt Hill
#
# Bulk Modulus (GPa) = 35.05359 38.11283 36.58321
# Shear Modulus (GPa) = 23.46625 24.85988 24.16307
#
# Velocity S-wave (km/s) = 3.46550 3.56693 3.51658
# Velocity P-wave (km/s) = 5.82691 6.03901 5.93391
#
# Compressibility (1/GPa) = 0.02852775
#
# Stress axis : x y z
#
# Youngs Moduli (GPa) = 57.77875 76.82144 45.10308
#
# Poissons Ratio (x) = 0.38886 0.36471
# Poissons Ratio (y) = 0.29247 -0.05250
# Poissons Ratio (z) = 0.46721 -0.08941
#
# Static dielectric constant tensor:
#      x y z
#    x 3.474360 0.000000 0.000000 
#    y 0.000000 3.805060 0.000000 
#    z 0.000000 0.000000 3.673250 
# 
# 
# High freq. dielectric constant tensor:
#      x y z
#    x 1.752630 0.000000 0.000000 
#    y 0.000000 1.778570 0.000000 
#    z 0.000000 0.000000 1.750910 
# 
# From -- ./inp_files/44076.got.cif
#   From: 2010.03.12/outbox.cif.g09.slc.cpg/sg64_23_cif.got.tgz:44076.got - 2010.04.10 20:19:32.
