data_PCOD8263578
_publ_section_title
;
Structure prediction by ZEFSAII (Michael W. Deem and Ramdas Pophale) SiO2 
 PCOD8263578
Probable space group: C M C A
;
_chemical_formula_sum "Si O2"
_cell_formula_units_Z 80
_cell_length_a 15.822195
_cell_length_b 28.504869
_cell_length_c 8.561330
_cell_angle_alpha 90.000000
_cell_angle_beta 90.000000
_cell_angle_gamma 90.000000
_cell_volume 3861.241983
_symmetry_space_group_name_H-M "C M C A"
_symmetry_group_IT_number 64
_symmetry_cell_setting 'orthorhombic'
loop_
_space_group_symop_operation_xyz
x,y,z
-x,1/2-y,1/2+z
x,-y,-z
-x,1/2+y,1/2-z
-x,-y,-z
x,1/2+y,1/2-z
-x,y,z
x,1/2-y,1/2+z
1/2+x,1/2+y,z
1/2-x,-y,1/2+z
1/2+x,1/2-y,-z
1/2-x,y,1/2-z
1/2-x,1/2-y,-z
1/2+x,y,1/2-z
1/2-x,1/2+y,z
1/2+x,-y,1/2+z
loop_
_atom_site_type_symbol
_atom_site_label
_atom_site_fract_x
_atom_site_fract_y
_atom_site_fract_z
Si Si1 0.174780 0.541912 0.622125
Si Si2 0.000000 0.196069 0.053451
Si Si3 0.500000 0.299230 0.577995
Si Si4 0.158794 0.863645 0.932422
Si Si5 0.094503 0.453516 0.078550
Si Si6 0.845378 0.861845 0.573008
O O1 0.182396 0.500000 0.500000
O O2 0.250000 0.542439 0.750000
O O3 0.163589 0.588683 0.525312
O O4 0.092754 0.538594 0.734138
O O5 0.000000 0.201701 0.237258
O O6 0.085000 0.169226 0.997199
O O7 0.000000 0.246505 0.977573
O O8 0.416084 0.325250 0.513328
O O9 0.137546 0.875370 0.752752
O O10 0.251655 0.839184 0.947014
O O11 0.000000 0.444747 0.016417
O O12 0.133912 0.500000 0.000000
O O13 0.151740 0.409417 0.028188
#
# Coordination Sequence:
#
# PCOD8263578 Si02
#       6
#    16   8   8  16  16  16
#     4  12  25  39  61  93 131 171 218 262 316 379
#     4  10  24  44  63  96 123 168 207 274 326 386
#     4  10  22  42  67  94 129 158 215 268 332 382
#     4  10  23  40  65  90 130 164 219 258 323 375
#     4  11  23  39  60  91 130 171 217 257 319 387
#     4  10  20  41  67  92 122 176 210 266 318 383
#
# _framework density 20.718722
#
# number of rings (size 3 to 8) (size 9 to 14) (size 15 to 20)
#    0.000    1.400    3.000    1.800    4.200    2.800 
#    0.000    0.000    0.000    0.000    0.000    0.000 
#    0.000    0.000    0.000    0.000    0.000    0.000 
#
# Total GULP energy -495830.296107 kJ/mol
# GULP energy per Si atom -12395.757403 kJ/mol
# Density = 2.067156 g / cm^3
# Si number density = 20.718722 Si / 1000 Ang^3
#
#
#
# Elastic Constant Matrix: (Units=GPa)
#
#
# Indices 1 2 3 4 5 6 
#
# 1 156.0521 83.6655 40.9542 0.0000 0.0000 0.0000
# 2 83.6655 165.4954 58.6637 0.0000 0.0000 0.0000
# 3 40.9542 58.6637 83.0607 0.0000 0.0000 0.0000
# 4 0.0000 0.0000 0.0000 39.7255 0.0000 0.0000
# 5 0.0000 0.0000 0.0000 0.0000 24.8304 0.0000
# 6 0.0000 0.0000 0.0000 0.0000 0.0000 17.4505
#
#
#
# Elastic Compliance Matrix: (Units=1/GPa)
#
#
# Indices 1 2 3 4 5 6 
#
# 1 0.008952 -0.003950 -0.001624 0.000000 0.000000 0.000000
# 2 -0.003950 0.009803 -0.004976 0.000000 0.000000 0.000000
# 3 -0.001624 -0.004976 0.016355 0.000000 0.000000 0.000000
# 4 0.000000 0.000000 0.000000 0.025173 0.000000 0.000000
# 5 0.000000 0.000000 0.000000 0.000000 0.040273 0.000000
# 6 0.000000 0.000000 0.000000 0.000000 0.000000 0.057305
#
#
# Mechanical properties :
#
#
# Convention : Reuss Voigt Hill
#
# Bulk Modulus (GPa) = 71.38058 85.68611 78.53334
# Shear Modulus (GPa) = 27.22844 31.15627 29.19235
#
# Velocity S-wave (km/s) = 3.62912 3.88206 3.75772
# Velocity P-wave (km/s) = 7.21718 7.84477 7.53751
#
# Compressibility (1/GPa) = 0.01400941
#
# Stress axis : x y z
#
# Youngs Moduli (GPa) = 111.70565 102.00643 61.14413
#
# Poissons Ratio (x) = 0.40292 0.09931
# Poissons Ratio (y) = 0.44123 0.30427
# Poissons Ratio (z) = 0.18143 0.50761
#
# Static dielectric constant tensor:
#      x y z
#    x 4.338550 0.000000 0.000000 
#    y 0.000000 3.815650 0.000000 
#    z 0.000000 0.000000 4.008940 
# 
# 
# High freq. dielectric constant tensor:
#      x y z
#    x 1.832170 0.000000 0.000000 
#    y 0.000000 1.793150 0.000000 
#    z 0.000000 0.000000 1.810910 
# 
# From -- ./inp_files/7166.got.cif
#   From: 2010.03.12/outbox.cif.g09.slc.cpg/sg64_4_cif.got.tgz:7166.got - 2010.04.10 20:19:32.
