data_PCOD8263255
_publ_section_title
;
Structure prediction by ZEFSAII (Michael W. Deem and Ramdas Pophale) SiO2 
 PCOD8263255
Probable space group: C M C A
;
_chemical_formula_sum "Si O2"
_cell_formula_units_Z 96
_cell_length_a 27.135303
_cell_length_b 19.594559
_cell_length_c 8.530665
_cell_angle_alpha 90.000000
_cell_angle_beta 90.000000
_cell_angle_gamma 90.000000
_cell_volume 4535.791225
_symmetry_space_group_name_H-M "C M C A"
_symmetry_group_IT_number 64
_symmetry_cell_setting 'orthorhombic'
loop_
_space_group_symop_operation_xyz
x,y,z
-x,1/2-y,1/2+z
x,-y,-z
-x,1/2+y,1/2-z
-x,-y,-z
x,1/2+y,1/2-z
-x,y,z
x,1/2-y,1/2+z
1/2+x,1/2+y,z
1/2-x,-y,1/2+z
1/2+x,1/2-y,-z
1/2-x,y,1/2-z
1/2-x,1/2-y,-z
1/2+x,y,1/2-z
1/2-x,1/2+y,z
1/2+x,-y,1/2+z
loop_
_atom_site_type_symbol
_atom_site_label
_atom_site_fract_x
_atom_site_fract_y
_atom_site_fract_z
Si Si1 0.945232 0.344510 0.533960
Si Si2 0.307374 0.282774 0.724482
Si Si3 0.845426 0.160747 0.599501
Si Si4 0.445217 0.203963 0.817049
Si Si5 0.653658 0.592629 0.093133
Si Si6 0.192716 0.962878 0.225912
O O1 0.938184 0.310476 0.365299
O O2 0.937269 0.284976 0.661715
O O3 0.905052 0.404078 0.559750
O O4 0.000000 0.376742 0.550380
O O5 0.250000 0.273578 0.750000
O O6 0.318398 0.309999 0.551880
O O7 0.332583 0.209303 0.751906
O O8 0.327911 0.334215 0.853428
O O9 0.904935 0.161286 0.582491
O O10 0.827262 0.083938 0.632594
O O11 0.500000 0.182683 0.875761
O O12 0.663723 0.535141 0.225794
O O13 0.684226 0.574413 0.938716
O O14 0.250000 0.977935 0.250000
#
# Coordination Sequence:
#
# PCOD8263255 Si02
#       6
#    16  16  16  16  16  16
#     4  10  20  38  64  96 129 167 211 266 325 385
#     4  12  24  38  62  91 124 162 213 267 321 384
#     4  12  22  39  62  92 126 163 210 267 324 376
#     4  10  20  36  62  95 128 164 207 259 325 380
#     4  11  23  42  62  90 126 166 216 262 318 387
#     4  11  24  42  63  85 125 169 213 264 320 383
#
# _framework density 21.164995000000001
#
# number of rings (size 3 to 8) (size 9 to 14) (size 15 to 20)
#    0.000    1.000    3.333    4.500    0.000    2.000 
#    0.000    2.500    0.000    0.000    0.000    2.333 
#    0.000    0.000    0.000    0.000    0.000    0.000 
#
# Total GULP energy -595311.161217 kJ/mol
# GULP energy per Si atom -12402.315859 kJ/mol
# Density = 2.111682 g / cm^3
# Si number density = 21.164995 Si / 1000 Ang^3
#
#
#
# Elastic Constant Matrix: (Units=GPa)
#
#
# Indices 1 2 3 4 5 6 
#
# 1 186.8373 52.9720 34.1580 0.0000 0.0000 0.0000
# 2 52.9720 63.1095 7.2808 0.0000 0.0000 0.0000
# 3 34.1580 7.2808 53.3121 0.0000 0.0000 0.0000
# 4 0.0000 0.0000 0.0000 30.9989 0.0000 0.0000
# 5 0.0000 0.0000 0.0000 0.0000 32.5654 0.0000
# 6 0.0000 0.0000 0.0000 0.0000 0.0000 34.3812
#
#
#
# Elastic Compliance Matrix: (Units=1/GPa)
#
#
# Indices 1 2 3 4 5 6 
#
# 1 0.007850 -0.006105 -0.004196 0.000000 0.000000 0.000000
# 2 -0.006105 0.020847 0.001065 0.000000 0.000000 0.000000
# 3 -0.004196 0.001065 0.021301 0.000000 0.000000 0.000000
# 4 0.000000 0.000000 0.000000 0.032259 0.000000 0.000000
# 5 0.000000 0.000000 0.000000 0.000000 0.030707 0.000000
# 6 0.000000 0.000000 0.000000 0.000000 0.000000 0.029086
#
#
# Mechanical properties :
#
#
# Convention : Reuss Voigt Hill
#
# Bulk Modulus (GPa) = 31.72110 54.67561 43.19835
# Shear Modulus (GPa) = 29.23431 33.51230 31.37331
#
# Velocity S-wave (km/s) = 3.72056 3.98349 3.85427
# Velocity P-wave (km/s) = 5.78592 6.85906 6.34522
#
# Compressibility (1/GPa) = 0.03152476
#
# Stress axis : x y z
#
# Youngs Moduli (GPa) = 127.38321 47.96820 46.94708
#
# Poissons Ratio (x) = 0.29286 0.19699
# Poissons Ratio (y) = 0.77770 -0.04998
# Poissons Ratio (z) = 0.53451 -0.05107
#
# Static dielectric constant tensor:
#      x y z
#    x 4.241320 0.000000 0.000000 
#    y 0.000000 3.906930 0.000000 
#    z 0.000000 0.000000 3.765120 
# 
# 
# High freq. dielectric constant tensor:
#      x y z
#    x 1.849380 0.000000 0.000000 
#    y 0.000000 1.809390 0.000000 
#    z 0.000000 0.000000 1.826590 
# 
# From -- ./inp_files/10376.got.cif
#   From: 2010.03.12/outbox.cif.g09.slc.cpg/sg64_6_cif.got.tgz:10376.got - 2010.04.10 20:19:32.
