data_PCOD8263213
_publ_section_title
;
Structure prediction by ZEFSAII (Michael W. Deem and Ramdas Pophale) SiO2 
 PCOD8263213
Probable space group: C M C A
;
_chemical_formula_sum "Si O2"
_cell_formula_units_Z 104
_cell_length_a 13.696238
_cell_length_b 20.885834
_cell_length_c 19.056251
_cell_angle_alpha 90.000000
_cell_angle_beta 90.000000
_cell_angle_gamma 90.000000
_cell_volume 5451.180725
_symmetry_space_group_name_H-M "C M C A"
_symmetry_group_IT_number 64
_symmetry_cell_setting 'orthorhombic'
loop_
_space_group_symop_operation_xyz
x,y,z
-x,1/2-y,1/2+z
x,-y,-z
-x,1/2+y,1/2-z
-x,-y,-z
x,1/2+y,1/2-z
-x,y,z
x,1/2-y,1/2+z
1/2+x,1/2+y,z
1/2-x,-y,1/2+z
1/2+x,1/2-y,-z
1/2-x,y,1/2-z
1/2-x,1/2-y,-z
1/2+x,y,1/2-z
1/2-x,1/2+y,z
1/2+x,-y,1/2+z
loop_
_atom_site_type_symbol
_atom_site_label
_atom_site_fract_x
_atom_site_fract_y
_atom_site_fract_z
Si Si1 0.885086 0.551690 0.699192
Si Si2 0.775239 0.183165 0.824968
Si Si3 0.605016 0.966306 0.571820
Si Si4 0.769801 0.638350 0.382805
Si Si5 0.387433 0.273068 0.569893
Si Si6 0.113945 0.238568 0.594013
Si Si7 0.250000 0.451610 0.750000
O O1 0.823102 0.616572 0.698952
O O2 0.859567 0.520563 0.624757
O O3 0.844265 0.499311 0.755287
O O4 0.000000 0.564906 0.712344
O O5 0.750000 0.217875 0.750000
O O6 0.852738 0.220472 0.873762
O O7 0.674586 0.178973 0.871586
O O8 0.500000 0.938718 0.597851
O O9 0.678516 0.907640 0.560969
O O10 0.590292 0.000000 0.500000
O O11 0.667350 0.660454 0.415048
O O12 0.840574 0.698933 0.367955
O O13 0.752895 0.596174 0.314700
O O14 0.500000 0.286018 0.582465
O O15 0.366921 0.253116 0.489261
O O16 0.000000 0.229985 0.611450
#
# Coordination Sequence:
#
# PCOD8263213 Si02
#       7
#    16  16  16  16  16  16   8
#     4  10  21  38  57  81 118 154 190 238 292 350
#     4  11  22  38  61  89 117 153 197 243 300 355
#     4   9  19  32  55  87 111 145 195 243 290 341
#     4  10  20  36  60  82 117 154 196 247 294 353
#     4  10  23  40  60  89 120 158 199 245 305 363
#     4  10  23  40  61  89 121 155 196 248 308 362
#     4  10  22  40  54  86 116 154 202 240 294 346
#
# _framework density 19.078436
#
# number of rings (size 3 to 8) (size 9 to 14) (size 15 to 20)
#    0.000    2.000    0.769    2.769    8.615    2.462 
#    0.000    0.000    0.000    0.462    0.000    0.000 
#    0.000    0.000    0.000    0.000    0.000    0.000 
#
# Total GULP energy -644190.915102 kJ/mol
# GULP energy per Si atom -12388.286829 kJ/mol
# Density = 1.903501 g / cm^3
# Si number density = 19.078436 Si / 1000 Ang^3
#
#
#
# Elastic Constant Matrix: (Units=GPa)
#
#
# Indices 1 2 3 4 5 6 
#
# 1 161.0269 67.3235 51.2043 0.0000 0.0000 0.0000
# 2 67.3235 105.0676 46.2798 0.0000 0.0000 0.0000
# 3 51.2043 46.2798 83.5216 0.0000 0.0000 0.0000
# 4 0.0000 0.0000 0.0000 20.0899 0.0000 0.0000
# 5 0.0000 0.0000 0.0000 0.0000 33.4906 0.0000
# 6 0.0000 0.0000 0.0000 0.0000 0.0000 31.5123
#
#
#
# Elastic Compliance Matrix: (Units=1/GPa)
#
#
# Indices 1 2 3 4 5 6 
#
# 1 0.009047 -0.004437 -0.003088 0.000000 0.000000 0.000000
# 2 -0.004437 0.014767 -0.005462 0.000000 0.000000 0.000000
# 3 -0.003088 -0.005462 0.016893 0.000000 0.000000 0.000000
# 4 0.000000 0.000000 0.000000 0.049776 0.000000 0.000000
# 5 0.000000 0.000000 0.000000 0.000000 0.029859 0.000000
# 6 0.000000 0.000000 0.000000 0.000000 0.000000 0.031734
#
#
# Mechanical properties :
#
#
# Convention : Reuss Voigt Hill
#
# Bulk Modulus (GPa) = 67.87768 75.47015 71.67391
# Shear Modulus (GPa) = 27.32833 29.33912 28.33373
#
# Velocity S-wave (km/s) = 3.78884 3.92575 3.85790
# Velocity P-wave (km/s) = 7.40242 7.75838 7.58249
#
# Compressibility (1/GPa) = 0.01473238
#
# Stress axis : x y z
#
# Youngs Moduli (GPa) = 110.53302 67.72030 59.19706
#
# Poissons Ratio (x) = 0.30046 0.18280
# Poissons Ratio (y) = 0.49042 0.32335
# Poissons Ratio (z) = 0.34132 0.36990
#
# Static dielectric constant tensor:
#      x y z
#    x 3.920620 0.000000 0.000000 
#    y 0.000000 3.581230 0.000000 
#    z 0.000000 0.000000 3.616580 
# 
# 
# High freq. dielectric constant tensor:
#      x y z
#    x 1.751830 0.000000 0.000000 
#    y 0.000000 1.734480 0.000000 
#    z 0.000000 0.000000 1.741150 
# 
# From -- ./inp_files/32374.got.cif
#   From: 2010.03.12/outbox.cif.g09.slc.cpg/sg64_17_cif.got.tgz:32374.got - 2010.04.10 20:19:32.
