data_PCOD8263695
_publ_section_title
;
Structure prediction by ZEFSAII (Michael W. Deem and Ramdas Pophale) SiO2 
 PCOD8263695
Probable space group: C M C A
;
_chemical_formula_sum "Si O2"
_cell_formula_units_Z 80
_cell_length_a 24.455930
_cell_length_b 9.947331
_cell_length_c 16.992491
_cell_angle_alpha 90.000000
_cell_angle_beta 90.000000
_cell_angle_gamma 90.000000
_cell_volume 4133.784197
_symmetry_space_group_name_H-M "C M C A"
_symmetry_group_IT_number 64
_symmetry_cell_setting 'orthorhombic'
loop_
_space_group_symop_operation_xyz
x,y,z
-x,1/2-y,1/2+z
x,-y,-z
-x,1/2+y,1/2-z
-x,-y,-z
x,1/2+y,1/2-z
-x,y,z
x,1/2-y,1/2+z
1/2+x,1/2+y,z
1/2-x,-y,1/2+z
1/2+x,1/2-y,-z
1/2-x,y,1/2-z
1/2-x,1/2-y,-z
1/2+x,y,1/2-z
1/2-x,1/2+y,z
1/2+x,-y,1/2+z
loop_
_atom_site_type_symbol
_atom_site_label
_atom_site_fract_x
_atom_site_fract_y
_atom_site_fract_z
Si Si1 0.771926 0.701683 0.162466
Si Si2 0.000000 0.638424 0.918919
Si Si3 0.000000 0.681434 0.089759
Si Si4 0.394689 0.686898 0.312541
Si Si5 0.895464 0.386167 0.172047
Si Si6 0.715086 0.439668 0.413056
O O1 0.750000 0.739616 0.250000
O O2 0.836881 0.701121 0.143920
O O3 0.748647 0.802463 0.097033
O O4 0.754884 0.547981 0.144139
O O5 0.000000 0.477608 0.923577
O O6 0.946245 0.680139 0.872307
O O7 0.000000 0.727404 0.998965
O O8 0.945849 0.736422 0.134315
O O9 0.382943 0.778095 0.237754
O O10 0.407431 0.532077 0.288615
O O11 0.846854 0.404683 0.110213
O O12 0.716256 0.500000 0.500000
#
# Coordination Sequence:
#
# PCOD8263695 Si02
#       6
#    16   8   8  16  16  16
#     4  11  22  39  60  86 116 156 197 241 293 354
#     4   9  19  34  59  85 114 149 186 242 288 345
#     4   9  19  36  59  87 115 144 194 240 290 339
#     4  10  21  36  61  85 112 152 193 241 283 346
#     4  10  21  36  60  86 114 149 193 239 288 345
#     4  11  24  38  58  87 120 154 196 243 298 355
#
# _framework density 19.352727999999999
#
# number of rings (size 3 to 8) (size 9 to 14) (size 15 to 20)
#    0.000    1.800    2.000    1.800   11.200    0.000 
#    0.000    0.000    0.000    1.200    0.000    0.000 
#    0.000    0.000    0.000    0.000    0.000    0.000 
#
# Total GULP energy -495638.713701 kJ/mol
# GULP energy per Si atom -12390.967843 kJ/mol
# Density = 1.930868 g / cm^3
# Si number density = 19.352728 Si / 1000 Ang^3
#
#
#
# Elastic Constant Matrix: (Units=GPa)
#
#
# Indices 1 2 3 4 5 6 
#
# 1 112.0987 59.2391 32.5475 0.0000 0.0000 0.0000
# 2 59.2391 -35.8091 10.4462 0.0000 0.0000 0.0000
# 3 32.5475 10.4462 82.7232 0.0000 0.0000 0.0000
# 4 0.0000 0.0000 0.0000 26.1199 0.0000 0.0000
# 5 0.0000 0.0000 0.0000 0.0000 25.1495 0.0000
# 6 0.0000 0.0000 0.0000 0.0000 0.0000 229.4098
#
#
#
# Elastic Compliance Matrix: (Units=1/GPa)
#
#
# Indices 1 2 3 4 5 6 
#
# 1 0.005520 0.008197 -0.003207 0.000000 0.000000 0.000000
# 2 0.008197 -0.014763 -0.001361 0.000000 0.000000 0.000000
# 3 -0.003207 -0.001361 0.013522 0.000000 0.000000 0.000000
# 4 0.000000 0.000000 0.000000 0.038285 0.000000 0.000000
# 5 0.000000 0.000000 0.000000 0.000000 0.039762 0.000000
# 6 0.000000 0.000000 0.000000 0.000000 0.000000 0.004359
#
#
# Mechanical properties :
#
#
# Convention : Reuss Voigt Hill
#
# Bulk Modulus (GPa) = 86.67572 40.38648 63.53110
# Shear Modulus (GPa) = 60.04303 59.92115 59.98209
#
# Velocity S-wave (km/s) = 5.57611 5.57044 5.57328
# Velocity P-wave (km/s) = 9.29203 7.89222 8.62058
#
# Compressibility (1/GPa) = 0.01153726
#
# Stress axis : x y z
#
# Youngs Moduli (GPa) = 181.14980 -67.73680 73.95273
#
# Poissons Ratio (x) = 0.55522 0.23717
# Poissons Ratio (y) = -1.48483 0.10063
# Poissons Ratio (z) = 0.58095 -0.09217
#
# Static dielectric constant tensor:
#      x y z
#    x 3.720190 0.000000 0.000000 
#    y 0.000000 3.524040 0.000000 
#    z 0.000000 0.000000 3.458200 
# 
# 
# High freq. dielectric constant tensor:
#      x y z
#    x 1.764840 0.000000 0.000000 
#    y 0.000000 1.738710 0.000000 
#    z 0.000000 0.000000 1.743720 
# 
# From -- ./inp_files/27116.got.cif
#   From: 2010.03.12/outbox.cif.g09.slc.cpg/sg64_14_cif.got.tgz:27116.got - 2010.04.10 20:19:32.
