data_PCOD8263652
_publ_section_title
;
Structure prediction by ZEFSAII (Michael W. Deem and Ramdas Pophale) SiO2 
 PCOD8263652
Probable space group: C M C A
;
_chemical_formula_sum "Si O2"
_cell_formula_units_Z 80
_cell_length_a 9.775549
_cell_length_b 14.996520
_cell_length_c 29.351938
_cell_angle_alpha 90.000000
_cell_angle_beta 90.000000
_cell_angle_gamma 90.000000
_cell_volume 4302.971102
_symmetry_space_group_name_H-M "C M C A"
_symmetry_group_IT_number 64
_symmetry_cell_setting 'orthorhombic'
loop_
_space_group_symop_operation_xyz
x,y,z
-x,1/2-y,1/2+z
x,-y,-z
-x,1/2+y,1/2-z
-x,-y,-z
x,1/2+y,1/2-z
-x,y,z
x,1/2-y,1/2+z
1/2+x,1/2+y,z
1/2-x,-y,1/2+z
1/2+x,1/2-y,-z
1/2-x,y,1/2-z
1/2-x,1/2-y,-z
1/2+x,y,1/2-z
1/2-x,1/2+y,z
1/2+x,-y,1/2+z
loop_
_atom_site_type_symbol
_atom_site_label
_atom_site_fract_x
_atom_site_fract_y
_atom_site_fract_z
Si Si1 0.838004 0.861565 0.891181
Si Si2 0.838894 0.162209 0.612299
Si Si3 0.150696 0.363938 0.711618
Si Si4 0.341243 0.996834 0.946694
Si Si5 0.152220 0.847984 0.288563
O O1 0.785197 0.760618 0.900536
O O2 0.801124 0.889914 0.839378
O O3 0.753599 0.921402 0.925791
O O4 0.000000 0.871975 0.900363
O O5 0.784147 0.128719 0.661663
O O6 0.000000 0.171496 0.618498
O O7 0.796321 0.092536 0.573514
O O8 0.250000 0.405701 0.750000
O O9 0.146064 0.258026 0.715914
O O10 0.000000 0.403161 0.720789
O O11 0.500000 0.976513 0.935511
O O12 0.313916 0.000000 0.000000
O O13 0.250000 0.890094 0.250000
O O14 0.000000 0.888128 0.282076
#
# Coordination Sequence:
#
# PCOD8263652 Si02
#       5
#    16  16  16  16  16
#     4   9  18  34  54  74  99 133 168 200 243 300
#     4   8  16  33  53  71  99 136 163 193 249 306
#     4   8  14  25  44  70  97 126 160 195 233 283
#     4  10  21  36  53  74  99 128 167 214 259 302
#     4   8  13  24  44  68  94 126 160 192 232 284
#
# _framework density 18.591805999999998
#
# number of rings (size 3 to 8) (size 9 to 14) (size 15 to 20)
#    0.000    3.400    0.000    2.400    0.000    2.000 
#    0.000    6.000    0.000    4.800    0.000    0.000 
#    0.000    0.000    0.000    0.000    0.000    0.000 
#
# Total GULP energy -495758.197547 kJ/mol
# GULP energy per Si atom -12393.954939 kJ/mol
# Density = 1.854949 g / cm^3
# Si number density = 18.591806 Si / 1000 Ang^3
#
#
#
# Elastic Constant Matrix: (Units=GPa)
#
#
# Indices 1 2 3 4 5 6 
#
# 1 72.6639 42.1371 71.2092 0.0000 0.0000 0.0000
# 2 42.1371 80.2913 66.5186 0.0000 0.0000 0.0000
# 3 71.2092 66.5186 155.1772 0.0000 0.0000 0.0000
# 4 0.0000 0.0000 0.0000 -36.9330 0.0000 0.0000
# 5 0.0000 0.0000 0.0000 0.0000 31.8321 0.0000
# 6 0.0000 0.0000 0.0000 0.0000 0.0000 22.4535
#
#
#
# Elastic Compliance Matrix: (Units=1/GPa)
#
#
# Indices 1 2 3 4 5 6 
#
# 1 0.026751 -0.005999 -0.009704 0.000000 0.000000 0.000000
# 2 -0.005999 0.020659 -0.006103 0.000000 0.000000 0.000000
# 3 -0.009704 -0.006103 0.013513 0.000000 0.000000 0.000000
# 4 0.000000 0.000000 0.000000 -0.027076 0.000000 0.000000
# 5 0.000000 0.000000 0.000000 0.000000 0.031415 0.000000
# 6 0.000000 0.000000 0.000000 0.000000 0.000000 0.044536
#
#
# Mechanical properties :
#
#
# Convention : Reuss Voigt Hill
#
# Bulk Modulus (GPa) = 57.76700 74.20690 65.98695
# Shear Modulus (GPa) = 31.41093 12.02169 21.71631
#
# Velocity S-wave (km/s) = 4.11482 2.54562 3.42139
# Velocity P-wave (km/s) = 7.32900 6.97428 7.15384
#
# Compressibility (1/GPa) = 0.01731092
#
# Stress axis : x y z
#
# Youngs Moduli (GPa) = 37.38236 48.40495 74.00172
#
# Poissons Ratio (x) = 0.29041 0.71810
# Poissons Ratio (y) = 0.22428 0.45161
# Poissons Ratio (z) = 0.36275 0.29540
#
# Static dielectric constant tensor:
#      x y z
#    x 3.401030 0.000000 0.000000 
#    y 0.000000 3.183530 0.000000 
#    z 0.000000 0.000000 3.375060 
# 
# 
# High freq. dielectric constant tensor:
#      x y z
#    x 1.697980 0.000000 0.000000 
#    y 0.000000 1.702340 0.000000 
#    z 0.000000 0.000000 1.724470 
# 
# From -- ./inp_files/43905.got.cif
#   From: 2010.03.12/outbox.cif.g09.slc.cpg/sg64_22_cif.got.tgz:43905.got - 2010.04.10 20:19:32.
