data_PCOD8263382
_publ_section_title
;
Structure prediction by ZEFSAII (Michael W. Deem and Ramdas Pophale) SiO2 
 PCOD8263382
Probable space group: C M C A
;
_chemical_formula_sum "Si O2"
_cell_formula_units_Z 112
_cell_length_a 24.362826
_cell_length_b 16.892611
_cell_length_c 14.538062
_cell_angle_alpha 90.000000
_cell_angle_beta 90.000000
_cell_angle_gamma 90.000000
_cell_volume 5983.164748
_symmetry_space_group_name_H-M "C M C A"
_symmetry_group_IT_number 64
_symmetry_cell_setting 'orthorhombic'
loop_
_space_group_symop_operation_xyz
x,y,z
-x,1/2-y,1/2+z
x,-y,-z
-x,1/2+y,1/2-z
-x,-y,-z
x,1/2+y,1/2-z
-x,y,z
x,1/2-y,1/2+z
1/2+x,1/2+y,z
1/2-x,-y,1/2+z
1/2+x,1/2-y,-z
1/2-x,y,1/2-z
1/2-x,1/2-y,-z
1/2+x,y,1/2-z
1/2-x,1/2+y,z
1/2+x,-y,1/2+z
loop_
_atom_site_type_symbol
_atom_site_label
_atom_site_fract_x
_atom_site_fract_y
_atom_site_fract_z
Si Si1 0.640352 0.920610 0.277442
Si Si2 0.562734 0.023466 0.394995
Si Si3 0.187442 0.249010 0.778928
Si Si4 0.767803 0.033733 0.154585
Si Si5 0.851595 0.844244 0.892410
Si Si6 0.689940 0.282488 0.516771
Si Si7 0.164874 0.552204 0.923391
O O1 0.588338 0.953544 0.333059
O O2 0.650139 0.828319 0.293091
O O3 0.695517 0.960721 0.312983
O O4 0.629768 0.938615 0.169366
O O5 0.500000 0.033733 0.364936
O O6 0.569113 0.000000 0.500000
O O7 0.591888 0.108109 0.381983
O O8 0.250000 0.227355 0.750000
O O9 0.157286 0.300351 0.703194
O O10 0.183918 0.297571 0.874512
O O11 0.750000 0.078332 0.250000
O O12 0.718691 0.000524 0.094677
O O13 0.801311 0.094542 0.090811
O O14 0.852963 0.783198 0.977733
O O15 0.750000 0.250000 0.500000
O O16 0.680758 0.362140 0.460781
O O17 0.131788 0.500000 0.000000
#
# Coordination Sequence:
#
# PCOD8263382 Si02
#       7
#    16  16  16  16  16  16  16
#     4  10  20  38  58  84 118 156 196 247 300 352
#     4  10  23  44  69  89 107 143 206 268 311 352
#     4  12  22  35  54  88 133 164 195 235 290 370
#     4   9  19  32  51  76 116 159 199 232 275 348
#     4  11  22  37  58  86 119 158 196 250 303 348
#     4  12  22  33  54  83 124 168 198 235 290 359
#     4  11  22  33  51  83 121 167 202 230 281 368
#
# _framework density 18.719190999999999
#
# number of rings (size 3 to 8) (size 9 to 14) (size 15 to 20)
#    0.000    1.286    2.857    4.286    6.000    3.429 
#    0.000    0.714    0.000    1.286    0.000    0.000 
#    0.000    0.000    0.000    0.000    0.000    0.000 
#
# Total GULP energy -694372.803344 kJ/mol
# GULP energy per Si atom -12399.514345 kJ/mol
# Density = 1.867658 g / cm^3
# Si number density = 18.719191 Si / 1000 Ang^3
#
#
#
# Elastic Constant Matrix: (Units=GPa)
#
#
# Indices 1 2 3 4 5 6 
#
# 1 88.5150 30.9904 35.0445 0.0000 0.0000 0.0000
# 2 30.9904 85.6236 31.0052 0.0000 0.0000 0.0000
# 3 35.0445 31.0052 122.0816 0.0000 0.0000 0.0000
# 4 0.0000 0.0000 0.0000 34.0084 0.0000 0.0000
# 5 0.0000 0.0000 0.0000 0.0000 17.0407 0.0000
# 6 0.0000 0.0000 0.0000 0.0000 0.0000 13.1554
#
#
#
# Elastic Compliance Matrix: (Units=1/GPa)
#
#
# Indices 1 2 3 4 5 6 
#
# 1 0.013854 -0.003936 -0.002977 0.000000 0.000000 0.000000
# 2 -0.003936 0.013980 -0.002421 0.000000 0.000000 0.000000
# 3 -0.002977 -0.002421 0.009661 0.000000 0.000000 0.000000
# 4 0.000000 0.000000 0.000000 0.029405 0.000000 0.000000
# 5 0.000000 0.000000 0.000000 0.000000 0.058683 0.000000
# 6 0.000000 0.000000 0.000000 0.000000 0.000000 0.076015
#
#
# Mechanical properties :
#
#
# Convention : Reuss Voigt Hill
#
# Bulk Modulus (GPa) = 53.11564 54.47781 53.79673
# Shear Modulus (GPa) = 22.07100 26.11957 24.09528
#
# Velocity S-wave (km/s) = 3.43747 3.73947 3.59164
# Velocity P-wave (km/s) = 6.64767 6.91453 6.78241
#
# Compressibility (1/GPa) = 0.01882685
#
# Stress axis : x y z
#
# Youngs Moduli (GPa) = 72.17899 71.52939 103.51239
#
# Poissons Ratio (x) = 0.28156 0.30819
# Poissons Ratio (y) = 0.28412 0.25057
# Poissons Ratio (z) = 0.21490 0.17315
#
# Static dielectric constant tensor:
#      x y z
#    x 3.050990 0.000000 0.000000 
#    y 0.000000 3.682760 0.000000 
#    z 0.000000 0.000000 3.947320 
# 
# 
# High freq. dielectric constant tensor:
#      x y z
#    x 1.659920 0.000000 0.000000 
#    y 0.000000 1.746550 0.000000 
#    z 0.000000 0.000000 1.751590 
# 
# From -- ./inp_files/28085.got.cif
#   From: 2010.03.12/outbox.cif.g09.slc.cpg/sg64_15_cif.got.tgz:28085.got - 2010.04.10 20:19:32.
