data_PCOD8263138
_publ_section_title
;
Structure prediction by ZEFSAII (Michael W. Deem and Ramdas Pophale) SiO2 
 PCOD8263138
Probable space group: C M C A
;
_chemical_formula_sum "Si O2"
_cell_formula_units_Z 80
_cell_length_a 16.155813
_cell_length_b 9.598597
_cell_length_c 24.656132
_cell_angle_alpha 90.000000
_cell_angle_beta 90.000000
_cell_angle_gamma 90.000000
_cell_volume 3823.503765
_symmetry_space_group_name_H-M "C M C A"
_symmetry_group_IT_number 64
_symmetry_cell_setting 'orthorhombic'
loop_
_space_group_symop_operation_xyz
x,y,z
-x,1/2-y,1/2+z
x,-y,-z
-x,1/2+y,1/2-z
-x,-y,-z
x,1/2+y,1/2-z
-x,y,z
x,1/2-y,1/2+z
1/2+x,1/2+y,z
1/2-x,-y,1/2+z
1/2+x,1/2-y,-z
1/2-x,y,1/2-z
1/2-x,1/2-y,-z
1/2+x,y,1/2-z
1/2-x,1/2+y,z
1/2+x,-y,1/2+z
loop_
_atom_site_type_symbol
_atom_site_label
_atom_site_fract_x
_atom_site_fract_y
_atom_site_fract_z
Si Si1 0.406410 0.828155 0.799253
Si Si2 0.402612 0.838049 0.108523
Si Si3 0.838217 0.385828 0.224799
Si Si4 0.098538 0.844897 0.990004
Si Si5 0.096738 0.854696 0.581558
O O1 0.500000 0.884538 0.804108
O O2 0.404517 0.690198 0.763256
O O3 0.372944 0.797908 0.859891
O O4 0.352410 0.949386 0.771493
O O5 0.500000 0.833474 0.123506
O O6 0.348969 0.829381 0.163482
O O7 0.381822 0.981365 0.076432
O O8 0.376574 0.709514 0.069971
O O9 0.750000 0.346276 0.250000
O O10 0.138480 0.739346 0.034520
O O11 0.000000 0.847038 0.994628
O O12 0.134517 0.000000 0.000000
O O13 0.000000 0.832387 0.574790
#
# Coordination Sequence:
#
# PCOD8263138 Si02
#       5
#    16  16  16  16  16
#     4  10  20  36  57  80 109 147 192 233 275 334
#     4   9  17  31  51  74 106 148 189 224 270 338
#     4  11  22  36  54  81 114 148 186 233 286 333
#     4   9  16  26  45  78 113 140 175 230 285 326
#     4   8  15  28  47  72 102 139 180 222 270 327
#
# _framework density 20.923217999999999
#
# number of rings (size 3 to 8) (size 9 to 14) (size 15 to 20)
#    0.000    2.600    0.000    4.200    0.000    4.000 
#    0.000    4.000    0.000    1.200    0.000    2.800 
#    0.000    0.000    0.000    0.000    0.000    4.000 
#
# Total GULP energy -495820.494912 kJ/mol
# GULP energy per Si atom -12395.512373 kJ/mol
# Density = 2.087560 g / cm^3
# Si number density = 20.923218 Si / 1000 Ang^3
#
#
#
# Elastic Constant Matrix: (Units=GPa)
#
#
# Indices 1 2 3 4 5 6 
#
# 1 38.8663 25.9859 40.0539 0.0000 0.0000 0.0000
# 2 25.9859 96.4229 74.9101 0.0000 0.0000 0.0000
# 3 40.0539 74.9101 137.7243 0.0000 0.0000 0.0000
# 4 0.0000 0.0000 0.0000 45.8770 0.0000 0.0000
# 5 0.0000 0.0000 0.0000 0.0000 21.0856 0.0000
# 6 0.0000 0.0000 0.0000 0.0000 0.0000 15.0449
#
#
#
# Elastic Compliance Matrix: (Units=1/GPa)
#
#
# Indices 1 2 3 4 5 6 
#
# 1 0.037174 -0.002804 -0.009286 0.000000 0.000000 0.000000
# 2 -0.002804 0.018172 -0.009068 0.000000 0.000000 0.000000
# 3 -0.009286 -0.009068 0.014894 0.000000 0.000000 0.000000
# 4 0.000000 0.000000 0.000000 0.021797 0.000000 0.000000
# 5 0.000000 0.000000 0.000000 0.000000 0.047426 0.000000
# 6 0.000000 0.000000 0.000000 0.000000 0.000000 0.066468
#
#
# Mechanical properties :
#
#
# Convention : Reuss Voigt Hill
#
# Bulk Modulus (GPa) = 35.81328 61.65705 48.73517
# Shear Modulus (GPa) = 19.41335 25.20574 22.30955
#
# Velocity S-wave (km/s) = 3.04935 3.47461 3.26890
# Velocity P-wave (km/s) = 5.43615 6.75496 6.13112
#
# Compressibility (1/GPa) = 0.02792260
#
# Stress axis : x y z
#
# Youngs Moduli (GPa) = 26.90068 55.03013 67.14160
#
# Poissons Ratio (x) = 0.15431 0.62347
# Poissons Ratio (y) = 0.07543 0.60887
# Poissons Ratio (z) = 0.24980 0.49904
#
# Static dielectric constant tensor:
#      x y z
#    x 3.175240 0.000000 0.000000 
#    y 0.000000 3.778790 0.000000 
#    z 0.000000 0.000000 3.929040 
# 
# 
# High freq. dielectric constant tensor:
#      x y z
#    x 1.768710 0.000000 0.000000 
#    y 0.000000 1.817800 0.000000 
#    z 0.000000 0.000000 1.830220 
# 
# From -- ./inp_files/50278.got.cif
#   From: 2010.03.12/outbox.cif.g09.slc.cpg/sg64_26_cif.got.tgz:50278.got - 2010.04.10 20:19:32.
