data_PCOD8263831
_publ_section_title
;
Structure prediction by ZEFSAII (Michael W. Deem and Ramdas Pophale) SiO2 
 PCOD8263831
Probable space group: C M C A
;
_chemical_formula_sum "Si O2"
_cell_formula_units_Z 112
_cell_length_a 19.507851
_cell_length_b 25.719519
_cell_length_c 11.044900
_cell_angle_alpha 90.000000
_cell_angle_beta 90.000000
_cell_angle_gamma 90.000000
_cell_volume 5541.585780
_symmetry_space_group_name_H-M "C M C A"
_symmetry_group_IT_number 64
_symmetry_cell_setting 'orthorhombic'
loop_
_space_group_symop_operation_xyz
x,y,z
-x,1/2-y,1/2+z
x,-y,-z
-x,1/2+y,1/2-z
-x,-y,-z
x,1/2+y,1/2-z
-x,y,z
x,1/2-y,1/2+z
1/2+x,1/2+y,z
1/2-x,-y,1/2+z
1/2+x,1/2-y,-z
1/2-x,y,1/2-z
1/2-x,1/2-y,-z
1/2+x,y,1/2-z
1/2-x,1/2+y,z
1/2+x,-y,1/2+z
loop_
_atom_site_type_symbol
_atom_site_label
_atom_site_fract_x
_atom_site_fract_y
_atom_site_fract_z
Si Si1 0.923272 0.355971 0.165850
Si Si2 0.173389 0.591062 0.239240
Si Si3 0.423447 0.545813 0.080756
Si Si4 0.307252 0.188417 0.412405
Si Si5 0.574948 0.152964 0.558333
Si Si6 0.786306 0.694479 0.872282
Si Si7 0.078797 0.559631 0.025714
O O1 0.904403 0.361315 0.306136
O O2 0.866418 0.317793 0.112043
O O3 0.000000 0.332562 0.146896
O O4 0.918398 0.412343 0.104326
O O5 0.250000 0.567836 0.250000
O O6 0.125879 0.549794 0.306215
O O7 0.179012 0.648760 0.300604
O O8 0.135985 0.590133 0.108001
O O9 0.500000 0.531536 0.125239
O O10 0.393136 0.500000 0.000000
O O11 0.422349 0.599282 0.010918
O O12 0.375572 0.194402 0.493940
O O13 0.249677 0.169163 0.508808
O O14 0.281752 0.243208 0.362888
O O15 0.500000 0.178564 0.552579
O O16 0.750000 0.672391 0.750000
O O17 0.000000 0.563687 0.078065
O O18 0.099540 0.500000 0.000000
#
# Coordination Sequence:
#
# PCOD8263831 Si02
#       7
#    16  16  16  16  16  16  16
#     4  10  21  38  59  85 117 152 197 247 298 354
#     4  11  22  38  58  86 124 153 195 253 300 351
#     4   9  19  34  58  84 109 148 193 234 289 353
#     4  10  22  38  61  88 119 158 202 244 300 368
#     4   9  18  35  57  85 117 147 188 248 298 346
#     4  11  21  38  63  88 119 161 202 243 304 374
#     4  10  23  42  64  88 120 167 211 249 304 374
#
# _framework density 20.210819999999998
#
# number of rings (size 3 to 8) (size 9 to 14) (size 15 to 20)
#    0.000    2.000    1.429    1.714    2.000    2.857 
#    0.000    0.714    0.000    0.000    0.000    0.000 
#    0.000    0.000    0.000    0.000    0.000    0.000 
#
# Total GULP energy -693815.931754 kJ/mol
# GULP energy per Si atom -12389.570210 kJ/mol
# Density = 2.016482 g / cm^3
# Si number density = 20.210820 Si / 1000 Ang^3
#
#
#
# Elastic Constant Matrix: (Units=GPa)
#
#
# Indices 1 2 3 4 5 6 
#
# 1 122.5694 19.1932 37.2459 0.0000 0.0000 0.0000
# 2 19.1932 42.5644 15.2757 0.0000 0.0000 0.0000
# 3 37.2459 15.2757 79.3058 0.0000 0.0000 0.0000
# 4 0.0000 0.0000 0.0000 21.9087 0.0000 0.0000
# 5 0.0000 0.0000 0.0000 0.0000 26.4754 0.0000
# 6 0.0000 0.0000 0.0000 0.0000 0.0000 -14.5472
#
#
#
# Elastic Compliance Matrix: (Units=1/GPa)
#
#
# Indices 1 2 3 4 5 6 
#
# 1 0.009859 -0.002991 -0.004054 0.000000 0.000000 0.000000
# 2 -0.002991 0.026146 -0.003632 0.000000 0.000000 0.000000
# 3 -0.004054 -0.003632 0.015213 0.000000 0.000000 0.000000
# 4 0.000000 0.000000 0.000000 0.045644 0.000000 0.000000
# 5 0.000000 0.000000 0.000000 0.000000 0.037771 0.000000
# 6 0.000000 0.000000 0.000000 0.000000 0.000000 -0.068742
#
#
# Mechanical properties :
#
#
# Convention : Reuss Voigt Hill
#
# Bulk Modulus (GPa) = 33.48424 43.09657 38.29040
# Shear Modulus (GPa) = 51.44119 18.28237 34.86178
#
# Velocity S-wave (km/s) = 5.05050 3.01089 4.15771
# Velocity P-wave (km/s) = 7.11432 5.78421 6.48346
#
# Compressibility (1/GPa) = 0.02986479
#
# Stress axis : x y z
#
# Youngs Moduli (GPa) = 101.43104 38.24728 65.73344
#
# Poissons Ratio (x) = 0.11438 0.26650
# Poissons Ratio (y) = 0.30334 0.23871
# Poissons Ratio (z) = 0.41122 0.13890
#
# Static dielectric constant tensor:
#      x y z
#    x 4.130210 0.000000 0.000000 
#    y 0.000000 3.270850 0.000000 
#    z 0.000000 0.000000 3.788350 
# 
# 
# High freq. dielectric constant tensor:
#      x y z
#    x 1.804220 0.000000 0.000000 
#    y 0.000000 1.759260 0.000000 
#    z 0.000000 0.000000 1.796680 
# 
# From -- ./inp_files/17537.got.cif
#   From: 2010.03.12/outbox.cif.g09.slc.cpg/sg64_9_cif.got.tgz:17537.got - 2010.04.10 20:19:32.
