data_PCOD8263880
_publ_section_title
;
Structure prediction by ZEFSAII (Michael W. Deem and Ramdas Pophale) SiO2 
 PCOD8263880
Probable space group: C M C A
;
_chemical_formula_sum "Si O2"
_cell_formula_units_Z 64
_cell_length_a 8.741624
_cell_length_b 24.289212
_cell_length_c 14.872792
_cell_angle_alpha 90.000000
_cell_angle_beta 90.000000
_cell_angle_gamma 90.000000
_cell_volume 3157.897665
_symmetry_space_group_name_H-M "C M C A"
_symmetry_group_IT_number 64
_symmetry_cell_setting 'orthorhombic'
loop_
_space_group_symop_operation_xyz
x,y,z
-x,1/2-y,1/2+z
x,-y,-z
-x,1/2+y,1/2-z
-x,-y,-z
x,1/2+y,1/2-z
-x,y,z
x,1/2-y,1/2+z
1/2+x,1/2+y,z
1/2-x,-y,1/2+z
1/2+x,1/2-y,-z
1/2-x,y,1/2-z
1/2-x,1/2-y,-z
1/2+x,y,1/2-z
1/2-x,1/2+y,z
1/2+x,-y,1/2+z
loop_
_atom_site_type_symbol
_atom_site_label
_atom_site_fract_x
_atom_site_fract_y
_atom_site_fract_z
Si Si1 0.322797 0.746050 0.846902
Si Si2 0.178712 0.867588 0.651690
Si Si3 0.680322 0.637610 0.651058
Si Si4 0.823108 0.435464 0.495867
O O1 0.500000 0.730798 0.839081
O O2 0.250000 0.750609 0.750000
O O3 0.298307 0.806155 0.891338
O O4 0.237529 0.695051 0.895852
O O5 0.250000 0.872660 0.750000
O O6 0.262243 0.910550 0.588346
O O7 0.000000 0.881729 0.657930
O O8 0.500000 0.638302 0.658468
O O9 0.750000 0.630222 0.750000
O O10 0.731058 0.587150 0.589371
O O11 0.794829 0.500000 0.500000
O O12 0.000000 0.420334 0.484157
#
# Coordination Sequence:
#
# PCOD8263880 Si02
#       4
#    16  16  16  16
#     4   9  17  32  56  87 120 151 187 230 282 344
#     4  10  21  38  62  90 120 155 191 235 290 345
#     4  11  22  38  62  89 119 154 191 236 290 345
#     4  11  25  43  61  83 113 152 200 248 290 339
#
# _framework density 20.266646999999999
#
# number of rings (size 3 to 8) (size 9 to 14) (size 15 to 20)
#    0.000    1.750    0.000    6.000    0.000    7.000 
#    0.000    0.000    0.000    0.000    0.000    0.000 
#    0.000    0.000    0.000    0.000    0.000    0.000 
#
# Total GULP energy -396702.392777 kJ/mol
# GULP energy per Si atom -12396.949774 kJ/mol
# Density = 2.022052 g / cm^3
# Si number density = 20.266647 Si / 1000 Ang^3
#
#
#
# Elastic Constant Matrix: (Units=GPa)
#
#
# Indices 1 2 3 4 5 6 
#
# 1 173.6406 84.7057 51.6613 0.0000 0.0000 0.0000
# 2 84.7057 124.6405 59.0610 0.0000 0.0000 0.0000
# 3 51.6613 59.0610 95.5401 0.0000 0.0000 0.0000
# 4 0.0000 0.0000 0.0000 36.9028 0.0000 0.0000
# 5 0.0000 0.0000 0.0000 0.0000 28.1724 0.0000
# 6 0.0000 0.0000 0.0000 0.0000 0.0000 53.6598
#
#
#
# Elastic Compliance Matrix: (Units=1/GPa)
#
#
# Indices 1 2 3 4 5 6 
#
# 1 0.008764 -0.005247 -0.001495 0.000000 0.000000 0.000000
# 2 -0.005247 0.014489 -0.006119 0.000000 0.000000 0.000000
# 3 -0.001495 -0.006119 0.015058 0.000000 0.000000 0.000000
# 4 0.000000 0.000000 0.000000 0.027098 0.000000 0.000000
# 5 0.000000 0.000000 0.000000 0.000000 0.035496 0.000000
# 6 0.000000 0.000000 0.000000 0.000000 0.000000 0.018636
#
#
# Mechanical properties :
#
#
# Convention : Reuss Voigt Hill
#
# Bulk Modulus (GPa) = 79.44556 87.18636 83.31596
# Shear Modulus (GPa) = 33.45398 36.97323 35.21361
#
# Velocity S-wave (km/s) = 4.06728 4.27586 4.17287
# Velocity P-wave (km/s) = 7.83213 8.21525 8.02598
#
# Compressibility (1/GPa) = 0.01258724
#
# Stress axis : x y z
#
# Youngs Moduli (GPa) = 114.10892 69.01871 66.40997
#
# Poissons Ratio (x) = 0.36217 0.09928
# Poissons Ratio (y) = 0.59877 0.40638
# Poissons Ratio (z) = 0.17058 0.42235
#
# Static dielectric constant tensor:
#      x y z
#    x 3.883430 0.000000 0.000000 
#    y 0.000000 4.199090 0.000000 
#    z 0.000000 0.000000 3.407880 
# 
# 
# High freq. dielectric constant tensor:
#      x y z
#    x 1.811610 0.000000 0.000000 
#    y 0.000000 1.800290 0.000000 
#    z 0.000000 0.000000 1.776870 
# 
# From -- ./inp_files/20860.got.cif
#   From: 2010.03.12/outbox.cif.g09.slc.cpg/sg64_11_cif.got.tgz:20860.got - 2010.04.10 20:19:32.
