data_PCOD8263010
_publ_section_title
;
Structure prediction by ZEFSAII (Michael W. Deem and Ramdas Pophale) SiO2 
 PCOD8263010
Probable space group: C M C A
;
_chemical_formula_sum "Si O2"
_cell_formula_units_Z 80
_cell_length_a 13.640183
_cell_length_b 13.205410
_cell_length_c 22.788153
_cell_angle_alpha 90.000000
_cell_angle_beta 90.000000
_cell_angle_gamma 90.000000
_cell_volume 4104.698033
_symmetry_space_group_name_H-M "C M C A"
_symmetry_group_IT_number 64
_symmetry_cell_setting 'orthorhombic'
loop_
_space_group_symop_operation_xyz
x,y,z
-x,1/2-y,1/2+z
x,-y,-z
-x,1/2+y,1/2-z
-x,-y,-z
x,1/2+y,1/2-z
-x,y,z
x,1/2-y,1/2+z
1/2+x,1/2+y,z
1/2-x,-y,1/2+z
1/2+x,1/2-y,-z
1/2-x,y,1/2-z
1/2-x,1/2-y,-z
1/2+x,y,1/2-z
1/2-x,1/2+y,z
1/2+x,-y,1/2+z
loop_
_atom_site_type_symbol
_atom_site_label
_atom_site_fract_x
_atom_site_fract_y
_atom_site_fract_z
Si Si1 0.612469 0.520042 0.724398
Si Si2 0.387294 0.688892 0.474817
Si Si3 0.209499 0.393550 0.331828
Si Si4 0.794791 0.598948 0.533166
Si Si5 0.387805 0.186039 0.159550
O O1 0.500000 0.550065 0.715507
O O2 0.676542 0.598054 0.686023
O O3 0.644138 0.529683 0.792461
O O4 0.634245 0.406748 0.702505
O O5 0.500000 0.667881 0.491936
O O6 0.318530 0.622020 0.516880
O O7 0.363957 0.807409 0.484420
O O8 0.364642 0.656100 0.407814
O O9 0.194816 0.425396 0.398527
O O10 0.179670 0.278063 0.319813
O O11 0.833645 0.500000 0.500000
O O12 0.500000 0.222158 0.164166
#
# Coordination Sequence:
#
# PCOD8263010 Si02
#       5
#    16  16  16  16  16
#     4  10  21  36  55  78 103 139 184 220 263 327
#     4   9  19  35  55  80 111 147 182 217 266 327
#     4  10  21  35  56  82 111 141 177 228 278 316
#     4  10  20  35  56  82 111 142 180 225 272 321
#     4   9  18  36  58  79 110 147 178 217 272 328
#
# _framework density 19.489861999999999
#
# number of rings (size 3 to 8) (size 9 to 14) (size 15 to 20)
#    0.000    2.400    0.000    1.800    0.000    5.600 
#    0.000    0.000    0.000    6.000    0.000    0.000 
#    0.000    0.000    0.000    0.000    0.000    0.000 
#
# Total GULP energy -496058.471646 kJ/mol
# GULP energy per Si atom -12401.461791 kJ/mol
# Density = 1.944550 g / cm^3
# Si number density = 19.489862 Si / 1000 Ang^3
#
#
#
# Elastic Constant Matrix: (Units=GPa)
#
#
# Indices 1 2 3 4 5 6 
#
# 1 96.4577 37.2727 16.6403 0.0000 0.0000 0.0000
# 2 37.2727 88.2574 52.6689 0.0000 0.0000 0.0000
# 3 16.6403 52.6689 90.3621 0.0000 0.0000 0.0000
# 4 0.0000 0.0000 0.0000 36.9977 0.0000 0.0000
# 5 0.0000 0.0000 0.0000 0.0000 26.8422 0.0000
# 6 0.0000 0.0000 0.0000 0.0000 0.0000 30.9452
#
#
#
# Elastic Compliance Matrix: (Units=1/GPa)
#
#
# Indices 1 2 3 4 5 6 
#
# 1 0.012471 -0.005974 0.001186 0.000000 0.000000 0.000000
# 2 -0.005974 0.020236 -0.010694 0.000000 0.000000 0.000000
# 3 0.001186 -0.010694 0.017082 0.000000 0.000000 0.000000
# 4 0.000000 0.000000 0.000000 0.027029 0.000000 0.000000
# 5 0.000000 0.000000 0.000000 0.000000 0.037255 0.000000
# 6 0.000000 0.000000 0.000000 0.000000 0.000000 0.032315
#
#
# Mechanical properties :
#
#
# Convention : Reuss Voigt Hill
#
# Bulk Modulus (GPa) = 53.12870 54.24900 53.68885
# Shear Modulus (GPa) = 27.22900 30.19004 28.70952
#
# Velocity S-wave (km/s) = 3.74182 3.94002 3.84220
# Velocity P-wave (km/s) = 6.78138 6.97088 6.87678
#
# Compressibility (1/GPa) = 0.01882222
#
# Stress axis : x y z
#
# Youngs Moduli (GPa) = 80.18416 49.41773 58.54233
#
# Poissons Ratio (x) = 0.29524 -0.06941
# Poissons Ratio (y) = 0.47905 0.62608
# Poissons Ratio (z) = -0.09507 0.52850
#
# Static dielectric constant tensor:
#      x y z
#    x 3.615120 0.000000 0.000000 
#    y 0.000000 3.441080 0.000000 
#    z 0.000000 0.000000 3.622130 
# 
# 
# High freq. dielectric constant tensor:
#      x y z
#    x 1.758990 0.000000 0.000000 
#    y 0.000000 1.753560 0.000000 
#    z 0.000000 0.000000 1.760180 
# 
# From -- ./inp_files/44937.got.cif
#   From: 2010.03.12/outbox.cif.g09.slc.cpg/sg64_23_cif.got.tgz:44937.got - 2010.04.10 20:19:32.
