data_PCOD8263330
_publ_section_title
;
Structure prediction by ZEFSAII (Michael W. Deem and Ramdas Pophale) SiO2 
 PCOD8263330
Probable space group: C M C A
;
_chemical_formula_sum "Si O2"
_cell_formula_units_Z 112
_cell_length_a 14.949049
_cell_length_b 25.266891
_cell_length_c 14.379757
_cell_angle_alpha 90.000000
_cell_angle_beta 90.000000
_cell_angle_gamma 90.000000
_cell_volume 5431.464175
_symmetry_space_group_name_H-M "C M C A"
_symmetry_group_IT_number 64
_symmetry_cell_setting 'orthorhombic'
loop_
_space_group_symop_operation_xyz
x,y,z
-x,1/2-y,1/2+z
x,-y,-z
-x,1/2+y,1/2-z
-x,-y,-z
x,1/2+y,1/2-z
-x,y,z
x,1/2-y,1/2+z
1/2+x,1/2+y,z
1/2-x,-y,1/2+z
1/2+x,1/2-y,-z
1/2-x,y,1/2-z
1/2-x,1/2-y,-z
1/2+x,y,1/2-z
1/2-x,1/2+y,z
1/2+x,-y,1/2+z
loop_
_atom_site_type_symbol
_atom_site_label
_atom_site_fract_x
_atom_site_fract_y
_atom_site_fract_z
Si Si1 0.818916 0.092498 0.332814
Si Si2 0.898246 0.794788 0.628999
Si Si3 0.400071 0.824717 0.070697
Si Si4 0.897812 0.482827 0.164364
Si Si5 0.726322 0.579444 0.540974
Si Si6 0.651356 0.696061 0.763632
Si Si7 0.399709 0.588289 0.841765
O O1 0.750000 0.098644 0.250000
O O2 0.874664 0.146347 0.338622
O O3 0.768011 0.080967 0.429641
O O4 0.885893 0.044423 0.309590
O O5 0.880841 0.788259 0.518650
O O6 0.839721 0.750067 0.678276
O O7 0.000000 0.783108 0.655805
O O8 0.500000 0.849632 0.060541
O O9 0.326618 0.870156 0.080461
O O10 0.394281 0.790083 0.164383
O O11 0.830371 0.470391 0.079232
O O12 0.872328 0.446620 0.252537
O O13 0.000000 0.472608 0.133355
O O14 0.828302 0.577426 0.576952
O O15 0.750000 0.673115 0.750000
O O16 0.596464 0.650365 0.815850
O O17 0.500000 0.572716 0.875958
#
# Coordination Sequence:
#
# PCOD8263330 Si02
#       7
#    16  16  16  16  16  16  16
#     4  11  24  42  60  86 126 170 210 250 306 373
#     4  10  23  40  59  87 124 164 206 255 308 368
#     4  10  20  37  60  90 123 155 200 254 306 358
#     4  11  22  38  67  99 125 156 201 259 314 367
#     4  11  21  39  63  93 123 159 206 257 308 366
#     4  12  21  38  64  89 125 161 206 258 312 367
#     4  11  22  39  64  97 128 159 205 262 315 364
#
# _framework density 20.620591000000001
#
# number of rings (size 3 to 8) (size 9 to 14) (size 15 to 20)
#    0.000    1.143    2.857    4.286    0.000    2.857 
#    2.571    1.429    0.000    3.429    0.000    0.000 
#    0.000    0.000    0.000    0.000    0.000    0.000 
#
# Total GULP energy -694444.701304 kJ/mol
# GULP energy per Si atom -12400.798238 kJ/mol
# Density = 2.057366 g / cm^3
# Si number density = 20.620591 Si / 1000 Ang^3
#
#
#
# Elastic Constant Matrix: (Units=GPa)
#
#
# Indices 1 2 3 4 5 6 
#
# 1 106.3576 6.8485 41.1262 0.0000 0.0000 0.0000
# 2 6.8485 101.9020 31.0031 0.0000 0.0000 0.0000
# 3 41.1262 31.0031 107.5668 0.0000 0.0000 0.0000
# 4 0.0000 0.0000 0.0000 26.4921 0.0000 0.0000
# 5 0.0000 0.0000 0.0000 0.0000 19.3996 0.0000
# 6 0.0000 0.0000 0.0000 0.0000 0.0000 48.1060
#
#
#
# Elastic Compliance Matrix: (Units=1/GPa)
#
#
# Indices 1 2 3 4 5 6 
#
# 1 0.011066 0.000596 -0.004403 0.000000 0.000000 0.000000
# 2 0.000596 0.010789 -0.003337 0.000000 0.000000 0.000000
# 3 -0.004403 -0.003337 0.011942 0.000000 0.000000 0.000000
# 4 0.000000 0.000000 0.000000 0.037747 0.000000 0.000000
# 5 0.000000 0.000000 0.000000 0.000000 0.051547 0.000000
# 6 0.000000 0.000000 0.000000 0.000000 0.000000 0.020787
#
#
# Mechanical properties :
#
#
# Convention : Reuss Voigt Hill
#
# Bulk Modulus (GPa) = 51.26051 52.64246 51.95148
# Shear Modulus (GPa) = 30.36376 34.58943 32.47660
#
# Velocity S-wave (km/s) = 3.84148 4.10008 3.97288
# Velocity P-wave (km/s) = 6.67748 6.92811 6.80395
#
# Compressibility (1/GPa) = 0.01950820
#
# Stress axis : x y z
#
# Youngs Moduli (GPa) = 90.36424 92.68984 83.73994
#
# Poissons Ratio (x) = -0.05522 0.36868
# Poissons Ratio (y) = -0.05384 0.27947
# Poissons Ratio (z) = 0.39785 0.30933
#
# Static dielectric constant tensor:
#      x y z
#    x 3.699830 0.000000 0.000000 
#    y 0.000000 3.614420 0.000000 
#    z 0.000000 0.000000 3.752220 
# 
# 
# High freq. dielectric constant tensor:
#      x y z
#    x 1.809340 0.000000 0.000000 
#    y 0.000000 1.800540 0.000000 
#    z 0.000000 0.000000 1.804420 
# 
# From -- ./inp_files/24180.got.cif
#   From: 2010.03.12/outbox.cif.g09.slc.cpg/sg64_13_cif.got.tgz:24180.got - 2010.04.10 20:19:32.
