data_PCOD8263602
_publ_section_title
;
Structure prediction by ZEFSAII (Michael W. Deem and Ramdas Pophale) SiO2 
 PCOD8263602
Probable space group: C M C A
;
_chemical_formula_sum "Si O2"
_cell_formula_units_Z 80
_cell_length_a 9.019377
_cell_length_b 28.268535
_cell_length_c 20.321439
_cell_angle_alpha 90.000000
_cell_angle_beta 90.000000
_cell_angle_gamma 90.000000
_cell_volume 5181.247046
_symmetry_space_group_name_H-M "C M C A"
_symmetry_group_IT_number 64
_symmetry_cell_setting 'orthorhombic'
loop_
_space_group_symop_operation_xyz
x,y,z
-x,1/2-y,1/2+z
x,-y,-z
-x,1/2+y,1/2-z
-x,-y,-z
x,1/2+y,1/2-z
-x,y,z
x,1/2-y,1/2+z
1/2+x,1/2+y,z
1/2-x,-y,1/2+z
1/2+x,1/2-y,-z
1/2-x,y,1/2-z
1/2-x,1/2-y,-z
1/2+x,y,1/2-z
1/2-x,1/2+y,z
1/2+x,-y,1/2+z
loop_
_atom_site_type_symbol
_atom_site_label
_atom_site_fract_x
_atom_site_fract_y
_atom_site_fract_z
Si Si1 0.665443 0.137340 0.042388
Si Si2 0.324395 0.729618 0.064929
Si Si3 0.835348 0.115903 0.600124
Si Si4 0.325134 0.701791 0.681790
Si Si5 0.174435 0.553744 0.509434
O O1 0.500000 0.134606 0.073384
O O2 0.762692 0.176855 0.078815
O O3 0.746119 0.085773 0.046915
O O4 0.653941 0.150070 0.964413
O O5 0.500000 0.727891 0.054797
O O6 0.275910 0.759830 0.128129
O O7 0.250000 0.750000 0.000000
O O8 0.773807 0.149050 0.658713
O O9 0.726866 0.071844 0.582410
O O10 0.000000 0.096280 0.616935
O O11 0.500000 0.702317 0.691100
O O12 0.250000 0.715106 0.750000
O O13 0.225706 0.500000 0.500000
O O14 0.000000 0.559600 0.502838
#
# Coordination Sequence:
#
# PCOD8263602 Si02
#       5
#    16  16  16  16  16
#     4   9  17  28  43  65  92 121 154 190 233 278
#     4  11  19  30  48  68  93 122 158 197 235 279
#     4   8  16  30  44  63  93 123 156 192 232 283
#     4  10  21  34  46  67  96 128 163 198 235 286
#     4   9  16  26  43  69  96 119 149 188 233 280
#
# _framework density 15.440299
#
# number of rings (size 3 to 8) (size 9 to 14) (size 15 to 20)
#    1.200    1.400    2.000    1.200    0.000    4.000 
#    0.000    0.000    0.000    0.000    0.000    1.400 
#    0.000    9.600    0.000    0.000    0.000    0.000 
#
# Total GULP energy -495522.078573 kJ/mol
# GULP energy per Si atom -12388.051964 kJ/mol
# Density = 1.540516 g / cm^3
# Si number density = 15.440299 Si / 1000 Ang^3
#
#
#
# Elastic Constant Matrix: (Units=GPa)
#
#
# Indices 1 2 3 4 5 6 
#
# 1 82.3820 59.0797 32.2077 0.0000 0.0000 0.0000
# 2 59.0797 129.1145 46.7062 0.0000 0.0000 0.0000
# 3 32.2077 46.7062 71.3558 0.0000 0.0000 0.0000
# 4 0.0000 0.0000 0.0000 17.4673 0.0000 0.0000
# 5 0.0000 0.0000 0.0000 0.0000 20.4251 0.0000
# 6 0.0000 0.0000 0.0000 0.0000 0.0000 27.1898
#
#
#
# Elastic Compliance Matrix: (Units=1/GPa)
#
#
# Indices 1 2 3 4 5 6 
#
# 1 0.018800 -0.007249 -0.003741 0.000000 0.000000 0.000000
# 2 -0.007249 0.012943 -0.005200 0.000000 0.000000 0.000000
# 3 -0.003741 -0.005200 0.019106 0.000000 0.000000 0.000000
# 4 0.000000 0.000000 0.000000 0.057250 0.000000 0.000000
# 5 0.000000 0.000000 0.000000 0.000000 0.048959 0.000000
# 6 0.000000 0.000000 0.000000 0.000000 0.000000 0.036779
#
#
# Mechanical properties :
#
#
# Convention : Reuss Voigt Hill
#
# Bulk Modulus (GPa) = 54.14266 62.09326 58.11796
# Shear Modulus (GPa) = 21.51716 22.67369 22.09542
#
# Velocity S-wave (km/s) = 3.73711 3.83623 3.78699
# Velocity P-wave (km/s) = 7.33234 7.74109 7.53949
#
# Compressibility (1/GPa) = 0.01846972
#
# Stress axis : x y z
#
# Youngs Moduli (GPa) = 53.19247 77.26105 52.33874
#
# Poissons Ratio (x) = 0.56008 0.19578
# Poissons Ratio (y) = 0.38560 0.27216
# Poissons Ratio (z) = 0.19897 0.40175
#
# Static dielectric constant tensor:
#      x y z
#    x 2.946550 0.000000 0.000000 
#    y 0.000000 2.933270 0.000000 
#    z 0.000000 0.000000 2.622320 
# 
# 
# High freq. dielectric constant tensor:
#      x y z
#    x 1.602670 0.000000 0.000000 
#    y 0.000000 1.586560 0.000000 
#    z 0.000000 0.000000 1.540520 
# 
# From -- ./inp_files/29814.got.cif
#   From: 2010.03.12/outbox.cif.g09.slc.cpg/sg64_15_cif.got.tgz:29814.got - 2010.04.10 20:19:32.
