data_PCOD8263123
_publ_section_title
;
Structure prediction by ZEFSAII (Michael W. Deem and Ramdas Pophale) SiO2 
 PCOD8263123
Probable space group: C M C A
;
_chemical_formula_sum "Si O2"
_cell_formula_units_Z 64
_cell_length_a 27.158472
_cell_length_b 25.046855
_cell_length_c 4.978028
_cell_angle_alpha 90.000000
_cell_angle_beta 90.000000
_cell_angle_gamma 90.000000
_cell_volume 3386.225443
_symmetry_space_group_name_H-M "C M C A"
_symmetry_group_IT_number 64
_symmetry_cell_setting 'orthorhombic'
loop_
_space_group_symop_operation_xyz
x,y,z
-x,1/2-y,1/2+z
x,-y,-z
-x,1/2+y,1/2-z
-x,-y,-z
x,1/2+y,1/2-z
-x,y,z
x,1/2-y,1/2+z
1/2+x,1/2+y,z
1/2-x,-y,1/2+z
1/2+x,1/2-y,-z
1/2-x,y,1/2-z
1/2-x,1/2-y,-z
1/2+x,y,1/2-z
1/2-x,1/2+y,z
1/2+x,-y,1/2+z
loop_
_atom_site_type_symbol
_atom_site_label
_atom_site_fract_x
_atom_site_fract_y
_atom_site_fract_z
Si Si1 0.750000 0.537038 0.750000
Si Si2 0.500000 0.961864 0.746979
Si Si3 0.154759 0.396515 0.112607
Si Si4 0.896438 0.560960 0.405450
Si Si5 0.192374 0.282900 0.231128
O O1 0.761205 0.500000 0.500000
O O2 0.797024 0.574036 0.784347
O O3 0.450153 0.927072 0.725787
O O4 0.500000 0.000000 0.500000
O O5 0.500000 0.000000 0.000000
O O6 0.110309 0.405148 0.323656
O O7 0.163893 0.333531 0.111882
O O8 0.142588 0.420395 0.819474
O O9 0.888583 0.500000 0.500000
O O10 0.177661 0.265672 0.531785
O O11 0.250000 0.295813 0.250000
#
# Coordination Sequence:
#
# PCOD8263123 Si02
#       5
#     8   8  16  16  16
#     4  12  24  34  48  76 118 152 178 206 262 340
#     4  10  20  36  56  80 110 148 190 234 272 312
#     4  12  22  37  55  83 111 152 185 225 280 334
#     4  11  22  36  57  82 116 148 187 228 272 335
#     4  10  21  38  58  79 107 144 193 245 278 315
#
# _framework density 18.900100999999999
#
# number of rings (size 3 to 8) (size 9 to 14) (size 15 to 20)
#    0.000    1.000    1.250    9.000    0.000    0.000 
#    0.000    0.000    0.000    0.000    0.000   17.500 
#    0.000    0.000    0.000    0.000    0.000    0.000 
#
# Total GULP energy -396670.228166 kJ/mol
# GULP energy per Si atom -12395.944630 kJ/mol
# Density = 1.885708 g / cm^3
# Si number density = 18.900101 Si / 1000 Ang^3
#
#
#
# Elastic Constant Matrix: (Units=GPa)
#
#
# Indices 1 2 3 4 5 6 
#
# 1 70.4735 36.0726 18.8786 0.0000 0.0000 0.0000
# 2 36.0726 100.7360 35.2501 0.0000 0.0000 0.0000
# 3 18.8786 35.2501 119.0811 0.0000 0.0000 0.0000
# 4 0.0000 0.0000 0.0000 14.7050 0.0000 0.0000
# 5 0.0000 0.0000 0.0000 0.0000 30.5190 0.0000
# 6 0.0000 0.0000 0.0000 0.0000 0.0000 8.2667
#
#
#
# Elastic Compliance Matrix: (Units=1/GPa)
#
#
# Indices 1 2 3 4 5 6 
#
# 1 0.017486 -0.005903 -0.001025 0.000000 0.000000 0.000000
# 2 -0.005903 0.013067 -0.002932 0.000000 0.000000 0.000000
# 3 -0.001025 -0.002932 0.009428 0.000000 0.000000 0.000000
# 4 0.000000 0.000000 0.000000 0.068004 0.000000 0.000000
# 5 0.000000 0.000000 0.000000 0.000000 0.032766 0.000000
# 6 0.000000 0.000000 0.000000 0.000000 0.000000 0.120968
#
#
# Mechanical properties :
#
#
# Convention : Reuss Voigt Hill
#
# Bulk Modulus (GPa) = 49.35611 52.29924 50.82767
# Shear Modulus (GPa) = 17.34954 24.03742 20.69348
#
# Velocity S-wave (km/s) = 3.03307 3.57012 3.31250
# Velocity P-wave (km/s) = 6.19975 6.68774 6.44836
#
# Compressibility (1/GPa) = 0.02026092
#
# Stress axis : x y z
#
# Youngs Moduli (GPa) = 57.18957 76.53013 106.06622
#
# Poissons Ratio (x) = 0.45175 0.10869
# Poissons Ratio (y) = 0.33758 0.31100
# Poissons Ratio (z) = 0.05861 0.22440
#
# Static dielectric constant tensor:
#      x y z
#    x 2.400660 0.000000 0.000000 
#    y 0.000000 3.288260 0.000000 
#    z 0.000000 0.000000 3.718800 
# 
# 
# High freq. dielectric constant tensor:
#      x y z
#    x 1.720050 0.000000 0.000000 
#    y 0.000000 1.710460 0.000000 
#    z 0.000000 0.000000 1.762670 
# 
# From -- ./inp_files/2735.got.cif
#   From: 2010.03.12/outbox.cif.g09.slc.cpg/sg64_2_cif.got.tgz:2735.got - 2010.04.10 20:19:32.
