data_PCOD8263902
_publ_section_title
;
Structure prediction by ZEFSAII (Michael W. Deem and Ramdas Pophale) SiO2 
 PCOD8263902
Probable space group: C M C A
;
_chemical_formula_sum "Si O2"
_cell_formula_units_Z 88
_cell_length_a 31.754166
_cell_length_b 13.249805
_cell_length_c 10.453787
_cell_angle_alpha 90.000000
_cell_angle_beta 90.000000
_cell_angle_gamma 90.000000
_cell_volume 4398.289832
_symmetry_space_group_name_H-M "C M C A"
_symmetry_group_IT_number 64
_symmetry_cell_setting 'orthorhombic'
loop_
_space_group_symop_operation_xyz
x,y,z
-x,1/2-y,1/2+z
x,-y,-z
-x,1/2+y,1/2-z
-x,-y,-z
x,1/2+y,1/2-z
-x,y,z
x,1/2-y,1/2+z
1/2+x,1/2+y,z
1/2-x,-y,1/2+z
1/2+x,1/2-y,-z
1/2-x,y,1/2-z
1/2-x,1/2-y,-z
1/2+x,y,1/2-z
1/2-x,1/2+y,z
1/2+x,-y,1/2+z
loop_
_atom_site_type_symbol
_atom_site_label
_atom_site_fract_x
_atom_site_fract_y
_atom_site_fract_z
Si Si1 0.951154 0.327506 0.938402
Si Si2 0.910451 0.764384 0.806529
Si Si3 0.657816 0.889254 0.192195
Si Si4 0.223221 0.730100 0.373652
Si Si5 0.151745 0.432989 0.620822
Si Si6 0.396520 0.000000 0.000000
O O1 0.944847 0.266053 0.806800
O O2 0.927557 0.433795 0.911402
O O3 0.000000 0.345884 0.962780
O O4 0.932265 0.273229 0.063635
O O5 0.874056 0.692325 0.746170
O O6 0.889682 0.873425 0.833992
O O7 0.701840 0.836495 0.160797
O O8 0.634117 0.920606 0.064634
O O9 0.667285 0.988646 0.272844
O O10 0.250000 0.694848 0.250000
O O11 0.250000 0.750000 0.500000
O O12 0.189451 0.644315 0.409435
O O13 0.139363 0.500000 0.500000
#
# Coordination Sequence:
#
# PCOD8263902 Si02
#       6
#    16  16  16  16  16   8
#     4  11  21  38  62  94 128 161 199 261 315 355
#     4  10  22  39  64  92 126 163 213 250 300 385
#     4  10  22  40  64  87 119 165 207 248 304 366
#     4  11  26  42  60  94 130 155 206 266 312 370
#     4  11  22  40  67  88 121 171 209 251 310 371
#     4  10  21  38  64  86 116 166 220 234 296 388
#
# _framework density 20.007777000000001
#
# number of rings (size 3 to 8) (size 9 to 14) (size 15 to 20)
#    0.000    1.455    1.818    3.000    2.545    5.091 
#    0.000    0.000    0.000    2.182    0.000    0.000 
#    0.000    0.000    0.000    0.000    0.000    0.000 
#
# Total GULP energy -545389.728773 kJ/mol
# GULP energy per Si atom -12395.221108 kJ/mol
# Density = 1.996224 g / cm^3
# Si number density = 20.007777 Si / 1000 Ang^3
#
#
#
# Elastic Constant Matrix: (Units=GPa)
#
#
# Indices 1 2 3 4 5 6 
#
# 1 81.3609 16.7957 21.3799 0.0000 0.0000 0.0000
# 2 16.7957 77.3128 2.9860 0.0000 0.0000 0.0000
# 3 21.3799 2.9860 84.1327 0.0000 0.0000 0.0000
# 4 0.0000 0.0000 0.0000 31.2999 0.0000 0.0000
# 5 0.0000 0.0000 0.0000 0.0000 32.3161 0.0000
# 6 0.0000 0.0000 0.0000 0.0000 0.0000 25.5503
#
#
#
# Elastic Compliance Matrix: (Units=1/GPa)
#
#
# Indices 1 2 3 4 5 6 
#
# 1 0.013775 -0.002861 -0.003399 0.000000 0.000000 0.000000
# 2 -0.002861 0.013547 0.000246 0.000000 0.000000 0.000000
# 3 -0.003399 0.000246 0.012741 0.000000 0.000000 0.000000
# 4 0.000000 0.000000 0.000000 0.031949 0.000000 0.000000
# 5 0.000000 0.000000 0.000000 0.000000 0.030944 0.000000
# 6 0.000000 0.000000 0.000000 0.000000 0.000000 0.039139
#
#
# Mechanical properties :
#
#
# Convention : Reuss Voigt Hill
#
# Bulk Modulus (GPa) = 35.67013 36.12549 35.89781
# Shear Modulus (GPa) = 30.58731 31.27625 30.93178
#
# Velocity S-wave (km/s) = 3.91419 3.95803 3.93617
# Velocity P-wave (km/s) = 6.18827 6.24363 6.21601
#
# Compressibility (1/GPa) = 0.02803466
#
# Stress axis : x y z
#
# Youngs Moduli (GPa) = 72.59676 73.81963 78.48694
#
# Poissons Ratio (x) = 0.21121 0.26677
# Poissons Ratio (y) = 0.20771 -0.01933
# Poissons Ratio (z) = 0.24675 -0.01818
#
# Static dielectric constant tensor:
#      x y z
#    x 3.593120 0.000000 0.000000 
#    y 0.000000 4.052360 0.000000 
#    z 0.000000 0.000000 2.974110 
# 
# 
# High freq. dielectric constant tensor:
#      x y z
#    x 1.778860 0.000000 0.000000 
#    y 0.000000 1.792810 0.000000 
#    z 0.000000 0.000000 1.781430 
# 
# From -- ./inp_files/19697.got.cif
#   From: 2010.03.12/outbox.cif.g09.slc.cpg/sg64_10_cif.got.tgz:19697.got - 2010.04.10 20:19:32.
