data_PCOD8263817
_publ_section_title
;
Structure prediction by ZEFSAII (Michael W. Deem and Ramdas Pophale) SiO2 
 PCOD8263817
Probable space group: C M C A
;
_chemical_formula_sum "Si O2"
_cell_formula_units_Z 96
_cell_length_a 8.929633
_cell_length_b 22.549986
_cell_length_c 23.344733
_cell_angle_alpha 90.000000
_cell_angle_beta 90.000000
_cell_angle_gamma 90.000000
_cell_volume 4700.767785
_symmetry_space_group_name_H-M "C M C A"
_symmetry_group_IT_number 64
_symmetry_cell_setting 'orthorhombic'
loop_
_space_group_symop_operation_xyz
x,y,z
-x,1/2-y,1/2+z
x,-y,-z
-x,1/2+y,1/2-z
-x,-y,-z
x,1/2+y,1/2-z
-x,y,z
x,1/2-y,1/2+z
1/2+x,1/2+y,z
1/2-x,-y,1/2+z
1/2+x,1/2-y,-z
1/2-x,y,1/2-z
1/2-x,1/2-y,-z
1/2+x,y,1/2-z
1/2-x,1/2+y,z
1/2+x,-y,1/2+z
loop_
_atom_site_type_symbol
_atom_site_label
_atom_site_fract_x
_atom_site_fract_y
_atom_site_fract_z
Si Si1 0.323807 0.085509 0.307565
Si Si2 0.325121 0.821384 0.311097
Si Si3 0.330022 0.361817 0.522563
Si Si4 0.671572 0.021354 0.093122
Si Si5 0.324901 0.599714 0.917427
Si Si6 0.823151 0.696254 0.138716
O O1 0.500000 0.088895 0.301004
O O2 0.250000 0.061438 0.250000
O O3 0.280066 0.037947 0.355068
O O4 0.261409 0.150645 0.320595
O O5 0.500000 0.817393 0.299652
O O6 0.250000 0.833013 0.250000
O O7 0.285670 0.874303 0.354808
O O8 0.270089 0.760944 0.341410
O O9 0.500000 0.348293 0.504139
O O10 0.314390 0.429378 0.544214
O O11 0.222946 0.353727 0.467306
O O12 0.278688 0.315992 0.572395
O O13 0.500000 0.016719 0.114077
O O14 0.727631 0.958498 0.070073
O O15 0.500000 0.586192 0.922857
O O16 0.000000 0.685695 0.146021
#
# Coordination Sequence:
#
# PCOD8263817 Si02
#       6
#    16  16  16  16  16  16
#     4  11  21  34  55  84 114 145 186 235 286 337
#     4  10  23  41  59  81 112 151 191 232 277 328
#     4   9  19  36  59  85 112 144 183 229 284 340
#     4  10  21  38  58  81 112 150 190 233 284 338
#     4  11  23  37  55  83 117 150 188 233 278 331
#     4   9  19  38  60  83 113 146 184 232 283 333
#
# _framework density 20.422197000000001
#
# number of rings (size 3 to 8) (size 9 to 14) (size 15 to 20)
#    0.000    2.000    0.000    4.500    0.000   10.000 
#    0.000    1.667    0.000    0.000    0.000    0.000 
#    0.000    0.000    0.000    0.000    0.000    0.000 
#
# Total GULP energy -595251.553560 kJ/mol
# GULP energy per Si atom -12401.074032 kJ/mol
# Density = 2.037572 g / cm^3
# Si number density = 20.422197 Si / 1000 Ang^3
#
#
#
# Elastic Constant Matrix: (Units=GPa)
#
#
# Indices 1 2 3 4 5 6 
#
# 1 79.8045 16.4000 38.6307 0.0000 0.0000 0.0000
# 2 16.4000 43.7064 19.0386 0.0000 0.0000 0.0000
# 3 38.6307 19.0386 113.0579 0.0000 0.0000 0.0000
# 4 0.0000 0.0000 0.0000 13.8873 0.0000 0.0000
# 5 0.0000 0.0000 0.0000 0.0000 38.7402 0.0000
# 6 0.0000 0.0000 0.0000 0.0000 0.0000 26.3661
#
#
#
# Elastic Compliance Matrix: (Units=1/GPa)
#
#
# Indices 1 2 3 4 5 6 
#
# 1 0.015579 -0.003806 -0.004682 0.000000 0.000000 0.000000
# 2 -0.003806 0.025621 -0.003014 0.000000 0.000000 0.000000
# 3 -0.004682 -0.003014 0.010952 0.000000 0.000000 0.000000
# 4 0.000000 0.000000 0.000000 0.072008 0.000000 0.000000
# 5 0.000000 0.000000 0.000000 0.000000 0.025813 0.000000
# 6 0.000000 0.000000 0.000000 0.000000 0.000000 0.037928
#
#
# Mechanical properties :
#
#
# Convention : Reuss Voigt Hill
#
# Bulk Modulus (GPa) = 34.30789 42.74528 38.52659
# Shear Modulus (GPa) = 22.66315 26.63202 24.64759
#
# Velocity S-wave (km/s) = 3.33488 3.61511 3.47782
# Velocity P-wave (km/s) = 5.62711 6.19690 5.91887
#
# Compressibility (1/GPa) = 0.02914782
#
# Stress axis : x y z
#
# Youngs Moduli (GPa) = 64.18743 39.03042 91.30356
#
# Poissons Ratio (x) = 0.14856 0.42752
# Poissons Ratio (y) = 0.24431 0.27518
# Poissons Ratio (z) = 0.30055 0.11764
#
# Static dielectric constant tensor:
#      x y z
#    x 3.577880 0.000000 0.000000 
#    y 0.000000 3.591670 0.000000 
#    z 0.000000 0.000000 3.759700 
# 
# 
# High freq. dielectric constant tensor:
#      x y z
#    x 1.794990 0.000000 0.000000 
#    y 0.000000 1.786910 0.000000 
#    z 0.000000 0.000000 1.808450 
# 
# From -- ./inp_files/42996.got.cif
#   From: 2010.03.12/outbox.cif.g09.slc.cpg/sg64_22_cif.got.tgz:42996.got - 2010.04.10 20:19:32.
