data_PCOD8263460
_publ_section_title
;
Structure prediction by ZEFSAII (Michael W. Deem and Ramdas Pophale) SiO2 
 PCOD8263460
Probable space group: C M C A
;
_chemical_formula_sum "Si O2"
_cell_formula_units_Z 88
_cell_length_a 14.574903
_cell_length_b 28.057961
_cell_length_c 10.364016
_cell_angle_alpha 90.000000
_cell_angle_beta 90.000000
_cell_angle_gamma 90.000000
_cell_volume 4238.282052
_symmetry_space_group_name_H-M "C M C A"
_symmetry_group_IT_number 64
_symmetry_cell_setting 'orthorhombic'
loop_
_space_group_symop_operation_xyz
x,y,z
-x,1/2-y,1/2+z
x,-y,-z
-x,1/2+y,1/2-z
-x,-y,-z
x,1/2+y,1/2-z
-x,y,z
x,1/2-y,1/2+z
1/2+x,1/2+y,z
1/2-x,-y,1/2+z
1/2+x,1/2-y,-z
1/2-x,y,1/2-z
1/2-x,1/2-y,-z
1/2+x,y,1/2-z
1/2-x,1/2+y,z
1/2+x,-y,1/2+z
loop_
_atom_site_type_symbol
_atom_site_label
_atom_site_fract_x
_atom_site_fract_y
_atom_site_fract_z
Si Si1 0.500000 0.795648 0.195987
Si Si2 0.750000 0.357984 0.750000
Si Si3 0.155860 0.638279 0.856737
Si Si4 0.703175 0.301816 0.002972
Si Si5 0.103458 0.589016 0.107208
Si Si6 0.500000 0.771310 0.463519
Si Si7 0.750000 0.052628 0.750000
Si Si8 0.791816 0.500000 0.000000
O O1 0.590128 0.826794 0.221583
O O2 0.500000 0.756144 0.311223
O O3 0.500000 0.774730 0.053103
O O4 0.728027 0.324755 0.868428
O O5 0.837206 0.392008 0.773368
O O6 0.165441 0.588542 0.778648
O O7 0.254184 0.664975 0.882236
O O8 0.107282 0.627541 0.992700
O O9 0.750000 0.250000 0.000000
O O10 0.592852 0.300946 0.011177
O O11 0.000000 0.581966 0.155484
O O12 0.142667 0.538968 0.061144
O O13 0.769138 0.021490 0.880545
#
# Coordination Sequence:
#
# PCOD8263460 Si02
#       8
#     8   8  16  16  16   8   8   8
#     4  12  24  42  62  96 126 178 222 272 320 372
#     4  10  25  39  66  90 134 170 216 271 335 364
#     4  10  21  41  64  91 128 171 220 258 319 387
#     4  11  24  42  61  96 127 178 218 275 318 383
#     4  10  20  38  65  96 126 165 211 265 317 398
#     4  12  28  38  66  88 132 167 230 271 322 374
#     4  10  21  39  68  92 132 164 214 265 319 400
#     4  10  21  38  66 101 124 166 209 264 336 385
#
# _framework density 20.76313
#
# number of rings (size 3 to 8) (size 9 to 14) (size 15 to 20)
#    0.000    1.455    2.727    1.909    3.818    0.727 
#    0.000    0.000    0.000    0.545    0.000    0.000 
#    0.000    0.000    0.000    0.000    0.000    0.000 
#
# Total GULP energy -545344.918316 kJ/mol
# GULP energy per Si atom -12394.202689 kJ/mol
# Density = 2.071587 g / cm^3
# Si number density = 20.763130 Si / 1000 Ang^3
#
#
#
# Elastic Constant Matrix: (Units=GPa)
#
#
# Indices 1 2 3 4 5 6 
#
# 1 157.3134 49.6999 53.4420 0.0000 0.0000 0.0000
# 2 49.6999 115.7876 63.0251 0.0000 0.0000 0.0000
# 3 53.4420 63.0251 125.1163 0.0000 0.0000 0.0000
# 4 0.0000 0.0000 0.0000 45.7101 0.0000 0.0000
# 5 0.0000 0.0000 0.0000 0.0000 23.3715 0.0000
# 6 0.0000 0.0000 0.0000 0.0000 0.0000 6.9986
#
#
#
# Elastic Compliance Matrix: (Units=1/GPa)
#
#
# Indices 1 2 3 4 5 6 
#
# 1 0.007794 -0.002112 -0.002265 0.000000 0.000000 0.000000
# 2 -0.002112 0.012472 -0.005380 0.000000 0.000000 0.000000
# 3 -0.002265 -0.005380 0.011670 0.000000 0.000000 0.000000
# 4 0.000000 0.000000 0.000000 0.021877 0.000000 0.000000
# 5 0.000000 0.000000 0.000000 0.000000 0.042787 0.000000
# 6 0.000000 0.000000 0.000000 0.000000 0.000000 0.142886
#
#
# Mechanical properties :
#
#
# Convention : Reuss Voigt Hill
#
# Bulk Modulus (GPa) = 80.51144 81.17239 80.84191
# Shear Modulus (GPa) = 19.00128 30.68606 24.84367
#
# Velocity S-wave (km/s) = 3.02842 3.84853 3.46284
# Velocity P-wave (km/s) = 7.14764 7.67643 7.41675
#
# Compressibility (1/GPa) = 0.01242060
#
# Stress axis : x y z
#
# Youngs Moduli (GPa) = 128.31184 80.18142 85.68935
#
# Poissons Ratio (x) = 0.16938 0.19407
# Poissons Ratio (y) = 0.27106 0.46102
# Poissons Ratio (z) = 0.29060 0.43138
#
# Static dielectric constant tensor:
#      x y z
#    x 3.807790 0.000000 0.000000 
#    y 0.000000 3.919120 0.000000 
#    z 0.000000 0.000000 4.030950 
# 
# 
# High freq. dielectric constant tensor:
#      x y z
#    x 1.804820 0.000000 0.000000 
#    y 0.000000 1.815160 0.000000 
#    z 0.000000 0.000000 1.823760 
# 
# From -- ./inp_files/14817.got.cif
#   From: 2010.03.12/outbox.cif.g09.slc.cpg/sg64_8_cif.got.tgz:14817.got - 2010.04.10 20:19:32.
