data_PCOD8263450
_publ_section_title
;
Structure prediction by ZEFSAII (Michael W. Deem and Ramdas Pophale) SiO2 
 PCOD8263450
Probable space group: C M C A
;
_chemical_formula_sum "Si O2"
_cell_formula_units_Z 80
_cell_length_a 19.030358
_cell_length_b 15.280908
_cell_length_c 12.442243
_cell_angle_alpha 90.000000
_cell_angle_beta 90.000000
_cell_angle_gamma 90.000000
_cell_volume 3618.218571
_symmetry_space_group_name_H-M "C M C A"
_symmetry_group_IT_number 64
_symmetry_cell_setting 'orthorhombic'
loop_
_space_group_symop_operation_xyz
x,y,z
-x,1/2-y,1/2+z
x,-y,-z
-x,1/2+y,1/2-z
-x,-y,-z
x,1/2+y,1/2-z
-x,y,z
x,1/2-y,1/2+z
1/2+x,1/2+y,z
1/2-x,-y,1/2+z
1/2+x,1/2-y,-z
1/2-x,y,1/2-z
1/2-x,1/2-y,-z
1/2+x,y,1/2-z
1/2-x,1/2+y,z
1/2+x,-y,1/2+z
loop_
_atom_site_type_symbol
_atom_site_label
_atom_site_fract_x
_atom_site_fract_y
_atom_site_fract_z
Si Si1 0.676098 0.327952 0.462753
Si Si2 0.921576 0.588302 0.299615
Si Si3 0.921313 0.742299 0.135799
Si Si4 0.919326 0.398058 0.208431
Si Si5 0.281829 0.657601 0.133492
O O1 0.627603 0.262498 0.532557
O O2 0.628974 0.397327 0.397981
O O3 0.716314 0.262960 0.380749
O O4 0.730806 0.380088 0.539565
O O5 0.916610 0.649204 0.195221
O O6 0.907878 0.488784 0.267864
O O7 0.859619 0.615763 0.381254
O O8 0.000000 0.598200 0.351915
O O9 0.895141 0.819102 0.214517
O O10 0.000000 0.762591 0.096790
O O11 0.000000 0.385281 0.172208
O O12 0.250000 0.634524 0.250000
#
# Coordination Sequence:
#
# PCOD8263450 Si02
#       5
#    16  16  16  16  16
#     4  11  21  37  67  91 124 170 212 261 315 390
#     4  10  21  40  65  89 126 167 206 264 318 374
#     4  10  20  38  64  92 125 162 206 268 322 372
#     4  10  21  39  65  96 127 166 215 260 319 387
#     4  11  22  41  62  89 129 166 209 260 319 377
#
# _framework density 22.110329
#
# number of rings (size 3 to 8) (size 9 to 14) (size 15 to 20)
#    0.000    1.600    4.000    0.600    0.000    1.600 
#    0.000   11.000    0.000    3.600    0.000    0.000 
#    0.000    0.000    0.000    0.000    0.000    0.000 
#
# Total GULP energy -495934.278919 kJ/mol
# GULP energy per Si atom -12398.356973 kJ/mol
# Density = 2.206000 g / cm^3
# Si number density = 22.110329 Si / 1000 Ang^3
#
#
#
# Elastic Constant Matrix: (Units=GPa)
#
#
# Indices 1 2 3 4 5 6 
#
# 1 155.8273 29.6181 60.8933 0.0000 0.0000 0.0000
# 2 29.6181 63.6747 20.2163 0.0000 0.0000 0.0000
# 3 60.8933 20.2163 66.9680 0.0000 0.0000 0.0000
# 4 0.0000 0.0000 0.0000 13.7717 0.0000 0.0000
# 5 0.0000 0.0000 0.0000 0.0000 44.6720 0.0000
# 6 0.0000 0.0000 0.0000 0.0000 0.0000 27.3289
#
#
#
# Elastic Compliance Matrix: (Units=1/GPa)
#
#
# Indices 1 2 3 4 5 6 
#
# 1 0.010177 -0.001986 -0.008654 0.000000 0.000000 0.000000
# 2 -0.001986 0.017757 -0.003555 0.000000 0.000000 0.000000
# 3 -0.008654 -0.003555 0.023875 0.000000 0.000000 0.000000
# 4 0.000000 0.000000 0.000000 0.072613 0.000000 0.000000
# 5 0.000000 0.000000 0.000000 0.000000 0.022385 0.000000
# 6 0.000000 0.000000 0.000000 0.000000 0.000000 0.036591
#
#
# Mechanical properties :
#
#
# Convention : Reuss Voigt Hill
#
# Bulk Modulus (GPa) = 42.70023 56.43615 49.56819
# Shear Modulus (GPa) = 22.76939 28.87068 25.82004
#
# Velocity S-wave (km/s) = 3.21254 3.61744 3.42099
# Velocity P-wave (km/s) = 5.75455 6.55958 6.17021
#
# Compressibility (1/GPa) = 0.02341908
#
# Stress axis : x y z
#
# Youngs Moduli (GPa) = 98.26481 56.31514 41.88569
#
# Poissons Ratio (x) = 0.11185 0.36248
# Poissons Ratio (y) = 0.19516 0.14889
# Poissons Ratio (z) = 0.85038 0.20018
#
# Static dielectric constant tensor:
#      x y z
#    x 4.569310 0.000000 0.000000 
#    y 0.000000 3.673650 0.000000 
#    z 0.000000 0.000000 3.707260 
# 
# 
# High freq. dielectric constant tensor:
#      x y z
#    x 1.893940 0.000000 0.000000 
#    y 0.000000 1.847240 0.000000 
#    z 0.000000 0.000000 1.848530 
# 
# From -- ./inp_files/18057.got.cif
#   From: 2010.03.12/outbox.cif.g09.slc.cpg/sg64_10_cif.got.tgz:18057.got - 2010.04.10 20:19:32.
