data_PCOD8263354
_publ_section_title
;
Structure prediction by ZEFSAII (Michael W. Deem and Ramdas Pophale) SiO2 
 PCOD8263354
Probable space group: C M C A
;
_chemical_formula_sum "Si O2"
_cell_formula_units_Z 96
_cell_length_a 18.931521
_cell_length_b 15.573750
_cell_length_c 16.065770
_cell_angle_alpha 90.000000
_cell_angle_beta 90.000000
_cell_angle_gamma 90.000000
_cell_volume 4736.747686
_symmetry_space_group_name_H-M "C M C A"
_symmetry_group_IT_number 64
_symmetry_cell_setting 'orthorhombic'
loop_
_space_group_symop_operation_xyz
x,y,z
-x,1/2-y,1/2+z
x,-y,-z
-x,1/2+y,1/2-z
-x,-y,-z
x,1/2+y,1/2-z
-x,y,z
x,1/2-y,1/2+z
1/2+x,1/2+y,z
1/2-x,-y,1/2+z
1/2+x,1/2-y,-z
1/2-x,y,1/2-z
1/2-x,1/2-y,-z
1/2+x,y,1/2-z
1/2-x,1/2+y,z
1/2+x,-y,1/2+z
loop_
_atom_site_type_symbol
_atom_site_label
_atom_site_fract_x
_atom_site_fract_y
_atom_site_fract_z
Si Si1 0.418946 0.597510 0.172568
Si Si2 0.420447 0.821908 0.845821
Si Si3 0.833481 0.524246 0.092403
Si Si4 0.801230 0.802646 0.115667
Si Si5 0.323590 0.954037 0.257582
Si Si6 0.291472 0.646584 0.071120
O O1 0.500000 0.583052 0.144345
O O2 0.414250 0.667098 0.246251
O O3 0.386435 0.505078 0.198003
O O4 0.372822 0.634818 0.097220
O O5 0.500000 0.804732 0.873659
O O6 0.393802 0.908513 0.886410
O O7 0.377070 0.742035 0.880733
O O8 0.842015 0.444107 0.157886
O O9 0.754908 0.564820 0.097906
O O10 0.852428 0.500000 0.000000
O O11 0.801669 0.866872 0.194433
O O12 0.739277 0.731006 0.118122
O O13 0.790630 0.851602 0.028871
O O14 0.250000 0.008866 0.250000
#
# Coordination Sequence:
#
# PCOD8263354 Si02
#       6
#    16  16  16  16  16  16
#     4  10  22  40  61  85 120 165 203 245 311 377
#     4   9  21  40  58  84 126 165 199 251 313 371
#     4  10  20  37  63  90 120 155 208 259 301 367
#     4  10  23  36  62  90 121 160 206 254 311 375
#     4  11  21  36  62  89 114 155 204 253 304 359
#     4  10  21  40  58  89 126 156 199 259 313 366
#
# _framework density 20.267071000000001
#
# number of rings (size 3 to 8) (size 9 to 14) (size 15 to 20)
#    0.000    2.000    1.667    1.000    2.333    1.667 
#    0.000    0.833    0.000    0.000    0.000    0.000 
#    0.000    0.000    0.000    0.000    0.000    0.000 
#
# Total GULP energy -594643.873569 kJ/mol
# GULP energy per Si atom -12388.414033 kJ/mol
# Density = 2.022094 g / cm^3
# Si number density = 20.267071 Si / 1000 Ang^3
#
#
#
# Elastic Constant Matrix: (Units=GPa)
#
#
# Indices 1 2 3 4 5 6 
#
# 1 132.2258 25.2541 38.5489 0.0000 0.0000 0.0000
# 2 25.2541 71.0637 56.2349 0.0000 0.0000 0.0000
# 3 38.5489 56.2349 133.1059 0.0000 0.0000 0.0000
# 4 0.0000 0.0000 0.0000 29.4646 0.0000 0.0000
# 5 0.0000 0.0000 0.0000 0.0000 29.4445 0.0000
# 6 0.0000 0.0000 0.0000 0.0000 0.0000 7.4559
#
#
#
# Elastic Compliance Matrix: (Units=1/GPa)
#
#
# Indices 1 2 3 4 5 6 
#
# 1 0.008378 -0.001588 -0.001755 0.000000 0.000000 0.000000
# 2 -0.001588 0.021440 -0.008598 0.000000 0.000000 0.000000
# 3 -0.001755 -0.008598 0.011654 0.000000 0.000000 0.000000
# 4 0.000000 0.000000 0.000000 0.033939 0.000000 0.000000
# 5 0.000000 0.000000 0.000000 0.000000 0.033962 0.000000
# 6 0.000000 0.000000 0.000000 0.000000 0.000000 0.134122
#
#
# Mechanical properties :
#
#
# Convention : Reuss Voigt Hill
#
# Bulk Modulus (GPa) = 56.85541 64.05237 60.45389
# Shear Modulus (GPa) = 18.29885 27.69683 22.99784
#
# Velocity S-wave (km/s) = 3.00807 3.70076 3.37224
# Velocity P-wave (km/s) = 6.33866 7.06637 6.71238
#
# Compressibility (1/GPa) = 0.01758847
#
# Stress axis : x y z
#
# Youngs Moduli (GPa) = 119.36156 46.64111 85.80924
#
# Poissons Ratio (x) = 0.07408 0.15062
# Poissons Ratio (y) = 0.18957 0.73780
# Poissons Ratio (z) = 0.20952 0.40103
#
# Static dielectric constant tensor:
#      x y z
#    x 3.700430 0.000000 0.000000 
#    y 0.000000 3.511480 0.000000 
#    z 0.000000 0.000000 3.826150 
# 
# 
# High freq. dielectric constant tensor:
#      x y z
#    x 1.788460 0.000000 0.000000 
#    y 0.000000 1.770620 0.000000 
#    z 0.000000 0.000000 1.801970 
# 
# From -- ./inp_files/26307.got.cif
#   From: 2010.03.12/outbox.cif.g09.slc.cpg/sg64_14_cif.got.tgz:26307.got - 2010.04.10 20:19:32.
