data_PCOD8263191
_publ_section_title
;
Structure prediction by ZEFSAII (Michael W. Deem and Ramdas Pophale) SiO2 
 PCOD8263191
Probable space group: C M C A
;
_chemical_formula_sum "Si O2"
_cell_formula_units_Z 72
_cell_length_a 11.714192
_cell_length_b 27.390902
_cell_length_c 11.449063
_cell_angle_alpha 90.000000
_cell_angle_beta 90.000000
_cell_angle_gamma 90.000000
_cell_volume 3673.572516
_symmetry_space_group_name_H-M "C M C A"
_symmetry_group_IT_number 64
_symmetry_cell_setting 'orthorhombic'
loop_
_space_group_symop_operation_xyz
x,y,z
-x,1/2-y,1/2+z
x,-y,-z
-x,1/2+y,1/2-z
-x,-y,-z
x,1/2+y,1/2-z
-x,y,z
x,1/2-y,1/2+z
1/2+x,1/2+y,z
1/2-x,-y,1/2+z
1/2+x,1/2-y,-z
1/2-x,y,1/2-z
1/2-x,1/2-y,-z
1/2+x,y,1/2-z
1/2-x,1/2+y,z
1/2+x,-y,1/2+z
loop_
_atom_site_type_symbol
_atom_site_label
_atom_site_fract_x
_atom_site_fract_y
_atom_site_fract_z
Si Si1 0.127924 0.264773 0.181850
Si Si2 0.750000 0.395212 0.750000
Si Si3 0.201275 0.866226 0.375252
Si Si4 0.629562 0.448372 0.540079
Si Si5 0.873482 0.833952 0.932482
O O1 0.250000 0.261614 0.250000
O O2 0.118708 0.319273 0.130720
O O3 0.138353 0.224528 0.080386
O O4 0.000000 0.256188 0.244375
O O5 0.695031 0.429435 0.652963
O O6 0.840809 0.359478 0.689614
O O7 0.250000 0.882343 0.250000
O O8 0.133630 0.911091 0.431558
O O9 0.305676 0.852171 0.457023
O O10 0.683886 0.500000 0.500000
O O11 0.500000 0.456542 0.578745
O O12 0.000000 0.850000 0.962498
#
# Coordination Sequence:
#
# PCOD8263191 Si02
#       5
#    16   8  16  16  16
#     4  10  20  36  58  88 123 159 198 239 293 353
#     4  10  20  38  62  84 118 146 196 236 296 344
#     4  10  22  37  57  84 118 155 192 241 294 348
#     4  10  22  39  61  84 110 148 194 244 294 346
#     4  10  20  36  59  87 120 157 195 238 288 352
#
# _framework density 19.599450000000001
#
# number of rings (size 3 to 8) (size 9 to 14) (size 15 to 20)
#    0.000    2.000    1.111    2.000    1.556    4.444 
#    0.000    1.111    0.000    3.333    0.000    0.000 
#    0.000    0.000    0.000    0.000    0.000    0.000 
#
# Total GULP energy -446019.182134 kJ/mol
# GULP energy per Si atom -12389.421726 kJ/mol
# Density = 1.955484 g / cm^3
# Si number density = 19.599450 Si / 1000 Ang^3
#
#
#
# Elastic Constant Matrix: (Units=GPa)
#
#
# Indices 1 2 3 4 5 6 
#
# 1 122.1923 21.1601 26.6021 0.0000 0.0000 0.0000
# 2 21.1601 114.0636 39.8970 0.0000 0.0000 0.0000
# 3 26.6021 39.8970 101.8149 0.0000 0.0000 0.0000
# 4 0.0000 0.0000 0.0000 25.7176 0.0000 0.0000
# 5 0.0000 0.0000 0.0000 0.0000 19.4946 0.0000
# 6 0.0000 0.0000 0.0000 0.0000 0.0000 29.6512
#
#
#
# Elastic Compliance Matrix: (Units=1/GPa)
#
#
# Indices 1 2 3 4 5 6 
#
# 1 0.008766 -0.000956 -0.001916 0.000000 0.000000 0.000000
# 2 -0.000956 0.010264 -0.003772 0.000000 0.000000 0.000000
# 3 -0.001916 -0.003772 0.011800 0.000000 0.000000 0.000000
# 4 0.000000 0.000000 0.000000 0.038884 0.000000 0.000000
# 5 0.000000 0.000000 0.000000 0.000000 0.051296 0.000000
# 6 0.000000 0.000000 0.000000 0.000000 0.000000 0.033725
#
#
# Mechanical properties :
#
#
# Convention : Reuss Voigt Hill
#
# Bulk Modulus (GPa) = 57.00433 57.04322 57.02377
# Shear Modulus (GPa) = 28.75677 31.66678 30.21178
#
# Velocity S-wave (km/s) = 3.83459 4.02393 3.93040
# Velocity P-wave (km/s) = 6.98235 7.12440 7.05373
#
# Compressibility (1/GPa) = 0.01754253
#
# Stress axis : x y z
#
# Youngs Moduli (GPa) = 114.07074 97.42949 84.74251
#
# Poissons Ratio (x) = 0.09316 0.16235
# Poissons Ratio (y) = 0.10907 0.31966
# Poissons Ratio (z) = 0.21854 0.36752
#
# Static dielectric constant tensor:
#      x y z
#    x 3.730430 0.000000 0.000000 
#    y 0.000000 3.870470 0.000000 
#    z 0.000000 0.000000 3.442710 
# 
# 
# High freq. dielectric constant tensor:
#      x y z
#    x 1.773870 0.000000 0.000000 
#    y 0.000000 1.769710 0.000000 
#    z 0.000000 0.000000 1.749650 
# 
# From -- ./inp_files/13059.got.cif
#   From: 2010.03.12/outbox.cif.g09.slc.cpg/sg64_7_cif.got.tgz:13059.got - 2010.04.10 20:19:32.
