data_PCOD8263399
_publ_section_title
;
Structure prediction by ZEFSAII (Michael W. Deem and Ramdas Pophale) SiO2 
 PCOD8263399
Probable space group: C M C A
;
_chemical_formula_sum "Si O2"
_cell_formula_units_Z 64
_cell_length_a 15.548969
_cell_length_b 11.392087
_cell_length_c 17.089736
_cell_angle_alpha 90.000000
_cell_angle_beta 90.000000
_cell_angle_gamma 90.000000
_cell_volume 3027.193934
_symmetry_space_group_name_H-M "C M C A"
_symmetry_group_IT_number 64
_symmetry_cell_setting 'orthorhombic'
loop_
_space_group_symop_operation_xyz
x,y,z
-x,1/2-y,1/2+z
x,-y,-z
-x,1/2+y,1/2-z
-x,-y,-z
x,1/2+y,1/2-z
-x,y,z
x,1/2-y,1/2+z
1/2+x,1/2+y,z
1/2-x,-y,1/2+z
1/2+x,1/2-y,-z
1/2-x,y,1/2-z
1/2-x,1/2-y,-z
1/2+x,y,1/2-z
1/2-x,1/2+y,z
1/2+x,-y,1/2+z
loop_
_atom_site_type_symbol
_atom_site_label
_atom_site_fract_x
_atom_site_fract_y
_atom_site_fract_z
Si Si1 0.734816 0.000000 0.000000
Si Si2 0.904474 0.575165 0.747210
Si Si3 0.341661 0.883639 0.633062
Si Si4 0.750000 0.262047 0.250000
Si Si5 0.094834 0.856781 0.419821
O O1 0.799507 0.968795 0.930241
O O2 0.671837 0.108255 0.978303
O O3 0.894273 0.453979 0.699781
O O4 0.830957 0.663447 0.719672
O O5 0.893738 0.563988 0.841283
O O6 0.000000 0.625397 0.729104
O O7 0.264210 0.817103 0.674743
O O8 0.402232 0.783409 0.595814
O O9 0.000000 0.881828 0.455983
#
# Coordination Sequence:
#
# PCOD8263399 Si02
#       5
#     8  16  16   8  16
#     4  12  23  38  57  84 120 160 192 230 286 350
#     4  10  21  39  63  88 113 147 196 248 294 342
#     4  11  21  38  59  84 116 153 192 238 291 348
#     4  10  20  38  60  86 114 150 194 244 294 346
#     4  10  22  39  59  84 115 151 193 241 289 342
#
# _framework density 21.141691999999999
#
# number of rings (size 3 to 8) (size 9 to 14) (size 15 to 20)
#    0.000    1.500    0.000    7.125    0.000    1.000 
#    0.000    7.500    0.000    0.000    0.000    0.000 
#    0.000    0.000    0.000    0.000    0.000    0.000 
#
# Total GULP energy -396586.698911 kJ/mol
# GULP energy per Si atom -12393.334341 kJ/mol
# Density = 2.109357 g / cm^3
# Si number density = 21.141692 Si / 1000 Ang^3
#
#
#
# Elastic Constant Matrix: (Units=GPa)
#
#
# Indices 1 2 3 4 5 6 
#
# 1 129.7382 33.5053 29.9347 0.0000 0.0000 0.0000
# 2 33.5053 84.0561 22.6554 0.0000 0.0000 0.0000
# 3 29.9347 22.6554 45.6658 0.0000 0.0000 0.0000
# 4 0.0000 0.0000 0.0000 34.4628 0.0000 0.0000
# 5 0.0000 0.0000 0.0000 0.0000 26.3329 0.0000
# 6 0.0000 0.0000 0.0000 0.0000 0.0000 4.4430
#
#
#
# Elastic Compliance Matrix: (Units=1/GPa)
#
#
# Indices 1 2 3 4 5 6 
#
# 1 0.009493 -0.002432 -0.005016 0.000000 0.000000 0.000000
# 2 -0.002432 0.014356 -0.005528 0.000000 0.000000 0.000000
# 3 -0.005016 -0.005528 0.027929 0.000000 0.000000 0.000000
# 4 0.000000 0.000000 0.000000 0.029017 0.000000 0.000000
# 5 0.000000 0.000000 0.000000 0.000000 0.037975 0.000000
# 6 0.000000 0.000000 0.000000 0.000000 0.000000 0.225075
#
#
# Mechanical properties :
#
#
# Convention : Reuss Voigt Hill
#
# Bulk Modulus (GPa) = 38.72132 47.96120 43.34126
# Shear Modulus (GPa) = 13.21327 24.60538 18.90932
#
# Velocity S-wave (km/s) = 2.50268 3.41520 2.99391
# Velocity P-wave (km/s) = 5.16780 6.18759 5.70055
#
# Compressibility (1/GPa) = 0.02582557
#
# Stress axis : x y z
#
# Youngs Moduli (GPa) = 105.33665 69.65633 35.80486
#
# Poissons Ratio (x) = 0.16941 0.17961
# Poissons Ratio (y) = 0.25618 0.19793
# Poissons Ratio (z) = 0.52842 0.38506
#
# Static dielectric constant tensor:
#      x y z
#    x 3.872500 0.000000 0.000000 
#    y 0.000000 3.773590 0.000000 
#    z 0.000000 0.000000 3.773520 
# 
# 
# High freq. dielectric constant tensor:
#      x y z
#    x 1.842950 0.000000 0.000000 
#    y 0.000000 1.820220 0.000000 
#    z 0.000000 0.000000 1.814830 
# 
# From -- ./inp_files/24936.got.cif
#   From: 2010.03.12/outbox.cif.g09.slc.cpg/sg64_13_cif.got.tgz:24936.got - 2010.04.10 20:19:32.
