data_PCOD8263598
_publ_section_title
;
Structure prediction by ZEFSAII (Michael W. Deem and Ramdas Pophale) SiO2 
 PCOD8263598
Probable space group: C M C A
;
_chemical_formula_sum "Si O2"
_cell_formula_units_Z 80
_cell_length_a 23.876882
_cell_length_b 11.207472
_cell_length_c 14.894323
_cell_angle_alpha 90.000000
_cell_angle_beta 90.000000
_cell_angle_gamma 90.000000
_cell_volume 3985.713186
_symmetry_space_group_name_H-M "C M C A"
_symmetry_group_IT_number 64
_symmetry_cell_setting 'orthorhombic'
loop_
_space_group_symop_operation_xyz
x,y,z
-x,1/2-y,1/2+z
x,-y,-z
-x,1/2+y,1/2-z
-x,-y,-z
x,1/2+y,1/2-z
-x,y,z
x,1/2-y,1/2+z
1/2+x,1/2+y,z
1/2-x,-y,1/2+z
1/2+x,1/2-y,-z
1/2-x,y,1/2-z
1/2-x,1/2-y,-z
1/2+x,y,1/2-z
1/2-x,1/2+y,z
1/2+x,-y,1/2+z
loop_
_atom_site_type_symbol
_atom_site_label
_atom_site_fract_x
_atom_site_fract_y
_atom_site_fract_z
Si Si1 0.767031 0.040479 0.151453
Si Si2 0.149498 0.246110 0.144186
Si Si3 0.643507 0.648392 0.837264
Si Si4 0.695601 0.823719 0.970142
Si Si5 0.935688 0.537452 0.398460
O O1 0.750000 0.998347 0.250000
O O2 0.794349 0.170307 0.157949
O O3 0.716264 0.052655 0.078478
O O4 0.809813 0.939913 0.119750
O O5 0.144814 0.325558 0.232137
O O6 0.097117 0.158096 0.128146
O O7 0.157816 0.337139 0.060083
O O8 0.653149 0.765156 0.896969
O O9 0.584484 0.579974 0.845122
O O10 0.750000 0.750000 0.000000
O O11 0.925364 0.500000 0.500000
O O12 0.000000 0.562423 0.375416
#
# Coordination Sequence:
#
# PCOD8263598 Si02
#       5
#    16  16  16  16  16
#     4  10  21  33  52  80 118 158 193 233 286 351
#     4  10  21  38  58  85 116 157 202 246 298 361
#     4  11  22  38  56  86 120 156 202 247 295 364
#     4  10  21  35  52  81 119 156 195 233 291 346
#     4  10  21  40  65  89 114 152 206 266 313 355
#
# _framework density 20.07169
#
# number of rings (size 3 to 8) (size 9 to 14) (size 15 to 20)
#    0.000    1.800    4.000    0.000    5.600    0.800 
#    0.000    0.000    0.000    0.000    0.000    1.400 
#    0.000    0.000    0.000    0.000    0.000    0.000 
#
# Total GULP energy -495571.603815 kJ/mol
# GULP energy per Si atom -12389.290095 kJ/mol
# Density = 2.002601 g / cm^3
# Si number density = 20.071690 Si / 1000 Ang^3
#
#
#
# Elastic Constant Matrix: (Units=GPa)
#
#
# Indices 1 2 3 4 5 6 
#
# 1 85.9961 32.3107 43.5216 0.0000 0.0000 0.0000
# 2 32.3107 56.1686 36.2380 0.0000 0.0000 0.0000
# 3 43.5216 36.2380 155.1780 0.0000 0.0000 0.0000
# 4 0.0000 0.0000 0.0000 33.0449 0.0000 0.0000
# 5 0.0000 0.0000 0.0000 0.0000 24.5453 0.0000
# 6 0.0000 0.0000 0.0000 0.0000 0.0000 22.8781
#
#
#
# Elastic Compliance Matrix: (Units=1/GPa)
#
#
# Indices 1 2 3 4 5 6 
#
# 1 0.015746 -0.007310 -0.002709 0.000000 0.000000 0.000000
# 2 -0.007310 0.024355 -0.003637 0.000000 0.000000 0.000000
# 3 -0.002709 -0.003637 0.008053 0.000000 0.000000 0.000000
# 4 0.000000 0.000000 0.000000 0.030262 0.000000 0.000000
# 5 0.000000 0.000000 0.000000 0.000000 0.040741 0.000000
# 6 0.000000 0.000000 0.000000 0.000000 0.000000 0.043710
#
#
# Mechanical properties :
#
#
# Convention : Reuss Voigt Hill
#
# Bulk Modulus (GPa) = 47.98057 57.94258 52.96158
# Shear Modulus (GPa) = 25.36424 28.44514 26.90469
#
# Velocity S-wave (km/s) = 3.55869 3.76863 3.66516
# Velocity P-wave (km/s) = 6.39079 6.91861 6.65993
#
# Compressibility (1/GPa) = 0.02084177
#
# Stress axis : x y z
#
# Youngs Moduli (GPa) = 63.50812 41.05876 124.17063
#
# Poissons Ratio (x) = 0.30014 0.33639
# Poissons Ratio (y) = 0.46425 0.45166
# Poissons Ratio (z) = 0.17205 0.14935
#
# Static dielectric constant tensor:
#      x y z
#    x 3.552970 0.000000 0.000000 
#    y 0.000000 3.547850 0.000000 
#    z 0.000000 0.000000 3.946260 
# 
# 
# High freq. dielectric constant tensor:
#      x y z
#    x 1.745330 0.000000 0.000000 
#    y 0.000000 1.773720 0.000000 
#    z 0.000000 0.000000 1.805880 
# 
# From -- ./inp_files/27042.got.cif
#   From: 2010.03.12/outbox.cif.g09.slc.cpg/sg64_14_cif.got.tgz:27042.got - 2010.04.10 20:19:32.
