data_PCOD8263790
_publ_section_title
;
Structure prediction by ZEFSAII (Michael W. Deem and Ramdas Pophale) SiO2 
 PCOD8263790
Probable space group: C M C A
;
_chemical_formula_sum "Si O2"
_cell_formula_units_Z 112
_cell_length_a 15.607674
_cell_length_b 22.650207
_cell_length_c 15.141496
_cell_angle_alpha 90.000000
_cell_angle_beta 90.000000
_cell_angle_gamma 90.000000
_cell_volume 5352.776951
_symmetry_space_group_name_H-M "C M C A"
_symmetry_group_IT_number 64
_symmetry_cell_setting 'orthorhombic'
loop_
_space_group_symop_operation_xyz
x,y,z
-x,1/2-y,1/2+z
x,-y,-z
-x,1/2+y,1/2-z
-x,-y,-z
x,1/2+y,1/2-z
-x,y,z
x,1/2-y,1/2+z
1/2+x,1/2+y,z
1/2-x,-y,1/2+z
1/2+x,1/2-y,-z
1/2-x,y,1/2-z
1/2-x,1/2-y,-z
1/2+x,y,1/2-z
1/2-x,1/2+y,z
1/2+x,-y,1/2+z
loop_
_atom_site_type_symbol
_atom_site_label
_atom_site_fract_x
_atom_site_fract_y
_atom_site_fract_z
Si Si1 0.095974 0.177768 0.103361
Si Si2 0.400790 0.741269 0.755973
Si Si3 0.402186 0.848669 0.881223
Si Si4 0.193036 0.872282 0.175050
Si Si5 0.848506 0.580772 0.268204
Si Si6 0.255718 0.680704 0.508543
Si Si7 0.601348 0.018168 0.599728
O O1 0.117754 0.239364 0.154030
O O2 0.097328 0.127138 0.175770
O O3 0.000000 0.180289 0.061399
O O4 0.164986 0.158909 0.031140
O O5 0.500000 0.731582 0.771263
O O6 0.370069 0.793506 0.821450
O O7 0.356700 0.679835 0.775876
O O8 0.500000 0.841296 0.913960
O O9 0.392399 0.911413 0.828718
O O10 0.338842 0.848434 0.964275
O O11 0.250000 0.905423 0.250000
O O12 0.259235 0.842025 0.107896
O O13 0.130310 0.915681 0.122025
O O14 0.750000 0.596941 0.250000
O O15 0.856892 0.519410 0.320294
O O16 0.250000 0.750000 0.500000
O O17 0.500000 0.012681 0.604960
O O18 0.632338 0.000000 0.500000
#
# Coordination Sequence:
#
# PCOD8263790 Si02
#       7
#    16  16  16  16  16  16  16
#     4  10  21  37  62  98 129 164 213 264 323 383
#     4   9  19  36  59  89 131 170 202 252 319 387
#     4  10  21  38  62  95 130 169 218 267 318 377
#     4  12  25  41  61  89 130 171 210 261 330 395
#     4  11  20  38  68  95 126 161 212 272 323 383
#     4  12  23  38  62  94 130 173 218 265 318 386
#     4  11  25  44  66  94 125 164 218 275 329 391
#
# _framework density 20.923718000000001
#
# number of rings (size 3 to 8) (size 9 to 14) (size 15 to 20)
#    0.000    1.286    2.857    4.714    0.000    2.857 
#    0.000    1.429    0.000    0.000    0.000    3.000 
#    0.000    0.000    0.000    0.000    0.000    0.000 
#
# Total GULP energy -693945.517423 kJ/mol
# GULP energy per Si atom -12391.884240 kJ/mol
# Density = 2.087609 g / cm^3
# Si number density = 20.923718 Si / 1000 Ang^3
#
#
#
# Elastic Constant Matrix: (Units=GPa)
#
#
# Indices 1 2 3 4 5 6 
#
# 1 106.4813 18.7773 38.8334 0.0000 0.0000 0.0000
# 2 18.7773 79.7941 32.2333 0.0000 0.0000 0.0000
# 3 38.8334 32.2333 94.2717 0.0000 0.0000 0.0000
# 4 0.0000 0.0000 0.0000 30.2131 0.0000 0.0000
# 5 0.0000 0.0000 0.0000 0.0000 7.6712 0.0000
# 6 0.0000 0.0000 0.0000 0.0000 0.0000 24.7378
#
#
#
# Elastic Compliance Matrix: (Units=1/GPa)
#
#
# Indices 1 2 3 4 5 6 
#
# 1 0.011106 -0.000888 -0.004271 0.000000 0.000000 0.000000
# 2 -0.000888 0.014612 -0.004630 0.000000 0.000000 0.000000
# 3 -0.004271 -0.004630 0.013950 0.000000 0.000000 0.000000
# 4 0.000000 0.000000 0.000000 0.033098 0.000000 0.000000
# 5 0.000000 0.000000 0.000000 0.000000 0.130358 0.000000
# 6 0.000000 0.000000 0.000000 0.000000 0.000000 0.040424
#
#
# Mechanical properties :
#
#
# Convention : Reuss Voigt Hill
#
# Bulk Modulus (GPa) = 49.77914 51.13724 50.45819
# Shear Modulus (GPa) = 18.53072 25.23795 21.88433
#
# Velocity S-wave (km/s) = 2.97919 3.47679 3.23756
# Velocity P-wave (km/s) = 5.97298 6.37262 6.17603
#
# Compressibility (1/GPa) = 0.02008874
#
# Stress axis : x y z
#
# Youngs Moduli (GPa) = 90.04484 68.43862 71.68362
#
# Poissons Ratio (x) = 0.06078 0.30617
# Poissons Ratio (y) = 0.07996 0.33191
# Poissons Ratio (z) = 0.38459 0.31688
#
# Static dielectric constant tensor:
#      x y z
#    x 3.723320 0.000000 0.000000 
#    y 0.000000 3.665660 0.000000 
#    z 0.000000 0.000000 4.227770 
# 
# 
# High freq. dielectric constant tensor:
#      x y z
#    x 1.827310 0.000000 0.000000 
#    y 0.000000 1.798040 0.000000 
#    z 0.000000 0.000000 1.819280 
# 
# From -- ./inp_files/24187.got.cif
#   From: 2010.03.12/outbox.cif.g09.slc.cpg/sg64_13_cif.got.tgz:24187.got - 2010.04.10 20:19:32.
