data_PCOD8263616
_publ_section_title
;
Structure prediction by ZEFSAII (Michael W. Deem and Ramdas Pophale) SiO2 
 PCOD8263616
Probable space group: C M C A
;
_chemical_formula_sum "Si O2"
_cell_formula_units_Z 80
_cell_length_a 17.385181
_cell_length_b 24.914187
_cell_length_c 9.608642
_cell_angle_alpha 90.000000
_cell_angle_beta 90.000000
_cell_angle_gamma 90.000000
_cell_volume 4161.864620
_symmetry_space_group_name_H-M "C M C A"
_symmetry_group_IT_number 64
_symmetry_cell_setting 'orthorhombic'
loop_
_space_group_symop_operation_xyz
x,y,z
-x,1/2-y,1/2+z
x,-y,-z
-x,1/2+y,1/2-z
-x,-y,-z
x,1/2+y,1/2-z
-x,y,z
x,1/2-y,1/2+z
1/2+x,1/2+y,z
1/2-x,-y,1/2+z
1/2+x,1/2-y,-z
1/2-x,y,1/2-z
1/2-x,1/2-y,-z
1/2+x,y,1/2-z
1/2-x,1/2+y,z
1/2+x,-y,1/2+z
loop_
_atom_site_type_symbol
_atom_site_label
_atom_site_fract_x
_atom_site_fract_y
_atom_site_fract_z
Si Si1 0.695243 0.848423 0.551570
Si Si2 0.585506 0.877646 0.087648
Si Si3 0.409715 0.204099 0.670932
Si Si4 0.269461 0.552467 0.591506
Si Si5 0.645646 0.820956 0.838604
O O1 0.636090 0.812670 0.465691
O O2 0.710622 0.903879 0.470989
O O3 0.657534 0.858822 0.703226
O O4 0.774844 0.816104 0.574006
O O5 0.500000 0.899154 0.120780
O O6 0.612706 0.834881 0.202867
O O7 0.642795 0.927649 0.084695
O O8 0.583013 0.848362 0.938120
O O9 0.500000 0.202552 0.637701
O O10 0.383334 0.263433 0.713909
O O11 0.260397 0.500000 0.500000
O O12 0.250000 0.538747 0.750000
#
# Coordination Sequence:
#
# PCOD8263616 Si02
#       5
#    16  16  16  16  16
#     4  10  22  39  58  89 121 157 201 252 297 344
#     4  10  22  39  60  90 125 159 197 246 299 352
#     4  11  21  36  58  87 126 168 198 235 294 355
#     4  11  24  42  69  87 114 150 203 256 306 355
#     4  10  21  34  59  90 126 158 207 233 284 360
#
# _framework density 19.222154
#
# number of rings (size 3 to 8) (size 9 to 14) (size 15 to 20)
#    0.000    1.600    2.000    2.400    5.600    8.400 
#    0.000    0.000    0.000    1.200    0.000    0.000 
#    0.000    0.000    0.000    0.000    0.000    0.000 
#
# Total GULP energy -496069.342635 kJ/mol
# GULP energy per Si atom -12401.733566 kJ/mol
# Density = 1.917840 g / cm^3
# Si number density = 19.222154 Si / 1000 Ang^3
#
#
#
# Elastic Constant Matrix: (Units=GPa)
#
#
# Indices 1 2 3 4 5 6 
#
# 1 73.7107 33.1382 41.8777 0.0000 0.0000 0.0000
# 2 33.1382 91.0368 42.5430 0.0000 0.0000 0.0000
# 3 41.8777 42.5430 134.2632 0.0000 0.0000 0.0000
# 4 0.0000 0.0000 0.0000 33.3112 0.0000 0.0000
# 5 0.0000 0.0000 0.0000 0.0000 19.4136 0.0000
# 6 0.0000 0.0000 0.0000 0.0000 0.0000 17.1905
#
#
#
# Elastic Compliance Matrix: (Units=1/GPa)
#
#
# Indices 1 2 3 4 5 6 
#
# 1 0.017999 -0.004611 -0.004153 0.000000 0.000000 0.000000
# 2 -0.004611 0.014075 -0.003022 0.000000 0.000000 0.000000
# 3 -0.004153 -0.003022 0.009701 0.000000 0.000000 0.000000
# 4 0.000000 0.000000 0.000000 0.030020 0.000000 0.000000
# 5 0.000000 0.000000 0.000000 0.000000 0.051510 0.000000
# 6 0.000000 0.000000 0.000000 0.000000 0.000000 0.058172
#
#
# Mechanical properties :
#
#
# Convention : Reuss Voigt Hill
#
# Bulk Modulus (GPa) = 54.93412 59.34761 57.14087
# Shear Modulus (GPa) = 23.68366 26.07984 24.88175
#
# Velocity S-wave (km/s) = 3.51394 3.68742 3.60172
# Velocity P-wave (km/s) = 6.71597 7.00507 6.86204
#
# Compressibility (1/GPa) = 0.01820362
#
# Stress axis : x y z
#
# Youngs Moduli (GPa) = 55.55871 71.04738 103.08381
#
# Poissons Ratio (x) = 0.32760 0.42810
# Poissons Ratio (y) = 0.25618 0.31148
# Poissons Ratio (z) = 0.23073 0.21468
#
# Static dielectric constant tensor:
#      x y z
#    x 3.547830 0.000000 0.000000 
#    y 0.000000 3.261750 0.000000 
#    z 0.000000 0.000000 3.686630 
# 
# 
# High freq. dielectric constant tensor:
#      x y z
#    x 1.750550 0.000000 0.000000 
#    y 0.000000 1.722370 0.000000 
#    z 0.000000 0.000000 1.767830 
# 
# From -- ./inp_files/7065.got.cif
#   From: 2010.03.12/outbox.cif.g09.slc.cpg/sg64_4_cif.got.tgz:7065.got - 2010.04.10 20:19:32.
