data_PCOD8263764
_publ_section_title
;
Structure prediction by ZEFSAII (Michael W. Deem and Ramdas Pophale) SiO2 
 PCOD8263764
Probable space group: C M C A
;
_chemical_formula_sum "Si O2"
_cell_formula_units_Z 96
_cell_length_a 9.299549
_cell_length_b 26.582983
_cell_length_c 19.118356
_cell_angle_alpha 90.000000
_cell_angle_beta 90.000000
_cell_angle_gamma 90.000000
_cell_volume 4726.244064
_symmetry_space_group_name_H-M "C M C A"
_symmetry_group_IT_number 64
_symmetry_cell_setting 'orthorhombic'
loop_
_space_group_symop_operation_xyz
x,y,z
-x,1/2-y,1/2+z
x,-y,-z
-x,1/2+y,1/2-z
-x,-y,-z
x,1/2+y,1/2-z
-x,y,z
x,1/2-y,1/2+z
1/2+x,1/2+y,z
1/2-x,-y,1/2+z
1/2+x,1/2-y,-z
1/2-x,y,1/2-z
1/2-x,1/2-y,-z
1/2+x,y,1/2-z
1/2-x,1/2+y,z
1/2+x,-y,1/2+z
loop_
_atom_site_type_symbol
_atom_site_label
_atom_site_fract_x
_atom_site_fract_y
_atom_site_fract_z
Si Si1 0.168638 0.041183 0.176825
Si Si2 0.167093 0.794916 0.537559
Si Si3 0.167423 0.104488 0.046066
Si Si4 0.666183 0.549593 0.914116
Si Si5 0.666623 0.638789 0.816720
Si Si6 0.336869 0.748380 0.314896
O O1 0.250000 0.048701 0.250000
O O2 0.193519 0.089714 0.126928
O O3 0.000000 0.033946 0.193647
O O4 0.238149 0.994306 0.132863
O O5 0.250000 0.750000 0.500000
O O6 0.237728 0.848459 0.521410
O O7 0.183792 0.788113 0.620300
O O8 0.000000 0.794333 0.514482
O O9 0.000000 0.118168 0.032901
O O10 0.209975 0.056287 0.996135
O O11 0.500000 0.535544 0.910416
O O12 0.703413 0.604026 0.882217
O O13 0.500000 0.636674 0.797992
O O14 0.750000 0.617290 0.750000
O O15 0.717947 0.695452 0.834813
O O16 0.500000 0.751259 0.290126
O O17 0.250000 0.725534 0.250000
#
# Coordination Sequence:
#
# PCOD8263764 Si02
#       6
#    16  16  16  16  16  16
#     4  10  21  37  59  85 114 150 189 231 279 334
#     4  11  23  39  59  84 114 149 190 235 286 341
#     4  10  21  38  59  82 110 146 190 236 281 332
#     4   9  17  33  57  81 107 144 188 229 273 328
#     4   9  16  28  48  74 104 136 173 221 273 322
#     4   9  19  34  52  76 107 143 183 229 279 334
#
# _framework density 20.312113
#
# number of rings (size 3 to 8) (size 9 to 14) (size 15 to 20)
#    0.000    2.333    0.000    2.500    0.000    7.333 
#    0.000    8.333    0.000    2.000    0.000    0.000 
#    0.000    0.000    0.000    0.000    0.000    0.000 
#
# Total GULP energy -594934.179765 kJ/mol
# GULP energy per Si atom -12394.462078 kJ/mol
# Density = 2.026588 g / cm^3
# Si number density = 20.312113 Si / 1000 Ang^3
#
#
#
# Elastic Constant Matrix: (Units=GPa)
#
#
# Indices 1 2 3 4 5 6 
#
# 1 74.3941 42.2994 46.5689 0.0000 0.0000 0.0000
# 2 42.2994 77.9824 28.2263 0.0000 0.0000 0.0000
# 3 46.5689 28.2263 108.8031 0.0000 0.0000 0.0000
# 4 0.0000 0.0000 0.0000 11.2795 0.0000 0.0000
# 5 0.0000 0.0000 0.0000 0.0000 35.0343 0.0000
# 6 0.0000 0.0000 0.0000 0.0000 0.0000 26.6113
#
#
#
# Elastic Compliance Matrix: (Units=1/GPa)
#
#
# Indices 1 2 3 4 5 6 
#
# 1 0.024074 -0.010295 -0.007633 0.000000 0.000000 0.000000
# 2 -0.010295 0.018555 -0.000407 0.000000 0.000000 0.000000
# 3 -0.007633 -0.000407 0.012564 0.000000 0.000000 0.000000
# 4 0.000000 0.000000 0.000000 0.088656 0.000000 0.000000
# 5 0.000000 0.000000 0.000000 0.000000 0.028543 0.000000
# 6 0.000000 0.000000 0.000000 0.000000 0.000000 0.037578
#
#
# Mechanical properties :
#
#
# Convention : Reuss Voigt Hill
#
# Bulk Modulus (GPa) = 53.99114 55.04097 54.51606
# Shear Modulus (GPa) = 19.77731 24.19068 21.98400
#
# Velocity S-wave (km/s) = 3.12376 3.45476 3.29342
# Velocity P-wave (km/s) = 6.29674 6.56279 6.43114
#
# Compressibility (1/GPa) = 0.01852156
#
# Stress axis : x y z
#
# Youngs Moduli (GPa) = 41.53908 53.89324 79.59547
#
# Poissons Ratio (x) = 0.55485 0.60755
# Poissons Ratio (y) = 0.42766 0.03241
# Poissons Ratio (z) = 0.31707 0.02194
#
# Static dielectric constant tensor:
#      x y z
#    x 3.453240 0.000000 0.000000 
#    y 0.000000 3.660840 0.000000 
#    z 0.000000 0.000000 4.110550 
# 
# 
# High freq. dielectric constant tensor:
#      x y z
#    x 1.760630 0.000000 0.000000 
#    y 0.000000 1.792760 0.000000 
#    z 0.000000 0.000000 1.804850 
# 
# From -- ./inp_files/36976.got.cif
#   From: 2010.03.12/outbox.cif.g09.slc.cpg/sg64_19_cif.got.tgz:36976.got - 2010.04.10 20:19:32.
