data_PCOD8263101
_publ_section_title
;
Structure prediction by ZEFSAII (Michael W. Deem and Ramdas Pophale) SiO2 
 PCOD8263101
Probable space group: C M C A
;
_chemical_formula_sum "Si O2"
_cell_formula_units_Z 112
_cell_length_a 22.681479
_cell_length_b 10.936569
_cell_length_c 23.480265
_cell_angle_alpha 90.000000
_cell_angle_beta 90.000000
_cell_angle_gamma 90.000000
_cell_volume 5824.457247
_symmetry_space_group_name_H-M "C M C A"
_symmetry_group_IT_number 64
_symmetry_cell_setting 'orthorhombic'
loop_
_space_group_symop_operation_xyz
x,y,z
-x,1/2-y,1/2+z
x,-y,-z
-x,1/2+y,1/2-z
-x,-y,-z
x,1/2+y,1/2-z
-x,y,z
x,1/2-y,1/2+z
1/2+x,1/2+y,z
1/2-x,-y,1/2+z
1/2+x,1/2-y,-z
1/2-x,y,1/2-z
1/2-x,1/2-y,-z
1/2+x,y,1/2-z
1/2-x,1/2+y,z
1/2+x,-y,1/2+z
loop_
_atom_site_type_symbol
_atom_site_label
_atom_site_fract_x
_atom_site_fract_y
_atom_site_fract_z
Si Si1 0.839215 0.987245 0.695847
Si Si2 0.281543 0.187225 0.871706
Si Si3 0.705954 0.136973 0.992874
Si Si4 0.644060 0.885526 0.685930
Si Si5 0.655355 0.721081 0.396625
Si Si6 0.433136 0.596042 0.854618
Si Si7 0.565543 0.832252 0.224765
O O1 0.823725 0.951308 0.760866
O O2 0.845092 0.872280 0.655316
O O3 0.788654 0.081450 0.675350
O O4 0.901851 0.056334 0.693769
O O5 0.318734 0.148667 0.928421
O O6 0.305090 0.317976 0.849839
O O7 0.212841 0.194166 0.887246
O O8 0.750000 0.250000 0.000000
O O9 0.656412 0.152959 0.042013
O O10 0.734031 0.000000 0.000000
O O11 0.596364 0.794825 0.712041
O O12 0.608030 0.975954 0.644634
O O13 0.597039 0.804670 0.396146
O O14 0.500000 0.567759 0.875742
O O15 0.434739 0.651340 0.792005
O O16 0.500000 0.828494 0.199680
#
# Coordination Sequence:
#
# PCOD8263101 Si02
#       7
#    16  16  16  16  16  16  16
#     4  10  20  36  52  86 117 149 190 240 303 357
#     4  10  23  38  58  87 120 159 196 245 309 369
#     4  10  21  39  65  88 118 159 208 256 298 364
#     4  10  20  37  56  85 122 159 196 241 305 367
#     4  11  22  37  59  86 117 153 200 246 308 359
#     4  10  21  36  56  84 119 160 204 251 296 359
#     4   9  18  34  55  80 113 156 201 238 289 356
#
# _framework density 19.229258999999999
#
# number of rings (size 3 to 8) (size 9 to 14) (size 15 to 20)
#    0.000    2.000    2.857    0.429    2.000    2.857 
#    2.571    0.000    0.000    5.571    0.000    0.000 
#    0.000    0.000    0.000    0.000    0.000    0.000 
#
# Total GULP energy -694187.595939 kJ/mol
# GULP energy per Si atom -12396.207070 kJ/mol
# Density = 1.918549 g / cm^3
# Si number density = 19.229259 Si / 1000 Ang^3
#
#
#
# Elastic Constant Matrix: (Units=GPa)
#
#
# Indices 1 2 3 4 5 6 
#
# 1 67.4688 21.9128 31.7685 0.0000 0.0000 0.0000
# 2 21.9128 111.0207 38.7696 0.0000 0.0000 0.0000
# 3 31.7685 38.7696 88.3020 0.0000 0.0000 0.0000
# 4 0.0000 0.0000 0.0000 25.7086 0.0000 0.0000
# 5 0.0000 0.0000 0.0000 0.0000 18.7795 0.0000
# 6 0.0000 0.0000 0.0000 0.0000 0.0000 21.1637
#
#
#
# Elastic Compliance Matrix: (Units=1/GPa)
#
#
# Indices 1 2 3 4 5 6 
#
# 1 0.018062 -0.001530 -0.005826 0.000000 0.000000 0.000000
# 2 -0.001530 0.010768 -0.004177 0.000000 0.000000 0.000000
# 3 -0.005826 -0.004177 0.015255 0.000000 0.000000 0.000000
# 4 0.000000 0.000000 0.000000 0.038897 0.000000 0.000000
# 5 0.000000 0.000000 0.000000 0.000000 0.053250 0.000000
# 6 0.000000 0.000000 0.000000 0.000000 0.000000 0.047251
#
#
# Mechanical properties :
#
#
# Convention : Reuss Voigt Hill
#
# Bulk Modulus (GPa) = 47.57982 50.18815 48.88398
# Shear Modulus (GPa) = 23.41300 24.75306 24.08303
#
# Velocity S-wave (km/s) = 3.49316 3.59173 3.54279
# Velocity P-wave (km/s) = 6.40833 6.58462 6.49708
#
# Compressibility (1/GPa) = 0.02101731
#
# Stress axis : x y z
#
# Youngs Moduli (GPa) = 55.36461 92.86670 65.55265
#
# Poissons Ratio (x) = 0.14213 0.38193
# Poissons Ratio (y) = 0.08473 0.27383
# Poissons Ratio (z) = 0.32257 0.38792
#
# Static dielectric constant tensor:
#      x y z
#    x 3.465560 0.000000 0.000000 
#    y 0.000000 3.683430 0.000000 
#    z 0.000000 0.000000 3.843880 
# 
# 
# High freq. dielectric constant tensor:
#      x y z
#    x 1.721920 0.000000 0.000000 
#    y 0.000000 1.767130 0.000000 
#    z 0.000000 0.000000 1.735900 
# 
# From -- ./inp_files/41547.got.cif
#   From: 2010.03.12/outbox.cif.g09.slc.cpg/sg64_21_cif.got.tgz:41547.got - 2010.04.10 20:19:32.
