data_PCOD8263015
_publ_section_title
;
Structure prediction by ZEFSAII (Michael W. Deem and Ramdas Pophale) SiO2 
 PCOD8263015
Probable space group: C M C A
;
_chemical_formula_sum "Si O2"
_cell_formula_units_Z 96
_cell_length_a 20.451185
_cell_length_b 17.057692
_cell_length_c 15.187450
_cell_angle_alpha 90.000000
_cell_angle_beta 90.000000
_cell_angle_gamma 90.000000
_cell_volume 5298.142157
_symmetry_space_group_name_H-M "C M C A"
_symmetry_group_IT_number 64
_symmetry_cell_setting 'orthorhombic'
loop_
_space_group_symop_operation_xyz
x,y,z
-x,1/2-y,1/2+z
x,-y,-z
-x,1/2+y,1/2-z
-x,-y,-z
x,1/2+y,1/2-z
-x,y,z
x,1/2-y,1/2+z
1/2+x,1/2+y,z
1/2-x,-y,1/2+z
1/2+x,1/2-y,-z
1/2-x,y,1/2-z
1/2-x,1/2-y,-z
1/2+x,y,1/2-z
1/2-x,1/2+y,z
1/2+x,-y,1/2+z
loop_
_atom_site_type_symbol
_atom_site_label
_atom_site_fract_x
_atom_site_fract_y
_atom_site_fract_z
Si Si1 0.189794 0.597532 0.813104
Si Si2 0.376779 0.049424 0.411641
Si Si3 0.074019 0.591652 0.686025
Si Si4 0.689288 0.807769 0.007912
Si Si5 0.574654 0.690003 0.987788
Si Si6 0.730765 0.952626 0.910785
O O1 0.250000 0.619007 0.750000
O O2 0.121624 0.615018 0.765167
O O3 0.194084 0.652594 0.897310
O O4 0.192544 0.505593 0.839901
O O5 0.412838 0.131518 0.430189
O O6 0.303773 0.065789 0.375489
O O7 0.374353 0.000000 0.500000
O O8 0.416397 0.999642 0.339379
O O9 0.091089 0.646477 0.603257
O O10 0.000000 0.604511 0.718133
O O11 0.750000 0.750000 0.000000
O O12 0.620420 0.765151 0.996619
O O13 0.692624 0.871881 0.929521
O O14 0.500000 0.718860 0.990589
O O15 0.738393 0.000000 0.000000
#
# Coordination Sequence:
#
# PCOD8263015 Si02
#       6
#    16  16  16  16  16  16
#     4  11  21  36  57  80 110 142 183 233 281 321
#     4   9  15  30  55  81 106 136 178 223 265 315
#     4  10  20  35  56  83 112 143 182 230 279 324
#     4  11  21  36  57  81 110 147 187 223 268 334
#     4  10  20  35  57  83 113 148 185 224 268 325
#     4   9  18  33  55  79 103 135 181 224 260 319
#
# _framework density 18.119558999999999
#
# number of rings (size 3 to 8) (size 9 to 14) (size 15 to 20)
#    0.000    2.000    3.333    1.500    0.000    2.667 
#    0.000    6.667    0.000    5.000    0.000    0.000 
#    0.000    0.000    0.000    0.000    0.000    0.000 
#
# Total GULP energy -595145.988778 kJ/mol
# GULP energy per Si atom -12398.874766 kJ/mol
# Density = 1.807832 g / cm^3
# Si number density = 18.119559 Si / 1000 Ang^3
#
#
#
# Elastic Constant Matrix: (Units=GPa)
#
#
# Indices 1 2 3 4 5 6 
#
# 1 127.6204 61.7439 49.1684 0.0000 0.0000 0.0000
# 2 61.7439 109.7358 37.4731 0.0000 0.0000 0.0000
# 3 49.1684 37.4731 72.7784 0.0000 0.0000 0.0000
# 4 0.0000 0.0000 0.0000 22.6469 0.0000 0.0000
# 5 0.0000 0.0000 0.0000 0.0000 32.3733 0.0000
# 6 0.0000 0.0000 0.0000 0.0000 0.0000 29.0518
#
#
#
# Elastic Compliance Matrix: (Units=1/GPa)
#
#
# Indices 1 2 3 4 5 6 
#
# 1 0.012542 -0.005052 -0.005872 0.000000 0.000000 0.000000
# 2 -0.005052 0.013092 -0.003328 0.000000 0.000000 0.000000
# 3 -0.005872 -0.003328 0.019421 0.000000 0.000000 0.000000
# 4 0.000000 0.000000 0.000000 0.044156 0.000000 0.000000
# 5 0.000000 0.000000 0.000000 0.000000 0.030890 0.000000
# 6 0.000000 0.000000 0.000000 0.000000 0.000000 0.034421
#
#
# Mechanical properties :
#
#
# Convention : Reuss Voigt Hill
#
# Bulk Modulus (GPa) = 60.41884 67.43394 63.92639
# Shear Modulus (GPa) = 26.51918 27.59770 27.05844
#
# Velocity S-wave (km/s) = 3.82981 3.90691 3.86855
# Velocity P-wave (km/s) = 7.27829 7.59268 7.43715
#
# Compressibility (1/GPa) = 0.01655113
#
# Stress axis : x y z
#
# Youngs Moduli (GPa) = 79.73057 76.38483 51.49033
#
# Poissons Ratio (x) = 0.38587 0.30237
# Poissons Ratio (y) = 0.40278 0.17135
# Poissons Ratio (z) = 0.46820 0.25420
#
# Static dielectric constant tensor:
#      x y z
#    x 3.348440 0.000000 0.000000 
#    y 0.000000 3.427390 0.000000 
#    z 0.000000 0.000000 3.221850 
# 
# 
# High freq. dielectric constant tensor:
#      x y z
#    x 1.703720 0.000000 0.000000 
#    y 0.000000 1.693540 0.000000 
#    z 0.000000 0.000000 1.682620 
# 
# From -- ./inp_files/33271.got.cif
#   From: 2010.03.12/outbox.cif.g09.slc.cpg/sg64_17_cif.got.tgz:33271.got - 2010.04.10 20:19:32.
