data_PCOD8263942
_publ_section_title
;
Structure prediction by ZEFSAII (Michael W. Deem and Ramdas Pophale) SiO2 
 PCOD8263942
Probable space group: C M C A
;
_chemical_formula_sum "Si O2"
_cell_formula_units_Z 72
_cell_length_a 10.292123
_cell_length_b 23.590769
_cell_length_c 15.002788
_cell_angle_alpha 90.000000
_cell_angle_beta 90.000000
_cell_angle_gamma 90.000000
_cell_volume 3642.663367
_symmetry_space_group_name_H-M "C M C A"
_symmetry_group_IT_number 64
_symmetry_cell_setting 'orthorhombic'
loop_
_space_group_symop_operation_xyz
x,y,z
-x,1/2-y,1/2+z
x,-y,-z
-x,1/2+y,1/2-z
-x,-y,-z
x,1/2+y,1/2-z
-x,y,z
x,1/2-y,1/2+z
1/2+x,1/2+y,z
1/2-x,-y,1/2+z
1/2+x,1/2-y,-z
1/2-x,y,1/2-z
1/2-x,1/2-y,-z
1/2+x,y,1/2-z
1/2-x,1/2+y,z
1/2+x,-y,1/2+z
loop_
_atom_site_type_symbol
_atom_site_label
_atom_site_fract_x
_atom_site_fract_y
_atom_site_fract_z
Si Si1 0.250000 0.944364 0.750000
Si Si2 0.351934 0.360550 0.467792
Si Si3 0.644527 0.356724 0.878029
Si Si4 0.351603 0.770608 0.176855
Si Si5 0.352257 0.519505 0.592137
O O1 0.352764 0.903163 0.701063
O O2 0.304483 0.987008 0.822251
O O3 0.500000 0.359884 0.505377
O O4 0.254591 0.369416 0.549573
O O5 0.321257 0.302742 0.415610
O O6 0.333941 0.412659 0.398498
O O7 0.500000 0.358447 0.921105
O O8 0.671983 0.295506 0.836924
O O9 0.500000 0.783220 0.207743
O O10 0.250000 0.793130 0.250000
O O11 0.281232 0.500000 0.500000
O O12 0.500000 0.501329 0.583484
#
# Coordination Sequence:
#
# PCOD8263942 Si02
#       5
#     8  16  16  16  16
#     4  12  22  38  62  90 120 162 202 256 298 358
#     4  10  22  41  63  86 119 160 201 246 301 362
#     4  11  23  39  61  91 122 154 201 252 300 355
#     4  10  22  39  61  91 122 156 198 246 301 360
#     4  10  21  39  62  87 117 161 207 245 299 368
#
# _framework density 19.765758000000002
#
# number of rings (size 3 to 8) (size 9 to 14) (size 15 to 20)
#    0.000    1.556    3.333    1.333    1.556    2.667 
#    0.000    3.333    0.000    0.000    0.000    0.000 
#    0.000    0.000    0.000    0.000    0.000    0.000 
#
# Total GULP energy -446217.025955 kJ/mol
# GULP energy per Si atom -12394.917388 kJ/mol
# Density = 1.972077 g / cm^3
# Si number density = 19.765758 Si / 1000 Ang^3
#
#
#
# Elastic Constant Matrix: (Units=GPa)
#
#
# Indices 1 2 3 4 5 6 
#
# 1 106.4572 41.6488 67.7412 0.0000 0.0000 0.0000
# 2 41.6488 85.5037 51.5035 0.0000 0.0000 0.0000
# 3 67.7412 51.5035 130.4070 0.0000 0.0000 0.0000
# 4 0.0000 0.0000 0.0000 35.6703 0.0000 0.0000
# 5 0.0000 0.0000 0.0000 0.0000 25.5087 0.0000
# 6 0.0000 0.0000 0.0000 0.0000 0.0000 24.2539
#
#
#
# Elastic Compliance Matrix: (Units=1/GPa)
#
#
# Indices 1 2 3 4 5 6 
#
# 1 0.014735 -0.003368 -0.006324 0.000000 0.000000 0.000000
# 2 -0.003368 0.016116 -0.004615 0.000000 0.000000 0.000000
# 3 -0.006324 -0.004615 0.012776 0.000000 0.000000 0.000000
# 4 0.000000 0.000000 0.000000 0.028034 0.000000 0.000000
# 5 0.000000 0.000000 0.000000 0.000000 0.039202 0.000000
# 6 0.000000 0.000000 0.000000 0.000000 0.000000 0.041230
#
#
# Mechanical properties :
#
#
# Convention : Reuss Voigt Hill
#
# Bulk Modulus (GPa) = 66.61186 71.57275 69.09231
# Shear Modulus (GPa) = 26.92303 27.85155 27.38729
#
# Velocity S-wave (km/s) = 3.69467 3.75785 3.72639
# Velocity P-wave (km/s) = 7.20934 7.42412 7.31752
#
# Compressibility (1/GPa) = 0.01501234
#
# Stress axis : x y z
#
# Youngs Moduli (GPa) = 67.86376 62.04971 78.27019
#
# Poissons Ratio (x) = 0.20900 0.49500
# Poissons Ratio (y) = 0.22858 0.36124
# Poissons Ratio (z) = 0.42918 0.28638
#
# Static dielectric constant tensor:
#      x y z
#    x 3.528330 0.000000 0.000000 
#    y 0.000000 3.830820 0.000000 
#    z 0.000000 0.000000 5.313470 
# 
# 
# High freq. dielectric constant tensor:
#      x y z
#    x 1.759600 0.000000 0.000000 
#    y 0.000000 1.792290 0.000000 
#    z 0.000000 0.000000 1.758850 
# 
# From -- ./inp_files/21125.got.cif
#   From: 2010.03.12/outbox.cif.g09.slc.cpg/sg64_11_cif.got.tgz:21125.got - 2010.04.10 20:19:32.
