data_PCOD8263777
_publ_section_title
;
Structure prediction by ZEFSAII (Michael W. Deem and Ramdas Pophale) SiO2 
 PCOD8263777
Probable space group: C M C A
;
_chemical_formula_sum "Si O2"
_cell_formula_units_Z 72
_cell_length_a 12.893276
_cell_length_b 23.220479
_cell_length_c 11.949786
_cell_angle_alpha 90.000000
_cell_angle_beta 90.000000
_cell_angle_gamma 90.000000
_cell_volume 3577.623064
_symmetry_space_group_name_H-M "C M C A"
_symmetry_group_IT_number 64
_symmetry_cell_setting 'orthorhombic'
loop_
_space_group_symop_operation_xyz
x,y,z
-x,1/2-y,1/2+z
x,-y,-z
-x,1/2+y,1/2-z
-x,-y,-z
x,1/2+y,1/2-z
-x,y,z
x,1/2-y,1/2+z
1/2+x,1/2+y,z
1/2-x,-y,1/2+z
1/2+x,1/2-y,-z
1/2-x,y,1/2-z
1/2-x,1/2-y,-z
1/2+x,y,1/2-z
1/2-x,1/2+y,z
1/2+x,-y,1/2+z
loop_
_atom_site_type_symbol
_atom_site_label
_atom_site_fract_x
_atom_site_fract_y
_atom_site_fract_z
Si Si1 0.380692 0.812559 0.544810
Si Si2 0.250000 0.527915 0.750000
Si Si3 0.712449 0.706821 0.631763
Si Si4 0.879854 0.407188 0.067022
Si Si5 0.726179 0.080095 0.369859
O O1 0.500000 0.806103 0.516838
O O2 0.344886 0.768793 0.643370
O O3 0.318101 0.789661 0.438566
O O4 0.359281 0.879855 0.571049
O O5 0.169764 0.565554 0.820848
O O6 0.311488 0.485245 0.838188
O O7 0.750000 0.683941 0.750000
O O8 0.632627 0.661579 0.576683
O O9 0.000000 0.424613 0.059860
O O10 0.825595 0.427217 0.951594
O O11 0.750000 0.110908 0.250000
#
# Coordination Sequence:
#
# PCOD8263777 Si02
#       5
#    16   8  16  16  16
#     4  10  21  37  60  89 118 155 196 242 308 368
#     4  10  22  40  58  90 124 158 204 266 292 346
#     4  10  21  40  61  87 124 152 193 257 299 357
#     4  11  22  40  66  91 118 165 210 245 307 371
#     4   9  22  39  58  86 128 155 198 258 299 348
#
# _framework density 20.125094000000001
#
# number of rings (size 3 to 8) (size 9 to 14) (size 15 to 20)
#    0.667    1.333    1.111    2.000    0.000    5.333 
#    0.000    0.000    0.000    4.000    0.000    0.000 
#    0.000    0.000    0.000    0.000    0.000    0.000 
#
# Total GULP energy -445982.830688 kJ/mol
# GULP energy per Si atom -12388.411964 kJ/mol
# Density = 2.007929 g / cm^3
# Si number density = 20.125094 Si / 1000 Ang^3
#
#
#
# Elastic Constant Matrix: (Units=GPa)
#
#
# Indices 1 2 3 4 5 6 
#
# 1 143.3765 50.0103 56.2029 0.0000 0.0000 0.0000
# 2 50.0103 96.6742 23.9948 0.0000 0.0000 0.0000
# 3 56.2029 23.9948 105.9104 0.0000 0.0000 0.0000
# 4 0.0000 0.0000 0.0000 77.9101 0.0000 0.0000
# 5 0.0000 0.0000 0.0000 0.0000 16.8304 0.0000
# 6 0.0000 0.0000 0.0000 0.0000 0.0000 14.8794
#
#
#
# Elastic Compliance Matrix: (Units=1/GPa)
#
#
# Indices 1 2 3 4 5 6 
#
# 1 0.010171 -0.004155 -0.004456 0.000000 0.000000 0.000000
# 2 -0.004155 0.012658 -0.000663 0.000000 0.000000 0.000000
# 3 -0.004456 -0.000663 0.011957 0.000000 0.000000 0.000000
# 4 0.000000 0.000000 0.000000 0.012835 0.000000 0.000000
# 5 0.000000 0.000000 0.000000 0.000000 0.059416 0.000000
# 6 0.000000 0.000000 0.000000 0.000000 0.000000 0.067207
#
#
# Mechanical properties :
#
#
# Convention : Reuss Voigt Hill
#
# Bulk Modulus (GPa) = 61.58515 67.37524 64.48019
# Shear Modulus (GPa) = 25.22647 36.30753 30.76700
#
# Velocity S-wave (km/s) = 3.54430 4.25207 3.91421
# Velocity P-wave (km/s) = 6.88600 7.59327 7.24826
#
# Compressibility (1/GPa) = 0.01623768
#
# Stress axis : x y z
#
# Youngs Moduli (GPa) = 98.32129 79.00052 83.63582
#
# Poissons Ratio (x) = 0.32828 0.37266
# Poissons Ratio (y) = 0.40857 0.05542
# Poissons Ratio (z) = 0.43810 0.05235
#
# Static dielectric constant tensor:
#      x y z
#    x 3.259410 0.000000 0.000000 
#    y 0.000000 3.769480 0.000000 
#    z 0.000000 0.000000 3.710680 
# 
# 
# High freq. dielectric constant tensor:
#      x y z
#    x 1.749790 0.000000 0.000000 
#    y 0.000000 1.802920 0.000000 
#    z 0.000000 0.000000 1.788360 
# 
# From -- ./inp_files/13078.got.cif
#   From: 2010.03.12/outbox.cif.g09.slc.cpg/sg64_7_cif.got.tgz:13078.got - 2010.04.10 20:19:32.
