data_PCOD8263520
_publ_section_title
;
Structure prediction by ZEFSAII (Michael W. Deem and Ramdas Pophale) SiO2 
 PCOD8263520
Probable space group: C M C A
;
_chemical_formula_sum "Si O2"
_cell_formula_units_Z 88
_cell_length_a 19.899492
_cell_length_b 17.915925
_cell_length_c 11.120864
_cell_angle_alpha 90.000000
_cell_angle_beta 90.000000
_cell_angle_gamma 90.000000
_cell_volume 3964.786036
_symmetry_space_group_name_H-M "C M C A"
_symmetry_group_IT_number 64
_symmetry_cell_setting 'orthorhombic'
loop_
_space_group_symop_operation_xyz
x,y,z
-x,1/2-y,1/2+z
x,-y,-z
-x,1/2+y,1/2-z
-x,-y,-z
x,1/2+y,1/2-z
-x,y,z
x,1/2-y,1/2+z
1/2+x,1/2+y,z
1/2-x,-y,1/2+z
1/2+x,1/2-y,-z
1/2-x,y,1/2-z
1/2-x,1/2-y,-z
1/2+x,y,1/2-z
1/2-x,1/2+y,z
1/2+x,-y,1/2+z
loop_
_atom_site_type_symbol
_atom_site_label
_atom_site_fract_x
_atom_site_fract_y
_atom_site_fract_z
Si Si1 0.500000 0.377780 0.563848
Si Si2 0.750908 0.808630 0.889619
Si Si3 0.118675 0.618234 0.476145
Si Si4 0.000000 0.708096 0.575808
Si Si5 0.000000 0.900833 0.291283
Si Si6 0.352810 0.438792 0.599483
Si Si7 0.883046 0.986457 0.181828
O O1 0.500000 0.293886 0.613507
O O2 0.500000 0.366563 0.421857
O O3 0.432856 0.420871 0.604410
O O4 0.750000 0.776603 0.750000
O O5 0.820523 0.851948 0.897782
O O6 0.688561 0.862876 0.917754
O O7 0.750000 0.750000 0.000000
O O8 0.066008 0.684192 0.500939
O O9 0.146918 0.580283 0.599653
O O10 0.083785 0.551538 0.400668
O O11 0.000000 0.667925 0.702192
O O12 0.063800 0.952272 0.273019
O O13 0.334514 0.500000 0.500000
O O14 0.329782 0.475350 0.727312
#
# Coordination Sequence:
#
# PCOD8263520 Si02
#       7
#     8  16  16   8   8  16  16
#     4  12  24  42  63 103 144 181 228 280 351 426
#     4  12  28  50  70 102 144 188 232 290 358 432
#     4  10  22  44  71  99 131 177 237 282 349 415
#     4  10  23  41  67  99 136 190 227 283 348 423
#     4  10  20  40  63 100 144 177 228 288 352 411
#     4  12  25  42  72 103 137 183 233 294 353 408
#     4  10  20  39  69  98 130 170 231 292 335 406
#
# _framework density 22.195395999999999
#
# number of rings (size 3 to 8) (size 9 to 14) (size 15 to 20)
#    0.000    1.091    3.636    2.455    2.545    5.091 
#    9.818    0.000    0.000    0.000    0.000    0.000 
#    0.000    0.000    0.000    0.000    0.000    0.000 
#
# Total GULP energy -545173.610622 kJ/mol
# GULP energy per Si atom -12390.309332 kJ/mol
# Density = 2.214488 g / cm^3
# Si number density = 22.195396 Si / 1000 Ang^3
#
#
#
# Elastic Constant Matrix: (Units=GPa)
#
#
# Indices 1 2 3 4 5 6 
#
# 1 85.4496 20.0321 31.2562 0.0000 0.0000 0.0000
# 2 20.0321 109.6573 53.4129 0.0000 0.0000 0.0000
# 3 31.2562 53.4129 139.6068 0.0000 0.0000 0.0000
# 4 0.0000 0.0000 0.0000 44.0926 0.0000 0.0000
# 5 0.0000 0.0000 0.0000 0.0000 25.0079 0.0000
# 6 0.0000 0.0000 0.0000 0.0000 0.0000 27.4429
#
#
#
# Elastic Compliance Matrix: (Units=1/GPa)
#
#
# Indices 1 2 3 4 5 6 
#
# 1 0.012867 -0.001164 -0.002435 0.000000 0.000000 0.000000
# 2 -0.001164 0.011313 -0.004068 0.000000 0.000000 0.000000
# 3 -0.002435 -0.004068 0.009265 0.000000 0.000000 0.000000
# 4 0.000000 0.000000 0.000000 0.022680 0.000000 0.000000
# 5 0.000000 0.000000 0.000000 0.000000 0.039987 0.000000
# 6 0.000000 0.000000 0.000000 0.000000 0.000000 0.036439
#
#
# Mechanical properties :
#
#
# Convention : Reuss Voigt Hill
#
# Bulk Modulus (GPa) = 55.21851 60.45734 57.83793
# Shear Modulus (GPa) = 32.48402 34.64283 33.56342
#
# Velocity S-wave (km/s) = 3.82978 3.95500 3.89289
# Velocity P-wave (km/s) = 6.66999 6.93930 6.80597
#
# Compressibility (1/GPa) = 0.01810987
#
# Stress axis : x y z
#
# Youngs Moduli (GPa) = 77.72113 88.39087 107.93888
#
# Poissons Ratio (x) = 0.10291 0.26285
# Poissons Ratio (y) = 0.09049 0.43907
# Poissons Ratio (z) = 0.18927 0.35955
#
# Static dielectric constant tensor:
#      x y z
#    x 3.832540 0.000000 0.000000 
#    y 0.000000 4.142760 0.000000 
#    z 0.000000 0.000000 4.287710 
# 
# 
# High freq. dielectric constant tensor:
#      x y z
#    x 1.850760 0.000000 0.000000 
#    y 0.000000 1.880060 0.000000 
#    z 0.000000 0.000000 1.896980 
# 
# From -- ./inp_files/17181.got.cif
#   From: 2010.03.12/outbox.cif.g09.slc.cpg/sg64_9_cif.got.tgz:17181.got - 2010.04.10 20:19:32.
