data_PCOD8263192
_publ_section_title
;
Structure prediction by ZEFSAII (Michael W. Deem and Ramdas Pophale) SiO2 
 PCOD8263192
Probable space group: C M C A
;
_chemical_formula_sum "Si O2"
_cell_formula_units_Z 88
_cell_length_a 18.055579
_cell_length_b 20.968441
_cell_length_c 11.644267
_cell_angle_alpha 90.000000
_cell_angle_beta 90.000000
_cell_angle_gamma 90.000000
_cell_volume 4408.488547
_symmetry_space_group_name_H-M "C M C A"
_symmetry_group_IT_number 64
_symmetry_cell_setting 'orthorhombic'
loop_
_space_group_symop_operation_xyz
x,y,z
-x,1/2-y,1/2+z
x,-y,-z
-x,1/2+y,1/2-z
-x,-y,-z
x,1/2+y,1/2-z
-x,y,z
x,1/2-y,1/2+z
1/2+x,1/2+y,z
1/2-x,-y,1/2+z
1/2+x,1/2-y,-z
1/2-x,y,1/2-z
1/2-x,1/2-y,-z
1/2+x,y,1/2-z
1/2-x,1/2+y,z
1/2+x,-y,1/2+z
loop_
_atom_site_type_symbol
_atom_site_label
_atom_site_fract_x
_atom_site_fract_y
_atom_site_fract_z
Si Si1 0.876083 0.722160 0.077258
Si Si2 0.000000 0.653741 0.207381
Si Si3 0.500000 0.395813 0.146126
Si Si4 0.375627 0.500000 0.500000
Si Si5 0.000000 0.303615 0.542524
Si Si6 0.155518 0.155515 0.811294
Si Si7 0.788244 0.376083 0.061997
Si Si8 0.000000 0.509323 0.189911
O O1 0.926926 0.668502 0.134904
O O2 0.837835 0.767911 0.171610
O O3 0.926173 0.766233 0.994651
O O4 0.811278 0.685780 0.010381
O O5 0.000000 0.695251 0.321495
O O6 0.000000 0.579987 0.237814
O O7 0.570391 0.361934 0.199460
O O8 0.500000 0.468602 0.191173
O O9 0.500000 0.376641 0.010166
O O10 0.321389 0.439064 0.497438
O O11 0.426824 0.503060 0.613305
O O12 0.186933 0.133649 0.691435
O O13 0.198494 0.121437 0.920268
#
# Coordination Sequence:
#
# PCOD8263192 Si02
#       8
#    16   8   8   8   8  16  16   8
#     4  10  20  36  58  88 125 166 204 261 310 379
#     4  11  20  35  57  95 123 159 214 263 304 363
#     4  10  20  41  61  86 121 165 205 245 316 381
#     4  11  22  38  62  93 122 158 214 263 300 376
#     4   9  21  34  57  88 128 165 209 258 320 372
#     4  10  22  37  62  87 124 161 203 254 317 376
#     4  11  21  38  62  91 123 162 207 261 315 365
#     4  11  21  36  63  90 122 162 211 259 312 365
#
# _framework density 19.961490000000001
#
# number of rings (size 3 to 8) (size 9 to 14) (size 15 to 20)
#    0.000    1.636    3.636    2.182    0.000    1.818 
#    0.000    3.636    0.000    4.364    0.000    0.000 
#    0.000    0.000    0.000    0.000    0.000    0.000 
#
# Total GULP energy -545162.821069 kJ/mol
# GULP energy per Si atom -12390.064115 kJ/mol
# Density = 1.991606 g / cm^3
# Si number density = 19.961490 Si / 1000 Ang^3
#
#
#
# Elastic Constant Matrix: (Units=GPa)
#
#
# Indices 1 2 3 4 5 6 
#
# 1 95.9492 40.7511 22.0498 0.0000 0.0000 0.0000
# 2 40.7511 124.2200 28.0447 0.0000 0.0000 0.0000
# 3 22.0498 28.0447 67.9087 0.0000 0.0000 0.0000
# 4 0.0000 0.0000 0.0000 34.9373 0.0000 0.0000
# 5 0.0000 0.0000 0.0000 0.0000 8.2508 0.0000
# 6 0.0000 0.0000 0.0000 0.0000 0.0000 28.4568
#
#
#
# Elastic Compliance Matrix: (Units=1/GPa)
#
#
# Indices 1 2 3 4 5 6 
#
# 1 0.012516 -0.003516 -0.002612 0.000000 0.000000 0.000000
# 2 -0.003516 0.009866 -0.002933 0.000000 0.000000 0.000000
# 3 -0.002612 -0.002933 0.016785 0.000000 0.000000 0.000000
# 4 0.000000 0.000000 0.000000 0.028623 0.000000 0.000000
# 5 0.000000 0.000000 0.000000 0.000000 0.121201 0.000000
# 6 0.000000 0.000000 0.000000 0.000000 0.000000 0.035141
#
#
# Mechanical properties :
#
#
# Convention : Reuss Voigt Hill
#
# Bulk Modulus (GPa) = 47.51677 52.19656 49.85667
# Shear Modulus (GPa) = 20.05882 27.47781 23.76831
#
# Velocity S-wave (km/s) = 3.17342 3.71420 3.45441
# Velocity P-wave (km/s) = 6.10601 6.67826 6.39853
#
# Compressibility (1/GPa) = 0.02104520
#
# Stress axis : x y z
#
# Youngs Moduli (GPa) = 79.89921 101.35980 59.57776
#
# Poissons Ratio (x) = 0.35640 0.15560
# Poissons Ratio (y) = 0.28094 0.17472
# Poissons Ratio (z) = 0.20867 0.29725
#
# Static dielectric constant tensor:
#      x y z
#    x 5.031780 0.000000 0.000000 
#    y 0.000000 3.613090 0.000000 
#    z 0.000000 0.000000 3.501150 
# 
# 
# High freq. dielectric constant tensor:
#      x y z
#    x 1.787190 0.000000 0.000000 
#    y 0.000000 1.774660 0.000000 
#    z 0.000000 0.000000 1.765120 
# 
# From -- ./inp_files/16099.got.cif
#   From: 2010.03.12/outbox.cif.g09.slc.cpg/sg64_9_cif.got.tgz:16099.got - 2010.04.10 20:19:32.
