data_PCOD8263114
_publ_section_title
;
Structure prediction by ZEFSAII (Michael W. Deem and Ramdas Pophale) SiO2 
 PCOD8263114
Probable space group: C M C A
;
_chemical_formula_sum "Si O2"
_cell_formula_units_Z 56
_cell_length_a 34.504645
_cell_length_b 5.020196
_cell_length_c 15.436691
_cell_angle_alpha 90.000000
_cell_angle_beta 90.000000
_cell_angle_gamma 90.000000
_cell_volume 2673.944862
_symmetry_space_group_name_H-M "C M C A"
_symmetry_group_IT_number 64
_symmetry_cell_setting 'orthorhombic'
loop_
_space_group_symop_operation_xyz
x,y,z
-x,1/2-y,1/2+z
x,-y,-z
-x,1/2+y,1/2-z
-x,-y,-z
x,1/2+y,1/2-z
-x,y,z
x,1/2-y,1/2+z
1/2+x,1/2+y,z
1/2-x,-y,1/2+z
1/2+x,1/2-y,-z
1/2-x,y,1/2-z
1/2-x,1/2-y,-z
1/2+x,y,1/2-z
1/2-x,1/2+y,z
1/2+x,-y,1/2+z
loop_
_atom_site_type_symbol
_atom_site_label
_atom_site_fract_x
_atom_site_fract_y
_atom_site_fract_z
Si Si1 0.648952 0.746297 0.557648
Si Si2 0.769993 0.554598 0.899270
Si Si3 0.000000 0.110269 0.194971
Si Si4 0.582767 0.718431 0.191411
O O1 0.633929 0.500000 0.500000
O O2 0.685704 0.646913 0.614071
O O3 0.614920 0.840618 0.620146
O O4 0.661653 0.000000 0.500000
O O5 0.740708 0.771169 0.856054
O O6 0.761296 0.500000 0.000000
O O7 0.959716 0.179502 0.145543
O O8 0.000000 0.298206 0.281057
O O9 0.587316 0.514868 0.271395
#
# Coordination Sequence:
#
# PCOD8263114 Si02
#       4
#    16  16   8  16
#     4  11  21  33  52  80 107 130 167 217 260 295
#     4   9  16  28  47  70  96 130 170 206 241 292
#     4   8  16  32  54  74  94 132 178 204 230 300
#     4  10  20  36  56  76 102 137 173 206 249 306
#
# _framework density 20.942838999999999
#
# number of rings (size 3 to 8) (size 9 to 14) (size 15 to 20)
#    0.000    2.286    0.000    6.000    0.000    0.000 
#    0.000    1.429    0.000    5.143    0.000    0.000 
#    0.000    0.000    0.000    0.000    0.000    0.000 
#
# Total GULP energy -346945.125595 kJ/mol
# GULP energy per Si atom -12390.897343 kJ/mol
# Density = 2.089517 g / cm^3
# Si number density = 20.942839 Si / 1000 Ang^3
#
#
#
# Elastic Constant Matrix: (Units=GPa)
#
#
# Indices 1 2 3 4 5 6 
#
# 1 171.9185 24.4627 28.8385 0.0000 0.0000 0.0000
# 2 24.4627 98.5473 -1.5063 0.0000 0.0000 0.0000
# 3 28.8385 -1.5063 16.8144 0.0000 0.0000 0.0000
# 4 0.0000 0.0000 0.0000 13.0871 0.0000 0.0000
# 5 0.0000 0.0000 0.0000 0.0000 -7.1734 0.0000
# 6 0.0000 0.0000 0.0000 0.0000 0.0000 32.9572
#
#
#
# Elastic Compliance Matrix: (Units=1/GPa)
#
#
# Indices 1 2 3 4 5 6 
#
# 1 0.008694 -0.002389 -0.015125 0.000000 0.000000 0.000000
# 2 -0.002389 0.010818 0.005067 0.000000 0.000000 0.000000
# 3 -0.015125 0.005067 0.085867 0.000000 0.000000 0.000000
# 4 0.000000 0.000000 0.000000 0.076411 0.000000 0.000000
# 5 0.000000 0.000000 0.000000 0.000000 -0.139404 0.000000
# 6 0.000000 0.000000 0.000000 0.000000 0.000000 0.030342
#
#
# Mechanical properties :
#
#
# Convention : Reuss Voigt Hill
#
# Bulk Modulus (GPa) = 12.42471 43.43000 27.92735
# Shear Modulus (GPa) = 40.17652 23.47322 31.82487
#
# Velocity S-wave (km/s) = 4.38469 3.35150 3.90244
# Velocity P-wave (km/s) = 5.61957 5.97990 5.80253
#
# Compressibility (1/GPa) = 0.08048481
#
# Stress axis : x y z
#
# Youngs Moduli (GPa) = 115.02453 92.43887 11.64588
#
# Poissons Ratio (x) = 0.22086 0.17614
# Poissons Ratio (y) = 0.27482 -0.05901
# Poissons Ratio (z) = 1.73972 -0.46838
#
# Static dielectric constant tensor:
#      x y z
#    x 4.017430 0.000000 0.000000 
#    y 0.000000 4.261570 0.000000 
#    z 0.000000 0.000000 2.938600 
# 
# 
# High freq. dielectric constant tensor:
#      x y z
#    x 1.837730 0.000000 0.000000 
#    y 0.000000 1.853820 0.000000 
#    z 0.000000 0.000000 1.731020 
# 
# From -- ./inp_files/28201.got.cif
#   From: 2010.03.12/outbox.cif.g09.slc.cpg/sg64_15_cif.got.tgz:28201.got - 2010.04.10 20:19:32.
