data_PCOD8263258
_publ_section_title
;
Structure prediction by ZEFSAII (Michael W. Deem and Ramdas Pophale) SiO2 
 PCOD8263258
Probable space group: C M C A
;
_chemical_formula_sum "Si O2"
_cell_formula_units_Z 64
_cell_length_a 14.336774
_cell_length_b 10.604678
_cell_length_c 21.228674
_cell_angle_alpha 90.000000
_cell_angle_beta 90.000000
_cell_angle_gamma 90.000000
_cell_volume 3227.541188
_symmetry_space_group_name_H-M "C M C A"
_symmetry_group_IT_number 64
_symmetry_cell_setting 'orthorhombic'
loop_
_space_group_symop_operation_xyz
x,y,z
-x,1/2-y,1/2+z
x,-y,-z
-x,1/2+y,1/2-z
-x,-y,-z
x,1/2+y,1/2-z
-x,y,z
x,1/2-y,1/2+z
1/2+x,1/2+y,z
1/2-x,-y,1/2+z
1/2+x,1/2-y,-z
1/2-x,y,1/2-z
1/2-x,1/2-y,-z
1/2+x,y,1/2-z
1/2-x,1/2+y,z
1/2+x,-y,1/2+z
loop_
_atom_site_type_symbol
_atom_site_label
_atom_site_fract_x
_atom_site_fract_y
_atom_site_fract_z
Si Si1 0.715189 0.870870 0.461460
Si Si2 0.898532 0.233726 0.370613
Si Si3 0.713196 0.996622 0.154165
Si Si4 0.605818 0.054718 0.723317
O O1 0.750000 0.750000 0.500000
O O2 0.617957 0.832096 0.427940
O O3 0.786790 0.898828 0.403987
O O4 0.699966 0.000000 0.500000
O O5 0.894546 0.302649 0.302802
O O6 0.000000 0.171887 0.380043
O O7 0.818800 0.129909 0.372932
O O8 0.639220 0.942987 0.204494
O O9 0.816949 0.021608 0.182714
O O10 0.500000 0.997571 0.718248
#
# Coordination Sequence:
#
# PCOD8263258 Si02
#       4
#    16  16  16  16
#     4  11  22  41  63  88 122 167 218 260 314 373
#     4  10  21  39  63  91 127 166 209 262 313 375
#     4  10  20  36  63  90 124 164 202 256 321 363
#     4   9  20  37  59  91 124 159 204 253 313 382
#
# _framework density 19.829336999999999
#
# number of rings (size 3 to 8) (size 9 to 14) (size 15 to 20)
#    0.000    2.000    2.500    0.750    0.000    8.500 
#    0.000    3.750    0.000    6.000    0.000    0.000 
#    0.000    0.000    0.000    0.000    0.000    0.000 
#
# Total GULP energy -396453.128992 kJ/mol
# GULP energy per Si atom -12389.160281 kJ/mol
# Density = 1.978420 g / cm^3
# Si number density = 19.829337 Si / 1000 Ang^3
#
#
#
# Elastic Constant Matrix: (Units=GPa)
#
#
# Indices 1 2 3 4 5 6 
#
# 1 156.4601 58.8394 51.0367 0.0000 0.0000 0.0000
# 2 58.8394 110.5820 61.0512 0.0000 0.0000 0.0000
# 3 51.0367 61.0512 131.3792 0.0000 0.0000 0.0000
# 4 0.0000 0.0000 0.0000 37.5085 0.0000 0.0000
# 5 0.0000 0.0000 0.0000 0.0000 15.2653 0.0000
# 6 0.0000 0.0000 0.0000 0.0000 0.0000 29.6105
#
#
#
# Elastic Compliance Matrix: (Units=1/GPa)
#
#
# Indices 1 2 3 4 5 6 
#
# 1 0.008222 -0.003513 -0.001562 0.000000 0.000000 0.000000
# 2 -0.003513 0.013664 -0.004985 0.000000 0.000000 0.000000
# 3 -0.001562 -0.004985 0.010535 0.000000 0.000000 0.000000
# 4 0.000000 0.000000 0.000000 0.026661 0.000000 0.000000
# 5 0.000000 0.000000 0.000000 0.000000 0.065508 0.000000
# 6 0.000000 0.000000 0.000000 0.000000 0.000000 0.033772
#
#
# Mechanical properties :
#
#
# Convention : Reuss Voigt Hill
#
# Bulk Modulus (GPa) = 81.28701 82.25290 81.76996
# Shear Modulus (GPa) = 27.38514 31.64313 29.51414
#
# Velocity S-wave (km/s) = 3.72027 3.99905 3.86217
# Velocity P-wave (km/s) = 7.71597 7.93055 7.82400
#
# Compressibility (1/GPa) = 0.01230209
#
# Stress axis : x y z
#
# Youngs Moduli (GPa) = 121.62855 73.18321 94.92336
#
# Poissons Ratio (x) = 0.25706 0.14824
# Poissons Ratio (y) = 0.42722 0.47321
# Poissons Ratio (z) = 0.18994 0.36484
#
# Static dielectric constant tensor:
#      x y z
#    x 3.724040 0.000000 0.000000 
#    y 0.000000 3.464710 0.000000 
#    z 0.000000 0.000000 3.872360 
# 
# 
# High freq. dielectric constant tensor:
#      x y z
#    x 1.766820 0.000000 0.000000 
#    y 0.000000 1.758970 0.000000 
#    z 0.000000 0.000000 1.783280 
# 
# From -- ./inp_files/38820.got.cif
#   From: 2010.03.12/outbox.cif.g09.slc.cpg/sg64_20_cif.got.tgz:38820.got - 2010.04.10 20:19:32.
