data_PCOD8263842
_publ_section_title
;
Structure prediction by ZEFSAII (Michael W. Deem and Ramdas Pophale) SiO2 
 PCOD8263842
Probable space group: C M C A
;
_chemical_formula_sum "Si O2"
_cell_formula_units_Z 96
_cell_length_a 9.039660
_cell_length_b 19.359467
_cell_length_c 29.110081
_cell_angle_alpha 90.000000
_cell_angle_beta 90.000000
_cell_angle_gamma 90.000000
_cell_volume 5094.351490
_symmetry_space_group_name_H-M "C M C A"
_symmetry_group_IT_number 64
_symmetry_cell_setting 'orthorhombic'
loop_
_space_group_symop_operation_xyz
x,y,z
-x,1/2-y,1/2+z
x,-y,-z
-x,1/2+y,1/2-z
-x,-y,-z
x,1/2+y,1/2-z
-x,y,z
x,1/2-y,1/2+z
1/2+x,1/2+y,z
1/2-x,-y,1/2+z
1/2+x,1/2-y,-z
1/2-x,y,1/2-z
1/2-x,1/2-y,-z
1/2+x,y,1/2-z
1/2-x,1/2+y,z
1/2+x,-y,1/2+z
loop_
_atom_site_type_symbol
_atom_site_label
_atom_site_fract_x
_atom_site_fract_y
_atom_site_fract_z
Si Si1 0.174701 0.267149 0.797483
Si Si2 0.165167 0.433985 0.031468
Si Si3 0.327631 0.646228 0.124021
Si Si4 0.671740 0.890078 0.295847
Si Si5 0.673932 0.183878 0.478940
Si Si6 0.827870 0.514415 0.619795
O O1 0.250000 0.291054 0.750000
O O2 0.231508 0.314270 0.838638
O O3 0.219357 0.188036 0.808899
O O4 0.000000 0.276662 0.792525
O O5 0.226803 0.454583 0.080540
O O6 0.000000 0.402276 0.037126
O O7 0.157764 0.500000 0.000000
O O8 0.276139 0.380986 0.008407
O O9 0.500000 0.660148 0.133320
O O10 0.279847 0.673986 0.074021
O O11 0.290195 0.565458 0.127833
O O12 0.500000 0.892606 0.285612
O O13 0.750000 0.916100 0.250000
O O14 0.717170 0.942838 0.335397
O O15 0.500000 0.191505 0.483875
O O16 0.750000 0.250000 0.500000
O O17 0.000000 0.523871 0.606793
#
# Coordination Sequence:
#
# PCOD8263842 Si02
#       6
#    16  16  16  16  16  16
#     4  10  21  38  60  85 115 151 192 239 293 350
#     4  11  23  39  60  88 121 157 200 244 292 349
#     4  10  22  39  59  85 118 154 194 241 295 353
#     4   9  20  38  60  86 113 147 189 236 288 349
#     4  11  24  41  61  87 121 160 201 246 298 352
#     4  10  21  39  61  86 117 155 197 238 294 356
#
# _framework density 18.8444
#
# number of rings (size 3 to 8) (size 9 to 14) (size 15 to 20)
#    0.000    1.833    1.667    1.500    2.333    4.667 
#    0.000    1.667    0.000    0.000    0.000    0.000 
#    0.000    0.000    0.000    0.000    0.000    0.000 
#
# Total GULP energy -595355.971779 kJ/mol
# GULP energy per Si atom -12403.249412 kJ/mol
# Density = 1.880151 g / cm^3
# Si number density = 18.844400 Si / 1000 Ang^3
#
#
#
# Elastic Constant Matrix: (Units=GPa)
#
#
# Indices 1 2 3 4 5 6 
#
# 1 80.0135 53.6138 76.1154 0.0000 0.0000 0.0000
# 2 53.6138 106.0027 83.4659 0.0000 0.0000 0.0000
# 3 76.1154 83.4659 164.1782 0.0000 0.0000 0.0000
# 4 0.0000 0.0000 0.0000 32.2103 0.0000 0.0000
# 5 0.0000 0.0000 0.0000 0.0000 40.8410 0.0000
# 6 0.0000 0.0000 0.0000 0.0000 0.0000 33.9820
#
#
#
# Elastic Compliance Matrix: (Units=1/GPa)
#
#
# Indices 1 2 3 4 5 6 
#
# 1 0.024257 -0.005692 -0.008352 0.000000 0.000000 0.000000
# 2 -0.005692 0.017067 -0.006037 0.000000 0.000000 0.000000
# 3 -0.008352 -0.006037 0.013032 0.000000 0.000000 0.000000
# 4 0.000000 0.000000 0.000000 0.031046 0.000000 0.000000
# 5 0.000000 0.000000 0.000000 0.000000 0.024485 0.000000
# 6 0.000000 0.000000 0.000000 0.000000 0.000000 0.029427
#
#
# Mechanical properties :
#
#
# Convention : Reuss Voigt Hill
#
# Bulk Modulus (GPa) = 70.45916 86.28717 78.37317
# Shear Modulus (GPa) = 27.14302 30.53995 28.84148
#
# Velocity S-wave (km/s) = 3.79935 4.03008 3.91641
# Velocity P-wave (km/s) = 7.53113 8.21852 7.88232
#
# Compressibility (1/GPa) = 0.01419262
#
# Stress axis : x y z
#
# Youngs Moduli (GPa) = 41.22460 58.59408 76.73190
#
# Poissons Ratio (x) = 0.33354 0.64087
# Poissons Ratio (y) = 0.23467 0.46326
# Poissons Ratio (z) = 0.34431 0.35375
#
# Static dielectric constant tensor:
#      x y z
#    x 3.714370 0.000000 0.000000 
#    y 0.000000 3.649120 0.000000 
#    z 0.000000 0.000000 3.597040 
# 
# 
# High freq. dielectric constant tensor:
#      x y z
#    x 1.738070 0.000000 0.000000 
#    y 0.000000 1.738500 0.000000 
#    z 0.000000 0.000000 1.741510 
# 
# From -- ./inp_files/48075.got.cif
#   From: 2010.03.12/outbox.cif.g09.slc.cpg/sg64_25_cif.got.tgz:48075.got - 2010.04.10 20:19:32.
