data_PCOD8263469
_publ_section_title
;
Structure prediction by ZEFSAII (Michael W. Deem and Ramdas Pophale) SiO2 
 PCOD8263469
Probable space group: C M C A
;
_chemical_formula_sum "Si O2"
_cell_formula_units_Z 64
_cell_length_a 13.239470
_cell_length_b 10.726683
_cell_length_c 18.979051
_cell_angle_alpha 90.000000
_cell_angle_beta 90.000000
_cell_angle_gamma 90.000000
_cell_volume 2695.321273
_symmetry_space_group_name_H-M "C M C A"
_symmetry_group_IT_number 64
_symmetry_cell_setting 'orthorhombic'
loop_
_space_group_symop_operation_xyz
x,y,z
-x,1/2-y,1/2+z
x,-y,-z
-x,1/2+y,1/2-z
-x,-y,-z
x,1/2+y,1/2-z
-x,y,z
x,1/2-y,1/2+z
1/2+x,1/2+y,z
1/2-x,-y,1/2+z
1/2+x,1/2-y,-z
1/2-x,y,1/2-z
1/2-x,1/2-y,-z
1/2+x,y,1/2-z
1/2-x,1/2+y,z
1/2+x,-y,1/2+z
loop_
_atom_site_type_symbol
_atom_site_label
_atom_site_fract_x
_atom_site_fract_y
_atom_site_fract_z
Si Si1 0.616385 0.564941 0.709868
Si Si2 0.385644 0.807225 0.449227
Si Si3 0.824518 0.103653 0.552492
Si Si4 0.615996 0.707014 0.297983
O O1 0.500000 0.556606 0.730405
O O2 0.626112 0.597270 0.628316
O O3 0.664302 0.426962 0.724911
O O4 0.667571 0.673994 0.758078
O O5 0.500000 0.864126 0.450960
O O6 0.298103 0.911462 0.441919
O O7 0.361333 0.735204 0.521259
O O8 0.372214 0.716559 0.382120
O O9 0.868548 0.000000 0.500000
O O10 0.500000 0.706274 0.275458
#
# Coordination Sequence:
#
# PCOD8263469 Si02
#       4
#    16  16  16  16
#     4  10  20  38  66  98 129 167 216 266 320 385
#     4  10  22  41  62  91 131 168 211 269 323 382
#     4  11  22  39  66  96 122 168 220 265 323 384
#     4   9  19  38  63  92 128 169 211 263 324 381
#
# _framework density 23.744851000000001
#
# number of rings (size 3 to 8) (size 9 to 14) (size 15 to 20)
#    0.000    2.000    2.500    0.750    0.000    2.500 
#    9.000    2.500    0.000    0.000    0.000    0.000 
#    0.000    0.000    0.000    0.000    0.000    0.000 
#
# Total GULP energy -396466.609317 kJ/mol
# GULP energy per Si atom -12389.581541 kJ/mol
# Density = 2.369081 g / cm^3
# Si number density = 23.744851 Si / 1000 Ang^3
#
#
#
# Elastic Constant Matrix: (Units=GPa)
#
#
# Indices 1 2 3 4 5 6 
#
# 1 75.0390 -13.6115 4.8747 0.0000 0.0000 0.0000
# 2 -13.6115 146.0101 52.2992 0.0000 0.0000 0.0000
# 3 4.8747 52.2992 110.4884 0.0000 0.0000 0.0000
# 4 0.0000 0.0000 0.0000 37.7161 0.0000 0.0000
# 5 0.0000 0.0000 0.0000 0.0000 23.7840 0.0000
# 6 0.0000 0.0000 0.0000 0.0000 0.0000 -5.3374
#
#
#
# Elastic Compliance Matrix: (Units=1/GPa)
#
#
# Indices 1 2 3 4 5 6 
#
# 1 0.013749 0.001805 -0.001461 0.000000 0.000000 0.000000
# 2 0.001805 0.008484 -0.004096 0.000000 0.000000 0.000000
# 3 -0.001461 -0.004096 0.011054 0.000000 0.000000 0.000000
# 4 0.000000 0.000000 0.000000 0.026514 0.000000 0.000000
# 5 0.000000 0.000000 0.000000 0.000000 0.042045 0.000000
# 6 0.000000 0.000000 0.000000 0.000000 0.000000 -0.187356
#
#
# Mechanical properties :
#
#
# Convention : Reuss Voigt Hill
#
# Bulk Modulus (GPa) = 38.78441 46.51804 42.65122
# Shear Modulus (GPa) = -72.03287 30.43088 -20.80100
#
# Velocity S-wave (km/s) = -5.51381 3.58380 -2.96298
# Velocity P-wave (km/s) = 4.91597 6.06285 2.50912
#
# Compressibility (1/GPa) = 0.02578356
#
# Stress axis : x y z
#
# Youngs Moduli (GPa) = 72.73405 117.86770 90.46676
#
# Poissons Ratio (x) = -0.21275 0.13217
# Poissons Ratio (y) = -0.13129 0.37051
# Poissons Ratio (z) = 0.10626 0.48273
#
# Static dielectric constant tensor:
#      x y z
#    x 4.257770 0.000000 0.000000 
#    y 0.000000 4.549360 0.000000 
#    z 0.000000 0.000000 4.053950 
# 
# 
# High freq. dielectric constant tensor:
#      x y z
#    x 1.945820 0.000000 0.000000 
#    y 0.000000 1.925710 0.000000 
#    z 0.000000 0.000000 1.935770 
# 
# From -- ./inp_files/31627.got.cif
#   From: 2010.03.12/outbox.cif.g09.slc.cpg/sg64_16_cif.got.tgz:31627.got - 2010.04.10 20:19:32.
