data_PCOD8263275
_publ_section_title
;
Structure prediction by ZEFSAII (Michael W. Deem and Ramdas Pophale) SiO2 
 PCOD8263275
Probable space group: C M C A
;
_chemical_formula_sum "Si O2"
_cell_formula_units_Z 104
_cell_length_a 7.648665
_cell_length_b 27.501700
_cell_length_c 26.641744
_cell_angle_alpha 90.000000
_cell_angle_beta 90.000000
_cell_angle_gamma 90.000000
_cell_volume 5604.125224
_symmetry_space_group_name_H-M "C M C A"
_symmetry_group_IT_number 64
_symmetry_cell_setting 'orthorhombic'
loop_
_space_group_symop_operation_xyz
x,y,z
-x,1/2-y,1/2+z
x,-y,-z
-x,1/2+y,1/2-z
-x,-y,-z
x,1/2+y,1/2-z
-x,y,z
x,1/2-y,1/2+z
1/2+x,1/2+y,z
1/2-x,-y,1/2+z
1/2+x,1/2-y,-z
1/2-x,y,1/2-z
1/2-x,1/2-y,-z
1/2+x,y,1/2-z
1/2-x,1/2+y,z
1/2+x,-y,1/2+z
loop_
_atom_site_type_symbol
_atom_site_label
_atom_site_fract_x
_atom_site_fract_y
_atom_site_fract_z
Si Si1 0.698119 0.061692 0.307866
Si Si2 0.500000 0.982494 0.874081
Si Si3 0.797807 0.838496 0.966118
Si Si4 0.699106 0.758124 0.610253
Si Si5 0.500000 0.912893 0.964894
Si Si6 0.000000 0.913422 0.417439
Si Si7 0.807188 0.157901 0.919117
Si Si8 0.704274 0.169221 0.193837
O O1 0.500000 0.043304 0.316562
O O2 0.750000 0.054178 0.250000
O O3 0.705625 0.118705 0.321903
O O4 0.826828 0.031534 0.343363
O O5 0.500000 0.959808 0.929694
O O6 0.500000 0.040000 0.882020
O O7 0.732398 0.791880 0.935052
O O8 0.675497 0.883494 0.950927
O O9 0.000000 0.851800 0.953837
O O10 0.767738 0.825850 0.024025
O O11 0.500000 0.744103 0.600639
O O12 0.801705 0.707270 0.613403
O O13 0.721367 0.786640 0.661842
O O14 0.500000 0.927644 0.023614
O O15 0.170088 0.882502 0.401894
O O16 0.000000 0.134698 0.913818
O O17 0.500000 0.162147 0.185511
O O18 0.750000 0.183676 0.250000
#
# Coordination Sequence:
#
# PCOD8263275 Si02
#       8
#    16   8  16  16   8   8  16  16
#     4  11  21  39  62  91 123 147 183 238 300 357
#     4  12  23  38  64  89 113 157 195 241 293 357
#     4   9  20  33  52  83 119 150 189 236 279 334
#     4  11  20  32  53  84 114 153 194 231 275 342
#     4  10  21  36  58  84 122 158 190 236 289 347
#     4  10  23  42  56  81 117 157 204 245 284 338
#     4  10  20  37  56  78 113 154 196 243 283 322
#     4  11  21  35  53  83 120 153 179 222 282 352
#
# _framework density 18.557759000000001
#
# number of rings (size 3 to 8) (size 9 to 14) (size 15 to 20)
#    0.000    1.538    2.308    4.385    2.154    2.462 
#    0.000    0.000    0.000    5.538    0.000    0.000 
#    0.000    0.000    0.000    0.000    0.000    0.000 
#
# Total GULP energy -644912.993674 kJ/mol
# GULP energy per Si atom -12402.172955 kJ/mol
# Density = 1.851552 g / cm^3
# Si number density = 18.557759 Si / 1000 Ang^3
#
#
#
# Elastic Constant Matrix: (Units=GPa)
#
#
# Indices 1 2 3 4 5 6 
#
# 1 117.7907 47.1424 30.1291 0.0000 0.0000 0.0000
# 2 47.1424 124.7073 59.8128 0.0000 0.0000 0.0000
# 3 30.1291 59.8128 68.4940 0.0000 0.0000 0.0000
# 4 0.0000 0.0000 0.0000 28.3795 0.0000 0.0000
# 5 0.0000 0.0000 0.0000 0.0000 22.8865 0.0000
# 6 0.0000 0.0000 0.0000 0.0000 0.0000 8.8497
#
#
#
# Elastic Compliance Matrix: (Units=1/GPa)
#
#
# Indices 1 2 3 4 5 6 
#
# 1 0.010147 -0.002917 -0.001917 0.000000 0.000000 0.000000
# 2 -0.002917 0.014636 -0.011498 0.000000 0.000000 0.000000
# 3 -0.001917 -0.011498 0.025484 0.000000 0.000000 0.000000
# 4 0.000000 0.000000 0.000000 0.035237 0.000000 0.000000
# 5 0.000000 0.000000 0.000000 0.000000 0.043694 0.000000
# 6 0.000000 0.000000 0.000000 0.000000 0.000000 0.112998
#
#
# Mechanical properties :
#
#
# Convention : Reuss Voigt Hill
#
# Bulk Modulus (GPa) = 56.80419 65.01784 60.91101
# Shear Modulus (GPa) = 17.81097 23.61701 20.71399
#
# Velocity S-wave (km/s) = 3.10136 3.57125 3.34457
# Velocity P-wave (km/s) = 6.59548 7.21918 6.91437
#
# Compressibility (1/GPa) = 0.01760434
#
# Stress axis : x y z
#
# Youngs Moduli (GPa) = 98.54967 68.32418 39.24086
#
# Poissons Ratio (x) = 0.19928 0.07521
# Poissons Ratio (y) = 0.28743 0.45119
# Poissons Ratio (z) = 0.18888 0.78560
#
# Static dielectric constant tensor:
#      x y z
#    x 3.625340 0.000000 0.000000 
#    y 0.000000 3.132210 0.000000 
#    z 0.000000 0.000000 3.325080 
# 
# 
# High freq. dielectric constant tensor:
#      x y z
#    x 1.740220 0.000000 0.000000 
#    y 0.000000 1.693310 0.000000 
#    z 0.000000 0.000000 1.708380 
# 
# From -- ./inp_files/48309.got.cif
#   From: 2010.03.12/outbox.cif.g09.slc.cpg/sg64_25_cif.got.tgz:48309.got - 2010.04.10 20:19:32.
