data_PCOD8263376
_publ_section_title
;
Structure prediction by ZEFSAII (Michael W. Deem and Ramdas Pophale) SiO2 
 PCOD8263376
Probable space group: C M C A
;
_chemical_formula_sum "Si O2"
_cell_formula_units_Z 72
_cell_length_a 29.006980
_cell_length_b 24.121281
_cell_length_c 4.968005
_cell_angle_alpha 90.000000
_cell_angle_beta 90.000000
_cell_angle_gamma 90.000000
_cell_volume 3476.041140
_symmetry_space_group_name_H-M "C M C A"
_symmetry_group_IT_number 64
_symmetry_cell_setting 'orthorhombic'
loop_
_space_group_symop_operation_xyz
x,y,z
-x,1/2-y,1/2+z
x,-y,-z
-x,1/2+y,1/2-z
-x,-y,-z
x,1/2+y,1/2-z
-x,y,z
x,1/2-y,1/2+z
1/2+x,1/2+y,z
1/2-x,-y,1/2+z
1/2+x,1/2-y,-z
1/2-x,y,1/2-z
1/2-x,1/2-y,-z
1/2+x,y,1/2-z
1/2-x,1/2+y,z
1/2+x,-y,1/2+z
loop_
_atom_site_type_symbol
_atom_site_label
_atom_site_fract_x
_atom_site_fract_y
_atom_site_fract_z
Si Si1 0.051616 0.786495 0.110800
Si Si2 0.000000 0.039473 0.747772
Si Si3 0.375354 0.626031 0.077251
Si Si4 0.303872 0.285809 0.758852
Si Si5 0.598032 0.562488 0.600597
O O1 0.059291 0.734257 0.914090
O O2 0.088816 0.832574 0.055429
O O3 0.000000 0.810793 0.071002
O O4 0.952775 0.074462 0.729819
O O5 0.000000 0.000000 0.500000
O O6 0.000000 0.000000 0.000000
O O7 0.328478 0.656877 0.162583
O O8 0.397204 0.600878 0.343463
O O9 0.366535 0.579419 0.843040
O O10 0.318190 0.262730 0.467367
O O11 0.250000 0.299340 0.750000
O O12 0.606776 0.500000 0.500000
#
# Coordination Sequence:
#
# PCOD8263376 Si02
#       5
#    16   8  16  16  16
#     4  10  21  35  51  77 115 151 188 231 282 353
#     4  10  20  38  56  76 110 152 202 252 292 324
#     4  12  22  36  62  85 116 159 198 243 294 365
#     4  10  21  39  64  94 123 150 192 249 303 359
#     4  11  24  38  57  84 118 156 204 255 293 338
#
# _framework density 20.713217
#
# number of rings (size 3 to 8) (size 9 to 14) (size 15 to 20)
#    0.000    1.333    0.000    7.333    3.111    0.000 
#    0.000    0.000    0.000    2.667    0.000    1.556 
#    0.000    0.000    0.000    0.000    0.000    0.000 
#
# Total GULP energy -446325.101083 kJ/mol
# GULP energy per Si atom -12397.919475 kJ/mol
# Density = 2.066607 g / cm^3
# Si number density = 20.713217 Si / 1000 Ang^3
#
#
#
# Elastic Constant Matrix: (Units=GPa)
#
#
# Indices 1 2 3 4 5 6 
#
# 1 74.3490 56.2222 27.6892 0.0000 0.0000 0.0000
# 2 56.2222 79.8280 25.9383 0.0000 0.0000 0.0000
# 3 27.6892 25.9383 107.1227 0.0000 0.0000 0.0000
# 4 0.0000 0.0000 0.0000 45.2148 0.0000 0.0000
# 5 0.0000 0.0000 0.0000 0.0000 26.3939 0.0000
# 6 0.0000 0.0000 0.0000 0.0000 0.0000 23.8135
#
#
#
# Elastic Compliance Matrix: (Units=1/GPa)
#
#
# Indices 1 2 3 4 5 6 
#
# 1 0.029540 -0.019888 -0.002820 0.000000 0.000000 0.000000
# 2 -0.019888 0.026987 -0.001394 0.000000 0.000000 0.000000
# 3 -0.002820 -0.001394 0.010401 0.000000 0.000000 0.000000
# 4 0.000000 0.000000 0.000000 0.022117 0.000000 0.000000
# 5 0.000000 0.000000 0.000000 0.000000 0.037888 0.000000
# 6 0.000000 0.000000 0.000000 0.000000 0.000000 0.041993
#
#
# Mechanical properties :
#
#
# Convention : Reuss Voigt Hill
#
# Bulk Modulus (GPa) = 53.40635 53.44433 53.42534
# Shear Modulus (GPa) = 22.38438 29.18110 25.78274
#
# Velocity S-wave (km/s) = 3.29094 3.75749 3.53193
# Velocity P-wave (km/s) = 6.34666 6.68454 6.51779
#
# Compressibility (1/GPa) = 0.01872437
#
# Stress axis : x y z
#
# Youngs Moduli (GPa) = 33.85296 37.05498 96.14061
#
# Poissons Ratio (x) = 0.73696 0.27109
# Poissons Ratio (y) = 0.67328 0.13400
# Poissons Ratio (z) = 0.09546 0.05165
#
# Static dielectric constant tensor:
#      x y z
#    x 3.632370 0.000000 0.000000 
#    y 0.000000 3.790940 0.000000 
#    z 0.000000 0.000000 4.173910 
# 
# 
# High freq. dielectric constant tensor:
#      x y z
#    x 1.785410 0.000000 0.000000 
#    y 0.000000 1.802450 0.000000 
#    z 0.000000 0.000000 1.842780 
# 
# From -- ./inp_files/3244.got.cif
#   From: 2010.03.12/outbox.cif.g09.slc.cpg/sg64_2_cif.got.tgz:3244.got - 2010.04.10 20:19:32.
