data_PCOD8263752
_publ_section_title
;
Structure prediction by ZEFSAII (Michael W. Deem and Ramdas Pophale) SiO2 
 PCOD8263752
Probable space group: C M C A
;
_chemical_formula_sum "Si O2"
_cell_formula_units_Z 64
_cell_length_a 23.988410
_cell_length_b 14.532785
_cell_length_c 7.933821
_cell_angle_alpha 90.000000
_cell_angle_beta 90.000000
_cell_angle_gamma 90.000000
_cell_volume 2765.876023
_symmetry_space_group_name_H-M "C M C A"
_symmetry_group_IT_number 64
_symmetry_cell_setting 'orthorhombic'
loop_
_space_group_symop_operation_xyz
x,y,z
-x,1/2-y,1/2+z
x,-y,-z
-x,1/2+y,1/2-z
-x,-y,-z
x,1/2+y,1/2-z
-x,y,z
x,1/2-y,1/2+z
1/2+x,1/2+y,z
1/2-x,-y,1/2+z
1/2+x,1/2-y,-z
1/2-x,y,1/2-z
1/2-x,1/2-y,-z
1/2+x,y,1/2-z
1/2-x,1/2+y,z
1/2+x,-y,1/2+z
loop_
_atom_site_type_symbol
_atom_site_label
_atom_site_fract_x
_atom_site_fract_y
_atom_site_fract_z
Si Si1 0.379109 0.178018 0.403101
Si Si2 0.211448 0.415678 0.400444
Si Si3 0.562042 0.339555 0.240127
Si Si4 0.380998 0.491287 0.684780
O O1 0.315208 0.163834 0.476743
O O2 0.426060 0.158749 0.541536
O O3 0.389021 0.280769 0.333107
O O4 0.391762 0.113311 0.240914
O O5 0.243070 0.500000 0.500000
O O6 0.250000 0.373920 0.250000
O O7 0.158492 0.465304 0.323632
O O8 0.500000 0.299934 0.272140
O O9 0.563939 0.443905 0.312565
O O10 0.354037 0.500000 0.500000
#
# Coordination Sequence:
#
# PCOD8263752 Si02
#       4
#    16  16  16  16
#     4  10  22  38  57  87 120 155 205 258 302 362
#     4   9  18  35  60  88 118 157 201 248 309 368
#     4  11  22  37  58  82 117 162 203 251 309 362
#     4  10  21  37  58  85 117 153 200 255 305 365
#
# _framework density 23.139143000000001
#
# number of rings (size 3 to 8) (size 9 to 14) (size 15 to 20)
#    0.000    2.000    0.000    5.250    0.000    3.500 
#    0.000    5.000    0.000   15.000    0.000   21.000 
#    0.000    0.000    0.000    0.000    0.000    0.000 
#
# Total GULP energy -396434.401436 kJ/mol
# GULP energy per Si atom -12388.575045 kJ/mol
# Density = 2.308648 g / cm^3
# Si number density = 23.139143 Si / 1000 Ang^3
#
#
#
# Elastic Constant Matrix: (Units=GPa)
#
#
# Indices 1 2 3 4 5 6 
#
# 1 86.9321 30.5310 26.4376 0.0000 0.0000 0.0000
# 2 30.5310 76.1358 31.7996 0.0000 0.0000 0.0000
# 3 26.4376 31.7996 120.9871 0.0000 0.0000 0.0000
# 4 0.0000 0.0000 0.0000 38.2066 0.0000 0.0000
# 5 0.0000 0.0000 0.0000 0.0000 28.6242 0.0000
# 6 0.0000 0.0000 0.0000 0.0000 0.0000 14.7136
#
#
#
# Elastic Compliance Matrix: (Units=1/GPa)
#
#
# Indices 1 2 3 4 5 6 
#
# 1 0.013708 -0.004770 -0.001742 0.000000 0.000000 0.000000
# 2 -0.004770 0.016414 -0.003272 0.000000 0.000000 0.000000
# 3 -0.001742 -0.003272 0.009506 0.000000 0.000000 0.000000
# 4 0.000000 0.000000 0.000000 0.026173 0.000000 0.000000
# 5 0.000000 0.000000 0.000000 0.000000 0.034935 0.000000
# 6 0.000000 0.000000 0.000000 0.000000 0.000000 0.067964
#
#
# Mechanical properties :
#
#
# Convention : Reuss Voigt Hill
#
# Bulk Modulus (GPa) = 49.84756 51.28793 50.56774
# Shear Modulus (GPa) = 25.64703 29.32800 27.48751
#
# Velocity S-wave (km/s) = 3.33285 3.56401 3.45036
# Velocity P-wave (km/s) = 6.03323 6.25694 6.14610
#
# Compressibility (1/GPa) = 0.02006116
#
# Stress axis : x y z
#
# Youngs Moduli (GPa) = 72.94990 60.92510 105.19771
#
# Poissons Ratio (x) = 0.29058 0.18324
# Poissons Ratio (y) = 0.34794 0.34419
# Poissons Ratio (z) = 0.12707 0.19934
#
# Static dielectric constant tensor:
#      x y z
#    x 3.818910 0.000000 0.000000 
#    y 0.000000 4.482000 0.000000 
#    z 0.000000 0.000000 4.648480 
# 
# 
# High freq. dielectric constant tensor:
#      x y z
#    x 1.881500 0.000000 0.000000 
#    y 0.000000 1.900400 0.000000 
#    z 0.000000 0.000000 1.931020 
# 
# From -- ./inp_files/8962.got.cif
#   From: 2010.03.12/outbox.cif.g09.slc.cpg/sg64_5_cif.got.tgz:8962.got - 2010.04.10 20:19:32.
