data_PCOD8263408
_publ_section_title
;
Structure prediction by ZEFSAII (Michael W. Deem and Ramdas Pophale) SiO2 
 PCOD8263408
Probable space group: C M C A
;
_chemical_formula_sum "Si O2"
_cell_formula_units_Z 72
_cell_length_a 19.164712
_cell_length_b 21.159534
_cell_length_c 9.109212
_cell_angle_alpha 90.000000
_cell_angle_beta 90.000000
_cell_angle_gamma 90.000000
_cell_volume 3693.934631
_symmetry_space_group_name_H-M "C M C A"
_symmetry_group_IT_number 64
_symmetry_cell_setting 'orthorhombic'
loop_
_space_group_symop_operation_xyz
x,y,z
-x,1/2-y,1/2+z
x,-y,-z
-x,1/2+y,1/2-z
-x,-y,-z
x,1/2+y,1/2-z
-x,y,z
x,1/2-y,1/2+z
1/2+x,1/2+y,z
1/2-x,-y,1/2+z
1/2+x,1/2-y,-z
1/2-x,y,1/2-z
1/2-x,1/2-y,-z
1/2+x,y,1/2-z
1/2-x,1/2+y,z
1/2+x,-y,1/2+z
loop_
_atom_site_type_symbol
_atom_site_label
_atom_site_fract_x
_atom_site_fract_y
_atom_site_fract_z
Si Si1 0.853911 0.568168 0.017742
Si Si2 0.418394 0.801956 0.474767
Si Si3 0.827459 0.898255 0.207117
Si Si4 0.719619 0.000000 0.500000
Si Si5 0.080369 0.323580 0.810959
O O1 0.868529 0.600467 0.860371
O O2 0.892156 0.500000 0.000000
O O3 0.771238 0.556796 0.053674
O O4 0.881209 0.611584 0.148588
O O5 0.500000 0.816469 0.440815
O O6 0.368489 0.852532 0.400145
O O7 0.396642 0.733000 0.417765
O O8 0.401660 0.803543 0.646329
O O9 0.750000 0.874342 0.250000
O O10 0.825765 0.968966 0.131931
O O11 0.000000 0.338480 0.830996
#
# Coordination Sequence:
#
# PCOD8263408 Si02
#       5
#    16  16  16   8  16
#     4   9  20  35  58  85 116 153 194 237 300 334
#     4  10  22  39  63  86 118 155 196 244 295 348
#     4  10  20  38  61  87 120 155 196 242 291 350
#     4   8  20  36  58  80 118 156 192 242 292 342
#     4  10  21  39  60  87 118 157 197 242 295 351
#
# _framework density 19.491410999999999
#
# number of rings (size 3 to 8) (size 9 to 14) (size 15 to 20)
#    0.667    1.778    0.000    1.333    3.111    3.111 
#    0.000   10.556    0.000    0.000    0.000    0.000 
#    0.000    0.000    0.000    0.000    0.000    0.000 
#
# Total GULP energy -446044.134119 kJ/mol
# GULP energy per Si atom -12390.114837 kJ/mol
# Density = 1.944705 g / cm^3
# Si number density = 19.491411 Si / 1000 Ang^3
#
#
#
# Elastic Constant Matrix: (Units=GPa)
#
#
# Indices 1 2 3 4 5 6 
#
# 1 49.3555 44.6605 44.0850 0.0000 0.0000 0.0000
# 2 44.6605 116.9312 62.0302 0.0000 0.0000 0.0000
# 3 44.0850 62.0302 110.8989 0.0000 0.0000 0.0000
# 4 0.0000 0.0000 0.0000 42.8755 0.0000 0.0000
# 5 0.0000 0.0000 0.0000 0.0000 32.2646 0.0000
# 6 0.0000 0.0000 0.0000 0.0000 0.0000 46.6183
#
#
#
# Elastic Compliance Matrix: (Units=1/GPa)
#
#
# Indices 1 2 3 4 5 6 
#
# 1 0.037084 -0.009020 -0.009697 0.000000 0.000000 0.000000
# 2 -0.009020 0.014354 -0.004443 0.000000 0.000000 0.000000
# 3 -0.009697 -0.004443 0.015357 0.000000 0.000000 0.000000
# 4 0.000000 0.000000 0.000000 0.023323 0.000000 0.000000
# 5 0.000000 0.000000 0.000000 0.000000 0.030994 0.000000
# 6 0.000000 0.000000 0.000000 0.000000 0.000000 0.021451
#
#
# Mechanical properties :
#
#
# Convention : Reuss Voigt Hill
#
# Bulk Modulus (GPa) = 48.83788 64.30408 56.57098
# Shear Modulus (GPa) = 25.54823 32.77903 29.16363
#
# Velocity S-wave (km/s) = 3.62435 4.10532 3.87231
# Velocity P-wave (km/s) = 6.52878 7.45213 7.00568
#
# Compressibility (1/GPa) = 0.02047591
#
# Stress axis : x y z
#
# Youngs Moduli (GPa) = 26.96563 69.66623 65.11629
#
# Poissons Ratio (x) = 0.62839 0.63141
# Poissons Ratio (y) = 0.24323 0.28933
# Poissons Ratio (z) = 0.26148 0.30954
#
# Static dielectric constant tensor:
#      x y z
#    x 3.278350 0.000000 0.000000 
#    y 0.000000 3.497560 0.000000 
#    z 0.000000 0.000000 3.717860 
# 
# 
# High freq. dielectric constant tensor:
#      x y z
#    x 1.728930 0.000000 0.000000 
#    y 0.000000 1.754080 0.000000 
#    z 0.000000 0.000000 1.773610 
# 
# From -- ./inp_files/9218.got.cif
#   From: 2010.03.12/outbox.cif.g09.slc.cpg/sg64_5_cif.got.tgz:9218.got - 2010.04.10 20:19:32.
