data_PCOD8263901
_publ_section_title
;
Structure prediction by ZEFSAII (Michael W. Deem and Ramdas Pophale) SiO2 
 PCOD8263901
Probable space group: C M C A
;
_chemical_formula_sum "Si O2"
_cell_formula_units_Z 112
_cell_length_a 22.077056
_cell_length_b 14.354971
_cell_length_c 16.801356
_cell_angle_alpha 90.000000
_cell_angle_beta 90.000000
_cell_angle_gamma 90.000000
_cell_volume 5324.610115
_symmetry_space_group_name_H-M "C M C A"
_symmetry_group_IT_number 64
_symmetry_cell_setting 'orthorhombic'
loop_
_space_group_symop_operation_xyz
x,y,z
-x,1/2-y,1/2+z
x,-y,-z
-x,1/2+y,1/2-z
-x,-y,-z
x,1/2+y,1/2-z
-x,y,z
x,1/2-y,1/2+z
1/2+x,1/2+y,z
1/2-x,-y,1/2+z
1/2+x,1/2-y,-z
1/2-x,y,1/2-z
1/2-x,1/2-y,-z
1/2+x,y,1/2-z
1/2-x,1/2+y,z
1/2+x,-y,1/2+z
loop_
_atom_site_type_symbol
_atom_site_label
_atom_site_fract_x
_atom_site_fract_y
_atom_site_fract_z
Si Si1 0.836328 0.597821 0.040079
Si Si2 0.069942 0.626255 0.167712
Si Si3 0.431997 0.584663 0.050993
Si Si4 0.929660 0.314671 0.235989
Si Si5 0.614246 0.000018 0.299236
Si Si6 0.727739 0.390627 0.837812
Si Si7 0.856111 0.244391 0.588008
O O1 0.896222 0.635849 0.083992
O O2 0.780290 0.585274 0.100114
O O3 0.850887 0.500000 0.000000
O O4 0.823122 0.673269 0.971474
O O5 0.078901 0.717142 0.220744
O O6 0.102868 0.540837 0.211740
O O7 0.000000 0.604276 0.151274
O O8 0.500000 0.606046 0.022032
O O9 0.433551 0.551013 0.142612
O O10 0.393553 0.678081 0.038340
O O11 0.403116 0.500000 0.000000
O O12 0.896283 0.389741 0.292638
O O13 0.900188 0.310512 0.148528
O O14 0.000000 0.341536 0.226051
O O15 0.681325 0.021835 0.333634
O O16 0.750000 0.369745 0.750000
O O17 0.696141 0.295031 0.862918
#
# Coordination Sequence:
#
# PCOD8263901 Si02
#       7
#    16  16  16  16  16  16  16
#     4  12  27  47  65  99 140 178 227 280 345 412
#     4  11  23  43  69  99 137 174 220 276 337 415
#     4  10  21  38  63  97 135 175 219 273 334 399
#     4  11  22  40  70 105 136 177 226 279 344 412
#     4  11  22  41  68  94 130 175 225 276 329 396
#     4  11  23  48  69  91 132 179 234 284 326 401
#     4  11  24  42  68  99 137 176 221 283 346 403
#
# _framework density 21.034405
#
# number of rings (size 3 to 8) (size 9 to 14) (size 15 to 20)
#    0.000    1.000    4.286    3.000    2.000    3.714 
#    5.143    0.000    0.000    0.000    0.000    0.000 
#    0.000    0.000    0.000    0.000    0.000    0.000 
#
# Total GULP energy -694581.961431 kJ/mol
# GULP energy per Si atom -12403.249311 kJ/mol
# Density = 2.098653 g / cm^3
# Si number density = 21.034405 Si / 1000 Ang^3
#
#
#
# Elastic Constant Matrix: (Units=GPa)
#
#
# Indices 1 2 3 4 5 6 
#
# 1 124.3597 38.9960 50.7713 0.0000 0.0000 0.0000
# 2 38.9960 93.7536 31.7493 0.0000 0.0000 0.0000
# 3 50.7713 31.7493 96.2646 0.0000 0.0000 0.0000
# 4 0.0000 0.0000 0.0000 44.1805 0.0000 0.0000
# 5 0.0000 0.0000 0.0000 0.0000 28.4236 0.0000
# 6 0.0000 0.0000 0.0000 0.0000 0.0000 17.6163
#
#
#
# Elastic Compliance Matrix: (Units=1/GPa)
#
#
# Indices 1 2 3 4 5 6 
#
# 1 0.010913 -0.002916 -0.004794 0.000000 0.000000 0.000000
# 2 -0.002916 0.012786 -0.002679 0.000000 0.000000 0.000000
# 3 -0.004794 -0.002679 0.013800 0.000000 0.000000 0.000000
# 4 0.000000 0.000000 0.000000 0.022634 0.000000 0.000000
# 5 0.000000 0.000000 0.000000 0.000000 0.035182 0.000000
# 6 0.000000 0.000000 0.000000 0.000000 0.000000 0.056766
#
#
# Mechanical properties :
#
#
# Convention : Reuss Voigt Hill
#
# Bulk Modulus (GPa) = 59.80373 61.93457 60.86915
# Shear Modulus (GPa) = 28.02179 30.90149 29.46164
#
# Velocity S-wave (km/s) = 3.65388 3.83703 3.74657
# Velocity P-wave (km/s) = 6.80398 7.00990 6.90771
#
# Compressibility (1/GPa) = 0.01672137
#
# Stress axis : x y z
#
# Youngs Moduli (GPa) = 91.63726 78.20853 72.46335
#
# Poissons Ratio (x) = 0.22802 0.34738
# Poissons Ratio (y) = 0.26718 0.19416
# Poissons Ratio (z) = 0.43930 0.20955
#
# Static dielectric constant tensor:
#      x y z
#    x 3.880010 0.000000 0.000000 
#    y 0.000000 3.778000 0.000000 
#    z 0.000000 0.000000 3.828870 
# 
# 
# High freq. dielectric constant tensor:
#      x y z
#    x 1.824780 0.000000 0.000000 
#    y 0.000000 1.824340 0.000000 
#    z 0.000000 0.000000 1.828910 
# 
# From -- ./inp_files/27442.got.cif
#   From: 2010.03.12/outbox.cif.g09.slc.cpg/sg64_14_cif.got.tgz:27442.got - 2010.04.10 20:19:32.
