data_PCOD8263610
_publ_section_title
;
Structure prediction by ZEFSAII (Michael W. Deem and Ramdas Pophale) SiO2 
 PCOD8263610
Probable space group: C M C A
;
_chemical_formula_sum "Si O2"
_cell_formula_units_Z 112
_cell_length_a 25.946373
_cell_length_b 10.418551
_cell_length_c 19.794497
_cell_angle_alpha 90.000000
_cell_angle_beta 90.000000
_cell_angle_gamma 90.000000
_cell_volume 5350.919894
_symmetry_space_group_name_H-M "C M C A"
_symmetry_group_IT_number 64
_symmetry_cell_setting 'orthorhombic'
loop_
_space_group_symop_operation_xyz
x,y,z
-x,1/2-y,1/2+z
x,-y,-z
-x,1/2+y,1/2-z
-x,-y,-z
x,1/2+y,1/2-z
-x,y,z
x,1/2-y,1/2+z
1/2+x,1/2+y,z
1/2-x,-y,1/2+z
1/2+x,1/2-y,-z
1/2-x,y,1/2-z
1/2-x,1/2-y,-z
1/2+x,y,1/2-z
1/2-x,1/2+y,z
1/2+x,-y,1/2+z
loop_
_atom_site_type_symbol
_atom_site_label
_atom_site_fract_x
_atom_site_fract_y
_atom_site_fract_z
Si Si1 0.942488 0.108518 0.351674
Si Si2 0.594567 0.098862 0.410334
Si Si3 0.556344 0.249894 0.782654
Si Si4 0.360738 0.558461 0.706510
Si Si5 0.558071 0.833778 0.451220
Si Si6 0.305006 0.971761 0.659985
Si Si7 0.764244 0.799122 0.326481
O O1 0.946624 0.140637 0.272790
O O2 0.924756 0.226337 0.398017
O O3 0.000000 0.057579 0.374257
O O4 0.894160 0.011668 0.352471
O O5 0.572310 0.192106 0.354087
O O6 0.594218 0.171650 0.482549
O O7 0.652718 0.055465 0.396150
O O8 0.559948 0.971284 0.414395
O O9 0.500000 0.183656 0.790313
O O10 0.598205 0.148699 0.755263
O O11 0.331216 0.474342 0.764266
O O12 0.321401 0.644495 0.662806
O O13 0.500000 0.808870 0.475423
O O14 0.263701 0.852725 0.655295
O O15 0.277385 0.105824 0.637607
O O16 0.750000 0.816914 0.250000
#
# Coordination Sequence:
#
# PCOD8263610 Si02
#       7
#    16  16  16  16  16  16  16
#     4  10  21  34  54  88 127 162 199 252 311 374
#     4  11  20  38  62  86 120 161 212 260 310 370
#     4  11  21  33  58  92 126 159 199 253 309 372
#     4  11  19  36  56  86 127 158 202 250 323 374
#     4  10  22  39  60  88 124 170 213 250 306 386
#     4  11  22  37  62  91 124 162 211 262 322 369
#     4  10  21  36  59  90 124 160 203 263 317 377
#
# _framework density 20.930980999999999
#
# number of rings (size 3 to 8) (size 9 to 14) (size 15 to 20)
#    0.000    1.429    2.857    4.286    0.000    3.429 
#    0.000    0.714    0.000   10.286    0.000    0.000 
#    0.000    0.000    0.000    0.000    0.000    0.000 
#
# Total GULP energy -693831.983040 kJ/mol
# GULP energy per Si atom -12389.856840 kJ/mol
# Density = 2.088334 g / cm^3
# Si number density = 20.930981 Si / 1000 Ang^3
#
#
#
# Elastic Constant Matrix: (Units=GPa)
#
#
# Indices 1 2 3 4 5 6 
#
# 1 99.6623 25.2006 12.6438 0.0000 0.0000 0.0000
# 2 25.2006 81.3364 17.8084 0.0000 0.0000 0.0000
# 3 12.6438 17.8084 67.1527 0.0000 0.0000 0.0000
# 4 0.0000 0.0000 0.0000 25.7024 0.0000 0.0000
# 5 0.0000 0.0000 0.0000 0.0000 22.9875 0.0000
# 6 0.0000 0.0000 0.0000 0.0000 0.0000 36.7912
#
#
#
# Elastic Compliance Matrix: (Units=1/GPa)
#
#
# Indices 1 2 3 4 5 6 
#
# 1 0.010983 -0.003132 -0.001237 0.000000 0.000000 0.000000
# 2 -0.003132 0.013946 -0.003109 0.000000 0.000000 0.000000
# 3 -0.001237 -0.003109 0.015949 0.000000 0.000000 0.000000
# 4 0.000000 0.000000 0.000000 0.038907 0.000000 0.000000
# 5 0.000000 0.000000 0.000000 0.000000 0.043502 0.000000
# 6 0.000000 0.000000 0.000000 0.000000 0.000000 0.027180
#
#
# Mechanical properties :
#
#
# Convention : Reuss Voigt Hill
#
# Bulk Modulus (GPa) = 38.57799 39.93969 39.25884
# Shear Modulus (GPa) = 28.72532 29.92946 29.32739
#
# Velocity S-wave (km/s) = 3.70859 3.78552 3.74725
# Velocity P-wave (km/s) = 6.06706 6.18304 6.12532
#
# Compressibility (1/GPa) = 0.02592152
#
# Stress axis : x y z
#
# Youngs Moduli (GPa) = 91.05153 71.70721 62.70073
#
# Poissons Ratio (x) = 0.22458 0.07758
# Poissons Ratio (y) = 0.28517 0.19491
# Poissons Ratio (z) = 0.11266 0.22291
#
# Static dielectric constant tensor:
#      x y z
#    x 4.467220 0.000000 0.000000 
#    y 0.000000 3.993980 0.000000 
#    z 0.000000 0.000000 3.381060 
# 
# 
# High freq. dielectric constant tensor:
#      x y z
#    x 1.831120 0.000000 0.000000 
#    y 0.000000 1.820400 0.000000 
#    z 0.000000 0.000000 1.773590 
# 
# From -- ./inp_files/41541.got.cif
#   From: 2010.03.12/outbox.cif.g09.slc.cpg/sg64_21_cif.got.tgz:41541.got - 2010.04.10 20:19:32.
