data_PCOD8263060
_publ_section_title
;
Structure prediction by ZEFSAII (Michael W. Deem and Ramdas Pophale) SiO2 
 PCOD8263060
Probable space group: C M C A
;
_chemical_formula_sum "Si O2"
_cell_formula_units_Z 112
_cell_length_a 15.266478
_cell_length_b 23.202384
_cell_length_c 15.464146
_cell_angle_alpha 90.000000
_cell_angle_beta 90.000000
_cell_angle_gamma 90.000000
_cell_volume 5477.689459
_symmetry_space_group_name_H-M "C M C A"
_symmetry_group_IT_number 64
_symmetry_cell_setting 'orthorhombic'
loop_
_space_group_symop_operation_xyz
x,y,z
-x,1/2-y,1/2+z
x,-y,-z
-x,1/2+y,1/2-z
-x,-y,-z
x,1/2+y,1/2-z
-x,y,z
x,1/2-y,1/2+z
1/2+x,1/2+y,z
1/2-x,-y,1/2+z
1/2+x,1/2-y,-z
1/2-x,y,1/2-z
1/2-x,1/2-y,-z
1/2+x,y,1/2-z
1/2-x,1/2+y,z
1/2+x,-y,1/2+z
loop_
_atom_site_type_symbol
_atom_site_label
_atom_site_fract_x
_atom_site_fract_y
_atom_site_fract_z
Si Si1 0.597765 0.518558 0.190231
Si Si2 0.815680 0.281589 0.597466
Si Si3 0.641212 0.719683 0.914574
Si Si4 0.904440 0.192928 0.273509
Si Si5 0.900500 0.575246 0.139004
Si Si6 0.277657 0.588243 0.071437
Si Si7 0.099941 0.590981 0.585830
O O1 0.500000 0.537893 0.159208
O O2 0.602361 0.522016 0.294294
O O3 0.670372 0.561071 0.151553
O O4 0.614545 0.452024 0.165913
O O5 0.744966 0.230549 0.594244
O O6 0.884182 0.272226 0.517321
O O7 0.851568 0.279767 0.694421
O O8 0.771633 0.343202 0.580527
O O9 0.589434 0.763614 0.854271
O O10 0.619039 0.655562 0.882418
O O11 0.869816 0.131740 0.306977
O O12 0.000000 0.182399 0.235250
O O13 0.824000 0.565706 0.067378
O O14 0.000000 0.581689 0.099619
O O15 0.331038 0.570125 0.986344
O O16 0.000000 0.586798 0.550314
#
# Coordination Sequence:
#
# PCOD8263060 Si02
#       7
#    16  16  16  16  16  16  16
#     4  10  20  35  58  91 120 149 195 254 310 364
#     4  10  21  35  57  87 121 161 203 258 308 365
#     4  10  21  37  58  84 123 162 203 248 304 368
#     4  11  21  35  58  86 120 161 205 258 310 358
#     4  10  21  35  57  90 121 155 203 256 305 358
#     4  11  19  34  60  86 123 154 197 252 308 358
#     4  10  22  38  59  89 125 161 200 251 311 373
#
# _framework density 20.446577000000001
#
# number of rings (size 3 to 8) (size 9 to 14) (size 15 to 20)
#    0.000    1.714    2.857    2.143    0.000    4.000 
#    0.000    2.857    0.000    1.714    0.000    0.000 
#    0.000    0.000    0.000    0.000    0.000    0.000 
#
# Total GULP energy -693908.484208 kJ/mol
# GULP energy per Si atom -12391.222932 kJ/mol
# Density = 2.040004 g / cm^3
# Si number density = 20.446577 Si / 1000 Ang^3
#
#
#
# Elastic Constant Matrix: (Units=GPa)
#
#
# Indices 1 2 3 4 5 6 
#
# 1 121.4578 38.4040 44.0752 0.0000 0.0000 0.0000
# 2 38.4040 84.9347 35.2200 0.0000 0.0000 0.0000
# 3 44.0752 35.2200 76.4319 0.0000 0.0000 0.0000
# 4 0.0000 0.0000 0.0000 27.9912 0.0000 0.0000
# 5 0.0000 0.0000 0.0000 0.0000 25.6373 0.0000
# 6 0.0000 0.0000 0.0000 0.0000 0.0000 26.7649
#
#
#
# Elastic Compliance Matrix: (Units=1/GPa)
#
#
# Indices 1 2 3 4 5 6 
#
# 1 0.010956 -0.002885 -0.004988 0.000000 0.000000 0.000000
# 2 -0.002885 0.015315 -0.005393 0.000000 0.000000 0.000000
# 3 -0.004988 -0.005393 0.018445 0.000000 0.000000 0.000000
# 4 0.000000 0.000000 0.000000 0.035725 0.000000 0.000000
# 5 0.000000 0.000000 0.000000 0.000000 0.039006 0.000000
# 6 0.000000 0.000000 0.000000 0.000000 0.000000 0.037362
#
#
# Mechanical properties :
#
#
# Convention : Reuss Voigt Hill
#
# Bulk Modulus (GPa) = 54.99849 57.58033 56.28941
# Shear Modulus (GPa) = 26.39866 27.08704 26.74285
#
# Velocity S-wave (km/s) = 3.59709 3.64369 3.62047
# Velocity P-wave (km/s) = 6.64899 6.77676 6.71318
#
# Compressibility (1/GPa) = 0.01818232
#
# Stress axis : x y z
#
# Youngs Moduli (GPa) = 91.27617 65.29637 54.21442
#
# Poissons Ratio (x) = 0.18840 0.27043
# Poissons Ratio (y) = 0.26336 0.29239
# Poissons Ratio (z) = 0.45530 0.35216
#
# Static dielectric constant tensor:
#      x y z
#    x 3.830910 0.000000 0.000000 
#    y 0.000000 3.626530 0.000000 
#    z 0.000000 0.000000 3.711620 
# 
# 
# High freq. dielectric constant tensor:
#      x y z
#    x 1.803270 0.000000 0.000000 
#    y 0.000000 1.790070 0.000000 
#    z 0.000000 0.000000 1.775640 
# 
# From -- ./inp_files/24416.got.cif
#   From: 2010.03.12/outbox.cif.g09.slc.cpg/sg64_13_cif.got.tgz:24416.got - 2010.04.10 20:19:32.
