data_PCOD8263435
_publ_section_title
;
Structure prediction by ZEFSAII (Michael W. Deem and Ramdas Pophale) SiO2 
 PCOD8263435
Probable space group: C M C A
;
_chemical_formula_sum "Si O2"
_cell_formula_units_Z 96
_cell_length_a 11.265548
_cell_length_b 23.652897
_cell_length_c 17.400044
_cell_angle_alpha 90.000000
_cell_angle_beta 90.000000
_cell_angle_gamma 90.000000
_cell_volume 4636.465253
_symmetry_space_group_name_H-M "C M C A"
_symmetry_group_IT_number 64
_symmetry_cell_setting 'orthorhombic'
loop_
_space_group_symop_operation_xyz
x,y,z
-x,1/2-y,1/2+z
x,-y,-z
-x,1/2+y,1/2-z
-x,-y,-z
x,1/2+y,1/2-z
-x,y,z
x,1/2-y,1/2+z
1/2+x,1/2+y,z
1/2-x,-y,1/2+z
1/2+x,1/2-y,-z
1/2-x,y,1/2-z
1/2-x,1/2-y,-z
1/2+x,y,1/2-z
1/2-x,1/2+y,z
1/2+x,-y,1/2+z
loop_
_atom_site_type_symbol
_atom_site_label
_atom_site_fract_x
_atom_site_fract_y
_atom_site_fract_z
Si Si1 0.761584 0.448033 0.665612
Si Si2 0.000000 0.496183 0.617068
Si Si3 0.362401 0.967212 0.072517
Si Si4 0.861673 0.159648 0.570054
Si Si5 0.359787 0.746277 0.188972
Si Si6 0.500000 0.095319 0.514087
Si Si7 0.704039 0.343354 0.938016
O O1 0.750000 0.421874 0.750000
O O2 0.885490 0.480903 0.665918
O O3 0.662796 0.495734 0.648093
O O4 0.743697 0.397065 0.606716
O O5 0.000000 0.563492 0.596673
O O6 0.000000 0.456089 0.544183
O O7 0.500000 0.961981 0.057061
O O8 0.310893 0.904043 0.081494
O O9 0.300743 0.000000 0.000000
O O10 0.831911 0.194558 0.647041
O O11 0.805301 0.185419 0.491262
O O12 0.000000 0.160944 0.554677
O O13 0.500000 0.745016 0.220915
O O14 0.250000 0.737384 0.250000
O O15 0.353214 0.698389 0.123858
O O16 0.389227 0.136201 0.501729
#
# Coordination Sequence:
#
# PCOD8263435 Si02
#       7
#    16   8  16  16  16   8  16
#     4  11  23  35  58  90 130 165 208 261 328 389
#     4   9  20  34  52  84 121 164 208 254 317 383
#     4  10  20  38  63  90 123 166 213 262 312 376
#     4  10  22  40  66  96 126 166 222 271 320 391
#     4  11  25  46  67  95 135 175 218 273 333 397
#     4   9  18  34  62  84 116 160 209 266 313 373
#     4  11  20  40  64  94 124 164 215 272 323 383
#
# _framework density 20.705428999999999
#
# number of rings (size 3 to 8) (size 9 to 14) (size 15 to 20)
#    0.000    1.667    2.500    2.000    3.500    1.333 
#    1.500    0.000    0.000    0.000    0.000    0.000 
#    0.000    0.000    0.000    0.000    0.000    0.000 
#
# Total GULP energy -594679.455233 kJ/mol
# GULP energy per Si atom -12389.155317 kJ/mol
# Density = 2.065830 g / cm^3
# Si number density = 20.705429 Si / 1000 Ang^3
#
#
#
# Elastic Constant Matrix: (Units=GPa)
#
#
# Indices 1 2 3 4 5 6 
#
# 1 77.9604 26.2180 37.4875 0.0000 0.0000 0.0000
# 2 26.2180 88.2645 8.9406 0.0000 0.0000 0.0000
# 3 37.4875 8.9406 64.3408 0.0000 0.0000 0.0000
# 4 0.0000 0.0000 0.0000 30.6823 0.0000 0.0000
# 5 0.0000 0.0000 0.0000 0.0000 33.3409 0.0000
# 6 0.0000 0.0000 0.0000 0.0000 0.0000 26.8303
#
#
#
# Elastic Compliance Matrix: (Units=1/GPa)
#
#
# Indices 1 2 3 4 5 6 
#
# 1 0.019590 -0.004729 -0.010757 0.000000 0.000000 0.000000
# 2 -0.004729 0.012633 0.001000 0.000000 0.000000 0.000000
# 3 -0.010757 0.001000 0.021671 0.000000 0.000000 0.000000
# 4 0.000000 0.000000 0.000000 0.032592 0.000000 0.000000
# 5 0.000000 0.000000 0.000000 0.000000 0.029993 0.000000
# 6 0.000000 0.000000 0.000000 0.000000 0.000000 0.037271
#
#
# Mechanical properties :
#
#
# Convention : Reuss Voigt Hill
#
# Bulk Modulus (GPa) = 40.12588 41.76197 40.94392
# Shear Modulus (GPa) = 26.17401 28.69867 27.43634
#
# Velocity S-wave (km/s) = 3.55929 3.72700 3.64411
# Velocity P-wave (km/s) = 6.02602 6.22367 6.12564
#
# Compressibility (1/GPa) = 0.02492157
#
# Stress axis : x y z
#
# Youngs Moduli (GPa) = 51.04681 79.15719 46.14562
#
# Poissons Ratio (x) = 0.37436 0.49637
# Poissons Ratio (y) = 0.24142 -0.04615
# Poissons Ratio (z) = 0.54909 -0.07916
#
# Static dielectric constant tensor:
#      x y z
#    x 3.958660 0.000000 0.000000 
#    y 0.000000 4.010990 0.000000 
#    z 0.000000 0.000000 3.551150 
# 
# 
# High freq. dielectric constant tensor:
#      x y z
#    x 1.816410 0.000000 0.000000 
#    y 0.000000 1.814120 0.000000 
#    z 0.000000 0.000000 1.785200 
# 
# From -- ./inp_files/31132.got.cif
#   From: 2010.03.12/outbox.cif.g09.slc.cpg/sg64_16_cif.got.tgz:31132.got - 2010.04.10 20:19:32.
