data_PCOD8263395
_publ_section_title
;
Structure prediction by ZEFSAII (Michael W. Deem and Ramdas Pophale) SiO2 
 PCOD8263395
Probable space group: C M C A
;
_chemical_formula_sum "Si O2"
_cell_formula_units_Z 64
_cell_length_a 7.769119
_cell_length_b 14.647095
_cell_length_c 27.715937
_cell_angle_alpha 90.000000
_cell_angle_beta 90.000000
_cell_angle_gamma 90.000000
_cell_volume 3153.935718
_symmetry_space_group_name_H-M "C M C A"
_symmetry_group_IT_number 64
_symmetry_cell_setting 'orthorhombic'
loop_
_space_group_symop_operation_xyz
x,y,z
-x,1/2-y,1/2+z
x,-y,-z
-x,1/2+y,1/2-z
-x,-y,-z
x,1/2+y,1/2-z
-x,y,z
x,1/2-y,1/2+z
1/2+x,1/2+y,z
1/2-x,-y,1/2+z
1/2+x,1/2-y,-z
1/2-x,y,1/2-z
1/2-x,1/2-y,-z
1/2+x,y,1/2-z
1/2-x,1/2+y,z
1/2+x,-y,1/2+z
loop_
_atom_site_type_symbol
_atom_site_label
_atom_site_fract_x
_atom_site_fract_y
_atom_site_fract_z
Si Si1 0.197125 0.730891 0.195544
Si Si2 0.190894 0.592364 0.377605
Si Si3 0.500000 0.103172 0.056323
Si Si4 0.696222 0.882368 0.380618
Si Si5 0.000000 0.613404 0.948937
O O1 0.250000 0.748329 0.250000
O O2 0.303548 0.647478 0.172517
O O3 0.235010 0.824252 0.167029
O O4 0.000000 0.702315 0.192343
O O5 0.329411 0.634984 0.414813
O O6 0.231862 0.487040 0.366225
O O7 0.000000 0.601856 0.400436
O O8 0.500000 0.995283 0.050422
O O9 0.500000 0.150535 0.003789
O O10 0.500000 0.867802 0.399066
O O11 0.827578 0.850643 0.422497
#
# Coordination Sequence:
#
# PCOD8263395 Si02
#       5
#    16  16   8  16   8
#     4  11  23  39  59  85 116 150 191 236 285 341
#     4  10  20  38  60  84 118 152 188 236 282 333
#     4   9  18  36  57  90 111 151 192 235 280 338
#     4   9  21  38  58  85 117 150 190 236 280 337
#     4   9  18  34  63  82 115 151 192 231 288 330
#
# _framework density 20.292107000000001
#
# number of rings (size 3 to 8) (size 9 to 14) (size 15 to 20)
#    0.000    2.250    1.250    0.750    3.500    2.000 
#    0.000    8.750    0.000    0.000    0.000    0.000 
#    0.000    0.000    0.000    0.000    0.000    0.000 
#
# Total GULP energy -396822.363957 kJ/mol
# GULP energy per Si atom -12400.698874 kJ/mol
# Density = 2.024592 g / cm^3
# Si number density = 20.292107 Si / 1000 Ang^3
#
#
#
# Elastic Constant Matrix: (Units=GPa)
#
#
# Indices 1 2 3 4 5 6 
#
# 1 135.4184 42.7361 72.2498 0.0000 0.0000 0.0000
# 2 42.7361 58.4340 41.5845 0.0000 0.0000 0.0000
# 3 72.2498 41.5845 159.3475 0.0000 0.0000 0.0000
# 4 0.0000 0.0000 0.0000 21.1058 0.0000 0.0000
# 5 0.0000 0.0000 0.0000 0.0000 25.7408 0.0000
# 6 0.0000 0.0000 0.0000 0.0000 0.0000 23.3752
#
#
#
# Elastic Compliance Matrix: (Units=1/GPa)
#
#
# Indices 1 2 3 4 5 6 
#
# 1 0.011029 -0.005535 -0.003556 0.000000 0.000000 0.000000
# 2 -0.005535 0.023795 -0.003700 0.000000 0.000000 0.000000
# 3 -0.003556 -0.003700 0.008853 0.000000 0.000000 0.000000
# 4 0.000000 0.000000 0.000000 0.047380 0.000000 0.000000
# 5 0.000000 0.000000 0.000000 0.000000 0.038849 0.000000
# 6 0.000000 0.000000 0.000000 0.000000 0.000000 0.042780
#
#
# Mechanical properties :
#
#
# Convention : Reuss Voigt Hill
#
# Bulk Modulus (GPa) = 55.26551 74.03786 64.65169
# Shear Modulus (GPa) = 24.47383 27.15298 25.81341
#
# Velocity S-wave (km/s) = 3.47663 3.66198 3.57051
# Velocity P-wave (km/s) = 6.58863 7.37871 6.99483
#
# Compressibility (1/GPa) = 0.01809447
#
# Stress axis : x y z
#
# Youngs Moduli (GPa) = 90.67359 42.02639 112.95036
#
# Poissons Ratio (x) = 0.23263 0.40165
# Poissons Ratio (y) = 0.50190 0.41790
# Poissons Ratio (z) = 0.32243 0.15549
#
# Static dielectric constant tensor:
#      x y z
#    x 3.953420 0.000000 0.000000 
#    y 0.000000 3.522640 0.000000 
#    z 0.000000 0.000000 3.835380 
# 
# 
# High freq. dielectric constant tensor:
#      x y z
#    x 1.810790 0.000000 0.000000 
#    y 0.000000 1.784690 0.000000 
#    z 0.000000 0.000000 1.774990 
# 
# From -- ./inp_files/42490.got.cif
#   From: 2010.03.12/outbox.cif.g09.slc.cpg/sg64_22_cif.got.tgz:42490.got - 2010.04.10 20:19:32.
