data_PCOD8263294
_publ_section_title
;
Structure prediction by ZEFSAII (Michael W. Deem and Ramdas Pophale) SiO2 
 PCOD8263294
Probable space group: C M C A
;
_chemical_formula_sum "Si O2"
_cell_formula_units_Z 112
_cell_length_a 13.941782
_cell_length_b 33.333359
_cell_length_c 10.615786
_cell_angle_alpha 90.000000
_cell_angle_beta 90.000000
_cell_angle_gamma 90.000000
_cell_volume 4933.436271
_symmetry_space_group_name_H-M "C M C A"
_symmetry_group_IT_number 64
_symmetry_cell_setting 'orthorhombic'
loop_
_space_group_symop_operation_xyz
x,y,z
-x,1/2-y,1/2+z
x,-y,-z
-x,1/2+y,1/2-z
-x,-y,-z
x,1/2+y,1/2-z
-x,y,z
x,1/2-y,1/2+z
1/2+x,1/2+y,z
1/2-x,-y,1/2+z
1/2+x,1/2-y,-z
1/2-x,y,1/2-z
1/2-x,1/2-y,-z
1/2+x,y,1/2-z
1/2-x,1/2+y,z
1/2+x,-y,1/2+z
loop_
_atom_site_type_symbol
_atom_site_label
_atom_site_fract_x
_atom_site_fract_y
_atom_site_fract_z
Si Si1 0.194787 0.055821 0.048926
Si Si2 0.103634 0.438366 0.071671
Si Si3 0.151918 0.017750 0.800685
Si Si4 0.770265 0.204299 0.115383
Si Si5 0.894092 0.363257 0.503567
Si Si6 0.640578 0.641573 0.722862
Si Si7 0.891343 0.279667 0.074819
O O1 0.167234 0.101711 0.071339
O O2 0.164069 0.029968 0.171849
O O3 0.309078 0.049105 0.021695
O O4 0.129641 0.040191 0.931901
O O5 0.082963 0.470751 0.185235
O O6 0.125372 0.394347 0.125270
O O7 0.000000 0.437371 0.999713
O O8 0.250000 0.037359 0.750000
O O9 0.750000 0.183690 0.250000
O O10 0.835936 0.177255 0.026047
O O11 0.829591 0.245017 0.142795
O O12 0.666340 0.210374 0.052673
O O13 0.908893 0.369621 0.354598
O O14 0.000000 0.361393 0.565294
O O15 0.750000 0.649167 0.750000
O O16 0.597844 0.682134 0.665643
O O17 0.000000 0.265429 0.041285
#
# Coordination Sequence:
#
# PCOD8263294 Si02
#       7
#    16  16  16  16  16  16  16
#     4  10  20  37  58  86 125 163 206 260 313 366
#     4  11  20  35  62  95 125 160 210 265 318 373
#     4   9  19  36  56  82 122 164 201 253 309 363
#     4  11  26  45  63  93 133 168 208 260 315 379
#     4  12  24  40  66  95 126 170 216 261 318 382
#     4  12  20  40  66  97 128 162 212 271 325 371
#     4  11  24  42  68  96 126 168 211 260 320 379
#
# _framework density 22.702228999999999
#
# number of rings (size 3 to 8) (size 9 to 14) (size 15 to 20)
#    0.000    1.143    4.286    2.571    2.000    2.286 
#    0.000    7.143    0.000    4.286    0.000    0.000 
#    0.000    0.000    0.000    0.000    0.000    0.000 
#
# Total GULP energy -694008.866262 kJ/mol
# GULP energy per Si atom -12393.015469 kJ/mol
# Density = 2.265056 g / cm^3
# Si number density = 22.702229 Si / 1000 Ang^3
#
#
#
# Elastic Constant Matrix: (Units=GPa)
#
#
# Indices 1 2 3 4 5 6 
#
# 1 154.2008 15.1906 19.2142 0.0000 0.0000 0.0000
# 2 15.1906 116.5123 18.4856 0.0000 0.0000 0.0000
# 3 19.2142 18.4856 42.9587 0.0000 0.0000 0.0000
# 4 0.0000 0.0000 0.0000 27.7876 0.0000 0.0000
# 5 0.0000 0.0000 0.0000 0.0000 12.9585 0.0000
# 6 0.0000 0.0000 0.0000 0.0000 0.0000 12.4030
#
#
#
# Elastic Compliance Matrix: (Units=1/GPa)
#
#
# Indices 1 2 3 4 5 6 
#
# 1 0.006889 -0.000439 -0.002892 0.000000 0.000000 0.000000
# 2 -0.000439 0.009240 -0.003779 0.000000 0.000000 0.000000
# 3 -0.002892 -0.003779 0.026198 0.000000 0.000000 0.000000
# 4 0.000000 0.000000 0.000000 0.035987 0.000000 0.000000
# 5 0.000000 0.000000 0.000000 0.000000 0.077170 0.000000
# 6 0.000000 0.000000 0.000000 0.000000 0.000000 0.080625
#
#
# Mechanical properties :
#
#
# Convention : Reuss Voigt Hill
#
# Bulk Modulus (GPa) = 35.58112 46.60583 41.09348
# Shear Modulus (GPa) = 19.25309 28.01526 23.63417
#
# Velocity S-wave (km/s) = 2.91532 3.51669 3.23003
# Velocity P-wave (km/s) = 5.19992 6.08796 5.66138
#
# Compressibility (1/GPa) = 0.02810479
#
# Stress axis : x y z
#
# Youngs Moduli (GPa) = 145.16545 108.22863 38.17077
#
# Poissons Ratio (x) = 0.04754 0.11039
# Poissons Ratio (y) = 0.06377 0.14427
# Poissons Ratio (z) = 0.41983 0.40905
#
# Static dielectric constant tensor:
#      x y z
#    x 4.223190 0.000000 0.000000 
#    y 0.000000 4.057370 0.000000 
#    z 0.000000 0.000000 3.871690 
# 
# 
# High freq. dielectric constant tensor:
#      x y z
#    x 1.903420 0.000000 0.000000 
#    y 0.000000 1.897500 0.000000 
#    z 0.000000 0.000000 1.864930 
# 
# From -- ./inp_files/15019.got.cif
#   From: 2010.03.12/outbox.cif.g09.slc.cpg/sg64_8_cif.got.tgz:15019.got - 2010.04.10 20:19:32.
