data_PCOD8263924
_publ_section_title
;
Structure prediction by ZEFSAII (Michael W. Deem and Ramdas Pophale) SiO2 
 PCOD8263924
Probable space group: C M C A
;
_chemical_formula_sum "Si O2"
_cell_formula_units_Z 80
_cell_length_a 8.775995
_cell_length_b 27.308231
_cell_length_c 18.099016
_cell_angle_alpha 90.000000
_cell_angle_beta 90.000000
_cell_angle_gamma 90.000000
_cell_volume 4337.554044
_symmetry_space_group_name_H-M "C M C A"
_symmetry_group_IT_number 64
_symmetry_cell_setting 'orthorhombic'
loop_
_space_group_symop_operation_xyz
x,y,z
-x,1/2-y,1/2+z
x,-y,-z
-x,1/2+y,1/2-z
-x,-y,-z
x,1/2+y,1/2-z
-x,y,z
x,1/2-y,1/2+z
1/2+x,1/2+y,z
1/2-x,-y,1/2+z
1/2+x,1/2-y,-z
1/2-x,y,1/2-z
1/2-x,1/2-y,-z
1/2+x,y,1/2-z
1/2-x,1/2+y,z
1/2+x,-y,1/2+z
loop_
_atom_site_type_symbol
_atom_site_label
_atom_site_fract_x
_atom_site_fract_y
_atom_site_fract_z
Si Si1 0.319412 0.954221 0.830439
Si Si2 0.824911 0.154023 0.675227
Si Si3 0.819827 0.556859 0.901569
Si Si4 0.678234 0.699146 0.522601
Si Si5 0.680775 0.102133 0.459912
O O1 0.500000 0.948485 0.827066
O O2 0.250000 0.948879 0.750000
O O3 0.247688 0.911756 0.880297
O O4 0.270902 0.006497 0.864024
O O5 0.750000 0.173482 0.750000
O O6 0.761415 0.100734 0.651223
O O7 0.793763 0.192765 0.610169
O O8 0.000000 0.148466 0.693173
O O9 0.000000 0.560730 0.915973
O O10 0.738987 0.562202 0.980761
O O11 0.500000 0.697621 0.503568
O O12 0.750000 0.750000 0.500000
O O13 0.760342 0.656198 0.478113
O O14 0.500000 0.102048 0.457458
#
# Coordination Sequence:
#
# PCOD8263924 Si02
#       5
#    16  16  16  16  16
#     4  11  22  36  54  78 112 150 186 226 271 319
#     4   9  18  32  52  80 111 138 170 215 266 319
#     4   9  19  35  54  78 110 146 181 222 270 317
#     4  10  21  39  60  82 107 138 179 226 276 328
#     4  11  22  36  56  81 108 142 184 225 269 325
#
# _framework density 18.443573000000001
#
# number of rings (size 3 to 8) (size 9 to 14) (size 15 to 20)
#    0.000    2.000    0.000    5.400    0.000    8.000 
#    0.000    1.000    0.000    2.400    0.000    0.000 
#    0.000    0.000    0.000    0.000    0.000    0.000 
#
# Total GULP energy -496105.395275 kJ/mol
# GULP energy per Si atom -12402.634882 kJ/mol
# Density = 1.840159 g / cm^3
# Si number density = 18.443573 Si / 1000 Ang^3
#
#
#
# Elastic Constant Matrix: (Units=GPa)
#
#
# Indices 1 2 3 4 5 6 
#
# 1 97.8814 44.6933 67.3157 0.0000 0.0000 0.0000
# 2 44.6933 82.7455 65.3371 0.0000 0.0000 0.0000
# 3 67.3157 65.3371 150.5474 0.0000 0.0000 0.0000
# 4 0.0000 0.0000 0.0000 31.0514 0.0000 0.0000
# 5 0.0000 0.0000 0.0000 0.0000 38.0469 0.0000
# 6 0.0000 0.0000 0.0000 0.0000 0.0000 29.3757
#
#
#
# Elastic Compliance Matrix: (Units=1/GPa)
#
#
# Indices 1 2 3 4 5 6 
#
# 1 0.015779 -0.004490 -0.005106 0.000000 0.000000 0.000000
# 2 -0.004490 0.019664 -0.006526 0.000000 0.000000 0.000000
# 3 -0.005106 -0.006526 0.011758 0.000000 0.000000 0.000000
# 4 0.000000 0.000000 0.000000 0.032205 0.000000 0.000000
# 5 0.000000 0.000000 0.000000 0.000000 0.026283 0.000000
# 6 0.000000 0.000000 0.000000 0.000000 0.000000 0.034042
#
#
# Mechanical properties :
#
#
# Convention : Reuss Voigt Hill
#
# Bulk Modulus (GPa) = 66.86966 76.20738 71.53852
# Shear Modulus (GPa) = 28.25480 29.95003 29.10242
#
# Velocity S-wave (km/s) = 3.91827 4.03410 3.97661
# Velocity P-wave (km/s) = 7.53694 7.94403 7.74316
#
# Compressibility (1/GPa) = 0.01495447
#
# Stress axis : x y z
#
# Youngs Moduli (GPa) = 63.37693 50.85485 85.04797
#
# Poissons Ratio (x) = 0.22836 0.43429
# Poissons Ratio (y) = 0.28459 0.55504
# Poissons Ratio (z) = 0.32363 0.33189
#
# Static dielectric constant tensor:
#      x y z
#    x 3.397880 0.000000 0.000000 
#    y 0.000000 3.310920 0.000000 
#    z 0.000000 0.000000 3.504440 
# 
# 
# High freq. dielectric constant tensor:
#      x y z
#    x 1.721540 0.000000 0.000000 
#    y 0.000000 1.704430 0.000000 
#    z 0.000000 0.000000 1.720180 
# 
# From -- ./inp_files/29701.got.cif
#   From: 2010.03.12/outbox.cif.g09.slc.cpg/sg64_15_cif.got.tgz:29701.got - 2010.04.10 20:19:32.
