data_PCOD8263436
_publ_section_title
;
Structure prediction by ZEFSAII (Michael W. Deem and Ramdas Pophale) SiO2 
 PCOD8263436
Probable space group: C M C A
;
_chemical_formula_sum "Si O2"
_cell_formula_units_Z 96
_cell_length_a 17.396192
_cell_length_b 23.968721
_cell_length_c 11.590689
_cell_angle_alpha 90.000000
_cell_angle_beta 90.000000
_cell_angle_gamma 90.000000
_cell_volume 4832.905525
_symmetry_space_group_name_H-M "C M C A"
_symmetry_group_IT_number 64
_symmetry_cell_setting 'orthorhombic'
loop_
_space_group_symop_operation_xyz
x,y,z
-x,1/2-y,1/2+z
x,-y,-z
-x,1/2+y,1/2-z
-x,-y,-z
x,1/2+y,1/2-z
-x,y,z
x,1/2-y,1/2+z
1/2+x,1/2+y,z
1/2-x,-y,1/2+z
1/2+x,1/2-y,-z
1/2-x,y,1/2-z
1/2-x,1/2-y,-z
1/2+x,y,1/2-z
1/2-x,1/2+y,z
1/2+x,-y,1/2+z
loop_
_atom_site_type_symbol
_atom_site_label
_atom_site_fract_x
_atom_site_fract_y
_atom_site_fract_z
Si Si1 0.659659 0.032243 0.250397
Si Si2 0.910644 0.797917 0.807676
Si Si3 0.337368 0.089847 0.712864
Si Si4 0.164211 0.134618 0.394631
Si Si5 0.910669 0.825175 0.372390
Si Si6 0.661217 0.112510 0.445617
O O1 0.750000 0.024390 0.250000
O O2 0.633865 0.072896 0.144949
O O3 0.633560 0.059577 0.370794
O O4 0.627332 0.969270 0.242219
O O5 0.861926 0.819297 0.698136
O O6 0.881251 0.736646 0.842555
O O7 0.897266 0.836813 0.919800
O O8 0.000000 0.797290 0.772968
O O9 0.250000 0.100380 0.750000
O O10 0.392740 0.137071 0.762138
O O11 0.340573 0.093221 0.575851
O O12 0.132674 0.149179 0.519077
O O13 0.256040 0.133601 0.400907
O O14 0.000000 0.824641 0.401227
#
# Coordination Sequence:
#
# PCOD8263436 Si02
#       6
#    16  16  16  16  16  16
#     4   8  18  35  62  88 117 151 188 239 296 351
#     4  10  23  40  60  83 118 163 198 243 302 353
#     4  11  21  37  59  90 121 152 193 242 294 349
#     4  10  20  41  62  88 118 153 202 248 291 355
#     4  11  25  40  57  85 120 161 199 243 301 354
#     4  10  20  38  63  91 116 151 203 244 290 351
#
# _framework density 19.863827000000001
#
# number of rings (size 3 to 8) (size 9 to 14) (size 15 to 20)
#    0.000    2.000    1.667    2.500    2.333    3.333 
#    0.000    5.000    0.000    5.000    0.000    0.000 
#    0.000    0.000    0.000    0.000    0.000    0.000 
#
# Total GULP energy -595109.638552 kJ/mol
# GULP energy per Si atom -12398.117470 kJ/mol
# Density = 1.981862 g / cm^3
# Si number density = 19.863827 Si / 1000 Ang^3
#
#
#
# Elastic Constant Matrix: (Units=GPa)
#
#
# Indices 1 2 3 4 5 6 
#
# 1 30.6967 17.6909 4.7659 0.0000 0.0000 0.0000
# 2 17.6909 149.5233 35.1151 0.0000 0.0000 0.0000
# 3 4.7659 35.1151 80.8907 0.0000 0.0000 0.0000
# 4 0.0000 0.0000 0.0000 27.6919 0.0000 0.0000
# 5 0.0000 0.0000 0.0000 0.0000 19.2599 0.0000
# 6 0.0000 0.0000 0.0000 0.0000 0.0000 7.0977
#
#
#
# Elastic Compliance Matrix: (Units=1/GPa)
#
#
# Indices 1 2 3 4 5 6 
#
# 1 0.034967 -0.004068 -0.000294 0.000000 0.000000 0.000000
# 2 -0.004068 0.007920 -0.003199 0.000000 0.000000 0.000000
# 3 -0.000294 -0.003199 0.013768 0.000000 0.000000 0.000000
# 4 0.000000 0.000000 0.000000 0.036112 0.000000 0.000000
# 5 0.000000 0.000000 0.000000 0.000000 0.051921 0.000000
# 6 0.000000 0.000000 0.000000 0.000000 0.000000 0.140890
#
#
# Mechanical properties :
#
#
# Convention : Reuss Voigt Hill
#
# Bulk Modulus (GPa) = 24.07676 41.80604 32.94140
# Shear Modulus (GPa) = 15.89597 24.37916 20.13756
#
# Velocity S-wave (km/s) = 2.83193 3.50711 3.18745
# Velocity P-wave (km/s) = 4.77916 6.12305 5.49236
#
# Compressibility (1/GPa) = 0.04153383
#
# Stress axis : x y z
#
# Youngs Moduli (GPa) = 28.59848 126.25607 72.63095
#
# Poissons Ratio (x) = 0.51361 0.02137
# Poissons Ratio (y) = 0.11634 0.23232
# Poissons Ratio (z) = 0.00841 0.40384
#
# Static dielectric constant tensor:
#      x y z
#    x 3.425940 0.000000 0.000000 
#    y 0.000000 3.980300 0.000000 
#    z 0.000000 0.000000 3.619470 
# 
# 
# High freq. dielectric constant tensor:
#      x y z
#    x 1.750810 0.000000 0.000000 
#    y 0.000000 1.788670 0.000000 
#    z 0.000000 0.000000 1.779730 
# 
# From -- ./inp_files/16191.got.cif
#   From: 2010.03.12/outbox.cif.g09.slc.cpg/sg64_9_cif.got.tgz:16191.got - 2010.04.10 20:19:32.
