data_PCOD8263653
_publ_section_title
;
Structure prediction by ZEFSAII (Michael W. Deem and Ramdas Pophale) SiO2 
 PCOD8263653
Probable space group: C M C A
;
_chemical_formula_sum "Si O2"
_cell_formula_units_Z 64
_cell_length_a 26.615607
_cell_length_b 25.092710
_cell_length_c 5.031768
_cell_angle_alpha 90.000000
_cell_angle_beta 90.000000
_cell_angle_gamma 90.000000
_cell_volume 3360.505043
_symmetry_space_group_name_H-M "C M C A"
_symmetry_group_IT_number 64
_symmetry_cell_setting 'orthorhombic'
loop_
_space_group_symop_operation_xyz
x,y,z
-x,1/2-y,1/2+z
x,-y,-z
-x,1/2+y,1/2-z
-x,-y,-z
x,1/2+y,1/2-z
-x,y,z
x,1/2-y,1/2+z
1/2+x,1/2+y,z
1/2-x,-y,1/2+z
1/2+x,1/2-y,-z
1/2-x,y,1/2-z
1/2-x,1/2-y,-z
1/2+x,y,1/2-z
1/2-x,1/2+y,z
1/2+x,-y,1/2+z
loop_
_atom_site_type_symbol
_atom_site_label
_atom_site_fract_x
_atom_site_fract_y
_atom_site_fract_z
Si Si1 0.307005 0.963355 0.248712
Si Si2 0.442308 0.715049 0.608925
Si Si3 0.101406 0.604731 0.857789
Si Si4 0.057755 0.054687 0.125884
O O1 0.250000 0.941690 0.250000
O O2 0.342553 0.911101 0.237705
O O3 0.319021 0.000000 0.500000
O O4 0.317604 0.000000 0.000000
O O5 0.500000 0.695032 0.580203
O O6 0.431206 0.761023 0.397014
O O7 0.404110 0.666201 0.556184
O O8 0.064491 0.598706 0.603913
O O9 0.087147 0.567191 0.104728
O O10 0.000000 0.049163 0.206171
O O11 0.079338 0.000000 0.000000
#
# Coordination Sequence:
#
# PCOD8263653 Si02
#       4
#    16  16  16  16
#     4  10  21  37  57  82 110 140 178 222 268 324
#     4  10  21  36  53  75 104 140 184 228 267 312
#     4  12  21  35  57  77 106 146 184 220 269 319
#     4  11  22  33  49  79 114 143 173 211 263 331
#
# _framework density 19.044758000000002
#
# number of rings (size 3 to 8) (size 9 to 14) (size 15 to 20)
#    0.000    1.250    0.000    8.250    0.000    4.000 
#    0.000    0.000    0.000    1.500    0.000    0.000 
#    0.000    0.000    0.000    0.000    0.000    0.000 
#
# Total GULP energy -396882.209023 kJ/mol
# GULP energy per Si atom -12402.569032 kJ/mol
# Density = 1.900141 g / cm^3
# Si number density = 19.044758 Si / 1000 Ang^3
#
#
#
# Elastic Constant Matrix: (Units=GPa)
#
#
# Indices 1 2 3 4 5 6 
#
# 1 107.8104 67.5839 37.0930 0.0000 0.0000 0.0000
# 2 67.5839 100.9501 18.9664 0.0000 0.0000 0.0000
# 3 37.0930 18.9664 117.6096 0.0000 0.0000 0.0000
# 4 0.0000 0.0000 0.0000 12.0059 0.0000 0.0000
# 5 0.0000 0.0000 0.0000 0.0000 23.5535 0.0000
# 6 0.0000 0.0000 0.0000 0.0000 0.0000 28.9812
#
#
#
# Elastic Compliance Matrix: (Units=1/GPa)
#
#
# Indices 1 2 3 4 5 6 
#
# 1 0.017438 -0.010974 -0.003730 0.000000 0.000000 0.000000
# 2 -0.010974 0.017121 0.000700 0.000000 0.000000 0.000000
# 3 -0.003730 0.000700 0.009566 0.000000 0.000000 0.000000
# 4 0.000000 0.000000 0.000000 0.083292 0.000000 0.000000
# 5 0.000000 0.000000 0.000000 0.000000 0.042457 0.000000
# 6 0.000000 0.000000 0.000000 0.000000 0.000000 0.034505
#
#
# Mechanical properties :
#
#
# Convention : Reuss Voigt Hill
#
# Bulk Modulus (GPa) = 62.04345 63.73962 62.89154
# Shear Modulus (GPa) = 21.02966 26.42323 23.72645
#
# Velocity S-wave (km/s) = 3.32659 3.72886 3.53345
# Velocity P-wave (km/s) = 6.88501 7.21666 7.05278
#
# Compressibility (1/GPa) = 0.01611774
#
# Stress axis : x y z
#
# Youngs Moduli (GPa) = 57.34605 58.40803 104.53381
#
# Poissons Ratio (x) = 0.64094 0.38992
# Poissons Ratio (y) = 0.62929 -0.07317
# Poissons Ratio (z) = 0.21391 -0.04088
#
# Static dielectric constant tensor:
#      x y z
#    x 3.494190 0.000000 0.000000 
#    y 0.000000 3.259210 0.000000 
#    z 0.000000 0.000000 3.664310 
# 
# 
# High freq. dielectric constant tensor:
#      x y z
#    x 1.721100 0.000000 0.000000 
#    y 0.000000 1.717130 0.000000 
#    z 0.000000 0.000000 1.768120 
# 
# From -- ./inp_files/2188.got.cif
#   From: 2010.03.12/outbox.cif.g09.slc.cpg/sg64_2_cif.got.tgz:2188.got - 2010.04.10 20:19:32.
