data_PCOD8263713
_publ_section_title
;
Structure prediction by ZEFSAII (Michael W. Deem and Ramdas Pophale) SiO2 
 PCOD8263713
Probable space group: C M C A
;
_chemical_formula_sum "Si O2"
_cell_formula_units_Z 56
_cell_length_a 14.153122
_cell_length_b 17.009707
_cell_length_c 12.515083
_cell_angle_alpha 90.000000
_cell_angle_beta 90.000000
_cell_angle_gamma 90.000000
_cell_volume 3012.886818
_symmetry_space_group_name_H-M "C M C A"
_symmetry_group_IT_number 64
_symmetry_cell_setting 'orthorhombic'
loop_
_space_group_symop_operation_xyz
x,y,z
-x,1/2-y,1/2+z
x,-y,-z
-x,1/2+y,1/2-z
-x,-y,-z
x,1/2+y,1/2-z
-x,y,z
x,1/2-y,1/2+z
1/2+x,1/2+y,z
1/2-x,-y,1/2+z
1/2+x,1/2-y,-z
1/2-x,y,1/2-z
1/2-x,1/2-y,-z
1/2+x,y,1/2-z
1/2-x,1/2+y,z
1/2+x,-y,1/2+z
loop_
_atom_site_type_symbol
_atom_site_label
_atom_site_fract_x
_atom_site_fract_y
_atom_site_fract_z
Si Si1 0.000000 0.979167 0.222636
Si Si2 0.500000 0.140345 0.372080
Si Si3 0.500000 0.687881 0.885342
Si Si4 0.394218 0.452264 0.598468
Si Si5 0.350030 0.301180 0.708803
O O1 0.906609 0.991221 0.297709
O O2 0.000000 0.893982 0.174979
O O3 0.000000 0.045205 0.129379
O O4 0.500000 0.174269 0.489464
O O5 0.591865 0.171602 0.311537
O O6 0.595321 0.733192 0.854232
O O7 0.346412 0.500000 0.500000
O O8 0.500000 0.422438 0.563866
O O9 0.333286 0.375477 0.628789
O O10 0.250000 0.268540 0.750000
#
# Coordination Sequence:
#
# PCOD8263713 Si02
#       5
#     8   8   8  16  16
#     4   8  16  32  54  79 105 140 185 229 268 338
#     4   9  20  38  55  76 107 149 187 235 283 324
#     4  11  20  34  58  77 110 155 180 222 292 344
#     4   8  15  33  59  80  96 141 191 224 276 330
#     4  10  21  37  54  83 116 142 182 242 286 327
#
# _framework density 18.586824
#
# number of rings (size 3 to 8) (size 9 to 14) (size 15 to 20)
#    0.857    2.000    2.857    0.429    0.000    5.714 
#    0.000   11.429    0.000    0.000    0.000    0.000 
#    0.000    0.000    0.000    0.000    0.000    0.000 
#
# Total GULP energy -346951.773739 kJ/mol
# GULP energy per Si atom -12391.134776 kJ/mol
# Density = 1.854452 g / cm^3
# Si number density = 18.586824 Si / 1000 Ang^3
#
#
#
# Elastic Constant Matrix: (Units=GPa)
#
#
# Indices 1 2 3 4 5 6 
#
# 1 87.1324 39.9007 42.2712 0.0000 0.0000 0.0000
# 2 39.9007 135.8806 88.8445 0.0000 0.0000 0.0000
# 3 42.2712 88.8445 135.5459 0.0000 0.0000 0.0000
# 4 0.0000 0.0000 0.0000 38.9086 0.0000 0.0000
# 5 0.0000 0.0000 0.0000 0.0000 20.8090 0.0000
# 6 0.0000 0.0000 0.0000 0.0000 0.0000 21.6923
#
#
#
# Elastic Compliance Matrix: (Units=1/GPa)
#
#
# Indices 1 2 3 4 5 6 
#
# 1 0.013882 -0.002180 -0.002900 0.000000 0.000000 0.000000
# 2 -0.002180 0.013221 -0.007986 0.000000 0.000000 0.000000
# 3 -0.002900 -0.007986 0.013517 0.000000 0.000000 0.000000
# 4 0.000000 0.000000 0.000000 0.025701 0.000000 0.000000
# 5 0.000000 0.000000 0.000000 0.000000 0.048056 0.000000
# 6 0.000000 0.000000 0.000000 0.000000 0.000000 0.046099
#
#
# Mechanical properties :
#
#
# Convention : Reuss Voigt Hill
#
# Bulk Modulus (GPa) = 69.02724 77.84354 73.43539
# Shear Modulus (GPa) = 26.11804 28.78481 27.45142
#
# Velocity S-wave (km/s) = 3.75265 3.93958 3.84725
# Velocity P-wave (km/s) = 7.48297 7.91617 7.70262
#
# Compressibility (1/GPa) = 0.01448703
#
# Stress axis : x y z
#
# Youngs Moduli (GPa) = 72.03478 75.63611 73.98318
#
# Poissons Ratio (x) = 0.16489 0.21458
# Poissons Ratio (y) = 0.15704 0.59083
# Poissons Ratio (z) = 0.20893 0.60403
#
# Static dielectric constant tensor:
#      x y z
#    x 3.037330 0.000000 0.000000 
#    y 0.000000 3.340710 0.000000 
#    z 0.000000 0.000000 3.457470 
# 
# 
# High freq. dielectric constant tensor:
#      x y z
#    x 1.680130 0.000000 0.000000 
#    y 0.000000 1.718100 0.000000 
#    z 0.000000 0.000000 1.721310 
# 
# From -- ./inp_files/15633.got.cif
#   From: 2010.03.12/outbox.cif.g09.slc.cpg/sg64_8_cif.got.tgz:15633.got - 2010.04.10 20:19:32.
