data_PCOD8263796
_publ_section_title
;
Structure prediction by ZEFSAII (Michael W. Deem and Ramdas Pophale) SiO2 
 PCOD8263796
Probable space group: C M C A
;
_chemical_formula_sum "Si O2"
_cell_formula_units_Z 88
_cell_length_a 14.248839
_cell_length_b 18.345235
_cell_length_c 14.009602
_cell_angle_alpha 90.000000
_cell_angle_beta 90.000000
_cell_angle_gamma 90.000000
_cell_volume 3662.086146
_symmetry_space_group_name_H-M "C M C A"
_symmetry_group_IT_number 64
_symmetry_cell_setting 'orthorhombic'
loop_
_space_group_symop_operation_xyz
x,y,z
-x,1/2-y,1/2+z
x,-y,-z
-x,1/2+y,1/2-z
-x,-y,-z
x,1/2+y,1/2-z
-x,y,z
x,1/2-y,1/2+z
1/2+x,1/2+y,z
1/2-x,-y,1/2+z
1/2+x,1/2-y,-z
1/2-x,y,1/2-z
1/2-x,1/2-y,-z
1/2+x,y,1/2-z
1/2-x,1/2+y,z
1/2+x,-y,1/2+z
loop_
_atom_site_type_symbol
_atom_site_label
_atom_site_fract_x
_atom_site_fract_y
_atom_site_fract_z
Si Si1 0.000000 0.910367 0.715765
Si Si2 0.000000 0.313727 0.280672
Si Si3 0.000000 0.667935 0.932488
Si Si4 0.340494 0.877385 0.930405
Si Si5 0.500000 0.534403 0.870621
Si Si6 0.841055 0.593818 0.518154
Si Si7 0.310922 0.227449 0.656937
Si Si8 0.500000 0.834914 0.598291
O O1 0.905042 0.912135 0.652681
O O2 0.000000 0.840166 0.786277
O O3 0.000000 0.983666 0.779234
O O4 0.914253 0.260789 0.301001
O O5 0.000000 0.352516 0.178090
O O6 0.000000 0.379167 0.355215
O O7 0.000000 0.754611 0.943168
O O8 0.093485 0.636777 0.978959
O O9 0.288293 0.802454 0.898114
O O10 0.255775 0.931439 0.964115
O O11 0.600626 0.527497 0.928245
O O12 0.804701 0.657019 0.589747
O O13 0.908734 0.623843 0.436854
O O14 0.250000 0.213750 0.750000
#
# Coordination Sequence:
#
# PCOD8263796 Si02
#       8
#     8   8   8  16   8  16  16   8
#     4  11  26  42  70  91 133 182 226 285 323 394
#     4  10  21  37  64  90 125 178 219 258 336 410
#     4  11  20  37  64  99 136 169 202 279 351 422
#     4  11  23  38  63 105 134 165 221 279 350 395
#     4   9  23  49  67  85 126 182 238 267 323 402
#     4  10  22  39  67  95 131 174 224 272 333 412
#     4  11  21  35  62  99 138 168 206 269 341 410
#     4  11  22  38  67  95 132 172 213 261 353 408
#
# _framework density 24.030018999999999
#
# number of rings (size 3 to 8) (size 9 to 14) (size 15 to 20)
#    0.000    1.455    1.818    4.364    5.091    1.455 
#    0.000    1.818   36.000    0.000    0.000    0.000 
#    0.000    0.000    0.000    0.000    0.000    0.000 
#
# Total GULP energy -545282.169143 kJ/mol
# GULP energy per Si atom -12392.776571 kJ/mol
# Density = 2.397533 g / cm^3
# Si number density = 24.030019 Si / 1000 Ang^3
#
#
#
# Elastic Constant Matrix: (Units=GPa)
#
#
# Indices 1 2 3 4 5 6 
#
# 1 179.8176 18.7913 57.3705 0.0000 0.0000 0.0000
# 2 18.7913 60.1385 5.7677 0.0000 0.0000 0.0000
# 3 57.3705 5.7677 117.3547 0.0000 0.0000 0.0000
# 4 0.0000 0.0000 0.0000 43.8822 0.0000 0.0000
# 5 0.0000 0.0000 0.0000 0.0000 72.9981 0.0000
# 6 0.0000 0.0000 0.0000 0.0000 0.0000 8.3570
#
#
#
# Elastic Compliance Matrix: (Units=1/GPa)
#
#
# Indices 1 2 3 4 5 6 
#
# 1 0.006779 -0.001809 -0.003225 0.000000 0.000000 0.000000
# 2 -0.001809 0.017190 0.000040 0.000000 0.000000 0.000000
# 3 -0.003225 0.000040 0.010096 0.000000 0.000000 0.000000
# 4 0.000000 0.000000 0.000000 0.022788 0.000000 0.000000
# 5 0.000000 0.000000 0.000000 0.000000 0.013699 0.000000
# 6 0.000000 0.000000 0.000000 0.000000 0.000000 0.119660
#
#
# Mechanical properties :
#
#
# Convention : Reuss Voigt Hill
#
# Bulk Modulus (GPa) = 41.53595 57.90778 49.72186
# Shear Modulus (GPa) = 24.01226 43.40622 33.70924
#
# Velocity S-wave (km/s) = 3.16454 4.25471 3.74946
# Velocity P-wave (km/s) = 5.53850 6.94890 6.28339
#
# Compressibility (1/GPa) = 0.02407553
#
# Stress axis : x y z
#
# Youngs Moduli (GPa) = 147.50932 58.17425 99.04987
#
# Poissons Ratio (x) = 0.10524 0.31946
# Poissons Ratio (y) = 0.26684 -0.00391
# Poissons Ratio (z) = 0.47575 -0.00230
#
# Static dielectric constant tensor:
#      x y z
#    x 4.402120 0.000000 0.000000 
#    y 0.000000 4.095380 0.000000 
#    z 0.000000 0.000000 4.501270 
# 
# 
# High freq. dielectric constant tensor:
#      x y z
#    x 1.968210 0.000000 0.000000 
#    y 0.000000 1.939020 0.000000 
#    z 0.000000 0.000000 1.972200 
# 
# From -- ./inp_files/23832.got.cif
#   From: 2010.03.12/outbox.cif.g09.slc.cpg/sg64_12_cif.got.tgz:23832.got - 2010.04.10 20:19:32.
