data_PCOD8263446
_publ_section_title
;
Structure prediction by ZEFSAII (Michael W. Deem and Ramdas Pophale) SiO2 
 PCOD8263446
Probable space group: C M C A
;
_chemical_formula_sum "Si O2"
_cell_formula_units_Z 72
_cell_length_a 26.183237
_cell_length_b 13.604638
_cell_length_c 9.309247
_cell_angle_alpha 90.000000
_cell_angle_beta 90.000000
_cell_angle_gamma 90.000000
_cell_volume 3316.079094
_symmetry_space_group_name_H-M "C M C A"
_symmetry_group_IT_number 64
_symmetry_cell_setting 'orthorhombic'
loop_
_space_group_symop_operation_xyz
x,y,z
-x,1/2-y,1/2+z
x,-y,-z
-x,1/2+y,1/2-z
-x,-y,-z
x,1/2+y,1/2-z
-x,y,z
x,1/2-y,1/2+z
1/2+x,1/2+y,z
1/2-x,-y,1/2+z
1/2+x,1/2-y,-z
1/2-x,y,1/2-z
1/2-x,1/2-y,-z
1/2+x,y,1/2-z
1/2-x,1/2+y,z
1/2+x,-y,1/2+z
loop_
_atom_site_type_symbol
_atom_site_label
_atom_site_fract_x
_atom_site_fract_y
_atom_site_fract_z
Si Si1 0.389022 0.331163 0.186093
Si Si2 0.670118 0.281825 0.464097
Si Si3 0.086848 0.000000 0.000000
Si Si4 0.500000 0.621991 0.134579
Si Si5 0.500000 0.727462 0.854386
Si Si6 0.261866 0.096266 0.412505
O O1 0.360496 0.334363 0.336736
O O2 0.377119 0.430952 0.097004
O O3 0.449866 0.325720 0.209632
O O4 0.368867 0.238315 0.094381
O O5 0.694117 0.178760 0.412023
O O6 0.712218 0.359269 0.511521
O O7 0.051196 0.938969 0.891145
O O8 0.500000 0.660044 0.298800
O O9 0.500000 0.717070 0.027060
O O10 0.250000 0.065083 0.250000
O O11 0.279390 0.000000 0.500000
#
# Coordination Sequence:
#
# PCOD8263446 Si02
#       6
#    16  16   8   8   8  16
#     4  11  22  41  68  97 137 184 225 280 334 407
#     4  11  25  44  69 100 137 176 228 279 348 407
#     4   9  20  34  64  96 128 174 238 266 330 399
#     4   9  18  38  60  89 124 182 230 273 326 389
#     4  10  20  38  64  88 136 182 214 270 332 386
#     4  11  26  46  71 100 134 174 226 289 349 412
#
# _framework density 21.712389999999999
#
# number of rings (size 3 to 8) (size 9 to 14) (size 15 to 20)
#    0.000    1.556    2.222    3.333    4.667    0.000 
#    4.000    0.000    0.000   10.667    0.000    0.000 
#    0.000    0.000    0.000    0.000    0.000    0.000 
#
# Total GULP energy -446385.558582 kJ/mol
# GULP energy per Si atom -12399.598849 kJ/mol
# Density = 2.166297 g / cm^3
# Si number density = 21.712390 Si / 1000 Ang^3
#
#
#
# Elastic Constant Matrix: (Units=GPa)
#
#
# Indices 1 2 3 4 5 6 
#
# 1 101.2743 11.6231 28.3374 0.0000 0.0000 0.0000
# 2 11.6231 81.9330 18.0405 0.0000 0.0000 0.0000
# 3 28.3374 18.0405 87.1186 0.0000 0.0000 0.0000
# 4 0.0000 0.0000 0.0000 44.3828 0.0000 0.0000
# 5 0.0000 0.0000 0.0000 0.0000 32.0464 0.0000
# 6 0.0000 0.0000 0.0000 0.0000 0.0000 13.8427
#
#
#
# Elastic Compliance Matrix: (Units=1/GPa)
#
#
# Indices 1 2 3 4 5 6 
#
# 1 0.010913 -0.000803 -0.003383 0.000000 0.000000 0.000000
# 2 -0.000803 0.012847 -0.002399 0.000000 0.000000 0.000000
# 3 -0.003383 -0.002399 0.013076 0.000000 0.000000 0.000000
# 4 0.000000 0.000000 0.000000 0.022531 0.000000 0.000000
# 5 0.000000 0.000000 0.000000 0.000000 0.031205 0.000000
# 6 0.000000 0.000000 0.000000 0.000000 0.000000 0.072240
#
#
# Mechanical properties :
#
#
# Convention : Reuss Voigt Hill
#
# Bulk Modulus (GPa) = 42.25679 42.92532 42.59106
# Shear Modulus (GPa) = 27.19281 32.20939 29.70110
#
# Velocity S-wave (km/s) = 3.54278 3.85575 3.70257
# Velocity P-wave (km/s) = 6.01991 6.29565 6.15933
#
# Compressibility (1/GPa) = 0.02366483
#
# Stress axis : x y z
#
# Youngs Moduli (GPa) = 91.63336 77.83742 76.47624
#
# Poissons Ratio (x) = 0.06252 0.25875
# Poissons Ratio (y) = 0.07360 0.18348
# Poissons Ratio (z) = 0.31003 0.18675
#
# Static dielectric constant tensor:
#      x y z
#    x 3.991930 0.000000 0.000000 
#    y 0.000000 3.951280 0.000000 
#    z 0.000000 0.000000 3.850480 
# 
# 
# High freq. dielectric constant tensor:
#      x y z
#    x 1.868090 0.000000 0.000000 
#    y 0.000000 1.841350 0.000000 
#    z 0.000000 0.000000 1.846330 
# 
# From -- ./inp_files/10058.got.cif
#   From: 2010.03.12/outbox.cif.g09.slc.cpg/sg64_6_cif.got.tgz:10058.got - 2010.04.10 20:19:32.
