data_PCOD8263898
_publ_section_title
;
Structure prediction by ZEFSAII (Michael W. Deem and Ramdas Pophale) SiO2 
 PCOD8263898
Probable space group: C M C A
;
_chemical_formula_sum "Si O2"
_cell_formula_units_Z 64
_cell_length_a 21.311108
_cell_length_b 16.542122
_cell_length_c 8.832104
_cell_angle_alpha 90.000000
_cell_angle_beta 90.000000
_cell_angle_gamma 90.000000
_cell_volume 3113.590000
_symmetry_space_group_name_H-M "C M C A"
_symmetry_group_IT_number 64
_symmetry_cell_setting 'orthorhombic'
loop_
_space_group_symop_operation_xyz
x,y,z
-x,1/2-y,1/2+z
x,-y,-z
-x,1/2+y,1/2-z
-x,-y,-z
x,1/2+y,1/2-z
-x,y,z
x,1/2-y,1/2+z
1/2+x,1/2+y,z
1/2-x,-y,1/2+z
1/2+x,1/2-y,-z
1/2-x,y,1/2-z
1/2-x,1/2-y,-z
1/2+x,y,1/2-z
1/2-x,1/2+y,z
1/2+x,-y,1/2+z
loop_
_atom_site_type_symbol
_atom_site_label
_atom_site_fract_x
_atom_site_fract_y
_atom_site_fract_z
Si Si1 0.178617 0.344419 0.270004
Si Si2 0.391137 0.260194 0.973795
Si Si3 0.067734 0.862515 0.710156
Si Si4 0.186469 0.020793 0.326264
O O1 0.250000 0.320891 0.250000
O O2 0.159179 0.312549 0.433844
O O3 0.141662 0.303488 0.134823
O O4 0.167418 0.440493 0.264599
O O5 0.431347 0.323602 0.876923
O O6 0.434063 0.209655 0.088199
O O7 0.127962 0.918632 0.683633
O O8 0.000000 0.908427 0.695390
O O9 0.250000 0.058236 0.250000
O O10 0.201729 0.000000 0.500000
#
# Coordination Sequence:
#
# PCOD8263898 Si02
#       4
#    16  16  16  16
#     4  10  21  38  63  93 127 163 212 259 320 374
#     4  10  22  40  63  93 125 166 211 266 312 372
#     4  11  24  43  66  93 127 170 213 260 315 376
#     4  11  25  43  65  94 131 169 208 264 317 375
#
# _framework density 20.555050000000001
#
# number of rings (size 3 to 8) (size 9 to 14) (size 15 to 20)
#    0.000    1.500    2.500    1.500    7.000    4.500 
#    0.000    3.750    0.000    0.000    0.000    0.000 
#    0.000    0.000    0.000    0.000    0.000    0.000 
#
# Total GULP energy -396703.981576 kJ/mol
# GULP energy per Si atom -12396.999424 kJ/mol
# Density = 2.050827 g / cm^3
# Si number density = 20.555050 Si / 1000 Ang^3
#
#
#
# Elastic Constant Matrix: (Units=GPa)
#
#
# Indices 1 2 3 4 5 6 
#
# 1 165.7778 45.7710 53.6929 0.0000 0.0000 0.0000
# 2 45.7710 59.1131 20.2267 0.0000 0.0000 0.0000
# 3 53.6929 20.2267 112.5519 0.0000 0.0000 0.0000
# 4 0.0000 0.0000 0.0000 22.8538 0.0000 0.0000
# 5 0.0000 0.0000 0.0000 0.0000 6.2911 0.0000
# 6 0.0000 0.0000 0.0000 0.0000 0.0000 29.6064
#
#
#
# Elastic Compliance Matrix: (Units=1/GPa)
#
#
# Indices 1 2 3 4 5 6 
#
# 1 0.008573 -0.005582 -0.003087 0.000000 0.000000 0.000000
# 2 -0.005582 0.021660 -0.001230 0.000000 0.000000 0.000000
# 3 -0.003087 -0.001230 0.010578 0.000000 0.000000 0.000000
# 4 0.000000 0.000000 0.000000 0.043756 0.000000 0.000000
# 5 0.000000 0.000000 0.000000 0.000000 0.158956 0.000000
# 6 0.000000 0.000000 0.000000 0.000000 0.000000 0.033777
#
#
# Mechanical properties :
#
#
# Convention : Reuss Voigt Hill
#
# Bulk Modulus (GPa) = 47.58614 64.09157 55.83885
# Shear Modulus (GPa) = 16.44194 26.26706 21.35450
#
# Velocity S-wave (km/s) = 2.83131 3.57863 3.22668
# Velocity P-wave (km/s) = 5.82145 6.95152 6.41143
#
# Compressibility (1/GPa) = 0.02101452
#
# Stress axis : x y z
#
# Youngs Moduli (GPa) = 116.64457 46.16907 94.53360
#
# Poissons Ratio (x) = 0.25771 0.29179
# Poissons Ratio (y) = 0.65110 0.11624
# Poissons Ratio (z) = 0.36004 0.05677
#
# Static dielectric constant tensor:
#      x y z
#    x 3.644580 0.000000 0.000000 
#    y 0.000000 3.731600 0.000000 
#    z 0.000000 0.000000 -2.526550 
# 
# 
# High freq. dielectric constant tensor:
#      x y z
#    x 1.804110 0.000000 0.000000 
#    y 0.000000 1.794960 0.000000 
#    z 0.000000 0.000000 1.823060 
# 
# From -- ./inp_files/6601.got.cif
#   From: 2010.03.12/outbox.cif.g09.slc.cpg/sg64_4_cif.got.tgz:6601.got - 2010.04.10 20:19:32.
