data_PCOD8263712
_publ_section_title
;
Structure prediction by ZEFSAII (Michael W. Deem and Ramdas Pophale) SiO2 
 PCOD8263712
Probable space group: C M C A
;
_chemical_formula_sum "Si O2"
_cell_formula_units_Z 80
_cell_length_a 8.704607
_cell_length_b 19.268263
_cell_length_c 25.750260
_cell_angle_alpha 90.000000
_cell_angle_beta 90.000000
_cell_angle_gamma 90.000000
_cell_volume 4318.902025
_symmetry_space_group_name_H-M "C M C A"
_symmetry_group_IT_number 64
_symmetry_cell_setting 'orthorhombic'
loop_
_space_group_symop_operation_xyz
x,y,z
-x,1/2-y,1/2+z
x,-y,-z
-x,1/2+y,1/2-z
-x,-y,-z
x,1/2+y,1/2-z
-x,y,z
x,1/2-y,1/2+z
1/2+x,1/2+y,z
1/2-x,-y,1/2+z
1/2+x,1/2-y,-z
1/2-x,y,1/2-z
1/2-x,1/2-y,-z
1/2+x,y,1/2-z
1/2-x,1/2+y,z
1/2+x,-y,1/2+z
loop_
_atom_site_type_symbol
_atom_site_label
_atom_site_fract_x
_atom_site_fract_y
_atom_site_fract_z
Si Si1 0.320435 0.633887 0.965465
Si Si2 0.321315 0.475836 0.395968
Si Si3 0.179324 0.377218 0.193868
Si Si4 0.180745 0.737086 0.886003
Si Si5 0.178271 0.129847 0.423340
O O1 0.500000 0.647106 0.957325
O O2 0.273620 0.558878 0.942758
O O3 0.226191 0.694686 0.937422
O O4 0.281842 0.635853 0.025862
O O5 0.500000 0.459006 0.406294
O O6 0.268476 0.442937 0.341083
O O7 0.288107 0.557472 0.394396
O O8 0.250000 0.382924 0.250000
O O9 0.230417 0.306523 0.164876
O O10 0.000000 0.377917 0.201607
O O11 0.271925 0.809561 0.883817
O O12 0.000000 0.751257 0.887203
O O13 0.000000 0.136448 0.438481
#
# Coordination Sequence:
#
# PCOD8263712 Si02
#       5
#    16  16  16  16  16
#     4  11  21  33  52  78 108 143 181 214 251 305
#     4   9  20  37  54  76 107 140 174 213 258 308
#     4   9  19  37  59  78  98 130 171 216 263 312
#     4  10  21  37  54  76 107 139 176 217 258 307
#     4  11  21  34  53  77 109 144 175 212 260 308
#
# _framework density 18.523226000000001
#
# number of rings (size 3 to 8) (size 9 to 14) (size 15 to 20)
#    0.000    2.000    0.000    5.400    0.000    8.000 
#    0.000    1.000    0.000    4.800    0.000    0.000 
#    0.000    0.000    0.000    0.000    0.000    0.000 
#
# Total GULP energy -496100.122315 kJ/mol
# GULP energy per Si atom -12402.503058 kJ/mol
# Density = 1.848107 g / cm^3
# Si number density = 18.523226 Si / 1000 Ang^3
#
#
#
# Elastic Constant Matrix: (Units=GPa)
#
#
# Indices 1 2 3 4 5 6 
#
# 1 43.7454 26.5255 13.4455 0.0000 0.0000 0.0000
# 2 26.5255 133.7593 37.8579 0.0000 0.0000 0.0000
# 3 13.4455 37.8579 96.3106 0.0000 0.0000 0.0000
# 4 0.0000 0.0000 0.0000 10.0731 0.0000 0.0000
# 5 0.0000 0.0000 0.0000 0.0000 31.7528 0.0000
# 6 0.0000 0.0000 0.0000 0.0000 0.0000 27.2688
#
#
#
# Elastic Compliance Matrix: (Units=1/GPa)
#
#
# Indices 1 2 3 4 5 6 
#
# 1 0.026265 -0.004693 -0.001822 0.000000 0.000000 0.000000
# 2 -0.004693 0.009250 -0.002981 0.000000 0.000000 0.000000
# 3 -0.001822 -0.002981 0.011809 0.000000 0.000000 0.000000
# 4 0.000000 0.000000 0.000000 0.099274 0.000000 0.000000
# 5 0.000000 0.000000 0.000000 0.000000 0.031493 0.000000
# 6 0.000000 0.000000 0.000000 0.000000 0.000000 0.036672
#
#
# Mechanical properties :
#
#
# Convention : Reuss Voigt Hill
#
# Bulk Modulus (GPa) = 35.29470 47.71923 41.50697
# Shear Modulus (GPa) = 20.55918 26.88471 23.72195
#
# Velocity S-wave (km/s) = 3.33515 3.81386 3.58251
# Velocity P-wave (km/s) = 5.82466 6.72398 6.29041
#
# Compressibility (1/GPa) = 0.02833286
#
# Stress axis : x y z
#
# Youngs Moduli (GPa) = 38.07330 108.10259 84.67946
#
# Poissons Ratio (x) = 0.50731 0.15429
# Poissons Ratio (y) = 0.17867 0.25243
# Poissons Ratio (z) = 0.06937 0.32226
#
# Static dielectric constant tensor:
#      x y z
#    x 3.416160 0.000000 0.000000 
#    y 0.000000 3.623010 0.000000 
#    z 0.000000 0.000000 3.651440 
# 
# 
# High freq. dielectric constant tensor:
#      x y z
#    x 1.722770 0.000000 0.000000 
#    y 0.000000 1.726720 0.000000 
#    z 0.000000 0.000000 1.697250 
# 
# From -- ./inp_files/47803.got.cif
#   From: 2010.03.12/outbox.cif.g09.slc.cpg/sg64_24_cif.got.tgz:47803.got - 2010.04.10 20:19:32.
