data_PCOD8263753
_publ_section_title
;
Structure prediction by ZEFSAII (Michael W. Deem and Ramdas Pophale) SiO2 
 PCOD8263753
Probable space group: C M C A
;
_chemical_formula_sum "Si O2"
_cell_formula_units_Z 80
_cell_length_a 9.280379
_cell_length_b 15.154613
_cell_length_c 29.494561
_cell_angle_alpha 90.000000
_cell_angle_beta 90.000000
_cell_angle_gamma 90.000000
_cell_volume 4148.131347
_symmetry_space_group_name_H-M "C M C A"
_symmetry_group_IT_number 64
_symmetry_cell_setting 'orthorhombic'
loop_
_space_group_symop_operation_xyz
x,y,z
-x,1/2-y,1/2+z
x,-y,-z
-x,1/2+y,1/2-z
-x,-y,-z
x,1/2+y,1/2-z
-x,y,z
x,1/2-y,1/2+z
1/2+x,1/2+y,z
1/2-x,-y,1/2+z
1/2+x,1/2-y,-z
1/2-x,y,1/2-z
1/2-x,1/2-y,-z
1/2+x,y,1/2-z
1/2-x,1/2+y,z
1/2+x,-y,1/2+z
loop_
_atom_site_type_symbol
_atom_site_label
_atom_site_fract_x
_atom_site_fract_y
_atom_site_fract_z
Si Si1 0.671718 0.278520 0.359219
Si Si2 0.340619 0.474451 0.451342
Si Si3 0.832339 0.118232 0.203409
Si Si4 0.330473 0.461001 0.135562
Si Si5 0.155373 0.768698 0.456950
O O1 0.500000 0.296923 0.358641
O O2 0.718833 0.207165 0.321969
O O3 0.755525 0.369519 0.349677
O O4 0.716330 0.235516 0.408324
O O5 0.271924 0.500000 0.500000
O O6 0.500000 0.519261 0.445908
O O7 0.233818 0.502258 0.410959
O O8 0.361402 0.371330 0.449260
O O9 0.750000 0.109657 0.250000
O O10 0.000000 0.124515 0.214063
O O11 0.797321 0.031741 0.174277
O O12 0.500000 0.444954 0.128682
O O13 0.250000 0.750000 0.500000
O O14 0.000000 0.725065 0.466751
#
# Coordination Sequence:
#
# PCOD8263753 Si02
#       5
#    16  16  16  16  16
#     4   9  20  40  59  78 114 155 187 229 284 340
#     4   9  19  35  53  77 111 151 189 225 276 337
#     4  10  23  41  61  86 114 148 191 238 290 342
#     4  10  21  37  58  86 116 146 188 239 286 336
#     4   9  18  31  50  76 107 143 181 222 271 326
#
# _framework density 19.285793000000002
#
# number of rings (size 3 to 8) (size 9 to 14) (size 15 to 20)
#    0.000    2.600    0.000    1.800    2.800    6.800 
#    0.000    4.000    0.000    0.000    0.000    0.000 
#    0.000    0.000    0.000    0.000    0.000    0.000 
#
# Total GULP energy -495734.335306 kJ/mol
# GULP energy per Si atom -12393.358383 kJ/mol
# Density = 1.924190 g / cm^3
# Si number density = 19.285793 Si / 1000 Ang^3
#
#
#
# Elastic Constant Matrix: (Units=GPa)
#
#
# Indices 1 2 3 4 5 6 
#
# 1 88.0505 52.4959 81.0472 0.0000 0.0000 0.0000
# 2 52.4959 81.1332 67.9967 0.0000 0.0000 0.0000
# 3 81.0472 67.9967 183.2986 0.0000 0.0000 0.0000
# 4 0.0000 0.0000 0.0000 30.7376 0.0000 0.0000
# 5 0.0000 0.0000 0.0000 0.0000 -100.9407 0.0000
# 6 0.0000 0.0000 0.0000 0.0000 0.0000 26.8501
#
#
#
# Elastic Compliance Matrix: (Units=1/GPa)
#
#
# Indices 1 2 3 4 5 6 
#
# 1 0.023140 -0.009284 -0.006788 0.000000 0.000000 0.000000
# 2 -0.009284 0.021611 -0.003912 0.000000 0.000000 0.000000
# 3 -0.006788 -0.003912 0.009908 0.000000 0.000000 0.000000
# 4 0.000000 0.000000 0.000000 0.032533 0.000000 0.000000
# 5 0.000000 0.000000 0.000000 0.000000 -0.009907 0.000000
# 6 0.000000 0.000000 0.000000 0.000000 0.000000 0.037244
#
#
# Mechanical properties :
#
#
# Convention : Reuss Voigt Hill
#
# Bulk Modulus (GPa) = 68.06331 83.95133 76.00732
# Shear Modulus (GPa) = 31.36908 1.39224 16.38066
#
# Velocity S-wave (km/s) = 4.03741 0.85057 2.91755
# Velocity P-wave (km/s) = 7.55664 6.67752 7.13064
#
# Compressibility (1/GPa) = 0.01469220
#
# Stress axis : x y z
#
# Youngs Moduli (GPa) = 43.21558 46.27328 100.92901
#
# Poissons Ratio (x) = 0.42958 0.68507
# Poissons Ratio (y) = 0.40120 0.39482
# Poissons Ratio (z) = 0.29333 0.18102
#
# Static dielectric constant tensor:
#      x y z
#    x 5.339940 0.000000 0.000000 
#    y 0.000000 3.352480 0.000000 
#    z 0.000000 0.000000 3.833670 
# 
# 
# High freq. dielectric constant tensor:
#      x y z
#    x 1.744670 0.000000 0.000000 
#    y 0.000000 1.743030 0.000000 
#    z 0.000000 0.000000 1.757940 
# 
# From -- ./inp_files/47770.got.cif
#   From: 2010.03.12/outbox.cif.g09.slc.cpg/sg64_24_cif.got.tgz:47770.got - 2010.04.10 20:19:32.
