data_PCOD8263843
_publ_section_title
;
Structure prediction by ZEFSAII (Michael W. Deem and Ramdas Pophale) SiO2 
 PCOD8263843
Probable space group: C M C A
;
_chemical_formula_sum "Si O2"
_cell_formula_units_Z 80
_cell_length_a 25.702850
_cell_length_b 11.561382
_cell_length_c 13.229853
_cell_angle_alpha 90.000000
_cell_angle_beta 90.000000
_cell_angle_gamma 90.000000
_cell_volume 3931.389300
_symmetry_space_group_name_H-M "C M C A"
_symmetry_group_IT_number 64
_symmetry_cell_setting 'orthorhombic'
loop_
_space_group_symop_operation_xyz
x,y,z
-x,1/2-y,1/2+z
x,-y,-z
-x,1/2+y,1/2-z
-x,-y,-z
x,1/2+y,1/2-z
-x,y,z
x,1/2-y,1/2+z
1/2+x,1/2+y,z
1/2-x,-y,1/2+z
1/2+x,1/2-y,-z
1/2-x,y,1/2-z
1/2-x,1/2-y,-z
1/2+x,y,1/2-z
1/2-x,1/2+y,z
1/2+x,-y,1/2+z
loop_
_atom_site_type_symbol
_atom_site_label
_atom_site_fract_x
_atom_site_fract_y
_atom_site_fract_z
Si Si1 0.608519 0.399736 0.776784
Si Si2 0.127180 0.548050 0.897453
Si Si3 0.440683 0.261192 0.935006
Si Si4 0.635325 0.592140 0.924400
Si Si5 0.810967 0.708406 0.750467
O O1 0.600875 0.438661 0.660937
O O2 0.563551 0.317164 0.821937
O O3 0.606493 0.518425 0.839133
O O4 0.662880 0.328662 0.785136
O O5 0.080225 0.631693 0.928300
O O6 0.171761 0.607947 0.828975
O O7 0.153658 0.500000 0.000000
O O8 0.500000 0.260673 0.971205
O O9 0.406853 0.334658 0.013943
O O10 0.674594 0.677072 0.865973
O O11 0.663819 0.500000 0.000000
O O12 0.750000 0.726385 0.750000
#
# Coordination Sequence:
#
# PCOD8263843 Si02
#       5
#    16  16  16  16  16
#     4   9  20  37  56  83 118 149 185 235 282 336
#     4  10  21  39  58  84 119 149 187 240 287 337
#     4  10  21  38  61  86 112 149 193 235 285 341
#     4   9  19  37  58  84 117 147 187 238 283 335
#     4  10  21  38  60  85 115 153 194 235 283 339
#
# _framework density 20.349041
#
# number of rings (size 3 to 8) (size 9 to 14) (size 15 to 20)
#    0.000    2.400    0.000    1.200    0.000    8.800 
#    0.000   28.000    0.000    0.000    0.000    0.000 
#    0.000    0.000    0.000    0.000    0.000    0.000 
#
# Total GULP energy -495650.652281 kJ/mol
# GULP energy per Si atom -12391.266307 kJ/mol
# Density = 2.030273 g / cm^3
# Si number density = 20.349041 Si / 1000 Ang^3
#
#
#
# Elastic Constant Matrix: (Units=GPa)
#
#
# Indices 1 2 3 4 5 6 
#
# 1 123.9375 40.2063 37.2514 0.0000 0.0000 0.0000
# 2 40.2063 90.9935 42.2297 0.0000 0.0000 0.0000
# 3 37.2514 42.2297 124.5083 0.0000 0.0000 0.0000
# 4 0.0000 0.0000 0.0000 41.9819 0.0000 0.0000
# 5 0.0000 0.0000 0.0000 0.0000 21.1466 0.0000
# 6 0.0000 0.0000 0.0000 0.0000 0.0000 12.3191
#
#
#
# Elastic Compliance Matrix: (Units=1/GPa)
#
#
# Indices 1 2 3 4 5 6 
#
# 1 0.009720 -0.003496 -0.001723 0.000000 0.000000 0.000000
# 2 -0.003496 0.014300 -0.003804 0.000000 0.000000 0.000000
# 3 -0.001723 -0.003804 0.009837 0.000000 0.000000 0.000000
# 4 0.000000 0.000000 0.000000 0.023820 0.000000 0.000000
# 5 0.000000 0.000000 0.000000 0.000000 0.047289 0.000000
# 6 0.000000 0.000000 0.000000 0.000000 0.000000 0.081175
#
#
# Mechanical properties :
#
#
# Convention : Reuss Voigt Hill
#
# Bulk Modulus (GPa) = 63.24076 64.31269 63.77672
# Shear Modulus (GPa) = 23.87124 29.73962 26.80543
#
# Velocity S-wave (km/s) = 3.42875 3.82707 3.63338
# Velocity P-wave (km/s) = 6.84256 7.15556 7.00081
#
# Compressibility (1/GPa) = 0.01581259
#
# Stress axis : x y z
#
# Youngs Moduli (GPa) = 102.87712 69.93054 101.65408
#
# Poissons Ratio (x) = 0.24445 0.17511
# Poissons Ratio (y) = 0.35961 0.38672
# Poissons Ratio (z) = 0.17722 0.26604
#
# Static dielectric constant tensor:
#      x y z
#    x 3.116450 0.000000 0.000000 
#    y 0.000000 3.957490 0.000000 
#    z 0.000000 0.000000 4.159200 
# 
# 
# High freq. dielectric constant tensor:
#      x y z
#    x 1.740000 0.000000 0.000000 
#    y 0.000000 1.815260 0.000000 
#    z 0.000000 0.000000 1.813520 
# 
# From -- ./inp_files/27080.got.cif
#   From: 2010.03.12/outbox.cif.g09.slc.cpg/sg64_14_cif.got.tgz:27080.got - 2010.04.10 20:19:32.
