data_PCOD8263364
_publ_section_title
;
Structure prediction by ZEFSAII (Michael W. Deem and Ramdas Pophale) SiO2 
 PCOD8263364
Probable space group: C M C A
;
_chemical_formula_sum "Si O2"
_cell_formula_units_Z 96
_cell_length_a 19.760924
_cell_length_b 19.467954
_cell_length_c 11.894827
_cell_angle_alpha 90.000000
_cell_angle_beta 90.000000
_cell_angle_gamma 90.000000
_cell_volume 4575.996559
_symmetry_space_group_name_H-M "C M C A"
_symmetry_group_IT_number 64
_symmetry_cell_setting 'orthorhombic'
loop_
_space_group_symop_operation_xyz
x,y,z
-x,1/2-y,1/2+z
x,-y,-z
-x,1/2+y,1/2-z
-x,-y,-z
x,1/2+y,1/2-z
-x,y,z
x,1/2-y,1/2+z
1/2+x,1/2+y,z
1/2-x,-y,1/2+z
1/2+x,1/2-y,-z
1/2-x,y,1/2-z
1/2-x,1/2-y,-z
1/2+x,y,1/2-z
1/2-x,1/2+y,z
1/2+x,-y,1/2+z
loop_
_atom_site_type_symbol
_atom_site_label
_atom_site_fract_x
_atom_site_fract_y
_atom_site_fract_z
Si Si1 0.116844 0.165011 0.697106
Si Si2 0.703942 0.333466 0.513620
Si Si3 0.671604 0.584094 0.285354
Si Si4 0.657494 0.812589 0.440201
Si Si5 0.075120 0.520065 0.872790
Si Si6 0.424326 0.186109 0.348528
O O1 0.180533 0.173098 0.614880
O O2 0.141239 0.149788 0.823565
O O3 0.075427 0.236172 0.698871
O O4 0.073291 0.101828 0.649119
O O5 0.668116 0.392760 0.584423
O O6 0.687869 0.263449 0.581541
O O7 0.783449 0.352316 0.508070
O O8 0.750000 0.574630 0.250000
O O9 0.630033 0.512716 0.286264
O O10 0.632187 0.639463 0.210339
O O11 0.590745 0.811682 0.517868
O O12 0.000000 0.491600 0.845515
O O13 0.093902 0.500000 0.000000
O O14 0.500000 0.156341 0.330018
#
# Coordination Sequence:
#
# PCOD8263364 Si02
#       6
#    16  16  16  16  16  16
#     4  11  22  41  66  98 128 170 218 269 322 387
#     4  10  20  37  64  98 131 164 214 268 324 381
#     4  12  23  44  66  93 130 171 216 268 328 388
#     4  10  21  37  64  97 132 166 208 273 326 384
#     4  11  25  45  66  93 132 174 218 271 328 390
#     4  11  24  40  64  98 132 171 213 264 332 393
#
# _framework density 20.979037000000002
#
# number of rings (size 3 to 8) (size 9 to 14) (size 15 to 20)
#    0.000    1.167    5.000    1.500    0.000    2.667 
#    0.000    0.833    0.000    2.000    0.000    0.000 
#    0.000    0.000    0.000    0.000    0.000    0.000 
#
# Total GULP energy -594960.145695 kJ/mol
# GULP energy per Si atom -12395.003035 kJ/mol
# Density = 2.093129 g / cm^3
# Si number density = 20.979037 Si / 1000 Ang^3
#
#
#
# Elastic Constant Matrix: (Units=GPa)
#
#
# Indices 1 2 3 4 5 6 
#
# 1 145.4875 40.3537 39.9885 0.0000 0.0000 0.0000
# 2 40.3537 89.9684 32.0725 0.0000 0.0000 0.0000
# 3 39.9885 32.0725 105.2105 0.0000 0.0000 0.0000
# 4 0.0000 0.0000 0.0000 24.2417 0.0000 0.0000
# 5 0.0000 0.0000 0.0000 0.0000 17.1374 0.0000
# 6 0.0000 0.0000 0.0000 0.0000 0.0000 23.9419
#
#
#
# Elastic Compliance Matrix: (Units=1/GPa)
#
#
# Indices 1 2 3 4 5 6 
#
# 1 0.008306 -0.002917 -0.002268 0.000000 0.000000 0.000000
# 2 -0.002917 0.013495 -0.003005 0.000000 0.000000 0.000000
# 3 -0.002268 -0.003005 0.011283 0.000000 0.000000 0.000000
# 4 0.000000 0.000000 0.000000 0.041251 0.000000 0.000000
# 5 0.000000 0.000000 0.000000 0.000000 0.058352 0.000000
# 6 0.000000 0.000000 0.000000 0.000000 0.000000 0.041768
#
#
# Mechanical properties :
#
#
# Convention : Reuss Voigt Hill
#
# Bulk Modulus (GPa) = 59.86676 62.83285 61.34981
# Shear Modulus (GPa) = 25.45809 28.28099 26.86954
#
# Velocity S-wave (km/s) = 3.48731 3.67558 3.58268
# Velocity P-wave (km/s) = 6.69429 6.93026 6.81330
#
# Compressibility (1/GPa) = 0.01670376
#
# Stress axis : x y z
#
# Youngs Moduli (GPa) = 120.39750 74.10342 88.63123
#
# Poissons Ratio (x) = 0.21616 0.20098
# Poissons Ratio (y) = 0.35120 0.26634
# Poissons Ratio (z) = 0.27302 0.22268
#
# Static dielectric constant tensor:
#      x y z
#    x 3.707270 0.000000 0.000000 
#    y 0.000000 3.599080 0.000000 
#    z 0.000000 0.000000 3.669640 
# 
# 
# High freq. dielectric constant tensor:
#      x y z
#    x 1.825360 0.000000 0.000000 
#    y 0.000000 1.801100 0.000000 
#    z 0.000000 0.000000 1.819170 
# 
# From -- ./inp_files/17372.got.cif
#   From: 2010.03.12/outbox.cif.g09.slc.cpg/sg64_9_cif.got.tgz:17372.got - 2010.04.10 20:19:32.
