data_PCOD8263757
_publ_section_title
;
Structure prediction by ZEFSAII (Michael W. Deem and Ramdas Pophale) SiO2 
 PCOD8263757
Probable space group: C M C A
;
_chemical_formula_sum "Si O2"
_cell_formula_units_Z 88
_cell_length_a 30.312273
_cell_length_b 15.958934
_cell_length_c 9.534783
_cell_angle_alpha 90.000000
_cell_angle_beta 90.000000
_cell_angle_gamma 90.000000
_cell_volume 4612.466191
_symmetry_space_group_name_H-M "C M C A"
_symmetry_group_IT_number 64
_symmetry_cell_setting 'orthorhombic'
loop_
_space_group_symop_operation_xyz
x,y,z
-x,1/2-y,1/2+z
x,-y,-z
-x,1/2+y,1/2-z
-x,-y,-z
x,1/2+y,1/2-z
-x,y,z
x,1/2-y,1/2+z
1/2+x,1/2+y,z
1/2-x,-y,1/2+z
1/2+x,1/2-y,-z
1/2-x,y,1/2-z
1/2-x,1/2-y,-z
1/2+x,y,1/2-z
1/2-x,1/2+y,z
1/2+x,-y,1/2+z
loop_
_atom_site_type_symbol
_atom_site_label
_atom_site_fract_x
_atom_site_fract_y
_atom_site_fract_z
Si Si1 0.153882 0.620241 0.857094
Si Si2 0.254085 0.664314 0.581128
Si Si3 0.334784 0.409793 0.045502
Si Si4 0.551232 0.337470 0.636553
Si Si5 0.086226 0.500000 0.000000
Si Si6 0.600521 0.776815 0.589283
O O1 0.197977 0.623349 0.953909
O O2 0.168280 0.586723 0.710122
O O3 0.117079 0.557190 0.907284
O O4 0.134499 0.713194 0.839621
O O5 0.250000 0.677765 0.750000
O O6 0.250000 0.750000 0.500000
O O7 0.215975 0.609401 0.505492
O O8 0.350800 0.500000 0.000000
O O9 0.371009 0.345452 0.990945
O O10 0.500000 0.317956 0.650044
O O11 0.557269 0.435613 0.593595
O O12 0.570227 0.273366 0.521113
O O13 0.572570 0.321345 0.788595
#
# Coordination Sequence:
#
# PCOD8263757 Si02
#       6
#    16  16  16  16   8  16
#     4  10  21  40  59  90 121 162 208 240 304 363
#     4  10  21  37  58  86 121 159 202 247 285 356
#     4  11  22  38  60  90 126 160 203 252 302 349
#     4  11  23  41  64  93 120 157 206 257 312 369
#     4  10  23  38  66  86 124 158 200 256 307 366
#     4  11  21  39  67  86 122 165 199 249 307 373
#
# _framework density 19.07873
#
# number of rings (size 3 to 8) (size 9 to 14) (size 15 to 20)
#    0.000    1.455    3.636    1.909    1.273    0.000 
#    3.273    0.000    0.000    2.182    0.000    0.000 
#    0.000    0.000    0.000    0.000    0.000    0.000 
#
# Total GULP energy -545260.651602 kJ/mol
# GULP energy per Si atom -12392.287536 kJ/mol
# Density = 1.903531 g / cm^3
# Si number density = 19.078730 Si / 1000 Ang^3
#
#
#
# Elastic Constant Matrix: (Units=GPa)
#
#
# Indices 1 2 3 4 5 6 
#
# 1 120.0923 32.5222 28.7082 0.0000 0.0000 0.0000
# 2 32.5222 113.4333 26.6094 0.0000 0.0000 0.0000
# 3 28.7082 26.6094 66.2582 0.0000 0.0000 0.0000
# 4 0.0000 0.0000 0.0000 20.6274 0.0000 0.0000
# 5 0.0000 0.0000 0.0000 0.0000 25.5055 0.0000
# 6 0.0000 0.0000 0.0000 0.0000 0.0000 24.2767
#
#
#
# Elastic Compliance Matrix: (Units=1/GPa)
#
#
# Indices 1 2 3 4 5 6 
#
# 1 0.009675 -0.001977 -0.003398 0.000000 0.000000 0.000000
# 2 -0.001977 0.010137 -0.003214 0.000000 0.000000 0.000000
# 3 -0.003398 -0.003214 0.017856 0.000000 0.000000 0.000000
# 4 0.000000 0.000000 0.000000 0.048479 0.000000 0.000000
# 5 0.000000 0.000000 0.000000 0.000000 0.039207 0.000000
# 6 0.000000 0.000000 0.000000 0.000000 0.000000 0.041192
#
#
# Mechanical properties :
#
#
# Convention : Reuss Voigt Hill
#
# Bulk Modulus (GPa) = 48.80745 52.82929 50.81837
# Shear Modulus (GPa) = 26.23950 28.21151 27.22550
#
# Velocity S-wave (km/s) = 3.71256 3.84954 3.78167
# Velocity P-wave (km/s) = 6.63439 6.89267 6.76476
#
# Compressibility (1/GPa) = 0.02048868
#
# Stress axis : x y z
#
# Youngs Moduli (GPa) = 103.36441 98.65322 56.00479
#
# Poissons Ratio (x) = 0.19500 0.19030
# Poissons Ratio (y) = 0.20432 0.18002
# Poissons Ratio (z) = 0.35122 0.31711
#
# Static dielectric constant tensor:
#      x y z
#    x 4.084570 0.000000 0.000000 
#    y 0.000000 7.009060 0.000000 
#    z 0.000000 0.000000 3.420570 
# 
# 
# High freq. dielectric constant tensor:
#      x y z
#    x 1.755960 0.000000 0.000000 
#    y 0.000000 1.747520 0.000000 
#    z 0.000000 0.000000 1.736950 
# 
# From -- ./inp_files/11094.got.cif
#   From: 2010.03.12/outbox.cif.g09.slc.cpg/sg64_6_cif.got.tgz:11094.got - 2010.04.10 20:19:32.
