data_PCOD8263379
_publ_section_title
;
Structure prediction by ZEFSAII (Michael W. Deem and Ramdas Pophale) SiO2 
 PCOD8263379
Probable space group: C M C A
;
_chemical_formula_sum "Si O2"
_cell_formula_units_Z 96
_cell_length_a 23.132129
_cell_length_b 9.397422
_cell_length_c 23.364478
_cell_angle_alpha 90.000000
_cell_angle_beta 90.000000
_cell_angle_gamma 90.000000
_cell_volume 5079.025788
_symmetry_space_group_name_H-M "C M C A"
_symmetry_group_IT_number 64
_symmetry_cell_setting 'orthorhombic'
loop_
_space_group_symop_operation_xyz
x,y,z
-x,1/2-y,1/2+z
x,-y,-z
-x,1/2+y,1/2-z
-x,-y,-z
x,1/2+y,1/2-z
-x,y,z
x,1/2-y,1/2+z
1/2+x,1/2+y,z
1/2-x,-y,1/2+z
1/2+x,1/2-y,-z
1/2-x,y,1/2-z
1/2-x,1/2-y,-z
1/2+x,y,1/2-z
1/2-x,1/2+y,z
1/2+x,-y,1/2+z
loop_
_atom_site_type_symbol
_atom_site_label
_atom_site_fract_x
_atom_site_fract_y
_atom_site_fract_z
Si Si1 0.716279 0.136845 0.962449
Si Si2 0.125109 0.934654 0.807672
Si Si3 0.500000 0.879526 0.169694
Si Si4 0.716236 0.131096 0.652734
Si Si5 0.378604 0.342605 0.378644
Si Si6 0.189458 0.942447 0.689545
Si Si7 0.000000 0.586828 0.270816
O O1 0.757692 0.100326 0.909427
O O2 0.652147 0.188563 0.940203
O O3 0.750000 0.250000 0.000000
O O4 0.704726 0.000000 0.000000
O O5 0.139581 0.786305 0.837701
O O6 0.152659 0.918335 0.745743
O O7 0.057161 0.970664 0.802638
O O8 0.151870 0.065680 0.843285
O O9 0.552421 0.861202 0.124528
O O10 0.500000 0.759635 0.220763
O O11 0.500000 0.030616 0.204425
O O12 0.715684 0.296446 0.666257
O O13 0.756214 0.048161 0.699021
O O14 0.353044 0.491967 0.357474
#
# Coordination Sequence:
#
# PCOD8263379 Si02
#       7
#    16  16   8  16  16  16   8
#     4  11  22  40  59  79 107 146 196 250 300 334
#     4  11  21  36  54  84 119 153 182 217 275 349
#     4  10  20  38  57  87 119 153 192 226 276 347
#     4  11  23  35  56  83 112 148 192 236 287 342
#     4  10  21  37  59  84 113 151 191 235 282 343
#     4  11  21  35  53  83 118 151 179 224 278 349
#     4  10  22  34  58  81 121 161 181 212 272 337
#
# _framework density 18.901263
#
# number of rings (size 3 to 8) (size 9 to 14) (size 15 to 20)
#    0.000    1.333    1.667    6.500    2.333    2.667 
#    0.000    0.417    0.000    1.000    0.000    4.667 
#    0.000    0.000    0.000    0.000    0.000    0.000 
#
# Total GULP energy -594861.212634 kJ/mol
# GULP energy per Si atom -12392.941930 kJ/mol
# Density = 1.885824 g / cm^3
# Si number density = 18.901263 Si / 1000 Ang^3
#
#
#
# Elastic Constant Matrix: (Units=GPa)
#
#
# Indices 1 2 3 4 5 6 
#
# 1 154.9110 55.9580 59.2288 0.0000 0.0000 0.0000
# 2 55.9580 103.2633 33.8958 0.0000 0.0000 0.0000
# 3 59.2288 33.8958 94.6977 0.0000 0.0000 0.0000
# 4 0.0000 0.0000 0.0000 32.3938 0.0000 0.0000
# 5 0.0000 0.0000 0.0000 0.0000 5.2318 0.0000
# 6 0.0000 0.0000 0.0000 0.0000 0.0000 27.5355
#
#
#
# Elastic Compliance Matrix: (Units=1/GPa)
#
#
# Indices 1 2 3 4 5 6 
#
# 1 0.009559 -0.003646 -0.004674 0.000000 0.000000 0.000000
# 2 -0.003646 0.012364 -0.002145 0.000000 0.000000 0.000000
# 3 -0.004674 -0.002145 0.014251 0.000000 0.000000 0.000000
# 4 0.000000 0.000000 0.000000 0.030870 0.000000 0.000000
# 5 0.000000 0.000000 0.000000 0.000000 0.191139 0.000000
# 6 0.000000 0.000000 0.000000 0.000000 0.000000 0.036317
#
#
# Mechanical properties :
#
#
# Convention : Reuss Voigt Hill
#
# Bulk Modulus (GPa) = 65.59830 72.33746 68.96788
# Shear Modulus (GPa) = 15.60009 26.61819 21.10914
#
# Velocity S-wave (km/s) = 2.87600 3.75677 3.34550
# Velocity P-wave (km/s) = 6.76828 7.56122 7.17571
#
# Compressibility (1/GPa) = 0.01524430
#
# Stress axis : x y z
#
# Youngs Moduli (GPa) = 104.60946 80.88097 70.17046
#
# Poissons Ratio (x) = 0.29489 0.32797
# Poissons Ratio (y) = 0.38141 0.15052
# Poissons Ratio (z) = 0.48893 0.17350
#
# Static dielectric constant tensor:
#      x y z
#    x 3.841440 0.000000 0.000000 
#    y 0.000000 3.555050 0.000000 
#    z 0.000000 0.000000 3.378060 
# 
# 
# High freq. dielectric constant tensor:
#      x y z
#    x 1.745810 0.000000 0.000000 
#    y 0.000000 1.741640 0.000000 
#    z 0.000000 0.000000 1.707760 
# 
# From -- ./inp_files/50982.got.cif
#   From: 2010.03.12/outbox.cif.g09.slc.cpg/sg64_26_cif.got.tgz:50982.got - 2010.04.10 20:19:32.
