data_PCOD8263867
_publ_section_title
;
Structure prediction by ZEFSAII (Michael W. Deem and Ramdas Pophale) SiO2 
 PCOD8263867
Probable space group: C M C A
;
_chemical_formula_sum "Si O2"
_cell_formula_units_Z 56
_cell_length_a 21.864889
_cell_length_b 24.348173
_cell_length_c 5.004529
_cell_angle_alpha 90.000000
_cell_angle_beta 90.000000
_cell_angle_gamma 90.000000
_cell_volume 2664.261604
_symmetry_space_group_name_H-M "C M C A"
_symmetry_group_IT_number 64
_symmetry_cell_setting 'orthorhombic'
loop_
_space_group_symop_operation_xyz
x,y,z
-x,1/2-y,1/2+z
x,-y,-z
-x,1/2+y,1/2-z
-x,-y,-z
x,1/2+y,1/2-z
-x,y,z
x,1/2-y,1/2+z
1/2+x,1/2+y,z
1/2-x,-y,1/2+z
1/2+x,1/2-y,-z
1/2-x,y,1/2-z
1/2-x,1/2-y,-z
1/2+x,y,1/2-z
1/2-x,1/2+y,z
1/2+x,-y,1/2+z
loop_
_atom_site_type_symbol
_atom_site_label
_atom_site_fract_x
_atom_site_fract_y
_atom_site_fract_z
Si Si1 0.428874 0.944803 0.863245
Si Si2 0.250000 0.539807 0.750000
Si Si3 0.872911 0.397877 0.350745
Si Si4 0.429941 0.713539 0.900498
O O1 0.500000 0.947188 0.805642
O O2 0.397147 0.938819 0.578231
O O3 0.412750 0.897828 0.077505
O O4 0.403342 0.000000 0.000000
O O5 0.261984 0.500000 0.500000
O O6 0.195430 0.583021 0.708718
O O7 0.881450 0.335547 0.454301
O O8 0.500000 0.691578 0.929915
O O9 0.417553 0.738388 0.610542
#
# Coordination Sequence:
#
# PCOD8263867 Si02
#       4
#    16   8  16  16
#     4  11  22  36  59  91 123 155 198 256 317 376
#     4  12  26  44  64  88 124 170 214 252 296 364
#     4  12  23  40  62  88 123 167 207 250 306 364
#     4  10  21  38  61  90 122 156 200 255 312 367
#
# _framework density 21.018957
#
# number of rings (size 3 to 8) (size 9 to 14) (size 15 to 20)
#    0.000    0.857    0.000    9.429    0.000    4.571 
#    0.000    1.429    0.000    0.000    0.000    0.000 
#    0.000    0.000    0.000    0.000    0.000    0.000 
#
# Total GULP energy -347247.209007 kJ/mol
# GULP energy per Si atom -12401.686036 kJ/mol
# Density = 2.097112 g / cm^3
# Si number density = 21.018957 Si / 1000 Ang^3
#
#
#
# Elastic Constant Matrix: (Units=GPa)
#
#
# Indices 1 2 3 4 5 6 
#
# 1 110.5143 78.0326 55.4456 0.0000 0.0000 0.0000
# 2 78.0326 117.1419 17.3540 0.0000 0.0000 0.0000
# 3 55.4456 17.3540 113.9316 0.0000 0.0000 0.0000
# 4 0.0000 0.0000 0.0000 30.1438 0.0000 0.0000
# 5 0.0000 0.0000 0.0000 0.0000 25.8205 0.0000
# 6 0.0000 0.0000 0.0000 0.0000 0.0000 31.6572
#
#
#
# Elastic Compliance Matrix: (Units=1/GPa)
#
#
# Indices 1 2 3 4 5 6 
#
# 1 0.024249 -0.014737 -0.009556 0.000000 0.000000 0.000000
# 2 -0.014737 0.017690 0.004477 0.000000 0.000000 0.000000
# 3 -0.009556 0.004477 0.012746 0.000000 0.000000 0.000000
# 4 0.000000 0.000000 0.000000 0.033174 0.000000 0.000000
# 5 0.000000 0.000000 0.000000 0.000000 0.038729 0.000000
# 6 0.000000 0.000000 0.000000 0.000000 0.000000 0.031588
#
#
# Mechanical properties :
#
#
# Convention : Reuss Voigt Hill
#
# Bulk Modulus (GPa) = 66.43189 71.47248 68.95218
# Shear Modulus (GPa) = 24.65167 30.24134 27.44650
#
# Velocity S-wave (km/s) = 3.42838 3.79722 3.61750
# Velocity P-wave (km/s) = 6.88084 7.30088 7.09397
#
# Compressibility (1/GPa) = 0.01505301
#
# Stress axis : x y z
#
# Youngs Moduli (GPa) = 41.23926 56.52774 78.45777
#
# Poissons Ratio (x) = 0.83307 0.74975
# Poissons Ratio (y) = 0.60776 -0.35129
# Poissons Ratio (z) = 0.39408 -0.25310
#
# Static dielectric constant tensor:
#      x y z
#    x 3.604000 0.000000 0.000000 
#    y 0.000000 3.721140 0.000000 
#    z 0.000000 0.000000 4.101500 
# 
# 
# High freq. dielectric constant tensor:
#      x y z
#    x 1.802530 0.000000 0.000000 
#    y 0.000000 1.820390 0.000000 
#    z 0.000000 0.000000 1.849670 
# 
# From -- ./inp_files/1646.got.cif
#   From: 2010.03.12/outbox.cif.g09.slc.cpg/sg64_1_cif.got.tgz:1646.got - 2010.04.10 20:19:32.
