data_PCOD8263644
_publ_section_title
;
Structure prediction by ZEFSAII (Michael W. Deem and Ramdas Pophale) SiO2 
 PCOD8263644
Probable space group: C M C A
;
_chemical_formula_sum "Si O2"
_cell_formula_units_Z 56
_cell_length_a 21.862873
_cell_length_b 7.867606
_cell_length_c 16.866476
_cell_angle_alpha 90.000000
_cell_angle_beta 90.000000
_cell_angle_gamma 90.000000
_cell_volume 2901.176744
_symmetry_space_group_name_H-M "C M C A"
_symmetry_group_IT_number 64
_symmetry_cell_setting 'orthorhombic'
loop_
_space_group_symop_operation_xyz
x,y,z
-x,1/2-y,1/2+z
x,-y,-z
-x,1/2+y,1/2-z
-x,-y,-z
x,1/2+y,1/2-z
-x,y,z
x,1/2-y,1/2+z
1/2+x,1/2+y,z
1/2-x,-y,1/2+z
1/2+x,1/2-y,-z
1/2-x,y,1/2-z
1/2-x,1/2-y,-z
1/2+x,y,1/2-z
1/2-x,1/2+y,z
1/2+x,-y,1/2+z
loop_
_atom_site_type_symbol
_atom_site_label
_atom_site_fract_x
_atom_site_fract_y
_atom_site_fract_z
Si Si1 0.875141 0.500000 0.500000
Si Si2 0.171551 0.351493 0.183231
Si Si3 0.301738 0.531241 0.850044
Si Si4 0.570313 0.149649 0.937926
O O1 0.832090 0.585185 0.567196
O O2 0.915228 0.659392 0.469435
O O3 0.228350 0.457820 0.148332
O O4 0.166987 0.364404 0.278346
O O5 0.108905 0.403261 0.139997
O O6 0.184163 0.161267 0.162894
O O7 0.500000 0.148061 0.912113
O O8 0.584112 0.000000 0.000000
#
# Coordination Sequence:
#
# PCOD8263644 Si02
#       4
#     8  16  16  16
#     4  10  23  38  64  86 117 152 200 246 298 336
#     4  10  21  36  58  86 120 149 197 236 299 351
#     4  10  21  35  59  90 115 155 185 253 296 342
#     4  10  23  40  60  84 116 156 194 238 287 352
#
# _framework density 19.302510999999999
#
# number of rings (size 3 to 8) (size 9 to 14) (size 15 to 20)
#    0.000    2.000    0.000    3.857   10.000    2.286 
#    0.000    7.143    0.000    0.000    0.000    0.000 
#    0.000    0.000    0.000    0.000    0.000    0.000 
#
# Total GULP energy -347054.136418 kJ/mol
# GULP energy per Si atom -12394.790586 kJ/mol
# Density = 1.925858 g / cm^3
# Si number density = 19.302511 Si / 1000 Ang^3
#
#
#
# Elastic Constant Matrix: (Units=GPa)
#
#
# Indices 1 2 3 4 5 6 
#
# 1 140.4221 23.3678 87.4774 0.0000 0.0000 0.0000
# 2 23.3678 35.8885 11.3956 0.0000 0.0000 0.0000
# 3 87.4774 11.3956 125.8852 0.0000 0.0000 0.0000
# 4 0.0000 0.0000 0.0000 19.4365 0.0000 0.0000
# 5 0.0000 0.0000 0.0000 0.0000 37.6538 0.0000
# 6 0.0000 0.0000 0.0000 0.0000 0.0000 27.0313
#
#
#
# Elastic Compliance Matrix: (Units=1/GPa)
#
#
# Indices 1 2 3 4 5 6 
#
# 1 0.013739 -0.006089 -0.008996 0.000000 0.000000 0.000000
# 2 -0.006089 0.031388 0.001390 0.000000 0.000000 0.000000
# 3 -0.008996 0.001390 0.014069 0.000000 0.000000 0.000000
# 4 0.000000 0.000000 0.000000 0.051450 0.000000 0.000000
# 5 0.000000 0.000000 0.000000 0.000000 0.026558 0.000000
# 6 0.000000 0.000000 0.000000 0.000000 0.000000 0.036994
#
#
# Mechanical properties :
#
#
# Convention : Reuss Voigt Hill
#
# Bulk Modulus (GPa) = 31.44114 60.74194 46.09154
# Shear Modulus (GPa) = 23.56395 28.82132 26.19263
#
# Velocity S-wave (km/s) = 3.49774 3.86831 3.68768
# Velocity P-wave (km/s) = 5.71282 7.17555 6.48555
#
# Compressibility (1/GPa) = 0.03180546
#
# Stress axis : x y z
#
# Youngs Moduli (GPa) = 72.78703 31.85980 71.07788
#
# Poissons Ratio (x) = 0.19400 0.63940
# Poissons Ratio (y) = 0.44321 -0.09880
# Poissons Ratio (z) = 0.65478 -0.04429
#
# Static dielectric constant tensor:
#      x y z
#    x 2.920210 0.000000 0.000000 
#    y 0.000000 3.637090 0.000000 
#    z 0.000000 0.000000 3.243840 
# 
# 
# High freq. dielectric constant tensor:
#      x y z
#    x 1.744300 0.000000 0.000000 
#    y 0.000000 1.765560 0.000000 
#    z 0.000000 0.000000 1.752510 
# 
# From -- ./inp_files/25926.got.cif
#   From: 2010.03.12/outbox.cif.g09.slc.cpg/sg64_13_cif.got.tgz:25926.got - 2010.04.10 20:19:32.
