data_PCOD8263073
_publ_section_title
;
Structure prediction by ZEFSAII (Michael W. Deem and Ramdas Pophale) SiO2 
 PCOD8263073
Probable space group: C M C A
;
_chemical_formula_sum "Si O2"
_cell_formula_units_Z 96
_cell_length_a 10.788117
_cell_length_b 23.164357
_cell_length_c 18.686602
_cell_angle_alpha 90.000000
_cell_angle_beta 90.000000
_cell_angle_gamma 90.000000
_cell_volume 4669.777982
_symmetry_space_group_name_H-M "C M C A"
_symmetry_group_IT_number 64
_symmetry_cell_setting 'orthorhombic'
loop_
_space_group_symop_operation_xyz
x,y,z
-x,1/2-y,1/2+z
x,-y,-z
-x,1/2+y,1/2-z
-x,-y,-z
x,1/2+y,1/2-z
-x,y,z
x,1/2-y,1/2+z
1/2+x,1/2+y,z
1/2-x,-y,1/2+z
1/2+x,1/2-y,-z
1/2-x,y,1/2-z
1/2-x,1/2-y,-z
1/2+x,y,1/2-z
1/2-x,1/2+y,z
1/2+x,-y,1/2+z
loop_
_atom_site_type_symbol
_atom_site_label
_atom_site_fract_x
_atom_site_fract_y
_atom_site_fract_z
Si Si1 0.140646 0.138970 0.695759
Si Si2 0.858600 0.337221 0.809375
Si Si3 0.635982 0.329311 0.993155
Si Si4 0.207377 0.575512 0.068695
Si Si5 0.227399 0.239772 0.612099
Si Si6 0.364651 0.544621 0.582161
O O1 0.250000 0.124996 0.750000
O O2 0.148258 0.205692 0.671251
O O3 0.175404 0.097799 0.630346
O O4 0.000000 0.128537 0.725405
O O5 0.750000 0.347291 0.750000
O O6 0.855256 0.388382 0.867688
O O7 0.836413 0.276193 0.849346
O O8 0.000000 0.336496 0.777127
O O9 0.500000 0.335140 0.025055
O O10 0.671249 0.391497 0.960134
O O11 0.636896 0.283192 0.928846
O O12 0.721386 0.307943 0.057418
O O13 0.231946 0.509031 0.093775
O O14 0.121070 0.568075 0.998875
O O15 0.500000 0.521737 0.605911
#
# Coordination Sequence:
#
# PCOD8263073 Si02
#       6
#    16  16  16  16  16  16
#     4  11  24  41  62  90 123 163 206 251 304 363
#     4  11  24  39  61  89 122 162 203 247 302 361
#     4  10  20  35  59  92 126 155 195 257 313 359
#     4  10  20  39  64  90 115 152 204 252 304 355
#     4  10  21  38  59  87 120 164 205 245 298 371
#     4  10  20  39  65  88 115 152 207 255 296 359
#
# _framework density 20.557724
#
# number of rings (size 3 to 8) (size 9 to 14) (size 15 to 20)
#    0.000    1.667    1.667    3.500    0.000    6.667 
#    0.000    2.500    0.000    0.000    0.000    0.000 
#    0.000    0.000    0.000    0.000    0.000    0.000 
#
# Total GULP energy -594644.285887 kJ/mol
# GULP energy per Si atom -12388.422623 kJ/mol
# Density = 2.051093 g / cm^3
# Si number density = 20.557724 Si / 1000 Ang^3
#
#
#
# Elastic Constant Matrix: (Units=GPa)
#
#
# Indices 1 2 3 4 5 6 
#
# 1 110.8246 45.1949 34.7510 0.0000 0.0000 0.0000
# 2 45.1949 124.5353 43.5533 0.0000 0.0000 0.0000
# 3 34.7510 43.5533 86.4265 0.0000 0.0000 0.0000
# 4 0.0000 0.0000 0.0000 18.1373 0.0000 0.0000
# 5 0.0000 0.0000 0.0000 0.0000 20.4022 0.0000
# 6 0.0000 0.0000 0.0000 0.0000 0.0000 10.9516
#
#
#
# Elastic Compliance Matrix: (Units=1/GPa)
#
#
# Indices 1 2 3 4 5 6 
#
# 1 0.011188 -0.003019 -0.002977 0.000000 0.000000 0.000000
# 2 -0.003019 0.010562 -0.004109 0.000000 0.000000 0.000000
# 3 -0.002977 -0.004109 0.014838 0.000000 0.000000 0.000000
# 4 0.000000 0.000000 0.000000 0.055135 0.000000 0.000000
# 5 0.000000 0.000000 0.000000 0.000000 0.049014 0.000000
# 6 0.000000 0.000000 0.000000 0.000000 0.000000 0.091311
#
#
# Mechanical properties :
#
#
# Convention : Reuss Voigt Hill
#
# Bulk Modulus (GPa) = 61.05552 63.19832 62.12692
# Shear Modulus (GPa) = 19.40102 23.11736 21.25919
#
# Velocity S-wave (km/s) = 3.07536 3.35701 3.21927
# Velocity P-wave (km/s) = 6.50957 6.77013 6.64113
#
# Compressibility (1/GPa) = 0.01637854
#
# Stress axis : x y z
#
# Youngs Moduli (GPa) = 89.38160 94.67487 67.39356
#
# Poissons Ratio (x) = 0.28583 0.20064
# Poissons Ratio (y) = 0.26984 0.27691
# Poissons Ratio (z) = 0.26610 0.38901
#
# Static dielectric constant tensor:
#      x y z
#    x 3.473490 0.000000 0.000000 
#    y 0.000000 3.934090 0.000000 
#    z 0.000000 0.000000 3.697340 
# 
# 
# High freq. dielectric constant tensor:
#      x y z
#    x 1.780900 0.000000 0.000000 
#    y 0.000000 1.815410 0.000000 
#    z 0.000000 0.000000 1.796770 
# 
# From -- ./inp_files/31083.got.cif
#   From: 2010.03.12/outbox.cif.g09.slc.cpg/sg64_16_cif.got.tgz:31083.got - 2010.04.10 20:19:32.
