data_PCOD8263349
_publ_section_title
;
Structure prediction by ZEFSAII (Michael W. Deem and Ramdas Pophale) SiO2 
 PCOD8263349
Probable space group: C M C A
;
_chemical_formula_sum "Si O2"
_cell_formula_units_Z 88
_cell_length_a 18.847826
_cell_length_b 13.683924
_cell_length_c 17.196425
_cell_angle_alpha 90.000000
_cell_angle_beta 90.000000
_cell_angle_gamma 90.000000
_cell_volume 4435.168123
_symmetry_space_group_name_H-M "C M C A"
_symmetry_group_IT_number 64
_symmetry_cell_setting 'orthorhombic'
loop_
_space_group_symop_operation_xyz
x,y,z
-x,1/2-y,1/2+z
x,-y,-z
-x,1/2+y,1/2-z
-x,-y,-z
x,1/2+y,1/2-z
-x,y,z
x,1/2-y,1/2+z
1/2+x,1/2+y,z
1/2-x,-y,1/2+z
1/2+x,1/2-y,-z
1/2-x,y,1/2-z
1/2-x,1/2-y,-z
1/2+x,y,1/2-z
1/2-x,1/2+y,z
1/2+x,-y,1/2+z
loop_
_atom_site_type_symbol
_atom_site_label
_atom_site_fract_x
_atom_site_fract_y
_atom_site_fract_z
Si Si1 0.653979 0.865426 0.298711
Si Si2 0.500000 0.930341 0.284807
Si Si3 0.210164 0.047338 0.646928
Si Si4 0.000000 0.642364 0.253045
Si Si5 0.360121 0.656032 0.348646
Si Si6 0.887361 0.604785 0.981650
Si Si7 0.500000 0.173569 0.867304
O O1 0.571010 0.881085 0.320657
O O2 0.677018 0.755390 0.320262
O O3 0.705076 0.939076 0.346333
O O4 0.667545 0.883506 0.207464
O O5 0.500000 0.919289 0.190742
O O6 0.500000 0.044575 0.304908
O O7 0.192218 0.934724 0.666230
O O8 0.186988 0.077831 0.560398
O O9 0.931930 0.642001 0.198659
O O10 0.000000 0.731447 0.312955
O O11 0.375781 0.666281 0.440440
O O12 0.932321 0.671029 0.923160
O O13 0.925343 0.500000 0.000000
#
# Coordination Sequence:
#
# PCOD8263349 Si02
#       7
#    16   8  16   8  16  16   8
#     4  11  22  38  63  90 123 162 210 255 316 367
#     4  12  20  39  62  89 127 155 205 264 303 368
#     4  10  22  38  58  94 122 160 208 261 308 368
#     4  12  21  36  65  96 124 163 202 257 314 368
#     4  11  21  39  64  94 122 163 207 253 318 371
#     4  10  20  37  62  91 128 160 208 263 309 365
#     4  12  20  37  62  98 124 159 207 254 316 367
#
# _framework density 19.841412999999999
#
# number of rings (size 3 to 8) (size 9 to 14) (size 15 to 20)
#    0.000    1.091    5.455    1.909    0.000    3.636 
#    3.273    0.000    0.000    1.091    0.000    0.000 
#    0.000    0.000    0.000    0.000    0.000    0.000 
#
# Total GULP energy -545504.970644 kJ/mol
# GULP energy per Si atom -12397.840242 kJ/mol
# Density = 1.979625 g / cm^3
# Si number density = 19.841413 Si / 1000 Ang^3
#
#
#
# Elastic Constant Matrix: (Units=GPa)
#
#
# Indices 1 2 3 4 5 6 
#
# 1 134.7776 55.3134 36.8564 0.0000 0.0000 0.0000
# 2 55.3134 135.2900 60.3774 0.0000 0.0000 0.0000
# 3 36.8564 60.3774 104.9831 0.0000 0.0000 0.0000
# 4 0.0000 0.0000 0.0000 31.9761 0.0000 0.0000
# 5 0.0000 0.0000 0.0000 0.0000 11.9280 0.0000
# 6 0.0000 0.0000 0.0000 0.0000 0.0000 34.4679
#
#
#
# Elastic Compliance Matrix: (Units=1/GPa)
#
#
# Indices 1 2 3 4 5 6 
#
# 1 0.009069 -0.003077 -0.001414 0.000000 0.000000 0.000000
# 2 -0.003077 0.010987 -0.005239 0.000000 0.000000 0.000000
# 3 -0.001414 -0.005239 0.013035 0.000000 0.000000 0.000000
# 4 0.000000 0.000000 0.000000 0.031273 0.000000 0.000000
# 5 0.000000 0.000000 0.000000 0.000000 0.083837 0.000000
# 6 0.000000 0.000000 0.000000 0.000000 0.000000 0.029013
#
#
# Mechanical properties :
#
#
# Convention : Reuss Voigt Hill
#
# Bulk Modulus (GPa) = 73.36017 75.57166 74.46591
# Shear Modulus (GPa) = 24.84867 30.50794 27.67830
#
# Velocity S-wave (km/s) = 3.54271 3.92546 3.73899
# Velocity P-wave (km/s) = 7.33403 7.66265 7.50014
#
# Compressibility (1/GPa) = 0.01363137
#
# Stress axis : x y z
#
# Youngs Moduli (GPa) = 110.26442 91.01281 76.71705
#
# Poissons Ratio (x) = 0.28002 0.10851
# Poissons Ratio (y) = 0.33925 0.40192
# Poissons Ratio (z) = 0.15596 0.47681
#
# Static dielectric constant tensor:
#      x y z
#    x 3.608040 0.000000 0.000000 
#    y 0.000000 3.721280 0.000000 
#    z 0.000000 0.000000 3.601680 
# 
# 
# High freq. dielectric constant tensor:
#      x y z
#    x 1.771430 0.000000 0.000000 
#    y 0.000000 1.771460 0.000000 
#    z 0.000000 0.000000 1.762760 
# 
# From -- ./inp_files/34285.got.cif
#   From: 2010.03.12/outbox.cif.g09.slc.cpg/sg64_18_cif.got.tgz:34285.got - 2010.04.10 20:19:32.
