data_PCOD8263425
_publ_section_title
;
Structure prediction by ZEFSAII (Michael W. Deem and Ramdas Pophale) SiO2 
 PCOD8263425
Probable space group: C M C A
;
_chemical_formula_sum "Si O2"
_cell_formula_units_Z 80
_cell_length_a 17.143593
_cell_length_b 15.444653
_cell_length_c 15.284335
_cell_angle_alpha 90.000000
_cell_angle_beta 90.000000
_cell_angle_gamma 90.000000
_cell_volume 4046.938000
_symmetry_space_group_name_H-M "C M C A"
_symmetry_group_IT_number 64
_symmetry_cell_setting 'orthorhombic'
loop_
_space_group_symop_operation_xyz
x,y,z
-x,1/2-y,1/2+z
x,-y,-z
-x,1/2+y,1/2-z
-x,-y,-z
x,1/2+y,1/2-z
-x,y,z
x,1/2-y,1/2+z
1/2+x,1/2+y,z
1/2-x,-y,1/2+z
1/2+x,1/2-y,-z
1/2-x,y,1/2-z
1/2-x,1/2-y,-z
1/2+x,y,1/2-z
1/2-x,1/2+y,z
1/2+x,-y,1/2+z
loop_
_atom_site_type_symbol
_atom_site_label
_atom_site_fract_x
_atom_site_fract_y
_atom_site_fract_z
Si Si1 0.334253 0.268978 0.643541
Si Si2 0.086966 0.316558 0.031342
Si Si3 0.780921 0.919054 0.884985
Si Si4 0.413202 0.182662 0.313642
Si Si5 0.244200 0.605927 0.920733
O O1 0.392886 0.274754 0.562237
O O2 0.284589 0.356246 0.654030
O O3 0.382792 0.259415 0.732573
O O4 0.275355 0.188080 0.633341
O O5 0.088550 0.240587 0.100785
O O6 0.151722 0.387338 0.058306
O O7 0.000000 0.358644 0.027553
O O8 0.861506 0.901950 0.833952
O O9 0.757094 0.018268 0.866109
O O10 0.791031 0.899694 0.988113
O O11 0.500000 0.149632 0.292252
#
# Coordination Sequence:
#
# PCOD8263425 Si02
#       5
#    16  16  16  16  16
#     4  11  20  40  61  87 121 165 205 245 302 369
#     4  10  20  38  62  90 122 155 198 253 303 356
#     4  10  20  39  62  91 118 157 207 255 297 368
#     4  11  22  38  59  89 123 158 200 252 306 354
#     4  10  20  38  66  89 116 163 208 242 310 373
#
# _framework density 19.768031000000001
#
# number of rings (size 3 to 8) (size 9 to 14) (size 15 to 20)
#    0.000    1.600    4.000    2.400    0.000    0.000 
#    7.200   13.000    0.000    0.000    0.000    0.000 
#    0.000    0.000    0.000    0.000    0.000    0.000 
#
# Total GULP energy -495976.356367 kJ/mol
# GULP energy per Si atom -12399.408909 kJ/mol
# Density = 1.972304 g / cm^3
# Si number density = 19.768031 Si / 1000 Ang^3
#
#
#
# Elastic Constant Matrix: (Units=GPa)
#
#
# Indices 1 2 3 4 5 6 
#
# 1 162.7359 61.6527 64.4029 0.0000 0.0000 0.0000
# 2 61.6527 112.9591 33.8562 0.0000 0.0000 0.0000
# 3 64.4029 33.8562 88.5553 0.0000 0.0000 0.0000
# 4 0.0000 0.0000 0.0000 17.3257 0.0000 0.0000
# 5 0.0000 0.0000 0.0000 0.0000 26.9655 0.0000
# 6 0.0000 0.0000 0.0000 0.0000 0.0000 24.7174
#
#
#
# Elastic Compliance Matrix: (Units=1/GPa)
#
#
# Indices 1 2 3 4 5 6 
#
# 1 0.009786 -0.003623 -0.005732 0.000000 0.000000 0.000000
# 2 -0.003623 0.011340 -0.001700 0.000000 0.000000 0.000000
# 3 -0.005732 -0.001700 0.016111 0.000000 0.000000 0.000000
# 4 0.000000 0.000000 0.000000 0.057718 0.000000 0.000000
# 5 0.000000 0.000000 0.000000 0.000000 0.037084 0.000000
# 6 0.000000 0.000000 0.000000 0.000000 0.000000 0.040457
#
#
# Mechanical properties :
#
#
# Convention : Reuss Voigt Hill
#
# Bulk Modulus (GPa) = 66.11089 76.00822 71.05955
# Shear Modulus (GPa) = 25.04397 27.42430 26.23414
#
# Velocity S-wave (km/s) = 3.56320 3.72870 3.64689
# Velocity P-wave (km/s) = 7.10243 7.55454 7.33197
#
# Compressibility (1/GPa) = 0.01512610
#
# Stress axis : x y z
#
# Youngs Moduli (GPa) = 102.18769 88.18378 62.06961
#
# Poissons Ratio (x) = 0.31951 0.35577
# Poissons Ratio (y) = 0.37025 0.10555
# Poissons Ratio (z) = 0.58571 0.14995
#
# Static dielectric constant tensor:
#      x y z
#    x 3.927900 0.000000 0.000000 
#    y 0.000000 3.403900 0.000000 
#    z 0.000000 0.000000 3.708530 
# 
# 
# High freq. dielectric constant tensor:
#      x y z
#    x 1.770680 0.000000 0.000000 
#    y 0.000000 1.744780 0.000000 
#    z 0.000000 0.000000 1.781700 
# 
# From -- ./inp_files/25269.got.cif
#   From: 2010.03.12/outbox.cif.g09.slc.cpg/sg64_13_cif.got.tgz:25269.got - 2010.04.10 20:19:32.
