data_PCOD8263771
_publ_section_title
;
Structure prediction by ZEFSAII (Michael W. Deem and Ramdas Pophale) SiO2 
 PCOD8263771
Probable space group: C M C A
;
_chemical_formula_sum "Si O2"
_cell_formula_units_Z 112
_cell_length_a 28.922782
_cell_length_b 13.636626
_cell_length_c 13.582012
_cell_angle_alpha 90.000000
_cell_angle_beta 90.000000
_cell_angle_gamma 90.000000
_cell_volume 5356.869958
_symmetry_space_group_name_H-M "C M C A"
_symmetry_group_IT_number 64
_symmetry_cell_setting 'orthorhombic'
loop_
_space_group_symop_operation_xyz
x,y,z
-x,1/2-y,1/2+z
x,-y,-z
-x,1/2+y,1/2-z
-x,-y,-z
x,1/2+y,1/2-z
-x,y,z
x,1/2-y,1/2+z
1/2+x,1/2+y,z
1/2-x,-y,1/2+z
1/2+x,1/2-y,-z
1/2-x,y,1/2-z
1/2-x,1/2-y,-z
1/2+x,y,1/2-z
1/2-x,1/2+y,z
1/2+x,-y,1/2+z
loop_
_atom_site_type_symbol
_atom_site_label
_atom_site_fract_x
_atom_site_fract_y
_atom_site_fract_z
Si Si1 0.118073 0.490927 0.117177
Si Si2 0.094036 0.019879 0.885420
Si Si3 0.052837 0.119060 0.261452
Si Si4 0.805032 0.976012 0.112149
Si Si5 0.705935 0.763536 0.320798
Si Si6 0.214196 0.056893 0.396462
Si Si7 0.893514 0.811362 0.248231
O O1 0.082989 0.575812 0.149596
O O2 0.170245 0.509362 0.158687
O O3 0.102867 0.385275 0.158388
O O4 0.119752 0.500000 0.000000
O O5 0.056663 0.951701 0.832951
O O6 0.145400 0.995815 0.839766
O O7 0.088849 0.134015 0.852519
O O8 0.088136 0.000000 0.000000
O O9 0.070371 0.225811 0.230202
O O10 0.000000 0.124987 0.295674
O O11 0.791303 0.862134 0.116630
O O12 0.762896 0.037609 0.160958
O O13 0.813591 0.000000 0.000000
O O14 0.750000 0.754348 0.250000
O O15 0.706149 0.674029 0.399834
O O16 0.657935 0.765600 0.259487
O O17 0.220623 0.000000 0.500000
#
# Coordination Sequence:
#
# PCOD8263771 Si02
#       7
#    16  16  16  16  16  16  16
#     4  10  22  43  66  91 127 168 206 258 315 375
#     4   9  21  42  65  91 126 166 204 255 314 377
#     4  11  24  42  64  92 123 158 211 268 321 374
#     4   9  20  38  58  91 129 163 205 251 298 363
#     4  11  22  35  61  89 122 171 210 247 306 370
#     4  10  21  37  59  91 128 163 205 250 300 366
#     4  10  22  40  61  92 127 159 210 257 315 370
#
# _framework density 20.907730999999998
#
# number of rings (size 3 to 8) (size 9 to 14) (size 15 to 20)
#    0.000    2.000    1.429    0.857    2.000    8.000 
#    7.714    1.429    0.000    0.000    0.000    0.000 
#    0.000    0.000    0.000    0.000    0.000    0.000 
#
# Total GULP energy -693887.708257 kJ/mol
# GULP energy per Si atom -12390.851933 kJ/mol
# Density = 2.086014 g / cm^3
# Si number density = 20.907731 Si / 1000 Ang^3
#
#
#
# Elastic Constant Matrix: (Units=GPa)
#
#
# Indices 1 2 3 4 5 6 
#
# 1 111.9257 24.6689 -19.8287 0.0000 0.0000 0.0000
# 2 24.6689 107.1887 -5.7903 0.0000 0.0000 0.0000
# 3 -19.8287 -5.7903 31.1088 0.0000 0.0000 0.0000
# 4 0.0000 0.0000 0.0000 22.6687 0.0000 0.0000
# 5 0.0000 0.0000 0.0000 0.0000 10.4623 0.0000
# 6 0.0000 0.0000 0.0000 0.0000 0.0000 13.9814
#
#
#
# Elastic Compliance Matrix: (Units=1/GPa)
#
#
# Indices 1 2 3 4 5 6 
#
# 1 0.010511 -0.002078 0.006313 0.000000 0.000000 0.000000
# 2 -0.002078 0.009835 0.000506 0.000000 0.000000 0.000000
# 3 0.006313 0.000506 0.036263 0.000000 0.000000 0.000000
# 4 0.000000 0.000000 0.000000 0.044114 0.000000 0.000000
# 5 0.000000 0.000000 0.000000 0.000000 0.095581 0.000000
# 6 0.000000 0.000000 0.000000 0.000000 0.000000 0.071523
#
#
# Mechanical properties :
#
#
# Convention : Reuss Voigt Hill
#
# Bulk Modulus (GPa) = 15.13070 27.59146 21.36108
# Shear Modulus (GPa) = 17.83321 26.16738 22.00029
#
# Velocity S-wave (km/s) = 2.92370 3.54158 3.24737
# Velocity P-wave (km/s) = 4.31856 5.47258 4.92946
#
# Compressibility (1/GPa) = 0.06609079
#
# Stress axis : x y z
#
# Youngs Moduli (GPa) = 95.13961 101.67854 27.57613
#
# Poissons Ratio (x) = 0.21129 -0.17408
# Poissons Ratio (y) = 0.19770 -0.01396
# Poissons Ratio (z) = -0.60060 -0.05146
#
# Static dielectric constant tensor:
#      x y z
#    x 4.056420 0.000000 0.000000 
#    y 0.000000 3.885420 0.000000 
#    z 0.000000 0.000000 -38.998040 
# 
# 
# High freq. dielectric constant tensor:
#      x y z
#    x 1.821410 0.000000 0.000000 
#    y 0.000000 1.822680 0.000000 
#    z 0.000000 0.000000 1.805750 
# 
# From -- ./inp_files/28433.got.cif
#   From: 2010.03.12/outbox.cif.g09.slc.cpg/sg64_15_cif.got.tgz:28433.got - 2010.04.10 20:19:32.
