data_PCOD8263961
_publ_section_title
;
Structure prediction by ZEFSAII (Michael W. Deem and Ramdas Pophale) SiO2 
 PCOD8263961
Probable space group: C M C A
;
_chemical_formula_sum "Si O2"
_cell_formula_units_Z 112
_cell_length_a 24.414008
_cell_length_b 13.420171
_cell_length_c 16.299092
_cell_angle_alpha 90.000000
_cell_angle_beta 90.000000
_cell_angle_gamma 90.000000
_cell_volume 5340.237146
_symmetry_space_group_name_H-M "C M C A"
_symmetry_group_IT_number 64
_symmetry_cell_setting 'orthorhombic'
loop_
_space_group_symop_operation_xyz
x,y,z
-x,1/2-y,1/2+z
x,-y,-z
-x,1/2+y,1/2-z
-x,-y,-z
x,1/2+y,1/2-z
-x,y,z
x,1/2-y,1/2+z
1/2+x,1/2+y,z
1/2-x,-y,1/2+z
1/2+x,1/2-y,-z
1/2-x,y,1/2-z
1/2-x,1/2-y,-z
1/2+x,y,1/2-z
1/2-x,1/2+y,z
1/2+x,-y,1/2+z
loop_
_atom_site_type_symbol
_atom_site_label
_atom_site_fract_x
_atom_site_fract_y
_atom_site_fract_z
Si Si1 0.561392 0.596255 0.330868
Si Si2 0.208036 0.589986 0.943027
Si Si3 0.368741 0.082629 0.801156
Si Si4 0.936441 0.114977 0.013452
Si Si5 0.291811 0.677693 0.820268
Si Si6 0.363688 0.786131 0.937029
Si Si7 0.439312 0.271599 0.824298
O O1 0.500000 0.571378 0.358114
O O2 0.585131 0.499118 0.285242
O O3 0.593489 0.626838 0.413629
O O4 0.563847 0.685873 0.266822
O O5 0.169006 0.542435 0.874453
O O6 0.261641 0.633388 0.899502
O O7 0.227776 0.500000 0.000000
O O8 0.176110 0.677647 0.990655
O O9 0.332117 0.095678 0.719765
O O10 0.394646 0.185818 0.832304
O O11 0.927794 0.142345 0.108945
O O12 0.000000 0.130799 0.986495
O O13 0.896963 0.186024 0.960176
O O14 0.919216 0.000000 0.000000
O O15 0.250000 0.717333 0.750000
O O16 0.327781 0.768327 0.854816
O O17 0.500000 0.226780 0.839621
#
# Coordination Sequence:
#
# PCOD8263961 Si02
#       7
#    16  16  16  16  16  16  16
#     4  11  24  39  65 101 132 174 214 258 330 401
#     4  11  23  44  65  95 127 163 220 279 326 387
#     4  11  21  44  65  92 132 169 218 268 322 391
#     4  10  23  40  63  98 135 170 210 260 326 398
#     4  10  25  44  64  90 125 171 223 270 324 379
#     4  12  22  43  67  94 129 167 212 278 328 386
#     4  10  21  39  63  92 131 170 212 261 318 394
#
# _framework density 20.972850999999999
#
# number of rings (size 3 to 8) (size 9 to 14) (size 15 to 20)
#    0.000    1.286    4.286    1.286    2.000    0.571 
#    2.571    0.714    0.000    0.000    0.000    0.000 
#    0.000    0.000    0.000    0.000    0.000    0.000 
#
# Total GULP energy -694444.606695 kJ/mol
# GULP energy per Si atom -12400.796548 kJ/mol
# Density = 2.092512 g / cm^3
# Si number density = 20.972851 Si / 1000 Ang^3
#
#
#
# Elastic Constant Matrix: (Units=GPa)
#
#
# Indices 1 2 3 4 5 6 
#
# 1 128.0440 56.6304 55.5069 0.0000 0.0000 0.0000
# 2 56.6304 90.5706 30.2912 0.0000 0.0000 0.0000
# 3 55.5069 30.2912 101.1684 0.0000 0.0000 0.0000
# 4 0.0000 0.0000 0.0000 30.4646 0.0000 0.0000
# 5 0.0000 0.0000 0.0000 0.0000 33.3948 0.0000
# 6 0.0000 0.0000 0.0000 0.0000 0.0000 27.9670
#
#
#
# Elastic Compliance Matrix: (Units=1/GPa)
#
#
# Indices 1 2 3 4 5 6 
#
# 1 0.012829 -0.006298 -0.005153 0.000000 0.000000 0.000000
# 2 -0.006298 0.015362 -0.001144 0.000000 0.000000 0.000000
# 3 -0.005153 -0.001144 0.013054 0.000000 0.000000 0.000000
# 4 0.000000 0.000000 0.000000 0.032825 0.000000 0.000000
# 5 0.000000 0.000000 0.000000 0.000000 0.029945 0.000000
# 6 0.000000 0.000000 0.000000 0.000000 0.000000 0.035756
#
#
# Mechanical properties :
#
#
# Convention : Reuss Voigt Hill
#
# Bulk Modulus (GPa) = 62.28674 67.18222 64.73448
# Shear Modulus (GPa) = 29.35765 30.18892 29.77328
#
# Velocity S-wave (km/s) = 3.74544 3.79810 3.77186
# Velocity P-wave (km/s) = 6.96187 7.16495 7.06414
#
# Compressibility (1/GPa) = 0.01605478
#
# Stress axis : x y z
#
# Youngs Moduli (GPa) = 77.94735 65.09689 76.60307
#
# Poissons Ratio (x) = 0.40999 0.39474
# Poissons Ratio (y) = 0.49093 0.08763
# Poissons Ratio (z) = 0.40167 0.07447
#
# Static dielectric constant tensor:
#      x y z
#    x 3.990640 0.000000 0.000000 
#    y 0.000000 3.492830 0.000000 
#    z 0.000000 0.000000 3.786870 
# 
# 
# High freq. dielectric constant tensor:
#      x y z
#    x 1.835250 0.000000 0.000000 
#    y 0.000000 1.805090 0.000000 
#    z 0.000000 0.000000 1.826310 
# 
# From -- ./inp_files/27446.got.cif
#   From: 2010.03.12/outbox.cif.g09.slc.cpg/sg64_14_cif.got.tgz:27446.got - 2010.04.10 20:19:32.
