data_PCOD8263574
_publ_section_title
;
Structure prediction by ZEFSAII (Michael W. Deem and Ramdas Pophale) SiO2 
 PCOD8263574
Probable space group: C M C A
;
_chemical_formula_sum "Si O2"
_cell_formula_units_Z 88
_cell_length_a 16.206542
_cell_length_b 19.342345
_cell_length_c 13.340321
_cell_angle_alpha 90.000000
_cell_angle_beta 90.000000
_cell_angle_gamma 90.000000
_cell_volume 4181.824130
_symmetry_space_group_name_H-M "C M C A"
_symmetry_group_IT_number 64
_symmetry_cell_setting 'orthorhombic'
loop_
_space_group_symop_operation_xyz
x,y,z
-x,1/2-y,1/2+z
x,-y,-z
-x,1/2+y,1/2-z
-x,-y,-z
x,1/2+y,1/2-z
-x,y,z
x,1/2-y,1/2+z
1/2+x,1/2+y,z
1/2-x,-y,1/2+z
1/2+x,1/2-y,-z
1/2-x,y,1/2-z
1/2-x,1/2-y,-z
1/2+x,y,1/2-z
1/2-x,1/2+y,z
1/2+x,-y,1/2+z
loop_
_atom_site_type_symbol
_atom_site_label
_atom_site_fract_x
_atom_site_fract_y
_atom_site_fract_z
Si Si1 0.406406 0.094812 0.263116
Si Si2 0.402293 0.843975 0.351048
Si Si3 0.310238 0.619881 0.045001
Si Si4 0.801056 0.000000 0.500000
Si Si5 0.405734 0.553066 0.679074
Si Si6 0.805821 0.206824 0.341427
O O1 0.500000 0.116525 0.243202
O O2 0.383607 0.117796 0.374818
O O3 0.350315 0.134689 0.183524
O O4 0.393102 0.013190 0.249840
O O5 0.500000 0.849463 0.370915
O O6 0.350959 0.883350 0.436103
O O7 0.379423 0.879451 0.244339
O O8 0.374974 0.764398 0.359781
O O9 0.255063 0.552278 0.062392
O O10 0.253426 0.688600 0.063576
O O11 0.854286 0.953535 0.422988
O O12 0.500000 0.560736 0.644772
O O13 0.750000 0.233402 0.250000
#
# Coordination Sequence:
#
# PCOD8263574 Si02
#       6
#    16  16  16   8  16  16
#     4  10  20  41  64  88 123 165 207 255 316 380
#     4  11  24  42  62  93 132 170 211 262 323 381
#     4  11  23  37  64  96 125 164 212 264 315 383
#     4  12  23  40  67  96 126 164 218 264 331 372
#     4  10  23  41  64  91 126 165 212 265 316 382
#     4  10  22  40  63  91 127 167 213 260 315 378
#
# _framework density 21.04345
#
# number of rings (size 3 to 8) (size 9 to 14) (size 15 to 20)
#    0.000    1.455    1.818    3.000    2.545    1.455 
#    0.000    3.636    0.000    0.000    0.000    0.000 
#    0.000    0.000    0.000    0.000    0.000    0.000 
#
# Total GULP energy -545567.797247 kJ/mol
# GULP energy per Si atom -12399.268119 kJ/mol
# Density = 2.099555 g / cm^3
# Si number density = 21.043450 Si / 1000 Ang^3
#
#
#
# Elastic Constant Matrix: (Units=GPa)
#
#
# Indices 1 2 3 4 5 6 
#
# 1 97.6444 30.3744 44.0967 0.0000 0.0000 0.0000
# 2 30.3744 77.8356 12.7005 0.0000 0.0000 0.0000
# 3 44.0967 12.7005 87.0495 0.0000 0.0000 0.0000
# 4 0.0000 0.0000 0.0000 24.9165 0.0000 0.0000
# 5 0.0000 0.0000 0.0000 0.0000 23.7393 0.0000
# 6 0.0000 0.0000 0.0000 0.0000 0.0000 33.3223
#
#
#
# Elastic Compliance Matrix: (Units=1/GPa)
#
#
# Indices 1 2 3 4 5 6 
#
# 1 0.014757 -0.004650 -0.006797 0.000000 0.000000 0.000000
# 2 -0.004650 0.014626 0.000222 0.000000 0.000000 0.000000
# 3 -0.006797 0.000222 0.014899 0.000000 0.000000 0.000000
# 4 0.000000 0.000000 0.000000 0.040134 0.000000 0.000000
# 5 0.000000 0.000000 0.000000 0.000000 0.042124 0.000000
# 6 0.000000 0.000000 0.000000 0.000000 0.000000 0.030010
#
#
# Mechanical properties :
#
#
# Convention : Reuss Voigt Hill
#
# Bulk Modulus (GPa) = 45.80641 48.54142 47.17392
# Shear Modulus (GPa) = 26.84158 28.08615 27.46386
#
# Velocity S-wave (km/s) = 3.57533 3.65728 3.61654
# Velocity P-wave (km/s) = 6.23368 6.39934 6.31706
#
# Compressibility (1/GPa) = 0.02183100
#
# Stress axis : x y z
#
# Youngs Moduli (GPa) = 67.76303 68.37160 67.12007
#
# Poissons Ratio (x) = 0.31791 0.45623
# Poissons Ratio (y) = 0.31508 -0.01487
# Poissons Ratio (z) = 0.46060 -0.01515
#
# Static dielectric constant tensor:
#      x y z
#    x 3.895760 0.000000 0.000000 
#    y 0.000000 3.647200 0.000000 
#    z 0.000000 0.000000 3.618440 
# 
# 
# High freq. dielectric constant tensor:
#      x y z
#    x 1.837550 0.000000 0.000000 
#    y 0.000000 1.821300 0.000000 
#    z 0.000000 0.000000 1.816580 
# 
# From -- ./inp_files/25408.got.cif
#   From: 2010.03.12/outbox.cif.g09.slc.cpg/sg64_13_cif.got.tgz:25408.got - 2010.04.10 20:19:32.
