data_PCOD8263106
_publ_section_title
;
Structure prediction by ZEFSAII (Michael W. Deem and Ramdas Pophale) SiO2 
 PCOD8263106
Probable space group: C M C A
;
_chemical_formula_sum "Si O2"
_cell_formula_units_Z 96
_cell_length_a 24.557236
_cell_length_b 8.681267
_cell_length_c 22.099669
_cell_angle_alpha 90.000000
_cell_angle_beta 90.000000
_cell_angle_gamma 90.000000
_cell_volume 4711.382522
_symmetry_space_group_name_H-M "C M C A"
_symmetry_group_IT_number 64
_symmetry_cell_setting 'orthorhombic'
loop_
_space_group_symop_operation_xyz
x,y,z
-x,1/2-y,1/2+z
x,-y,-z
-x,1/2+y,1/2-z
-x,-y,-z
x,1/2+y,1/2-z
-x,y,z
x,1/2-y,1/2+z
1/2+x,1/2+y,z
1/2-x,-y,1/2+z
1/2+x,1/2-y,-z
1/2-x,y,1/2-z
1/2-x,1/2-y,-z
1/2+x,y,1/2-z
1/2-x,1/2+y,z
1/2+x,-y,1/2+z
loop_
_atom_site_type_symbol
_atom_site_label
_atom_site_fract_x
_atom_site_fract_y
_atom_site_fract_z
Si Si1 0.327047 0.149643 0.472822
Si Si2 0.717239 0.657043 0.416778
Si Si3 0.621082 0.936999 0.065979
Si Si4 0.798783 0.671850 0.703088
Si Si5 0.125913 0.596777 0.270381
Si Si6 0.563280 0.621228 0.681579
O O1 0.305316 0.254779 0.526150
O O2 0.276893 0.089713 0.431561
O O3 0.369353 0.252988 0.435965
O O4 0.357500 0.000000 0.500000
O O5 0.675951 0.514796 0.406958
O O6 0.724810 0.771790 0.360518
O O7 0.573845 0.957384 0.115874
O O8 0.602697 0.000000 0.000000
O O9 0.750000 0.636712 0.750000
O O10 0.837084 0.808595 0.724615
O O11 0.834038 0.516725 0.692224
O O12 0.094371 0.714676 0.314190
O O13 0.082664 0.495459 0.233378
O O14 0.500000 0.651667 0.690395
#
# Coordination Sequence:
#
# PCOD8263106 Si02
#       6
#    16  16  16  16  16  16
#     4  10  21  33  57  84 118 165 198 236 287 365
#     4  10  20  36  54  85 123 160 198 233 291 370
#     4  10  22  40  60  90 125 158 205 255 309 369
#     4  11  23  36  59  91 131 163 191 241 303 374
#     4  10  24  40  59  94 121 161 202 248 310 370
#     4  11  23  44  68  87 115 158 212 270 312 361
#
# _framework density 20.376185
#
# number of rings (size 3 to 8) (size 9 to 14) (size 15 to 20)
#    0.000    1.667    1.667    3.500    7.000    3.000 
#    0.000    0.000    0.000    0.500    0.000    0.000 
#    0.000    0.000    0.000    0.000    0.000    0.000 
#
# Total GULP energy -595065.607887 kJ/mol
# GULP energy per Si atom -12397.200164 kJ/mol
# Density = 2.032981 g / cm^3
# Si number density = 20.376185 Si / 1000 Ang^3
#
#
#
# Elastic Constant Matrix: (Units=GPa)
#
#
# Indices 1 2 3 4 5 6 
#
# 1 81.0981 32.3185 31.8798 0.0000 0.0000 0.0000
# 2 32.3185 105.5250 12.1821 0.0000 0.0000 0.0000
# 3 31.8798 12.1821 84.7345 0.0000 0.0000 0.0000
# 4 0.0000 0.0000 0.0000 22.8060 0.0000 0.0000
# 5 0.0000 0.0000 0.0000 0.0000 25.4655 0.0000
# 6 0.0000 0.0000 0.0000 0.0000 0.0000 20.4453
#
#
#
# Elastic Compliance Matrix: (Units=1/GPa)
#
#
# Indices 1 2 3 4 5 6 
#
# 1 0.016210 -0.004332 -0.005476 0.000000 0.000000 0.000000
# 2 -0.004332 0.010794 0.000078 0.000000 0.000000 0.000000
# 3 -0.005476 0.000078 0.013850 0.000000 0.000000 0.000000
# 4 0.000000 0.000000 0.000000 0.043848 0.000000 0.000000
# 5 0.000000 0.000000 0.000000 0.000000 0.039269 0.000000
# 6 0.000000 0.000000 0.000000 0.000000 0.000000 0.048911
#
#
# Mechanical properties :
#
#
# Convention : Reuss Voigt Hill
#
# Bulk Modulus (GPa) = 46.74100 47.12426 46.93263
# Shear Modulus (GPa) = 25.06595 26.74186 25.90390
#
# Velocity S-wave (km/s) = 3.51117 3.62665 3.56937
# Velocity P-wave (km/s) = 6.27906 6.38076 6.33011
#
# Compressibility (1/GPa) = 0.02139450
#
# Stress axis : x y z
#
# Youngs Moduli (GPa) = 61.69125 92.64199 72.19959
#
# Poissons Ratio (x) = 0.40136 0.39535
# Poissons Ratio (y) = 0.26727 -0.00564
# Poissons Ratio (z) = 0.33781 -0.00723
#
# Static dielectric constant tensor:
#      x y z
#    x 3.400420 0.000000 0.000000 
#    y 0.000000 3.971560 0.000000 
#    z 0.000000 0.000000 3.733660 
# 
# 
# High freq. dielectric constant tensor:
#      x y z
#    x 1.756150 0.000000 0.000000 
#    y 0.000000 1.811780 0.000000 
#    z 0.000000 0.000000 1.802470 
# 
# From -- ./inp_files/41828.got.cif
#   From: 2010.03.12/outbox.cif.g09.slc.cpg/sg64_21_cif.got.tgz:41828.got - 2010.04.10 20:19:32.
