data_PCOD8263021
_publ_section_title
;
Structure prediction by ZEFSAII (Michael W. Deem and Ramdas Pophale) SiO2 
 PCOD8263021
Probable space group: C M C A
;
_chemical_formula_sum "Si O2"
_cell_formula_units_Z 104
_cell_length_a 26.828153
_cell_length_b 9.323570
_cell_length_c 20.774001
_cell_angle_alpha 90.000000
_cell_angle_beta 90.000000
_cell_angle_gamma 90.000000
_cell_volume 5196.287341
_symmetry_space_group_name_H-M "C M C A"
_symmetry_group_IT_number 64
_symmetry_cell_setting 'orthorhombic'
loop_
_space_group_symop_operation_xyz
x,y,z
-x,1/2-y,1/2+z
x,-y,-z
-x,1/2+y,1/2-z
-x,-y,-z
x,1/2+y,1/2-z
-x,y,z
x,1/2-y,1/2+z
1/2+x,1/2+y,z
1/2-x,-y,1/2+z
1/2+x,1/2-y,-z
1/2-x,y,1/2-z
1/2-x,1/2-y,-z
1/2+x,y,1/2-z
1/2-x,1/2+y,z
1/2+x,-y,1/2+z
loop_
_atom_site_type_symbol
_atom_site_label
_atom_site_fract_x
_atom_site_fract_y
_atom_site_fract_z
Si Si1 0.444327 0.519797 0.213539
Si Si2 0.345315 0.371800 0.819691
Si Si3 0.847163 0.671580 0.097211
Si Si4 0.706331 0.500000 0.500000
Si Si5 0.685291 0.054622 0.802031
Si Si6 0.555672 0.706570 0.333935
Si Si7 0.776801 0.436306 0.382463
O O1 0.500000 0.567920 0.192115
O O2 0.403626 0.594071 0.166758
O O3 0.438703 0.348362 0.210144
O O4 0.433747 0.571287 0.286963
O O5 0.325381 0.475855 0.763930
O O6 0.340615 0.208862 0.799526
O O7 0.310749 0.417809 0.880717
O O8 0.830356 0.627171 0.025063
O O9 0.838253 0.532531 0.139707
O O10 0.905620 0.711110 0.106066
O O11 0.813026 0.801274 0.120233
O O12 0.742048 0.436402 0.444981
O O13 0.744001 0.073579 0.817181
O O14 0.500000 0.697292 0.363512
#
# Coordination Sequence:
#
# PCOD8263021 Si02
#       7
#    16  16  16   8  16  16  16
#     4  10  20  35  56  85 118 151 185 223 277 345
#     4  12  21  36  55  86 118 152 187 230 288 340
#     4  11  21  40  59  82 115 151 194 245 285 342
#     4  10  24  40  61  82 107 150 202 244 296 340
#     4  11  23  34  54  85 121 153 189 226 284 349
#     4  10  20  36  59  87 117 154 187 228 285 345
#     4  11  23  40  59  81 112 151 194 240 286 346
#
# _framework density 20.014289000000002
#
# number of rings (size 3 to 8) (size 9 to 14) (size 15 to 20)
#    0.000    1.231    3.077    4.615    0.000    2.462 
#    0.000    0.385    0.000    0.000    0.000    6.462 
#    0.000    0.000    0.000    0.000    0.000    0.000 
#
# Total GULP energy -644542.616946 kJ/mol
# GULP energy per Si atom -12395.050326 kJ/mol
# Density = 1.996874 g / cm^3
# Si number density = 20.014289 Si / 1000 Ang^3
#
#
#
# Elastic Constant Matrix: (Units=GPa)
#
#
# Indices 1 2 3 4 5 6 
#
# 1 159.9193 36.2480 46.3773 0.0000 0.0000 0.0000
# 2 36.2480 114.6645 31.6916 0.0000 0.0000 0.0000
# 3 46.3773 31.6916 46.9727 0.0000 0.0000 0.0000
# 4 0.0000 0.0000 0.0000 23.7881 0.0000 0.0000
# 5 0.0000 0.0000 0.0000 0.0000 33.1269 0.0000
# 6 0.0000 0.0000 0.0000 0.0000 0.0000 -11.2088
#
#
#
# Elastic Compliance Matrix: (Units=1/GPa)
#
#
# Indices 1 2 3 4 5 6 
#
# 1 0.008782 -0.000467 -0.008356 0.000000 0.000000 0.000000
# 2 -0.000467 0.010745 -0.006788 0.000000 0.000000 0.000000
# 3 -0.008356 -0.006788 0.034119 0.000000 0.000000 0.000000
# 4 0.000000 0.000000 0.000000 0.042038 0.000000 0.000000
# 5 0.000000 0.000000 0.000000 0.000000 0.030187 0.000000
# 6 0.000000 0.000000 0.000000 0.000000 0.000000 -0.089216
#
#
# Mechanical properties :
#
#
# Convention : Reuss Voigt Hill
#
# Bulk Modulus (GPa) = 44.59574 61.13224 52.86399
# Shear Modulus (GPa) = 66.35533 22.95724 44.65628
#
# Velocity S-wave (km/s) = 5.76420 3.39048 4.72870
# Velocity P-wave (km/s) = 8.16282 6.77774 7.50231
#
# Compressibility (1/GPa) = 0.02242367
#
# Stress axis : x y z
#
# Youngs Moduli (GPa) = 113.86640 93.06744 29.30916
#
# Poissons Ratio (x) = 0.04344 0.24491
# Poissons Ratio (y) = 0.05315 0.19897
# Poissons Ratio (z) = 0.95146 0.63179
#
# Static dielectric constant tensor:
#      x y z
#    x 4.214150 0.000000 0.000000 
#    y 0.000000 3.729960 0.000000 
#    z 0.000000 0.000000 3.528920 
# 
# 
# High freq. dielectric constant tensor:
#      x y z
#    x 1.802690 0.000000 0.000000 
#    y 0.000000 1.791660 0.000000 
#    z 0.000000 0.000000 1.732760 
# 
# From -- ./inp_files/41857.got.cif
#   From: 2010.03.12/outbox.cif.g09.slc.cpg/sg64_21_cif.got.tgz:41857.got - 2010.04.10 20:19:32.
