data_PCOD8263413
_publ_section_title
;
Structure prediction by ZEFSAII (Michael W. Deem and Ramdas Pophale) SiO2 
 PCOD8263413
Probable space group: C M C A
;
_chemical_formula_sum "Si O2"
_cell_formula_units_Z 80
_cell_length_a 30.097242
_cell_length_b 5.349140
_cell_length_c 20.639125
_cell_angle_alpha 90.000000
_cell_angle_beta 90.000000
_cell_angle_gamma 90.000000
_cell_volume 3322.782742
_symmetry_space_group_name_H-M "C M C A"
_symmetry_group_IT_number 64
_symmetry_cell_setting 'orthorhombic'
loop_
_space_group_symop_operation_xyz
x,y,z
-x,1/2-y,1/2+z
x,-y,-z
-x,1/2+y,1/2-z
-x,-y,-z
x,1/2+y,1/2-z
-x,y,z
x,1/2-y,1/2+z
1/2+x,1/2+y,z
1/2-x,-y,1/2+z
1/2+x,1/2-y,-z
1/2-x,y,1/2-z
1/2-x,1/2-y,-z
1/2+x,y,1/2-z
1/2-x,1/2+y,z
1/2+x,-y,1/2+z
loop_
_atom_site_type_symbol
_atom_site_label
_atom_site_fract_x
_atom_site_fract_y
_atom_site_fract_z
Si Si1 0.074182 0.500000 0.000000
Si Si2 0.094817 0.315778 0.288996
Si Si3 0.234839 0.970834 0.623194
Si Si4 0.646391 0.317953 0.591474
Si Si5 0.500000 0.751884 0.066987
Si Si6 0.500000 0.762391 0.350174
Si Si7 0.708363 0.000000 0.500000
O O1 0.103344 0.552028 0.062732
O O2 0.043215 0.267829 0.020753
O O3 0.106159 0.552363 0.244629
O O4 0.127162 0.352513 0.350903
O O5 0.042917 0.305708 0.306132
O O6 0.241554 0.702077 0.660163
O O7 0.182028 0.022487 0.618076
O O8 0.259434 0.875547 0.554955
O O9 0.674104 0.181874 0.535751
O O10 0.500000 0.480107 0.096908
O O11 0.500000 0.986034 0.117715
#
# Coordination Sequence:
#
# PCOD8263413 Si02
#       7
#     8  16  16  16   8   8   8
#     4  11  23  40  63 114 138 182 209 294 365 435
#     4  12  28  48  71  97 133 184 245 288 330 393
#     4  10  20  38  61  99 136 175 214 259 333 419
#     4  11  23  39  72 103 143 178 225 289 343 410
#     4  11  26  41  68  99 151 167 219 280 373 435
#     4  12  24  52  68  95 131 191 237 286 335 415
#     4  10  21  38  69 109 138 181 213 276 349 432
#
# _framework density 24.076207
#
# number of rings (size 3 to 8) (size 9 to 14) (size 15 to 20)
#    0.000    1.000    2.000    6.000    2.800    4.800 
#    0.000    0.000    0.000   14.400    0.000    0.000 
#    0.000    0.000    0.000    0.000    0.000    0.000 
#
# Total GULP energy -495630.598631 kJ/mol
# GULP energy per Si atom -12390.764966 kJ/mol
# Density = 2.402141 g / cm^3
# Si number density = 24.076207 Si / 1000 Ang^3
#
#
#
# Elastic Constant Matrix: (Units=GPa)
#
#
# Indices 1 2 3 4 5 6 
#
# 1 163.0251 28.4940 32.7761 0.0000 0.0000 0.0000
# 2 28.4940 125.2195 28.9130 0.0000 0.0000 0.0000
# 3 32.7761 28.9130 49.1969 0.0000 0.0000 0.0000
# 4 0.0000 0.0000 0.0000 29.5968 0.0000 0.0000
# 5 0.0000 0.0000 0.0000 0.0000 55.2638 0.0000
# 6 0.0000 0.0000 0.0000 0.0000 0.0000 15.6523
#
#
#
# Elastic Compliance Matrix: (Units=1/GPa)
#
#
# Indices 1 2 3 4 5 6 
#
# 1 0.007122 -0.000608 -0.004388 0.000000 0.000000 0.000000
# 2 -0.000608 0.009292 -0.005056 0.000000 0.000000 0.000000
# 3 -0.004388 -0.005056 0.026221 0.000000 0.000000 0.000000
# 4 0.000000 0.000000 0.000000 0.033787 0.000000 0.000000
# 5 0.000000 0.000000 0.000000 0.000000 0.018095 0.000000
# 6 0.000000 0.000000 0.000000 0.000000 0.000000 0.063889
#
#
# Mechanical properties :
#
#
# Convention : Reuss Voigt Hill
#
# Bulk Modulus (GPa) = 44.38083 57.53420 50.95751
# Shear Modulus (GPa) = 26.87879 36.58644 31.73262
#
# Velocity S-wave (km/s) = 3.34489 3.90245 3.63438
# Velocity P-wave (km/s) = 5.77851 6.65237 6.23078
#
# Compressibility (1/GPa) = 0.02253225
#
# Stress axis : x y z
#
# Youngs Moduli (GPa) = 140.40151 107.62370 38.13696
#
# Poissons Ratio (x) = 0.06538 0.16735
# Poissons Ratio (y) = 0.08530 0.19282
# Poissons Ratio (z) = 0.61609 0.54414
#
# Static dielectric constant tensor:
#      x y z
#    x 4.789640 0.000000 0.000000 
#    y 0.000000 4.343190 0.000000 
#    z 0.000000 0.000000 4.122760 
# 
# 
# High freq. dielectric constant tensor:
#      x y z
#    x 1.983040 0.000000 0.000000 
#    y 0.000000 1.956290 0.000000 
#    z 0.000000 0.000000 1.924570 
# 
# From -- ./inp_files/47067.got.cif
#   From: 2010.03.12/outbox.cif.g09.slc.cpg/sg64_24_cif.got.tgz:47067.got - 2010.04.10 20:19:32.
