data_PCOD8263841
_publ_section_title
;
Structure prediction by ZEFSAII (Michael W. Deem and Ramdas Pophale) SiO2 
 PCOD8263841
Probable space group: C M C A
;
_chemical_formula_sum "Si O2"
_cell_formula_units_Z 88
_cell_length_a 22.870745
_cell_length_b 20.148360
_cell_length_c 9.317095
_cell_angle_alpha 90.000000
_cell_angle_beta 90.000000
_cell_angle_gamma 90.000000
_cell_volume 4293.391947
_symmetry_space_group_name_H-M "C M C A"
_symmetry_group_IT_number 64
_symmetry_cell_setting 'orthorhombic'
loop_
_space_group_symop_operation_xyz
x,y,z
-x,1/2-y,1/2+z
x,-y,-z
-x,1/2+y,1/2-z
-x,-y,-z
x,1/2+y,1/2-z
-x,y,z
x,1/2-y,1/2+z
1/2+x,1/2+y,z
1/2-x,-y,1/2+z
1/2+x,1/2-y,-z
1/2-x,y,1/2-z
1/2-x,1/2-y,-z
1/2+x,y,1/2-z
1/2-x,1/2+y,z
1/2+x,-y,1/2+z
loop_
_atom_site_type_symbol
_atom_site_label
_atom_site_fract_x
_atom_site_fract_y
_atom_site_fract_z
Si Si1 0.500000 0.100497 0.143316
Si Si2 0.318912 0.180309 0.249438
Si Si3 0.872972 0.722518 0.540035
Si Si4 0.888502 0.055936 0.195654
Si Si5 0.000000 0.248750 0.858878
Si Si6 0.892009 0.414712 0.374724
Si Si7 0.000000 0.122177 0.693227
O O1 0.557188 0.060993 0.195338
O O2 0.500000 0.176206 0.201146
O O3 0.500000 0.104073 0.972426
O O4 0.250000 0.187272 0.250000
O O5 0.350910 0.219210 0.377506
O O6 0.341497 0.213612 0.104462
O O7 0.336097 0.102919 0.250826
O O8 0.854855 0.654214 0.626278
O O9 0.942977 0.732763 0.544375
O O10 0.860011 0.981788 0.181736
O O11 0.912977 0.077481 0.039726
O O12 0.000000 0.201780 0.717745
O O13 0.945292 0.410913 0.267569
#
# Coordination Sequence:
#
# PCOD8263841 Si02
#       7
#     8  16  16  16   8  16   8
#     4  12  22  33  59  90 126 152 198 247 317 358
#     4  11  23  40  61  87 117 156 205 251 300 353
#     4  10  22  38  63  88 121 157 198 252 299 362
#     4  10  21  38  60  84 118 164 199 243 295 373
#     4  10  22  34  56  90 126 156 196 242 314 374
#     4   9  20  38  57  82 120 161 201 232 301 368
#     4  10  22  33  53  88 126 152 188 249 299 374
#
# _framework density 20.496614000000001
#
# number of rings (size 3 to 8) (size 9 to 14) (size 15 to 20)
#    0.000    1.818    1.818    1.636    5.091    6.545 
#    0.000    0.909    0.000    8.727    0.000    0.000 
#    0.000    0.000    0.000    0.000    0.000    0.000 
#
# Total GULP energy -545300.627590 kJ/mol
# GULP energy per Si atom -12393.196082 kJ/mol
# Density = 2.044996 g / cm^3
# Si number density = 20.496614 Si / 1000 Ang^3
#
#
#
# Elastic Constant Matrix: (Units=GPa)
#
#
# Indices 1 2 3 4 5 6 
#
# 1 91.9529 -1.4206 6.9128 0.0000 0.0000 0.0000
# 2 -1.4206 94.9624 -10.1412 0.0000 0.0000 0.0000
# 3 6.9128 -10.1412 49.9048 0.0000 0.0000 0.0000
# 4 0.0000 0.0000 0.0000 27.7535 0.0000 0.0000
# 5 0.0000 0.0000 0.0000 0.0000 18.7503 0.0000
# 6 0.0000 0.0000 0.0000 0.0000 0.0000 -64.4681
#
#
#
# Elastic Compliance Matrix: (Units=1/GPa)
#
#
# Indices 1 2 3 4 5 6 
#
# 1 0.010990 0.000002 -0.001522 0.000000 0.000000 0.000000
# 2 0.000002 0.010764 0.002187 0.000000 0.000000 0.000000
# 3 -0.001522 0.002187 0.020693 0.000000 0.000000 0.000000
# 4 0.000000 0.000000 0.000000 0.036032 0.000000 0.000000
# 5 0.000000 0.000000 0.000000 0.000000 0.053332 0.000000
# 6 0.000000 0.000000 0.000000 0.000000 0.000000 -0.015512
#
#
# Mechanical properties :
#
#
# Convention : Reuss Voigt Hill
#
# Bulk Modulus (GPa) = 22.84080 25.28022 24.06051
# Shear Modulus (GPa) = 38.59246 12.50508 25.54877
#
# Velocity S-wave (km/s) = 4.34391 2.47271 3.53439
# Velocity P-wave (km/s) = 6.02722 4.52913 5.33106
#
# Compressibility (1/GPa) = 0.04378130
#
# Stress axis : x y z
#
# Youngs Moduli (GPa) = 90.99533 92.90156 48.32452
#
# Poissons Ratio (x) = -0.00017 0.07354
# Poissons Ratio (y) = -0.00017 -0.10569
# Poissons Ratio (z) = 0.13848 -0.20319
#
# Static dielectric constant tensor:
#      x y z
#    x 3.404560 0.000000 0.000000 
#    y 0.000000 4.302340 0.000000 
#    z 0.000000 0.000000 3.599160 
# 
# 
# High freq. dielectric constant tensor:
#      x y z
#    x 1.756240 0.000000 0.000000 
#    y 0.000000 1.825980 0.000000 
#    z 0.000000 0.000000 1.798670 
# 
# From -- ./inp_files/9367.got.cif
#   From: 2010.03.12/outbox.cif.g09.slc.cpg/sg64_5_cif.got.tgz:9367.got - 2010.04.10 20:19:32.
