data_PCOD8263768
_publ_section_title
;
Structure prediction by ZEFSAII (Michael W. Deem and Ramdas Pophale) SiO2 
 PCOD8263768
Probable space group: C M C A
;
_chemical_formula_sum "Si O2"
_cell_formula_units_Z 64
_cell_length_a 17.935182
_cell_length_b 18.919248
_cell_length_c 9.119670
_cell_angle_alpha 90.000000
_cell_angle_beta 90.000000
_cell_angle_gamma 90.000000
_cell_volume 3094.487849
_symmetry_space_group_name_H-M "C M C A"
_symmetry_group_IT_number 64
_symmetry_cell_setting 'orthorhombic'
loop_
_space_group_symop_operation_xyz
x,y,z
-x,1/2-y,1/2+z
x,-y,-z
-x,1/2+y,1/2-z
-x,-y,-z
x,1/2+y,1/2-z
-x,y,z
x,1/2-y,1/2+z
1/2+x,1/2+y,z
1/2-x,-y,1/2+z
1/2+x,1/2-y,-z
1/2-x,y,1/2-z
1/2-x,1/2-y,-z
1/2+x,y,1/2-z
1/2-x,1/2+y,z
1/2+x,-y,1/2+z
loop_
_atom_site_type_symbol
_atom_site_label
_atom_site_fract_x
_atom_site_fract_y
_atom_site_fract_z
Si Si1 0.307206 0.444352 0.880582
Si Si2 0.415200 0.955358 0.864282
Si Si3 0.085040 0.293028 0.831874
Si Si4 0.325770 0.789564 0.547279
O O1 0.250000 0.429718 0.750000
O O2 0.380421 0.472707 0.795631
O O3 0.318060 0.373326 0.974772
O O4 0.278783 0.500000 0.000000
O O5 0.500000 0.979048 0.849141
O O6 0.405202 0.872060 0.896296
O O7 0.379068 0.000000 0.000000
O O8 0.149861 0.276876 0.714568
O O9 0.000000 0.282206 0.774819
O O10 0.102551 0.237323 0.958260
O O11 0.250000 0.750000 0.500000
#
# Coordination Sequence:
#
# PCOD8263768 Si02
#       4
#    16  16  16  16
#     4  11  24  40  59  83 115 151 193 241 288 340
#     4   9  19  38  61  86 118 152 187 230 284 344
#     4  10  21  37  59  87 119 153 190 236 286 340
#     4  11  22  39  60  85 116 151 193 239 288 343
#
# _framework density 20.681936
#
# number of rings (size 3 to 8) (size 9 to 14) (size 15 to 20)
#    0.000    1.750    0.000    5.250    0.000    5.500 
#    0.000    2.500    0.000    0.000    0.000    0.000 
#    0.000    0.000    0.000    0.000    0.000    0.000 
#
# Total GULP energy -396588.421549 kJ/mol
# GULP energy per Si atom -12393.388173 kJ/mol
# Density = 2.063486 g / cm^3
# Si number density = 20.681936 Si / 1000 Ang^3
#
#
#
# Elastic Constant Matrix: (Units=GPa)
#
#
# Indices 1 2 3 4 5 6 
#
# 1 107.0654 45.6204 40.4819 0.0000 0.0000 0.0000
# 2 45.6204 107.2325 64.9743 0.0000 0.0000 0.0000
# 3 40.4819 64.9743 81.9556 0.0000 0.0000 0.0000
# 4 0.0000 0.0000 0.0000 45.6688 0.0000 0.0000
# 5 0.0000 0.0000 0.0000 0.0000 43.0783 0.0000
# 6 0.0000 0.0000 0.0000 0.0000 0.0000 18.5760
#
#
#
# Elastic Compliance Matrix: (Units=1/GPa)
#
#
# Indices 1 2 3 4 5 6 
#
# 1 0.011935 -0.002897 -0.003598 0.000000 0.000000 0.000000
# 2 -0.002897 0.018650 -0.013354 0.000000 0.000000 0.000000
# 3 -0.003598 -0.013354 0.024567 0.000000 0.000000 0.000000
# 4 0.000000 0.000000 0.000000 0.021897 0.000000 0.000000
# 5 0.000000 0.000000 0.000000 0.000000 0.023214 0.000000
# 6 0.000000 0.000000 0.000000 0.000000 0.000000 0.053833
#
#
# Mechanical properties :
#
#
# Convention : Reuss Voigt Hill
#
# Bulk Modulus (GPa) = 64.71954 66.48961 65.60458
# Shear Modulus (GPa) = 25.13249 31.14309 28.13779
#
# Velocity S-wave (km/s) = 3.48974 3.88469 3.69250
# Velocity P-wave (km/s) = 6.89916 7.23460 7.06887
#
# Compressibility (1/GPa) = 0.01545128
#
# Stress axis : x y z
#
# Youngs Moduli (GPa) = 83.78586 53.61963 40.70569
#
# Poissons Ratio (x) = 0.15535 0.14648
# Poissons Ratio (y) = 0.24275 0.54360
# Poissons Ratio (z) = 0.30150 0.71606
#
# Static dielectric constant tensor:
#      x y z
#    x 3.956750 0.000000 0.000000 
#    y 0.000000 3.702430 0.000000 
#    z 0.000000 0.000000 3.917340 
# 
# 
# High freq. dielectric constant tensor:
#      x y z
#    x 1.824710 0.000000 0.000000 
#    y 0.000000 1.803230 0.000000 
#    z 0.000000 0.000000 1.803020 
# 
# From -- ./inp_files/6576.got.cif
#   From: 2010.03.12/outbox.cif.g09.slc.cpg/sg64_4_cif.got.tgz:6576.got - 2010.04.10 20:19:32.
