data_PCOD8263996
_publ_section_title
;
Structure prediction by ZEFSAII (Michael W. Deem and Ramdas Pophale) SiO2 
 PCOD8263996
Probable space group: C M C A
;
_chemical_formula_sum "Si O2"
_cell_formula_units_Z 96
_cell_length_a 15.079609
_cell_length_b 19.595092
_cell_length_c 15.475116
_cell_angle_alpha 90.000000
_cell_angle_beta 90.000000
_cell_angle_gamma 90.000000
_cell_volume 4572.685166
_symmetry_space_group_name_H-M "C M C A"
_symmetry_group_IT_number 64
_symmetry_cell_setting 'orthorhombic'
loop_
_space_group_symop_operation_xyz
x,y,z
-x,1/2-y,1/2+z
x,-y,-z
-x,1/2+y,1/2-z
-x,-y,-z
x,1/2+y,1/2-z
-x,y,z
x,1/2-y,1/2+z
1/2+x,1/2+y,z
1/2-x,-y,1/2+z
1/2+x,1/2-y,-z
1/2-x,y,1/2-z
1/2-x,1/2-y,-z
1/2+x,y,1/2-z
1/2-x,1/2+y,z
1/2+x,-y,1/2+z
loop_
_atom_site_type_symbol
_atom_site_label
_atom_site_fract_x
_atom_site_fract_y
_atom_site_fract_z
Si Si1 0.896693 0.786886 0.700544
Si Si2 0.398499 0.476967 0.329279
Si Si3 0.899614 0.415910 0.691558
Si Si4 0.601884 0.675382 0.670146
Si Si5 0.746051 0.942971 0.937428
Si Si6 0.327133 0.302691 0.510849
O O1 0.867172 0.860133 0.738016
O O2 0.852545 0.726340 0.759108
O O3 0.874816 0.782533 0.599785
O O4 0.000000 0.779364 0.711771
O O5 0.500000 0.477708 0.366543
O O6 0.397996 0.509310 0.233862
O O7 0.357799 0.400882 0.322392
O O8 0.336112 0.523450 0.387794
O O9 0.828031 0.413829 0.616471
O O10 0.000000 0.399615 0.657808
O O11 0.500000 0.668368 0.693964
O O12 0.610433 0.705209 0.573061
O O13 0.707140 0.879930 0.990555
O O14 0.787057 0.000000 0.000000
O O15 0.250000 0.250000 0.500000
#
# Coordination Sequence:
#
# PCOD8263996 Si02
#       6
#    16  16  16  16  16  16
#     4  10  22  43  68  91 125 175 220 269 330 389
#     4  10  21  39  66  95 124 164 217 271 325 381
#     4  10  22  41  66  91 123 173 224 265 318 392
#     4  10  22  41  64  94 127 164 216 276 325 384
#     4  12  24  40  62  95 132 171 213 267 331 387
#     4  12  25  39  60  98 131 171 215 265 327 396
#
# _framework density 20.994230000000002
#
# number of rings (size 3 to 8) (size 9 to 14) (size 15 to 20)
#    0.000    1.333    3.333    2.000    0.000    4.667 
#    3.000    0.833    0.000    0.000    0.000    0.000 
#    0.000    0.000    0.000    0.000    0.000    0.000 
#
# Total GULP energy -595025.921391 kJ/mol
# GULP energy per Si atom -12396.373362 kJ/mol
# Density = 2.094645 g / cm^3
# Si number density = 20.994230 Si / 1000 Ang^3
#
#
#
# Elastic Constant Matrix: (Units=GPa)
#
#
# Indices 1 2 3 4 5 6 
#
# 1 37.6962 14.0223 -5.1702 0.0000 0.0000 0.0000
# 2 14.0223 134.1645 35.7496 0.0000 0.0000 0.0000
# 3 -5.1702 35.7496 77.1873 0.0000 0.0000 0.0000
# 4 0.0000 0.0000 0.0000 42.0601 0.0000 0.0000
# 5 0.0000 0.0000 0.0000 0.0000 29.6607 0.0000
# 6 0.0000 0.0000 0.0000 0.0000 0.0000 25.7754
#
#
#
# Elastic Compliance Matrix: (Units=1/GPa)
#
#
# Indices 1 2 3 4 5 6 
#
# 1 0.028524 -0.003982 0.003755 0.000000 0.000000 0.000000
# 2 -0.003982 0.009059 -0.004462 0.000000 0.000000 0.000000
# 3 0.003755 -0.004462 0.015274 0.000000 0.000000 0.000000
# 4 0.000000 0.000000 0.000000 0.023776 0.000000 0.000000
# 5 0.000000 0.000000 0.000000 0.000000 0.033715 0.000000
# 6 0.000000 0.000000 0.000000 0.000000 0.000000 0.038797
#
#
# Mechanical properties :
#
#
# Convention : Reuss Voigt Hill
#
# Bulk Modulus (GPa) = 23.00017 37.58349 30.29183
# Shear Modulus (GPa) = 28.89935 33.12900 31.01417
#
# Velocity S-wave (km/s) = 3.71420 3.97672 3.84770
# Velocity P-wave (km/s) = 5.41968 6.24711 5.84805
#
# Compressibility (1/GPa) = 0.04347794
#
# Stress axis : x y z
#
# Youngs Moduli (GPa) = 35.05823 110.39099 65.47197
#
# Poissons Ratio (x) = 0.43954 -0.24583
# Poissons Ratio (y) = 0.13959 0.29215
# Poissons Ratio (z) = -0.13164 0.49260
#
# Static dielectric constant tensor:
#      x y z
#    x 3.638870 0.000000 0.000000 
#    y 0.000000 3.888870 0.000000 
#    z 0.000000 0.000000 4.226880 
# 
# 
# High freq. dielectric constant tensor:
#      x y z
#    x 1.813600 0.000000 0.000000 
#    y 0.000000 1.841410 0.000000 
#    z 0.000000 0.000000 1.813490 
# 
# From -- ./inp_files/23923.got.cif
#   From: 2010.03.12/outbox.cif.g09.slc.cpg/sg64_12_cif.got.tgz:23923.got - 2010.04.10 20:19:32.
