data_PCOD8263442
_publ_section_title
;
Structure prediction by ZEFSAII (Michael W. Deem and Ramdas Pophale) SiO2 
 PCOD8263442
Probable space group: C M C A
;
_chemical_formula_sum "Si O2"
_cell_formula_units_Z 88
_cell_length_a 27.331648
_cell_length_b 18.951697
_cell_length_c 8.636328
_cell_angle_alpha 90.000000
_cell_angle_beta 90.000000
_cell_angle_gamma 90.000000
_cell_volume 4473.454776
_symmetry_space_group_name_H-M "C M C A"
_symmetry_group_IT_number 64
_symmetry_cell_setting 'orthorhombic'
loop_
_space_group_symop_operation_xyz
x,y,z
-x,1/2-y,1/2+z
x,-y,-z
-x,1/2+y,1/2-z
-x,-y,-z
x,1/2+y,1/2-z
-x,y,z
x,1/2-y,1/2+z
1/2+x,1/2+y,z
1/2-x,-y,1/2+z
1/2+x,1/2-y,-z
1/2-x,y,1/2-z
1/2-x,1/2-y,-z
1/2+x,y,1/2-z
1/2-x,1/2+y,z
1/2+x,-y,1/2+z
loop_
_atom_site_type_symbol
_atom_site_label
_atom_site_fract_x
_atom_site_fract_y
_atom_site_fract_z
Si Si1 0.610713 0.572711 0.064317
Si Si2 0.054099 0.826381 0.130896
Si Si3 0.557516 0.066435 0.111646
Si Si4 0.750000 0.734513 0.750000
Si Si5 0.816708 0.801615 0.991062
Si Si6 0.405865 0.293976 0.450514
O O1 0.586645 0.557091 0.229569
O O2 0.632728 0.500000 0.000000
O O3 0.568967 0.599660 0.946038
O O4 0.654006 0.629818 0.065859
O O5 0.091585 0.804102 0.265665
O O6 0.000000 0.835266 0.201088
O O7 0.055009 0.765780 0.999981
O O8 0.500000 0.078257 0.143976
O O9 0.581462 0.133319 0.030834
O O10 0.566039 0.000000 0.000000
O O11 0.790389 0.686984 0.658672
O O12 0.725310 0.788115 0.631545
O O13 0.852094 0.733075 0.998366
#
# Coordination Sequence:
#
# PCOD8263442 Si02
#       6
#    16  16  16   8  16  16
#     4  11  23  39  57  81 117 154 193 238 286 340
#     4  11  21  33  55  83 115 157 197 237 278 326
#     4  11  23  37  55  82 119 163 203 237 276 329
#     4  10  20  38  64  86 108 134 180 238 290 358
#     4  10  21  38  61  87 110 142 183 232 294 347
#     4  11  21  36  56  83 116 148 191 238 283 339
#
# _framework density 19.671596999999998
#
# number of rings (size 3 to 8) (size 9 to 14) (size 15 to 20)
#    0.000    1.273    0.000    8.727    0.000    2.909 
#    0.000    0.909    0.000    4.364    0.000    0.000 
#    0.000    0.000    0.000    0.000    0.000    0.000 
#
# Total GULP energy -545563.546866 kJ/mol
# GULP energy per Si atom -12399.171520 kJ/mol
# Density = 1.962682 g / cm^3
# Si number density = 19.671597 Si / 1000 Ang^3
#
#
#
# Elastic Constant Matrix: (Units=GPa)
#
#
# Indices 1 2 3 4 5 6 
#
# 1 117.0075 40.0914 46.1192 0.0000 0.0000 0.0000
# 2 40.0914 124.4836 39.0409 0.0000 0.0000 0.0000
# 3 46.1192 39.0409 129.4838 0.0000 0.0000 0.0000
# 4 0.0000 0.0000 0.0000 33.3010 0.0000 0.0000
# 5 0.0000 0.0000 0.0000 0.0000 33.7183 0.0000
# 6 0.0000 0.0000 0.0000 0.0000 0.0000 15.7551
#
#
#
# Elastic Compliance Matrix: (Units=1/GPa)
#
#
# Indices 1 2 3 4 5 6 
#
# 1 0.010582 -0.002459 -0.003028 0.000000 0.000000 0.000000
# 2 -0.002459 0.009443 -0.001972 0.000000 0.000000 0.000000
# 3 -0.003028 -0.001972 0.009396 0.000000 0.000000 0.000000
# 4 0.000000 0.000000 0.000000 0.030029 0.000000 0.000000
# 5 0.000000 0.000000 0.000000 0.000000 0.029658 0.000000
# 6 0.000000 0.000000 0.000000 0.000000 0.000000 0.063472
#
#
# Mechanical properties :
#
#
# Convention : Reuss Voigt Hill
#
# Bulk Modulus (GPa) = 68.93953 69.05310 68.99631
# Shear Modulus (GPa) = 29.01390 32.93641 30.97516
#
# Velocity S-wave (km/s) = 3.84463 4.09628 3.97244
# Velocity P-wave (km/s) = 7.40469 7.58629 7.49604
#
# Compressibility (1/GPa) = 0.01450547
#
# Stress axis : x y z
#
# Youngs Moduli (GPa) = 94.49721 105.89485 106.42930
#
# Poissons Ratio (x) = 0.26035 0.32226
# Poissons Ratio (y) = 0.23233 0.20984
# Poissons Ratio (z) = 0.28613 0.20878
#
# Static dielectric constant tensor:
#      x y z
#    x 3.646220 0.000000 0.000000 
#    y 0.000000 3.586690 0.000000 
#    z 0.000000 0.000000 4.000250 
# 
# 
# High freq. dielectric constant tensor:
#      x y z
#    x 1.763290 0.000000 0.000000 
#    y 0.000000 1.755500 0.000000 
#    z 0.000000 0.000000 1.787300 
# 
# From -- ./inp_files/11081.got.cif
#   From: 2010.03.12/outbox.cif.g09.slc.cpg/sg64_6_cif.got.tgz:11081.got - 2010.04.10 20:19:32.
