data_PCOD8263979
_publ_section_title
;
Structure prediction by ZEFSAII (Michael W. Deem and Ramdas Pophale) SiO2 
 PCOD8263979
Probable space group: C M C A
;
_chemical_formula_sum "Si O2"
_cell_formula_units_Z 96
_cell_length_a 25.510772
_cell_length_b 19.829956
_cell_length_c 9.591246
_cell_angle_alpha 90.000000
_cell_angle_beta 90.000000
_cell_angle_gamma 90.000000
_cell_volume 4851.995417
_symmetry_space_group_name_H-M "C M C A"
_symmetry_group_IT_number 64
_symmetry_cell_setting 'orthorhombic'
loop_
_space_group_symop_operation_xyz
x,y,z
-x,1/2-y,1/2+z
x,-y,-z
-x,1/2+y,1/2-z
-x,-y,-z
x,1/2+y,1/2-z
-x,y,z
x,1/2-y,1/2+z
1/2+x,1/2+y,z
1/2-x,-y,1/2+z
1/2+x,1/2-y,-z
1/2-x,y,1/2-z
1/2-x,1/2-y,-z
1/2+x,y,1/2-z
1/2-x,1/2+y,z
1/2+x,-y,1/2+z
loop_
_atom_site_type_symbol
_atom_site_label
_atom_site_fract_x
_atom_site_fract_y
_atom_site_fract_z
Si Si1 0.699866 0.135304 0.335940
Si Si2 0.559560 0.960212 0.141283
Si Si3 0.350139 0.995222 0.338431
Si Si4 0.700173 0.645692 0.842016
Si Si5 0.118829 0.237060 0.285323
Si Si6 0.439428 0.310135 0.441067
O O1 0.750000 0.159114 0.250000
O O2 0.715662 0.145288 0.496257
O O3 0.650653 0.180455 0.296285
O O4 0.685814 0.058463 0.297207
O O5 0.500000 0.964401 0.195717
O O6 0.595191 0.995654 0.256893
O O7 0.576391 0.883573 0.114260
O O8 0.567227 0.000000 0.000000
O O9 0.318248 0.928555 0.297236
O O10 0.365168 0.000000 0.500000
O O11 0.750000 0.667022 0.750000
O O12 0.654094 0.698311 0.816925
O O13 0.071322 0.258047 0.184005
O O14 0.096234 0.206896 0.426937
O O15 0.500000 0.306226 0.485022
#
# Coordination Sequence:
#
# PCOD8263979 Si02
#       6
#    16  16  16  16  16  16
#     4  11  25  41  63  93 126 165 213 262 319 377
#     4  10  21  39  64  94 125 164 212 260 317 379
#     4  10  22  42  62  91 127 164 208 260 315 375
#     4  11  24  40  63  90 125 167 214 261 315 377
#     4  12  23  42  64  94 128 166 214 267 315 386
#     4  11  24  42  66  95 129 171 212 265 326 383
#
# _framework density 19.785672999999999
#
# number of rings (size 3 to 8) (size 9 to 14) (size 15 to 20)
#    0.000    1.167    3.333    2.500    2.333    3.000 
#    0.000    0.833    0.000    0.000    0.000    0.000 
#    0.000    0.000    0.000    0.000    0.000    0.000 
#
# Total GULP energy -595469.087683 kJ/mol
# GULP energy per Si atom -12405.605993 kJ/mol
# Density = 1.974064 g / cm^3
# Si number density = 19.785673 Si / 1000 Ang^3
#
#
#
# Elastic Constant Matrix: (Units=GPa)
#
#
# Indices 1 2 3 4 5 6 
#
# 1 93.0472 28.7622 45.6226 0.0000 0.0000 0.0000
# 2 28.7622 83.2216 19.2918 0.0000 0.0000 0.0000
# 3 45.6226 19.2918 85.1690 0.0000 0.0000 0.0000
# 4 0.0000 0.0000 0.0000 2.7288 0.0000 0.0000
# 5 0.0000 0.0000 0.0000 0.0000 25.9685 0.0000
# 6 0.0000 0.0000 0.0000 0.0000 0.0000 30.7165
#
#
#
# Elastic Compliance Matrix: (Units=1/GPa)
#
#
# Indices 1 2 3 4 5 6 
#
# 1 0.015552 -0.003635 -0.007507 0.000000 0.000000 0.000000
# 2 -0.003635 0.013531 -0.001118 0.000000 0.000000 0.000000
# 3 -0.007507 -0.001118 0.016016 0.000000 0.000000 0.000000
# 4 0.000000 0.000000 0.000000 0.366463 0.000000 0.000000
# 5 0.000000 0.000000 0.000000 0.000000 0.038508 0.000000
# 6 0.000000 0.000000 0.000000 0.000000 0.000000 0.032556
#
#
# Mechanical properties :
#
#
# Convention : Reuss Voigt Hill
#
# Bulk Modulus (GPa) = 48.59259 49.86565 49.22912
# Shear Modulus (GPa) = 9.72752 23.06683 16.39717
#
# Velocity S-wave (km/s) = 2.21971 3.41814 2.88191
# Velocity P-wave (km/s) = 5.58411 6.39029 6.00076
#
# Compressibility (1/GPa) = 0.02057927
#
# Stress axis : x y z
#
# Youngs Moduli (GPa) = 64.30172 73.90199 62.43716
#
# Poissons Ratio (x) = 0.26860 0.46874
# Poissons Ratio (y) = 0.23371 0.06981
# Poissons Ratio (z) = 0.48273 0.08263
#
# Static dielectric constant tensor:
#      x y z
#    x 3.574360 0.000000 0.000000 
#    y 0.000000 3.861860 0.000000 
#    z 0.000000 0.000000 3.689140 
# 
# 
# High freq. dielectric constant tensor:
#      x y z
#    x 1.773630 0.000000 0.000000 
#    y 0.000000 1.788760 0.000000 
#    z 0.000000 0.000000 1.777610 
# 
# From -- ./inp_files/10334.got.cif
#   From: 2010.03.12/outbox.cif.g09.slc.cpg/sg64_6_cif.got.tgz:10334.got - 2010.04.10 20:19:32.
