data_PCOD8263749
_publ_section_title
;
Structure prediction by ZEFSAII (Michael W. Deem and Ramdas Pophale) SiO2 
 PCOD8263749
Probable space group: C M C A
;
_chemical_formula_sum "Si O2"
_cell_formula_units_Z 112
_cell_length_a 14.386071
_cell_length_b 15.390921
_cell_length_c 24.851150
_cell_angle_alpha 90.000000
_cell_angle_beta 90.000000
_cell_angle_gamma 90.000000
_cell_volume 5502.414451
_symmetry_space_group_name_H-M "C M C A"
_symmetry_group_IT_number 64
_symmetry_cell_setting 'orthorhombic'
loop_
_space_group_symop_operation_xyz
x,y,z
-x,1/2-y,1/2+z
x,-y,-z
-x,1/2+y,1/2-z
-x,-y,-z
x,1/2+y,1/2-z
-x,y,z
x,1/2-y,1/2+z
1/2+x,1/2+y,z
1/2-x,-y,1/2+z
1/2+x,1/2-y,-z
1/2-x,y,1/2-z
1/2-x,1/2-y,-z
1/2+x,y,1/2-z
1/2-x,1/2+y,z
1/2+x,-y,1/2+z
loop_
_atom_site_type_symbol
_atom_site_label
_atom_site_fract_x
_atom_site_fract_y
_atom_site_fract_z
Si Si1 0.108473 0.329209 0.406585
Si Si2 0.256456 0.903507 0.486778
Si Si3 0.240183 0.812171 0.903632
Si Si4 0.894012 0.940139 0.305197
Si Si5 0.610085 0.837536 0.091965
Si Si6 0.892905 0.314664 0.285818
Si Si7 0.187018 0.122528 0.298281
O O1 0.156424 0.400256 0.445370
O O2 0.163597 0.239190 0.414904
O O3 0.120832 0.358481 0.344490
O O4 0.000000 0.316688 0.421568
O O5 0.288236 0.859298 0.541827
O O6 0.163608 0.858811 0.463309
O O7 0.227680 0.000000 0.500000
O O8 0.152095 0.753113 0.886564
O O9 0.256752 0.878035 0.854453
O O10 0.860430 0.909653 0.364075
O O11 0.846077 0.880651 0.257946
O O12 0.000000 0.914942 0.299546
O O13 0.886759 0.044152 0.300931
O O14 0.500000 0.831001 0.081568
O O15 0.851057 0.217872 0.284535
O O16 0.000000 0.299939 0.273335
O O17 0.250000 0.090834 0.250000
#
# Coordination Sequence:
#
# PCOD8263749 Si02
#       7
#    16  16  16  16  16  16  16
#     4   9  19  37  60  81 107 148 190 229 281 341
#     4  11  23  37  54  82 119 148 185 240 288 343
#     4  10  22  38  57  84 112 145 190 238 284 337
#     4  10  21  37  58  84 114 148 189 238 288 341
#     4  10  21  39  61  82 110 152 196 238 289 343
#     4   9  19  37  58  81 111 147 191 239 283 338
#     4  11  22  35  57  85 114 149 187 230 291 351
#
# _framework density 20.354700999999999
#
# number of rings (size 3 to 8) (size 9 to 14) (size 15 to 20)
#    0.000    2.000    0.000    3.857    0.000    8.571 
#    0.000    0.714    0.000    0.000    0.000    0.000 
#    0.000    0.000    0.000    0.000    0.000    0.000 
#
# Total GULP energy -694047.752795 kJ/mol
# GULP energy per Si atom -12393.709871 kJ/mol
# Density = 2.030837 g / cm^3
# Si number density = 20.354701 Si / 1000 Ang^3
#
#
#
# Elastic Constant Matrix: (Units=GPa)
#
#
# Indices 1 2 3 4 5 6 
#
# 1 96.1242 15.4821 30.9221 0.0000 0.0000 0.0000
# 2 15.4821 101.2102 41.2763 0.0000 0.0000 0.0000
# 3 30.9221 41.2763 117.1257 0.0000 0.0000 0.0000
# 4 0.0000 0.0000 0.0000 6.3585 0.0000 0.0000
# 5 0.0000 0.0000 0.0000 0.0000 22.9683 0.0000
# 6 0.0000 0.0000 0.0000 0.0000 0.0000 24.4727
#
#
#
# Elastic Compliance Matrix: (Units=1/GPa)
#
#
# Indices 1 2 3 4 5 6 
#
# 1 0.011400 -0.000603 -0.002797 0.000000 0.000000 0.000000
# 2 -0.000603 0.011571 -0.003918 0.000000 0.000000 0.000000
# 3 -0.002797 -0.003918 0.010657 0.000000 0.000000 0.000000
# 4 0.000000 0.000000 0.000000 0.157270 0.000000 0.000000
# 5 0.000000 0.000000 0.000000 0.000000 0.043538 0.000000
# 6 0.000000 0.000000 0.000000 0.000000 0.000000 0.040862
#
#
# Mechanical properties :
#
#
# Convention : Reuss Voigt Hill
#
# Bulk Modulus (GPa) = 52.65745 54.42456 53.54100
# Shear Modulus (GPa) = 16.87672 25.87853 21.37763
#
# Velocity S-wave (km/s) = 2.88259 3.56951 3.24428
# Velocity P-wave (km/s) = 6.08319 6.61700 6.35570
#
# Compressibility (1/GPa) = 0.01899067
#
# Stress axis : x y z
#
# Youngs Moduli (GPa) = 87.71801 86.42502 93.83324
#
# Poissons Ratio (x) = 0.05212 0.26247
# Poissons Ratio (y) = 0.05290 0.36768
# Poissons Ratio (z) = 0.24536 0.33865
#
# Static dielectric constant tensor:
#      x y z
#    x 3.563900 0.000000 0.000000 
#    y 0.000000 3.530010 0.000000 
#    z 0.000000 0.000000 4.093810 
# 
# 
# High freq. dielectric constant tensor:
#      x y z
#    x 1.786810 0.000000 0.000000 
#    y 0.000000 1.783260 0.000000 
#    z 0.000000 0.000000 1.811850 
# 
# From -- ./inp_files/45295.got.cif
#   From: 2010.03.12/outbox.cif.g09.slc.cpg/sg64_23_cif.got.tgz:45295.got - 2010.04.10 20:19:32.
