data_PCOD8263289
_publ_section_title
;
Structure prediction by ZEFSAII (Michael W. Deem and Ramdas Pophale) SiO2 
 PCOD8263289
Probable space group: C M C A
;
_chemical_formula_sum "Si O2"
_cell_formula_units_Z 72
_cell_length_a 9.606857
_cell_length_b 23.622854
_cell_length_c 15.096043
_cell_angle_alpha 90.000000
_cell_angle_beta 90.000000
_cell_angle_gamma 90.000000
_cell_volume 3425.916836
_symmetry_space_group_name_H-M "C M C A"
_symmetry_group_IT_number 64
_symmetry_cell_setting 'orthorhombic'
loop_
_space_group_symop_operation_xyz
x,y,z
-x,1/2-y,1/2+z
x,-y,-z
-x,1/2+y,1/2-z
-x,-y,-z
x,1/2+y,1/2-z
-x,y,z
x,1/2-y,1/2+z
1/2+x,1/2+y,z
1/2-x,-y,1/2+z
1/2+x,1/2-y,-z
1/2-x,y,1/2-z
1/2-x,1/2-y,-z
1/2+x,y,1/2-z
1/2-x,1/2+y,z
1/2+x,-y,1/2+z
loop_
_atom_site_type_symbol
_atom_site_label
_atom_site_fract_x
_atom_site_fract_y
_atom_site_fract_z
Si Si1 0.844384 0.544483 0.608192
Si Si2 0.250000 0.872118 0.250000
Si Si3 0.845696 0.285374 0.112204
Si Si4 0.835028 0.577517 0.418157
Si Si5 0.838053 0.317087 0.912219
O O1 0.843765 0.586523 0.690937
O O2 0.780489 0.572790 0.520251
O O3 0.786112 0.481273 0.629698
O O4 0.000000 0.531379 0.578999
O O5 0.155459 0.833875 0.313283
O O6 0.729732 0.238178 0.134000
O O7 0.000000 0.257942 0.111451
O O8 0.814506 0.313176 0.017407
O O9 0.744532 0.628234 0.375661
O O10 0.000000 0.591569 0.408390
O O11 0.000000 0.320295 0.885365
#
# Coordination Sequence:
#
# PCOD8263289 Si02
#       5
#    16   8  16  16  16
#     4   9  19  33  56  85 115 152 188 229 285 344
#     4  12  20  36  58  88 120 144 186 244 292 336
#     4  10  22  36  55  85 118 152 189 236 293 343
#     4   9  17  36  60  83 112 152 196 231 275 342
#     4  10  20  37  58  84 113 152 198 237 280 339
#
# _framework density 21.016272000000001
#
# number of rings (size 3 to 8) (size 9 to 14) (size 15 to 20)
#    0.000    2.222    2.222    2.667    0.000    2.667 
#    0.000    5.556    0.000    2.667    0.000    0.000 
#    0.000    0.000    0.000    0.000    0.000    0.000 
#
# Total GULP energy -446096.226847 kJ/mol
# GULP energy per Si atom -12391.561857 kJ/mol
# Density = 2.096844 g / cm^3
# Si number density = 21.016272 Si / 1000 Ang^3
#
#
#
# Elastic Constant Matrix: (Units=GPa)
#
#
# Indices 1 2 3 4 5 6 
#
# 1 112.3495 70.5274 8.4478 0.0000 0.0000 0.0000
# 2 70.5274 164.5981 37.3044 0.0000 0.0000 0.0000
# 3 8.4478 37.3044 60.5116 0.0000 0.0000 0.0000
# 4 0.0000 0.0000 0.0000 41.5301 0.0000 0.0000
# 5 0.0000 0.0000 0.0000 0.0000 14.4933 0.0000
# 6 0.0000 0.0000 0.0000 0.0000 0.0000 35.0306
#
#
#
# Elastic Compliance Matrix: (Units=1/GPa)
#
#
# Indices 1 2 3 4 5 6 
#
# 1 0.012340 -0.005692 0.001786 0.000000 0.000000 0.000000
# 2 -0.005692 0.009688 -0.005178 0.000000 0.000000 0.000000
# 3 0.001786 -0.005178 0.019468 0.000000 0.000000 0.000000
# 4 0.000000 0.000000 0.000000 0.024079 0.000000 0.000000
# 5 0.000000 0.000000 0.000000 0.000000 0.068998 0.000000
# 6 0.000000 0.000000 0.000000 0.000000 0.000000 0.028546
#
#
# Mechanical properties :
#
#
# Convention : Reuss Voigt Hill
#
# Bulk Modulus (GPa) = 42.86520 63.33538 53.10029
# Shear Modulus (GPa) = 26.44629 32.95611 29.70120
#
# Velocity S-wave (km/s) = 3.55120 3.96425 3.76340
# Velocity P-wave (km/s) = 6.10370 7.15231 6.64871
#
# Compressibility (1/GPa) = 0.02332895
#
# Stress axis : x y z
#
# Youngs Moduli (GPa) = 81.03867 103.22131 51.36542
#
# Poissons Ratio (x) = 0.58756 -0.09176
# Poissons Ratio (y) = 0.46129 0.26596
# Poissons Ratio (z) = -0.14477 0.53446
#
# Static dielectric constant tensor:
#      x y z
#    x 3.465610 0.000000 0.000000 
#    y 0.000000 3.907730 0.000000 
#    z 0.000000 0.000000 3.449420 
# 
# 
# High freq. dielectric constant tensor:
#      x y z
#    x 1.800180 0.000000 0.000000 
#    y 0.000000 1.839260 0.000000 
#    z 0.000000 0.000000 1.796210 
# 
# From -- ./inp_files/21179.got.cif
#   From: 2010.03.12/outbox.cif.g09.slc.cpg/sg64_11_cif.got.tgz:21179.got - 2010.04.10 20:19:32.
