data_PCOD8263176
_publ_section_title
;
Structure prediction by ZEFSAII (Michael W. Deem and Ramdas Pophale) SiO2 
 PCOD8263176
Probable space group: C M C A
;
_chemical_formula_sum "Si O2"
_cell_formula_units_Z 112
_cell_length_a 20.988641
_cell_length_b 24.761587
_cell_length_c 11.406272
_cell_angle_alpha 90.000000
_cell_angle_beta 90.000000
_cell_angle_gamma 90.000000
_cell_volume 5927.977120
_symmetry_space_group_name_H-M "C M C A"
_symmetry_group_IT_number 64
_symmetry_cell_setting 'orthorhombic'
loop_
_space_group_symop_operation_xyz
x,y,z
-x,1/2-y,1/2+z
x,-y,-z
-x,1/2+y,1/2-z
-x,-y,-z
x,1/2+y,1/2-z
-x,y,z
x,1/2-y,1/2+z
1/2+x,1/2+y,z
1/2-x,-y,1/2+z
1/2+x,1/2-y,-z
1/2-x,y,1/2-z
1/2-x,1/2-y,-z
1/2+x,y,1/2-z
1/2-x,1/2+y,z
1/2+x,-y,1/2+z
loop_
_atom_site_type_symbol
_atom_site_label
_atom_site_fract_x
_atom_site_fract_y
_atom_site_fract_z
Si Si1 0.674586 0.412655 0.010367
Si Si2 0.748344 0.319913 0.115335
Si Si3 0.148200 0.737834 0.019716
Si Si4 0.681611 0.506722 0.192348
Si Si5 0.428194 0.848045 0.839150
Si Si6 0.426455 0.030277 0.121390
Si Si7 0.072732 0.335077 0.567944
O O1 0.733710 0.373053 0.037982
O O2 0.665582 0.457056 0.109102
O O3 0.686307 0.438419 0.882828
O O4 0.610274 0.377518 0.012319
O O5 0.750000 0.337339 0.250000
O O6 0.816809 0.297006 0.079622
O O7 0.696301 0.273551 0.095722
O O8 0.096378 0.774189 0.953445
O O9 0.117192 0.697060 0.110160
O O10 0.750000 0.497106 0.250000
O O11 0.623910 0.508182 0.284572
O O12 0.500000 0.829805 0.865607
O O13 0.414303 0.906098 0.897607
O O14 0.416060 0.852233 0.701242
O O15 0.500000 0.020597 0.163526
O O16 0.413077 0.000000 0.000000
O O17 0.000000 0.338784 0.529520
#
# Coordination Sequence:
#
# PCOD8263176 Si02
#       7
#    16  16  16  16  16  16  16
#     4  10  23  38  57  90 117 161 204 242 321 363
#     4  10  21  37  55  83 121 156 197 250 300 363
#     4  10  21  35  59  85 114 159 201 240 302 364
#     4  11  24  39  61  90 123 159 210 261 306 370
#     4  10  20  36  58  84 115 153 193 245 300 353
#     4  10  23  42  63  88 119 161 208 254 314 376
#     4  10  20  38  61  88 120 153 200 252 297 368
#
# _framework density 18.893460000000001
#
# number of rings (size 3 to 8) (size 9 to 14) (size 15 to 20)
#    0.000    1.857    1.429    1.714    4.000    1.714 
#    0.000    1.429    0.000    4.286    0.000    0.000 
#    0.000    0.000    0.000    0.000    0.000    0.000 
#
# Total GULP energy -694525.352887 kJ/mol
# GULP energy per Si atom -12402.238444 kJ/mol
# Density = 1.885046 g / cm^3
# Si number density = 18.893460 Si / 1000 Ang^3
#
#
#
# Elastic Constant Matrix: (Units=GPa)
#
#
# Indices 1 2 3 4 5 6 
#
# 1 107.1636 49.4908 54.6958 0.0000 0.0000 0.0000
# 2 49.4908 108.0286 41.6578 0.0000 0.0000 0.0000
# 3 54.6958 41.6578 88.4789 0.0000 0.0000 0.0000
# 4 0.0000 0.0000 0.0000 25.4245 0.0000 0.0000
# 5 0.0000 0.0000 0.0000 0.0000 31.9071 0.0000
# 6 0.0000 0.0000 0.0000 0.0000 0.0000 19.9383
#
#
#
# Elastic Compliance Matrix: (Units=1/GPa)
#
#
# Indices 1 2 3 4 5 6 
#
# 1 0.014930 -0.004009 -0.007342 0.000000 0.000000 0.000000
# 2 -0.004009 0.012387 -0.003354 0.000000 0.000000 0.000000
# 3 -0.007342 -0.003354 0.017420 0.000000 0.000000 0.000000
# 4 0.000000 0.000000 0.000000 0.039332 0.000000 0.000000
# 5 0.000000 0.000000 0.000000 0.000000 0.031341 0.000000
# 6 0.000000 0.000000 0.000000 0.000000 0.000000 0.050155
#
#
# Mechanical properties :
#
#
# Convention : Reuss Voigt Hill
#
# Bulk Modulus (GPa) = 65.24237 66.15111 65.69674
# Shear Modulus (GPa) = 24.98962 25.97577 25.48269
#
# Velocity S-wave (km/s) = 3.64078 3.71193 3.67653
# Velocity P-wave (km/s) = 7.23052 7.31163 7.27119
#
# Compressibility (1/GPa) = 0.01532746
#
# Stress axis : x y z
#
# Youngs Moduli (GPa) = 66.97806 80.73258 57.40538
#
# Poissons Ratio (x) = 0.32363 0.42148
# Poissons Ratio (y) = 0.26849 0.19253
# Poissons Ratio (z) = 0.49177 0.27076
#
# Static dielectric constant tensor:
#      x y z
#    x 3.601650 0.000000 0.000000 
#    y 0.000000 3.615930 0.000000 
#    z 0.000000 0.000000 3.352590 
# 
# 
# High freq. dielectric constant tensor:
#      x y z
#    x 1.739130 0.000000 0.000000 
#    y 0.000000 1.747870 0.000000 
#    z 0.000000 0.000000 1.729600 
# 
# From -- ./inp_files/17550.got.cif
#   From: 2010.03.12/outbox.cif.g09.slc.cpg/sg64_9_cif.got.tgz:17550.got - 2010.04.10 20:19:32.
