data_PCOD8263756
_publ_section_title
;
Structure prediction by ZEFSAII (Michael W. Deem and Ramdas Pophale) SiO2 
 PCOD8263756
Probable space group: C M C A
;
_chemical_formula_sum "Si O2"
_cell_formula_units_Z 72
_cell_length_a 21.820231
_cell_length_b 10.169577
_cell_length_c 15.407867
_cell_angle_alpha 90.000000
_cell_angle_beta 90.000000
_cell_angle_gamma 90.000000
_cell_volume 3419.044505
_symmetry_space_group_name_H-M "C M C A"
_symmetry_group_IT_number 64
_symmetry_cell_setting 'orthorhombic'
loop_
_space_group_symop_operation_xyz
x,y,z
-x,1/2-y,1/2+z
x,-y,-z
-x,1/2+y,1/2-z
-x,-y,-z
x,1/2+y,1/2-z
-x,y,z
x,1/2-y,1/2+z
1/2+x,1/2+y,z
1/2-x,-y,1/2+z
1/2+x,1/2-y,-z
1/2-x,y,1/2-z
1/2-x,1/2-y,-z
1/2+x,y,1/2-z
1/2-x,1/2+y,z
1/2+x,-y,1/2+z
loop_
_atom_site_type_symbol
_atom_site_label
_atom_site_fract_x
_atom_site_fract_y
_atom_site_fract_z
Si Si1 0.933967 0.029248 0.596924
Si Si2 0.635209 0.794692 0.827570
Si Si3 0.167226 0.476323 0.400264
Si Si4 0.070842 0.192485 0.155915
Si Si5 0.750000 0.080762 0.250000
O O1 0.881603 0.930193 0.625973
O O2 0.000000 0.015851 0.647966
O O3 0.949743 0.000000 0.500000
O O4 0.909330 0.177674 0.603549
O O5 0.640513 0.671449 0.892567
O O6 0.583028 0.769620 0.755967
O O7 0.700095 0.817934 0.783790
O O8 0.189660 0.500000 0.500000
O O9 0.111442 0.572504 0.377782
O O10 0.222456 0.494328 0.330226
O O11 0.000000 0.155067 0.141586
#
# Coordination Sequence:
#
# PCOD8263756 Si02
#       5
#    16  16  16  16   8
#     4  10  21  37  58  86 119 154 191 233 291 361
#     4  11  22  38  61  85 116 158 203 249 301 360
#     4  11  24  41  64  93 122 158 210 266 311 360
#     4  10  21  38  60  88 124 161 197 244 303 364
#     4  10  24  42  60  86 122 160 204 254 314 378
#
# _framework density 21.058515
#
# number of rings (size 3 to 8) (size 9 to 14) (size 15 to 20)
#    0.000    1.556    0.000    5.333    0.000    7.556 
#    0.000    0.000    0.000    0.000    0.000    0.000 
#    0.000    0.000    0.000    0.000    0.000    0.000 
#
# Total GULP energy -446207.840204 kJ/mol
# GULP energy per Si atom -12394.662228 kJ/mol
# Density = 2.101059 g / cm^3
# Si number density = 21.058515 Si / 1000 Ang^3
#
#
#
# Elastic Constant Matrix: (Units=GPa)
#
#
# Indices 1 2 3 4 5 6 
#
# 1 98.3296 63.2106 44.4702 0.0000 0.0000 0.0000
# 2 63.2106 108.4436 18.0399 0.0000 0.0000 0.0000
# 3 44.4702 18.0399 102.2575 0.0000 0.0000 0.0000
# 4 0.0000 0.0000 0.0000 34.4470 0.0000 0.0000
# 5 0.0000 0.0000 0.0000 0.0000 19.6851 0.0000
# 6 0.0000 0.0000 0.0000 0.0000 0.0000 27.6137
#
#
#
# Elastic Compliance Matrix: (Units=1/GPa)
#
#
# Indices 1 2 3 4 5 6 
#
# 1 0.020052 -0.010547 -0.006860 0.000000 0.000000 0.000000
# 2 -0.010547 0.015048 0.001932 0.000000 0.000000 0.000000
# 3 -0.006860 0.001932 0.012422 0.000000 0.000000 0.000000
# 4 0.000000 0.000000 0.000000 0.029030 0.000000 0.000000
# 5 0.000000 0.000000 0.000000 0.000000 0.050800 0.000000
# 6 0.000000 0.000000 0.000000 0.000000 0.000000 0.036214
#
#
# Mechanical properties :
#
#
# Convention : Reuss Voigt Hill
#
# Bulk Modulus (GPa) = 60.34233 62.27468 61.30851
# Shear Modulus (GPa) = 24.99505 28.56983 26.78244
#
# Velocity S-wave (km/s) = 3.44893 3.68732 3.57011
# Velocity P-wave (km/s) = 6.67660 6.91121 6.79492
#
# Compressibility (1/GPa) = 0.01657212
#
# Stress axis : x y z
#
# Youngs Moduli (GPa) = 49.86912 66.45481 80.50494
#
# Poissons Ratio (x) = 0.70091 0.55225
# Poissons Ratio (y) = 0.52598 -0.15555
# Poissons Ratio (z) = 0.34209 -0.12840
#
# Static dielectric constant tensor:
#      x y z
#    x 3.896720 0.000000 0.000000 
#    y 0.000000 3.631700 0.000000 
#    z 0.000000 0.000000 4.394030 
# 
# 
# High freq. dielectric constant tensor:
#      x y z
#    x 1.828760 0.000000 0.000000 
#    y 0.000000 1.834630 0.000000 
#    z 0.000000 0.000000 1.819150 
# 
# From -- ./inp_files/34834.got.cif
#   From: 2010.03.12/outbox.cif.g09.slc.cpg/sg64_18_cif.got.tgz:34834.got - 2010.04.10 20:19:32.
