data_PCOD8263171
_publ_section_title
;
Structure prediction by ZEFSAII (Michael W. Deem and Ramdas Pophale) SiO2 
 PCOD8263171
Probable space group: C M C A
;
_chemical_formula_sum "Si O2"
_cell_formula_units_Z 96
_cell_length_a 9.093087
_cell_length_b 26.347192
_cell_length_c 19.052678
_cell_angle_alpha 90.000000
_cell_angle_beta 90.000000
_cell_angle_gamma 90.000000
_cell_volume 4564.589326
_symmetry_space_group_name_H-M "C M C A"
_symmetry_group_IT_number 64
_symmetry_cell_setting 'orthorhombic'
loop_
_space_group_symop_operation_xyz
x,y,z
-x,1/2-y,1/2+z
x,-y,-z
-x,1/2+y,1/2-z
-x,-y,-z
x,1/2+y,1/2-z
-x,y,z
x,1/2-y,1/2+z
1/2+x,1/2+y,z
1/2-x,-y,1/2+z
1/2+x,1/2-y,-z
1/2-x,y,1/2-z
1/2-x,1/2-y,-z
1/2+x,y,1/2-z
1/2-x,1/2+y,z
1/2+x,-y,1/2+z
loop_
_atom_site_type_symbol
_atom_site_label
_atom_site_fract_x
_atom_site_fract_y
_atom_site_fract_z
Si Si1 0.672640 0.546787 0.450133
Si Si2 0.171624 0.711883 0.324737
Si Si3 0.829509 0.647484 0.456355
Si Si4 0.326114 0.495808 0.820761
Si Si5 0.834212 0.890480 0.183295
Si Si6 0.833474 0.703596 0.589524
O O1 0.714483 0.500000 0.500000
O O2 0.500000 0.548593 0.435395
O O3 0.727134 0.600692 0.480357
O O4 0.763403 0.540980 0.379304
O O5 0.250000 0.703982 0.250000
O O6 0.202227 0.663999 0.375843
O O7 0.225384 0.761407 0.366347
O O8 0.000000 0.718943 0.309556
O O9 0.792905 0.696160 0.506988
O O10 0.000000 0.632224 0.466659
O O11 0.500000 0.488860 0.815800
O O12 0.250000 0.477205 0.750000
O O13 0.276053 0.553621 0.837863
O O14 0.750000 0.867530 0.250000
O O15 0.818097 0.853675 0.117836
O O16 0.000000 0.896136 0.209089
O O17 0.000000 0.724290 0.598784
#
# Coordination Sequence:
#
# PCOD8263171 Si02
#       6
#    16  16  16  16  16  16
#     4  11  24  40  60  89 122 157 200 248 298 355
#     4  11  24  41  62  89 120 156 198 241 290 349
#     4  10  23  42  63  87 117 156 199 244 297 354
#     4  10  20  36  58  83 116 157 200 248 301 357
#     4   9  18  31  51  81 114 150 191 237 290 349
#     4  10  20  37  61  88 118 152 194 243 297 355
#
# _framework density 21.031465000000001
#
# number of rings (size 3 to 8) (size 9 to 14) (size 15 to 20)
#    0.000    1.833    0.000    3.500    0.000    8.000 
#    0.000    1.667    0.000    0.000    0.000    0.000 
#    0.000    0.000    0.000    0.000    0.000    0.000 
#
# Total GULP energy -595192.123388 kJ/mol
# GULP energy per Si atom -12399.835904 kJ/mol
# Density = 2.098360 g / cm^3
# Si number density = 21.031465 Si / 1000 Ang^3
#
#
#
# Elastic Constant Matrix: (Units=GPa)
#
#
# Indices 1 2 3 4 5 6 
#
# 1 102.5932 43.0202 55.7030 0.0000 0.0000 0.0000
# 2 43.0202 76.7557 30.6618 0.0000 0.0000 0.0000
# 3 55.7030 30.6618 116.5014 0.0000 0.0000 0.0000
# 4 0.0000 0.0000 0.0000 32.1221 0.0000 0.0000
# 5 0.0000 0.0000 0.0000 0.0000 32.4215 0.0000
# 6 0.0000 0.0000 0.0000 0.0000 0.0000 28.2663
#
#
#
# Elastic Compliance Matrix: (Units=1/GPa)
#
#
# Indices 1 2 3 4 5 6 
#
# 1 0.015564 -0.006426 -0.005750 0.000000 0.000000 0.000000
# 2 -0.006426 0.017212 -0.001457 0.000000 0.000000 0.000000
# 3 -0.005750 -0.001457 0.011717 0.000000 0.000000 0.000000
# 4 0.000000 0.000000 0.000000 0.031131 0.000000 0.000000
# 5 0.000000 0.000000 0.000000 0.000000 0.030844 0.000000
# 6 0.000000 0.000000 0.000000 0.000000 0.000000 0.035378
#
#
# Mechanical properties :
#
#
# Convention : Reuss Voigt Hill
#
# Bulk Modulus (GPa) = 58.05573 61.62448 59.84011
# Shear Modulus (GPa) = 28.59498 29.65966 29.12732
#
# Velocity S-wave (km/s) = 3.69131 3.75941 3.72552
# Velocity P-wave (km/s) = 6.76993 6.94326 6.85714
#
# Compressibility (1/GPa) = 0.01722483
#
# Stress axis : x y z
#
# Youngs Moduli (GPa) = 64.25017 58.09763 85.34880
#
# Poissons Ratio (x) = 0.37335 0.49079
# Poissons Ratio (y) = 0.41289 0.12439
# Poissons Ratio (z) = 0.36946 0.08468
#
# Static dielectric constant tensor:
#      x y z
#    x 3.775640 0.000000 0.000000 
#    y 0.000000 3.660270 0.000000 
#    z 0.000000 0.000000 3.920610 
# 
# 
# High freq. dielectric constant tensor:
#      x y z
#    x 1.821970 0.000000 0.000000 
#    y 0.000000 1.819020 0.000000 
#    z 0.000000 0.000000 1.833560 
# 
# From -- ./inp_files/36998.got.cif
#   From: 2010.03.12/outbox.cif.g09.slc.cpg/sg64_19_cif.got.tgz:36998.got - 2010.04.10 20:19:32.
