data_PCOD8263215
_publ_section_title
;
Structure prediction by ZEFSAII (Michael W. Deem and Ramdas Pophale) SiO2 
 PCOD8263215
Probable space group: C M C A
;
_chemical_formula_sum "Si O2"
_cell_formula_units_Z 80
_cell_length_a 13.828461
_cell_length_b 27.636457
_cell_length_c 10.712737
_cell_angle_alpha 90.000000
_cell_angle_beta 90.000000
_cell_angle_gamma 90.000000
_cell_volume 4094.083141
_symmetry_space_group_name_H-M "C M C A"
_symmetry_group_IT_number 64
_symmetry_cell_setting 'orthorhombic'
loop_
_space_group_symop_operation_xyz
x,y,z
-x,1/2-y,1/2+z
x,-y,-z
-x,1/2+y,1/2-z
-x,-y,-z
x,1/2+y,1/2-z
-x,y,z
x,1/2-y,1/2+z
1/2+x,1/2+y,z
1/2-x,-y,1/2+z
1/2+x,1/2-y,-z
1/2-x,y,1/2-z
1/2-x,1/2-y,-z
1/2+x,y,1/2-z
1/2-x,1/2+y,z
1/2+x,-y,1/2+z
loop_
_atom_site_type_symbol
_atom_site_label
_atom_site_fract_x
_atom_site_fract_y
_atom_site_fract_z
Si Si1 0.807238 0.735476 0.377191
Si Si2 0.386064 0.852925 0.490978
Si Si3 0.389204 0.566567 0.665106
Si Si4 0.690200 0.048636 0.563765
Si Si5 0.108212 0.828743 0.274827
O O1 0.750000 0.726047 0.250000
O O2 0.750000 0.750000 0.500000
O O3 0.865959 0.686130 0.401230
O O4 0.876397 0.780804 0.353740
O O5 0.500000 0.862885 0.484249
O O6 0.333473 0.904176 0.521042
O O7 0.337323 0.832222 0.360036
O O8 0.500000 0.551254 0.629053
O O9 0.370141 0.554622 0.809326
O O10 0.306383 0.541412 0.582234
O O11 0.372141 0.623884 0.641862
O O12 0.651280 0.000000 0.500000
O O13 0.000000 0.828988 0.227709
#
# Coordination Sequence:
#
# PCOD8263215 Si02
#       5
#    16  16  16  16  16
#     4  12  22  35  56  85 121 159 193 241 296 358
#     4  10  21  38  59  85 116 153 201 248 295 362
#     4   9  19  35  58  86 112 147 199 250 297 362
#     4  10  20  36  60  83 112 153 199 252 304 356
#     4   9  18  35  58  82 110 147 195 237 286 358
#
# _framework density 19.540396000000001
#
# number of rings (size 3 to 8) (size 9 to 14) (size 15 to 20)
#    0.000    2.000    2.000    3.600    2.800    2.000 
#    3.600    0.000    0.000    1.200    0.000    0.000 
#    0.000    0.000    0.000    0.000    0.000    0.000 
#
# Total GULP energy -495575.068445 kJ/mol
# GULP energy per Si atom -12389.376711 kJ/mol
# Density = 1.949592 g / cm^3
# Si number density = 19.540396 Si / 1000 Ang^3
#
#
#
# Elastic Constant Matrix: (Units=GPa)
#
#
# Indices 1 2 3 4 5 6 
#
# 1 59.7920 19.6184 15.7419 0.0000 0.0000 0.0000
# 2 19.6184 152.5374 46.4825 0.0000 0.0000 0.0000
# 3 15.7419 46.4825 65.4388 0.0000 0.0000 0.0000
# 4 0.0000 0.0000 0.0000 29.0777 0.0000 0.0000
# 5 0.0000 0.0000 0.0000 0.0000 22.1581 0.0000
# 6 0.0000 0.0000 0.0000 0.0000 0.0000 24.0829
#
#
#
# Elastic Compliance Matrix: (Units=1/GPa)
#
#
# Indices 1 2 3 4 5 6 
#
# 1 0.018047 -0.001274 -0.003437 0.000000 0.000000 0.000000
# 2 -0.001274 0.008457 -0.005701 0.000000 0.000000 0.000000
# 3 -0.003437 -0.005701 0.020157 0.000000 0.000000 0.000000
# 4 0.000000 0.000000 0.000000 0.034391 0.000000 0.000000
# 5 0.000000 0.000000 0.000000 0.000000 0.045130 0.000000
# 6 0.000000 0.000000 0.000000 0.000000 0.000000 0.041523
#
#
# Mechanical properties :
#
#
# Convention : Reuss Voigt Hill
#
# Bulk Modulus (GPa) = 38.70055 49.05041 43.87548
# Shear Modulus (GPa) = 25.36261 28.12545 26.74403
#
# Velocity S-wave (km/s) = 3.60663 3.79799 3.70355
# Velocity P-wave (km/s) = 6.09853 6.66255 6.38677
#
# Compressibility (1/GPa) = 0.02583943
#
# Stress axis : x y z
#
# Youngs Moduli (GPa) = 55.40965 118.24904 49.60967
#
# Poissons Ratio (x) = 0.15064 0.17049
# Poissons Ratio (y) = 0.07059 0.28280
# Poissons Ratio (z) = 0.19042 0.67408
#
# Static dielectric constant tensor:
#      x y z
#    x 3.575030 0.000000 0.000000 
#    y 0.000000 -2.063750 0.000000 
#    z 0.000000 0.000000 7.434540 
# 
# 
# High freq. dielectric constant tensor:
#      x y z
#    x 1.769340 0.000000 0.000000 
#    y 0.000000 1.764340 0.000000 
#    z 0.000000 0.000000 1.724660 
# 
# From -- ./inp_files/14451.got.cif
#   From: 2010.03.12/outbox.cif.g09.slc.cpg/sg64_8_cif.got.tgz:14451.got - 2010.04.10 20:19:32.
