data_PCOD8263487
_publ_section_title
;
Structure prediction by ZEFSAII (Michael W. Deem and Ramdas Pophale) SiO2 
 PCOD8263487
Probable space group: C M C A
;
_chemical_formula_sum "Si O2"
_cell_formula_units_Z 80
_cell_length_a 9.286944
_cell_length_b 24.733727
_cell_length_c 18.429320
_cell_angle_alpha 90.000000
_cell_angle_beta 90.000000
_cell_angle_gamma 90.000000
_cell_volume 4233.228397
_symmetry_space_group_name_H-M "C M C A"
_symmetry_group_IT_number 64
_symmetry_cell_setting 'orthorhombic'
loop_
_space_group_symop_operation_xyz
x,y,z
-x,1/2-y,1/2+z
x,-y,-z
-x,1/2+y,1/2-z
-x,-y,-z
x,1/2+y,1/2-z
-x,y,z
x,1/2-y,1/2+z
1/2+x,1/2+y,z
1/2-x,-y,1/2+z
1/2+x,1/2-y,-z
1/2-x,y,1/2-z
1/2-x,1/2-y,-z
1/2+x,y,1/2-z
1/2-x,1/2+y,z
1/2+x,-y,1/2+z
loop_
_atom_site_type_symbol
_atom_site_label
_atom_site_fract_x
_atom_site_fract_y
_atom_site_fract_z
Si Si1 0.165349 0.935487 0.676243
Si Si2 0.334217 0.733274 0.824217
Si Si3 0.667583 0.858918 0.437998
Si Si4 0.333599 0.968219 0.071909
Si Si5 0.330204 0.334327 0.580735
O O1 0.250000 0.929848 0.750000
O O2 0.215467 0.889819 0.619803
O O3 0.000000 0.926322 0.695677
O O4 0.192201 0.994004 0.641399
O O5 0.500000 0.741875 0.804648
O O6 0.250000 0.729033 0.750000
O O7 0.308521 0.678645 0.868550
O O8 0.278674 0.784336 0.870391
O O9 0.500000 0.865878 0.456627
O O10 0.734519 0.916475 0.418018
O O11 0.745967 0.830937 0.505470
O O12 0.500000 0.950072 0.065085
O O13 0.286585 0.000000 0.000000
O O14 0.500000 0.332068 0.564243
#
# Coordination Sequence:
#
# PCOD8263487 Si02
#       5
#    16  16  16  16  16
#     4  10  21  36  58  86 114 147 190 236 290 345
#     4  10  23  40  59  85 119 155 195 239 289 346
#     4  11  23  37  58  90 119 149 194 244 290 341
#     4  10  20  39  61  81 111 154 196 233 283 346
#     4  10  20  39  62  84 114 154 195 238 287 347
#
# _framework density 18.898107
#
# number of rings (size 3 to 8) (size 9 to 14) (size 15 to 20)
#    0.000    1.800    2.000    1.800    0.000    5.200 
#    0.000    4.000    0.000    0.000    0.000    0.000 
#    0.000    0.000    0.000    0.000    0.000    0.000 
#
# Total GULP energy -496199.105752 kJ/mol
# GULP energy per Si atom -12404.977644 kJ/mol
# Density = 1.885509 g / cm^3
# Si number density = 18.898107 Si / 1000 Ang^3
#
#
#
# Elastic Constant Matrix: (Units=GPa)
#
#
# Indices 1 2 3 4 5 6 
#
# 1 72.6434 53.0692 44.6403 0.0000 0.0000 0.0000
# 2 53.0692 120.5869 39.3616 0.0000 0.0000 0.0000
# 3 44.6403 39.3616 63.5796 0.0000 0.0000 0.0000
# 4 0.0000 0.0000 0.0000 22.3153 0.0000 0.0000
# 5 0.0000 0.0000 0.0000 0.0000 38.7286 0.0000
# 6 0.0000 0.0000 0.0000 0.0000 0.0000 31.3756
#
#
#
# Elastic Compliance Matrix: (Units=1/GPa)
#
#
# Indices 1 2 3 4 5 6 
#
# 1 0.028920 -0.007644 -0.015573 0.000000 0.000000 0.000000
# 2 -0.007644 0.012414 -0.002318 0.000000 0.000000 0.000000
# 3 -0.015573 -0.002318 0.028097 0.000000 0.000000 0.000000
# 4 0.000000 0.000000 0.000000 0.044812 0.000000 0.000000
# 5 0.000000 0.000000 0.000000 0.000000 0.025821 0.000000
# 6 0.000000 0.000000 0.000000 0.000000 0.000000 0.031872
#
#
# Mechanical properties :
#
#
# Convention : Reuss Voigt Hill
#
# Bulk Modulus (GPa) = 54.46360 58.99467 56.72913
# Shear Modulus (GPa) = 21.82207 26.46647 24.14427
#
# Velocity S-wave (km/s) = 3.40181 3.74636 3.57823
# Velocity P-wave (km/s) = 6.65672 7.07097 6.86697
#
# Compressibility (1/GPa) = 0.01836089
#
# Stress axis : x y z
#
# Youngs Moduli (GPa) = 34.57822 80.55711 35.59070
#
# Poissons Ratio (x) = 0.61579 0.55424
# Poissons Ratio (y) = 0.26432 0.08250
# Poissons Ratio (z) = 0.53848 0.18673
#
# Static dielectric constant tensor:
#      x y z
#    x 3.406150 0.000000 0.000000 
#    y 0.000000 3.643100 0.000000 
#    z 0.000000 0.000000 3.376140 
# 
# 
# High freq. dielectric constant tensor:
#      x y z
#    x 1.728830 0.000000 0.000000 
#    y 0.000000 1.749190 0.000000 
#    z 0.000000 0.000000 1.738610 
# 
# From -- ./inp_files/22305.got.cif
#   From: 2010.03.12/outbox.cif.g09.slc.cpg/sg64_12_cif.got.tgz:22305.got - 2010.04.10 20:19:32.
