data_PCOD8263085
_publ_section_title
;
Structure prediction by ZEFSAII (Michael W. Deem and Ramdas Pophale) SiO2 
 PCOD8263085
Probable space group: C M C A
;
_chemical_formula_sum "Si O2"
_cell_formula_units_Z 96
_cell_length_a 16.032025
_cell_length_b 20.283585
_cell_length_c 13.660078
_cell_angle_alpha 90.000000
_cell_angle_beta 90.000000
_cell_angle_gamma 90.000000
_cell_volume 4442.078990
_symmetry_space_group_name_H-M "C M C A"
_symmetry_group_IT_number 64
_symmetry_cell_setting 'orthorhombic'
loop_
_space_group_symop_operation_xyz
x,y,z
-x,1/2-y,1/2+z
x,-y,-z
-x,1/2+y,1/2-z
-x,-y,-z
x,1/2+y,1/2-z
-x,y,z
x,1/2-y,1/2+z
1/2+x,1/2+y,z
1/2-x,-y,1/2+z
1/2+x,1/2-y,-z
1/2-x,y,1/2-z
1/2-x,1/2-y,-z
1/2+x,y,1/2-z
1/2-x,1/2+y,z
1/2+x,-y,1/2+z
loop_
_atom_site_type_symbol
_atom_site_label
_atom_site_fract_x
_atom_site_fract_y
_atom_site_fract_z
Si Si1 0.816921 0.324805 0.666581
Si Si2 0.907473 0.441738 0.923811
Si Si3 0.905838 0.540963 0.300887
Si Si4 0.903934 0.197202 0.677911
Si Si5 0.175782 0.907604 0.179778
Si Si6 0.279948 0.153601 0.986686
O O1 0.750000 0.318795 0.750000
O O2 0.850844 0.399105 0.657770
O O3 0.890843 0.274816 0.699832
O O4 0.773528 0.301938 0.563270
O O5 0.896697 0.469439 0.815162
O O6 0.000000 0.409507 0.935930
O O7 0.896927 0.500000 0.000000
O O8 0.832883 0.391925 0.940566
O O9 0.879588 0.471014 0.346721
O O10 0.000000 0.556071 0.332285
O O11 0.876036 0.151312 0.768321
O O12 0.847162 0.187638 0.582642
O O13 0.000000 0.181962 0.654236
O O14 0.250000 0.930973 0.250000
O O15 0.211116 0.883713 0.076938
#
# Coordination Sequence:
#
# PCOD8263085 Si02
#       6
#    16  16  16  16  16  16
#     4  12  24  42  65  96 134 173 217 270 327 388
#     4  10  20  35  61  96 129 163 213 268 318 373
#     4  11  23  41  63  95 132 173 213 267 329 386
#     4  11  24  45  67  94 128 171 220 275 325 386
#     4  10  22  41  67  93 129 169 216 267 323 386
#     4  11  23  40  66  94 128 170 222 260 324 384
#
# _framework density 21.611502999999999
#
# number of rings (size 3 to 8) (size 9 to 14) (size 15 to 20)
#    0.000    1.167    1.667    6.000    2.333    1.333 
#    0.000    5.833    0.000    0.000    0.000    0.000 
#    0.000    0.000    0.000    0.000    0.000    0.000 
#
# Total GULP energy -595058.190623 kJ/mol
# GULP energy per Si atom -12397.045638 kJ/mol
# Density = 2.156231 g / cm^3
# Si number density = 21.611503 Si / 1000 Ang^3
#
#
#
# Elastic Constant Matrix: (Units=GPa)
#
#
# Indices 1 2 3 4 5 6 
#
# 1 95.8789 35.2657 32.9359 0.0000 0.0000 0.0000
# 2 35.2657 99.6676 13.2591 0.0000 0.0000 0.0000
# 3 32.9359 13.2591 65.7254 0.0000 0.0000 0.0000
# 4 0.0000 0.0000 0.0000 18.7446 0.0000 0.0000
# 5 0.0000 0.0000 0.0000 0.0000 26.7064 0.0000
# 6 0.0000 0.0000 0.0000 0.0000 0.0000 31.5019
#
#
#
# Elastic Compliance Matrix: (Units=1/GPa)
#
#
# Indices 1 2 3 4 5 6 
#
# 1 0.014099 -0.004160 -0.006226 0.000000 0.000000 0.000000
# 2 -0.004160 0.011538 -0.000243 0.000000 0.000000 0.000000
# 3 -0.006226 -0.000243 0.018384 0.000000 0.000000 0.000000
# 4 0.000000 0.000000 0.000000 0.053349 0.000000 0.000000
# 5 0.000000 0.000000 0.000000 0.000000 0.037444 0.000000
# 6 0.000000 0.000000 0.000000 0.000000 0.000000 0.031744
#
#
# Mechanical properties :
#
#
# Convention : Reuss Voigt Hill
#
# Bulk Modulus (GPa) = 43.93234 47.13261 45.53248
# Shear Modulus (GPa) = 25.58823 27.37799 26.48311
#
# Velocity S-wave (km/s) = 3.44468 3.56311 3.50439
# Velocity P-wave (km/s) = 6.01610 6.22768 6.12280
#
# Compressibility (1/GPa) = 0.02276228
#
# Stress axis : x y z
#
# Youngs Moduli (GPa) = 70.92841 86.67219 54.39628
#
# Poissons Ratio (x) = 0.36059 0.33866
# Poissons Ratio (y) = 0.29509 0.01320
# Poissons Ratio (z) = 0.44158 0.02104
#
# Static dielectric constant tensor:
#      x y z
#    x 4.096690 0.000000 0.000000 
#    y 0.000000 4.107860 0.000000 
#    z 0.000000 0.000000 3.857360 
# 
# 
# High freq. dielectric constant tensor:
#      x y z
#    x 1.859050 0.000000 0.000000 
#    y 0.000000 1.846850 0.000000 
#    z 0.000000 0.000000 1.846780 
# 
# From -- ./inp_files/23878.got.cif
#   From: 2010.03.12/outbox.cif.g09.slc.cpg/sg64_12_cif.got.tgz:23878.got - 2010.04.10 20:19:32.
