data_PCOD8263150
_publ_section_title
;
Structure prediction by ZEFSAII (Michael W. Deem and Ramdas Pophale) SiO2 
 PCOD8263150
Probable space group: C M C A
;
_chemical_formula_sum "Si O2"
_cell_formula_units_Z 112
_cell_length_a 14.329421
_cell_length_b 13.986713
_cell_length_c 28.408257
_cell_angle_alpha 90.000000
_cell_angle_beta 90.000000
_cell_angle_gamma 90.000000
_cell_volume 5693.625451
_symmetry_space_group_name_H-M "C M C A"
_symmetry_group_IT_number 64
_symmetry_cell_setting 'orthorhombic'
loop_
_space_group_symop_operation_xyz
x,y,z
-x,1/2-y,1/2+z
x,-y,-z
-x,1/2+y,1/2-z
-x,-y,-z
x,1/2+y,1/2-z
-x,y,z
x,1/2-y,1/2+z
1/2+x,1/2+y,z
1/2-x,-y,1/2+z
1/2+x,1/2-y,-z
1/2-x,y,1/2-z
1/2-x,1/2-y,-z
1/2+x,y,1/2-z
1/2-x,1/2+y,z
1/2+x,-y,1/2+z
loop_
_atom_site_type_symbol
_atom_site_label
_atom_site_fract_x
_atom_site_fract_y
_atom_site_fract_z
Si Si1 0.393207 0.946171 0.456203
Si Si2 0.256009 0.195978 0.852161
Si Si3 0.245928 0.601774 0.305416
Si Si4 0.196157 0.748427 0.548306
Si Si5 0.388590 0.037980 0.647503
Si Si6 0.606478 0.550264 0.454064
Si Si7 0.392237 0.530190 0.646422
O O1 0.500000 0.973569 0.458857
O O2 0.382822 0.832106 0.457945
O O3 0.356422 0.986331 0.406225
O O4 0.341547 0.000000 0.500000
O O5 0.260605 0.288038 0.819457
O O6 0.261683 0.223454 0.907340
O O7 0.160434 0.138858 0.839397
O O8 0.345525 0.130799 0.839727
O O9 0.250000 0.592914 0.250000
O O10 0.151524 0.547742 0.321344
O O11 0.338876 0.556029 0.327776
O O12 0.250000 0.750000 0.500000
O O13 0.153157 0.850437 0.559040
O O14 0.500000 0.047907 0.653899
O O15 0.652755 0.500000 0.500000
O O16 0.500000 0.573516 0.465886
O O17 0.617136 0.480238 0.409824
O O18 0.500000 0.529145 0.662601
#
# Coordination Sequence:
#
# PCOD8263150 Si02
#       7
#    16  16  16  16  16  16  16
#     4   9  19  35  55  83 117 155 196 241 289 351
#     4  10  22  39  60  92 124 158 203 256 305 358
#     4  11  24  42  63  89 121 157 203 258 311 366
#     4  11  21  31  55  85 120 161 200 239 296 361
#     4   9  21  41  64  88 122 160 201 250 305 364
#     4  10  20  36  57  85 122 163 205 247 295 360
#     4  10  22  42  65  90 124 163 203 253 306 366
#
# _framework density 19.671122
#
# number of rings (size 3 to 8) (size 9 to 14) (size 15 to 20)
#    0.000    2.000    1.429    1.286    2.000    6.286 
#    0.000    0.714    0.000    0.000    0.000    0.000 
#    0.000    0.000    0.000    0.000    0.000    0.000 
#
# Total GULP energy -694294.092591 kJ/mol
# GULP energy per Si atom -12398.108796 kJ/mol
# Density = 1.962635 g / cm^3
# Si number density = 19.671122 Si / 1000 Ang^3
#
#
#
# Elastic Constant Matrix: (Units=GPa)
#
#
# Indices 1 2 3 4 5 6 
#
# 1 111.0317 49.2824 32.7558 0.0000 0.0000 0.0000
# 2 49.2824 135.4526 44.2051 0.0000 0.0000 0.0000
# 3 32.7558 44.2051 110.9821 0.0000 0.0000 0.0000
# 4 0.0000 0.0000 0.0000 27.5602 0.0000 0.0000
# 5 0.0000 0.0000 0.0000 0.0000 19.8474 0.0000
# 6 0.0000 0.0000 0.0000 0.0000 0.0000 19.0471
#
#
#
# Elastic Compliance Matrix: (Units=1/GPa)
#
#
# Indices 1 2 3 4 5 6 
#
# 1 0.011084 -0.003408 -0.001914 0.000000 0.000000 0.000000
# 2 -0.003408 0.009534 -0.002791 0.000000 0.000000 0.000000
# 3 -0.001914 -0.002791 0.010687 0.000000 0.000000 0.000000
# 4 0.000000 0.000000 0.000000 0.036284 0.000000 0.000000
# 5 0.000000 0.000000 0.000000 0.000000 0.050384 0.000000
# 6 0.000000 0.000000 0.000000 0.000000 0.000000 0.052501
#
#
# Mechanical properties :
#
#
# Convention : Reuss Voigt Hill
#
# Bulk Modulus (GPa) = 66.32259 67.77257 67.04758
# Shear Modulus (GPa) = 26.07873 28.70582 27.39228
#
# Velocity S-wave (km/s) = 3.64502 3.82421 3.73569
# Velocity P-wave (km/s) = 7.17661 7.35031 7.26398
#
# Compressibility (1/GPa) = 0.01507782
#
# Stress axis : x y z
#
# Youngs Moduli (GPa) = 90.22214 104.89187 93.57003
#
# Poissons Ratio (x) = 0.35748 0.17908
# Poissons Ratio (y) = 0.30748 0.26120
# Poissons Ratio (z) = 0.17267 0.29280
#
# Static dielectric constant tensor:
#      x y z
#    x 3.582130 0.000000 0.000000 
#    y 0.000000 3.950670 0.000000 
#    z 0.000000 0.000000 3.658190 
# 
# 
# High freq. dielectric constant tensor:
#      x y z
#    x 1.761450 0.000000 0.000000 
#    y 0.000000 1.770730 0.000000 
#    z 0.000000 0.000000 1.763780 
# 
# From -- ./inp_files/53261.got.cif
#   From: 2010.03.12/outbox.cif.g09.slc.cpg/sg64_27_cif.got.tgz:53261.got - 2010.04.10 20:19:32.
