data_PCOD8263948
_publ_section_title
;
Structure prediction by ZEFSAII (Michael W. Deem and Ramdas Pophale) SiO2 
 PCOD8263948
Probable space group: C M C A
;
_chemical_formula_sum "Si O2"
_cell_formula_units_Z 80
_cell_length_a 15.791150
_cell_length_b 28.667935
_cell_length_c 8.293334
_cell_angle_alpha 90.000000
_cell_angle_beta 90.000000
_cell_angle_gamma 90.000000
_cell_volume 3754.389497
_symmetry_space_group_name_H-M "C M C A"
_symmetry_group_IT_number 64
_symmetry_cell_setting 'orthorhombic'
loop_
_space_group_symop_operation_xyz
x,y,z
-x,1/2-y,1/2+z
x,-y,-z
-x,1/2+y,1/2-z
-x,-y,-z
x,1/2+y,1/2-z
-x,y,z
x,1/2-y,1/2+z
1/2+x,1/2+y,z
1/2-x,-y,1/2+z
1/2+x,1/2-y,-z
1/2-x,y,1/2-z
1/2-x,1/2-y,-z
1/2+x,y,1/2-z
1/2-x,1/2+y,z
1/2+x,-y,1/2+z
loop_
_atom_site_type_symbol
_atom_site_label
_atom_site_fract_x
_atom_site_fract_y
_atom_site_fract_z
Si Si1 0.904181 0.107250 0.527175
Si Si2 0.248194 0.448974 0.940718
Si Si3 0.339679 0.697208 0.340840
Si Si4 0.904580 0.782232 0.984547
Si Si5 0.166536 0.127440 0.849991
O O1 0.847937 0.061422 0.496349
O O2 0.859649 0.148818 0.428434
O O3 0.906275 0.115423 0.720123
O O4 0.000000 0.099821 0.466399
O O5 0.250000 0.444604 0.750000
O O6 0.273976 0.500000 0.000000
O O7 0.315975 0.414052 0.022979
O O8 0.250000 0.694286 0.250000
O O9 0.409325 0.710854 0.207599
O O10 0.346000 0.737627 0.475346
O O11 0.000000 0.775788 0.049848
O O12 0.860107 0.827490 0.054219
O O13 0.250000 0.139444 0.750000
#
# Coordination Sequence:
#
# PCOD8263948 Si02
#       5
#    16  16  16  16  16
#     4  11  22  39  63  93 128 163 205 259 314 365
#     4  11  23  43  68  92 121 161 207 255 310 375
#     4  12  24  40  60  87 125 169 214 254 304 369
#     4  12  23  37  58  87 123 162 207 258 311 363
#     4  10  21  39  62  89 121 162 206 250 305 371
#
# _framework density 21.308392000000001
#
# number of rings (size 3 to 8) (size 9 to 14) (size 15 to 20)
#    0.000    0.800    0.000   10.800    0.000    0.400 
#    0.000    1.000    0.000    4.200    0.000    0.000 
#    0.000    0.000    0.000    0.000    0.000    0.000 
#
# Total GULP energy -496017.345604 kJ/mol
# GULP energy per Si atom -12400.433640 kJ/mol
# Density = 2.125989 g / cm^3
# Si number density = 21.308392 Si / 1000 Ang^3
#
#
#
# Elastic Constant Matrix: (Units=GPa)
#
#
# Indices 1 2 3 4 5 6 
#
# 1 84.0693 14.5275 -1.0135 0.0000 0.0000 0.0000
# 2 14.5275 60.1148 10.9746 0.0000 0.0000 0.0000
# 3 -1.0135 10.9746 112.9751 0.0000 0.0000 0.0000
# 4 0.0000 0.0000 0.0000 35.5064 0.0000 0.0000
# 5 0.0000 0.0000 0.0000 0.0000 28.5248 0.0000
# 6 0.0000 0.0000 0.0000 0.0000 0.0000 -56.1908
#
#
#
# Elastic Compliance Matrix: (Units=1/GPa)
#
#
# Indices 1 2 3 4 5 6 
#
# 1 0.012432 -0.003079 0.000411 0.000000 0.000000 0.000000
# 2 -0.003079 0.017698 -0.001747 0.000000 0.000000 0.000000
# 3 0.000411 -0.001747 0.009025 0.000000 0.000000 0.000000
# 4 0.000000 0.000000 0.000000 0.028164 0.000000 0.000000
# 5 0.000000 0.000000 0.000000 0.000000 0.035057 0.000000
# 6 0.000000 0.000000 0.000000 0.000000 0.000000 -0.017797
#
#
# Mechanical properties :
#
#
# Convention : Reuss Voigt Hill
#
# Bulk Modulus (GPa) = 32.97740 34.01517 33.49629
# Shear Modulus (GPa) = 48.30064 17.07946 32.69005
#
# Velocity S-wave (km/s) = 4.76620 2.83421 3.92106
# Velocity P-wave (km/s) = 6.76747 5.16801 6.02109
#
# Compressibility (1/GPa) = 0.03032380
#
# Stress axis : x y z
#
# Youngs Moduli (GPa) = 80.43743 56.50387 110.80481
#
# Poissons Ratio (x) = 0.17399 -0.04550
# Poissons Ratio (y) = 0.24769 0.19356
# Poissons Ratio (z) = -0.03303 0.09870
#
# Static dielectric constant tensor:
#      x y z
#    x 3.882470 0.000000 0.000000 
#    y 0.000000 3.794370 0.000000 
#    z 0.000000 0.000000 4.287440 
# 
# 
# High freq. dielectric constant tensor:
#      x y z
#    x 1.831430 0.000000 0.000000 
#    y 0.000000 1.831150 0.000000 
#    z 0.000000 0.000000 1.858310 
# 
# From -- ./inp_files/7030.got.cif
#   From: 2010.03.12/outbox.cif.g09.slc.cpg/sg64_4_cif.got.tgz:7030.got - 2010.04.10 20:19:32.
