data_PCOD8263552
_publ_section_title
;
Structure prediction by ZEFSAII (Michael W. Deem and Ramdas Pophale) SiO2 
 PCOD8263552
Probable space group: C M C A
;
_chemical_formula_sum "Si O2"
_cell_formula_units_Z 80
_cell_length_a 8.906293
_cell_length_b 24.641216
_cell_length_c 18.513504
_cell_angle_alpha 90.000000
_cell_angle_beta 90.000000
_cell_angle_gamma 90.000000
_cell_volume 4063.008570
_symmetry_space_group_name_H-M "C M C A"
_symmetry_group_IT_number 64
_symmetry_cell_setting 'orthorhombic'
loop_
_space_group_symop_operation_xyz
x,y,z
-x,1/2-y,1/2+z
x,-y,-z
-x,1/2+y,1/2-z
-x,-y,-z
x,1/2+y,1/2-z
-x,y,z
x,1/2-y,1/2+z
1/2+x,1/2+y,z
1/2-x,-y,1/2+z
1/2+x,1/2-y,-z
1/2-x,y,1/2-z
1/2-x,1/2-y,-z
1/2+x,y,1/2-z
1/2-x,1/2+y,z
1/2+x,-y,1/2+z
loop_
_atom_site_type_symbol
_atom_site_label
_atom_site_fract_x
_atom_site_fract_y
_atom_site_fract_z
Si Si1 0.176185 0.767793 0.673481
Si Si2 0.177142 0.059176 0.672979
Si Si3 0.328216 0.151087 0.432044
Si Si4 0.674250 0.657829 0.902420
Si Si5 0.675230 0.974998 0.575887
O O1 0.250000 0.778665 0.750000
O O2 0.220334 0.815409 0.619396
O O3 0.229179 0.709956 0.642313
O O4 0.000000 0.768644 0.683629
O O5 0.250000 0.070198 0.750000
O O6 0.224914 0.107092 0.619414
O O7 0.000000 0.058079 0.681765
O O8 0.232789 0.002080 0.640906
O O9 0.500000 0.161880 0.409655
O O10 0.299309 0.170283 0.513624
O O11 0.287347 0.088224 0.423471
O O12 0.500000 0.643596 0.887871
O O13 0.500000 0.986966 0.587938
O O14 0.728793 0.000000 0.500000
#
# Coordination Sequence:
#
# PCOD8263552 Si02
#       5
#    16  16  16  16  16
#     4  11  24  40  61  88 124 163 205 254 304 363
#     4  12  25  39  61  92 126 162 205 256 305 362
#     4  10  21  39  66  92 121 160 201 248 306 368
#     4  10  21  41  65  91 122 160 203 251 309 367
#     4  10  20  40  66  89 121 162 199 246 305 365
#
# _framework density 19.689843
#
# number of rings (size 3 to 8) (size 9 to 14) (size 15 to 20)
#    0.000    1.400    2.000    3.600    0.000    6.000 
#    0.000    0.000    0.000    0.000    0.000    0.000 
#    0.000    0.000    0.000    0.000    0.000    0.000 
#
# Total GULP energy -496274.162896 kJ/mol
# GULP energy per Si atom -12406.854072 kJ/mol
# Density = 1.964503 g / cm^3
# Si number density = 19.689843 Si / 1000 Ang^3
#
#
#
# Elastic Constant Matrix: (Units=GPa)
#
#
# Indices 1 2 3 4 5 6 
#
# 1 81.6054 37.8347 35.6143 0.0000 0.0000 0.0000
# 2 37.8347 71.9521 28.1283 0.0000 0.0000 0.0000
# 3 35.6143 28.1283 90.5805 0.0000 0.0000 0.0000
# 4 0.0000 0.0000 0.0000 30.6455 0.0000 0.0000
# 5 0.0000 0.0000 0.0000 0.0000 31.9148 0.0000
# 6 0.0000 0.0000 0.0000 0.0000 0.0000 31.7015
#
#
#
# Elastic Compliance Matrix: (Units=1/GPa)
#
#
# Indices 1 2 3 4 5 6 
#
# 1 0.017774 -0.007528 -0.004651 0.000000 0.000000 0.000000
# 2 -0.007528 0.019007 -0.002942 0.000000 0.000000 0.000000
# 3 -0.004651 -0.002942 0.013782 0.000000 0.000000 0.000000
# 4 0.000000 0.000000 0.000000 0.032631 0.000000 0.000000
# 5 0.000000 0.000000 0.000000 0.000000 0.031333 0.000000
# 6 0.000000 0.000000 0.000000 0.000000 0.000000 0.031544
#
#
# Mechanical properties :
#
#
# Convention : Reuss Voigt Hill
#
# Bulk Modulus (GPa) = 49.21056 49.69916 49.45486
# Shear Modulus (GPa) = 27.30933 28.35642 27.83288
#
# Velocity S-wave (km/s) = 3.72825 3.79905 3.76382
# Velocity P-wave (km/s) = 6.60154 6.67380 6.63776
#
# Compressibility (1/GPa) = 0.02032084
#
# Stress axis : x y z
#
# Youngs Moduli (GPa) = 56.26214 52.61250 72.55760
#
# Poissons Ratio (x) = 0.39607 0.33744
# Poissons Ratio (y) = 0.42354 0.21349
# Poissons Ratio (z) = 0.26165 0.15481
#
# Static dielectric constant tensor:
#      x y z
#    x 3.525320 0.000000 0.000000 
#    y 0.000000 3.660690 0.000000 
#    z 0.000000 0.000000 3.674190 
# 
# 
# High freq. dielectric constant tensor:
#      x y z
#    x 1.761610 0.000000 0.000000 
#    y 0.000000 1.777630 0.000000 
#    z 0.000000 0.000000 1.777180 
# 
# From -- ./inp_files/29780.got.cif
#   From: 2010.03.12/outbox.cif.g09.slc.cpg/sg64_15_cif.got.tgz:29780.got - 2010.04.10 20:19:32.
