data_PCOD8263567
_publ_section_title
;
Structure prediction by ZEFSAII (Michael W. Deem and Ramdas Pophale) SiO2 
 PCOD8263567
Probable space group: C M C A
;
_chemical_formula_sum "Si O2"
_cell_formula_units_Z 64
_cell_length_a 22.247927
_cell_length_b 8.585958
_cell_length_c 13.197497
_cell_angle_alpha 90.000000
_cell_angle_beta 90.000000
_cell_angle_gamma 90.000000
_cell_volume 2520.982799
_symmetry_space_group_name_H-M "C M C A"
_symmetry_group_IT_number 64
_symmetry_cell_setting 'orthorhombic'
loop_
_space_group_symop_operation_xyz
x,y,z
-x,1/2-y,1/2+z
x,-y,-z
-x,1/2+y,1/2-z
-x,-y,-z
x,1/2+y,1/2-z
-x,y,z
x,1/2-y,1/2+z
1/2+x,1/2+y,z
1/2-x,-y,1/2+z
1/2+x,1/2-y,-z
1/2-x,y,1/2-z
1/2-x,1/2-y,-z
1/2+x,y,1/2-z
1/2-x,1/2+y,z
1/2+x,-y,1/2+z
loop_
_atom_site_type_symbol
_atom_site_label
_atom_site_fract_x
_atom_site_fract_y
_atom_site_fract_z
Si Si1 0.068962 0.297791 0.710754
Si Si2 0.894068 0.479637 0.888378
Si Si3 0.331424 0.993697 0.620665
Si Si4 0.224132 0.303900 0.892610
O O1 0.074008 0.333034 0.831685
O O2 0.103171 0.443633 0.658847
O O3 0.000000 0.300971 0.676152
O O4 0.098125 0.135557 0.677569
O O5 0.823144 0.446286 0.901774
O O6 0.923250 0.500000 0.000000
O O7 0.282955 0.869357 0.665830
O O8 0.332070 0.000000 0.500000
O O9 0.310663 0.162314 0.662938
O O10 0.250000 0.250000 0.000000
#
# Coordination Sequence:
#
# PCOD8263567 Si02
#       4
#    16  16  16  16
#     4  12  28  47  72 110 152 207 270 308 370 471
#     4  12  26  50  78 110 153 200 254 325 391 447
#     4  10  20  40  70 107 152 193 246 320 386 455
#     4  10  20  40  74 112 147 189 248 314 394 472
#
# _framework density 25.386925000000002
#
# number of rings (size 3 to 8) (size 9 to 14) (size 15 to 20)
#    0.000    1.000    0.000    9.000    0.000    3.500 
#    0.000   11.250    0.000    0.000    0.000    0.000 
#    0.000    0.000    0.000    0.000    0.000    0.000 
#
# Total GULP energy -396591.785801 kJ/mol
# GULP energy per Si atom -12393.493306 kJ/mol
# Density = 2.532914 g / cm^3
# Si number density = 25.386925 Si / 1000 Ang^3
#
#
#
# Elastic Constant Matrix: (Units=GPa)
#
#
# Indices 1 2 3 4 5 6 
#
# 1 181.7799 75.8552 34.5508 0.0000 0.0000 0.0000
# 2 75.8552 167.4175 71.2286 0.0000 0.0000 0.0000
# 3 34.5508 71.2286 111.2782 0.0000 0.0000 0.0000
# 4 0.0000 0.0000 0.0000 46.1111 0.0000 0.0000
# 5 0.0000 0.0000 0.0000 0.0000 26.6625 0.0000
# 6 0.0000 0.0000 0.0000 0.0000 0.0000 33.1946
#
#
#
# Elastic Compliance Matrix: (Units=1/GPa)
#
#
# Indices 1 2 3 4 5 6 
#
# 1 0.006787 -0.002994 -0.000191 0.000000 0.000000 0.000000
# 2 -0.002994 0.009529 -0.005170 0.000000 0.000000 0.000000
# 3 -0.000191 -0.005170 0.012355 0.000000 0.000000 0.000000
# 4 0.000000 0.000000 0.000000 0.021687 0.000000 0.000000
# 5 0.000000 0.000000 0.000000 0.000000 0.037506 0.000000
# 6 0.000000 0.000000 0.000000 0.000000 0.000000 0.030125
#
#
# Mechanical properties :
#
#
# Convention : Reuss Voigt Hill
#
# Bulk Modulus (GPa) = 83.60140 91.52721 87.56430
# Shear Modulus (GPa) = 36.05280 39.78304 37.91792
#
# Velocity S-wave (km/s) = 3.77255 3.96292 3.86891
# Velocity P-wave (km/s) = 7.20962 7.55452 7.38408
#
# Compressibility (1/GPa) = 0.01196152
#
# Stress axis : x y z
#
# Youngs Moduli (GPa) = 147.34659 104.94117 80.93843
#
# Poissons Ratio (x) = 0.31417 0.01545
# Poissons Ratio (y) = 0.44112 0.41845
# Poissons Ratio (z) = 0.02813 0.54255
#
# Static dielectric constant tensor:
#      x y z
#    x 4.594310 0.000000 0.000000 
#    y 0.000000 5.097160 0.000000 
#    z 0.000000 0.000000 4.600830 
# 
# 
# High freq. dielectric constant tensor:
#      x y z
#    x 2.005620 0.000000 0.000000 
#    y 0.000000 2.027710 0.000000 
#    z 0.000000 0.000000 2.011500 
# 
# From -- ./inp_files/26935.got.cif
#   From: 2010.03.12/outbox.cif.g09.slc.cpg/sg64_14_cif.got.tgz:26935.got - 2010.04.10 20:19:32.
