data_PCOD8263748
_publ_section_title
;
Structure prediction by ZEFSAII (Michael W. Deem and Ramdas Pophale) SiO2 
 PCOD8263748
Probable space group: C M C A
;
_chemical_formula_sum "Si O2"
_cell_formula_units_Z 112
_cell_length_a 14.338675
_cell_length_b 15.422192
_cell_length_c 25.196307
_cell_angle_alpha 90.000000
_cell_angle_beta 90.000000
_cell_angle_gamma 90.000000
_cell_volume 5571.755085
_symmetry_space_group_name_H-M "C M C A"
_symmetry_group_IT_number 64
_symmetry_cell_setting 'orthorhombic'
loop_
_space_group_symop_operation_xyz
x,y,z
-x,1/2-y,1/2+z
x,-y,-z
-x,1/2+y,1/2-z
-x,-y,-z
x,1/2+y,1/2-z
-x,y,z
x,1/2-y,1/2+z
1/2+x,1/2+y,z
1/2-x,-y,1/2+z
1/2+x,1/2-y,-z
1/2-x,y,1/2-z
1/2-x,1/2-y,-z
1/2+x,y,1/2-z
1/2-x,1/2+y,z
1/2+x,-y,1/2+z
loop_
_atom_site_type_symbol
_atom_site_label
_atom_site_fract_x
_atom_site_fract_y
_atom_site_fract_z
Si Si1 0.262557 0.347575 0.986674
Si Si2 0.608214 0.429646 0.583842
Si Si3 0.893171 0.695064 0.293800
Si Si4 0.812777 0.378447 0.200948
Si Si5 0.611102 0.906952 0.603824
Si Si6 0.243617 0.564865 0.596354
Si Si7 0.392674 0.572284 0.297477
O O1 0.165779 0.376221 0.959541
O O2 0.352224 0.362772 0.949888
O O3 0.250000 0.250000 0.000000
O O4 0.287419 0.393834 0.041487
O O5 0.500000 0.435455 0.566604
O O6 0.653466 0.524910 0.586281
O O7 0.619888 0.389304 0.642980
O O8 0.885795 0.799269 0.296272
O O9 0.854629 0.653515 0.347972
O O10 0.847290 0.643290 0.243166
O O11 0.000000 0.671828 0.289636
O O12 0.750000 0.355248 0.250000
O O13 0.754997 0.369395 0.145688
O O14 0.850562 0.475801 0.207917
O O15 0.500000 0.920174 0.600622
O O16 0.663001 0.997759 0.612553
O O17 0.500000 0.557963 0.284531
#
# Coordination Sequence:
#
# PCOD8263748 Si02
#       7
#    16  16  16  16  16  16  16
#     4  11  23  37  54  82 119 148 185 240 288 343
#     4   9  19  37  60  82 108 146 187 228 280 336
#     4  10  21  37  58  84 113 148 191 239 289 343
#     4  11  22  35  57  86 114 148 186 230 291 353
#     4  10  21  39  61  81 109 154 199 239 290 348
#     4  10  22  38  57  84 112 145 190 238 284 337
#     4   9  19  37  58  81 112 148 189 237 283 338
#
# _framework density 20.101386999999999
#
# number of rings (size 3 to 8) (size 9 to 14) (size 15 to 20)
#    0.000    2.000    0.000    3.857    0.000    8.571 
#    0.000    0.714    0.000    0.000    0.000    0.000 
#    0.000    0.000    0.000    0.000    0.000    0.000 
#
# Total GULP energy -693885.183785 kJ/mol
# GULP energy per Si atom -12390.806853 kJ/mol
# Density = 2.005564 g / cm^3
# Si number density = 20.101387 Si / 1000 Ang^3
#
#
#
# Elastic Constant Matrix: (Units=GPa)
#
#
# Indices 1 2 3 4 5 6 
#
# 1 80.3639 13.3642 19.5287 0.0000 0.0000 0.0000
# 2 13.3642 104.0308 43.0864 0.0000 0.0000 0.0000
# 3 19.5287 43.0864 139.9314 0.0000 0.0000 0.0000
# 4 0.0000 0.0000 0.0000 -13.0776 0.0000 0.0000
# 5 0.0000 0.0000 0.0000 0.0000 27.8087 0.0000
# 6 0.0000 0.0000 0.0000 0.0000 0.0000 20.7398
#
#
#
# Elastic Compliance Matrix: (Units=1/GPa)
#
#
# Indices 1 2 3 4 5 6 
#
# 1 0.012980 -0.001051 -0.001488 0.000000 0.000000 0.000000
# 2 -0.001051 0.011103 -0.003272 0.000000 0.000000 0.000000
# 3 -0.001488 -0.003272 0.008361 0.000000 0.000000 0.000000
# 4 0.000000 0.000000 0.000000 -0.076467 0.000000 0.000000
# 5 0.000000 0.000000 0.000000 0.000000 0.035960 0.000000
# 6 0.000000 0.000000 0.000000 0.000000 0.000000 0.048217
#
#
# Mechanical properties :
#
#
# Convention : Reuss Voigt Hill
#
# Bulk Modulus (GPa) = 48.02603 52.92053 50.47328
# Shear Modulus (GPa) = 85.15516 23.65063 54.40289
#
# Velocity S-wave (km/s) = 6.51573 3.43383 5.20797
# Velocity P-wave (km/s) = 8.97497 6.48888 7.83121
#
# Compressibility (1/GPa) = 0.02082204
#
# Stress axis : x y z
#
# Youngs Moduli (GPa) = 77.04314 90.06794 119.59634
#
# Poissons Ratio (x) = 0.09468 0.17793
# Poissons Ratio (y) = 0.08099 0.39131
# Poissons Ratio (z) = 0.11462 0.29470
#
# Static dielectric constant tensor:
#      x y z
#    x 3.347570 0.000000 0.000000 
#    y 0.000000 3.505060 0.000000 
#    z 0.000000 0.000000 3.526970 
# 
# 
# High freq. dielectric constant tensor:
#      x y z
#    x 1.778230 0.000000 0.000000 
#    y 0.000000 1.773480 0.000000 
#    z 0.000000 0.000000 1.808240 
# 
# From -- ./inp_files/45260.got.cif
#   From: 2010.03.12/outbox.cif.g09.slc.cpg/sg64_23_cif.got.tgz:45260.got - 2010.04.10 20:19:32.
