data_PCOD8263103
_publ_section_title
;
Structure prediction by ZEFSAII (Michael W. Deem and Ramdas Pophale) SiO2 
 PCOD8263103
Probable space group: C M C A
;
_chemical_formula_sum "Si O2"
_cell_formula_units_Z 96
_cell_length_a 27.144590
_cell_length_b 19.856616
_cell_length_c 9.568118
_cell_angle_alpha 90.000000
_cell_angle_beta 90.000000
_cell_angle_gamma 90.000000
_cell_volume 5157.212733
_symmetry_space_group_name_H-M "C M C A"
_symmetry_group_IT_number 64
_symmetry_cell_setting 'orthorhombic'
loop_
_space_group_symop_operation_xyz
x,y,z
-x,1/2-y,1/2+z
x,-y,-z
-x,1/2+y,1/2-z
-x,-y,-z
x,1/2+y,1/2-z
-x,y,z
x,1/2-y,1/2+z
1/2+x,1/2+y,z
1/2-x,-y,1/2+z
1/2+x,1/2-y,-z
1/2-x,y,1/2-z
1/2-x,1/2-y,-z
1/2+x,y,1/2-z
1/2-x,1/2+y,z
1/2+x,-y,1/2+z
loop_
_atom_site_type_symbol
_atom_site_label
_atom_site_fract_x
_atom_site_fract_y
_atom_site_fract_z
Si Si1 0.341716 0.115141 0.247900
Si Si2 0.703531 0.019923 0.658174
Si Si3 0.714914 0.265896 0.627014
Si Si4 0.555367 0.330370 0.700560
Si Si5 0.350199 0.852870 0.438251
Si Si6 0.053963 0.291218 0.492417
O O1 0.307595 0.158120 0.139849
O O2 0.399775 0.115499 0.204200
O O3 0.332220 0.146204 0.401104
O O4 0.323604 0.038412 0.253897
O O5 0.750000 0.042873 0.750000
O O6 0.665975 0.082100 0.648759
O O7 0.719276 0.000000 0.500000
O O8 0.750000 0.246676 0.750000
O O9 0.750000 0.250000 0.500000
O O10 0.669192 0.215184 0.631587
O O11 0.500000 0.363736 0.691525
O O12 0.564762 0.282763 0.567906
O O13 0.558641 0.284899 0.840182
O O14 0.409368 0.848218 0.433221
O O15 0.000000 0.315998 0.446522
#
# Coordination Sequence:
#
# PCOD8263103 Si02
#       6
#    16  16  16  16  16  16
#     4  10  20  36  55  79 109 142 178 225 271 318
#     4  10  22  39  56  73 110 150 183 220 269 325
#     4  12  22  33  53  82 109 140 181 232 270 315
#     4   9  17  31  52  79 106 135 172 219 273 322
#     4  10  20  36  54  80 106 143 181 220 272 321
#     4   9  17  31  52  78 106 133 171 222 272 320
#
# _framework density 18.614706999999999
#
# number of rings (size 3 to 8) (size 9 to 14) (size 15 to 20)
#    0.000    2.000    3.333    1.000    2.333    0.000 
#    0.000    0.833    0.000    5.000    0.000    0.000 
#    0.000    6.667    0.000    0.000    0.000    0.000 
#
# Total GULP energy -594804.799499 kJ/mol
# GULP energy per Si atom -12391.766656 kJ/mol
# Density = 1.857234 g / cm^3
# Si number density = 18.614707 Si / 1000 Ang^3
#
#
#
# Elastic Constant Matrix: (Units=GPa)
#
#
# Indices 1 2 3 4 5 6 
#
# 1 112.8611 35.3240 34.1426 0.0000 0.0000 0.0000
# 2 35.3240 83.9429 18.7174 0.0000 0.0000 0.0000
# 3 34.1426 18.7174 52.8224 0.0000 0.0000 0.0000
# 4 0.0000 0.0000 0.0000 26.9729 0.0000 0.0000
# 5 0.0000 0.0000 0.0000 0.0000 27.4689 0.0000
# 6 0.0000 0.0000 0.0000 0.0000 0.0000 27.2870
#
#
#
# Elastic Compliance Matrix: (Units=1/GPa)
#
#
# Indices 1 2 3 4 5 6 
#
# 1 0.011931 -0.003584 -0.006442 0.000000 0.000000 0.000000
# 2 -0.003584 0.014012 -0.002648 0.000000 0.000000 0.000000
# 3 -0.006442 -0.002648 0.024033 0.000000 0.000000 0.000000
# 4 0.000000 0.000000 0.000000 0.037074 0.000000 0.000000
# 5 0.000000 0.000000 0.000000 0.000000 0.036405 0.000000
# 6 0.000000 0.000000 0.000000 0.000000 0.000000 0.036647
#
#
# Mechanical properties :
#
#
# Convention : Reuss Voigt Hill
#
# Bulk Modulus (GPa) = 40.60472 47.33271 43.96872
# Shear Modulus (GPa) = 25.81839 27.10859 26.46349
#
# Velocity S-wave (km/s) = 3.72827 3.82029 3.77456
# Velocity P-wave (km/s) = 6.35562 6.70390 6.53208
#
# Compressibility (1/GPa) = 0.02462768
#
# Stress axis : x y z
#
# Youngs Moduli (GPa) = 83.81495 71.36908 41.60863
#
# Poissons Ratio (x) = 0.25581 0.26803
# Poissons Ratio (y) = 0.30042 0.11019
# Poissons Ratio (z) = 0.53991 0.18900
#
# Static dielectric constant tensor:
#      x y z
#    x 3.756550 0.000000 0.000000 
#    y 0.000000 3.185010 0.000000 
#    z 0.000000 0.000000 3.377230 
# 
# 
# High freq. dielectric constant tensor:
#      x y z
#    x 1.742100 0.000000 0.000000 
#    y 0.000000 1.686150 0.000000 
#    z 0.000000 0.000000 1.716600 
# 
# From -- ./inp_files/10378.got.cif
#   From: 2010.03.12/outbox.cif.g09.slc.cpg/sg64_6_cif.got.tgz:10378.got - 2010.04.10 20:19:32.
