data_PCOD8263088
_publ_section_title
;
Structure prediction by ZEFSAII (Michael W. Deem and Ramdas Pophale) SiO2 
 PCOD8263088
Probable space group: C M C A
;
_chemical_formula_sum "Si O2"
_cell_formula_units_Z 96
_cell_length_a 23.707257
_cell_length_b 9.586862
_cell_length_c 20.616726
_cell_angle_alpha 90.000000
_cell_angle_beta 90.000000
_cell_angle_gamma 90.000000
_cell_volume 4685.732401
_symmetry_space_group_name_H-M "C M C A"
_symmetry_group_IT_number 64
_symmetry_cell_setting 'orthorhombic'
loop_
_space_group_symop_operation_xyz
x,y,z
-x,1/2-y,1/2+z
x,-y,-z
-x,1/2+y,1/2-z
-x,-y,-z
x,1/2+y,1/2-z
-x,y,z
x,1/2-y,1/2+z
1/2+x,1/2+y,z
1/2-x,-y,1/2+z
1/2+x,1/2-y,-z
1/2-x,y,1/2-z
1/2-x,1/2-y,-z
1/2+x,y,1/2-z
1/2-x,1/2+y,z
1/2+x,-y,1/2+z
loop_
_atom_site_type_symbol
_atom_site_label
_atom_site_fract_x
_atom_site_fract_y
_atom_site_fract_z
Si Si1 0.000000 0.622057 0.590449
Si Si2 0.618824 0.007192 0.172409
Si Si3 0.289631 0.050476 0.930676
Si Si4 0.683695 0.865794 0.588824
Si Si5 0.617618 0.707273 0.210524
Si Si6 0.906198 0.500000 0.500000
Si Si7 0.000000 0.923412 0.650492
Si Si8 0.500000 0.606201 0.195853
O O1 0.944376 0.590075 0.548751
O O2 0.000000 0.781301 0.610882
O O3 0.000000 0.539200 0.657990
O O4 0.622082 0.142874 0.217956
O O5 0.558769 0.998241 0.133856
O O6 0.668269 0.017053 0.120794
O O7 0.627894 0.872084 0.217678
O O8 0.287492 0.218223 0.928698
O O9 0.227117 0.992854 0.917492
O O10 0.311506 0.000000 0.000000
O O11 0.663214 0.862507 0.663129
O O12 0.631709 0.891439 0.540336
O O13 0.556171 0.690183 0.177335
O O14 0.000000 0.916206 0.727906
#
# Coordination Sequence:
#
# PCOD8263088 Si02
#       8
#     8  16  16  16  16   8   8   8
#     4  11  24  40  63 104 131 168 216 258 322 388
#     4  10  24  41  64  96 129 167 215 261 329 377
#     4  11  25  43  64  95 124 171 216 267 320 395
#     4  11  24  42  67  91 128 167 219 268 325 380
#     4  10  22  40  64  93 129 168 212 270 314 389
#     4  11  24  42  68  96 130 173 214 270 322 389
#     4  10  24  37  64  93 127 169 208 261 316 381
#     4  10  20  35  62  90 125 161 210 246 307 383
#
# _framework density 20.487725000000001
#
# number of rings (size 3 to 8) (size 9 to 14) (size 15 to 20)
#    0.000    1.500    2.500    1.000   11.667    2.000 
#    0.000    3.750    0.000    0.000    0.000    0.000 
#    0.000    0.000    0.000    0.000    0.000    0.000 
#
# Total GULP energy -595160.050461 kJ/mol
# GULP energy per Si atom -12399.167718 kJ/mol
# Density = 2.044109 g / cm^3
# Si number density = 20.487725 Si / 1000 Ang^3
#
#
#
# Elastic Constant Matrix: (Units=GPa)
#
#
# Indices 1 2 3 4 5 6 
#
# 1 129.4168 52.0747 50.5960 0.0000 0.0000 0.0000
# 2 52.0747 88.5117 38.0022 0.0000 0.0000 0.0000
# 3 50.5960 38.0022 71.5951 0.0000 0.0000 0.0000
# 4 0.0000 0.0000 0.0000 29.7243 0.0000 0.0000
# 5 0.0000 0.0000 0.0000 0.0000 33.2677 0.0000
# 6 0.0000 0.0000 0.0000 0.0000 0.0000 30.2536
#
#
#
# Elastic Compliance Matrix: (Units=1/GPa)
#
#
# Indices 1 2 3 4 5 6 
#
# 1 0.011855 -0.004375 -0.006056 0.000000 0.000000 0.000000
# 2 -0.004375 0.016247 -0.005532 0.000000 0.000000 0.000000
# 3 -0.006056 -0.005532 0.021183 0.000000 0.000000 0.000000
# 4 0.000000 0.000000 0.000000 0.033642 0.000000 0.000000
# 5 0.000000 0.000000 0.000000 0.000000 0.030059 0.000000
# 6 0.000000 0.000000 0.000000 0.000000 0.000000 0.033054
#
#
# Mechanical properties :
#
#
# Convention : Reuss Voigt Hill
#
# Bulk Modulus (GPa) = 57.60353 63.42993 60.51673
# Shear Modulus (GPa) = 27.21053 28.57251 27.89152
#
# Velocity S-wave (km/s) = 3.64832 3.73851 3.69369
# Velocity P-wave (km/s) = 6.77673 7.04716 6.91327
#
# Compressibility (1/GPa) = 0.01736005
#
# Stress axis : x y z
#
# Youngs Moduli (GPa) = 84.35465 61.55018 47.20660
#
# Poissons Ratio (x) = 0.26926 0.28587
# Poissons Ratio (y) = 0.36901 0.26116
# Poissons Ratio (z) = 0.51083 0.34051
#
# Static dielectric constant tensor:
#      x y z
#    x 4.164830 0.000000 0.000000 
#    y 0.000000 3.587560 0.000000 
#    z 0.000000 0.000000 3.632060 
# 
# 
# High freq. dielectric constant tensor:
#      x y z
#    x 1.814220 0.000000 0.000000 
#    y 0.000000 1.799530 0.000000 
#    z 0.000000 0.000000 1.796880 
# 
# From -- ./inp_files/46656.got.cif
#   From: 2010.03.12/outbox.cif.g09.slc.cpg/sg64_24_cif.got.tgz:46656.got - 2010.04.10 20:19:32.
