data_PCOD8263773
_publ_section_title
;
Structure prediction by ZEFSAII (Michael W. Deem and Ramdas Pophale) SiO2 
 PCOD8263773
Probable space group: C M C A
;
_chemical_formula_sum "Si O2"
_cell_formula_units_Z 80
_cell_length_a 8.891829
_cell_length_b 24.823687
_cell_length_c 18.190181
_cell_angle_alpha 90.000000
_cell_angle_beta 90.000000
_cell_angle_gamma 90.000000
_cell_volume 4015.081907
_symmetry_space_group_name_H-M "C M C A"
_symmetry_group_IT_number 64
_symmetry_cell_setting 'orthorhombic'
loop_
_space_group_symop_operation_xyz
x,y,z
-x,1/2-y,1/2+z
x,-y,-z
-x,1/2+y,1/2-z
-x,-y,-z
x,1/2+y,1/2-z
-x,y,z
x,1/2-y,1/2+z
1/2+x,1/2+y,z
1/2-x,-y,1/2+z
1/2+x,1/2-y,-z
1/2-x,y,1/2-z
1/2-x,1/2-y,-z
1/2+x,y,1/2-z
1/2-x,1/2+y,z
1/2+x,-y,1/2+z
loop_
_atom_site_type_symbol
_atom_site_label
_atom_site_fract_x
_atom_site_fract_y
_atom_site_fract_z
Si Si1 0.175237 0.429107 0.825565
Si Si2 0.323253 0.854131 0.406455
Si Si3 0.677379 0.744015 0.673427
Si Si4 0.822907 0.552941 0.826522
Si Si5 0.825827 0.655409 0.425198
O O1 0.250000 0.409222 0.750000
O O2 0.216248 0.490880 0.842729
O O3 0.232167 0.394164 0.893431
O O4 0.000000 0.420516 0.815556
O O5 0.500000 0.855650 0.391395
O O6 0.247335 0.812145 0.351548
O O7 0.251993 0.912654 0.391504
O O8 0.285235 0.837694 0.489595
O O9 0.500000 0.737141 0.682780
O O10 0.750000 0.762138 0.750000
O O11 0.720099 0.789288 0.614107
O O12 0.750000 0.571604 0.750000
O O13 0.000000 0.563368 0.823345
O O14 0.000000 0.641922 0.413275
#
# Coordination Sequence:
#
# PCOD8263773 Si02
#       5
#    16  16  16  16  16
#     4  10  21  37  60  86 115 151 192 236 282 333
#     4  11  23  39  59  85 116 151 189 234 285 337
#     4  11  23  40  61  85 113 148 189 234 282 338
#     4  10  21  38  59  85 115 151 193 236 282 335
#     4  10  23  40  59  85 117 151 189 232 284 339
#
# _framework density 19.924875
#
# number of rings (size 3 to 8) (size 9 to 14) (size 15 to 20)
#    0.000    1.600    0.000    4.200    0.000    8.000 
#    0.000    4.000    0.000    0.000    0.000    0.000 
#    0.000    0.000    0.000    0.000    0.000    0.000 
#
# Total GULP energy -496303.217284 kJ/mol
# GULP energy per Si atom -12407.580432 kJ/mol
# Density = 1.987953 g / cm^3
# Si number density = 19.924875 Si / 1000 Ang^3
#
#
#
# Elastic Constant Matrix: (Units=GPa)
#
#
# Indices 1 2 3 4 5 6 
#
# 1 93.4636 44.0591 42.6684 0.0000 0.0000 0.0000
# 2 44.0591 85.6002 32.2956 0.0000 0.0000 0.0000
# 3 42.6684 32.2956 84.1078 0.0000 0.0000 0.0000
# 4 0.0000 0.0000 0.0000 35.3379 0.0000 0.0000
# 5 0.0000 0.0000 0.0000 0.0000 36.1304 0.0000
# 6 0.0000 0.0000 0.0000 0.0000 0.0000 37.0685
#
#
#
# Elastic Compliance Matrix: (Units=1/GPa)
#
#
# Indices 1 2 3 4 5 6 
#
# 1 0.016299 -0.006162 -0.005902 0.000000 0.000000 0.000000
# 2 -0.006162 0.015991 -0.003014 0.000000 0.000000 0.000000
# 3 -0.005902 -0.003014 0.016041 0.000000 0.000000 0.000000
# 4 0.000000 0.000000 0.000000 0.028298 0.000000 0.000000
# 5 0.000000 0.000000 0.000000 0.000000 0.027678 0.000000
# 6 0.000000 0.000000 0.000000 0.000000 0.000000 0.026977
#
#
# Mechanical properties :
#
#
# Convention : Reuss Voigt Hill
#
# Bulk Modulus (GPa) = 55.02445 55.69085 55.35765
# Shear Modulus (GPa) = 29.85089 31.31727 30.58408
#
# Velocity S-wave (km/s) = 3.87482 3.96885 3.92212
# Velocity P-wave (km/s) = 6.90615 7.00096 6.95372
#
# Compressibility (1/GPa) = 0.01817374
#
# Stress axis : x y z
#
# Youngs Moduli (GPa) = 61.35418 62.53453 62.33970
#
# Poissons Ratio (x) = 0.38535 0.36795
# Poissons Ratio (y) = 0.37808 0.18790
# Poissons Ratio (z) = 0.36213 0.18849
#
# Static dielectric constant tensor:
#      x y z
#    x 3.670540 0.000000 0.000000 
#    y 0.000000 3.652840 0.000000 
#    z 0.000000 0.000000 3.618920 
# 
# 
# High freq. dielectric constant tensor:
#      x y z
#    x 1.788440 0.000000 0.000000 
#    y 0.000000 1.786960 0.000000 
#    z 0.000000 0.000000 1.779240 
# 
# From -- ./inp_files/29804.got.cif
#   From: 2010.03.12/outbox.cif.g09.slc.cpg/sg64_15_cif.got.tgz:29804.got - 2010.04.10 20:19:32.
