data_PCOD8263531
_publ_section_title
;
Structure prediction by ZEFSAII (Michael W. Deem and Ramdas Pophale) SiO2 
 PCOD8263531
Probable space group: C M C A
;
_chemical_formula_sum "Si O2"
_cell_formula_units_Z 96
_cell_length_a 8.784812
_cell_length_b 23.222411
_cell_length_c 25.384168
_cell_angle_alpha 90.000000
_cell_angle_beta 90.000000
_cell_angle_gamma 90.000000
_cell_volume 5178.484877
_symmetry_space_group_name_H-M "C M C A"
_symmetry_group_IT_number 64
_symmetry_cell_setting 'orthorhombic'
loop_
_space_group_symop_operation_xyz
x,y,z
-x,1/2-y,1/2+z
x,-y,-z
-x,1/2+y,1/2-z
-x,-y,-z
x,1/2+y,1/2-z
-x,y,z
x,1/2-y,1/2+z
1/2+x,1/2+y,z
1/2-x,-y,1/2+z
1/2+x,1/2-y,-z
1/2-x,y,1/2-z
1/2-x,1/2-y,-z
1/2+x,y,1/2-z
1/2-x,1/2+y,z
1/2+x,-y,1/2+z
loop_
_atom_site_type_symbol
_atom_site_label
_atom_site_fract_x
_atom_site_fract_y
_atom_site_fract_z
Si Si1 0.676166 0.494071 0.939485
Si Si2 0.319836 0.812306 0.502373
Si Si3 0.324588 0.120290 0.600676
Si Si4 0.677734 0.814594 0.194823
Si Si5 0.819717 0.683390 0.306084
Si Si6 0.320523 0.380954 0.597823
O O1 0.500000 0.474503 0.938476
O O2 0.701774 0.552845 0.907931
O O3 0.779014 0.447620 0.909820
O O4 0.729648 0.500000 0.000000
O O5 0.500000 0.808678 0.506606
O O6 0.250000 0.750000 0.500000
O O7 0.266278 0.846777 0.451002
O O8 0.258146 0.843974 0.553061
O O9 0.500000 0.134705 0.611284
O O10 0.229611 0.141058 0.650437
O O11 0.500000 0.819943 0.202173
O O12 0.750000 0.833104 0.250000
O O13 0.723515 0.749309 0.179092
O O14 0.750000 0.667251 0.250000
O O15 0.742591 0.640129 0.346611
O O16 0.000000 0.674047 0.305436
O O17 0.500000 0.372175 0.595609
#
# Coordination Sequence:
#
# PCOD8263531 Si02
#       6
#    16  16  16  16  16  16
#     4  10  20  40  62  81 111 157 200 241 294 345
#     4  11  22  37  56  84 118 153 190 237 293 351
#     4  10  21  37  59  83 113 151 193 237 288 344
#     4  10  21  37  60  87 117 151 190 235 287 344
#     4  10  21  39  62  87 117 155 194 240 293 350
#     4  12  24  37  57  87 119 154 195 241 289 349
#
# _framework density 18.538242
#
# number of rings (size 3 to 8) (size 9 to 14) (size 15 to 20)
#    0.000    1.500    1.667    4.000    0.000    7.000 
#    0.000    0.833    0.000    4.000    0.000    0.000 
#    0.000    0.000    0.000    0.000    0.000    0.000 
#
# Total GULP energy -595446.428273 kJ/mol
# GULP energy per Si atom -12405.133922 kJ/mol
# Density = 1.849605 g / cm^3
# Si number density = 18.538242 Si / 1000 Ang^3
#
#
#
# Elastic Constant Matrix: (Units=GPa)
#
#
# Indices 1 2 3 4 5 6 
#
# 1 74.3083 37.0877 46.6156 0.0000 0.0000 0.0000
# 2 37.0877 102.5789 58.3708 0.0000 0.0000 0.0000
# 3 46.6156 58.3708 130.8815 0.0000 0.0000 0.0000
# 4 0.0000 0.0000 0.0000 158.7933 0.0000 0.0000
# 5 0.0000 0.0000 0.0000 0.0000 35.5973 0.0000
# 6 0.0000 0.0000 0.0000 0.0000 0.0000 32.8712
#
#
#
# Elastic Compliance Matrix: (Units=1/GPa)
#
#
# Indices 1 2 3 4 5 6 
#
# 1 0.018438 -0.003926 -0.004816 0.000000 0.000000 0.000000
# 2 -0.003926 0.013900 -0.004801 0.000000 0.000000 0.000000
# 3 -0.004816 -0.004801 0.011497 0.000000 0.000000 0.000000
# 4 0.000000 0.000000 0.000000 0.006297 0.000000 0.000000
# 5 0.000000 0.000000 0.000000 0.000000 0.028092 0.000000
# 6 0.000000 0.000000 0.000000 0.000000 0.000000 0.030422
#
#
# Mechanical properties :
#
#
# Convention : Reuss Voigt Hill
#
# Bulk Modulus (GPa) = 59.70414 65.76854 62.73634
# Shear Modulus (GPa) = 35.38196 56.49867 45.94032
#
# Velocity S-wave (km/s) = 4.37348 5.52657 4.98349
# Velocity P-wave (km/s) = 7.60125 8.73374 8.18710
#
# Compressibility (1/GPa) = 0.01674926
#
# Stress axis : x y z
#
# Youngs Moduli (GPa) = 54.23535 71.94350 86.97946
#
# Poissons Ratio (x) = 0.28243 0.41891
# Poissons Ratio (y) = 0.21292 0.41757
# Poissons Ratio (z) = 0.26121 0.34539
#
# Static dielectric constant tensor:
#      x y z
#    x 3.457040 0.000000 0.000000 
#    y 0.000000 3.243900 0.000000 
#    z 0.000000 0.000000 3.403330 
# 
# 
# High freq. dielectric constant tensor:
#      x y z
#    x 1.726720 0.000000 0.000000 
#    y 0.000000 1.721610 0.000000 
#    z 0.000000 0.000000 1.724720 
# 
# From -- ./inp_files/43027.got.cif
#   From: 2010.03.12/outbox.cif.g09.slc.cpg/sg64_22_cif.got.tgz:43027.got - 2010.04.10 20:19:32.
