data_PCOD8263405
_publ_section_title
;
Structure prediction by ZEFSAII (Michael W. Deem and Ramdas Pophale) SiO2 
 PCOD8263405
Probable space group: C M C A
;
_chemical_formula_sum "Si O2"
_cell_formula_units_Z 64
_cell_length_a 14.334997
_cell_length_b 22.024481
_cell_length_c 9.541915
_cell_angle_alpha 90.000000
_cell_angle_beta 90.000000
_cell_angle_gamma 90.000000
_cell_volume 3012.581696
_symmetry_space_group_name_H-M "C M C A"
_symmetry_group_IT_number 64
_symmetry_cell_setting 'orthorhombic'
loop_
_space_group_symop_operation_xyz
x,y,z
-x,1/2-y,1/2+z
x,-y,-z
-x,1/2+y,1/2-z
-x,-y,-z
x,1/2+y,1/2-z
-x,y,z
x,1/2-y,1/2+z
1/2+x,1/2+y,z
1/2-x,-y,1/2+z
1/2+x,1/2-y,-z
1/2-x,y,1/2-z
1/2-x,1/2-y,-z
1/2+x,y,1/2-z
1/2-x,1/2+y,z
1/2+x,-y,1/2+z
loop_
_atom_site_type_symbol
_atom_site_label
_atom_site_fract_x
_atom_site_fract_y
_atom_site_fract_z
Si Si1 0.896433 0.099790 0.320419
Si Si2 0.356250 0.776223 0.722698
Si Si3 0.713424 0.931243 0.541586
Si Si4 0.104815 0.825806 0.072313
O O1 0.912596 0.172105 0.306569
O O2 0.824283 0.081892 0.443159
O O3 0.849146 0.076913 0.178363
O O4 0.000000 0.071017 0.345840
O O5 0.250000 0.792393 0.750000
O O6 0.375357 0.779305 0.556220
O O7 0.382827 0.710180 0.781729
O O8 0.674307 0.883558 0.426649
O O9 0.698380 0.000000 0.500000
O O10 0.000000 0.850966 0.061391
#
# Coordination Sequence:
#
# PCOD8263405 Si02
#       4
#    16  16  16  16
#     4  10  20  38  61  85 115 155 199 249 310 363
#     4  11  20  38  62  89 122 160 195 252 309 361
#     4  10  21  39  60  83 117 162 201 247 295 359
#     4  11  22  38  62  92 123 160 202 249 305 367
#
# _framework density 21.244236999999998
#
# number of rings (size 3 to 8) (size 9 to 14) (size 15 to 20)
#    0.000    1.500    5.000    5.250    0.000    2.500 
#    4.500    0.000    0.000    0.000    0.000    0.000 
#    0.000    0.000    0.000    0.000    0.000    0.000 
#
# Total GULP energy -396645.770152 kJ/mol
# GULP energy per Si atom -12395.180317 kJ/mol
# Density = 2.119588 g / cm^3
# Si number density = 21.244237 Si / 1000 Ang^3
#
#
#
# Elastic Constant Matrix: (Units=GPa)
#
#
# Indices 1 2 3 4 5 6 
#
# 1 184.8447 35.2383 13.8567 0.0000 0.0000 0.0000
# 2 35.2383 141.3965 34.7430 0.0000 0.0000 0.0000
# 3 13.8567 34.7430 26.0431 0.0000 0.0000 0.0000
# 4 0.0000 0.0000 0.0000 18.0571 0.0000 0.0000
# 5 0.0000 0.0000 0.0000 0.0000 9.3460 0.0000
# 6 0.0000 0.0000 0.0000 0.0000 0.0000 17.7159
#
#
#
# Elastic Compliance Matrix: (Units=1/GPa)
#
#
# Indices 1 2 3 4 5 6 
#
# 1 0.005730 -0.001010 -0.001701 0.000000 0.000000 0.000000
# 2 -0.001010 0.010699 -0.013736 0.000000 0.000000 0.000000
# 3 -0.001701 -0.013736 0.057628 0.000000 0.000000 0.000000
# 4 0.000000 0.000000 0.000000 0.055380 0.000000 0.000000
# 5 0.000000 0.000000 0.000000 0.000000 0.106997 0.000000
# 6 0.000000 0.000000 0.000000 0.000000 0.000000 0.056446
#
#
# Mechanical properties :
#
#
# Convention : Reuss Voigt Hill
#
# Bulk Modulus (GPa) = 24.29410 57.77336 41.03373
# Shear Modulus (GPa) = 14.72774 26.92024 20.82399
#
# Velocity S-wave (km/s) = 2.63584 3.56361 3.13424
# Velocity P-wave (km/s) = 4.55236 6.64727 5.69694
#
# Compressibility (1/GPa) = 0.04116225
#
# Stress axis : x y z
#
# Youngs Moduli (GPa) = 174.51923 93.46604 17.35281
#
# Poissons Ratio (x) = 0.09440 0.02952
# Poissons Ratio (y) = 0.17626 0.23835
# Poissons Ratio (z) = 0.29693 1.28383
#
# Static dielectric constant tensor:
#      x y z
#    x 4.123690 0.000000 0.000000 
#    y 0.000000 3.816030 0.000000 
#    z 0.000000 0.000000 3.625350 
# 
# 
# High freq. dielectric constant tensor:
#      x y z
#    x 1.856350 0.000000 0.000000 
#    y 0.000000 1.815000 0.000000 
#    z 0.000000 0.000000 1.799150 
# 
# From -- ./inp_files/5587.got.cif
#   From: 2010.03.12/outbox.cif.g09.slc.cpg/sg64_3_cif.got.tgz:5587.got - 2010.04.10 20:19:32.
