data_PCOD8263657
_publ_section_title
;
Structure prediction by ZEFSAII (Michael W. Deem and Ramdas Pophale) SiO2 
 PCOD8263657
Probable space group: C M C A
;
_chemical_formula_sum "Si O2"
_cell_formula_units_Z 96
_cell_length_a 10.763579
_cell_length_b 24.388067
_cell_length_c 19.701585
_cell_angle_alpha 90.000000
_cell_angle_beta 90.000000
_cell_angle_gamma 90.000000
_cell_volume 5171.722918
_symmetry_space_group_name_H-M "C M C A"
_symmetry_group_IT_number 64
_symmetry_cell_setting 'orthorhombic'
loop_
_space_group_symop_operation_xyz
x,y,z
-x,1/2-y,1/2+z
x,-y,-z
-x,1/2+y,1/2-z
-x,-y,-z
x,1/2+y,1/2-z
-x,y,z
x,1/2-y,1/2+z
1/2+x,1/2+y,z
1/2-x,-y,1/2+z
1/2+x,1/2-y,-z
1/2-x,y,1/2-z
1/2-x,1/2-y,-z
1/2+x,y,1/2-z
1/2-x,1/2+y,z
1/2+x,-y,1/2+z
loop_
_atom_site_type_symbol
_atom_site_label
_atom_site_fract_x
_atom_site_fract_y
_atom_site_fract_z
Si Si1 0.231771 0.831848 0.455384
Si Si2 0.000000 0.520116 0.097567
Si Si3 0.000000 0.089868 0.535702
Si Si4 0.639769 0.632137 0.196326
Si Si5 0.141241 0.433881 0.453354
Si Si6 0.356144 0.280077 0.915369
Si Si7 0.230356 0.458828 0.600391
O O1 0.114737 0.870076 0.465235
O O2 0.337182 0.872301 0.423780
O O3 0.275783 0.810707 0.528364
O O4 0.199612 0.781192 0.405912
O O5 0.128821 0.541539 0.131239
O O6 0.000000 0.453201 0.098798
O O7 0.000000 0.547243 0.024527
O O8 0.500000 0.631699 0.228642
O O9 0.750000 0.628587 0.250000
O O10 0.658777 0.688575 0.155386
O O11 0.646222 0.580381 0.146003
O O12 0.224414 0.440013 0.521626
O O13 0.179672 0.478667 0.397033
O O14 0.000000 0.442434 0.474998
O O15 0.500000 0.277278 0.938512
#
# Coordination Sequence:
#
# PCOD8263657 Si02
#       7
#    16   8   8  16  16  16  16
#     4  11  19  31  53  83 113 146 177 228 289 346
#     4  11  18  28  52  81 118 144 174 224 278 352
#     4  11  16  30  44  81 118 146 173 213 276 337
#     4  11  24  43  60  81 112 154 200 239 277 333
#     4  11  19  31  53  83 116 150 177 223 292 349
#     4  10  21  36  54  77 112 149 188 234 286 335
#     4  11  20  33  55  82 115 146 185 228 284 343
#
# _framework density 18.562479
#
# number of rings (size 3 to 8) (size 9 to 14) (size 15 to 20)
#    0.000    1.167    5.833    3.500    1.167    0.000 
#    1.500    0.000    0.000    1.000    0.000    2.333 
#    0.000    0.000    0.000    0.000    0.000    0.000 
#
# Total GULP energy -594712.615643 kJ/mol
# GULP energy per Si atom -12389.846159 kJ/mol
# Density = 1.852023 g / cm^3
# Si number density = 18.562479 Si / 1000 Ang^3
#
#
#
# Elastic Constant Matrix: (Units=GPa)
#
#
# Indices 1 2 3 4 5 6 
#
# 1 123.3087 42.9780 24.8907 0.0000 0.0000 0.0000
# 2 42.9780 147.3981 29.1386 0.0000 0.0000 0.0000
# 3 24.8907 29.1386 42.9253 0.0000 0.0000 0.0000
# 4 0.0000 0.0000 0.0000 15.3124 0.0000 0.0000
# 5 0.0000 0.0000 0.0000 0.0000 23.6260 0.0000
# 6 0.0000 0.0000 0.0000 0.0000 0.0000 21.8318
#
#
#
# Elastic Compliance Matrix: (Units=1/GPa)
#
#
# Indices 1 2 3 4 5 6 
#
# 1 0.009658 -0.001974 -0.004260 0.000000 0.000000 0.000000
# 2 -0.001974 0.008239 -0.004448 0.000000 0.000000 0.000000
# 3 -0.004260 -0.004448 0.028786 0.000000 0.000000 0.000000
# 4 0.000000 0.000000 0.000000 0.065307 0.000000 0.000000
# 5 0.000000 0.000000 0.000000 0.000000 0.042326 0.000000
# 6 0.000000 0.000000 0.000000 0.000000 0.000000 0.045805
#
#
# Mechanical properties :
#
#
# Convention : Reuss Voigt Hill
#
# Bulk Modulus (GPa) = 39.49719 56.40520 47.95119
# Shear Modulus (GPa) = 21.74620 26.59568 24.17094
#
# Velocity S-wave (km/s) = 3.42645 3.78930 3.61243
# Velocity P-wave (km/s) = 6.08097 7.04256 6.57936
#
# Compressibility (1/GPa) = 0.02531826
#
# Stress axis : x y z
#
# Youngs Moduli (GPa) = 103.54524 121.37019 34.73874
#
# Poissons Ratio (x) = 0.23956 0.14800
# Poissons Ratio (y) = 0.20437 0.15453
# Poissons Ratio (z) = 0.44113 0.53991
#
# Static dielectric constant tensor:
#      x y z
#    x 4.587290 0.000000 0.000000 
#    y 0.000000 4.035840 0.000000 
#    z 0.000000 0.000000 2.745190 
# 
# 
# High freq. dielectric constant tensor:
#      x y z
#    x 1.747430 0.000000 0.000000 
#    y 0.000000 1.745440 0.000000 
#    z 0.000000 0.000000 1.636490 
# 
# From -- ./inp_files/31200.got.cif
#   From: 2010.03.12/outbox.cif.g09.slc.cpg/sg64_16_cif.got.tgz:31200.got - 2010.04.10 20:19:32.
