data_PCOD8263201
_publ_section_title
;
Structure prediction by ZEFSAII (Michael W. Deem and Ramdas Pophale) SiO2 
 PCOD8263201
Probable space group: C M C A
;
_chemical_formula_sum "Si O2"
_cell_formula_units_Z 80
_cell_length_a 16.521944
_cell_length_b 13.549294
_cell_length_c 18.330663
_cell_angle_alpha 90.000000
_cell_angle_beta 90.000000
_cell_angle_gamma 90.000000
_cell_volume 4103.514624
_symmetry_space_group_name_H-M "C M C A"
_symmetry_group_IT_number 64
_symmetry_cell_setting 'orthorhombic'
loop_
_space_group_symop_operation_xyz
x,y,z
-x,1/2-y,1/2+z
x,-y,-z
-x,1/2+y,1/2-z
-x,-y,-z
x,1/2+y,1/2-z
-x,y,z
x,1/2-y,1/2+z
1/2+x,1/2+y,z
1/2-x,-y,1/2+z
1/2+x,1/2-y,-z
1/2-x,y,1/2-z
1/2-x,1/2-y,-z
1/2+x,y,1/2-z
1/2-x,1/2+y,z
1/2+x,-y,1/2+z
loop_
_atom_site_type_symbol
_atom_site_label
_atom_site_fract_x
_atom_site_fract_y
_atom_site_fract_z
Si Si1 0.150773 0.215835 0.143331
Si Si2 0.406207 0.892294 0.779538
Si Si3 0.165504 0.775007 0.136198
Si Si4 0.094075 0.887551 0.001252
Si Si5 0.408029 0.385475 0.267861
O O1 0.148541 0.141725 0.211758
O O2 0.241835 0.246289 0.127294
O O3 0.109157 0.162483 0.076038
O O4 0.100422 0.314449 0.162434
O O5 0.500000 0.877612 0.759154
O O6 0.385233 0.825630 0.850008
O O7 0.384897 0.005669 0.795574
O O8 0.151527 0.850994 0.203048
O O9 0.140426 0.825235 0.061510
O O10 0.000000 0.886972 0.020942
O O11 0.126696 0.000000 0.000000
O O12 0.500000 0.382462 0.238006
#
# Coordination Sequence:
#
# PCOD8263201 Si02
#       5
#    16  16  16  16  16
#     4  11  22  36  56  84 115 144 182 232 280 326
#     4  10  20  36  59  84 112 149 188 225 269 325
#     4  11  22  36  56  84 115 144 182 232 280 326
#     4  11  23  40  61  81 107 147 190 231 276 330
#     4  10  20  36  59  84 112 149 188 225 269 325
#
# _framework density 19.495481999999999
#
# number of rings (size 3 to 8) (size 9 to 14) (size 15 to 20)
#    0.000    1.400    0.000    9.000    0.000    8.000 
#    0.000    1.000    0.000    3.600    0.000    0.000 
#    0.000    0.000    0.000    0.000    0.000    0.000 
#
# Total GULP energy -496104.723263 kJ/mol
# GULP energy per Si atom -12402.618082 kJ/mol
# Density = 1.945111 g / cm^3
# Si number density = 19.495482 Si / 1000 Ang^3
#
#
#
# Elastic Constant Matrix: (Units=GPa)
#
#
# Indices 1 2 3 4 5 6 
#
# 1 65.6266 17.9916 2.3347 0.0000 0.0000 0.0000
# 2 17.9916 165.8254 48.7300 0.0000 0.0000 0.0000
# 3 2.3347 48.7300 85.1620 0.0000 0.0000 0.0000
# 4 0.0000 0.0000 0.0000 26.0403 0.0000 0.0000
# 5 0.0000 0.0000 0.0000 0.0000 186.0741 0.0000
# 6 0.0000 0.0000 0.0000 0.0000 0.0000 10.2877
#
#
#
# Elastic Compliance Matrix: (Units=1/GPa)
#
#
# Indices 1 2 3 4 5 6 
#
# 1 0.015735 -0.001900 0.000656 0.000000 0.000000 0.000000
# 2 -0.001900 0.007479 -0.004227 0.000000 0.000000 0.000000
# 3 0.000656 -0.004227 0.014143 0.000000 0.000000 0.000000
# 4 0.000000 0.000000 0.000000 0.038402 0.000000 0.000000
# 5 0.000000 0.000000 0.000000 0.000000 0.005374 0.000000
# 6 0.000000 0.000000 0.000000 0.000000 0.000000 0.097203
#
#
# Mechanical properties :
#
#
# Convention : Reuss Voigt Hill
#
# Bulk Modulus (GPa) = 37.85822 50.52518 44.19170
# Shear Modulus (GPa) = 25.24175 60.98426 43.11300
#
# Velocity S-wave (km/s) = 3.60217 5.59903 4.70769
# Velocity P-wave (km/s) = 6.06316 8.23234 7.22957
#
# Compressibility (1/GPa) = 0.02641434
#
# Stress axis : x y z
#
# Youngs Moduli (GPa) = 63.55151 133.71063 70.70513
#
# Poissons Ratio (x) = 0.25404 -0.04637
# Poissons Ratio (y) = 0.12074 0.29889
# Poissons Ratio (z) = -0.04167 0.56524
#
# Static dielectric constant tensor:
#      x y z
#    x 3.586260 0.000000 0.000000 
#    y 0.000000 3.883580 0.000000 
#    z 0.000000 0.000000 3.422710 
# 
# 
# High freq. dielectric constant tensor:
#      x y z
#    x 1.766020 0.000000 0.000000 
#    y 0.000000 1.777170 0.000000 
#    z 0.000000 0.000000 1.740590 
# 
# From -- ./inp_files/33016.got.cif
#   From: 2010.03.12/outbox.cif.g09.slc.cpg/sg64_17_cif.got.tgz:33016.got - 2010.04.10 20:19:32.
