data_PCOD8263680
_publ_section_title
;
Structure prediction by ZEFSAII (Michael W. Deem and Ramdas Pophale) SiO2 
 PCOD8263680
Probable space group: C M C A
;
_chemical_formula_sum "Si O2"
_cell_formula_units_Z 104
_cell_length_a 9.650673
_cell_length_b 27.717442
_cell_length_c 18.864390
_cell_angle_alpha 90.000000
_cell_angle_beta 90.000000
_cell_angle_gamma 90.000000
_cell_volume 5046.072828
_symmetry_space_group_name_H-M "C M C A"
_symmetry_group_IT_number 64
_symmetry_cell_setting 'orthorhombic'
loop_
_space_group_symop_operation_xyz
x,y,z
-x,1/2-y,1/2+z
x,-y,-z
-x,1/2+y,1/2-z
-x,-y,-z
x,1/2+y,1/2-z
-x,y,z
x,1/2-y,1/2+z
1/2+x,1/2+y,z
1/2-x,-y,1/2+z
1/2+x,1/2-y,-z
1/2-x,y,1/2-z
1/2-x,1/2-y,-z
1/2+x,y,1/2-z
1/2-x,1/2+y,z
1/2+x,-y,1/2+z
loop_
_atom_site_type_symbol
_atom_site_label
_atom_site_fract_x
_atom_site_fract_y
_atom_site_fract_z
Si Si1 0.340884 0.993077 0.081150
Si Si2 0.339321 0.405245 0.118097
Si Si3 0.349456 0.765848 0.153257
Si Si4 0.340226 0.833927 0.028767
Si Si5 0.341967 0.577386 0.313469
Si Si6 0.250000 0.346558 0.250000
Si Si7 0.661393 0.180821 0.132380
O O1 0.500000 0.974675 0.087215
O O2 0.238710 0.956411 0.121287
O O3 0.323054 0.045004 0.117133
O O4 0.296254 0.000000 0.000000
O O5 0.500000 0.412186 0.097368
O O6 0.262412 0.374829 0.057451
O O7 0.333608 0.380056 0.195178
O O8 0.500000 0.741234 0.157531
O O9 0.321562 0.785531 0.074314
O O10 0.351143 0.811416 0.206355
O O11 0.237193 0.725111 0.171727
O O12 0.500000 0.852766 0.031436
O O13 0.295190 0.821034 0.949562
O O14 0.500000 0.577155 0.287767
O O15 0.250000 0.556361 0.250000
O O16 0.291788 0.631189 0.331700
O O17 0.500000 0.190490 0.141595
#
# Coordination Sequence:
#
# PCOD8263680 Si02
#       7
#    16  16  16  16  16   8  16
#     4  10  22  43  69  92 121 162 204 246 306 378
#     4  11  23  38  63  94 124 157 201 257 305 352
#     4  10  21  36  58  86 117 156 203 252 300 353
#     4   9  19  38  60  86 121 160 201 246 304 369
#     4  10  23  41  60  87 120 160 202 246 298 360
#     4  10  24  42  56  84 128 166 200 240 308 374
#     4  10  21  38  61  85 117 160 204 248 301 362
#
# _framework density 20.610087
#
# number of rings (size 3 to 8) (size 9 to 14) (size 15 to 20)
#    0.000    2.000    0.000    2.308    2.154    9.538 
#    0.000    1.538    0.000    0.000    0.000    0.000 
#    0.000    0.000    0.000    0.000    0.000    0.000 
#
# Total GULP energy -644895.145207 kJ/mol
# GULP energy per Si atom -12401.829716 kJ/mol
# Density = 2.056318 g / cm^3
# Si number density = 20.610087 Si / 1000 Ang^3
#
#
#
# Elastic Constant Matrix: (Units=GPa)
#
#
# Indices 1 2 3 4 5 6 
#
# 1 106.2512 59.3378 34.1408 0.0000 0.0000 0.0000
# 2 59.3378 113.2261 35.3732 0.0000 0.0000 0.0000
# 3 34.1408 35.3732 104.2400 0.0000 0.0000 0.0000
# 4 0.0000 0.0000 0.0000 21.7655 0.0000 0.0000
# 5 0.0000 0.0000 0.0000 0.0000 23.5826 0.0000
# 6 0.0000 0.0000 0.0000 0.0000 0.0000 30.3048
#
#
#
# Elastic Compliance Matrix: (Units=1/GPa)
#
#
# Indices 1 2 3 4 5 6 
#
# 1 0.013785 -0.006503 -0.002308 0.000000 0.000000 0.000000
# 2 -0.006503 0.012947 -0.002264 0.000000 0.000000 0.000000
# 3 -0.002308 -0.002264 0.011117 0.000000 0.000000 0.000000
# 4 0.000000 0.000000 0.000000 0.045944 0.000000 0.000000
# 5 0.000000 0.000000 0.000000 0.000000 0.042404 0.000000
# 6 0.000000 0.000000 0.000000 0.000000 0.000000 0.032998
#
#
# Mechanical properties :
#
#
# Convention : Reuss Voigt Hill
#
# Bulk Modulus (GPa) = 63.69507 64.60233 64.14870
# Shear Modulus (GPa) = 26.79825 28.12160 27.45993
#
# Velocity S-wave (km/s) = 3.60981 3.69786 3.65410
# Velocity P-wave (km/s) = 6.95314 7.04594 6.99970
#
# Compressibility (1/GPa) = 0.01569980
#
# Stress axis : x y z
#
# Youngs Moduli (GPa) = 72.54189 77.23690 89.94964
#
# Poissons Ratio (x) = 0.50229 0.20761
# Poissons Ratio (y) = 0.47176 0.20361
# Poissons Ratio (z) = 0.16743 0.17483
#
# Static dielectric constant tensor:
#      x y z
#    x 3.574390 0.000000 0.000000 
#    y 0.000000 3.659120 0.000000 
#    z 0.000000 0.000000 3.752370 
# 
# 
# High freq. dielectric constant tensor:
#      x y z
#    x 1.796630 0.000000 0.000000 
#    y 0.000000 1.805740 0.000000 
#    z 0.000000 0.000000 1.812670 
# 
# From -- ./inp_files/37255.got.cif
#   From: 2010.03.12/outbox.cif.g09.slc.cpg/sg64_19_cif.got.tgz:37255.got - 2010.04.10 20:19:32.
