data_PCOD8263319
_publ_section_title
;
Structure prediction by ZEFSAII (Michael W. Deem and Ramdas Pophale) SiO2 
 PCOD8263319
Probable space group: C M C A
;
_chemical_formula_sum "Si O2"
_cell_formula_units_Z 64
_cell_length_a 8.539932
_cell_length_b 20.445032
_cell_length_c 18.159992
_cell_angle_alpha 90.000000
_cell_angle_beta 90.000000
_cell_angle_gamma 90.000000
_cell_volume 3170.719767
_symmetry_space_group_name_H-M "C M C A"
_symmetry_group_IT_number 64
_symmetry_cell_setting 'orthorhombic'
loop_
_space_group_symop_operation_xyz
x,y,z
-x,1/2-y,1/2+z
x,-y,-z
-x,1/2+y,1/2-z
-x,-y,-z
x,1/2+y,1/2-z
-x,y,z
x,1/2-y,1/2+z
1/2+x,1/2+y,z
1/2-x,-y,1/2+z
1/2+x,1/2-y,-z
1/2-x,y,1/2-z
1/2-x,1/2-y,-z
1/2+x,y,1/2-z
1/2-x,1/2+y,z
1/2+x,-y,1/2+z
loop_
_atom_site_type_symbol
_atom_site_label
_atom_site_fract_x
_atom_site_fract_y
_atom_site_fract_z
Si Si1 0.319789 0.143069 0.570719
Si Si2 0.315741 0.131257 0.089025
Si Si3 0.327614 0.511022 0.586549
Si Si4 0.682813 0.250605 0.827614
O O1 0.500000 0.161393 0.582699
O O2 0.279554 0.147409 0.484813
O O3 0.213100 0.195139 0.612236
O O4 0.289250 0.070591 0.604298
O O5 0.500000 0.134019 0.070684
O O6 0.270543 0.058655 0.119836
O O7 0.270476 0.182475 0.151482
O O8 0.337489 0.500000 0.500000
O O9 0.500000 0.529741 0.616989
O O10 0.500000 0.264580 0.821837
O O11 0.750000 0.225995 0.750000
#
# Coordination Sequence:
#
# PCOD8263319 Si02
#       4
#    16  16  16  16
#     4  11  21  35  58  87 116 147 186 229 275 327
#     4  10  20  37  60  86 115 147 185 228 276 328
#     4   8  16  32  55  83 114 145 180 226 275 324
#     4  12  25  41  58  79 111 148 188 232 280 332
#
# _framework density 20.184691999999998
#
# number of rings (size 3 to 8) (size 9 to 14) (size 15 to 20)
#    0.000    1.750    0.000    7.500    0.000    5.500 
#    0.000    1.250    0.000    6.000    0.000    0.000 
#    0.000    0.000    0.000    0.000    0.000    0.000 
#
# Total GULP energy -396805.699909 kJ/mol
# GULP energy per Si atom -12400.178122 kJ/mol
# Density = 2.013875 g / cm^3
# Si number density = 20.184692 Si / 1000 Ang^3
#
#
#
# Elastic Constant Matrix: (Units=GPa)
#
#
# Indices 1 2 3 4 5 6 
#
# 1 81.8511 32.7908 15.9542 0.0000 0.0000 0.0000
# 2 32.7908 106.1964 12.8597 0.0000 0.0000 0.0000
# 3 15.9542 12.8597 37.8480 0.0000 0.0000 0.0000
# 4 0.0000 0.0000 0.0000 5.4036 0.0000 0.0000
# 5 0.0000 0.0000 0.0000 0.0000 27.6464 0.0000
# 6 0.0000 0.0000 0.0000 0.0000 0.0000 32.2528
#
#
#
# Elastic Compliance Matrix: (Units=1/GPa)
#
#
# Indices 1 2 3 4 5 6 
#
# 1 0.014756 -0.003966 -0.004873 0.000000 0.000000 0.000000
# 2 -0.003966 0.010887 -0.002027 0.000000 0.000000 0.000000
# 3 -0.004873 -0.002027 0.029164 0.000000 0.000000 0.000000
# 4 0.000000 0.000000 0.000000 0.185061 0.000000 0.000000
# 5 0.000000 0.000000 0.000000 0.000000 0.036171 0.000000
# 6 0.000000 0.000000 0.000000 0.000000 0.000000 0.031005
#
#
# Mechanical properties :
#
#
# Convention : Reuss Voigt Hill
#
# Bulk Modulus (GPa) = 30.23421 38.78942 34.51181
# Shear Modulus (GPa) = 14.71453 24.01330 19.36391
#
# Velocity S-wave (km/s) = 2.70292 3.45291 3.10068
# Velocity P-wave (km/s) = 4.97517 5.92923 5.47303
#
# Compressibility (1/GPa) = 0.03307512
#
# Stress axis : x y z
#
# Youngs Moduli (GPa) = 67.76914 91.85552 34.28869
#
# Poissons Ratio (x) = 0.36432 0.16707
# Poissons Ratio (y) = 0.26879 0.06951
# Poissons Ratio (z) = 0.33021 0.18620
#
# Static dielectric constant tensor:
#      x y z
#    x 3.622170 0.000000 0.000000 
#    y 0.000000 4.255860 0.000000 
#    z 0.000000 0.000000 3.290780 
# 
# 
# High freq. dielectric constant tensor:
#      x y z
#    x 1.793020 0.000000 0.000000 
#    y 0.000000 1.809150 0.000000 
#    z 0.000000 0.000000 1.744390 
# 
# From -- ./inp_files/29245.got.cif
#   From: 2010.03.12/outbox.cif.g09.slc.cpg/sg64_15_cif.got.tgz:29245.got - 2010.04.10 20:19:32.
