data_PCOD8263071
_publ_section_title
;
Structure prediction by ZEFSAII (Michael W. Deem and Ramdas Pophale) SiO2 
 PCOD8263071
Probable space group: C M C A
;
_chemical_formula_sum "Si O2"
_cell_formula_units_Z 88
_cell_length_a 9.160734
_cell_length_b 22.956595
_cell_length_c 19.578903
_cell_angle_alpha 90.000000
_cell_angle_beta 90.000000
_cell_angle_gamma 90.000000
_cell_volume 4117.428819
_symmetry_space_group_name_H-M "C M C A"
_symmetry_group_IT_number 64
_symmetry_cell_setting 'orthorhombic'
loop_
_space_group_symop_operation_xyz
x,y,z
-x,1/2-y,1/2+z
x,-y,-z
-x,1/2+y,1/2-z
-x,-y,-z
x,1/2+y,1/2-z
-x,y,z
x,1/2-y,1/2+z
1/2+x,1/2+y,z
1/2-x,-y,1/2+z
1/2+x,1/2-y,-z
1/2-x,y,1/2-z
1/2-x,1/2-y,-z
1/2+x,y,1/2-z
1/2-x,1/2+y,z
1/2+x,-y,1/2+z
loop_
_atom_site_type_symbol
_atom_site_label
_atom_site_fract_x
_atom_site_fract_y
_atom_site_fract_z
Si Si1 0.830965 0.269043 0.930580
Si Si2 0.328476 0.114091 0.403361
Si Si3 0.658820 0.649122 0.870933
Si Si4 0.340840 0.984245 0.855050
Si Si5 0.165664 0.426015 0.032346
Si Si6 0.250000 0.921158 0.250000
O O1 0.753597 0.324673 0.896698
O O2 0.818737 0.218760 0.873100
O O3 0.000000 0.283106 0.947811
O O4 0.750000 0.250000 0.000000
O O5 0.500000 0.124310 0.398167
O O6 0.277094 0.067747 0.344546
O O7 0.283406 0.082898 0.473339
O O8 0.500000 0.634956 0.904814
O O9 0.793791 0.621561 0.910679
O O10 0.650380 0.622487 0.794487
O O11 0.500000 0.955227 0.850420
O O12 0.321481 0.010462 0.932244
O O13 0.336843 0.035754 0.800081
O O14 0.000000 0.413995 0.007450
#
# Coordination Sequence:
#
# PCOD8263071 Si02
#       6
#    16  16  16  16  16   8
#     4  11  22  38  62  92 128 165 205 255 312 375
#     4  12  24  37  57  88 125 165 206 252 307 368
#     4  10  21  38  63  93 123 160 206 253 304 369
#     4  10  22  39  60  87 120 159 203 253 311 371
#     4  10  20  35  59  89 123 160 199 251 311 369
#     4  10  22  42  68  92 118 156 206 260 312 370
#
# _framework density 21.37256
#
# number of rings (size 3 to 8) (size 9 to 14) (size 15 to 20)
#    0.000    1.455    1.818    3.818    0.000    8.000 
#    0.000    0.909    0.000    2.182    0.000    0.000 
#    0.000    0.000    0.000    0.000    0.000    0.000 
#
# Total GULP energy -545185.769164 kJ/mol
# GULP energy per Si atom -12390.585663 kJ/mol
# Density = 2.132392 g / cm^3
# Si number density = 21.372560 Si / 1000 Ang^3
#
#
#
# Elastic Constant Matrix: (Units=GPa)
#
#
# Indices 1 2 3 4 5 6 
#
# 1 159.3935 74.5409 21.8850 0.0000 0.0000 0.0000
# 2 74.5409 157.5331 39.9233 0.0000 0.0000 0.0000
# 3 21.8850 39.9233 62.6792 0.0000 0.0000 0.0000
# 4 0.0000 0.0000 0.0000 26.8499 0.0000 0.0000
# 5 0.0000 0.0000 0.0000 0.0000 19.1273 0.0000
# 6 0.0000 0.0000 0.0000 0.0000 0.0000 33.6162
#
#
#
# Elastic Compliance Matrix: (Units=1/GPa)
#
#
# Indices 1 2 3 4 5 6 
#
# 1 0.008068 -0.003701 -0.000460 0.000000 0.000000 0.000000
# 2 -0.003701 0.009268 -0.004611 0.000000 0.000000 0.000000
# 3 -0.000460 -0.004611 0.019051 0.000000 0.000000 0.000000
# 4 0.000000 0.000000 0.000000 0.037244 0.000000 0.000000
# 5 0.000000 0.000000 0.000000 0.000000 0.052281 0.000000
# 6 0.000000 0.000000 0.000000 0.000000 0.000000 0.029748
#
#
# Mechanical properties :
#
#
# Convention : Reuss Voigt Hill
#
# Bulk Modulus (GPa) = 53.06674 72.47826 62.77250
# Shear Modulus (GPa) = 27.85774 32.13581 29.99677
#
# Velocity S-wave (km/s) = 3.61423 3.88184 3.75042
# Velocity P-wave (km/s) = 6.50386 7.35371 6.94180
#
# Compressibility (1/GPa) = 0.01884419
#
# Stress axis : x y z
#
# Youngs Moduli (GPa) = 123.95201 107.90331 52.48932
#
# Poissons Ratio (x) = 0.39934 0.02412
# Poissons Ratio (y) = 0.45874 0.24201
# Poissons Ratio (z) = 0.05697 0.49751
#
# Static dielectric constant tensor:
#      x y z
#    x 3.853950 0.000000 0.000000 
#    y 0.000000 4.120840 0.000000 
#    z 0.000000 0.000000 3.882730 
# 
# 
# High freq. dielectric constant tensor:
#      x y z
#    x 1.842610 0.000000 0.000000 
#    y 0.000000 1.852770 0.000000 
#    z 0.000000 0.000000 1.809990 
# 
# From -- ./inp_files/36792.got.cif
#   From: 2010.03.12/outbox.cif.g09.slc.cpg/sg64_19_cif.got.tgz:36792.got - 2010.04.10 20:19:32.
