data_PCOD8263053
_publ_section_title
;
Structure prediction by ZEFSAII (Michael W. Deem and Ramdas Pophale) SiO2 
 PCOD8263053
Probable space group: C M C A
;
_chemical_formula_sum "Si O2"
_cell_formula_units_Z 56
_cell_length_a 15.356113
_cell_length_b 12.608677
_cell_length_c 14.289327
_cell_angle_alpha 90.000000
_cell_angle_beta 90.000000
_cell_angle_gamma 90.000000
_cell_volume 2766.703335
_symmetry_space_group_name_H-M "C M C A"
_symmetry_group_IT_number 64
_symmetry_cell_setting 'orthorhombic'
loop_
_space_group_symop_operation_xyz
x,y,z
-x,1/2-y,1/2+z
x,-y,-z
-x,1/2+y,1/2-z
-x,-y,-z
x,1/2+y,1/2-z
-x,y,z
x,1/2-y,1/2+z
1/2+x,1/2+y,z
1/2-x,-y,1/2+z
1/2+x,1/2-y,-z
1/2-x,y,1/2-z
1/2-x,1/2-y,-z
1/2+x,y,1/2-z
1/2-x,1/2+y,z
1/2+x,-y,1/2+z
loop_
_atom_site_type_symbol
_atom_site_label
_atom_site_fract_x
_atom_site_fract_y
_atom_site_fract_z
Si Si1 0.839166 0.214589 0.543919
Si Si2 0.500000 0.020116 0.350044
Si Si3 0.176810 0.106116 0.171928
Si Si4 0.500000 0.172592 0.527913
Si Si5 0.727118 0.000000 0.000000
O O1 0.750000 0.250000 0.500000
O O2 0.846249 0.270939 0.646075
O O3 0.836424 0.086774 0.548784
O O4 0.916255 0.251391 0.475176
O O5 0.411756 0.048141 0.292204
O O6 0.500000 0.092302 0.441911
O O7 0.500000 0.895316 0.376222
O O8 0.250000 0.100694 0.250000
O O9 0.209143 0.048171 0.077974
#
# Coordination Sequence:
#
# PCOD8263053 Si02
#       5
#    16   8  16   8   8
#     4   9  18  33  53  80 110 145 189 233 282 334
#     4   9  16  32  56  81 110 149 197 232 277 341
#     4  10  20  35  58  85 116 151 192 238 284 341
#     4   9  16  31  58  82 106 149 195 238 279 335
#     4  10  20  36  58  84 118 154 188 236 292 336
#
# _framework density 20.240694999999999
#
# number of rings (size 3 to 8) (size 9 to 14) (size 15 to 20)
#    0.000    2.571    0.000    5.143    0.000    1.714 
#    0.000    7.143    0.000   10.286    0.000    0.000 
#    0.000    0.000    0.000    0.000    0.000    0.000 
#
# Total GULP energy -346981.585252 kJ/mol
# GULP energy per Si atom -12392.199473 kJ/mol
# Density = 2.019463 g / cm^3
# Si number density = 20.240695 Si / 1000 Ang^3
#
#
#
# Elastic Constant Matrix: (Units=GPa)
#
#
# Indices 1 2 3 4 5 6 
#
# 1 179.3881 61.7438 38.2040 0.0000 0.0000 0.0000
# 2 61.7438 127.5706 25.7955 0.0000 0.0000 0.0000
# 3 38.2040 25.7955 62.7902 0.0000 0.0000 0.0000
# 4 0.0000 0.0000 0.0000 14.9388 0.0000 0.0000
# 5 0.0000 0.0000 0.0000 0.0000 32.6435 0.0000
# 6 0.0000 0.0000 0.0000 0.0000 0.0000 27.6227
#
#
#
# Elastic Compliance Matrix: (Units=1/GPa)
#
#
# Indices 1 2 3 4 5 6 
#
# 1 0.007246 -0.002852 -0.003237 0.000000 0.000000 0.000000
# 2 -0.002852 0.009672 -0.002238 0.000000 0.000000 0.000000
# 3 -0.003237 -0.002238 0.018815 0.000000 0.000000 0.000000
# 4 0.000000 0.000000 0.000000 0.066940 0.000000 0.000000
# 5 0.000000 0.000000 0.000000 0.000000 0.030634 0.000000
# 6 0.000000 0.000000 0.000000 0.000000 0.000000 0.036202
#
#
# Mechanical properties :
#
#
# Convention : Reuss Voigt Hill
#
# Bulk Modulus (GPa) = 52.41562 69.02618 60.72090
# Shear Modulus (GPa) = 25.97115 31.30804 28.63959
#
# Velocity S-wave (km/s) = 3.58595 3.93719 3.76566
# Velocity P-wave (km/s) = 6.56489 7.40576 6.99796
#
# Compressibility (1/GPa) = 0.01907828
#
# Stress axis : x y z
#
# Youngs Moduli (GPa) = 138.01520 103.39280 53.14975
#
# Poissons Ratio (x) = 0.29491 0.17203
# Poissons Ratio (y) = 0.39367 0.11894
# Poissons Ratio (z) = 0.44671 0.23138
#
# Static dielectric constant tensor:
#      x y z
#    x 3.969150 0.000000 0.000000 
#    y 0.000000 4.654340 0.000000 
#    z 0.000000 0.000000 3.226810 
# 
# 
# High freq. dielectric constant tensor:
#      x y z
#    x 1.806140 0.000000 0.000000 
#    y 0.000000 1.796420 0.000000 
#    z 0.000000 0.000000 1.731010 
# 
# From -- ./inp_files/23055.got.cif
#   From: 2010.03.12/outbox.cif.g09.slc.cpg/sg64_12_cif.got.tgz:23055.got - 2010.04.10 20:19:32.
