data_PCOD8263535
_publ_section_title
;
Structure prediction by ZEFSAII (Michael W. Deem and Ramdas Pophale) SiO2 
 PCOD8263535
Probable space group: C M C A
;
_chemical_formula_sum "Si O2"
_cell_formula_units_Z 64
_cell_length_a 15.236584
_cell_length_b 18.002245
_cell_length_c 10.178895
_cell_angle_alpha 90.000000
_cell_angle_beta 90.000000
_cell_angle_gamma 90.000000
_cell_volume 2791.996777
_symmetry_space_group_name_H-M "C M C A"
_symmetry_group_IT_number 64
_symmetry_cell_setting 'orthorhombic'
loop_
_space_group_symop_operation_xyz
x,y,z
-x,1/2-y,1/2+z
x,-y,-z
-x,1/2+y,1/2-z
-x,-y,-z
x,1/2+y,1/2-z
-x,y,z
x,1/2-y,1/2+z
1/2+x,1/2+y,z
1/2-x,-y,1/2+z
1/2+x,1/2-y,-z
1/2-x,y,1/2-z
1/2-x,1/2-y,-z
1/2+x,y,1/2-z
1/2-x,1/2+y,z
1/2+x,-y,1/2+z
loop_
_atom_site_type_symbol
_atom_site_label
_atom_site_fract_x
_atom_site_fract_y
_atom_site_fract_z
Si Si1 0.346629 0.010239 0.361008
Si Si2 0.897053 0.172238 0.197553
Si Si3 0.651382 0.948222 0.105839
Si Si4 0.897261 0.296252 0.992944
O O1 0.344276 0.095958 0.316280
O O2 0.397485 0.000000 0.500000
O O3 0.394327 0.960080 0.248720
O O4 0.248573 0.980812 0.379446
O O5 0.868098 0.223705 0.074748
O O6 0.873091 0.210777 0.338177
O O7 0.000000 0.154934 0.191573
O O8 0.654060 0.863799 0.060396
O O9 0.600526 0.000000 0.000000
O O10 0.000000 0.311309 0.012007
#
# Coordination Sequence:
#
# PCOD8263535 Si02
#       4
#    16  16  16  16
#     4  10  22  38  61  88 125 162 204 257 302 361
#     4  10  22  41  62  91 127 162 203 251 306 368
#     4  10  20  40  62  85 123 161 207 253 303 362
#     4  10  22  40  64  91 124 163 204 251 307 368
#
# _framework density 22.922663
#
# number of rings (size 3 to 8) (size 9 to 14) (size 15 to 20)
#    0.000    2.000    2.500    0.000    3.500    2.000 
#    0.000   10.000    0.000    0.000    0.000    0.000 
#    0.000    0.000    0.000    0.000    0.000    0.000 
#
# Total GULP energy -396540.688249 kJ/mol
# GULP energy per Si atom -12391.896508 kJ/mol
# Density = 2.287049 g / cm^3
# Si number density = 22.922663 Si / 1000 Ang^3
#
#
#
# Elastic Constant Matrix: (Units=GPa)
#
#
# Indices 1 2 3 4 5 6 
#
# 1 33.7153 23.7678 8.9518 0.0000 0.0000 0.0000
# 2 23.7678 101.2991 31.4459 0.0000 0.0000 0.0000
# 3 8.9518 31.4459 211.5117 0.0000 0.0000 0.0000
# 4 0.0000 0.0000 0.0000 53.0651 0.0000 0.0000
# 5 0.0000 0.0000 0.0000 0.0000 4.8236 0.0000
# 6 0.0000 0.0000 0.0000 0.0000 0.0000 9.4127
#
#
#
# Elastic Compliance Matrix: (Units=1/GPa)
#
#
# Indices 1 2 3 4 5 6 
#
# 1 0.035554 -0.008256 -0.000277 0.000000 0.000000 0.000000
# 2 -0.008256 0.012266 -0.001474 0.000000 0.000000 0.000000
# 3 -0.000277 -0.001474 0.004959 0.000000 0.000000 0.000000
# 4 0.000000 0.000000 0.000000 0.018845 0.000000 0.000000
# 5 0.000000 0.000000 0.000000 0.000000 0.207315 0.000000
# 6 0.000000 0.000000 0.000000 0.000000 0.000000 0.106239
#
#
# Mechanical properties :
#
#
# Convention : Reuss Voigt Hill
#
# Bulk Modulus (GPa) = 30.52124 52.76189 41.64157
# Shear Modulus (GPa) = 12.01594 32.28434 22.15014
#
# Velocity S-wave (km/s) = 2.29201 3.75694 3.11191
# Velocity P-wave (km/s) = 4.51090 6.47200 5.57831
#
# Compressibility (1/GPa) = 0.03276407
#
# Stress axis : x y z
#
# Youngs Moduli (GPa) = 28.12645 81.52297 201.66213
#
# Poissons Ratio (x) = 0.67304 0.05593
# Poissons Ratio (y) = 0.23221 0.29730
# Poissons Ratio (z) = 0.00780 0.12019
#
# Static dielectric constant tensor:
#      x y z
#    x 1.991200 0.000000 0.000000 
#    y 0.000000 3.898730 0.000000 
#    z 0.000000 0.000000 9.039400 
# 
# 
# High freq. dielectric constant tensor:
#      x y z
#    x 1.865900 0.000000 0.000000 
#    y 0.000000 1.894070 0.000000 
#    z 0.000000 0.000000 1.947000 
# 
# From -- ./inp_files/15474.got.cif
#   From: 2010.03.12/outbox.cif.g09.slc.cpg/sg64_8_cif.got.tgz:15474.got - 2010.04.10 20:19:32.
