data_PCOD8263760
_publ_section_title
;
Structure prediction by ZEFSAII (Michael W. Deem and Ramdas Pophale) SiO2 
 PCOD8263760
Probable space group: C M C A
;
_chemical_formula_sum "Si O2"
_cell_formula_units_Z 80
_cell_length_a 8.863099
_cell_length_b 15.587717
_cell_length_c 28.665552
_cell_angle_alpha 90.000000
_cell_angle_beta 90.000000
_cell_angle_gamma 90.000000
_cell_volume 3960.303066
_symmetry_space_group_name_H-M "C M C A"
_symmetry_group_IT_number 64
_symmetry_cell_setting 'orthorhombic'
loop_
_space_group_symop_operation_xyz
x,y,z
-x,1/2-y,1/2+z
x,-y,-z
-x,1/2+y,1/2-z
-x,-y,-z
x,1/2+y,1/2-z
-x,y,z
x,1/2-y,1/2+z
1/2+x,1/2+y,z
1/2-x,-y,1/2+z
1/2+x,1/2-y,-z
1/2-x,y,1/2-z
1/2-x,1/2-y,-z
1/2+x,y,1/2-z
1/2-x,1/2+y,z
1/2+x,-y,1/2+z
loop_
_atom_site_type_symbol
_atom_site_label
_atom_site_fract_x
_atom_site_fract_y
_atom_site_fract_z
Si Si1 0.322225 0.962464 0.858570
Si Si2 0.174736 0.726496 0.548338
Si Si3 0.826102 0.526761 0.551226
Si Si4 0.321252 0.210884 0.359981
Si Si5 0.321617 0.626888 0.699609
O O1 0.500000 0.950305 0.855403
O O2 0.241758 0.877524 0.838216
O O3 0.275436 0.975864 0.912139
O O4 0.266000 0.042818 0.827979
O O5 0.250000 0.750000 0.500000
O O6 0.198204 0.626975 0.559145
O O7 0.255606 0.780705 0.588262
O O8 0.000000 0.751832 0.546568
O O9 0.770189 0.500000 0.500000
O O10 0.000000 0.499688 0.558346
O O11 0.500000 0.208109 0.362917
O O12 0.264619 0.289138 0.327899
O O13 0.500000 0.627563 0.704488
O O14 0.250000 0.626748 0.750000
#
# Coordination Sequence:
#
# PCOD8263760 Si02
#       5
#    16  16  16  16  16
#     4  11  23  41  64  94 126 163 211 261 316 376
#     4  11  22  36  59  91 128 170 212 258 312 373
#     4  10  21  37  58  88 125 166 209 255 309 371
#     4  11  23  42  64  91 128 168 210 261 316 375
#     4  10  24  44  67  93 126 165 210 264 321 379
#
# _framework density 20.200474
#
# number of rings (size 3 to 8) (size 9 to 14) (size 15 to 20)
#    0.000    1.400    2.000    3.000    0.000    6.800 
#    0.000    4.000    0.000    0.000    0.000    0.000 
#    0.000    0.000    0.000    0.000    0.000    0.000 
#
# Total GULP energy -496253.089561 kJ/mol
# GULP energy per Si atom -12406.327239 kJ/mol
# Density = 2.015450 g / cm^3
# Si number density = 20.200474 Si / 1000 Ang^3
#
#
#
# Elastic Constant Matrix: (Units=GPa)
#
#
# Indices 1 2 3 4 5 6 
#
# 1 79.1502 55.5795 41.6975 0.0000 0.0000 0.0000
# 2 55.5795 159.3908 67.9727 0.0000 0.0000 0.0000
# 3 41.6975 67.9727 136.1758 0.0000 0.0000 0.0000
# 4 0.0000 0.0000 0.0000 28.3738 0.0000 0.0000
# 5 0.0000 0.0000 0.0000 0.0000 39.1439 0.0000
# 6 0.0000 0.0000 0.0000 0.0000 0.0000 34.0945
#
#
#
# Elastic Compliance Matrix: (Units=1/GPa)
#
#
# Indices 1 2 3 4 5 6 
#
# 1 0.017622 -0.004883 -0.002958 0.000000 0.000000 0.000000
# 2 -0.004883 0.009324 -0.003159 0.000000 0.000000 0.000000
# 3 -0.002958 -0.003159 0.009826 0.000000 0.000000 0.000000
# 4 0.000000 0.000000 0.000000 0.035244 0.000000 0.000000
# 5 0.000000 0.000000 0.000000 0.000000 0.025547 0.000000
# 6 0.000000 0.000000 0.000000 0.000000 0.000000 0.029330
#
#
# Mechanical properties :
#
#
# Convention : Reuss Voigt Hill
#
# Bulk Modulus (GPa) = 67.70057 78.35737 73.02897
# Shear Modulus (GPa) = 32.50634 34.28691 33.39663
#
# Velocity S-wave (km/s) = 4.01582 4.12434 4.07044
# Velocity P-wave (km/s) = 7.42223 7.84565 7.63688
#
# Compressibility (1/GPa) = 0.01477093
#
# Stress axis : x y z
#
# Youngs Moduli (GPa) = 56.74851 107.25412 101.77058
#
# Poissons Ratio (x) = 0.52372 0.30108
# Poissons Ratio (y) = 0.27710 0.32147
# Poissons Ratio (z) = 0.16789 0.33879
#
# Static dielectric constant tensor:
#      x y z
#    x 3.713380 0.000000 0.000000 
#    y 0.000000 4.084500 0.000000 
#    z 0.000000 0.000000 3.573760 
# 
# 
# High freq. dielectric constant tensor:
#      x y z
#    x 1.788990 0.000000 0.000000 
#    y 0.000000 1.809320 0.000000 
#    z 0.000000 0.000000 1.784630 
# 
# From -- ./inp_files/47838.got.cif
#   From: 2010.03.12/outbox.cif.g09.slc.cpg/sg64_24_cif.got.tgz:47838.got - 2010.04.10 20:19:32.
