data_PCOD8263560
_publ_section_title
;
Structure prediction by ZEFSAII (Michael W. Deem and Ramdas Pophale) SiO2 
 PCOD8263560
Probable space group: C M C A
;
_chemical_formula_sum "Si O2"
_cell_formula_units_Z 88
_cell_length_a 29.434361
_cell_length_b 9.116565
_cell_length_c 17.054461
_cell_angle_alpha 90.000000
_cell_angle_beta 90.000000
_cell_angle_gamma 90.000000
_cell_volume 4576.398589
_symmetry_space_group_name_H-M "C M C A"
_symmetry_group_IT_number 64
_symmetry_cell_setting 'orthorhombic'
loop_
_space_group_symop_operation_xyz
x,y,z
-x,1/2-y,1/2+z
x,-y,-z
-x,1/2+y,1/2-z
-x,-y,-z
x,1/2+y,1/2-z
-x,y,z
x,1/2-y,1/2+z
1/2+x,1/2+y,z
1/2-x,-y,1/2+z
1/2+x,1/2-y,-z
1/2-x,y,1/2-z
1/2-x,1/2-y,-z
1/2+x,y,1/2-z
1/2-x,1/2+y,z
1/2+x,-y,1/2+z
loop_
_atom_site_type_symbol
_atom_site_label
_atom_site_fract_x
_atom_site_fract_y
_atom_site_fract_z
Si Si1 0.383432 0.007922 0.906786
Si Si2 0.113190 0.301950 0.684810
Si Si3 0.449109 0.488573 0.088276
Si Si4 0.949317 0.806084 0.673465
Si Si5 0.811350 0.112725 0.301082
Si Si6 0.750000 0.357626 0.250000
O O1 0.375222 0.172418 0.875825
O O2 0.430125 0.952409 0.867737
O O3 0.343408 0.899004 0.877253
O O4 0.385800 0.000000 0.000000
O O5 0.087202 0.431819 0.642016
O O6 0.080972 0.246047 0.754882
O O7 0.159669 0.367099 0.720957
O O8 0.500000 0.556301 0.098030
O O9 0.450141 0.317951 0.107916
O O10 0.431865 0.500000 0.000000
O O11 0.000000 0.842938 0.703923
O O12 0.777609 0.251566 0.310066
O O13 0.784187 0.959910 0.298184
#
# Coordination Sequence:
#
# PCOD8263560 Si02
#       6
#    16  16  16  16  16   8
#     4  11  23  38  57  89 126 153 189 241 301 353
#     4  11  21  36  58  86 113 152 195 240 283 342
#     4  10  21  36  54  80 116 156 194 234 281 331
#     4  10  21  36  57  83 114 157 204 240 275 333
#     4  10  21  39  64  88 112 150 191 236 291 353
#     4  10  20  40  68  86 112 144 196 242 288 352
#
# _framework density 19.229094
#
# number of rings (size 3 to 8) (size 9 to 14) (size 15 to 20)
#    0.000    1.636    1.818    3.818    2.545    3.273 
#    0.000    0.909    0.000    0.000    0.000    0.000 
#    0.000    0.000    0.000    0.000    0.000    0.000 
#
# Total GULP energy -545595.457528 kJ/mol
# GULP energy per Si atom -12399.896762 kJ/mol
# Density = 1.918533 g / cm^3
# Si number density = 19.229094 Si / 1000 Ang^3
#
#
#
# Elastic Constant Matrix: (Units=GPa)
#
#
# Indices 1 2 3 4 5 6 
#
# 1 105.7564 39.6226 29.8858 0.0000 0.0000 0.0000
# 2 39.6226 92.2143 23.9897 0.0000 0.0000 0.0000
# 3 29.8858 23.9897 98.1525 0.0000 0.0000 0.0000
# 4 0.0000 0.0000 0.0000 27.4914 0.0000 0.0000
# 5 0.0000 0.0000 0.0000 0.0000 15.6822 0.0000
# 6 0.0000 0.0000 0.0000 0.0000 0.0000 155.5151
#
#
#
# Elastic Compliance Matrix: (Units=1/GPa)
#
#
# Indices 1 2 3 4 5 6 
#
# 1 0.011826 -0.004426 -0.002519 0.000000 0.000000 0.000000
# 2 -0.004426 0.013237 -0.001888 0.000000 0.000000 0.000000
# 3 -0.002519 -0.001888 0.011417 0.000000 0.000000 0.000000
# 4 0.000000 0.000000 0.000000 0.036375 0.000000 0.000000
# 5 0.000000 0.000000 0.000000 0.000000 0.063766 0.000000
# 6 0.000000 0.000000 0.000000 0.000000 0.000000 0.006430
#
#
# Mechanical properties :
#
#
# Convention : Reuss Voigt Hill
#
# Bulk Modulus (GPa) = 53.15133 53.67993 53.41563
# Shear Modulus (GPa) = 29.94229 53.24609 41.59419
#
# Velocity S-wave (km/s) = 3.95034 5.26787 4.65594
# Velocity P-wave (km/s) = 6.96477 8.06085 7.53277
#
# Compressibility (1/GPa) = 0.01881421
#
# Stress axis : x y z
#
# Youngs Moduli (GPa) = 84.56108 75.54497 87.59183
#
# Poissons Ratio (x) = 0.33436 0.22064
# Poissons Ratio (y) = 0.37427 0.16535
# Poissons Ratio (z) = 0.21301 0.14261
#
# Static dielectric constant tensor:
#      x y z
#    x 3.798820 0.000000 0.000000 
#    y 0.000000 3.490540 0.000000 
#    z 0.000000 0.000000 3.361060 
# 
# 
# High freq. dielectric constant tensor:
#      x y z
#    x 1.758170 0.000000 0.000000 
#    y 0.000000 1.754280 0.000000 
#    z 0.000000 0.000000 1.726190 
# 
# From -- ./inp_files/35698.got.cif
#   From: 2010.03.12/outbox.cif.g09.slc.cpg/sg64_18_cif.got.tgz:35698.got - 2010.04.10 20:19:32.
