data_PCOD8263035
_publ_section_title
;
Structure prediction by ZEFSAII (Michael W. Deem and Ramdas Pophale) SiO2 
 PCOD8263035
Probable space group: C M C A
;
_chemical_formula_sum "Si O2"
_cell_formula_units_Z 96
_cell_length_a 8.705763
_cell_length_b 23.293476
_cell_length_c 25.424014
_cell_angle_alpha 90.000000
_cell_angle_beta 90.000000
_cell_angle_gamma 90.000000
_cell_volume 5155.671769
_symmetry_space_group_name_H-M "C M C A"
_symmetry_group_IT_number 64
_symmetry_cell_setting 'orthorhombic'
loop_
_space_group_symop_operation_xyz
x,y,z
-x,1/2-y,1/2+z
x,-y,-z
-x,1/2+y,1/2-z
-x,-y,-z
x,1/2+y,1/2-z
-x,y,z
x,1/2-y,1/2+z
1/2+x,1/2+y,z
1/2-x,-y,1/2+z
1/2+x,1/2-y,-z
1/2-x,y,1/2-z
1/2-x,1/2-y,-z
1/2+x,y,1/2-z
1/2-x,1/2+y,z
1/2+x,-y,1/2+z
loop_
_atom_site_type_symbol
_atom_site_label
_atom_site_fract_x
_atom_site_fract_y
_atom_site_fract_z
Si Si1 0.819553 0.248312 0.057939
Si Si2 0.181989 0.434031 0.694771
Si Si3 0.681220 0.435517 0.195384
Si Si4 0.177265 0.361514 0.402667
Si Si5 0.176019 0.934625 0.993732
Si Si6 0.180215 0.633709 0.098585
O O1 0.781678 0.305968 0.089465
O O2 0.752178 0.196141 0.091088
O O3 0.000000 0.240232 0.051914
O O4 0.750000 0.250000 0.000000
O O5 0.250000 0.412637 0.750000
O O6 0.236110 0.499454 0.683695
O O7 0.247760 0.393437 0.650207
O O8 0.000000 0.428898 0.695950
O O9 0.500000 0.433853 0.199535
O O10 0.750000 0.412609 0.250000
O O11 0.738846 0.394087 0.148989
O O12 0.198051 0.404521 0.450763
O O13 0.000000 0.342715 0.396914
O O14 0.000000 0.930315 0.973857
O O15 0.286058 0.905537 0.951650
O O16 0.227518 0.000000 0.000000
O O17 0.000000 0.640007 0.105957
#
# Coordination Sequence:
#
# PCOD8263035 Si02
#       6
#    16  16  16  16  16  16
#     4  12  24  40  60  83 113 154 197 243 296 353
#     4  10  20  38  62  89 120 157 195 238 291 348
#     4   9  19  36  60  88 119 156 193 234 287 345
#     4  10  20  36  58  84 116 153 195 238 287 349
#     4  10  20  35  57  84 116 153 189 235 295 353
#     4  12  24  38  58  86 117 153 197 244 291 347
#
# _framework density 18.620270000000001
#
# number of rings (size 3 to 8) (size 9 to 14) (size 15 to 20)
#    0.000    1.500    1.667    4.500    0.000    4.333 
#    0.000    2.500    0.000    2.000    0.000    0.000 
#    0.000    0.000    0.000    0.000    0.000    0.000 
#
# Total GULP energy -595438.789636 kJ/mol
# GULP energy per Si atom -12404.974784 kJ/mol
# Density = 1.857789 g / cm^3
# Si number density = 18.620270 Si / 1000 Ang^3
#
#
#
# Elastic Constant Matrix: (Units=GPa)
#
#
# Indices 1 2 3 4 5 6 
#
# 1 83.6697 32.4479 39.9065 0.0000 0.0000 0.0000
# 2 32.4479 119.5062 58.7823 0.0000 0.0000 0.0000
# 3 39.9065 58.7823 136.7703 0.0000 0.0000 0.0000
# 4 0.0000 0.0000 0.0000 64.7692 0.0000 0.0000
# 5 0.0000 0.0000 0.0000 0.0000 37.8077 0.0000
# 6 0.0000 0.0000 0.0000 0.0000 0.0000 31.1459
#
#
#
# Elastic Compliance Matrix: (Units=1/GPa)
#
#
# Indices 1 2 3 4 5 6 
#
# 1 0.014380 -0.002334 -0.003193 0.000000 0.000000 0.000000
# 2 -0.002334 0.010990 -0.004042 0.000000 0.000000 0.000000
# 3 -0.003193 -0.004042 0.009980 0.000000 0.000000 0.000000
# 4 0.000000 0.000000 0.000000 0.015439 0.000000 0.000000
# 5 0.000000 0.000000 0.000000 0.000000 0.026450 0.000000
# 6 0.000000 0.000000 0.000000 0.000000 0.000000 0.032107
#
#
# Mechanical properties :
#
#
# Convention : Reuss Voigt Hill
#
# Bulk Modulus (GPa) = 61.68202 66.91327 64.29764
# Shear Modulus (GPa) = 37.34483 40.66520 39.00502
#
# Velocity S-wave (km/s) = 4.48325 4.67831 4.58182
# Velocity P-wave (km/s) = 7.74581 8.07440 7.91181
#
# Compressibility (1/GPa) = 0.01621218
#
# Stress axis : x y z
#
# Youngs Moduli (GPa) = 69.54309 90.99370 100.19679
#
# Poissons Ratio (x) = 0.21238 0.31988
# Poissons Ratio (y) = 0.16231 0.40502
# Poissons Ratio (z) = 0.22202 0.36782
#
# Static dielectric constant tensor:
#      x y z
#    x 3.401060 0.000000 0.000000 
#    y 0.000000 3.620320 0.000000 
#    z 0.000000 0.000000 3.637940 
# 
# 
# High freq. dielectric constant tensor:
#      x y z
#    x 1.724300 0.000000 0.000000 
#    y 0.000000 1.726890 0.000000 
#    z 0.000000 0.000000 1.727110 
# 
# From -- ./inp_files/48113.got.cif
#   From: 2010.03.12/outbox.cif.g09.slc.cpg/sg64_25_cif.got.tgz:48113.got - 2010.04.10 20:19:32.
