data_PCOD8263582
_publ_section_title
;
Structure prediction by ZEFSAII (Michael W. Deem and Ramdas Pophale) SiO2 
 PCOD8263582
Probable space group: C M C A
;
_chemical_formula_sum "Si O2"
_cell_formula_units_Z 96
_cell_length_a 25.064194
_cell_length_b 16.869058
_cell_length_c 11.869840
_cell_angle_alpha 90.000000
_cell_angle_beta 90.000000
_cell_angle_gamma 90.000000
_cell_volume 5018.679244
_symmetry_space_group_name_H-M "C M C A"
_symmetry_group_IT_number 64
_symmetry_cell_setting 'orthorhombic'
loop_
_space_group_symop_operation_xyz
x,y,z
-x,1/2-y,1/2+z
x,-y,-z
-x,1/2+y,1/2-z
-x,-y,-z
x,1/2+y,1/2-z
-x,y,z
x,1/2-y,1/2+z
1/2+x,1/2+y,z
1/2-x,-y,1/2+z
1/2+x,1/2-y,-z
1/2-x,y,1/2-z
1/2-x,1/2-y,-z
1/2+x,y,1/2-z
1/2-x,1/2+y,z
1/2+x,-y,1/2+z
loop_
_atom_site_type_symbol
_atom_site_label
_atom_site_fract_x
_atom_site_fract_y
_atom_site_fract_z
Si Si1 0.825838 0.640179 0.061246
Si Si2 0.857377 0.185100 0.895180
Si Si3 0.194471 0.622780 0.799466
Si Si4 0.560685 0.554839 0.891513
Si Si5 0.355387 0.966703 0.747879
Si Si6 0.213165 0.086449 0.053566
O O1 0.855291 0.724176 0.068698
O O2 0.863423 0.581366 0.134896
O O3 0.765419 0.629021 0.108446
O O4 0.818143 0.620870 0.930858
O O5 0.849874 0.178468 0.759945
O O6 0.912698 0.139806 0.923313
O O7 0.807364 0.139980 0.951082
O O8 0.250000 0.655891 0.750000
O O9 0.190469 0.531901 0.761473
O O10 0.500000 0.570558 0.855624
O O11 0.589481 0.509518 0.787845
O O12 0.565127 0.500000 0.000000
O O13 0.333350 0.911536 0.647242
O O14 0.225715 0.000000 0.000000
#
# Coordination Sequence:
#
# PCOD8263582 Si02
#       6
#    16  16  16  16  16  16
#     4  12  25  33  57  87 131 167 195 242 326 382
#     4  11  23  37  56  89 125 157 204 264 306 370
#     4  11  21  36  55  81 124 169 206 238 297 382
#     4  10  20  41  71  90 110 157 223 276 308 353
#     4  11  21  37  59  89 118 160 207 259 300 375
#     4  12  19  38  58  86 124 168 206 245 293 376
#
# _framework density 19.128537999999999
#
# number of rings (size 3 to 8) (size 9 to 14) (size 15 to 20)
#    0.000    0.833    6.667    3.500    2.333    0.000 
#    0.000    0.833    0.000   14.000    0.000    0.000 
#    0.000    0.000    0.000    0.000    0.000    0.000 
#
# Total GULP energy -594745.062639 kJ/mol
# GULP energy per Si atom -12390.522138 kJ/mol
# Density = 1.908500 g / cm^3
# Si number density = 19.128538 Si / 1000 Ang^3
#
#
#
# Elastic Constant Matrix: (Units=GPa)
#
#
# Indices 1 2 3 4 5 6 
#
# 1 113.2123 51.7775 30.9347 0.0000 0.0000 0.0000
# 2 51.7775 86.9531 25.8859 0.0000 0.0000 0.0000
# 3 30.9347 25.8859 104.8755 0.0000 0.0000 0.0000
# 4 0.0000 0.0000 0.0000 20.4029 0.0000 0.0000
# 5 0.0000 0.0000 0.0000 0.0000 19.4981 0.0000
# 6 0.0000 0.0000 0.0000 0.0000 0.0000 20.5221
#
#
#
# Elastic Compliance Matrix: (Units=1/GPa)
#
#
# Indices 1 2 3 4 5 6 
#
# 1 0.012515 -0.006857 -0.001999 0.000000 0.000000 0.000000
# 2 -0.006857 0.016170 -0.001968 0.000000 0.000000 0.000000
# 3 -0.001999 -0.001968 0.010611 0.000000 0.000000 0.000000
# 4 0.000000 0.000000 0.000000 0.049013 0.000000 0.000000
# 5 0.000000 0.000000 0.000000 0.000000 0.051287 0.000000
# 6 0.000000 0.000000 0.000000 0.000000 0.000000 0.048728
#
#
# Mechanical properties :
#
#
# Convention : Reuss Voigt Hill
#
# Bulk Modulus (GPa) = 56.66963 58.02634 57.34799
# Shear Modulus (GPa) = 23.16370 25.18082 24.17226
#
# Velocity S-wave (km/s) = 3.48365 3.63216 3.55868
# Velocity P-wave (km/s) = 6.77282 6.92755 6.85062
#
# Compressibility (1/GPa) = 0.01764614
#
# Stress axis : x y z
#
# Youngs Moduli (GPa) = 79.90164 61.84391 94.24524
#
# Poissons Ratio (x) = 0.42409 0.18840
# Poissons Ratio (y) = 0.54791 0.18551
# Poissons Ratio (z) = 0.15973 0.12173
#
# Static dielectric constant tensor:
#      x y z
#    x 3.314240 0.000000 0.000000 
#    y 0.000000 3.478160 0.000000 
#    z 0.000000 0.000000 3.779280 
# 
# 
# High freq. dielectric constant tensor:
#      x y z
#    x 1.701270 0.000000 0.000000 
#    y 0.000000 1.735200 0.000000 
#    z 0.000000 0.000000 1.757560 
# 
# From -- ./inp_files/18350.got.cif
#   From: 2010.03.12/outbox.cif.g09.slc.cpg/sg64_10_cif.got.tgz:18350.got - 2010.04.10 20:19:32.
