data_PCOD8263822
_publ_section_title
;
Structure prediction by ZEFSAII (Michael W. Deem and Ramdas Pophale) SiO2 
 PCOD8263822
Probable space group: C M C A
;
_chemical_formula_sum "Si O2"
_cell_formula_units_Z 72
_cell_length_a 24.992726
_cell_length_b 15.722591
_cell_length_c 9.582739
_cell_angle_alpha 90.000000
_cell_angle_beta 90.000000
_cell_angle_gamma 90.000000
_cell_volume 3765.541208
_symmetry_space_group_name_H-M "C M C A"
_symmetry_group_IT_number 64
_symmetry_cell_setting 'orthorhombic'
loop_
_space_group_symop_operation_xyz
x,y,z
-x,1/2-y,1/2+z
x,-y,-z
-x,1/2+y,1/2-z
-x,-y,-z
x,1/2+y,1/2-z
-x,y,z
x,1/2-y,1/2+z
1/2+x,1/2+y,z
1/2-x,-y,1/2+z
1/2+x,1/2-y,-z
1/2-x,y,1/2-z
1/2-x,1/2-y,-z
1/2+x,y,1/2-z
1/2-x,1/2+y,z
1/2+x,-y,1/2+z
loop_
_atom_site_type_symbol
_atom_site_label
_atom_site_fract_x
_atom_site_fract_y
_atom_site_fract_z
Si Si1 0.795130 0.408063 0.448551
Si Si2 0.938402 0.333728 0.858522
Si Si3 0.600186 0.000000 0.000000
Si Si4 0.877150 0.220947 0.084490
Si Si5 0.315878 0.382821 0.363235
O O1 0.810469 0.500000 0.500000
O O2 0.838992 0.346590 0.511866
O O3 0.732316 0.384608 0.479772
O O4 0.795511 0.411841 0.284126
O O5 0.934400 0.431897 0.910782
O O6 0.911152 0.323747 0.706819
O O7 0.000000 0.309649 0.840721
O O8 0.914001 0.267152 0.969322
O O9 0.636640 0.946490 0.102714
O O10 0.837561 0.288046 0.153772
#
# Coordination Sequence:
#
# PCOD8263822 Si02
#       5
#    16  16   8  16  16
#     4  11  21  37  61  90 128 162 201 250 310 379
#     4  11  23  41  66  89 122 167 217 263 309 359
#     4  10  21  40  62  92 124 162 209 258 310 368
#     4  11  22  41  62  90 127 162 208 260 310 366
#     4  10  21  38  58  94 122 165 204 245 314 375
#
# _framework density 19.120757999999999
#
# number of rings (size 3 to 8) (size 9 to 14) (size 15 to 20)
#    0.000    1.333    3.333    3.000    0.000    0.000 
#    0.000    0.000    0.000    2.667    0.000    0.000 
#    0.000    0.000    0.000    0.000    0.000    0.000 
#
# Total GULP energy -446154.043926 kJ/mol
# GULP energy per Si atom -12393.167887 kJ/mol
# Density = 1.907724 g / cm^3
# Si number density = 19.120758 Si / 1000 Ang^3
#
#
#
# Elastic Constant Matrix: (Units=GPa)
#
#
# Indices 1 2 3 4 5 6 
#
# 1 119.0717 56.6903 44.9269 0.0000 0.0000 0.0000
# 2 56.6903 131.9156 41.8356 0.0000 0.0000 0.0000
# 3 44.9269 41.8356 97.7726 0.0000 0.0000 0.0000
# 4 0.0000 0.0000 0.0000 10.9610 0.0000 0.0000
# 5 0.0000 0.0000 0.0000 0.0000 24.0887 0.0000
# 6 0.0000 0.0000 0.0000 0.0000 0.0000 13.8292
#
#
#
# Elastic Compliance Matrix: (Units=1/GPa)
#
#
# Indices 1 2 3 4 5 6 
#
# 1 0.011612 -0.003816 -0.003703 0.000000 0.000000 0.000000
# 2 -0.003816 0.010025 -0.002536 0.000000 0.000000 0.000000
# 3 -0.003703 -0.002536 0.013015 0.000000 0.000000 0.000000
# 4 0.000000 0.000000 0.000000 0.091233 0.000000 0.000000
# 5 0.000000 0.000000 0.000000 0.000000 0.041513 0.000000
# 6 0.000000 0.000000 0.000000 0.000000 0.000000 0.072311
#
#
# Mechanical properties :
#
#
# Convention : Reuss Voigt Hill
#
# Bulk Modulus (GPa) = 68.76892 70.62952 69.69922
# Shear Modulus (GPa) = 18.89176 23.46291 21.17734
#
# Velocity S-wave (km/s) = 3.14669 3.50679 3.33161
# Velocity P-wave (km/s) = 7.01754 7.30860 7.16455
#
# Compressibility (1/GPa) = 0.01454145
#
# Stress axis : x y z
#
# Youngs Moduli (GPa) = 86.11556 99.75294 76.83712
#
# Poissons Ratio (x) = 0.38065 0.28454
# Poissons Ratio (y) = 0.32861 0.19486
# Poissons Ratio (z) = 0.31890 0.25298
#
# Static dielectric constant tensor:
#      x y z
#    x 4.008390 0.000000 0.000000 
#    y 0.000000 3.071440 0.000000 
#    z 0.000000 0.000000 3.512940 
# 
# 
# High freq. dielectric constant tensor:
#      x y z
#    x 1.754960 0.000000 0.000000 
#    y 0.000000 1.752370 0.000000 
#    z 0.000000 0.000000 1.741360 
# 
# From -- ./inp_files/9998.got.cif
#   From: 2010.03.12/outbox.cif.g09.slc.cpg/sg64_5_cif.got.tgz:9998.got - 2010.04.10 20:19:32.
