data_PCOD8263094
_publ_section_title
;
Structure prediction by ZEFSAII (Michael W. Deem and Ramdas Pophale) SiO2 
 PCOD8263094
Probable space group: C M C A
;
_chemical_formula_sum "Si O2"
_cell_formula_units_Z 96
_cell_length_a 14.610854
_cell_length_b 11.455537
_cell_length_c 27.035015
_cell_angle_alpha 90.000000
_cell_angle_beta 90.000000
_cell_angle_gamma 90.000000
_cell_volume 4524.990464
_symmetry_space_group_name_H-M "C M C A"
_symmetry_group_IT_number 64
_symmetry_cell_setting 'orthorhombic'
loop_
_space_group_symop_operation_xyz
x,y,z
-x,1/2-y,1/2+z
x,-y,-z
-x,1/2+y,1/2-z
-x,-y,-z
x,1/2+y,1/2-z
-x,y,z
x,1/2-y,1/2+z
1/2+x,1/2+y,z
1/2-x,-y,1/2+z
1/2+x,1/2-y,-z
1/2-x,y,1/2-z
1/2-x,1/2-y,-z
1/2+x,y,1/2-z
1/2-x,1/2+y,z
1/2+x,-y,1/2+z
loop_
_atom_site_type_symbol
_atom_site_label
_atom_site_fract_x
_atom_site_fract_y
_atom_site_fract_z
Si Si1 0.838867 0.869593 0.148278
Si Si2 0.231230 0.575935 0.400350
Si Si3 0.205788 0.291802 0.698185
Si Si4 0.606169 0.871901 0.517227
Si Si5 0.500000 0.055575 0.711255
Si Si6 0.898241 0.303816 0.930200
Si Si7 0.500000 0.293311 0.773181
O O1 0.757234 0.829138 0.184557
O O2 0.892761 0.764508 0.122011
O O3 0.796464 0.941003 0.102113
O O4 0.908948 0.951929 0.178184
O O5 0.233177 0.616557 0.343599
O O6 0.160406 0.654662 0.432062
O O7 0.330048 0.586701 0.426597
O O8 0.250000 0.335734 0.750000
O O9 0.095576 0.273552 0.697899
O O10 0.500000 0.871446 0.530484
O O11 0.630387 0.776845 0.476108
O O12 0.637896 0.000000 0.500000
O O13 0.500000 0.933306 0.744095
O O14 0.500000 0.186467 0.734255
O O15 0.000000 0.353064 0.937175
#
# Coordination Sequence:
#
# PCOD8263094 Si02
#       7
#    16  16  16  16   8  16   8
#     4  11  22  40  65  92 129 170 223 276 332 407
#     4  11  23  38  67  94 129 174 217 279 336 407
#     4  11  25  43  63  97 130 173 224 279 344 407
#     4  10  20  35  64  98 128 165 221 276 333 404
#     4  12  24  44  70  94 133 177 233 287 346 413
#     4  10  21  39  62  95 129 166 215 269 333 400
#     4  12  26  46  70  95 132 181 226 290 350 411
#
# _framework density 21.215515
#
# number of rings (size 3 to 8) (size 9 to 14) (size 15 to 20)
#    0.000    1.167    5.833    0.500    2.333    2.000 
#    1.500    0.000    0.000    0.500    0.000    0.000 
#    0.000    0.000    0.000    0.000    0.000    0.000 
#
# Total GULP energy -594717.029356 kJ/mol
# GULP energy per Si atom -12389.938112 kJ/mol
# Density = 2.116723 g / cm^3
# Si number density = 21.215515 Si / 1000 Ang^3
#
#
#
# Elastic Constant Matrix: (Units=GPa)
#
#
# Indices 1 2 3 4 5 6 
#
# 1 112.2322 22.0605 20.5574 0.0000 0.0000 0.0000
# 2 22.0605 69.8520 2.4401 0.0000 0.0000 0.0000
# 3 20.5574 2.4401 82.0532 0.0000 0.0000 0.0000
# 4 0.0000 0.0000 0.0000 25.8760 0.0000 0.0000
# 5 0.0000 0.0000 0.0000 0.0000 34.0498 0.0000
# 6 0.0000 0.0000 0.0000 0.0000 0.0000 26.5737
#
#
#
# Elastic Compliance Matrix: (Units=1/GPa)
#
#
# Indices 1 2 3 4 5 6 
#
# 1 0.009951 -0.003059 -0.002402 0.000000 0.000000 0.000000
# 2 -0.003059 0.015271 0.000312 0.000000 0.000000 0.000000
# 3 -0.002402 0.000312 0.012780 0.000000 0.000000 0.000000
# 4 0.000000 0.000000 0.000000 0.038646 0.000000 0.000000
# 5 0.000000 0.000000 0.000000 0.000000 0.029369 0.000000
# 6 0.000000 0.000000 0.000000 0.000000 0.000000 0.037631
#
#
# Mechanical properties :
#
#
# Convention : Reuss Voigt Hill
#
# Bulk Modulus (GPa) = 36.09522 39.36149 37.72835
# Shear Modulus (GPa) = 30.64087 31.90518 31.27302
#
# Velocity S-wave (km/s) = 3.80447 3.88217 3.84352
# Velocity P-wave (km/s) = 6.02903 6.22000 6.12526
#
# Compressibility (1/GPa) = 0.02770450
#
# Stress axis : x y z
#
# Youngs Moduli (GPa) = 100.48858 65.48298 78.24858
#
# Poissons Ratio (x) = 0.20031 0.18797
# Poissons Ratio (y) = 0.30739 -0.02443
# Poissons Ratio (z) = 0.24140 -0.02045
#
# Static dielectric constant tensor:
#      x y z
#    x 4.125520 0.000000 0.000000 
#    y 0.000000 3.739180 0.000000 
#    z 0.000000 0.000000 3.780860 
# 
# 
# High freq. dielectric constant tensor:
#      x y z
#    x 1.846010 0.000000 0.000000 
#    y 0.000000 1.810560 0.000000 
#    z 0.000000 0.000000 1.825840 
# 
# From -- ./inp_files/53211.got.cif
#   From: 2010.03.12/outbox.cif.g09.slc.cpg/sg64_27_cif.got.tgz:53211.got - 2010.04.10 20:19:32.
