data_PCOD8263792
_publ_section_title
;
Structure prediction by ZEFSAII (Michael W. Deem and Ramdas Pophale) SiO2 
 PCOD8263792
Probable space group: C M C A
;
_chemical_formula_sum "Si O2"
_cell_formula_units_Z 80
_cell_length_a 22.929431
_cell_length_b 17.980767
_cell_length_c 9.676727
_cell_angle_alpha 90.000000
_cell_angle_beta 90.000000
_cell_angle_gamma 90.000000
_cell_volume 3989.605739
_symmetry_space_group_name_H-M "C M C A"
_symmetry_group_IT_number 64
_symmetry_cell_setting 'orthorhombic'
loop_
_space_group_symop_operation_xyz
x,y,z
-x,1/2-y,1/2+z
x,-y,-z
-x,1/2+y,1/2-z
-x,-y,-z
x,1/2+y,1/2-z
-x,y,z
x,1/2-y,1/2+z
1/2+x,1/2+y,z
1/2-x,-y,1/2+z
1/2+x,1/2-y,-z
1/2-x,y,1/2-z
1/2-x,1/2-y,-z
1/2+x,y,1/2-z
1/2-x,1/2+y,z
1/2+x,-y,1/2+z
loop_
_atom_site_type_symbol
_atom_site_label
_atom_site_fract_x
_atom_site_fract_y
_atom_site_fract_z
Si Si1 0.434133 0.785291 0.159349
Si Si2 0.322177 0.865846 0.843254
Si Si3 0.935430 0.917888 0.536976
Si Si4 0.639415 0.286222 0.075532
Si Si5 0.788304 0.415601 0.538640
O O1 0.500000 0.752322 0.158664
O O2 0.412949 0.793950 0.315899
O O3 0.434019 0.868487 0.100171
O O4 0.390347 0.732728 0.072056
O O5 0.390318 0.885526 0.853292
O O6 0.316186 0.777440 0.870171
O O7 0.282123 0.904679 0.962820
O O8 0.304285 0.892236 0.693071
O O9 0.000000 0.917370 0.604450
O O10 0.915284 0.000000 0.500000
O O11 0.677304 0.361724 0.066253
O O12 0.804789 0.500000 0.500000
#
# Coordination Sequence:
#
# PCOD8263792 Si02
#       5
#    16  16  16  16  16
#     4  10  21  37  63  92 123 167 215 260 314 374
#     4  10  22  42  61  89 124 164 213 256 311 379
#     4   9  19  36  60  88 119 161 208 258 315 373
#     4  11  21  42  63  91 125 166 214 264 308 380
#     4  11  24  41  62  94 128 165 209 261 320 373
#
# _framework density 20.052106999999999
#
# number of rings (size 3 to 8) (size 9 to 14) (size 15 to 20)
#    0.000    1.800    2.000    1.800    2.800    0.800 
#    3.600    0.000    0.000    3.000    0.000    0.000 
#    0.000    0.000    0.000    0.000    0.000    0.000 
#
# Total GULP energy -495836.226743 kJ/mol
# GULP energy per Si atom -12395.905669 kJ/mol
# Density = 2.000647 g / cm^3
# Si number density = 20.052107 Si / 1000 Ang^3
#
#
#
# Elastic Constant Matrix: (Units=GPa)
#
#
# Indices 1 2 3 4 5 6 
#
# 1 101.4735 45.3496 36.3752 0.0000 0.0000 0.0000
# 2 45.3496 152.4333 28.3019 0.0000 0.0000 0.0000
# 3 36.3752 28.3019 76.9662 0.0000 0.0000 0.0000
# 4 0.0000 0.0000 0.0000 16.4738 0.0000 0.0000
# 5 0.0000 0.0000 0.0000 0.0000 34.5079 0.0000
# 6 0.0000 0.0000 0.0000 0.0000 0.0000 23.0283
#
#
#
# Elastic Compliance Matrix: (Units=1/GPa)
#
#
# Indices 1 2 3 4 5 6 
#
# 1 0.012973 -0.002921 -0.005057 0.000000 0.000000 0.000000
# 2 -0.002921 0.007698 -0.001451 0.000000 0.000000 0.000000
# 3 -0.005057 -0.001451 0.015916 0.000000 0.000000 0.000000
# 4 0.000000 0.000000 0.000000 0.060702 0.000000 0.000000
# 5 0.000000 0.000000 0.000000 0.000000 0.028979 0.000000
# 6 0.000000 0.000000 0.000000 0.000000 0.000000 0.043425
#
#
# Mechanical properties :
#
#
# Convention : Reuss Voigt Hill
#
# Bulk Modulus (GPa) = 56.39874 61.21405 58.80640
# Shear Modulus (GPa) = 25.71218 29.52510 27.61864
#
# Velocity S-wave (km/s) = 3.58476 3.84137 3.71528
# Velocity P-wave (km/s) = 6.73210 7.09004 6.91339
#
# Compressibility (1/GPa) = 0.01773089
#
# Stress axis : x y z
#
# Youngs Moduli (GPa) = 77.08407 129.89642 62.82901
#
# Poissons Ratio (x) = 0.37937 0.31774
# Poissons Ratio (y) = 0.22513 0.09114
# Poissons Ratio (z) = 0.38983 0.18843
#
# Static dielectric constant tensor:
#      x y z
#    x 4.406980 0.000000 0.000000 
#    y 0.000000 3.849960 0.000000 
#    z 0.000000 0.000000 3.398500 
# 
# 
# High freq. dielectric constant tensor:
#      x y z
#    x 1.799280 0.000000 0.000000 
#    y 0.000000 1.783120 0.000000 
#    z 0.000000 0.000000 1.764400 
# 
# From -- ./inp_files/10176.got.cif
#   From: 2010.03.12/outbox.cif.g09.slc.cpg/sg64_6_cif.got.tgz:10176.got - 2010.04.10 20:19:32.
