data_PCOD8263181
_publ_section_title
;
Structure prediction by ZEFSAII (Michael W. Deem and Ramdas Pophale) SiO2 
 PCOD8263181
Probable space group: C M C A
;
_chemical_formula_sum "Si O2"
_cell_formula_units_Z 64
_cell_length_a 8.546788
_cell_length_b 20.000561
_cell_length_c 19.746599
_cell_angle_alpha 90.000000
_cell_angle_beta 90.000000
_cell_angle_gamma 90.000000
_cell_volume 3375.494587
_symmetry_space_group_name_H-M "C M C A"
_symmetry_group_IT_number 64
_symmetry_cell_setting 'orthorhombic'
loop_
_space_group_symop_operation_xyz
x,y,z
-x,1/2-y,1/2+z
x,-y,-z
-x,1/2+y,1/2-z
-x,-y,-z
x,1/2+y,1/2-z
-x,y,z
x,1/2-y,1/2+z
1/2+x,1/2+y,z
1/2-x,-y,1/2+z
1/2+x,1/2-y,-z
1/2-x,y,1/2-z
1/2-x,1/2-y,-z
1/2+x,y,1/2-z
1/2-x,1/2+y,z
1/2+x,-y,1/2+z
loop_
_atom_site_type_symbol
_atom_site_label
_atom_site_fract_x
_atom_site_fract_y
_atom_site_fract_z
Si Si1 0.681948 0.827030 0.675664
Si Si2 0.316925 0.916034 0.059818
Si Si3 0.180452 0.552542 0.417861
Si Si4 0.316309 0.224536 0.570679
O O1 0.500000 0.807730 0.675310
O O2 0.750000 0.823846 0.750000
O O3 0.709370 0.901785 0.647594
O O4 0.775459 0.775093 0.630096
O O5 0.500000 0.921961 0.072010
O O6 0.255537 0.846947 0.090658
O O7 0.233156 0.977109 0.099169
O O8 0.281409 0.918730 0.979866
O O9 0.000000 0.553776 0.440332
O O10 0.500000 0.217187 0.562642
O O11 0.250000 0.250000 0.500000
#
# Coordination Sequence:
#
# PCOD8263181 Si02
#       4
#    16  16  16  16
#     4  11  24  41  62  88 122 162 202 247 304 366
#     4  11  21  34  58  89 120 152 196 248 302 351
#     4  10  20  36  58  85 119 155 196 245 299 354
#     4  12  23  38  61  89 122 158 203 253 305 360
#
# _framework density 18.960184000000002
#
# number of rings (size 3 to 8) (size 9 to 14) (size 15 to 20)
#    0.000    1.000    2.500    7.500    0.000    3.000 
#    0.000    1.250    0.000    3.000    0.000    0.000 
#    0.000    0.000    0.000    0.000    0.000    0.000 
#
# Total GULP energy -396953.766204 kJ/mol
# GULP energy per Si atom -12404.805194 kJ/mol
# Density = 1.891703 g / cm^3
# Si number density = 18.960184 Si / 1000 Ang^3
#
#
#
# Elastic Constant Matrix: (Units=GPa)
#
#
# Indices 1 2 3 4 5 6 
#
# 1 99.8920 37.0232 20.2530 0.0000 0.0000 0.0000
# 2 37.0232 141.2543 48.0693 0.0000 0.0000 0.0000
# 3 20.2530 48.0693 97.9146 0.0000 0.0000 0.0000
# 4 0.0000 0.0000 0.0000 89.2527 0.0000 0.0000
# 5 0.0000 0.0000 0.0000 0.0000 29.8932 0.0000
# 6 0.0000 0.0000 0.0000 0.0000 0.0000 34.7027
#
#
#
# Elastic Compliance Matrix: (Units=1/GPa)
#
#
# Indices 1 2 3 4 5 6 
#
# 1 0.011177 -0.002573 -0.001049 0.000000 0.000000 0.000000
# 2 -0.002573 0.009092 -0.003931 0.000000 0.000000 0.000000
# 3 -0.001049 -0.003931 0.012360 0.000000 0.000000 0.000000
# 4 0.000000 0.000000 0.000000 0.011204 0.000000 0.000000
# 5 0.000000 0.000000 0.000000 0.000000 0.033452 0.000000
# 6 0.000000 0.000000 0.000000 0.000000 0.000000 0.028816
#
#
# Mechanical properties :
#
#
# Convention : Reuss Voigt Hill
#
# Bulk Modulus (GPa) = 57.06787 61.08356 59.07572
# Shear Modulus (GPa) = 39.35537 46.35074 42.85306
#
# Velocity S-wave (km/s) = 4.56091 4.94969 4.75927
# Velocity P-wave (km/s) = 7.60921 8.05932 7.83749
#
# Compressibility (1/GPa) = 0.01752299
#
# Stress axis : x y z
#
# Youngs Moduli (GPa) = 89.46976 109.99282 80.90684
#
# Poissons Ratio (x) = 0.28296 0.08487
# Poissons Ratio (y) = 0.23017 0.31806
# Poissons Ratio (z) = 0.09385 0.43240
#
# Static dielectric constant tensor:
#      x y z
#    x 3.685740 0.000000 0.000000 
#    y 0.000000 4.119240 0.000000 
#    z 0.000000 0.000000 3.309710 
# 
# 
# High freq. dielectric constant tensor:
#      x y z
#    x 1.759270 0.000000 0.000000 
#    y 0.000000 1.757090 0.000000 
#    z 0.000000 0.000000 1.702090 
# 
# From -- ./inp_files/29251.got.cif
#   From: 2010.03.12/outbox.cif.g09.slc.cpg/sg64_15_cif.got.tgz:29251.got - 2010.04.10 20:19:32.
