data_PCOD8263687
_publ_section_title
;
Structure prediction by ZEFSAII (Michael W. Deem and Ramdas Pophale) SiO2 
 PCOD8263687
Probable space group: C M C A
;
_chemical_formula_sum "Si O2"
_cell_formula_units_Z 88
_cell_length_a 22.449154
_cell_length_b 15.194667
_cell_length_c 13.276591
_cell_angle_alpha 90.000000
_cell_angle_beta 90.000000
_cell_angle_gamma 90.000000
_cell_volume 4528.743695
_symmetry_space_group_name_H-M "C M C A"
_symmetry_group_IT_number 64
_symmetry_cell_setting 'orthorhombic'
loop_
_space_group_symop_operation_xyz
x,y,z
-x,1/2-y,1/2+z
x,-y,-z
-x,1/2+y,1/2-z
-x,-y,-z
x,1/2+y,1/2-z
-x,y,z
x,1/2-y,1/2+z
1/2+x,1/2+y,z
1/2-x,-y,1/2+z
1/2+x,1/2-y,-z
1/2-x,y,1/2-z
1/2-x,1/2-y,-z
1/2+x,y,1/2-z
1/2-x,1/2+y,z
1/2+x,-y,1/2+z
loop_
_atom_site_type_symbol
_atom_site_label
_atom_site_fract_x
_atom_site_fract_y
_atom_site_fract_z
Si Si1 0.359620 0.897430 0.972708
Si Si2 0.341601 0.000000 0.500000
Si Si3 0.132813 0.246545 0.130796
Si Si4 0.933995 0.290873 0.826245
Si Si5 0.565165 0.135711 0.519239
Si Si6 0.736569 0.880325 0.634876
O O1 0.406892 0.875785 0.884150
O O2 0.295687 0.869599 0.930399
O O3 0.371297 0.840249 0.073856
O O4 0.364264 0.000000 0.000000
O O5 0.385551 0.932991 0.441597
O O6 0.301571 0.959214 0.587599
O O7 0.110576 0.251404 0.244987
O O8 0.200877 0.211786 0.128343
O O9 0.088434 0.173820 0.086031
O O10 0.940639 0.214328 0.904986
O O11 0.000000 0.315595 0.784173
O O12 0.500000 0.091791 0.503759
O O13 0.750000 0.906084 0.750000
#
# Coordination Sequence:
#
# PCOD8263687 Si02
#       6
#    16   8  16  16  16  16
#     4  11  23  41  63  94 127 161 207 266 313 367
#     4  10  21  36  58  90 121 154 202 252 304 358
#     4  10  21  38  63  84 120 164 206 248 308 370
#     4  10  21  40  63  89 119 163 209 247 308 378
#     4   9  19  36  59  85 119 155 199 250 300 360
#     4  11  21  39  61  87 123 165 208 249 309 375
#
# _framework density 19.431438
#
# number of rings (size 3 to 8) (size 9 to 14) (size 15 to 20)
#    0.000    1.818    2.727    1.364    0.000    2.545 
#    0.000    0.909    0.000    0.000    0.000    0.000 
#    0.000    0.000    0.000    0.000    0.000    0.000 
#
# Total GULP energy -545371.802166 kJ/mol
# GULP energy per Si atom -12394.813686 kJ/mol
# Density = 1.938721 g / cm^3
# Si number density = 19.431438 Si / 1000 Ang^3
#
#
#
# Elastic Constant Matrix: (Units=GPa)
#
#
# Indices 1 2 3 4 5 6 
#
# 1 127.7556 44.4459 39.5670 0.0000 0.0000 0.0000
# 2 44.4459 80.1200 25.2984 0.0000 0.0000 0.0000
# 3 39.5670 25.2984 88.7604 0.0000 0.0000 0.0000
# 4 0.0000 0.0000 0.0000 15.4656 0.0000 0.0000
# 5 0.0000 0.0000 0.0000 0.0000 74.7118 0.0000
# 6 0.0000 0.0000 0.0000 0.0000 0.0000 28.5154
#
#
#
# Elastic Compliance Matrix: (Units=1/GPa)
#
#
# Indices 1 2 3 4 5 6 
#
# 1 0.010523 -0.004787 -0.003326 0.000000 0.000000 0.000000
# 2 -0.004787 0.015894 -0.002396 0.000000 0.000000 0.000000
# 3 -0.003326 -0.002396 0.013432 0.000000 0.000000 0.000000
# 4 0.000000 0.000000 0.000000 0.064660 0.000000 0.000000
# 5 0.000000 0.000000 0.000000 0.000000 0.013385 0.000000
# 6 0.000000 0.000000 0.000000 0.000000 0.000000 0.035069
#
#
# Mechanical properties :
#
#
# Convention : Reuss Voigt Hill
#
# Bulk Modulus (GPa) = 53.10854 57.25094 55.17974
# Shear Modulus (GPa) = 27.73809 36.22687 31.98248
#
# Velocity S-wave (km/s) = 3.78231 4.32249 4.06139
# Velocity P-wave (km/s) = 6.81653 7.37827 7.10295
#
# Compressibility (1/GPa) = 0.01882936
#
# Stress axis : x y z
#
# Youngs Moduli (GPa) = 95.02840 62.91874 74.44897
#
# Poissons Ratio (x) = 0.30121 0.24765
# Poissons Ratio (y) = 0.45493 0.17837
# Poissons Ratio (z) = 0.31611 0.15075
#
# Static dielectric constant tensor:
#      x y z
#    x 4.416970 0.000000 0.000000 
#    y 0.000000 3.454720 0.000000 
#    z 0.000000 0.000000 3.650590 
# 
# 
# High freq. dielectric constant tensor:
#      x y z
#    x 1.778530 0.000000 0.000000 
#    y 0.000000 1.742640 0.000000 
#    z 0.000000 0.000000 1.752300 
# 
# From -- ./inp_files/26202.got.cif
#   From: 2010.03.12/outbox.cif.g09.slc.cpg/sg64_14_cif.got.tgz:26202.got - 2010.04.10 20:19:32.
