data_PCOD8263207
_publ_section_title
;
Structure prediction by ZEFSAII (Michael W. Deem and Ramdas Pophale) SiO2 
 PCOD8263207
Probable space group: C M C A
;
_chemical_formula_sum "Si O2"
_cell_formula_units_Z 112
_cell_length_a 14.107531
_cell_length_b 31.872145
_cell_length_c 12.799692
_cell_angle_alpha 90.000000
_cell_angle_beta 90.000000
_cell_angle_gamma 90.000000
_cell_volume 5755.218614
_symmetry_space_group_name_H-M "C M C A"
_symmetry_group_IT_number 64
_symmetry_cell_setting 'orthorhombic'
loop_
_space_group_symop_operation_xyz
x,y,z
-x,1/2-y,1/2+z
x,-y,-z
-x,1/2+y,1/2-z
-x,-y,-z
x,1/2+y,1/2-z
-x,y,z
x,1/2-y,1/2+z
1/2+x,1/2+y,z
1/2-x,-y,1/2+z
1/2+x,1/2-y,-z
1/2-x,y,1/2-z
1/2-x,1/2-y,-z
1/2+x,y,1/2-z
1/2-x,1/2+y,z
1/2+x,-y,1/2+z
loop_
_atom_site_type_symbol
_atom_site_label
_atom_site_fract_x
_atom_site_fract_y
_atom_site_fract_z
Si Si1 0.242098 0.385729 0.020393
Si Si2 0.609531 0.650988 0.352221
Si Si3 0.786466 0.975736 0.401110
Si Si4 0.108916 0.008431 0.202129
Si Si5 0.752376 0.700833 0.626691
Si Si6 0.389663 0.265035 0.535076
Si Si7 0.108190 0.103366 0.153154
O O1 0.158805 0.376945 0.939431
O O2 0.337338 0.393610 0.955450
O O3 0.212215 0.425858 0.087118
O O4 0.257718 0.348354 0.102264
O O5 0.500000 0.639154 0.360588
O O6 0.628037 0.700000 0.375075
O O7 0.645597 0.638503 0.235910
O O8 0.857197 0.987706 0.309057
O O9 0.677481 0.990460 0.387053
O O10 0.828376 0.000000 0.500000
O O11 0.000000 0.995990 0.178152
O O12 0.121877 0.058444 0.208364
O O13 0.750000 0.708272 0.750000
O O14 0.659252 0.721368 0.573812
O O15 0.845956 0.721996 0.577639
O O16 0.500000 0.258277 0.511174
O O17 0.000000 0.111740 0.123412
#
# Coordination Sequence:
#
# PCOD8263207 Si02
#       7
#    16  16  16  16  16  16  16
#     4  11  22  36  58  84 121 153 195 237 293 356
#     4   9  19  35  60  89 116 148 191 244 297 345
#     4  11  22  37  61  83 113 156 198 244 295 349
#     4  10  23  39  56  82 114 150 196 246 292 344
#     4  10  23  39  60  88 123 159 193 238 289 345
#     4   9  20  41  63  87 118 156 198 239 289 346
#     4  10  20  36  59  87 116 147 192 247 297 343
#
# _framework density 19.460599999999999
#
# number of rings (size 3 to 8) (size 9 to 14) (size 15 to 20)
#    0.000    2.000    1.429    1.286    4.000    6.286 
#    0.000    1.429    0.000    0.000    0.000    0.000 
#    0.000    0.000    0.000    0.000    0.000    0.000 
#
# Total GULP energy -694475.930084 kJ/mol
# GULP energy per Si atom -12401.355894 kJ/mol
# Density = 1.941631 g / cm^3
# Si number density = 19.460600 Si / 1000 Ang^3
#
#
#
# Elastic Constant Matrix: (Units=GPa)
#
#
# Indices 1 2 3 4 5 6 
#
# 1 77.4457 23.9346 11.2306 0.0000 0.0000 0.0000
# 2 23.9346 103.8658 31.7704 0.0000 0.0000 0.0000
# 3 11.2306 31.7704 89.1463 0.0000 0.0000 0.0000
# 4 0.0000 0.0000 0.0000 27.2835 0.0000 0.0000
# 5 0.0000 0.0000 0.0000 0.0000 23.0947 0.0000
# 6 0.0000 0.0000 0.0000 0.0000 0.0000 24.8678
#
#
#
# Elastic Compliance Matrix: (Units=1/GPa)
#
#
# Indices 1 2 3 4 5 6 
#
# 1 0.013940 -0.003002 -0.000686 0.000000 0.000000 0.000000
# 2 -0.003002 0.011452 -0.003703 0.000000 0.000000 0.000000
# 3 -0.000686 -0.003703 0.012624 0.000000 0.000000 0.000000
# 4 0.000000 0.000000 0.000000 0.036652 0.000000 0.000000
# 5 0.000000 0.000000 0.000000 0.000000 0.043300 0.000000
# 6 0.000000 0.000000 0.000000 0.000000 0.000000 0.040213
#
#
# Mechanical properties :
#
#
# Convention : Reuss Voigt Hill
#
# Bulk Modulus (GPa) = 43.04339 44.92546 43.98442
# Shear Modulus (GPa) = 27.66893 28.61734 28.14313
#
# Velocity S-wave (km/s) = 3.77476 3.83891 3.80697
# Velocity P-wave (km/s) = 6.41597 6.54103 6.47880
#
# Compressibility (1/GPa) = 0.02323237
#
# Stress axis : x y z
#
# Youngs Moduli (GPa) = 71.73783 87.31788 79.21589
#
# Poissons Ratio (x) = 0.26216 0.05435
# Poissons Ratio (y) = 0.21538 0.29335
# Poissons Ratio (z) = 0.04922 0.32336
#
# Static dielectric constant tensor:
#      x y z
#    x 3.615580 0.000000 0.000000 
#    y 0.000000 3.640120 0.000000 
#    z 0.000000 0.000000 3.407390 
# 
# 
# High freq. dielectric constant tensor:
#      x y z
#    x 1.761300 0.000000 0.000000 
#    y 0.000000 1.761970 0.000000 
#    z 0.000000 0.000000 1.753810 
# 
# From -- ./inp_files/14962.got.cif
#   From: 2010.03.12/outbox.cif.g09.slc.cpg/sg64_8_cif.got.tgz:14962.got - 2010.04.10 20:19:32.
