data_PCOD8263118
_publ_section_title
;
Structure prediction by ZEFSAII (Michael W. Deem and Ramdas Pophale) SiO2 
 PCOD8263118
Probable space group: C M C A
;
_chemical_formula_sum "Si O2"
_cell_formula_units_Z 112
_cell_length_a 15.394437
_cell_length_b 23.385907
_cell_length_c 15.693994
_cell_angle_alpha 90.000000
_cell_angle_beta 90.000000
_cell_angle_gamma 90.000000
_cell_volume 5650.039853
_symmetry_space_group_name_H-M "C M C A"
_symmetry_group_IT_number 64
_symmetry_cell_setting 'orthorhombic'
loop_
_space_group_symop_operation_xyz
x,y,z
-x,1/2-y,1/2+z
x,-y,-z
-x,1/2+y,1/2-z
-x,-y,-z
x,1/2+y,1/2-z
-x,y,z
x,1/2-y,1/2+z
1/2+x,1/2+y,z
1/2-x,-y,1/2+z
1/2+x,1/2-y,-z
1/2-x,y,1/2-z
1/2-x,1/2-y,-z
1/2+x,y,1/2-z
1/2-x,1/2+y,z
1/2+x,-y,1/2+z
loop_
_atom_site_type_symbol
_atom_site_label
_atom_site_fract_x
_atom_site_fract_y
_atom_site_fract_z
Si Si1 0.100700 0.392676 0.207940
Si Si2 0.271620 0.952970 0.561407
Si Si3 0.907238 0.563570 0.126532
Si Si4 0.904008 0.992260 0.801894
Si Si5 0.402117 0.692024 0.420614
Si Si6 0.326385 0.209936 0.688427
Si Si7 0.216117 0.646035 0.944616
O O1 0.130931 0.445759 0.268160
O O2 0.112999 0.333754 0.259274
O O3 0.156265 0.391544 0.120149
O O4 0.000000 0.400883 0.182896
O O5 0.172962 0.970769 0.586047
O O6 0.268691 0.892517 0.512795
O O7 0.311372 0.000000 0.500000
O O8 0.336053 0.956933 0.641045
O O9 0.914986 0.550225 0.224553
O O10 0.889479 0.630590 0.121394
O O11 0.000000 0.547794 0.081518
O O12 0.000000 0.000110 0.845295
O O13 0.500000 0.703647 0.451363
O O14 0.379798 0.736738 0.346377
O O15 0.341811 0.693194 0.505101
O O16 0.250000 0.232304 0.750000
O O17 0.289563 0.178428 0.606262
#
# Coordination Sequence:
#
# PCOD8263118 Si02
#       7
#    16  16  16  16  16  16  16
#     4  10  20  37  60  83 110 148 192 236 283 339
#     4  11  21  33  54  80 110 144 177 224 281 333
#     4   9  20  36  55  79 105 139 182 228 278 332
#     4  10  21  37  56  80 112 147 186 229 274 337
#     4  10  20  36  56  79 109 142 181 230 282 333
#     4  10  21  36  56  81 110 146 189 231 277 338
#     4  10  21  35  54  82 113 143 183 231 283 338
#
# _framework density 19.822869000000001
#
# number of rings (size 3 to 8) (size 9 to 14) (size 15 to 20)
#    0.000    2.000    0.000    3.429    0.000    5.714 
#    0.000    1.429    0.000    3.429    0.000    0.000 
#    0.000    0.000    0.000    0.000    0.000    0.000 
#
# Total GULP energy -693979.791124 kJ/mol
# GULP energy per Si atom -12392.496270 kJ/mol
# Density = 1.977775 g / cm^3
# Si number density = 19.822869 Si / 1000 Ang^3
#
#
#
# Elastic Constant Matrix: (Units=GPa)
#
#
# Indices 1 2 3 4 5 6 
#
# 1 66.2478 18.6125 15.3529 0.0000 0.0000 0.0000
# 2 18.6125 45.0069 25.0252 0.0000 0.0000 0.0000
# 3 15.3529 25.0252 68.2699 0.0000 0.0000 0.0000
# 4 0.0000 0.0000 0.0000 39.1752 0.0000 0.0000
# 5 0.0000 0.0000 0.0000 0.0000 16.8342 0.0000
# 6 0.0000 0.0000 0.0000 0.0000 0.0000 24.5790
#
#
#
# Elastic Compliance Matrix: (Units=1/GPa)
#
#
# Indices 1 2 3 4 5 6 
#
# 1 0.017215 -0.006238 -0.001585 0.000000 0.000000 0.000000
# 2 -0.006238 0.030167 -0.009655 0.000000 0.000000 0.000000
# 3 -0.001585 -0.009655 0.018543 0.000000 0.000000 0.000000
# 4 0.000000 0.000000 0.000000 0.025526 0.000000 0.000000
# 5 0.000000 0.000000 0.000000 0.000000 0.059403 0.000000
# 6 0.000000 0.000000 0.000000 0.000000 0.000000 0.040685
#
#
# Mechanical properties :
#
#
# Convention : Reuss Voigt Hill
#
# Bulk Modulus (GPa) = 32.29010 33.05619 32.67315
# Shear Modulus (GPa) = 21.11319 24.15328 22.63324
#
# Velocity S-wave (km/s) = 3.26712 3.49443 3.38268
# Velocity P-wave (km/s) = 5.52782 5.74398 5.63694
#
# Compressibility (1/GPa) = 0.03096925
#
# Stress axis : x y z
#
# Youngs Moduli (GPa) = 58.09006 33.14866 53.92750
#
# Poissons Ratio (x) = 0.20678 0.08546
# Poissons Ratio (y) = 0.36236 0.52069
# Poissons Ratio (z) = 0.09206 0.32006
#
# Static dielectric constant tensor:
#      x y z
#    x 3.857700 0.000000 0.000000 
#    y 0.000000 3.522940 0.000000 
#    z 0.000000 0.000000 3.619710 
# 
# 
# High freq. dielectric constant tensor:
#      x y z
#    x 1.779590 0.000000 0.000000 
#    y 0.000000 1.762930 0.000000 
#    z 0.000000 0.000000 1.771470 
# 
# From -- ./inp_files/24227.got.cif
#   From: 2010.03.12/outbox.cif.g09.slc.cpg/sg64_13_cif.got.tgz:24227.got - 2010.04.10 20:19:32.
