data_PCOD8263553
_publ_section_title
;
Structure prediction by ZEFSAII (Michael W. Deem and Ramdas Pophale) SiO2 
 PCOD8263553
Probable space group: C M C A
;
_chemical_formula_sum "Si O2"
_cell_formula_units_Z 88
_cell_length_a 9.431002
_cell_length_b 15.981509
_cell_length_c 27.427736
_cell_angle_alpha 90.000000
_cell_angle_beta 90.000000
_cell_angle_gamma 90.000000
_cell_volume 4133.953443
_symmetry_space_group_name_H-M "C M C A"
_symmetry_group_IT_number 64
_symmetry_cell_setting 'orthorhombic'
loop_
_space_group_symop_operation_xyz
x,y,z
-x,1/2-y,1/2+z
x,-y,-z
-x,1/2+y,1/2-z
-x,-y,-z
x,1/2+y,1/2-z
-x,y,z
x,1/2-y,1/2+z
1/2+x,1/2+y,z
1/2-x,-y,1/2+z
1/2+x,1/2-y,-z
1/2-x,y,1/2-z
1/2-x,1/2-y,-z
1/2+x,y,1/2-z
1/2-x,1/2+y,z
1/2+x,-y,1/2+z
loop_
_atom_site_type_symbol
_atom_site_label
_atom_site_fract_x
_atom_site_fract_y
_atom_site_fract_z
Si Si1 0.000000 0.554084 0.222622
Si Si2 0.500000 0.880806 0.313279
Si Si3 0.000000 0.565746 0.335164
Si Si4 0.750000 0.442610 0.250000
Si Si5 0.754261 0.109723 0.098497
Si Si6 0.500000 0.197922 0.141782
Si Si7 0.847449 0.545836 0.948646
Si Si8 0.840913 0.831204 0.004029
O O1 0.854276 0.500034 0.215848
O O2 0.000000 0.633917 0.187373
O O3 0.000000 0.585991 0.278199
O O4 0.354476 0.883803 0.281655
O O5 0.500000 0.794900 0.343135
O O6 0.500000 0.965459 0.346116
O O7 0.137147 0.610019 0.357215
O O8 0.638087 0.181554 0.108462
O O9 0.837414 0.122629 0.047904
O O10 0.679518 0.019122 0.095062
O O11 0.000000 0.589618 0.938316
O O12 0.857216 0.500000 0.000000
O O13 0.722957 0.613861 0.951790
O O14 0.000000 0.809026 0.018974
O O15 0.750000 0.750000 0.000000
#
# Coordination Sequence:
#
# PCOD8263553 Si02
#       8
#     8   8   8   8  16   8  16  16
#     4  10  20  40  66  90 123 173 217 253 321 382
#     4  10  22  38  62  93 123 157 212 272 323 364
#     4  10  22  42  64  91 129 172 220 268 307 396
#     4   8  18  40  64  86 118 164 216 260 310 392
#     4  11  23  40  63  90 129 167 217 256 319 388
#     4  12  24  38  64  98 130 170 212 273 318 374
#     4   9  19  37  61  87 117 161 207 252 309 386
#     4  11  24  40  65  93 127 166 209 270 329 383
#
# _framework density 21.287127999999999
#
# number of rings (size 3 to 8) (size 9 to 14) (size 15 to 20)
#    0.000    2.000    1.818    2.727    3.818    4.727 
#    0.000    0.909    0.000    0.000    0.000    0.000 
#    0.000    0.000    0.000    0.000    0.000    0.000 
#
# Total GULP energy -545378.458712 kJ/mol
# GULP energy per Si atom -12394.964971 kJ/mol
# Density = 2.123868 g / cm^3
# Si number density = 21.287128 Si / 1000 Ang^3
#
#
#
# Elastic Constant Matrix: (Units=GPa)
#
#
# Indices 1 2 3 4 5 6 
#
# 1 169.5809 24.7324 4.8420 0.0000 0.0000 0.0000
# 2 24.7324 70.7532 -16.0339 0.0000 0.0000 0.0000
# 3 4.8420 -16.0339 28.7878 0.0000 0.0000 0.0000
# 4 0.0000 0.0000 0.0000 30.6945 0.0000 0.0000
# 5 0.0000 0.0000 0.0000 0.0000 27.0094 0.0000
# 6 0.0000 0.0000 0.0000 0.0000 0.0000 31.9861
#
#
#
# Elastic Compliance Matrix: (Units=1/GPa)
#
#
# Indices 1 2 3 4 5 6 
#
# 1 0.006386 -0.002833 -0.002652 0.000000 0.000000 0.000000
# 2 -0.002833 0.017432 0.010186 0.000000 0.000000 0.000000
# 3 -0.002652 0.010186 0.040856 0.000000 0.000000 0.000000
# 4 0.000000 0.000000 0.000000 0.032579 0.000000 0.000000
# 5 0.000000 0.000000 0.000000 0.000000 0.037024 0.000000
# 6 0.000000 0.000000 0.000000 0.000000 0.000000 0.031264
#
#
# Mechanical properties :
#
#
# Convention : Reuss Voigt Hill
#
# Bulk Modulus (GPa) = 13.49983 32.91143 23.20563
# Shear Modulus (GPa) = 27.65001 34.97678 31.31340
#
# Velocity S-wave (km/s) = 3.60795 4.05791 3.83952
# Velocity P-wave (km/s) = 4.86949 6.11962 5.53000
#
# Compressibility (1/GPa) = 0.07407502
#
# Stress axis : x y z
#
# Youngs Moduli (GPa) = 156.59688 57.36486 24.47618
#
# Poissons Ratio (x) = 0.16253 0.06491
# Poissons Ratio (y) = 0.44367 -0.24931
# Poissons Ratio (z) = 0.41531 -0.58430
#
# Static dielectric constant tensor:
#      x y z
#    x 4.530760 0.000000 0.000000 
#    y 0.000000 3.759960 0.000000 
#    z 0.000000 0.000000 3.783640 
# 
# 
# High freq. dielectric constant tensor:
#      x y z
#    x 1.860030 0.000000 0.000000 
#    y 0.000000 1.811590 0.000000 
#    z 0.000000 0.000000 1.819600 
# 
# From -- ./inp_files/51922.got.cif
#   From: 2010.03.12/outbox.cif.g09.slc.cpg/sg64_26_cif.got.tgz:51922.got - 2010.04.10 20:19:32.
