data_PCOD8263634
_publ_section_title
;
Structure prediction by ZEFSAII (Michael W. Deem and Ramdas Pophale) SiO2 
 PCOD8263634
Probable space group: C M C A
;
_chemical_formula_sum "Si O2"
_cell_formula_units_Z 112
_cell_length_a 13.731017
_cell_length_b 28.768617
_cell_length_c 14.435935
_cell_angle_alpha 90.000000
_cell_angle_beta 90.000000
_cell_angle_gamma 90.000000
_cell_volume 5702.517244
_symmetry_space_group_name_H-M "C M C A"
_symmetry_group_IT_number 64
_symmetry_cell_setting 'orthorhombic'
loop_
_space_group_symop_operation_xyz
x,y,z
-x,1/2-y,1/2+z
x,-y,-z
-x,1/2+y,1/2-z
-x,-y,-z
x,1/2+y,1/2-z
-x,y,z
x,1/2-y,1/2+z
1/2+x,1/2+y,z
1/2-x,-y,1/2+z
1/2+x,1/2-y,-z
1/2-x,y,1/2-z
1/2-x,1/2-y,-z
1/2+x,y,1/2-z
1/2-x,1/2+y,z
1/2+x,-y,1/2+z
loop_
_atom_site_type_symbol
_atom_site_label
_atom_site_fract_x
_atom_site_fract_y
_atom_site_fract_z
Si Si1 0.615451 0.207691 0.490751
Si Si2 0.883929 0.697794 0.089172
Si Si3 0.756366 0.125368 0.004638
Si Si4 0.107588 0.591021 0.340132
Si Si5 0.611535 0.494060 0.237709
Si Si6 0.608546 0.192318 0.288410
Si Si7 0.263431 0.032749 0.908429
O O1 0.500000 0.198117 0.494753
O O2 0.645171 0.257062 0.530863
O O3 0.670372 0.164326 0.539884
O O4 0.658696 0.207408 0.385038
O O5 0.837671 0.651748 0.045454
O O6 0.841415 0.708769 0.192808
O O7 0.000000 0.690112 0.092686
O O8 0.812309 0.094141 0.080169
O O9 0.720902 0.087442 0.930698
O O10 0.130137 0.549123 0.270761
O O11 0.108786 0.636844 0.277812
O O12 0.000000 0.584733 0.385836
O O13 0.500000 0.479241 0.231745
O O14 0.649730 0.480454 0.338921
O O15 0.663203 0.470478 0.149256
O O16 0.500000 0.213232 0.292686
O O17 0.263813 0.000000 0.000000
#
# Coordination Sequence:
#
# PCOD8263634 Si02
#       7
#    16  16  16  16  16  16  16
#     4   9  19  37  57  83 115 147 199 253 297 357
#     4  10  21  35  55  85 119 154 195 242 303 372
#     4  11  21  36  59  86 118 156 194 252 305 357
#     4   9  18  34  59  86 108 146 204 259 303 349
#     4  10  23  42  63  86 123 169 211 255 311 366
#     4   8  16  31  52  79 108 139 185 245 295 342
#     4  11  24  40  59  92 128 157 206 258 306 369
#
# _framework density 19.640450000000001
#
# number of rings (size 3 to 8) (size 9 to 14) (size 15 to 20)
#    0.000    2.286    1.429    1.714    2.000    4.571 
#    0.000    2.857    0.000    1.714    0.000    0.000 
#    0.000    0.000    0.000    0.000    0.000    0.000 
#
# Total GULP energy -693965.706670 kJ/mol
# GULP energy per Si atom -12392.244762 kJ/mol
# Density = 1.959575 g / cm^3
# Si number density = 19.640450 Si / 1000 Ang^3
#
#
#
# Elastic Constant Matrix: (Units=GPa)
#
#
# Indices 1 2 3 4 5 6 
#
# 1 61.5512 34.8345 29.4135 0.0000 0.0000 0.0000
# 2 34.8345 131.6208 76.2207 0.0000 0.0000 0.0000
# 3 29.4135 76.2207 113.1116 0.0000 0.0000 0.0000
# 4 0.0000 0.0000 0.0000 32.5918 0.0000 0.0000
# 5 0.0000 0.0000 0.0000 0.0000 26.4629 0.0000
# 6 0.0000 0.0000 0.0000 0.0000 0.0000 29.6485
#
#
#
# Elastic Compliance Matrix: (Units=1/GPa)
#
#
# Indices 1 2 3 4 5 6 
#
# 1 0.019572 -0.003661 -0.002622 0.000000 0.000000 0.000000
# 2 -0.003661 0.013145 -0.007905 0.000000 0.000000 0.000000
# 3 -0.002622 -0.007905 0.014850 0.000000 0.000000 0.000000
# 4 0.000000 0.000000 0.000000 0.030683 0.000000 0.000000
# 5 0.000000 0.000000 0.000000 0.000000 0.037789 0.000000
# 6 0.000000 0.000000 0.000000 0.000000 0.000000 0.033728
#
#
# Mechanical properties :
#
#
# Convention : Reuss Voigt Hill
#
# Bulk Modulus (GPa) = 52.11534 65.24678 58.68106
# Shear Modulus (GPa) = 27.09438 28.79496 27.94467
#
# Velocity S-wave (km/s) = 3.71822 3.83313 3.77611
# Velocity P-wave (km/s) = 6.71013 7.27209 6.99675
#
# Compressibility (1/GPa) = 0.01918821
#
# Stress axis : x y z
#
# Youngs Moduli (GPa) = 51.09381 76.07720 67.34092
#
# Poissons Ratio (x) = 0.27854 0.17659
# Poissons Ratio (y) = 0.18707 0.53236
# Poissons Ratio (z) = 0.13398 0.60142
#
# Static dielectric constant tensor:
#      x y z
#    x 3.664410 0.000000 0.000000 
#    y 0.000000 3.563520 0.000000 
#    z 0.000000 0.000000 3.555770 
# 
# 
# High freq. dielectric constant tensor:
#      x y z
#    x 1.776920 0.000000 0.000000 
#    y 0.000000 1.756990 0.000000 
#    z 0.000000 0.000000 1.750570 
# 
# From -- ./inp_files/24366.got.cif
#   From: 2010.03.12/outbox.cif.g09.slc.cpg/sg64_13_cif.got.tgz:24366.got - 2010.04.10 20:19:32.
