data_PCOD8263523
_publ_section_title
;
Structure prediction by ZEFSAII (Michael W. Deem and Ramdas Pophale) SiO2 
 PCOD8263523
Probable space group: C M C A
;
_chemical_formula_sum "Si O2"
_cell_formula_units_Z 64
_cell_length_a 9.293865
_cell_length_b 36.497585
_cell_length_c 9.552519
_cell_angle_alpha 90.000000
_cell_angle_beta 90.000000
_cell_angle_gamma 90.000000
_cell_volume 3240.249100
_symmetry_space_group_name_H-M "C M C A"
_symmetry_group_IT_number 64
_symmetry_cell_setting 'orthorhombic'
loop_
_space_group_symop_operation_xyz
x,y,z
-x,1/2-y,1/2+z
x,-y,-z
-x,1/2+y,1/2-z
-x,-y,-z
x,1/2+y,1/2-z
-x,y,z
x,1/2-y,1/2+z
1/2+x,1/2+y,z
1/2-x,-y,1/2+z
1/2+x,1/2-y,-z
1/2-x,y,1/2-z
1/2-x,1/2-y,-z
1/2+x,y,1/2-z
1/2-x,1/2+y,z
1/2+x,-y,1/2+z
loop_
_atom_site_type_symbol
_atom_site_label
_atom_site_fract_x
_atom_site_fract_y
_atom_site_fract_z
Si Si1 0.000000 0.794140 0.972955
Si Si2 0.835856 0.896266 0.387472
Si Si3 0.500000 0.774655 0.840741
Si Si4 0.773859 0.166300 0.406182
Si Si5 0.829289 0.967675 0.106562
O O1 0.000000 0.771746 0.827348
O O2 0.130671 0.822147 0.985576
O O3 0.000000 0.766436 0.102251
O O4 0.750000 0.882391 0.250000
O O5 0.849277 0.864830 0.503407
O O6 0.746603 0.930624 0.450541
O O7 0.000000 0.907627 0.347896
O O8 0.637320 0.796276 0.896080
O O9 0.750000 0.150340 0.250000
O O10 0.750000 0.978383 0.250000
O O11 0.000000 0.961645 0.127740
O O12 0.797548 0.000000 0.000000
#
# Coordination Sequence:
#
# PCOD8263523 Si02
#       5
#     8  16   8  16  16
#     4  10  22  34  62  80 117 150 191 244 295 352
#     4  11  23  39  61  88 120 155 197 244 291 347
#     4  10  20  40  54  86 113 150 195 242 295 352
#     4  10  22  39  58  85 117 155 196 243 294 350
#     4  10  22  40  62  91 123 156 197 240 287 345
#
# _framework density 19.751567000000001
#
# number of rings (size 3 to 8) (size 9 to 14) (size 15 to 20)
#    0.000    1.750    1.250    3.750    3.500    5.000 
#    0.000    2.500    0.000    0.000    0.000    0.000 
#    0.000    0.000    0.000    0.000    0.000    0.000 
#
# Total GULP energy -396708.526723 kJ/mol
# GULP energy per Si atom -12397.141460 kJ/mol
# Density = 1.970661 g / cm^3
# Si number density = 19.751567 Si / 1000 Ang^3
#
#
#
# Elastic Constant Matrix: (Units=GPa)
#
#
# Indices 1 2 3 4 5 6 
#
# 1 136.9203 21.9455 20.6582 0.0000 0.0000 0.0000
# 2 21.9455 80.4482 47.0128 0.0000 0.0000 0.0000
# 3 20.6582 47.0128 63.1165 0.0000 0.0000 0.0000
# 4 0.0000 0.0000 0.0000 46.7538 0.0000 0.0000
# 5 0.0000 0.0000 0.0000 0.0000 30.8251 0.0000
# 6 0.0000 0.0000 0.0000 0.0000 0.0000 54.6246
#
#
#
# Elastic Compliance Matrix: (Units=1/GPa)
#
#
# Indices 1 2 3 4 5 6 
#
# 1 0.007739 -0.001117 -0.001701 0.000000 0.000000 0.000000
# 2 -0.001117 0.022173 -0.016150 0.000000 0.000000 0.000000
# 3 -0.001701 -0.016150 0.028430 0.000000 0.000000 0.000000
# 4 0.000000 0.000000 0.000000 0.021389 0.000000 0.000000
# 5 0.000000 0.000000 0.000000 0.000000 0.032441 0.000000
# 6 0.000000 0.000000 0.000000 0.000000 0.000000 0.018307
#
#
# Mechanical properties :
#
#
# Convention : Reuss Voigt Hill
#
# Bulk Modulus (GPa) = 49.00570 51.07979 50.04275
# Shear Modulus (GPa) = 28.53607 39.16528 33.85068
#
# Velocity S-wave (km/s) = 3.80511 4.45780 4.14432
# Velocity P-wave (km/s) = 6.64606 7.23970 6.94922
#
# Compressibility (1/GPa) = 0.02040579
#
# Stress axis : x y z
#
# Youngs Moduli (GPa) = 129.21218 45.09995 35.17421
#
# Poissons Ratio (x) = 0.05038 0.05983
# Poissons Ratio (y) = 0.14435 0.56807
# Poissons Ratio (z) = 0.21978 0.72837
#
# Static dielectric constant tensor:
#      x y z
#    x 3.926840 0.000000 0.000000 
#    y 0.000000 3.398260 0.000000 
#    z 0.000000 0.000000 3.461440 
# 
# 
# High freq. dielectric constant tensor:
#      x y z
#    x 1.795890 0.000000 0.000000 
#    y 0.000000 1.761990 0.000000 
#    z 0.000000 0.000000 1.761680 
# 
# From -- ./inp_files/12157.got.cif
#   From: 2010.03.12/outbox.cif.g09.slc.cpg/sg64_7_cif.got.tgz:12157.got - 2010.04.10 20:19:32.
