data_PCOD8263572
_publ_section_title
;
Structure prediction by ZEFSAII (Michael W. Deem and Ramdas Pophale) SiO2 
 PCOD8263572
Probable space group: C M C A
;
_chemical_formula_sum "Si O2"
_cell_formula_units_Z 96
_cell_length_a 21.923254
_cell_length_b 13.652174
_cell_length_c 14.989182
_cell_angle_alpha 90.000000
_cell_angle_beta 90.000000
_cell_angle_gamma 90.000000
_cell_volume 4486.263346
_symmetry_space_group_name_H-M "C M C A"
_symmetry_group_IT_number 64
_symmetry_cell_setting 'orthorhombic'
loop_
_space_group_symop_operation_xyz
x,y,z
-x,1/2-y,1/2+z
x,-y,-z
-x,1/2+y,1/2-z
-x,-y,-z
x,1/2+y,1/2-z
-x,y,z
x,1/2-y,1/2+z
1/2+x,1/2+y,z
1/2-x,-y,1/2+z
1/2+x,1/2-y,-z
1/2-x,y,1/2-z
1/2-x,1/2-y,-z
1/2+x,y,1/2-z
1/2-x,1/2+y,z
1/2+x,-y,1/2+z
loop_
_atom_site_type_symbol
_atom_site_label
_atom_site_fract_x
_atom_site_fract_y
_atom_site_fract_z
Si Si1 0.067462 0.326928 0.275419
Si Si2 0.277712 0.553099 0.913552
Si Si3 0.393434 0.967440 0.677206
Si Si4 0.430988 0.229524 0.407009
Si Si5 0.657270 0.753922 0.424797
Si Si6 0.299758 0.585561 0.315861
O O1 0.063595 0.443483 0.292232
O O2 0.086707 0.302831 0.173517
O O3 0.114628 0.276493 0.341012
O O4 0.000000 0.283255 0.292658
O O5 0.343049 0.507272 0.890376
O O6 0.286629 0.668786 0.928585
O O7 0.227323 0.522970 0.839411
O O8 0.252635 0.500000 0.000000
O O9 0.430337 0.882888 0.626443
O O10 0.363952 0.924326 0.766815
O O11 0.500000 0.250296 0.441674
O O12 0.381980 0.248389 0.484859
O O13 0.689668 0.650170 0.405043
O O14 0.250000 0.637266 0.250000
#
# Coordination Sequence:
#
# PCOD8263572 Si02
#       6
#    16  16  16  16  16  16
#     4  10  22  38  63  92 123 164 205 254 315 369
#     4  10  21  38  57  88 118 157 209 251 300 367
#     4  10  20  41  60  87 127 162 204 256 310 364
#     4  11  22  39  66  97 123 158 211 257 310 377
#     4  11  22  40  66  89 128 162 205 264 308 365
#     4  10  23  40  60  89 125 169 208 247 314 375
#
# _framework density 21.398654000000001
#
# number of rings (size 3 to 8) (size 9 to 14) (size 15 to 20)
#    0.000    1.667    3.333    1.000    0.000    5.333 
#    0.000    2.500    0.000    2.000    0.000    0.000 
#    0.000    0.000    0.000    0.000    0.000    0.000 
#
# Total GULP energy -595003.877984 kJ/mol
# GULP energy per Si atom -12395.914125 kJ/mol
# Density = 2.134995 g / cm^3
# Si number density = 21.398654 Si / 1000 Ang^3
#
#
#
# Elastic Constant Matrix: (Units=GPa)
#
#
# Indices 1 2 3 4 5 6 
#
# 1 65.1491 16.9013 31.0229 0.0000 0.0000 0.0000
# 2 16.9013 77.9160 33.4465 0.0000 0.0000 0.0000
# 3 31.0229 33.4465 109.1097 0.0000 0.0000 0.0000
# 4 0.0000 0.0000 0.0000 28.7744 0.0000 0.0000
# 5 0.0000 0.0000 0.0000 0.0000 19.6249 0.0000
# 6 0.0000 0.0000 0.0000 0.0000 0.0000 21.5722
#
#
#
# Elastic Compliance Matrix: (Units=1/GPa)
#
#
# Indices 1 2 3 4 5 6 
#
# 1 0.018011 -0.001968 -0.004518 0.000000 0.000000 0.000000
# 2 -0.001968 0.014994 -0.004037 0.000000 0.000000 0.000000
# 3 -0.004518 -0.004037 0.011687 0.000000 0.000000 0.000000
# 4 0.000000 0.000000 0.000000 0.034753 0.000000 0.000000
# 5 0.000000 0.000000 0.000000 0.000000 0.050956 0.000000
# 6 0.000000 0.000000 0.000000 0.000000 0.000000 0.046356
#
#
# Mechanical properties :
#
#
# Convention : Reuss Voigt Hill
#
# Bulk Modulus (GPa) = 42.28745 46.10178 44.19461
# Shear Modulus (GPa) = 24.30911 25.38125 24.84518
#
# Velocity S-wave (km/s) = 3.37413 3.44774 3.41113
# Velocity P-wave (km/s) = 5.91476 6.11884 6.01766
#
# Compressibility (1/GPa) = 0.02364768
#
# Stress axis : x y z
#
# Youngs Moduli (GPa) = 55.52097 66.69339 85.56435
#
# Poissons Ratio (x) = 0.13122 0.38658
# Poissons Ratio (y) = 0.10924 0.34541
# Poissons Ratio (z) = 0.25084 0.26923
#
# Static dielectric constant tensor:
#      x y z
#    x 3.687530 0.000000 0.000000 
#    y 0.000000 3.925550 0.000000 
#    z 0.000000 0.000000 3.881200 
# 
# 
# High freq. dielectric constant tensor:
#      x y z
#    x 1.834480 0.000000 0.000000 
#    y 0.000000 1.828920 0.000000 
#    z 0.000000 0.000000 1.845050 
# 
# From -- ./inp_files/34963.got.cif
#   From: 2010.03.12/outbox.cif.g09.slc.cpg/sg64_18_cif.got.tgz:34963.got - 2010.04.10 20:19:32.
