data_PCOD8263570
_publ_section_title
;
Structure prediction by ZEFSAII (Michael W. Deem and Ramdas Pophale) SiO2 
 PCOD8263570
Probable space group: C M C A
;
_chemical_formula_sum "Si O2"
_cell_formula_units_Z 88
_cell_length_a 28.094901
_cell_length_b 11.429365
_cell_length_c 12.760716
_cell_angle_alpha 90.000000
_cell_angle_beta 90.000000
_cell_angle_gamma 90.000000
_cell_volume 4097.553678
_symmetry_space_group_name_H-M "C M C A"
_symmetry_group_IT_number 64
_symmetry_cell_setting 'orthorhombic'
loop_
_space_group_symop_operation_xyz
x,y,z
-x,1/2-y,1/2+z
x,-y,-z
-x,1/2+y,1/2-z
-x,-y,-z
x,1/2+y,1/2-z
-x,y,z
x,1/2-y,1/2+z
1/2+x,1/2+y,z
1/2-x,-y,1/2+z
1/2+x,1/2-y,-z
1/2-x,y,1/2-z
1/2-x,1/2-y,-z
1/2+x,y,1/2-z
1/2-x,1/2+y,z
1/2+x,-y,1/2+z
loop_
_atom_site_type_symbol
_atom_site_label
_atom_site_fract_x
_atom_site_fract_y
_atom_site_fract_z
Si Si1 0.818178 0.400762 0.579367
Si Si2 0.500000 0.061669 0.680652
Si Si3 0.000000 0.827019 0.679542
Si Si4 0.250000 0.681076 0.250000
Si Si5 0.091730 0.932440 0.607512
Si Si6 0.398733 0.537049 0.828406
Si Si7 0.831762 0.745186 0.608056
O O1 0.800204 0.500000 0.500000
O O2 0.781954 0.399989 0.675526
O O3 0.871718 0.425615 0.621546
O O4 0.819431 0.280027 0.514028
O O5 0.500000 0.195638 0.732367
O O6 0.549507 0.053585 0.615236
O O7 0.500000 0.942859 0.748982
O O8 0.048529 0.838413 0.611759
O O9 0.215928 0.759581 0.177639
O O10 0.143016 0.870118 0.612204
O O11 0.085892 0.000000 0.500000
O O12 0.090789 0.022632 0.704666
O O13 0.366337 0.649110 0.843777
#
# Coordination Sequence:
#
# PCOD8263570 Si02
#       7
#    16   8   8   8  16  16  16
#     4  10  24  44  66  98 134 173 232 285 350 422
#     4  10  20  40  76  99 144 189 240 285 365 428
#     4  10  21  42  67 108 139 189 237 293 351 442
#     4  12  24  44  70  96 132 186 232 294 360 418
#     4  11  23  39  68 100 139 178 229 286 358 417
#     4  10  22  44  67  97 137 182 225 289 348 433
#     4  11  24  43  67  96 135 176 233 291 346 426
#
# _framework density 21.476229
#
# number of rings (size 3 to 8) (size 9 to 14) (size 15 to 20)
#    0.000    1.455    3.636    0.818    2.545    3.636 
#    3.273    5.000    0.000    0.000    0.000    0.000 
#    0.000    0.000    0.000    0.000    0.000    0.000 
#
# Total GULP energy -545139.481981 kJ/mol
# GULP energy per Si atom -12389.533681 kJ/mol
# Density = 2.142735 g / cm^3
# Si number density = 21.476229 Si / 1000 Ang^3
#
#
#
# Elastic Constant Matrix: (Units=GPa)
#
#
# Indices 1 2 3 4 5 6 
#
# 1 184.5889 50.3731 51.4438 0.0000 0.0000 0.0000
# 2 50.3731 89.0704 32.3016 0.0000 0.0000 0.0000
# 3 51.4438 32.3016 107.9415 0.0000 0.0000 0.0000
# 4 0.0000 0.0000 0.0000 36.1807 0.0000 0.0000
# 5 0.0000 0.0000 0.0000 0.0000 10.6089 0.0000
# 6 0.0000 0.0000 0.0000 0.0000 0.0000 32.0274
#
#
#
# Elastic Compliance Matrix: (Units=1/GPa)
#
#
# Indices 1 2 3 4 5 6 
#
# 1 0.006913 -0.003045 -0.002383 0.000000 0.000000 0.000000
# 2 -0.003045 0.013935 -0.002719 0.000000 0.000000 0.000000
# 3 -0.002383 -0.002719 0.011214 0.000000 0.000000 0.000000
# 4 0.000000 0.000000 0.000000 0.027639 0.000000 0.000000
# 5 0.000000 0.000000 0.000000 0.000000 0.094261 0.000000
# 6 0.000000 0.000000 0.000000 0.000000 0.000000 0.031223
#
#
# Mechanical properties :
#
#
# Convention : Reuss Voigt Hill
#
# Bulk Modulus (GPa) = 63.42292 72.20419 67.81355
# Shear Modulus (GPa) = 24.18561 32.26223 28.22392
#
# Velocity S-wave (km/s) = 3.35947 3.88007 3.62911
# Velocity P-wave (km/s) = 6.68160 7.33258 7.01465
#
# Compressibility (1/GPa) = 0.01576717
#
# Stress axis : x y z
#
# Youngs Moduli (GPa) = 144.66285 71.76065 89.17646
#
# Poissons Ratio (x) = 0.21852 0.21253
# Poissons Ratio (y) = 0.44051 0.24246
# Poissons Ratio (z) = 0.34477 0.19511
#
# Static dielectric constant tensor:
#      x y z
#    x 4.565430 0.000000 0.000000 
#    y 0.000000 3.827800 0.000000 
#    z 0.000000 0.000000 3.860750 
# 
# 
# High freq. dielectric constant tensor:
#      x y z
#    x 1.868690 0.000000 0.000000 
#    y 0.000000 1.832370 0.000000 
#    z 0.000000 0.000000 1.824330 
# 
# From -- ./inp_files/19733.got.cif
#   From: 2010.03.12/outbox.cif.g09.slc.cpg/sg64_10_cif.got.tgz:19733.got - 2010.04.10 20:19:32.
