data_PCOD8263182
_publ_section_title
;
Structure prediction by ZEFSAII (Michael W. Deem and Ramdas Pophale) SiO2 
 PCOD8263182
Probable space group: C M C A
;
_chemical_formula_sum "Si O2"
_cell_formula_units_Z 112
_cell_length_a 23.032097
_cell_length_b 12.373039
_cell_length_c 18.090670
_cell_angle_alpha 90.000000
_cell_angle_beta 90.000000
_cell_angle_gamma 90.000000
_cell_volume 5155.425488
_symmetry_space_group_name_H-M "C M C A"
_symmetry_group_IT_number 64
_symmetry_cell_setting 'orthorhombic'
loop_
_space_group_symop_operation_xyz
x,y,z
-x,1/2-y,1/2+z
x,-y,-z
-x,1/2+y,1/2-z
-x,-y,-z
x,1/2+y,1/2-z
-x,y,z
x,1/2-y,1/2+z
1/2+x,1/2+y,z
1/2-x,-y,1/2+z
1/2+x,1/2-y,-z
1/2-x,y,1/2-z
1/2-x,1/2-y,-z
1/2+x,y,1/2-z
1/2-x,1/2+y,z
1/2+x,-y,1/2+z
loop_
_atom_site_type_symbol
_atom_site_label
_atom_site_fract_x
_atom_site_fract_y
_atom_site_fract_z
Si Si1 0.641511 0.171054 0.232870
Si Si2 0.729818 0.510623 0.326060
Si Si3 0.091063 0.174476 0.879518
Si Si4 0.067349 0.190244 0.047734
Si Si5 0.365814 0.151532 0.850681
Si Si6 0.562174 0.482680 0.240720
Si Si7 0.837046 0.013578 0.080032
O O1 0.602836 0.215585 0.164958
O O2 0.658061 0.261070 0.292431
O O3 0.697784 0.120832 0.195707
O O4 0.606059 0.079815 0.278968
O O5 0.750000 0.452042 0.250000
O O6 0.688902 0.426384 0.371901
O O7 0.785386 0.558529 0.369402
O O8 0.051824 0.096862 0.828552
O O9 0.150310 0.106959 0.890330
O O10 0.062831 0.200029 0.958892
O O11 0.103038 0.293993 0.078528
O O12 0.000000 0.184046 0.077266
O O13 0.103544 0.084663 0.073616
O O14 0.414708 0.079887 0.812061
O O15 0.500000 0.532937 0.261594
O O16 0.808837 0.000000 0.000000
#
# Coordination Sequence:
#
# PCOD8263182 Si02
#       7
#    16  16  16  16  16  16  16
#     4  10  22  38  60  89 118 156 204 250 302 361
#     4  11  22  39  61  87 121 159 205 254 301 360
#     4  10  22  39  58  87 119 155 199 246 302 359
#     4  11  23  40  63  91 123 161 204 249 303 364
#     4  10  22  38  58  87 121 158 201 250 304 360
#     4  10  20  36  58  85 119 155 196 250 305 360
#     4  10  23  39  58  87 118 153 195 244 302 352
#
# _framework density 21.724685999999998
#
# number of rings (size 3 to 8) (size 9 to 14) (size 15 to 20)
#    0.000    1.714    0.000    5.143    0.000   12.857 
#    0.000    5.000    0.000    4.286    0.000    0.000 
#    0.000    0.000    0.000    0.000    0.000    0.000 
#
# Total GULP energy -693946.108392 kJ/mol
# GULP energy per Si atom -12391.894793 kJ/mol
# Density = 2.167524 g / cm^3
# Si number density = 21.724686 Si / 1000 Ang^3
#
#
#
# Elastic Constant Matrix: (Units=GPa)
#
#
# Indices 1 2 3 4 5 6 
#
# 1 141.1930 31.4875 32.7677 0.0000 0.0000 0.0000
# 2 31.4875 70.3972 15.4154 0.0000 0.0000 0.0000
# 3 32.7677 15.4154 85.2500 0.0000 0.0000 0.0000
# 4 0.0000 0.0000 0.0000 26.0551 0.0000 0.0000
# 5 0.0000 0.0000 0.0000 0.0000 12.9400 0.0000
# 6 0.0000 0.0000 0.0000 0.0000 0.0000 31.7375
#
#
#
# Elastic Compliance Matrix: (Units=1/GPa)
#
#
# Indices 1 2 3 4 5 6 
#
# 1 0.008408 -0.003179 -0.002657 0.000000 0.000000 0.000000
# 2 -0.003179 0.015993 -0.001670 0.000000 0.000000 0.000000
# 3 -0.002657 -0.001670 0.013053 0.000000 0.000000 0.000000
# 4 0.000000 0.000000 0.000000 0.038380 0.000000 0.000000
# 5 0.000000 0.000000 0.000000 0.000000 0.077280 0.000000
# 6 0.000000 0.000000 0.000000 0.000000 0.000000 0.031508
#
#
# Mechanical properties :
#
#
# Convention : Reuss Voigt Hill
#
# Bulk Modulus (GPa) = 44.55863 50.68683 47.62273
# Shear Modulus (GPa) = 24.14112 28.62447 26.38280
#
# Velocity S-wave (km/s) = 3.33713 3.63382 3.48863
# Velocity P-wave (km/s) = 5.95010 6.40221 6.18029
#
# Compressibility (1/GPa) = 0.02244234
#
# Stress axis : x y z
#
# Youngs Moduli (GPa) = 118.93320 62.52852 76.60810
#
# Poissons Ratio (x) = 0.19878 0.20355
# Poissons Ratio (y) = 0.37809 0.12793
# Poissons Ratio (z) = 0.31600 0.10442
#
# Static dielectric constant tensor:
#      x y z
#    x 3.851370 0.000000 0.000000 
#    y 0.000000 3.934690 0.000000 
#    z 0.000000 0.000000 3.981840 
# 
# 
# High freq. dielectric constant tensor:
#      x y z
#    x 1.854500 0.000000 0.000000 
#    y 0.000000 1.844050 0.000000 
#    z 0.000000 0.000000 1.850870 
# 
# From -- ./inp_files/41503.got.cif
#   From: 2010.03.12/outbox.cif.g09.slc.cpg/sg64_21_cif.got.tgz:41503.got - 2010.04.10 20:19:32.
