data_PCOD8263872
_publ_section_title
;
Structure prediction by ZEFSAII (Michael W. Deem and Ramdas Pophale) SiO2 
 PCOD8263872
Probable space group: C M C A
;
_chemical_formula_sum "Si O2"
_cell_formula_units_Z 56
_cell_length_a 30.337714
_cell_length_b 5.306414
_cell_length_c 12.560271
_cell_angle_alpha 90.000000
_cell_angle_beta 90.000000
_cell_angle_gamma 90.000000
_cell_volume 2022.008574
_symmetry_space_group_name_H-M "C M C A"
_symmetry_group_IT_number 64
_symmetry_cell_setting 'orthorhombic'
loop_
_space_group_symop_operation_xyz
x,y,z
-x,1/2-y,1/2+z
x,-y,-z
-x,1/2+y,1/2-z
-x,-y,-z
x,1/2+y,1/2-z
-x,y,z
x,1/2-y,1/2+z
1/2+x,1/2+y,z
1/2-x,-y,1/2+z
1/2+x,1/2-y,-z
1/2-x,y,1/2-z
1/2-x,1/2-y,-z
1/2+x,y,1/2-z
1/2-x,1/2+y,z
1/2+x,-y,1/2+z
loop_
_atom_site_type_symbol
_atom_site_label
_atom_site_fract_x
_atom_site_fract_y
_atom_site_fract_z
Si Si1 0.369844 0.360634 0.127933
Si Si2 0.000000 0.753184 0.429823
Si Si3 0.768944 0.570441 0.618118
Si Si4 0.093868 0.643233 0.864642
O O1 0.317894 0.316878 0.123853
O O2 0.386137 0.412419 0.248480
O O3 0.380063 0.632424 0.072136
O O4 0.397680 0.126862 0.076237
O O5 0.000000 0.500000 0.500000
O O6 0.043012 0.771300 0.355147
O O7 0.000000 0.000000 0.500000
O O8 0.752598 0.500000 0.500000
O O9 0.762367 0.289983 0.671527
#
# Coordination Sequence:
#
# PCOD8263872 Si02
#       4
#    16   8  16  16
#     4  10  21  40  65  93 128 170 214 263 318 380
#     4  12  26  44  66  94 127 164 210 266 331 396
#     4  10  21  38  61  92 131 171 211 259 314 373
#     4  10  23  41  62  93 126 165 212 266 324 385
#
# _framework density 27.695232000000001
#
# number of rings (size 3 to 8) (size 9 to 14) (size 15 to 20)
#    0.000    1.714    0.000    3.429    0.000    8.000 
#    0.000   17.143    0.000    0.000    0.000    0.000 
#    0.000    0.000    0.000    0.000    0.000    0.000 
#
# Total GULP energy -347000.694375 kJ/mol
# GULP energy per Si atom -12392.881942 kJ/mol
# Density = 2.763220 g / cm^3
# Si number density = 27.695232 Si / 1000 Ang^3
#
#
#
# Elastic Constant Matrix: (Units=GPa)
#
#
# Indices 1 2 3 4 5 6 
#
# 1 186.5952 70.5987 -7.7284 0.0000 0.0000 0.0000
# 2 70.5987 299.2386 13.3322 0.0000 0.0000 0.0000
# 3 -7.7284 13.3322 57.2072 0.0000 0.0000 0.0000
# 4 0.0000 0.0000 0.0000 -189.3916 0.0000 0.0000
# 5 0.0000 0.0000 0.0000 0.0000 42.1702 0.0000
# 6 0.0000 0.0000 0.0000 0.0000 0.0000 58.9042
#
#
#
# Elastic Compliance Matrix: (Units=1/GPa)
#
#
# Indices 1 2 3 4 5 6 
#
# 1 0.005958 -0.001457 0.001144 0.000000 0.000000 0.000000
# 2 -0.001457 0.003733 -0.001067 0.000000 0.000000 0.000000
# 3 0.001144 -0.001067 0.017884 0.000000 0.000000 0.000000
# 4 0.000000 0.000000 0.000000 -0.005280 0.000000 0.000000
# 5 0.000000 0.000000 0.000000 0.000000 0.023713 0.000000
# 6 0.000000 0.000000 0.000000 0.000000 0.000000 0.016977
#
#
# Mechanical properties :
#
#
# Convention : Reuss Voigt Hill
#
# Bulk Modulus (GPa) = 40.29631 77.27178 58.78404
# Shear Modulus (GPa) = 67.55445 13.45912 40.50679
#
# Velocity S-wave (km/s) = 4.94419 2.20687 3.82853
# Velocity P-wave (km/s) = 6.86840 5.86984 6.38866
#
# Compressibility (1/GPa) = 0.02481617
#
# Stress axis : x y z
#
# Youngs Moduli (GPa) = 167.85045 267.88201 55.91738
#
# Poissons Ratio (x) = 0.39019 -0.06399
# Poissons Ratio (y) = 0.24449 0.05965
# Poissons Ratio (z) = -0.19207 0.28576
#
# Static dielectric constant tensor:
#      x y z
#    x 4.976320 0.000000 0.000000 
#    y 0.000000 6.659860 0.000000 
#    z 0.000000 0.000000 5.162850 
# 
# 
# High freq. dielectric constant tensor:
#      x y z
#    x 2.091720 0.000000 0.000000 
#    y 0.000000 2.173720 0.000000 
#    z 0.000000 0.000000 2.153570 
# 
# From -- ./inp_files/35228.got.cif
#   From: 2010.03.12/outbox.cif.g09.slc.cpg/sg64_18_cif.got.tgz:35228.got - 2010.04.10 20:19:32.
