data_PCOD8263873
_publ_section_title
;
Structure prediction by ZEFSAII (Michael W. Deem and Ramdas Pophale) SiO2 
 PCOD8263873
Probable space group: C M C A
;
_chemical_formula_sum "Si O2"
_cell_formula_units_Z 112
_cell_length_a 14.574393
_cell_length_b 25.712258
_cell_length_c 14.611241
_cell_angle_alpha 90.000000
_cell_angle_beta 90.000000
_cell_angle_gamma 90.000000
_cell_volume 5475.424532
_symmetry_space_group_name_H-M "C M C A"
_symmetry_group_IT_number 64
_symmetry_cell_setting 'orthorhombic'
loop_
_space_group_symop_operation_xyz
x,y,z
-x,1/2-y,1/2+z
x,-y,-z
-x,1/2+y,1/2-z
-x,-y,-z
x,1/2+y,1/2-z
-x,y,z
x,1/2-y,1/2+z
1/2+x,1/2+y,z
1/2-x,-y,1/2+z
1/2+x,1/2-y,-z
1/2-x,y,1/2-z
1/2-x,1/2-y,-z
1/2+x,y,1/2-z
1/2-x,1/2+y,z
1/2+x,-y,1/2+z
loop_
_atom_site_type_symbol
_atom_site_label
_atom_site_fract_x
_atom_site_fract_y
_atom_site_fract_z
Si Si1 0.392168 0.909311 0.674378
Si Si2 0.311890 0.412065 0.336610
Si Si3 0.394402 0.703207 0.238727
Si Si4 0.266977 0.579213 0.460200
Si Si5 0.106076 0.199267 0.634939
Si Si6 0.395384 0.824715 0.934416
Si Si7 0.103191 0.017117 0.343984
O O1 0.500000 0.909741 0.649535
O O2 0.356293 0.853049 0.709287
O O3 0.334559 0.922372 0.583304
O O4 0.369322 0.951802 0.751912
O O5 0.250000 0.422775 0.250000
O O6 0.254781 0.420179 0.430464
O O7 0.350393 0.354107 0.330917
O O8 0.392522 0.454883 0.329765
O O9 0.500000 0.703685 0.211191
O O10 0.346438 0.751222 0.185234
O O11 0.379237 0.712421 0.347110
O O12 0.325336 0.628374 0.426885
O O13 0.325733 0.530084 0.425147
O O14 0.120675 0.208154 0.526540
O O15 0.000000 0.195924 0.661469
O O16 0.500000 0.847084 0.932093
O O17 0.000000 0.032168 0.373211
#
# Coordination Sequence:
#
# PCOD8263873 Si02
#       7
#    16  16  16  16  16  16  16
#     4  10  21  38  61  93 123 154 198 249 300 354
#     4  11  24  41  55  83 125 162 201 244 294 361
#     4   9  17  34  58  84 119 156 195 243 299 354
#     4  11  21  37  62  90 119 156 195 249 300 351
#     4   9  19  37  58  82 117 159 199 248 300 352
#     4   9  17  32  57  90 119 147 196 251 298 343
#     4  11  22  38  66  96 118 148 195 251 306 356
#
# _framework density 20.455034999999999
#
# number of rings (size 3 to 8) (size 9 to 14) (size 15 to 20)
#    0.000    2.000    1.429    2.571    0.000    2.286 
#    5.143    2.857    0.000    3.429    0.000    0.000 
#    0.000    0.000    0.000    0.000    0.000    0.000 
#
# Total GULP energy -694211.073889 kJ/mol
# GULP energy per Si atom -12396.626319 kJ/mol
# Density = 2.040848 g / cm^3
# Si number density = 20.455035 Si / 1000 Ang^3
#
#
#
# Elastic Constant Matrix: (Units=GPa)
#
#
# Indices 1 2 3 4 5 6 
#
# 1 72.5676 19.7795 49.2315 0.0000 0.0000 0.0000
# 2 19.7795 129.6464 52.1846 0.0000 0.0000 0.0000
# 3 49.2315 52.1846 128.5935 0.0000 0.0000 0.0000
# 4 0.0000 0.0000 0.0000 27.9531 0.0000 0.0000
# 5 0.0000 0.0000 0.0000 0.0000 15.5835 0.0000
# 6 0.0000 0.0000 0.0000 0.0000 0.0000 5.8422
#
#
#
# Elastic Compliance Matrix: (Units=1/GPa)
#
#
# Indices 1 2 3 4 5 6 
#
# 1 0.018615 0.000034 -0.007141 0.000000 0.000000 0.000000
# 2 0.000034 0.009219 -0.003754 0.000000 0.000000 0.000000
# 3 -0.007141 -0.003754 0.012034 0.000000 0.000000 0.000000
# 4 0.000000 0.000000 0.000000 0.035774 0.000000 0.000000
# 5 0.000000 0.000000 0.000000 0.000000 0.064170 0.000000
# 6 0.000000 0.000000 0.000000 0.000000 0.000000 0.171168
#
#
# Mechanical properties :
#
#
# Convention : Reuss Voigt Hill
#
# Bulk Modulus (GPa) = 55.10653 63.68873 59.39763
# Shear Modulus (GPa) = 14.76009 23.84990 19.30499
#
# Velocity S-wave (km/s) = 2.68915 3.41833 3.07543
# Velocity P-wave (km/s) = 6.05317 6.83985 6.45850
#
# Compressibility (1/GPa) = 0.01814667
#
# Stress axis : x y z
#
# Youngs Moduli (GPa) = 53.71914 108.46861 83.09946
#
# Poissons Ratio (x) = -0.00371 0.59339
# Poissons Ratio (y) = -0.00184 0.31198
# Poissons Ratio (z) = 0.38359 0.40723
#
# Static dielectric constant tensor:
#      x y z
#    x 3.496390 0.000000 0.000000 
#    y 0.000000 3.901600 0.000000 
#    z 0.000000 0.000000 3.763740 
# 
# 
# High freq. dielectric constant tensor:
#      x y z
#    x 1.782550 0.000000 0.000000 
#    y 0.000000 1.800170 0.000000 
#    z 0.000000 0.000000 1.799960 
# 
# From -- ./inp_files/24279.got.cif
#   From: 2010.03.12/outbox.cif.g09.slc.cpg/sg64_13_cif.got.tgz:24279.got - 2010.04.10 20:19:32.
