data_PCOD8263132
_publ_section_title
;
Structure prediction by ZEFSAII (Michael W. Deem and Ramdas Pophale) SiO2 
 PCOD8263132
Probable space group: C M C A
;
_chemical_formula_sum "Si O2"
_cell_formula_units_Z 96
_cell_length_a 23.270238
_cell_length_b 15.364593
_cell_length_c 14.066146
_cell_angle_alpha 90.000000
_cell_angle_beta 90.000000
_cell_angle_gamma 90.000000
_cell_volume 5029.177993
_symmetry_space_group_name_H-M "C M C A"
_symmetry_group_IT_number 64
_symmetry_cell_setting 'orthorhombic'
loop_
_space_group_symop_operation_xyz
x,y,z
-x,1/2-y,1/2+z
x,-y,-z
-x,1/2+y,1/2-z
-x,-y,-z
x,1/2+y,1/2-z
-x,y,z
x,1/2-y,1/2+z
1/2+x,1/2+y,z
1/2-x,-y,1/2+z
1/2+x,1/2-y,-z
1/2-x,y,1/2-z
1/2-x,1/2-y,-z
1/2+x,y,1/2-z
1/2-x,1/2+y,z
1/2+x,-y,1/2+z
loop_
_atom_site_type_symbol
_atom_site_label
_atom_site_fract_x
_atom_site_fract_y
_atom_site_fract_z
Si Si1 0.933381 0.609407 0.732228
Si Si2 0.206679 0.824232 0.673271
Si Si3 0.789799 0.413937 0.537248
Si Si4 0.126881 0.198281 0.931205
Si Si5 0.871433 0.431504 0.704532
Si Si6 0.067754 0.734715 0.371089
O O1 0.921857 0.646639 0.626710
O O2 0.901929 0.517131 0.745500
O O3 0.913850 0.678508 0.813079
O O4 0.000000 0.589903 0.741732
O O5 0.250000 0.777846 0.750000
O O6 0.243716 0.850191 0.582591
O O7 0.152165 0.769284 0.640611
O O8 0.179600 0.909155 0.722503
O O9 0.757305 0.500000 0.500000
O O10 0.818676 0.362472 0.451160
O O11 0.841287 0.448589 0.604008
O O12 0.100282 0.238378 0.027547
O O13 0.915302 0.350640 0.689861
O O14 0.000000 0.732418 0.389304
#
# Coordination Sequence:
#
# PCOD8263132 Si02
#       6
#    16  16  16  16  16  16
#     4  11  22  38  63  91 118 156 199 242 300 353
#     4  10  22  39  58  84 118 160 196 237 296 354
#     4  10  20  36  56  87 117 151 202 241 287 350
#     4  11  21  40  61  85 121 157 197 247 295 346
#     4  10  20  39  59  85 121 155 196 245 292 347
#     4  10  22  38  61  90 119 154 199 244 293 355
#
# _framework density 19.088605999999999
#
# number of rings (size 3 to 8) (size 9 to 14) (size 15 to 20)
#    0.000    1.667    3.333    1.500    0.000    1.333 
#    3.000    2.500    0.000    2.000    0.000    0.000 
#    0.000    0.000    0.000    0.000    0.000    0.000 
#
# Total GULP energy -595028.909115 kJ/mol
# GULP energy per Si atom -12396.435607 kJ/mol
# Density = 1.904516 g / cm^3
# Si number density = 19.088606 Si / 1000 Ang^3
#
#
#
# Elastic Constant Matrix: (Units=GPa)
#
#
# Indices 1 2 3 4 5 6 
#
# 1 71.8416 30.3700 23.3581 0.0000 0.0000 0.0000
# 2 30.3700 100.4261 31.7940 0.0000 0.0000 0.0000
# 3 23.3581 31.7940 76.1662 0.0000 0.0000 0.0000
# 4 0.0000 0.0000 0.0000 22.1162 0.0000 0.0000
# 5 0.0000 0.0000 0.0000 0.0000 29.1319 0.0000
# 6 0.0000 0.0000 0.0000 0.0000 0.0000 20.3291
#
#
#
# Elastic Compliance Matrix: (Units=1/GPa)
#
#
# Indices 1 2 3 4 5 6 
#
# 1 0.016722 -0.003956 -0.003477 0.000000 0.000000 0.000000
# 2 -0.003956 0.012410 -0.003967 0.000000 0.000000 0.000000
# 3 -0.003477 -0.003967 0.015851 0.000000 0.000000 0.000000
# 4 0.000000 0.000000 0.000000 0.045216 0.000000 0.000000
# 5 0.000000 0.000000 0.000000 0.000000 0.034327 0.000000
# 6 0.000000 0.000000 0.000000 0.000000 0.000000 0.049191
#
#
# Mechanical properties :
#
#
# Convention : Reuss Voigt Hill
#
# Bulk Modulus (GPa) = 45.07863 46.60869 45.84366
# Shear Modulus (GPa) = 24.52045 25.17622 24.84834
#
# Velocity S-wave (km/s) = 3.58796 3.63562 3.61187
# Velocity P-wave (km/s) = 6.38994 6.48797 6.43914
#
# Compressibility (1/GPa) = 0.02218346
#
# Stress axis : x y z
#
# Youngs Moduli (GPa) = 59.79997 80.58076 63.08610
#
# Poissons Ratio (x) = 0.31880 0.21934
# Poissons Ratio (y) = 0.23659 0.25026
# Poissons Ratio (z) = 0.20791 0.31966
#
# Static dielectric constant tensor:
#      x y z
#    x 3.435840 0.000000 0.000000 
#    y 0.000000 3.436510 0.000000 
#    z 0.000000 0.000000 3.477160 
# 
# 
# High freq. dielectric constant tensor:
#      x y z
#    x 1.744910 0.000000 0.000000 
#    y 0.000000 1.735900 0.000000 
#    z 0.000000 0.000000 1.744380 
# 
# From -- ./inp_files/26302.got.cif
#   From: 2010.03.12/outbox.cif.g09.slc.cpg/sg64_14_cif.got.tgz:26302.got - 2010.04.10 20:19:32.
