data_PCOD8263985
_publ_section_title
;
Structure prediction by ZEFSAII (Michael W. Deem and Ramdas Pophale) SiO2 
 PCOD8263985
Probable space group: C M C A
;
_chemical_formula_sum "Si O2"
_cell_formula_units_Z 80
_cell_length_a 18.560379
_cell_length_b 15.213520
_cell_length_c 13.366667
_cell_angle_alpha 90.000000
_cell_angle_beta 90.000000
_cell_angle_gamma 90.000000
_cell_volume 3774.328346
_symmetry_space_group_name_H-M "C M C A"
_symmetry_group_IT_number 64
_symmetry_cell_setting 'orthorhombic'
loop_
_space_group_symop_operation_xyz
x,y,z
-x,1/2-y,1/2+z
x,-y,-z
-x,1/2+y,1/2-z
-x,-y,-z
x,1/2+y,1/2-z
-x,y,z
x,1/2-y,1/2+z
1/2+x,1/2+y,z
1/2-x,-y,1/2+z
1/2+x,1/2-y,-z
1/2-x,y,1/2-z
1/2-x,1/2-y,-z
1/2+x,y,1/2-z
1/2-x,1/2+y,z
1/2+x,-y,1/2+z
loop_
_atom_site_type_symbol
_atom_site_label
_atom_site_fract_x
_atom_site_fract_y
_atom_site_fract_z
Si Si1 0.581924 0.207211 0.786027
Si Si2 0.690712 0.322074 0.887248
Si Si3 0.077405 0.975216 0.384565
Si Si4 0.731035 0.994347 0.881675
Si Si5 0.305732 0.828275 0.379515
O O1 0.500000 0.229621 0.758147
O O2 0.617116 0.294694 0.833153
O O3 0.586892 0.129742 0.868732
O O4 0.621224 0.181760 0.682828
O O5 0.718899 0.414982 0.844935
O O6 0.751496 0.251345 0.859906
O O7 0.673772 0.331178 0.004342
O O8 0.000000 0.004149 0.334508
O O9 0.072722 0.000000 0.500000
O O10 0.149339 0.019945 0.338432
O O11 0.766015 0.083738 0.841500
O O12 0.724292 0.000000 0.000000
#
# Coordination Sequence:
#
# PCOD8263985 Si02
#       5
#    16  16  16  16  16
#     4  11  23  41  61  89 131 169 206 264 325 376
#     4  10  21  39  65  92 119 164 215 260 311 377
#     4   9  18  34  58  88 121 158 200 251 315 372
#     4   9  18  36  63  88 116 158 208 257 306 368
#     4  10  21  40  62  90 124 163 213 263 317 373
#
# _framework density 21.195824000000002
#
# number of rings (size 3 to 8) (size 9 to 14) (size 15 to 20)
#    0.000    2.200    2.000    0.600    2.800    0.800 
#    7.200    2.000    0.000    3.600    0.000    0.000 
#    0.000    0.000    0.000    0.000    0.000    0.000 
#
# Total GULP energy -495712.329931 kJ/mol
# GULP energy per Si atom -12392.808248 kJ/mol
# Density = 2.114758 g / cm^3
# Si number density = 21.195824 Si / 1000 Ang^3
#
#
#
# Elastic Constant Matrix: (Units=GPa)
#
#
# Indices 1 2 3 4 5 6 
#
# 1 209.4399 71.6953 65.1565 0.0000 0.0000 0.0000
# 2 71.6953 130.3394 29.3131 0.0000 0.0000 0.0000
# 3 65.1565 29.3131 73.5093 0.0000 0.0000 0.0000
# 4 0.0000 0.0000 0.0000 -11.3967 0.0000 0.0000
# 5 0.0000 0.0000 0.0000 0.0000 28.8565 0.0000
# 6 0.0000 0.0000 0.0000 0.0000 0.0000 31.6978
#
#
#
# Elastic Compliance Matrix: (Units=1/GPa)
#
#
# Indices 1 2 3 4 5 6 
#
# 1 0.007459 -0.002874 -0.005465 0.000000 0.000000 0.000000
# 2 -0.002874 0.009535 -0.001255 0.000000 0.000000 0.000000
# 3 -0.005465 -0.001255 0.018948 0.000000 0.000000 0.000000
# 4 0.000000 0.000000 0.000000 -0.087744 0.000000 0.000000
# 5 0.000000 0.000000 0.000000 0.000000 0.034654 0.000000
# 6 0.000000 0.000000 0.000000 0.000000 0.000000 0.031548
#
#
# Mechanical properties :
#
#
# Convention : Reuss Voigt Hill
#
# Bulk Modulus (GPa) = 59.68657 82.84652 71.26655
# Shear Modulus (GPa) = 127.63971 26.30641 76.97306
#
# Velocity S-wave (km/s) = 7.76853 3.52677 6.03275
# Velocity P-wave (km/s) = 10.42532 7.46694 9.06760
#
# Compressibility (1/GPa) = 0.01675419
#
# Stress axis : x y z
#
# Youngs Moduli (GPa) = 134.07494 104.87398 52.77490
#
# Poissons Ratio (x) = 0.30136 0.28842
# Poissons Ratio (y) = 0.38528 0.06625
# Poissons Ratio (z) = 0.73274 0.13165
#
# Static dielectric constant tensor:
#      x y z
#    x 4.220960 0.000000 0.000000 
#    y 0.000000 3.914510 0.000000 
#    z 0.000000 0.000000 1.978060 
# 
# 
# High freq. dielectric constant tensor:
#      x y z
#    x 1.835240 0.000000 0.000000 
#    y 0.000000 1.822390 0.000000 
#    z 0.000000 0.000000 1.828650 
# 
# From -- ./inp_files/25293.got.cif
#   From: 2010.03.12/outbox.cif.g09.slc.cpg/sg64_13_cif.got.tgz:25293.got - 2010.04.10 20:19:32.
