data_PCOD8263016
_publ_section_title
;
Structure prediction by ZEFSAII (Michael W. Deem and Ramdas Pophale) SiO2 
 PCOD8263016
Probable space group: C M C A
;
_chemical_formula_sum "Si O2"
_cell_formula_units_Z 96
_cell_length_a 13.143177
_cell_length_b 17.238355
_cell_length_c 22.971030
_cell_angle_alpha 90.000000
_cell_angle_beta 90.000000
_cell_angle_gamma 90.000000
_cell_volume 5204.471633
_symmetry_space_group_name_H-M "C M C A"
_symmetry_group_IT_number 64
_symmetry_cell_setting 'orthorhombic'
loop_
_space_group_symop_operation_xyz
x,y,z
-x,1/2-y,1/2+z
x,-y,-z
-x,1/2+y,1/2-z
-x,-y,-z
x,1/2+y,1/2-z
-x,y,z
x,1/2-y,1/2+z
1/2+x,1/2+y,z
1/2-x,-y,1/2+z
1/2+x,1/2-y,-z
1/2-x,y,1/2-z
1/2-x,1/2-y,-z
1/2+x,y,1/2-z
1/2-x,1/2+y,z
1/2+x,-y,1/2+z
loop_
_atom_site_type_symbol
_atom_site_label
_atom_site_fract_x
_atom_site_fract_y
_atom_site_fract_z
Si Si1 0.776263 0.236229 0.566166
Si Si2 0.615971 0.233176 0.775550
Si Si3 0.778727 0.520050 0.681771
Si Si4 0.117419 0.634872 0.359486
Si Si5 0.882082 0.613854 0.871356
Si Si6 0.880400 0.178536 0.843973
O O1 0.750000 0.250000 0.500000
O O2 0.827669 0.314816 0.590521
O O3 0.852589 0.161225 0.570090
O O4 0.672548 0.212940 0.599071
O O5 0.500000 0.205097 0.769549
O O6 0.623227 0.320348 0.798142
O O7 0.662644 0.172218 0.821566
O O8 0.664845 0.227893 0.711387
O O9 0.750000 0.509721 0.750000
O O10 0.827158 0.445113 0.652432
O O11 0.677782 0.534676 0.642118
O O12 0.859198 0.588653 0.670613
O O13 0.000000 0.621914 0.378191
O O14 0.000000 0.594509 0.870707
O O15 0.000000 0.190542 0.853354
#
# Coordination Sequence:
#
# PCOD8263016 Si02
#       6
#    16  16  16  16  16  16
#     4  10  22  38  60  83 107 151 207 245 279 329
#     4   8  15  31  54  78 105 144 184 222 282 345
#     4  11  21  32  56  89 123 153 183 226 286 359
#     4  10  22  37  57  85 119 151 184 235 294 343
#     4   9  18  35  58  81 112 154 191 229 285 346
#     4  10  20  35  56  83 116 150 192 238 285 344
#
# _framework density 18.445675999999999
#
# number of rings (size 3 to 8) (size 9 to 14) (size 15 to 20)
#    0.000    2.333    1.667    2.000    2.333    2.000 
#    0.000    4.167    0.000    6.000    0.000    0.000 
#    0.000    0.000    0.000    0.000    0.000    0.000 
#
# Total GULP energy -594900.789845 kJ/mol
# GULP energy per Si atom -12393.766455 kJ/mol
# Density = 1.840369 g / cm^3
# Si number density = 18.445676 Si / 1000 Ang^3
#
#
#
# Elastic Constant Matrix: (Units=GPa)
#
#
# Indices 1 2 3 4 5 6 
#
# 1 111.1005 59.8726 49.9126 0.0000 0.0000 0.0000
# 2 59.8726 120.4032 55.2074 0.0000 0.0000 0.0000
# 3 49.9126 55.2074 117.9442 0.0000 0.0000 0.0000
# 4 0.0000 0.0000 0.0000 16.2430 0.0000 0.0000
# 5 0.0000 0.0000 0.0000 0.0000 22.1817 0.0000
# 6 0.0000 0.0000 0.0000 0.0000 0.0000 32.0605
#
#
#
# Elastic Compliance Matrix: (Units=1/GPa)
#
#
# Indices 1 2 3 4 5 6 
#
# 1 0.013178 -0.005088 -0.003195 0.000000 0.000000 0.000000
# 2 -0.005088 0.012540 -0.003716 0.000000 0.000000 0.000000
# 3 -0.003195 -0.003716 0.011570 0.000000 0.000000 0.000000
# 4 0.000000 0.000000 0.000000 0.061565 0.000000 0.000000
# 5 0.000000 0.000000 0.000000 0.000000 0.045082 0.000000
# 6 0.000000 0.000000 0.000000 0.000000 0.000000 0.031191
#
#
# Mechanical properties :
#
#
# Convention : Reuss Voigt Hill
#
# Bulk Modulus (GPa) = 75.25082 75.49258 75.37170
# Shear Modulus (GPa) = 24.56332 26.39406 25.47869
#
# Velocity S-wave (km/s) = 3.65315 3.78684 3.72059
# Velocity P-wave (km/s) = 7.66019 7.75474 7.70761
#
# Compressibility (1/GPa) = 0.01328889
#
# Stress axis : x y z
#
# Youngs Moduli (GPa) = 75.88210 79.74759 86.42787
#
# Poissons Ratio (x) = 0.40576 0.27616
# Poissons Ratio (y) = 0.38609 0.32119
# Poissons Ratio (z) = 0.24247 0.29637
#
# Static dielectric constant tensor:
#      x y z
#    x 3.526730 0.000000 0.000000 
#    y 0.000000 3.255150 0.000000 
#    z 0.000000 0.000000 3.225360 
# 
# 
# High freq. dielectric constant tensor:
#      x y z
#    x 1.739830 0.000000 0.000000 
#    y 0.000000 1.701500 0.000000 
#    z 0.000000 0.000000 1.688350 
# 
# From -- ./inp_files/39180.got.cif
#   From: 2010.03.12/outbox.cif.g09.slc.cpg/sg64_20_cif.got.tgz:39180.got - 2010.04.10 20:19:32.
