data_PCOD8263396
_publ_section_title
;
Structure prediction by ZEFSAII (Michael W. Deem and Ramdas Pophale) SiO2 
 PCOD8263396
Probable space group: C M C A
;
_chemical_formula_sum "Si O2"
_cell_formula_units_Z 96
_cell_length_a 9.591373
_cell_length_b 24.008010
_cell_length_c 21.202268
_cell_angle_alpha 90.000000
_cell_angle_beta 90.000000
_cell_angle_gamma 90.000000
_cell_volume 4882.241564
_symmetry_space_group_name_H-M "C M C A"
_symmetry_group_IT_number 64
_symmetry_cell_setting 'orthorhombic'
loop_
_space_group_symop_operation_xyz
x,y,z
-x,1/2-y,1/2+z
x,-y,-z
-x,1/2+y,1/2-z
-x,-y,-z
x,1/2+y,1/2-z
-x,y,z
x,1/2-y,1/2+z
1/2+x,1/2+y,z
1/2-x,-y,1/2+z
1/2+x,1/2-y,-z
1/2-x,y,1/2-z
1/2-x,1/2-y,-z
1/2+x,y,1/2-z
1/2-x,1/2+y,z
1/2+x,-y,1/2+z
loop_
_atom_site_type_symbol
_atom_site_label
_atom_site_fract_x
_atom_site_fract_y
_atom_site_fract_z
Si Si1 0.843496 0.298669 0.694529
Si Si2 0.342713 0.621575 0.083682
Si Si3 0.163875 0.015321 0.429162
Si Si4 0.659243 0.942491 0.190920
Si Si5 0.343017 0.321171 0.354008
Si Si6 0.839533 0.200364 0.971303
O O1 0.750000 0.323180 0.750000
O O2 0.799093 0.327903 0.629607
O O3 0.824609 0.232384 0.690080
O O4 0.000000 0.314529 0.712318
O O5 0.500000 0.600919 0.097439
O O6 0.238098 0.571155 0.093680
O O7 0.330875 0.645521 0.013782
O O8 0.000000 0.026553 0.431012
O O9 0.216420 0.000000 0.500000
O O10 0.203209 0.968585 0.376991
O O11 0.500000 0.958601 0.205739
O O12 0.750000 0.965241 0.250000
O O13 0.679384 0.876163 0.187338
O O14 0.500000 0.321105 0.383960
O O15 0.223997 0.319281 0.405940
O O16 0.000000 0.220023 0.963212
O O17 0.750000 0.250000 0.000000
#
# Coordination Sequence:
#
# PCOD8263396 Si02
#       6
#    16  16  16  16  16  16
#     4  10  21  37  55  80 115 150 189 233 282 342
#     4  10  22  39  57  83 117 150 186 234 289 346
#     4  10  22  41  63  88 116 153 202 251 300 355
#     4  10  22  39  62  89 120 159 204 253 305 361
#     4  10  20  38  60  84 119 155 191 244 294 344
#     4  11  21  35  57  86 119 152 190 234 291 356
#
# _framework density 19.663098999999999
#
# number of rings (size 3 to 8) (size 9 to 14) (size 15 to 20)
#    0.000    1.833    1.667    2.000    0.000    6.333 
#    0.000    3.333    0.000    0.000    0.000    0.000 
#    0.000    0.000    0.000    0.000    0.000    0.000 
#
# Total GULP energy -595207.026548 kJ/mol
# GULP energy per Si atom -12400.146386 kJ/mol
# Density = 1.961834 g / cm^3
# Si number density = 19.663099 Si / 1000 Ang^3
#
#
#
# Elastic Constant Matrix: (Units=GPa)
#
#
# Indices 1 2 3 4 5 6 
#
# 1 93.5714 34.7745 56.5679 0.0000 0.0000 0.0000
# 2 34.7745 86.8092 18.6267 0.0000 0.0000 0.0000
# 3 56.5679 18.6267 110.2524 0.0000 0.0000 0.0000
# 4 0.0000 0.0000 0.0000 18.8624 0.0000 0.0000
# 5 0.0000 0.0000 0.0000 0.0000 40.3626 0.0000
# 6 0.0000 0.0000 0.0000 0.0000 0.0000 33.5269
#
#
#
# Elastic Compliance Matrix: (Units=1/GPa)
#
#
# Indices 1 2 3 4 5 6 
#
# 1 0.017560 -0.005293 -0.008116 0.000000 0.000000 0.000000
# 2 -0.005293 0.013548 0.000427 0.000000 0.000000 0.000000
# 3 -0.008116 0.000427 0.013162 0.000000 0.000000 0.000000
# 4 0.000000 0.000000 0.000000 0.053015 0.000000 0.000000
# 5 0.000000 0.000000 0.000000 0.000000 0.024775 0.000000
# 6 0.000000 0.000000 0.000000 0.000000 0.000000 0.029827
#
#
# Mechanical properties :
#
#
# Convention : Reuss Voigt Hill
#
# Bulk Modulus (GPa) = 54.62423 56.73014 55.67719
# Shear Modulus (GPa) = 27.18072 30.59465 28.88768
#
# Velocity S-wave (km/s) = 3.72199 3.94882 3.83708
# Velocity P-wave (km/s) = 6.80524 7.05015 6.92878
#
# Compressibility (1/GPa) = 0.01830689
#
# Stress axis : x y z
#
# Youngs Moduli (GPa) = 56.94662 73.81026 75.97703
#
# Poissons Ratio (x) = 0.39068 0.61659
# Poissons Ratio (y) = 0.30142 -0.03243
# Poissons Ratio (z) = 0.46215 -0.03150
#
# Static dielectric constant tensor:
#      x y z
#    x 3.728910 0.000000 0.000000 
#    y 0.000000 3.490640 0.000000 
#    z 0.000000 0.000000 3.543640 
# 
# 
# High freq. dielectric constant tensor:
#      x y z
#    x 1.767370 0.000000 0.000000 
#    y 0.000000 1.760800 0.000000 
#    z 0.000000 0.000000 1.765730 
# 
# From -- ./inp_files/36962.got.cif
#   From: 2010.03.12/outbox.cif.g09.slc.cpg/sg64_19_cif.got.tgz:36962.got - 2010.04.10 20:19:32.
