data_PCOD8263524
_publ_section_title
;
Structure prediction by ZEFSAII (Michael W. Deem and Ramdas Pophale) SiO2 
 PCOD8263524
Probable space group: C M C A
;
_chemical_formula_sum "Si O2"
_cell_formula_units_Z 72
_cell_length_a 24.015151
_cell_length_b 9.548343
_cell_length_c 14.449725
_cell_angle_alpha 90.000000
_cell_angle_beta 90.000000
_cell_angle_gamma 90.000000
_cell_volume 3313.392731
_symmetry_space_group_name_H-M "C M C A"
_symmetry_group_IT_number 64
_symmetry_cell_setting 'orthorhombic'
loop_
_space_group_symop_operation_xyz
x,y,z
-x,1/2-y,1/2+z
x,-y,-z
-x,1/2+y,1/2-z
-x,-y,-z
x,1/2+y,1/2-z
-x,y,z
x,1/2-y,1/2+z
1/2+x,1/2+y,z
1/2-x,-y,1/2+z
1/2+x,1/2-y,-z
1/2-x,y,1/2-z
1/2-x,1/2-y,-z
1/2+x,y,1/2-z
1/2-x,1/2+y,z
1/2+x,-y,1/2+z
loop_
_atom_site_type_symbol
_atom_site_label
_atom_site_fract_x
_atom_site_fract_y
_atom_site_fract_z
Si Si1 0.915214 0.789523 0.501502
Si Si2 0.000000 0.686298 0.164069
Si Si3 0.750000 0.188957 0.250000
Si Si4 0.624730 0.500000 0.000000
Si Si5 0.500000 0.625924 0.651328
Si Si6 0.817230 0.500000 0.000000
Si Si7 0.717726 0.555540 0.864212
O O1 0.911800 0.629475 0.464760
O O2 0.855510 0.863666 0.515306
O O3 0.946174 0.784778 0.600266
O O4 0.947060 0.865335 0.417441
O O5 0.000000 0.526280 0.196953
O O6 0.000000 0.771515 0.260417
O O7 0.716511 0.293048 0.183467
O O8 0.707429 0.081613 0.300451
O O9 0.663723 0.570471 0.924690
O O10 0.777171 0.469288 0.086715
#
# Coordination Sequence:
#
# PCOD8263524 Si02
#       7
#    16   8   8   8   8   8  16
#     4  11  23  45  69  93 135 168 220 262 329 383
#     4  11  25  48  69  97 127 166 212 278 328 386
#     4  10  20  40  56  90 124 178 200 282 296 356
#     4  11  24  41  62 100 122 183 208 255 314 398
#     4  11  25  48  69  97 127 166 212 278 328 386
#     4  11  20  43  66  88 120 189 204 257 316 398
#     4  10  22  40  62  88 140 162 218 254 318 368
#
# _framework density 21.729991999999999
#
# number of rings (size 3 to 8) (size 9 to 14) (size 15 to 20)
#    0.000    1.333    2.222    3.333    3.111    4.444 
#   24.000    0.000    0.000    0.000    0.000    0.000 
#    0.000    0.000    0.000    0.000    0.000    0.000 
#
# Total GULP energy -446091.512008 kJ/mol
# GULP energy per Si atom -12391.430889 kJ/mol
# Density = 2.168053 g / cm^3
# Si number density = 21.729992 Si / 1000 Ang^3
#
#
#
# Elastic Constant Matrix: (Units=GPa)
#
#
# Indices 1 2 3 4 5 6 
#
# 1 78.8420 17.8371 19.1121 0.0000 0.0000 0.0000
# 2 17.8371 150.8251 15.4166 0.0000 0.0000 0.0000
# 3 19.1121 15.4166 105.4702 0.0000 0.0000 0.0000
# 4 0.0000 0.0000 0.0000 65.2401 0.0000 0.0000
# 5 0.0000 0.0000 0.0000 0.0000 -133.0243 0.0000
# 6 0.0000 0.0000 0.0000 0.0000 0.0000 17.6971
#
#
#
# Elastic Compliance Matrix: (Units=1/GPa)
#
#
# Indices 1 2 3 4 5 6 
#
# 1 0.013540 -0.001371 -0.002253 0.000000 0.000000 0.000000
# 2 -0.001371 0.006870 -0.000756 0.000000 0.000000 0.000000
# 3 -0.002253 -0.000756 0.010000 0.000000 0.000000 0.000000
# 4 0.000000 0.000000 0.000000 0.015328 0.000000 0.000000
# 5 0.000000 0.000000 0.000000 0.000000 -0.007517 0.000000
# 6 0.000000 0.000000 0.000000 0.000000 0.000000 0.056507
#
#
# Mechanical properties :
#
#
# Convention : Reuss Voigt Hill
#
# Bulk Modulus (GPa) = 46.18944 48.87433 47.53189
# Shear Modulus (GPa) = 45.16589 8.83401 26.99995
#
# Velocity S-wave (km/s) = 4.56401 2.01846 3.52876
# Velocity P-wave (km/s) = 7.00541 5.28892 6.20679
#
# Compressibility (1/GPa) = 0.02164997
#
# Stress axis : x y z
#
# Youngs Moduli (GPa) = 73.85554 145.56939 99.99901
#
# Poissons Ratio (x) = 0.19957 0.22531
# Poissons Ratio (y) = 0.10125 0.07557
# Poissons Ratio (z) = 0.16641 0.11001
#
# Static dielectric constant tensor:
#      x y z
#    x 3.727370 0.000000 0.000000 
#    y 0.000000 4.110670 0.000000 
#    z 0.000000 0.000000 4.012000 
# 
# 
# High freq. dielectric constant tensor:
#      x y z
#    x 1.840220 0.000000 0.000000 
#    y 0.000000 1.884350 0.000000 
#    z 0.000000 0.000000 1.851660 
# 
# From -- ./inp_files/28282.got.cif
#   From: 2010.03.12/outbox.cif.g09.slc.cpg/sg64_15_cif.got.tgz:28282.got - 2010.04.10 20:19:32.
