data_PCOD8263783
_publ_section_title
;
Structure prediction by ZEFSAII (Michael W. Deem and Ramdas Pophale) SiO2 
 PCOD8263783
Probable space group: C M C A
;
_chemical_formula_sum "Si O2"
_cell_formula_units_Z 104
_cell_length_a 19.813427
_cell_length_b 9.002219
_cell_length_c 28.574635
_cell_angle_alpha 90.000000
_cell_angle_beta 90.000000
_cell_angle_gamma 90.000000
_cell_volume 5096.709314
_symmetry_space_group_name_H-M "C M C A"
_symmetry_group_IT_number 64
_symmetry_cell_setting 'orthorhombic'
loop_
_space_group_symop_operation_xyz
x,y,z
-x,1/2-y,1/2+z
x,-y,-z
-x,1/2+y,1/2-z
-x,-y,-z
x,1/2+y,1/2-z
-x,y,z
x,1/2-y,1/2+z
1/2+x,1/2+y,z
1/2-x,-y,1/2+z
1/2+x,1/2-y,-z
1/2-x,y,1/2-z
1/2-x,1/2-y,-z
1/2+x,y,1/2-z
1/2-x,1/2+y,z
1/2+x,-y,1/2+z
loop_
_atom_site_type_symbol
_atom_site_label
_atom_site_fract_x
_atom_site_fract_y
_atom_site_fract_z
Si Si1 0.185613 0.348296 0.943061
Si Si2 0.500000 0.330063 0.802380
Si Si3 0.882352 0.833817 0.872214
Si Si4 0.224809 0.213625 0.687165
Si Si5 0.750000 0.965070 0.750000
Si Si6 0.000000 0.321571 0.298481
Si Si7 0.827498 0.808654 0.452522
Si Si8 0.867941 0.820857 0.143776
O O1 0.187297 0.524611 0.935352
O O2 0.261875 0.291128 0.942240
O O3 0.139541 0.278737 0.902351
O O4 0.152414 0.305947 0.992895
O O5 0.437236 0.283060 0.834656
O O6 0.500000 0.503023 0.791524
O O7 0.500000 0.246133 0.753311
O O8 0.815082 0.736951 0.860266
O O9 0.891113 0.769441 0.924977
O O10 0.872946 0.009520 0.873078
O O11 0.204382 0.359004 0.717698
O O12 0.304715 0.201976 0.678253
O O13 0.202792 0.068363 0.716866
O O14 0.934290 0.270795 0.327727
#
# Coordination Sequence:
#
# PCOD8263783 Si02
#       8
#    16   8  16  16   8   8  16  16
#     4  10  21  37  61  93 125 156 197 250 307 364
#     4  10  26  44  61  86 125 165 208 249 303 360
#     4  11  23  40  61  89 121 160 202 251 301 365
#     4  11  22  36  57  84 114 150 201 246 299 352
#     4  10  24  34  52  84 118 150 192 256 296 350
#     4  10  26  44  61  86 125 165 208 249 303 360
#     4  10  21  37  61  93 125 156 197 250 307 364
#     4  11  23  40  61  89 121 160 202 251 301 365
#
# _framework density 20.405322999999999
#
# number of rings (size 3 to 8) (size 9 to 14) (size 15 to 20)
#    0.000    1.538    3.077    0.923    6.462    3.077 
#    0.000    0.769    0.000    4.615    0.000    0.000 
#    0.000    0.000    0.000    0.000    0.000    0.000 
#
# Total GULP energy -644488.034090 kJ/mol
# GULP energy per Si atom -12394.000656 kJ/mol
# Density = 2.035888 g / cm^3
# Si number density = 20.405323 Si / 1000 Ang^3
#
#
#
# Elastic Constant Matrix: (Units=GPa)
#
#
# Indices 1 2 3 4 5 6 
#
# 1 89.2431 29.3650 51.9256 0.0000 0.0000 0.0000
# 2 29.3650 118.9382 68.2697 0.0000 0.0000 0.0000
# 3 51.9256 68.2697 156.5891 0.0000 0.0000 0.0000
# 4 0.0000 0.0000 0.0000 41.0633 0.0000 0.0000
# 5 0.0000 0.0000 0.0000 0.0000 32.8565 0.0000
# 6 0.0000 0.0000 0.0000 0.0000 0.0000 22.5371
#
#
#
# Elastic Compliance Matrix: (Units=1/GPa)
#
#
# Indices 1 2 3 4 5 6 
#
# 1 0.013983 -0.001055 -0.004177 0.000000 0.000000 0.000000
# 2 -0.001055 0.011294 -0.004574 0.000000 0.000000 0.000000
# 3 -0.004177 -0.004574 0.009765 0.000000 0.000000 0.000000
# 4 0.000000 0.000000 0.000000 0.024353 0.000000 0.000000
# 5 0.000000 0.000000 0.000000 0.000000 0.030435 0.000000
# 6 0.000000 0.000000 0.000000 0.000000 0.000000 0.044371
#
#
# Mechanical properties :
#
#
# Convention : Reuss Voigt Hill
#
# Bulk Modulus (GPa) = 64.80709 73.76567 69.28638
# Shear Modulus (GPa) = 31.45529 33.63871 32.54700
#
# Velocity S-wave (km/s) = 3.93048 4.06461 3.99811
# Velocity P-wave (km/s) = 7.24066 7.63261 7.43922
#
# Compressibility (1/GPa) = 0.01543041
#
# Stress axis : x y z
#
# Youngs Moduli (GPa) = 71.51691 88.54586 102.40244
#
# Poissons Ratio (x) = 0.09339 0.42772
# Poissons Ratio (y) = 0.07543 0.46839
# Poissons Ratio (z) = 0.29872 0.40501
#
# Static dielectric constant tensor:
#      x y z
#    x 3.448350 0.000000 0.000000 
#    y 0.000000 3.810080 0.000000 
#    z 0.000000 0.000000 4.050710 
# 
# 
# High freq. dielectric constant tensor:
#      x y z
#    x 1.751900 0.000000 0.000000 
#    y 0.000000 1.810990 0.000000 
#    z 0.000000 0.000000 1.825340 
# 
# From -- ./inp_files/53799.got.cif
#   From: 2010.03.12/outbox.cif.g09.slc.cpg/sg64_27_cif.got.tgz:53799.got - 2010.04.10 20:19:32.
