data_PCOD8263298
_publ_section_title
;
Structure prediction by ZEFSAII (Michael W. Deem and Ramdas Pophale) SiO2 
 PCOD8263298
Probable space group: C M C A
;
_chemical_formula_sum "Si O2"
_cell_formula_units_Z 64
_cell_length_a 8.703470
_cell_length_b 15.215985
_cell_length_c 25.881212
_cell_angle_alpha 90.000000
_cell_angle_beta 90.000000
_cell_angle_gamma 90.000000
_cell_volume 3427.497276
_symmetry_space_group_name_H-M "C M C A"
_symmetry_group_IT_number 64
_symmetry_cell_setting 'orthorhombic'
loop_
_space_group_symop_operation_xyz
x,y,z
-x,1/2-y,1/2+z
x,-y,-z
-x,1/2+y,1/2-z
-x,-y,-z
x,1/2+y,1/2-z
-x,y,z
x,1/2-y,1/2+z
1/2+x,1/2+y,z
1/2-x,-y,1/2+z
1/2+x,1/2-y,-z
1/2-x,y,1/2-z
1/2-x,1/2-y,-z
1/2+x,y,1/2-z
1/2-x,1/2+y,z
1/2+x,-y,1/2+z
loop_
_atom_site_type_symbol
_atom_site_label
_atom_site_fract_x
_atom_site_fract_y
_atom_site_fract_z
Si Si1 0.680895 0.541270 0.304575
Si Si2 0.826512 0.215509 0.551427
Si Si3 0.326042 0.284516 0.842162
Si Si4 0.818504 0.112654 0.865332
O O1 0.500000 0.528819 0.303588
O O2 0.750000 0.511739 0.250000
O O3 0.721909 0.641903 0.316157
O O4 0.753695 0.481560 0.349194
O O5 0.750000 0.250000 0.500000
O O6 0.824979 0.292924 0.595007
O O7 0.733083 0.132138 0.575178
O O8 0.000000 0.185515 0.539283
O O9 0.500000 0.291370 0.820609
O O10 0.254077 0.188741 0.828201
O O11 0.000000 0.113209 0.860574
#
# Coordination Sequence:
#
# PCOD8263298 Si02
#       4
#    16  16  16  16
#     4  12  24  39  59  84 114 150 191 235 283 337
#     4   9  18  34  59  85 115 149 188 231 282 336
#     4   9  20  38  58  84 116 148 188 234 280 335
#     4  10  20  37  59  84 116 150 188 234 281 334
#
# _framework density 18.672516000000002
#
# number of rings (size 3 to 8) (size 9 to 14) (size 15 to 20)
#    1.500    0.500    0.000    5.250    0.000    1.000 
#    0.000    6.250    0.000    7.500    0.000    0.000 
#    0.000    0.000    0.000    0.000    0.000    0.000 
#
# Total GULP energy -396570.029809 kJ/mol
# GULP energy per Si atom -12392.813432 kJ/mol
# Density = 1.863002 g / cm^3
# Si number density = 18.672516 Si / 1000 Ang^3
#
#
#
# Elastic Constant Matrix: (Units=GPa)
#
#
# Indices 1 2 3 4 5 6 
#
# 1 164.1140 20.4170 23.6099 0.0000 0.0000 0.0000
# 2 20.4170 56.7077 -4.7726 0.0000 0.0000 0.0000
# 3 23.6099 -4.7726 44.1458 0.0000 0.0000 0.0000
# 4 0.0000 0.0000 0.0000 23.9510 0.0000 0.0000
# 5 0.0000 0.0000 0.0000 0.0000 34.5377 0.0000
# 6 0.0000 0.0000 0.0000 0.0000 0.0000 34.5943
#
#
#
# Elastic Compliance Matrix: (Units=1/GPa)
#
#
# Indices 1 2 3 4 5 6 
#
# 1 0.007037 -0.002877 -0.004075 0.000000 0.000000 0.000000
# 2 -0.002877 0.018972 0.003590 0.000000 0.000000 0.000000
# 3 -0.004075 0.003590 0.025220 0.000000 0.000000 0.000000
# 4 0.000000 0.000000 0.000000 0.041752 0.000000 0.000000
# 5 0.000000 0.000000 0.000000 0.000000 0.028954 0.000000
# 6 0.000000 0.000000 0.000000 0.000000 0.000000 0.028907
#
#
# Mechanical properties :
#
#
# Convention : Reuss Voigt Hill
#
# Bulk Modulus (GPa) = 22.46920 38.16402 30.31661
# Shear Modulus (GPa) = 29.00229 33.66413 31.33321
#
# Velocity S-wave (km/s) = 3.94535 4.25063 4.10083
# Velocity P-wave (km/s) = 5.72833 6.67633 6.22042
#
# Compressibility (1/GPa) = 0.04450537
#
# Stress axis : x y z
#
# Youngs Moduli (GPa) = 142.09780 52.70890 39.65185
#
# Poissons Ratio (x) = 0.15163 0.16157
# Poissons Ratio (y) = 0.40877 -0.14233
# Poissons Ratio (z) = 0.57901 -0.18920
#
# Static dielectric constant tensor:
#      x y z
#    x 3.530720 0.000000 0.000000 
#    y 0.000000 3.228610 0.000000 
#    z 0.000000 0.000000 3.341710 
# 
# 
# High freq. dielectric constant tensor:
#      x y z
#    x 1.747910 0.000000 0.000000 
#    y 0.000000 1.704770 0.000000 
#    z 0.000000 0.000000 1.706370 
# 
# From -- ./inp_files/42474.got.cif
#   From: 2010.03.12/outbox.cif.g09.slc.cpg/sg64_22_cif.got.tgz:42474.got - 2010.04.10 20:19:32.
