data_PCOD8263540
_publ_section_title
;
Structure prediction by ZEFSAII (Michael W. Deem and Ramdas Pophale) SiO2 
 PCOD8263540
Probable space group: C M C A
;
_chemical_formula_sum "Si O2"
_cell_formula_units_Z 96
_cell_length_a 14.567988
_cell_length_b 16.765931
_cell_length_c 18.955687
_cell_angle_alpha 90.000000
_cell_angle_beta 90.000000
_cell_angle_gamma 90.000000
_cell_volume 4629.848483
_symmetry_space_group_name_H-M "C M C A"
_symmetry_group_IT_number 64
_symmetry_cell_setting 'orthorhombic'
loop_
_space_group_symop_operation_xyz
x,y,z
-x,1/2-y,1/2+z
x,-y,-z
-x,1/2+y,1/2-z
-x,-y,-z
x,1/2+y,1/2-z
-x,y,z
x,1/2-y,1/2+z
1/2+x,1/2+y,z
1/2-x,-y,1/2+z
1/2+x,1/2-y,-z
1/2-x,y,1/2-z
1/2-x,1/2-y,-z
1/2+x,y,1/2-z
1/2-x,1/2+y,z
1/2+x,-y,1/2+z
loop_
_atom_site_type_symbol
_atom_site_label
_atom_site_fract_x
_atom_site_fract_y
_atom_site_fract_z
Si Si1 0.398719 0.187153 0.863508
Si Si2 0.105708 0.735650 0.226241
Si Si3 0.144805 0.736856 0.014900
Si Si4 0.392118 0.397427 0.627892
Si Si5 0.732395 0.541921 0.666726
Si Si6 0.896057 0.131604 0.876992
O O1 0.500000 0.153629 0.844014
O O2 0.374168 0.259225 0.809268
O O3 0.325135 0.120043 0.850799
O O4 0.403945 0.224724 0.940454
O O5 0.142306 0.652023 0.196568
O O6 0.146137 0.812811 0.185623
O O7 0.000000 0.737449 0.204176
O O8 0.124817 0.657242 0.059561
O O9 0.105809 0.816750 0.051183
O O10 0.250000 0.750000 0.000000
O O11 0.500000 0.423369 0.630825
O O12 0.324773 0.472603 0.628085
O O13 0.750000 0.527116 0.750000
O O14 0.829713 0.553885 0.625458
O O15 0.000000 0.101590 0.863858
#
# Coordination Sequence:
#
# PCOD8263540 Si02
#       6
#    16  16  16  16  16  16
#     4  11  21  37  64  97 128 164 212 270 327 382
#     4   8  17  36  65  90 117 158 207 260 315 372
#     4  11  22  40  67  97 126 163 219 267 315 386
#     4  10  23  43  65  95 132 169 210 268 331 381
#     4  12  24  38  62  98 128 168 213 265 324 392
#     4  10  20  40  64  88 124 170 212 257 317 382
#
# _framework density 20.735019000000001
#
# number of rings (size 3 to 8) (size 9 to 14) (size 15 to 20)
#    0.000    1.667    3.333    3.000    0.000    2.667 
#    0.000    1.667    0.000    4.000    0.000    0.000 
#    0.000    0.000    0.000    0.000    0.000    0.000 
#
# Total GULP energy -594831.703259 kJ/mol
# GULP energy per Si atom -12392.327151 kJ/mol
# Density = 2.068783 g / cm^3
# Si number density = 20.735019 Si / 1000 Ang^3
#
#
#
# Elastic Constant Matrix: (Units=GPa)
#
#
# Indices 1 2 3 4 5 6 
#
# 1 135.3045 57.8103 25.0487 0.0000 0.0000 0.0000
# 2 57.8103 84.4296 42.9775 0.0000 0.0000 0.0000
# 3 25.0487 42.9775 141.9196 0.0000 0.0000 0.0000
# 4 0.0000 0.0000 0.0000 22.2235 0.0000 0.0000
# 5 0.0000 0.0000 0.0000 0.0000 27.1811 0.0000
# 6 0.0000 0.0000 0.0000 0.0000 0.0000 30.0869
#
#
#
# Elastic Compliance Matrix: (Units=1/GPa)
#
#
# Indices 1 2 3 4 5 6 
#
# 1 0.010465 -0.007360 0.000382 0.000000 0.000000 0.000000
# 2 -0.007360 0.019179 -0.004509 0.000000 0.000000 0.000000
# 3 0.000382 -0.004509 0.008344 0.000000 0.000000 0.000000
# 4 0.000000 0.000000 0.000000 0.044997 0.000000 0.000000
# 5 0.000000 0.000000 0.000000 0.000000 0.036790 0.000000
# 6 0.000000 0.000000 0.000000 0.000000 0.000000 0.033237
#
#
# Mechanical properties :
#
#
# Convention : Reuss Voigt Hill
#
# Bulk Modulus (GPa) = 66.60474 68.14742 67.37608
# Shear Modulus (GPa) = 27.62582 31.61945 29.62264
#
# Velocity S-wave (km/s) = 3.65407 3.90927 3.78382
# Velocity P-wave (km/s) = 7.07068 7.30163 7.18708
#
# Compressibility (1/GPa) = 0.01501395
#
# Stress axis : x y z
#
# Youngs Moduli (GPa) = 95.56106 52.14159 119.84227
#
# Poissons Ratio (x) = 0.38374 -0.04574
# Poissons Ratio (y) = 0.70328 0.54036
# Poissons Ratio (z) = -0.03648 0.23510
#
# Static dielectric constant tensor:
#      x y z
#    x 3.848980 0.000000 0.000000 
#    y 0.000000 3.581920 0.000000 
#    z 0.000000 0.000000 4.104200 
# 
# 
# High freq. dielectric constant tensor:
#      x y z
#    x 1.830340 0.000000 0.000000 
#    y 0.000000 1.780170 0.000000 
#    z 0.000000 0.000000 1.812470 
# 
# From -- ./inp_files/39182.got.cif
#   From: 2010.03.12/outbox.cif.g09.slc.cpg/sg64_20_cif.got.tgz:39182.got - 2010.04.10 20:19:32.
