data_PCOD8263541
_publ_section_title
;
Structure prediction by ZEFSAII (Michael W. Deem and Ramdas Pophale) SiO2 
 PCOD8263541
Probable space group: C M C A
;
_chemical_formula_sum "Si O2"
_cell_formula_units_Z 104
_cell_length_a 24.080923
_cell_length_b 16.429108
_cell_length_c 13.507933
_cell_angle_alpha 90.000000
_cell_angle_beta 90.000000
_cell_angle_gamma 90.000000
_cell_volume 5344.117661
_symmetry_space_group_name_H-M "C M C A"
_symmetry_group_IT_number 64
_symmetry_cell_setting 'orthorhombic'
loop_
_space_group_symop_operation_xyz
x,y,z
-x,1/2-y,1/2+z
x,-y,-z
-x,1/2+y,1/2-z
-x,-y,-z
x,1/2+y,1/2-z
-x,y,z
x,1/2-y,1/2+z
1/2+x,1/2+y,z
1/2-x,-y,1/2+z
1/2+x,1/2-y,-z
1/2-x,y,1/2-z
1/2-x,1/2-y,-z
1/2+x,y,1/2-z
1/2-x,1/2+y,z
1/2+x,-y,1/2+z
loop_
_atom_site_type_symbol
_atom_site_label
_atom_site_fract_x
_atom_site_fract_y
_atom_site_fract_z
Si Si1 0.878660 0.469284 0.648357
Si Si2 0.717456 0.164507 0.009927
Si Si3 0.063956 0.168543 0.028922
Si Si4 0.437266 0.372323 0.192674
Si Si5 0.711288 0.000000 0.500000
Si Si6 0.637704 0.786666 0.149187
Si Si7 0.811764 0.353775 0.773541
O O1 0.906194 0.412663 0.565537
O O2 0.925328 0.532341 0.681319
O O3 0.825679 0.512471 0.598093
O O4 0.857932 0.420886 0.745473
O O5 0.675816 0.154897 0.917744
O O6 0.750000 0.250000 0.000000
O O7 0.682038 0.167751 0.111171
O O8 0.754855 0.083736 0.011136
O O9 0.092913 0.245654 0.077675
O O10 0.000000 0.166702 0.061690
O O11 0.070360 0.174768 0.910832
O O12 0.500000 0.361518 0.231452
O O13 0.394094 0.338883 0.270697
O O14 0.678199 0.724052 0.204206
O O15 0.750000 0.386308 0.750000
#
# Coordination Sequence:
#
# PCOD8263541 Si02
#       7
#    16  16  16  16   8  16  16
#     4  11  22  38  61  91 126 156 205 269 320 371
#     4  12  25  43  62  92 133 170 211 256 316 385
#     4  10  20  40  64  89 120 159 210 273 325 369
#     4  11  23  38  63  93 118 160 216 260 317 383
#     4  12  24  38  63  94 127 164 210 256 316 380
#     4  11  24  38  63  88 125 166 204 261 318 381
#     4  11  22  40  60  91 126 163 205 259 310 382
#
# _framework density 19.460649
#
# number of rings (size 3 to 8) (size 9 to 14) (size 15 to 20)
#    0.000    0.923    4.615    2.769    4.308    1.231 
#    0.000    0.000    0.000    3.692    0.000    0.000 
#    0.000    0.000    0.000    0.000    0.000    0.000 
#
# Total GULP energy -644900.063307 kJ/mol
# GULP energy per Si atom -12401.924294 kJ/mol
# Density = 1.941636 g / cm^3
# Si number density = 19.460649 Si / 1000 Ang^3
#
#
#
# Elastic Constant Matrix: (Units=GPa)
#
#
# Indices 1 2 3 4 5 6 
#
# 1 95.5426 20.9421 40.9473 0.0000 0.0000 0.0000
# 2 20.9421 71.1941 21.7934 0.0000 0.0000 0.0000
# 3 40.9473 21.7934 109.5495 0.0000 0.0000 0.0000
# 4 0.0000 0.0000 0.0000 18.4711 0.0000 0.0000
# 5 0.0000 0.0000 0.0000 0.0000 30.0848 0.0000
# 6 0.0000 0.0000 0.0000 0.0000 0.0000 28.5898
#
#
#
# Elastic Compliance Matrix: (Units=1/GPa)
#
#
# Indices 1 2 3 4 5 6 
#
# 1 0.012855 -0.002460 -0.004316 0.000000 0.000000 0.000000
# 2 -0.002460 0.015428 -0.002150 0.000000 0.000000 0.000000
# 3 -0.004316 -0.002150 0.011169 0.000000 0.000000 0.000000
# 4 0.000000 0.000000 0.000000 0.054139 0.000000 0.000000
# 5 0.000000 0.000000 0.000000 0.000000 0.033239 0.000000
# 6 0.000000 0.000000 0.000000 0.000000 0.000000 0.034977
#
#
# Mechanical properties :
#
#
# Convention : Reuss Voigt Hill
#
# Bulk Modulus (GPa) = 46.29380 49.29463 47.79422
# Shear Modulus (GPa) = 26.75810 28.26936 27.51373
#
# Velocity S-wave (km/s) = 3.71210 3.81549 3.76415
# Velocity P-wave (km/s) = 6.49715 6.69298 6.59579
#
# Compressibility (1/GPa) = 0.02160117
#
# Stress axis : x y z
#
# Youngs Moduli (GPa) = 77.78823 64.81788 89.53359
#
# Poissons Ratio (x) = 0.15948 0.38639
# Poissons Ratio (y) = 0.19139 0.19245
# Poissons Ratio (z) = 0.33570 0.13933
#
# Static dielectric constant tensor:
#      x y z
#    x 3.638370 0.000000 0.000000 
#    y 0.000000 3.469990 0.000000 
#    z 0.000000 0.000000 3.705560 
# 
# 
# High freq. dielectric constant tensor:
#      x y z
#    x 1.764370 0.000000 0.000000 
#    y 0.000000 1.748240 0.000000 
#    z 0.000000 0.000000 1.765640 
# 
# From -- ./inp_files/19213.got.cif
#   From: 2010.03.12/outbox.cif.g09.slc.cpg/sg64_10_cif.got.tgz:19213.got - 2010.04.10 20:19:32.
