data_PCOD8263941
_publ_section_title
;
Structure prediction by ZEFSAII (Michael W. Deem and Ramdas Pophale) SiO2 
 PCOD8263941
Probable space group: C M C A
;
_chemical_formula_sum "Si O2"
_cell_formula_units_Z 56
_cell_length_a 16.132583
_cell_length_b 13.778807
_cell_length_c 11.570262
_cell_angle_alpha 90.000000
_cell_angle_beta 90.000000
_cell_angle_gamma 90.000000
_cell_volume 2571.927479
_symmetry_space_group_name_H-M "C M C A"
_symmetry_group_IT_number 64
_symmetry_cell_setting 'orthorhombic'
loop_
_space_group_symop_operation_xyz
x,y,z
-x,1/2-y,1/2+z
x,-y,-z
-x,1/2+y,1/2-z
-x,-y,-z
x,1/2+y,1/2-z
-x,y,z
x,1/2-y,1/2+z
1/2+x,1/2+y,z
1/2-x,-y,1/2+z
1/2+x,1/2-y,-z
1/2-x,y,1/2-z
1/2-x,1/2-y,-z
1/2+x,y,1/2-z
1/2-x,1/2+y,z
1/2+x,-y,1/2+z
loop_
_atom_site_type_symbol
_atom_site_label
_atom_site_fract_x
_atom_site_fract_y
_atom_site_fract_z
Si Si1 0.093437 0.641900 0.563467
Si Si2 0.838013 0.459434 0.651150
Si Si3 0.098273 0.353888 0.871229
Si Si4 0.691838 0.500000 0.500000
O O1 0.147201 0.618007 0.451101
O O2 0.098790 0.550842 0.651945
O O3 0.123257 0.741019 0.623406
O O4 0.000000 0.655929 0.520820
O O5 0.847772 0.400477 0.768253
O O6 0.747129 0.505133 0.619013
O O7 0.000000 0.369026 0.853020
O O8 0.130677 0.406580 0.988324
#
# Coordination Sequence:
#
# PCOD8263941 Si02
#       4
#    16  16  16   8
#     4   9  19  36  60  89 120 159 207 255 302 361
#     4  10  21  39  62  86 124 165 203 250 306 367
#     4  11  22  38  63  92 124 163 206 253 304 361
#     4  10  23  40  57  88 122 156 200 252 305 356
#
# _framework density 21.773553
#
# number of rings (size 3 to 8) (size 9 to 14) (size 15 to 20)
#    0.000    2.286    0.000    4.714    0.000    6.857 
#    0.000    8.571    0.000    0.000    0.000    0.000 
#    0.000    0.000    0.000    0.000    0.000    0.000 
#
# Total GULP energy -346882.767046 kJ/mol
# GULP energy per Si atom -12388.670252 kJ/mol
# Density = 2.172400 g / cm^3
# Si number density = 21.773553 Si / 1000 Ang^3
#
#
#
# Elastic Constant Matrix: (Units=GPa)
#
#
# Indices 1 2 3 4 5 6 
#
# 1 65.0041 40.1197 45.4387 0.0000 0.0000 0.0000
# 2 40.1197 164.7199 84.9437 0.0000 0.0000 0.0000
# 3 45.4387 84.9437 90.2686 0.0000 0.0000 0.0000
# 4 0.0000 0.0000 0.0000 38.1712 0.0000 0.0000
# 5 0.0000 0.0000 0.0000 0.0000 26.3965 0.0000
# 6 0.0000 0.0000 0.0000 0.0000 0.0000 19.6493
#
#
#
# Elastic Compliance Matrix: (Units=1/GPa)
#
#
# Indices 1 2 3 4 5 6 
#
# 1 0.023782 0.000740 -0.012667 0.000000 0.000000 0.000000
# 2 0.000740 0.011817 -0.011493 0.000000 0.000000 0.000000
# 3 -0.012667 -0.011493 0.028269 0.000000 0.000000 0.000000
# 4 0.000000 0.000000 0.000000 0.026198 0.000000 0.000000
# 5 0.000000 0.000000 0.000000 0.000000 0.037884 0.000000
# 6 0.000000 0.000000 0.000000 0.000000 0.000000 0.050892
#
#
# Mechanical properties :
#
#
# Convention : Reuss Voigt Hill
#
# Bulk Modulus (GPa) = 58.72684 73.44411 66.08548
# Shear Modulus (GPa) = 21.61152 26.80944 24.21048
#
# Velocity S-wave (km/s) = 3.15391 3.51277 3.33817
# Velocity P-wave (km/s) = 6.34768 7.08921 6.72867
#
# Compressibility (1/GPa) = 0.01702799
#
# Stress axis : x y z
#
# Youngs Moduli (GPa) = 42.04942 84.62172 35.37413
#
# Poissons Ratio (x) = -0.06263 0.44810
# Poissons Ratio (y) = -0.03112 0.40655
# Poissons Ratio (z) = 0.53266 0.97254
#
# Static dielectric constant tensor:
#      x y z
#    x 4.097070 0.000000 0.000000 
#    y 0.000000 4.157560 0.000000 
#    z 0.000000 0.000000 3.760160 
# 
# 
# High freq. dielectric constant tensor:
#      x y z
#    x 1.867980 0.000000 0.000000 
#    y 0.000000 1.857380 0.000000 
#    z 0.000000 0.000000 1.831200 
# 
# From -- ./inp_files/13761.got.cif
#   From: 2010.03.12/outbox.cif.g09.slc.cpg/sg64_7_cif.got.tgz:13761.got - 2010.04.10 20:19:32.
