data_PCOD8263110
_publ_section_title
;
Structure prediction by ZEFSAII (Michael W. Deem and Ramdas Pophale) SiO2 
 PCOD8263110
Probable space group: C M C A
;
_chemical_formula_sum "Si O2"
_cell_formula_units_Z 112
_cell_length_a 27.805665
_cell_length_b 18.450172
_cell_length_c 10.977159
_cell_angle_alpha 90.000000
_cell_angle_beta 90.000000
_cell_angle_gamma 90.000000
_cell_volume 5631.494446
_symmetry_space_group_name_H-M "C M C A"
_symmetry_group_IT_number 64
_symmetry_cell_setting 'orthorhombic'
loop_
_space_group_symop_operation_xyz
x,y,z
-x,1/2-y,1/2+z
x,-y,-z
-x,1/2+y,1/2-z
-x,-y,-z
x,1/2+y,1/2-z
-x,y,z
x,1/2-y,1/2+z
1/2+x,1/2+y,z
1/2-x,-y,1/2+z
1/2+x,1/2-y,-z
1/2-x,y,1/2-z
1/2-x,1/2-y,-z
1/2+x,y,1/2-z
1/2-x,1/2+y,z
1/2+x,-y,1/2+z
loop_
_atom_site_type_symbol
_atom_site_label
_atom_site_fract_x
_atom_site_fract_y
_atom_site_fract_z
Si Si1 0.054530 0.328832 0.114544
Si Si2 0.109503 0.555539 0.322835
Si Si3 0.780337 0.093289 0.864246
Si Si4 0.052668 0.565428 0.092165
Si Si5 0.718063 0.078535 0.362869
Si Si6 0.887936 0.610346 0.672780
Si Si7 0.444280 0.672413 0.037107
O O1 0.091584 0.376498 0.192878
O O2 0.070043 0.244743 0.111140
O O3 0.000000 0.338011 0.165252
O O4 0.057722 0.358378 0.977251
O O5 0.097919 0.556255 0.180266
O O6 0.161111 0.593490 0.345410
O O7 0.105871 0.473016 0.371472
O O8 0.067872 0.602171 0.384293
O O9 0.750000 0.125471 0.750000
O O10 0.831878 0.127126 0.834832
O O11 0.776791 0.007283 0.860629
O O12 0.765422 0.113190 0.005583
O O13 0.000000 0.563448 0.158198
O O14 0.055407 0.500000 0.000000
O O15 0.750000 0.110962 0.250000
O O16 0.915356 0.667488 0.588343
O O17 0.500000 0.673780 0.003789
#
# Coordination Sequence:
#
# PCOD8263110 Si02
#       7
#    16  16  16  16  16  16  16
#     4  10  23  39  55  82 119 162 202 240 292 360
#     4  11  21  36  60  89 118 151 197 250 300 349
#     4   9  18  34  58  85 116 152 191 244 303 359
#     4  10  20  36  55  82 119 154 198 247 289 351
#     4   9  18  34  54  86 123 148 187 249 303 357
#     4  11  21  38  61  85 118 150 196 249 298 353
#     4  11  24  37  57  85 119 160 198 240 300 360
#
# _framework density 19.888148000000001
#
# number of rings (size 3 to 8) (size 9 to 14) (size 15 to 20)
#    0.000    1.857    2.857    1.286    2.000    3.429 
#    2.571    0.000    0.000    1.714    0.000    0.000 
#    0.000    0.000    0.000    0.000    0.000    0.000 
#
# Total GULP energy -693994.192587 kJ/mol
# GULP energy per Si atom -12392.753439 kJ/mol
# Density = 1.984288 g / cm^3
# Si number density = 19.888148 Si / 1000 Ang^3
#
#
#
# Elastic Constant Matrix: (Units=GPa)
#
#
# Indices 1 2 3 4 5 6 
#
# 1 96.5217 29.8149 58.6341 0.0000 0.0000 0.0000
# 2 29.8149 58.8431 8.6402 0.0000 0.0000 0.0000
# 3 58.6341 8.6402 112.3361 0.0000 0.0000 0.0000
# 4 0.0000 0.0000 0.0000 21.2585 0.0000 0.0000
# 5 0.0000 0.0000 0.0000 0.0000 26.2142 0.0000
# 6 0.0000 0.0000 0.0000 0.0000 0.0000 10.3531
#
#
#
# Elastic Compliance Matrix: (Units=1/GPa)
#
#
# Indices 1 2 3 4 5 6 
#
# 1 0.018211 -0.007921 -0.008896 0.000000 0.000000 0.000000
# 2 -0.007921 0.020634 0.002547 0.000000 0.000000 0.000000
# 3 -0.008896 0.002547 0.013349 0.000000 0.000000 0.000000
# 4 0.000000 0.000000 0.000000 0.047040 0.000000 0.000000
# 5 0.000000 0.000000 0.000000 0.000000 0.038147 0.000000
# 6 0.000000 0.000000 0.000000 0.000000 0.000000 0.096590
#
#
# Mechanical properties :
#
#
# Convention : Reuss Voigt Hill
#
# Bulk Modulus (GPa) = 42.27497 51.31991 46.79744
# Shear Modulus (GPa) = 18.49140 22.93928 20.71534
#
# Velocity S-wave (km/s) = 3.05252 3.39988 3.23087
# Velocity P-wave (km/s) = 5.80744 6.42437 6.12368
#
# Compressibility (1/GPa) = 0.02365466
#
# Stress axis : x y z
#
# Youngs Moduli (GPa) = 54.91078 48.46413 74.91013
#
# Poissons Ratio (x) = 0.38389 0.66642
# Poissons Ratio (y) = 0.43496 -0.19083
# Poissons Ratio (z) = 0.48850 -0.12346
#
# Static dielectric constant tensor:
#      x y z
#    x 3.639040 0.000000 0.000000 
#    y 0.000000 3.368740 0.000000 
#    z 0.000000 0.000000 3.976590 
# 
# 
# High freq. dielectric constant tensor:
#      x y z
#    x 1.767700 0.000000 0.000000 
#    y 0.000000 1.743360 0.000000 
#    z 0.000000 0.000000 1.785050 
# 
# From -- ./inp_files/18553.got.cif
#   From: 2010.03.12/outbox.cif.g09.slc.cpg/sg64_10_cif.got.tgz:18553.got - 2010.04.10 20:19:32.
