data_PCOD8263341
_publ_section_title
;
Structure prediction by ZEFSAII (Michael W. Deem and Ramdas Pophale) SiO2 
 PCOD8263341
Probable space group: C M C A
;
_chemical_formula_sum "Si O2"
_cell_formula_units_Z 112
_cell_length_a 16.959608
_cell_length_b 13.997340
_cell_length_c 23.686522
_cell_angle_alpha 90.000000
_cell_angle_beta 90.000000
_cell_angle_gamma 90.000000
_cell_volume 5622.929232
_symmetry_space_group_name_H-M "C M C A"
_symmetry_group_IT_number 64
_symmetry_cell_setting 'orthorhombic'
loop_
_space_group_symop_operation_xyz
x,y,z
-x,1/2-y,1/2+z
x,-y,-z
-x,1/2+y,1/2-z
-x,-y,-z
x,1/2+y,1/2-z
-x,y,z
x,1/2-y,1/2+z
1/2+x,1/2+y,z
1/2-x,-y,1/2+z
1/2+x,1/2-y,-z
1/2-x,y,1/2-z
1/2-x,1/2-y,-z
1/2+x,y,1/2-z
1/2-x,1/2+y,z
1/2+x,-y,1/2+z
loop_
_atom_site_type_symbol
_atom_site_label
_atom_site_fract_x
_atom_site_fract_y
_atom_site_fract_z
Si Si1 0.190350 0.428990 0.375573
Si Si2 0.726468 0.890062 0.012995
Si Si3 0.852741 0.940287 0.319266
Si Si4 0.410197 0.816773 0.082058
Si Si5 0.196378 0.351818 0.601802
Si Si6 0.690378 0.854649 0.799484
Si Si7 0.092349 0.670689 0.711179
O O1 0.214343 0.378438 0.434055
O O2 0.260971 0.417403 0.330517
O O3 0.169714 0.539801 0.386746
O O4 0.115049 0.376054 0.349102
O O5 0.641709 0.844974 0.027700
O O6 0.764707 0.837052 0.959787
O O7 0.711013 0.000000 0.000000
O O8 0.905172 0.898303 0.369972
O O9 0.880515 0.899806 0.260095
O O10 0.862778 0.054826 0.317506
O O11 0.500000 0.805154 0.062344
O O12 0.379875 0.715709 0.107103
O O13 0.260468 0.316468 0.647025
O O14 0.750000 0.885619 0.750000
O O15 0.632885 0.772241 0.778256
O O16 0.000000 0.687065 0.712609
#
# Coordination Sequence:
#
# PCOD8263341 Si02
#       7
#    16  16  16  16  16  16  16
#     4   9  19  38  61  82 107 145 193 233 269 324
#     4   9  19  38  60  80 107 149 196 235 272 322
#     4  10  21  39  59  79 108 148 191 230 270 326
#     4  11  22  35  56  87 120 149 180 229 287 335
#     4  10  20  37  62  84 108 148 193 232 270 327
#     4  11  22  39  62  83 107 147 194 230 269 331
#     4  12  24  36  55  85 119 148 177 228 289 336
#
# _framework density 19.918444000000001
#
# number of rings (size 3 to 8) (size 9 to 14) (size 15 to 20)
#    0.000    1.714    0.000    7.286    0.000    2.000 
#    0.000    2.857    0.000    2.571    0.000    0.000 
#    0.000    0.000    0.000    0.000    0.000    0.000 
#
# Total GULP energy -694639.326480 kJ/mol
# GULP energy per Si atom -12404.273687 kJ/mol
# Density = 1.987311 g / cm^3
# Si number density = 19.918444 Si / 1000 Ang^3
#
#
#
# Elastic Constant Matrix: (Units=GPa)
#
#
# Indices 1 2 3 4 5 6 
#
# 1 96.5380 56.1152 41.7629 0.0000 0.0000 0.0000
# 2 56.1152 76.8717 22.0029 0.0000 0.0000 0.0000
# 3 41.7629 22.0029 98.4341 0.0000 0.0000 0.0000
# 4 0.0000 0.0000 0.0000 25.2208 0.0000 0.0000
# 5 0.0000 0.0000 0.0000 0.0000 17.4593 0.0000
# 6 0.0000 0.0000 0.0000 0.0000 0.0000 11.0795
#
#
#
# Elastic Compliance Matrix: (Units=1/GPa)
#
#
# Indices 1 2 3 4 5 6 
#
# 1 0.020659 -0.013431 -0.005763 0.000000 0.000000 0.000000
# 2 -0.013431 0.022630 0.000640 0.000000 0.000000 0.000000
# 3 -0.005763 0.000640 0.012461 0.000000 0.000000 0.000000
# 4 0.000000 0.000000 0.000000 0.039650 0.000000 0.000000
# 5 0.000000 0.000000 0.000000 0.000000 0.057276 0.000000
# 6 0.000000 0.000000 0.000000 0.000000 0.000000 0.090257
#
#
# Mechanical properties :
#
#
# Convention : Reuss Voigt Hill
#
# Bulk Modulus (GPa) = 53.64207 56.84508 55.24357
# Shear Modulus (GPa) = 17.46698 20.88278 19.17488
#
# Velocity S-wave (km/s) = 2.96450 3.24144 3.10606
# Velocity P-wave (km/s) = 6.22150 6.52764 6.37641
#
# Compressibility (1/GPa) = 0.01864209
#
# Stress axis : x y z
#
# Youngs Moduli (GPa) = 48.40556 44.18907 80.25054
#
# Poissons Ratio (x) = 0.59351 0.46246
# Poissons Ratio (y) = 0.65014 -0.05136
# Poissons Ratio (z) = 0.27895 -0.02828
#
# Static dielectric constant tensor:
#      x y z
#    x 3.314040 0.000000 0.000000 
#    y 0.000000 3.725110 0.000000 
#    z 0.000000 0.000000 3.777670 
# 
# 
# High freq. dielectric constant tensor:
#      x y z
#    x 1.743620 0.000000 0.000000 
#    y 0.000000 1.795990 0.000000 
#    z 0.000000 0.000000 1.784940 
# 
# From -- ./inp_files/45220.got.cif
#   From: 2010.03.12/outbox.cif.g09.slc.cpg/sg64_23_cif.got.tgz:45220.got - 2010.04.10 20:19:32.
