data_PCOD8263001
_publ_section_title
;
Structure prediction by ZEFSAII (Michael W. Deem and Ramdas Pophale) SiO2 
 PCOD8263001
Probable space group: C M C A
;
_chemical_formula_sum "Si O2"
_cell_formula_units_Z 64
_cell_length_a 21.127251
_cell_length_b 8.078547
_cell_length_c 18.140852
_cell_angle_alpha 90.000000
_cell_angle_beta 90.000000
_cell_angle_gamma 90.000000
_cell_volume 3096.235089
_symmetry_space_group_name_H-M "C M C A"
_symmetry_group_IT_number 64
_symmetry_cell_setting 'orthorhombic'
loop_
_space_group_symop_operation_xyz
x,y,z
-x,1/2-y,1/2+z
x,-y,-z
-x,1/2+y,1/2-z
-x,-y,-z
x,1/2+y,1/2-z
-x,y,z
x,1/2-y,1/2+z
1/2+x,1/2+y,z
1/2-x,-y,1/2+z
1/2+x,1/2-y,-z
1/2-x,y,1/2-z
1/2-x,1/2-y,-z
1/2+x,y,1/2-z
1/2-x,1/2+y,z
1/2+x,-y,1/2+z
loop_
_atom_site_type_symbol
_atom_site_label
_atom_site_fract_x
_atom_site_fract_y
_atom_site_fract_z
Si Si1 0.072421 0.443296 0.650137
Si Si2 0.365669 0.849065 0.223599
Si Si3 0.689711 0.464268 0.080273
Si Si4 0.706091 0.145295 0.163794
O O1 0.084102 0.259254 0.679281
O O2 0.093134 0.576194 0.710911
O O3 0.116948 0.474766 0.579215
O O4 0.000000 0.467815 0.627245
O O5 0.305885 0.743209 0.258206
O O6 0.339678 0.985286 0.166245
O O7 0.691655 0.267966 0.096098
O O8 0.724443 0.567820 0.146567
O O9 0.719870 0.500000 0.000000
#
# Coordination Sequence:
#
# PCOD8263001 Si02
#       4
#    16  16  16  16
#     4  10  20  35  56  80 109 144 181 225 276 331
#     4   9  20  36  57  85 110 135 175 233 292 335
#     4  11  23  37  55  79 112 152 188 222 264 327
#     4  10  21  36  57  83 111 138 177 231 286 330
#
# _framework density 20.670264
#
# number of rings (size 3 to 8) (size 9 to 14) (size 15 to 20)
#    0.000    2.000    0.000    3.000    0.000   17.500 
#    0.000    1.250    0.000    1.500    0.000    0.000 
#    0.000    0.000    0.000    0.000    0.000    0.000 
#
# Total GULP energy -396491.704158 kJ/mol
# GULP energy per Si atom -12390.365755 kJ/mol
# Density = 2.062322 g / cm^3
# Si number density = 20.670264 Si / 1000 Ang^3
#
#
#
# Elastic Constant Matrix: (Units=GPa)
#
#
# Indices 1 2 3 4 5 6 
#
# 1 129.7446 41.6073 12.4185 0.0000 0.0000 0.0000
# 2 41.6073 122.1966 30.6823 0.0000 0.0000 0.0000
# 3 12.4185 30.6823 57.7345 0.0000 0.0000 0.0000
# 4 0.0000 0.0000 0.0000 27.4835 0.0000 0.0000
# 5 0.0000 0.0000 0.0000 0.0000 17.4283 0.0000
# 6 0.0000 0.0000 0.0000 0.0000 0.0000 22.8129
#
#
#
# Elastic Compliance Matrix: (Units=1/GPa)
#
#
# Indices 1 2 3 4 5 6 
#
# 1 0.008658 -0.002862 -0.000341 0.000000 0.000000 0.000000
# 2 -0.002862 0.010390 -0.004906 0.000000 0.000000 0.000000
# 3 -0.000341 -0.004906 0.020001 0.000000 0.000000 0.000000
# 4 0.000000 0.000000 0.000000 0.036386 0.000000 0.000000
# 5 0.000000 0.000000 0.000000 0.000000 0.057378 0.000000
# 6 0.000000 0.000000 0.000000 0.000000 0.000000 0.043835
#
#
# Mechanical properties :
#
#
# Convention : Reuss Voigt Hill
#
# Bulk Modulus (GPa) = 43.80134 53.23244 48.51689
# Shear Modulus (GPa) = 24.94057 28.54278 26.74167
#
# Velocity S-wave (km/s) = 3.47737 3.72003 3.60074
# Velocity P-wave (km/s) = 6.11223 6.65286 6.38826
#
# Compressibility (1/GPa) = 0.02283035
#
# Stress axis : x y z
#
# Youngs Moduli (GPa) = 115.49987 96.24665 49.99690
#
# Poissons Ratio (x) = 0.27549 0.01706
# Poissons Ratio (y) = 0.33060 0.24528
# Poissons Ratio (z) = 0.03940 0.47218
#
# Static dielectric constant tensor:
#      x y z
#    x 3.590940 0.000000 0.000000 
#    y 0.000000 4.092570 0.000000 
#    z 0.000000 0.000000 3.439140 
# 
# 
# High freq. dielectric constant tensor:
#      x y z
#    x 1.792700 0.000000 0.000000 
#    y 0.000000 1.831170 0.000000 
#    z 0.000000 0.000000 1.778780 
# 
# From -- ./inp_files/33861.got.cif
#   From: 2010.03.12/outbox.cif.g09.slc.cpg/sg64_17_cif.got.tgz:33861.got - 2010.04.10 20:19:32.
