data_PCOD8263596
_publ_section_title
;
Structure prediction by ZEFSAII (Michael W. Deem and Ramdas Pophale) SiO2 
 PCOD8263596
Probable space group: C M C A
;
_chemical_formula_sum "Si O2"
_cell_formula_units_Z 96
_cell_length_a 22.418212
_cell_length_b 11.312955
_cell_length_c 19.006284
_cell_angle_alpha 90.000000
_cell_angle_beta 90.000000
_cell_angle_gamma 90.000000
_cell_volume 4820.301972
_symmetry_space_group_name_H-M "C M C A"
_symmetry_group_IT_number 64
_symmetry_cell_setting 'orthorhombic'
loop_
_space_group_symop_operation_xyz
x,y,z
-x,1/2-y,1/2+z
x,-y,-z
-x,1/2+y,1/2-z
-x,-y,-z
x,1/2+y,1/2-z
-x,y,z
x,1/2-y,1/2+z
1/2+x,1/2+y,z
1/2-x,-y,1/2+z
1/2+x,1/2-y,-z
1/2-x,y,1/2-z
1/2-x,1/2-y,-z
1/2+x,y,1/2-z
1/2-x,1/2+y,z
1/2+x,-y,1/2+z
loop_
_atom_site_type_symbol
_atom_site_label
_atom_site_fract_x
_atom_site_fract_y
_atom_site_fract_z
Si Si1 0.782510 0.120248 0.819954
Si Si2 0.500000 0.464812 0.807146
Si Si3 0.686077 0.616447 0.456067
Si Si4 0.123514 0.318989 0.820979
Si Si5 0.799364 0.736718 0.414737
Si Si6 0.374285 0.424334 0.827881
Si Si7 0.500000 0.269166 0.211721
O O1 0.750000 0.073933 0.750000
O O2 0.821758 0.234106 0.800915
O O3 0.733483 0.150290 0.879343
O O4 0.825926 0.020795 0.849965
O O5 0.440037 0.463633 0.854727
O O6 0.500000 0.336331 0.768740
O O7 0.500000 0.591228 0.762710
O O8 0.677627 0.500000 0.500000
O O9 0.636939 0.615392 0.394332
O O10 0.752103 0.629198 0.422827
O O11 0.675574 0.727332 0.508781
O O12 0.120279 0.412263 0.756915
O O13 0.061104 0.249388 0.832112
O O14 0.854404 0.696856 0.365690
#
# Coordination Sequence:
#
# PCOD8263596 Si02
#       7
#    16   8  16  16  16  16   8
#     4  11  21  32  59  91 121 155 195 259 314 375
#     4  10  22  40  67  93 131 167 213 269 322 374
#     4  10  22  39  57  85 125 169 202 252 324 382
#     4  10  22  38  60  87 124 159 211 257 312 372
#     4  10  22  38  57  89 125 162 201 261 318 388
#     4  11  22  37  62  94 124 160 213 265 315 373
#     4  10  20  44  62  95 124 174 211 268 322 370
#
# _framework density 19.915765
#
# number of rings (size 3 to 8) (size 9 to 14) (size 15 to 20)
#    0.000    1.667    3.333    1.000    7.000    0.000 
#    3.000    1.250    0.000    1.000    0.000    0.000 
#    0.000    0.000    0.000    0.000    0.000    0.000 
#
# Total GULP energy -594839.368225 kJ/mol
# GULP energy per Si atom -12392.486838 kJ/mol
# Density = 1.987044 g / cm^3
# Si number density = 19.915765 Si / 1000 Ang^3
#
#
#
# Elastic Constant Matrix: (Units=GPa)
#
#
# Indices 1 2 3 4 5 6 
#
# 1 119.3617 42.7697 44.8984 0.0000 0.0000 0.0000
# 2 42.7697 84.3530 17.5971 0.0000 0.0000 0.0000
# 3 44.8984 17.5971 88.7682 0.0000 0.0000 0.0000
# 4 0.0000 0.0000 0.0000 26.6758 0.0000 0.0000
# 5 0.0000 0.0000 0.0000 0.0000 13.9621 0.0000
# 6 0.0000 0.0000 0.0000 0.0000 0.0000 27.4141
#
#
#
# Elastic Compliance Matrix: (Units=1/GPa)
#
#
# Indices 1 2 3 4 5 6 
#
# 1 0.012126 -0.005079 -0.005126 0.000000 0.000000 0.000000
# 2 -0.005079 0.014494 -0.000304 0.000000 0.000000 0.000000
# 3 -0.005126 -0.000304 0.013919 0.000000 0.000000 0.000000
# 4 0.000000 0.000000 0.000000 0.037487 0.000000 0.000000
# 5 0.000000 0.000000 0.000000 0.000000 0.071622 0.000000
# 6 0.000000 0.000000 0.000000 0.000000 0.000000 0.036478
#
#
# Mechanical properties :
#
#
# Convention : Reuss Voigt Hill
#
# Bulk Modulus (GPa) = 51.23231 55.89036 53.56133
# Shear Modulus (GPa) = 23.40266 26.09158 24.74712
#
# Velocity S-wave (km/s) = 3.43167 3.62345 3.52886
# Velocity P-wave (km/s) = 6.44066 6.75501 6.59971
#
# Compressibility (1/GPa) = 0.01951893
#
# Stress axis : x y z
#
# Youngs Moduli (GPa) = 82.46660 68.99599 71.84650
#
# Poissons Ratio (x) = 0.35042 0.36832
# Poissons Ratio (y) = 0.41884 0.02186
# Poissons Ratio (z) = 0.42276 0.02099
#
# Static dielectric constant tensor:
#      x y z
#    x 4.037490 0.000000 0.000000 
#    y 0.000000 3.558910 0.000000 
#    z 0.000000 0.000000 3.454090 
# 
# 
# High freq. dielectric constant tensor:
#      x y z
#    x 1.777150 0.000000 0.000000 
#    y 0.000000 1.780360 0.000000 
#    z 0.000000 0.000000 1.747640 
# 
# From -- ./inp_files/34979.got.cif
#   From: 2010.03.12/outbox.cif.g09.slc.cpg/sg64_18_cif.got.tgz:34979.got - 2010.04.10 20:19:32.
