data_PCOD8263512
_publ_section_title
;
Structure prediction by ZEFSAII (Michael W. Deem and Ramdas Pophale) SiO2 
 PCOD8263512
Probable space group: C M C A
;
_chemical_formula_sum "Si O2"
_cell_formula_units_Z 112
_cell_length_a 19.580304
_cell_length_b 11.895190
_cell_length_c 23.619957
_cell_angle_alpha 90.000000
_cell_angle_beta 90.000000
_cell_angle_gamma 90.000000
_cell_volume 5501.358111
_symmetry_space_group_name_H-M "C M C A"
_symmetry_group_IT_number 64
_symmetry_cell_setting 'orthorhombic'
loop_
_space_group_symop_operation_xyz
x,y,z
-x,1/2-y,1/2+z
x,-y,-z
-x,1/2+y,1/2-z
-x,-y,-z
x,1/2+y,1/2-z
-x,y,z
x,1/2-y,1/2+z
1/2+x,1/2+y,z
1/2-x,-y,1/2+z
1/2+x,1/2-y,-z
1/2-x,y,1/2-z
1/2-x,1/2-y,-z
1/2+x,y,1/2-z
1/2-x,1/2+y,z
1/2+x,-y,1/2+z
loop_
_atom_site_type_symbol
_atom_site_label
_atom_site_fract_x
_atom_site_fract_y
_atom_site_fract_z
Si Si1 0.577936 0.565511 0.844150
Si Si2 0.658835 0.371466 0.355630
Si Si3 0.423800 0.173725 0.303546
Si Si4 0.422641 0.255518 0.577066
Si Si5 0.789707 0.820616 0.195261
Si Si6 0.578633 0.379401 0.471369
Si Si7 0.868794 0.384268 0.814801
O O1 0.500000 0.592291 0.822258
O O2 0.589461 0.431916 0.846072
O O3 0.587397 0.623765 0.906371
O O4 0.635350 0.621972 0.804387
O O5 0.629831 0.270487 0.317160
O O6 0.741404 0.354156 0.358360
O O7 0.627144 0.370117 0.417445
O O8 0.643696 0.485278 0.322526
O O9 0.500000 0.220342 0.313508
O O10 0.418395 0.131344 0.238947
O O11 0.500000 0.289224 0.567155
O O12 0.390278 0.287922 0.516224
O O13 0.399163 0.334662 0.627772
O O14 0.750000 0.864944 0.250000
O O15 0.798940 0.685307 0.196651
O O16 0.585548 0.500000 0.500000
O O17 0.500000 0.356125 0.452761
#
# Coordination Sequence:
#
# PCOD8263512 Si02
#       7
#    16  16  16  16  16  16  16
#     4   9  21  42  66  92 128 172 222 267 324 399
#     4  12  25  40  66  96 132 173 221 272 328 392
#     4  11  24  39  61  99 136 166 214 273 327 396
#     4   9  18  37  65  92 124 172 215 264 325 381
#     4  11  23  42  62  91 129 176 212 264 326 397
#     4  10  20  39  66  98 134 170 222 281 327 381
#     4  11  23  39  58  89 129 174 218 262 324 393
#
# _framework density 20.358609000000001
#
# number of rings (size 3 to 8) (size 9 to 14) (size 15 to 20)
#    0.000    1.571    2.857    1.714    4.000    2.857 
#    0.000    3.571    0.000    3.429    0.000    0.000 
#    0.000    0.000    0.000    0.000    0.000    0.000 
#
# Total GULP energy -693927.334325 kJ/mol
# GULP energy per Si atom -12391.559542 kJ/mol
# Density = 2.031227 g / cm^3
# Si number density = 20.358609 Si / 1000 Ang^3
#
#
#
# Elastic Constant Matrix: (Units=GPa)
#
#
# Indices 1 2 3 4 5 6 
#
# 1 84.8930 35.0876 35.3525 0.0000 0.0000 0.0000
# 2 35.0876 115.1789 25.9653 0.0000 0.0000 0.0000
# 3 35.3525 25.9653 96.6301 0.0000 0.0000 0.0000
# 4 0.0000 0.0000 0.0000 30.1610 0.0000 0.0000
# 5 0.0000 0.0000 0.0000 0.0000 28.8543 0.0000
# 6 0.0000 0.0000 0.0000 0.0000 0.0000 25.2964
#
#
#
# Elastic Compliance Matrix: (Units=1/GPa)
#
#
# Indices 1 2 3 4 5 6 
#
# 1 0.015173 -0.003588 -0.004587 0.000000 0.000000 0.000000
# 2 -0.003588 0.010091 -0.001399 0.000000 0.000000 0.000000
# 3 -0.004587 -0.001399 0.012403 0.000000 0.000000 0.000000
# 4 0.000000 0.000000 0.000000 0.033155 0.000000 0.000000
# 5 0.000000 0.000000 0.000000 0.000000 0.034657 0.000000
# 6 0.000000 0.000000 0.000000 0.000000 0.000000 0.039531
#
#
# Mechanical properties :
#
#
# Convention : Reuss Voigt Hill
#
# Bulk Modulus (GPa) = 53.99962 54.39031 54.19497
# Shear Modulus (GPa) = 29.35484 30.21544 29.78514
#
# Velocity S-wave (km/s) = 3.80134 3.85666 3.82910
# Velocity P-wave (km/s) = 6.77117 6.82685 6.79907
#
# Compressibility (1/GPa) = 0.01851865
#
# Stress axis : x y z
#
# Youngs Moduli (GPa) = 65.90790 99.10287 80.62772
#
# Poissons Ratio (x) = 0.35559 0.36983
# Poissons Ratio (y) = 0.23649 0.11277
# Poissons Ratio (z) = 0.30231 0.13861
#
# Static dielectric constant tensor:
#      x y z
#    x 3.824350 0.000000 0.000000 
#    y 0.000000 3.979720 0.000000 
#    z 0.000000 0.000000 3.834110 
# 
# 
# High freq. dielectric constant tensor:
#      x y z
#    x 1.791450 0.000000 0.000000 
#    y 0.000000 1.800120 0.000000 
#    z 0.000000 0.000000 1.781050 
# 
# From -- ./inp_files/46321.got.cif
#   From: 2010.03.12/outbox.cif.g09.slc.cpg/sg64_24_cif.got.tgz:46321.got - 2010.04.10 20:19:32.
