data_PCOD8263051
_publ_section_title
;
Structure prediction by ZEFSAII (Michael W. Deem and Ramdas Pophale) SiO2 
 PCOD8263051
Probable space group: C M C A
;
_chemical_formula_sum "Si O2"
_cell_formula_units_Z 96
_cell_length_a 15.606525
_cell_length_b 9.200595
_cell_length_c 29.547595
_cell_angle_alpha 90.000000
_cell_angle_beta 90.000000
_cell_angle_gamma 90.000000
_cell_volume 4242.718952
_symmetry_space_group_name_H-M "C M C A"
_symmetry_group_IT_number 64
_symmetry_cell_setting 'orthorhombic'
loop_
_space_group_symop_operation_xyz
x,y,z
-x,1/2-y,1/2+z
x,-y,-z
-x,1/2+y,1/2-z
-x,-y,-z
x,1/2+y,1/2-z
-x,y,z
x,1/2-y,1/2+z
1/2+x,1/2+y,z
1/2-x,-y,1/2+z
1/2+x,1/2-y,-z
1/2-x,y,1/2-z
1/2-x,1/2-y,-z
1/2+x,y,1/2-z
1/2-x,1/2+y,z
1/2+x,-y,1/2+z
loop_
_atom_site_type_symbol
_atom_site_label
_atom_site_fract_x
_atom_site_fract_y
_atom_site_fract_z
Si Si1 0.102306 0.925319 0.710072
Si Si2 0.669903 0.157487 0.481377
Si Si3 0.601592 0.746229 0.203105
Si Si4 0.897988 0.420279 0.612918
Si Si5 0.594204 0.383248 0.532523
Si Si6 0.397649 0.245935 0.122802
O O1 0.138017 0.850999 0.755695
O O2 0.136925 0.828201 0.668424
O O3 0.000000 0.927058 0.709814
O O4 0.138093 0.089587 0.706145
O O5 0.750000 0.250000 0.500000
O O6 0.655518 0.153677 0.427549
O O7 0.587411 0.232775 0.504548
O O8 0.679610 0.000000 0.500000
O O9 0.500000 0.750939 0.206755
O O10 0.630079 0.671627 0.156593
O O11 0.868006 0.586851 0.620053
O O12 0.000000 0.411243 0.604040
O O13 0.643998 0.500000 0.500000
O O14 0.500000 0.446129 0.542607
O O15 0.640389 0.349469 0.580614
O O16 0.500000 0.241031 0.120129
#
# Coordination Sequence:
#
# PCOD8263051 Si02
#       6
#    16  16  16  16  16  16
#     4   9  16  27  45  75 119 156 183 224 285 343
#     4  12  25  42  59  80 114 153 199 243 296 355
#     4   9  17  28  47  78 117 155 186 228 282 345
#     4  10  20  35  58  85 114 150 195 240 291 348
#     4  10  21  36  58  86 116 148 190 242 293 347
#     4   9  17  30  50  78 112 150 186 230 288 342
#
# _framework density 22.626999999999999
#
# number of rings (size 3 to 8) (size 9 to 14) (size 15 to 20)
#    0.000    2.167    1.667    2.000    2.333    4.667 
#    0.000    0.000    0.000    0.000    0.000    1.167 
#    0.000    0.000    0.000    0.000    0.000    0.000 
#
# Total GULP energy -594793.462755 kJ/mol
# GULP energy per Si atom -12391.530474 kJ/mol
# Density = 2.257550 g / cm^3
# Si number density = 22.627000 Si / 1000 Ang^3
#
#
#
# Elastic Constant Matrix: (Units=GPa)
#
#
# Indices 1 2 3 4 5 6 
#
# 1 22.9794 21.0330 21.4474 0.0000 0.0000 0.0000
# 2 21.0330 169.1389 110.1490 0.0000 0.0000 0.0000
# 3 21.4474 110.1490 250.2573 0.0000 0.0000 0.0000
# 4 0.0000 0.0000 0.0000 55.5881 0.0000 0.0000
# 5 0.0000 0.0000 0.0000 0.0000 9.7197 0.0000
# 6 0.0000 0.0000 0.0000 0.0000 0.0000 -21.4909
#
#
#
# Elastic Compliance Matrix: (Units=1/GPa)
#
#
# Indices 1 2 3 4 5 6 
#
# 1 0.049931 -0.004798 -0.002168 0.000000 0.000000 0.000000
# 2 -0.004798 0.008749 -0.003440 0.000000 0.000000 0.000000
# 3 -0.002168 -0.003440 0.005696 0.000000 0.000000 0.000000
# 4 0.000000 0.000000 0.000000 0.017989 0.000000 0.000000
# 5 0.000000 0.000000 0.000000 0.000000 0.102884 0.000000
# 6 0.000000 0.000000 0.000000 0.000000 0.000000 -0.046531
#
#
# Mechanical properties :
#
#
# Convention : Reuss Voigt Hill
#
# Bulk Modulus (GPa) = 22.95348 83.07050 53.01199
# Shear Modulus (GPa) = 28.72746 28.07979 28.40363
#
# Velocity S-wave (km/s) = 3.56702 3.52658 3.54686
# Velocity P-wave (km/s) = 5.20876 7.30583 6.34454
#
# Compressibility (1/GPa) = 0.04356638
#
# Stress axis : x y z
#
# Youngs Moduli (GPa) = 20.02748 114.30044 175.57511
#
# Poissons Ratio (x) = 0.54836 0.38058
# Poissons Ratio (y) = 0.09608 0.60391
# Poissons Ratio (z) = 0.04341 0.39315
#
# Static dielectric constant tensor:
#      x y z
#    x 3.519850 0.000000 0.000000 
#    y 0.000000 4.335240 0.000000 
#    z 0.000000 0.000000 4.245340 
# 
# 
# High freq. dielectric constant tensor:
#      x y z
#    x 1.839310 0.000000 0.000000 
#    y 0.000000 1.906620 0.000000 
#    z 0.000000 0.000000 1.907590 
# 
# From -- ./inp_files/50675.got.cif
#   From: 2010.03.12/outbox.cif.g09.slc.cpg/sg64_26_cif.got.tgz:50675.got - 2010.04.10 20:19:32.
