data_PCOD8263797
_publ_section_title
;
Structure prediction by ZEFSAII (Michael W. Deem and Ramdas Pophale) SiO2 
 PCOD8263797
Probable space group: C M C A
;
_chemical_formula_sum "Si O2"
_cell_formula_units_Z 112
_cell_length_a 14.014340
_cell_length_b 23.868070
_cell_length_c 14.908022
_cell_angle_alpha 90.000000
_cell_angle_beta 90.000000
_cell_angle_gamma 90.000000
_cell_volume 4986.662518
_symmetry_space_group_name_H-M "C M C A"
_symmetry_group_IT_number 64
_symmetry_cell_setting 'orthorhombic'
loop_
_space_group_symop_operation_xyz
x,y,z
-x,1/2-y,1/2+z
x,-y,-z
-x,1/2+y,1/2-z
-x,-y,-z
x,1/2+y,1/2-z
-x,y,z
x,1/2-y,1/2+z
1/2+x,1/2+y,z
1/2-x,-y,1/2+z
1/2+x,1/2-y,-z
1/2-x,y,1/2-z
1/2-x,1/2-y,-z
1/2+x,y,1/2-z
1/2-x,1/2+y,z
1/2+x,-y,1/2+z
loop_
_atom_site_type_symbol
_atom_site_label
_atom_site_fract_x
_atom_site_fract_y
_atom_site_fract_z
Si Si1 0.609738 0.234850 0.225335
Si Si2 0.700442 0.074994 0.942298
Si Si3 0.113484 0.963708 0.620099
Si Si4 0.891943 0.890408 0.980495
Si Si5 0.895662 0.181253 0.630708
Si Si6 0.641669 0.261667 0.019910
Si Si7 0.111718 0.384730 0.723869
O O1 0.500000 0.232611 0.254541
O O2 0.654930 0.282660 0.289818
O O3 0.619106 0.249353 0.122237
O O4 0.658184 0.175160 0.249256
O O5 0.676240 0.130816 0.888115
O O6 0.673064 0.021290 0.883202
O O7 0.639125 0.074227 0.033898
O O8 0.814779 0.075461 0.960614
O O9 0.151101 0.931923 0.708522
O O10 0.000000 0.975780 0.620701
O O11 0.864060 0.901867 0.877291
O O12 0.000000 0.911681 0.001730
O O13 0.888086 0.824567 0.998310
O O14 0.915512 0.219551 0.543526
O O15 0.000000 0.157477 0.659486
O O16 0.750000 0.250000 0.000000
O O17 0.000000 0.380164 0.740365
#
# Coordination Sequence:
#
# PCOD8263797 Si02
#       7
#    16  16  16  16  16  16  16
#     4  10  21  37  64  98 135 182 223 271 343 412
#     4  11  22  39  65 101 130 172 231 277 353 407
#     4  10  21  41  70  99 132 167 221 295 349 400
#     4  11  23  42  64  93 141 185 227 282 341 415
#     4  11  21  38  64  99 140 176 222 281 341 411
#     4  12  23  39  60  95 138 186 227 272 338 405
#     4   9  19  38  66  98 129 175 226 273 337 405
#
# _framework density 22.459911999999999
#
# number of rings (size 3 to 8) (size 9 to 14) (size 15 to 20)
#    0.000    1.429    2.857    3.857    0.000    2.286 
#    0.000    1.429   12.571    0.000    0.000    1.000 
#    0.000    0.000    0.000    0.000    0.000    0.000 
#
# Total GULP energy -694355.760599 kJ/mol
# GULP energy per Si atom -12399.210011 kJ/mol
# Density = 2.240879 g / cm^3
# Si number density = 22.459912 Si / 1000 Ang^3
#
#
#
# Elastic Constant Matrix: (Units=GPa)
#
#
# Indices 1 2 3 4 5 6 
#
# 1 114.3298 43.8585 33.1830 0.0000 0.0000 0.0000
# 2 43.8585 130.9223 65.1592 0.0000 0.0000 0.0000
# 3 33.1830 65.1592 128.6006 0.0000 0.0000 0.0000
# 4 0.0000 0.0000 0.0000 36.0807 0.0000 0.0000
# 5 0.0000 0.0000 0.0000 0.0000 24.0116 0.0000
# 6 0.0000 0.0000 0.0000 0.0000 0.0000 12.4328
#
#
#
# Elastic Compliance Matrix: (Units=1/GPa)
#
#
# Indices 1 2 3 4 5 6 
#
# 1 0.010173 -0.002810 -0.001201 0.000000 0.000000 0.000000
# 2 -0.002810 0.010990 -0.004843 0.000000 0.000000 0.000000
# 3 -0.001201 -0.004843 0.010540 0.000000 0.000000 0.000000
# 4 0.000000 0.000000 0.000000 0.027716 0.000000 0.000000
# 5 0.000000 0.000000 0.000000 0.000000 0.041647 0.000000
# 6 0.000000 0.000000 0.000000 0.000000 0.000000 0.080433
#
#
# Mechanical properties :
#
#
# Convention : Reuss Voigt Hill
#
# Bulk Modulus (GPa) = 71.45952 73.13935 72.29943
# Shear Modulus (GPa) = 24.52519 29.94847 27.23683
#
# Velocity S-wave (km/s) = 3.30806 3.65556 3.48614
# Velocity P-wave (km/s) = 6.81737 7.10300 6.96165
#
# Compressibility (1/GPa) = 0.01399394
#
# Stress axis : x y z
#
# Youngs Moduli (GPa) = 98.29669 90.99185 94.87723
#
# Poissons Ratio (x) = 0.25571 0.11396
# Poissons Ratio (y) = 0.27623 0.45952
# Poissons Ratio (z) = 0.11807 0.44070
#
# Static dielectric constant tensor:
#      x y z
#    x 4.096280 0.000000 0.000000 
#    y 0.000000 4.064610 0.000000 
#    z 0.000000 0.000000 4.360700 
# 
# 
# High freq. dielectric constant tensor:
#      x y z
#    x 1.897070 0.000000 0.000000 
#    y 0.000000 1.874150 0.000000 
#    z 0.000000 0.000000 1.879790 
# 
# From -- ./inp_files/24262.got.cif
#   From: 2010.03.12/outbox.cif.g09.slc.cpg/sg64_13_cif.got.tgz:24262.got - 2010.04.10 20:19:32.
