data_PCOD8263397
_publ_section_title
;
Structure prediction by ZEFSAII (Michael W. Deem and Ramdas Pophale) SiO2 
 PCOD8263397
Probable space group: C M C A
;
_chemical_formula_sum "Si O2"
_cell_formula_units_Z 80
_cell_length_a 9.076700
_cell_length_b 24.559342
_cell_length_c 18.577987
_cell_angle_alpha 90.000000
_cell_angle_beta 90.000000
_cell_angle_gamma 90.000000
_cell_volume 4141.363610
_symmetry_space_group_name_H-M "C M C A"
_symmetry_group_IT_number 64
_symmetry_cell_setting 'orthorhombic'
loop_
_space_group_symop_operation_xyz
x,y,z
-x,1/2-y,1/2+z
x,-y,-z
-x,1/2+y,1/2-z
-x,-y,-z
x,1/2+y,1/2-z
-x,y,z
x,1/2-y,1/2+z
1/2+x,1/2+y,z
1/2-x,-y,1/2+z
1/2+x,1/2-y,-z
1/2-x,y,1/2-z
1/2-x,1/2-y,-z
1/2+x,y,1/2-z
1/2-x,1/2+y,z
1/2+x,-y,1/2+z
loop_
_atom_site_type_symbol
_atom_site_label
_atom_site_fract_x
_atom_site_fract_y
_atom_site_fract_z
Si Si1 0.829023 0.902302 0.448548
Si Si2 0.169914 0.191089 0.175813
Si Si3 0.327477 0.581960 0.094422
Si Si4 0.672767 0.721369 0.565832
Si Si5 0.672843 0.486884 0.323710
O O1 0.734235 0.925715 0.514203
O O2 0.779179 0.841305 0.428211
O O3 0.795970 0.938887 0.379722
O O4 0.000000 0.904675 0.471061
O O5 0.250000 0.181048 0.250000
O O6 0.206185 0.143179 0.119643
O O7 0.219979 0.247871 0.139266
O O8 0.000000 0.191844 0.195390
O O9 0.500000 0.568140 0.094873
O O10 0.243808 0.542574 0.148903
O O11 0.500000 0.727800 0.553255
O O12 0.750000 0.750000 0.500000
O O13 0.500000 0.496257 0.311084
O O14 0.750000 0.469062 0.250000
#
# Coordination Sequence:
#
# PCOD8263397 Si02
#       5
#    16  16  16  16  16
#     4  10  22  39  62  87 117 155 196 243 297 353
#     4  10  22  37  56  86 119 150 192 239 290 347
#     4  11  22  38  61  89 118 153 198 246 293 351
#     4  10  20  38  60  85 116 152 193 240 289 344
#     4  11  24  41  59  85 119 157 198 242 295 352
#
# _framework density 19.317308000000001
#
# number of rings (size 3 to 8) (size 9 to 14) (size 15 to 20)
#    0.000    1.600    2.000    2.400    0.000    8.800 
#    0.000    0.000    0.000    0.000    0.000    0.000 
#    0.000    0.000    0.000    0.000    0.000    0.000 
#
# Total GULP energy -496190.580357 kJ/mol
# GULP energy per Si atom -12404.764509 kJ/mol
# Density = 1.927334 g / cm^3
# Si number density = 19.317308 Si / 1000 Ang^3
#
#
#
# Elastic Constant Matrix: (Units=GPa)
#
#
# Indices 1 2 3 4 5 6 
#
# 1 77.1901 34.0042 63.3709 0.0000 0.0000 0.0000
# 2 34.0042 76.9300 35.3396 0.0000 0.0000 0.0000
# 3 63.3709 35.3396 134.4167 0.0000 0.0000 0.0000
# 4 0.0000 0.0000 0.0000 29.8761 0.0000 0.0000
# 5 0.0000 0.0000 0.0000 0.0000 40.4103 0.0000
# 6 0.0000 0.0000 0.0000 0.0000 0.0000 26.7016
#
#
#
# Elastic Compliance Matrix: (Units=1/GPa)
#
#
# Indices 1 2 3 4 5 6 
#
# 1 0.023328 -0.005982 -0.009425 0.000000 0.000000 0.000000
# 2 -0.005982 0.016318 -0.001470 0.000000 0.000000 0.000000
# 3 -0.009425 -0.001470 0.012270 0.000000 0.000000 0.000000
# 4 0.000000 0.000000 0.000000 0.033472 0.000000 0.000000
# 5 0.000000 0.000000 0.000000 0.000000 0.024746 0.000000
# 6 0.000000 0.000000 0.000000 0.000000 0.000000 0.037451
#
#
# Mechanical properties :
#
#
# Convention : Reuss Voigt Hill
#
# Bulk Modulus (GPa) = 55.06142 61.55182 58.30662
# Shear Modulus (GPa) = 26.68190 29.78572 28.23381
#
# Velocity S-wave (km/s) = 3.72054 3.93099 3.82721
# Velocity P-wave (km/s) = 6.85727 7.24819 7.05544
#
# Compressibility (1/GPa) = 0.01816154
#
# Stress axis : x y z
#
# Youngs Moduli (GPa) = 42.86677 61.28148 81.50152
#
# Poissons Ratio (x) = 0.36656 0.76819
# Poissons Ratio (y) = 0.25641 0.11982
# Poissons Ratio (z) = 0.40404 0.09010
#
# Static dielectric constant tensor:
#      x y z
#    x 3.856590 0.000000 0.000000 
#    y 0.000000 3.809690 0.000000 
#    z 0.000000 0.000000 3.391120 
# 
# 
# High freq. dielectric constant tensor:
#      x y z
#    x 1.753040 0.000000 0.000000 
#    y 0.000000 1.763970 0.000000 
#    z 0.000000 0.000000 1.757110 
# 
# From -- ./inp_files/29786.got.cif
#   From: 2010.03.12/outbox.cif.g09.slc.cpg/sg64_15_cif.got.tgz:29786.got - 2010.04.10 20:19:32.
