data_PCOD8263693
_publ_section_title
;
Structure prediction by ZEFSAII (Michael W. Deem and Ramdas Pophale) SiO2 
 PCOD8263693
Probable space group: C M C A
;
_chemical_formula_sum "Si O2"
_cell_formula_units_Z 112
_cell_length_a 22.215722
_cell_length_b 22.170470
_cell_length_c 10.920784
_cell_angle_alpha 90.000000
_cell_angle_beta 90.000000
_cell_angle_gamma 90.000000
_cell_volume 5378.846485
_symmetry_space_group_name_H-M "C M C A"
_symmetry_group_IT_number 64
_symmetry_cell_setting 'orthorhombic'
loop_
_space_group_symop_operation_xyz
x,y,z
-x,1/2-y,1/2+z
x,-y,-z
-x,1/2+y,1/2-z
-x,-y,-z
x,1/2+y,1/2-z
-x,y,z
x,1/2-y,1/2+z
1/2+x,1/2+y,z
1/2-x,-y,1/2+z
1/2+x,1/2-y,-z
1/2-x,y,1/2-z
1/2-x,1/2-y,-z
1/2+x,y,1/2-z
1/2-x,1/2+y,z
1/2+x,-y,1/2+z
loop_
_atom_site_type_symbol
_atom_site_label
_atom_site_fract_x
_atom_site_fract_y
_atom_site_fract_z
Si Si1 0.069016 0.756163 0.350530
Si Si2 0.362515 0.641333 0.092420
Si Si3 0.386011 0.848231 0.963052
Si Si4 0.567916 0.430134 0.730533
Si Si5 0.933147 0.645883 0.649149
Si Si6 0.258136 0.299165 0.609473
Si Si7 0.068169 0.058419 0.640775
O O1 0.109980 0.697977 0.333967
O O2 0.084581 0.788877 0.478630
O O3 0.084347 0.799525 0.238360
O O4 0.000000 0.736575 0.353662
O O5 0.386193 0.579613 0.155756
O O6 0.290795 0.647453 0.094350
O O7 0.383183 0.643152 0.953263
O O8 0.384149 0.903232 0.061591
O O9 0.428394 0.870823 0.853605
O O10 0.320838 0.833253 0.908397
O O11 0.500000 0.438050 0.780579
O O12 0.587122 0.488281 0.649270
O O13 0.932003 0.583087 0.721183
O O14 0.000000 0.656370 0.593166
O O15 0.250000 0.272555 0.750000
O O16 0.250000 0.250000 0.500000
O O17 0.000000 0.065492 0.585482
#
# Coordination Sequence:
#
# PCOD8263693 Si02
#       7
#    16  16  16  16  16  16  16
#     4  10  21  36  59  95 131 163 206 269 334 394
#     4  12  24  38  60  90 128 172 215 260 331 396
#     4  11  21  40  65  90 125 169 219 266 326 389
#     4  11  22  37  65  99 131 162 209 272 338 395
#     4   9  20  38  60  90 129 165 205 260 327 395
#     4  12  27  46  66  91 130 181 224 276 325 392
#     4   9  20  40  67  98 129 167 212 271 337 398
#
# _framework density 20.822309000000001
#
# number of rings (size 3 to 8) (size 9 to 14) (size 15 to 20)
#    0.000    1.429    2.857    3.857    4.000    1.714 
#    0.000    2.143    9.429    0.000    0.000    0.000 
#    0.000    0.000    0.000    0.000    0.000    0.000 
#
# Total GULP energy -694218.226868 kJ/mol
# GULP energy per Si atom -12396.754051 kJ/mol
# Density = 2.077492 g / cm^3
# Si number density = 20.822309 Si / 1000 Ang^3
#
#
#
# Elastic Constant Matrix: (Units=GPa)
#
#
# Indices 1 2 3 4 5 6 
#
# 1 89.0507 24.5773 28.0977 0.0000 0.0000 0.0000
# 2 24.5773 70.8280 13.4400 0.0000 0.0000 0.0000
# 3 28.0977 13.4400 97.1941 0.0000 0.0000 0.0000
# 4 0.0000 0.0000 0.0000 28.5296 0.0000 0.0000
# 5 0.0000 0.0000 0.0000 0.0000 32.2828 0.0000
# 6 0.0000 0.0000 0.0000 0.0000 0.0000 21.7826
#
#
#
# Elastic Compliance Matrix: (Units=1/GPa)
#
#
# Indices 1 2 3 4 5 6 
#
# 1 0.013383 -0.004015 -0.003314 0.000000 0.000000 0.000000
# 2 -0.004015 0.015704 -0.001011 0.000000 0.000000 0.000000
# 3 -0.003314 -0.001011 0.011386 0.000000 0.000000 0.000000
# 4 0.000000 0.000000 0.000000 0.035051 0.000000 0.000000
# 5 0.000000 0.000000 0.000000 0.000000 0.030976 0.000000
# 6 0.000000 0.000000 0.000000 0.000000 0.000000 0.045908
#
#
# Mechanical properties :
#
#
# Convention : Reuss Voigt Hill
#
# Bulk Modulus (GPa) = 42.02726 43.25587 42.64156
# Shear Modulus (GPa) = 28.24537 29.24950 28.74744
#
# Velocity S-wave (km/s) = 3.68706 3.75202 3.71968
# Velocity P-wave (km/s) = 6.19302 6.29199 6.24270
#
# Compressibility (1/GPa) = 0.02379408
#
# Stress axis : x y z
#
# Youngs Moduli (GPa) = 74.72009 63.67893 87.82386
#
# Poissons Ratio (x) = 0.25568 0.29102
# Poissons Ratio (y) = 0.30002 0.08877
# Poissons Ratio (z) = 0.24760 0.06437
#
# Static dielectric constant tensor:
#      x y z
#    x 3.678700 0.000000 0.000000 
#    y 0.000000 3.812650 0.000000 
#    z 0.000000 0.000000 3.977690 
# 
# 
# High freq. dielectric constant tensor:
#      x y z
#    x 1.793770 0.000000 0.000000 
#    y 0.000000 1.803900 0.000000 
#    z 0.000000 0.000000 1.831220 
# 
# From -- ./inp_files/17561.got.cif
#   From: 2010.03.12/outbox.cif.g09.slc.cpg/sg64_9_cif.got.tgz:17561.got - 2010.04.10 20:19:32.
