data_PCOD8263467
_publ_section_title
;
Structure prediction by ZEFSAII (Michael W. Deem and Ramdas Pophale) SiO2 
 PCOD8263467
Probable space group: C M C A
;
_chemical_formula_sum "Si O2"
_cell_formula_units_Z 96
_cell_length_a 16.596954
_cell_length_b 14.169157
_cell_length_c 19.192118
_cell_angle_alpha 90.000000
_cell_angle_beta 90.000000
_cell_angle_gamma 90.000000
_cell_volume 4513.311492
_symmetry_space_group_name_H-M "C M C A"
_symmetry_group_IT_number 64
_symmetry_cell_setting 'orthorhombic'
loop_
_space_group_symop_operation_xyz
x,y,z
-x,1/2-y,1/2+z
x,-y,-z
-x,1/2+y,1/2-z
-x,-y,-z
x,1/2+y,1/2-z
-x,y,z
x,1/2-y,1/2+z
1/2+x,1/2+y,z
1/2-x,-y,1/2+z
1/2+x,1/2-y,-z
1/2-x,y,1/2-z
1/2-x,1/2-y,-z
1/2+x,y,1/2-z
1/2-x,1/2+y,z
1/2+x,-y,1/2+z
loop_
_atom_site_type_symbol
_atom_site_label
_atom_site_fract_x
_atom_site_fract_y
_atom_site_fract_z
Si Si1 0.593750 0.522892 0.218646
Si Si2 0.092219 0.215191 0.454879
Si Si3 0.339154 0.840823 0.346577
Si Si4 0.593683 0.025044 0.119991
Si Si5 0.337692 0.163480 0.906148
Si Si6 0.908007 0.235342 0.218268
O O1 0.500000 0.500395 0.205788
O O2 0.645917 0.450203 0.172672
O O3 0.616093 0.512035 0.299331
O O4 0.616922 0.629117 0.196661
O O5 0.101630 0.309869 0.409112
O O6 0.150143 0.220828 0.522197
O O7 0.000000 0.205343 0.479539
O O8 0.119826 0.127938 0.406223
O O9 0.250073 0.822997 0.374599
O O10 0.351636 0.775678 0.278984
O O11 0.500000 0.009483 0.105977
O O12 0.642815 0.945947 0.077461
O O13 0.402041 0.200502 0.849832
O O14 0.000000 0.236075 0.246308
#
# Coordination Sequence:
#
# PCOD8263467 Si02
#       6
#    16  16  16  16  16  16
#     4  10  21  39  66  95 122 162 218 267 313 379
#     4  11  23  43  69  95 128 175 221 266 315 381
#     4  12  24  41  63  96 134 167 209 264 333 383
#     4  10  20  38  66  95 124 164 217 269 315 372
#     4  12  25  39  60  98 135 170 209 267 330 381
#     4  11  22  41  65  91 125 172 221 266 313 383
#
# _framework density 21.270413999999999
#
# number of rings (size 3 to 8) (size 9 to 14) (size 15 to 20)
#    0.000    1.000    3.333    4.500    0.000    2.667 
#    3.000    2.500    0.000    3.000    0.000    0.000 
#    0.000    0.000    0.000    0.000    0.000    0.000 
#
# Total GULP energy -595382.410436 kJ/mol
# GULP energy per Si atom -12403.800217 kJ/mol
# Density = 2.122200 g / cm^3
# Si number density = 21.270414 Si / 1000 Ang^3
#
#
#
# Elastic Constant Matrix: (Units=GPa)
#
#
# Indices 1 2 3 4 5 6 
#
# 1 72.5688 47.9544 48.4240 0.0000 0.0000 0.0000
# 2 47.9544 114.6429 43.6378 0.0000 0.0000 0.0000
# 3 48.4240 43.6378 110.3830 0.0000 0.0000 0.0000
# 4 0.0000 0.0000 0.0000 32.3579 0.0000 0.0000
# 5 0.0000 0.0000 0.0000 0.0000 36.0686 0.0000
# 6 0.0000 0.0000 0.0000 0.0000 0.0000 13.8487
#
#
#
# Elastic Compliance Matrix: (Units=1/GPa)
#
#
# Indices 1 2 3 4 5 6 
#
# 1 0.023363 -0.006911 -0.007517 0.000000 0.000000 0.000000
# 2 -0.006911 0.012312 -0.001836 0.000000 0.000000 0.000000
# 3 -0.007517 -0.001836 0.013083 0.000000 0.000000 0.000000
# 4 0.000000 0.000000 0.000000 0.030904 0.000000 0.000000
# 5 0.000000 0.000000 0.000000 0.000000 0.027725 0.000000
# 6 0.000000 0.000000 0.000000 0.000000 0.000000 0.072209
#
#
# Mechanical properties :
#
#
# Convention : Reuss Voigt Hill
#
# Bulk Modulus (GPa) = 61.61241 64.18079 62.89660
# Shear Modulus (GPa) = 22.98494 26.96028 24.97261
#
# Velocity S-wave (km/s) = 3.29082 3.56406 3.43016
# Velocity P-wave (km/s) = 6.59306 6.86848 6.73218
#
# Compressibility (1/GPa) = 0.01623050
#
# Stress axis : x y z
#
# Youngs Moduli (GPa) = 42.80264 81.21907 76.43748
#
# Poissons Ratio (x) = 0.56134 0.57457
# Poissons Ratio (y) = 0.29582 0.14030
# Poissons Ratio (z) = 0.32174 0.14908
#
# Static dielectric constant tensor:
#      x y z
#    x 3.588320 0.000000 0.000000 
#    y 0.000000 3.948570 0.000000 
#    z 0.000000 0.000000 3.804320 
# 
# 
# High freq. dielectric constant tensor:
#      x y z
#    x 1.821180 0.000000 0.000000 
#    y 0.000000 1.839550 0.000000 
#    z 0.000000 0.000000 1.831430 
# 
# From -- ./inp_files/39194.got.cif
#   From: 2010.03.12/outbox.cif.g09.slc.cpg/sg64_20_cif.got.tgz:39194.got - 2010.04.10 20:19:32.
