data_PCOD8263532
_publ_section_title
;
Structure prediction by ZEFSAII (Michael W. Deem and Ramdas Pophale) SiO2 
 PCOD8263532
Probable space group: C M C A
;
_chemical_formula_sum "Si O2"
_cell_formula_units_Z 96
_cell_length_a 8.844461
_cell_length_b 24.850280
_cell_length_c 23.221471
_cell_angle_alpha 90.000000
_cell_angle_beta 90.000000
_cell_angle_gamma 90.000000
_cell_volume 5103.785163
_symmetry_space_group_name_H-M "C M C A"
_symmetry_group_IT_number 64
_symmetry_cell_setting 'orthorhombic'
loop_
_space_group_symop_operation_xyz
x,y,z
-x,1/2-y,1/2+z
x,-y,-z
-x,1/2+y,1/2-z
-x,-y,-z
x,1/2+y,1/2-z
-x,y,z
x,1/2-y,1/2+z
1/2+x,1/2+y,z
1/2-x,-y,1/2+z
1/2+x,1/2-y,-z
1/2-x,y,1/2-z
1/2-x,1/2-y,-z
1/2+x,y,1/2-z
1/2-x,1/2+y,z
1/2+x,-y,1/2+z
loop_
_atom_site_type_symbol
_atom_site_label
_atom_site_fract_x
_atom_site_fract_y
_atom_site_fract_z
Si Si1 0.323958 0.815669 0.308992
Si Si2 0.672707 0.599414 0.614864
Si Si3 0.821293 0.807538 0.689870
Si Si4 0.321605 0.497466 0.689657
Si Si5 0.678639 0.100006 0.375645
Si Si6 0.674353 0.060905 0.010787
O O1 0.500000 0.821709 0.300210
O O2 0.250000 0.836767 0.250000
O O3 0.273237 0.851777 0.362463
O O4 0.277543 0.754352 0.322106
O O5 0.500000 0.612248 0.630349
O O6 0.720840 0.543158 0.643567
O O7 0.697265 0.595587 0.546684
O O8 0.750000 0.826918 0.750000
O O9 0.747051 0.841612 0.638646
O O10 0.000000 0.816685 0.691675
O O11 0.500000 0.489598 0.696100
O O12 0.250000 0.514984 0.750000
O O13 0.249330 0.442098 0.668825
O O14 0.500000 0.100575 0.368264
O O15 0.720535 0.086686 0.441037
O O16 0.500000 0.061395 0.031691
O O17 0.726773 0.000000 0.000000
#
# Coordination Sequence:
#
# PCOD8263532 Si02
#       6
#    16  16  16  16  16  16
#     4  10  21  37  60  87 117 151 190 235 286 341
#     4  10  21  37  60  85 113 150 190 233 284 339
#     4  10  21  39  61  85 115 153 191 235 288 343
#     4  11  22  37  55  82 116 151 187 231 286 344
#     4  12  24  37  57  86 115 149 191 239 286 337
#     4  10  20  40  62  82 112 154 195 233 285 343
#
# _framework density 18.809567999999999
#
# number of rings (size 3 to 8) (size 9 to 14) (size 15 to 20)
#    0.000    1.500    1.667    4.000    0.000    5.667 
#    0.000    0.833    0.000    0.000    0.000    0.000 
#    0.000    0.000    0.000    0.000    0.000    0.000 
#
# Total GULP energy -595515.488518 kJ/mol
# GULP energy per Si atom -12406.572677 kJ/mol
# Density = 1.876676 g / cm^3
# Si number density = 18.809568 Si / 1000 Ang^3
#
#
#
# Elastic Constant Matrix: (Units=GPa)
#
#
# Indices 1 2 3 4 5 6 
#
# 1 96.5405 47.0102 38.1056 0.0000 0.0000 0.0000
# 2 47.0102 91.8125 36.3138 0.0000 0.0000 0.0000
# 3 38.1056 36.3138 82.8378 0.0000 0.0000 0.0000
# 4 0.0000 0.0000 0.0000 24.7272 0.0000 0.0000
# 5 0.0000 0.0000 0.0000 0.0000 36.6165 0.0000
# 6 0.0000 0.0000 0.0000 0.0000 0.0000 27.8264
#
#
#
# Elastic Compliance Matrix: (Units=1/GPa)
#
#
# Indices 1 2 3 4 5 6 
#
# 1 0.014945 -0.005968 -0.004259 0.000000 0.000000 0.000000
# 2 -0.005968 0.015559 -0.004076 0.000000 0.000000 0.000000
# 3 -0.004259 -0.004076 0.015817 0.000000 0.000000 0.000000
# 4 0.000000 0.000000 0.000000 0.040441 0.000000 0.000000
# 5 0.000000 0.000000 0.000000 0.000000 0.027310 0.000000
# 6 0.000000 0.000000 0.000000 0.000000 0.000000 0.035937
#
#
# Mechanical properties :
#
#
# Convention : Reuss Voigt Hill
#
# Bulk Modulus (GPa) = 56.44051 57.11667 56.77859
# Shear Modulus (GPa) = 27.09713 27.81808 27.45761
#
# Velocity S-wave (km/s) = 3.79965 3.84986 3.82484
# Velocity P-wave (km/s) = 7.02290 7.08474 7.05389
#
# Compressibility (1/GPa) = 0.01771777
#
# Stress axis : x y z
#
# Youngs Moduli (GPa) = 66.91011 64.26943 63.22144
#
# Poissons Ratio (x) = 0.38356 0.26924
# Poissons Ratio (y) = 0.39932 0.25766
# Poissons Ratio (z) = 0.28495 0.26193
#
# Static dielectric constant tensor:
#      x y z
#    x 3.458630 0.000000 0.000000 
#    y 0.000000 3.465270 0.000000 
#    z 0.000000 0.000000 3.424140 
# 
# 
# High freq. dielectric constant tensor:
#      x y z
#    x 1.737060 0.000000 0.000000 
#    y 0.000000 1.730890 0.000000 
#    z 0.000000 0.000000 1.730350 
# 
# From -- ./inp_files/43038.got.cif
#   From: 2010.03.12/outbox.cif.g09.slc.cpg/sg64_22_cif.got.tgz:43038.got - 2010.04.10 20:19:32.
