data_PCOD8263292
_publ_section_title
;
Structure prediction by ZEFSAII (Michael W. Deem and Ramdas Pophale) SiO2 
 PCOD8263292
Probable space group: C M C A
;
_chemical_formula_sum "Si O2"
_cell_formula_units_Z 104
_cell_length_a 20.501966
_cell_length_b 26.376242
_cell_length_c 9.226007
_cell_angle_alpha 90.000000
_cell_angle_beta 90.000000
_cell_angle_gamma 90.000000
_cell_volume 4989.099984
_symmetry_space_group_name_H-M "C M C A"
_symmetry_group_IT_number 64
_symmetry_cell_setting 'orthorhombic'
loop_
_space_group_symop_operation_xyz
x,y,z
-x,1/2-y,1/2+z
x,-y,-z
-x,1/2+y,1/2-z
-x,-y,-z
x,1/2+y,1/2-z
-x,y,z
x,1/2-y,1/2+z
1/2+x,1/2+y,z
1/2-x,-y,1/2+z
1/2+x,1/2-y,-z
1/2-x,y,1/2-z
1/2-x,1/2-y,-z
1/2+x,y,1/2-z
1/2-x,1/2+y,z
1/2+x,-y,1/2+z
loop_
_atom_site_type_symbol
_atom_site_label
_atom_site_fract_x
_atom_site_fract_y
_atom_site_fract_z
Si Si1 0.863499 0.371561 0.068952
Si Si2 0.663856 0.000000 0.500000
Si Si3 0.073717 0.056103 0.792515
Si Si4 0.424258 0.214230 0.738709
Si Si5 0.929576 0.674328 0.195594
Si Si6 0.732740 0.102515 0.420012
Si Si7 0.098725 0.355549 0.507066
O O1 0.895650 0.420813 0.144942
O O2 0.877027 0.320922 0.163107
O O3 0.891355 0.362235 0.910372
O O4 0.788228 0.383355 0.037236
O O5 0.618766 0.011713 0.641217
O O6 0.710323 0.045488 0.452553
O O7 0.000000 0.036549 0.760830
O O8 0.070084 0.099378 0.912510
O O9 0.500000 0.210684 0.791844
O O10 0.396524 0.271652 0.737055
O O11 0.417813 0.196876 0.572611
O O12 0.938555 0.642373 0.341483
O O13 0.000000 0.686351 0.125805
O O14 0.750000 0.108882 0.250000
O O15 0.675669 0.141096 0.462070
#
# Coordination Sequence:
#
# PCOD8263292 Si02
#       7
#    16   8  16  16  16  16  16
#     4  11  22  38  62  91 129 167 207 260 308 363
#     4  10  25  40  72  86 119 164 202 256 316 388
#     4  10  21  40  65  96 124 155 202 258 318 377
#     4  10  21  37  60  92 125 160 210 255 304 374
#     4  11  20  35  60  91 125 164 205 256 310 361
#     4  11  24  43  61  88 123 158 212 257 307 376
#     4  10  20  37  58  84 120 166 199 247 303 367
#
# _framework density 20.845444000000001
#
# number of rings (size 3 to 8) (size 9 to 14) (size 15 to 20)
#    0.000    1.538    1.538    4.846    2.154    7.385 
#    0.000    4.615    0.000    0.923    0.000    0.000 
#    0.000    0.000    0.000    0.000    0.000    0.000 
#
# Total GULP energy -644516.745401 kJ/mol
# GULP energy per Si atom -12394.552796 kJ/mol
# Density = 2.079800 g / cm^3
# Si number density = 20.845444 Si / 1000 Ang^3
#
#
#
# Elastic Constant Matrix: (Units=GPa)
#
#
# Indices 1 2 3 4 5 6 
#
# 1 135.7150 44.0672 37.1861 0.0000 0.0000 0.0000
# 2 44.0672 76.2792 27.9679 0.0000 0.0000 0.0000
# 3 37.1861 27.9679 113.2540 0.0000 0.0000 0.0000
# 4 0.0000 0.0000 0.0000 27.8785 0.0000 0.0000
# 5 0.0000 0.0000 0.0000 0.0000 25.8114 0.0000
# 6 0.0000 0.0000 0.0000 0.0000 0.0000 28.9409
#
#
#
# Elastic Compliance Matrix: (Units=1/GPa)
#
#
# Indices 1 2 3 4 5 6 
#
# 1 0.009437 -0.004746 -0.001927 0.000000 0.000000 0.000000
# 2 -0.004746 0.016801 -0.002591 0.000000 0.000000 0.000000
# 3 -0.001927 -0.002591 0.010102 0.000000 0.000000 0.000000
# 4 0.000000 0.000000 0.000000 0.035870 0.000000 0.000000
# 5 0.000000 0.000000 0.000000 0.000000 0.038743 0.000000
# 6 0.000000 0.000000 0.000000 0.000000 0.000000 0.034553
#
#
# Mechanical properties :
#
#
# Convention : Reuss Voigt Hill
#
# Bulk Modulus (GPa) = 56.13470 60.41009 58.27239
# Shear Modulus (GPa) = 29.41686 30.92796 30.17241
#
# Velocity S-wave (km/s) = 3.76065 3.85604 3.80864
# Velocity P-wave (km/s) = 6.77083 6.99058 6.88158
#
# Compressibility (1/GPa) = 0.01781429
#
# Stress axis : x y z
#
# Youngs Moduli (GPa) = 105.96363 59.51951 98.98874
#
# Poissons Ratio (x) = 0.28245 0.19073
# Poissons Ratio (y) = 0.50285 0.25647
# Poissons Ratio (z) = 0.20416 0.15421
#
# Static dielectric constant tensor:
#      x y z
#    x 3.825420 0.000000 0.000000 
#    y 0.000000 3.724340 0.000000 
#    z 0.000000 0.000000 3.963340 
# 
# 
# High freq. dielectric constant tensor:
#      x y z
#    x 1.814750 0.000000 0.000000 
#    y 0.000000 1.803980 0.000000 
#    z 0.000000 0.000000 1.828040 
# 
# From -- ./inp_files/8538.got.cif
#   From: 2010.03.12/outbox.cif.g09.slc.cpg/sg64_5_cif.got.tgz:8538.got - 2010.04.10 20:19:32.
