data_PCOD8263895
_publ_section_title
;
Structure prediction by ZEFSAII (Michael W. Deem and Ramdas Pophale) SiO2 
 PCOD8263895
Probable space group: C M C A
;
_chemical_formula_sum "Si O2"
_cell_formula_units_Z 96
_cell_length_a 16.634779
_cell_length_b 18.988412
_cell_length_c 15.330457
_cell_angle_alpha 90.000000
_cell_angle_beta 90.000000
_cell_angle_gamma 90.000000
_cell_volume 4842.401362
_symmetry_space_group_name_H-M "C M C A"
_symmetry_group_IT_number 64
_symmetry_cell_setting 'orthorhombic'
loop_
_space_group_symop_operation_xyz
x,y,z
-x,1/2-y,1/2+z
x,-y,-z
-x,1/2+y,1/2-z
-x,-y,-z
x,1/2+y,1/2-z
-x,y,z
x,1/2-y,1/2+z
1/2+x,1/2+y,z
1/2-x,-y,1/2+z
1/2+x,1/2-y,-z
1/2-x,y,1/2-z
1/2-x,1/2-y,-z
1/2+x,y,1/2-z
1/2-x,1/2+y,z
1/2+x,-y,1/2+z
loop_
_atom_site_type_symbol
_atom_site_label
_atom_site_fract_x
_atom_site_fract_y
_atom_site_fract_z
Si Si1 0.908385 0.076005 0.811817
Si Si2 0.763166 0.058396 0.931381
Si Si3 0.827625 0.964273 0.701595
Si Si4 0.679412 0.301167 0.476293
Si Si5 0.593962 0.822869 0.851893
Si Si6 0.592750 0.284554 0.295408
O O1 0.844993 0.088972 0.889340
O O2 0.896218 0.137238 0.741374
O O3 0.000000 0.076379 0.847918
O O4 0.890231 0.000462 0.768151
O O5 0.714334 0.120236 0.977460
O O6 0.701658 0.025102 0.862915
O O7 0.790747 0.000000 0.000000
O O8 0.750000 0.932542 0.750000
O O9 0.870615 0.900793 0.653680
O O10 0.750000 0.250000 0.500000
O O11 0.613355 0.293230 0.552281
O O12 0.642859 0.277791 0.383974
O O13 0.500000 0.827562 0.841677
O O14 0.626976 0.771408 0.775483
O O15 0.500000 0.269015 0.316875
#
# Coordination Sequence:
#
# PCOD8263895 Si02
#       6
#    16  16  16  16  16  16
#     4  10  21  39  64  89 122 171 212 255 316 378
#     4  11  22  40  60  93 129 162 211 263 312 378
#     4  10  21  38  63  89 125 161 210 258 312 377
#     4  12  25  39  64  95 125 172 213 258 319 382
#     4  11  24  41  63  95 127 164 214 268 321 377
#     4  10  23  43  64  90 128 167 211 264 318 380
#
# _framework density 19.824874000000001
#
# number of rings (size 3 to 8) (size 9 to 14) (size 15 to 20)
#    0.000    1.333    3.333    2.000    2.333    1.667 
#    0.000    1.667    0.000    0.000    0.000    0.000 
#    0.000    0.000    0.000    0.000    0.000    0.000 
#
# Total GULP energy -595290.027541 kJ/mol
# GULP energy per Si atom -12401.875574 kJ/mol
# Density = 1.977975 g / cm^3
# Si number density = 19.824874 Si / 1000 Ang^3
#
#
#
# Elastic Constant Matrix: (Units=GPa)
#
#
# Indices 1 2 3 4 5 6 
#
# 1 97.6542 41.5675 57.9930 0.0000 0.0000 0.0000
# 2 41.5675 76.9084 38.7158 0.0000 0.0000 0.0000
# 3 57.9930 38.7158 127.2363 0.0000 0.0000 0.0000
# 4 0.0000 0.0000 0.0000 30.4157 0.0000 0.0000
# 5 0.0000 0.0000 0.0000 0.0000 39.5421 0.0000
# 6 0.0000 0.0000 0.0000 0.0000 0.0000 24.0931
#
#
#
# Elastic Compliance Matrix: (Units=1/GPa)
#
#
# Indices 1 2 3 4 5 6 
#
# 1 0.016017 -0.005883 -0.005510 0.000000 0.000000 0.000000
# 2 -0.005883 0.017515 -0.002648 0.000000 0.000000 0.000000
# 3 -0.005510 -0.002648 0.011177 0.000000 0.000000 0.000000
# 4 0.000000 0.000000 0.000000 0.032878 0.000000 0.000000
# 5 0.000000 0.000000 0.000000 0.000000 0.025289 0.000000
# 6 0.000000 0.000000 0.000000 0.000000 0.000000 0.041506
#
#
# Mechanical properties :
#
#
# Convention : Reuss Voigt Hill
#
# Bulk Modulus (GPa) = 60.14680 64.26129 62.20405
# Shear Modulus (GPa) = 28.08901 29.71171 28.90036
#
# Velocity S-wave (km/s) = 3.76820 3.87552 3.82223
# Velocity P-wave (km/s) = 7.02406 7.24645 7.13612
#
# Compressibility (1/GPa) = 0.01662599
#
# Stress axis : x y z
#
# Youngs Moduli (GPa) = 62.43544 57.09345 89.47216
#
# Poissons Ratio (x) = 0.33587 0.49300
# Poissons Ratio (y) = 0.36730 0.23694
# Poissons Ratio (z) = 0.34403 0.15120
#
# Static dielectric constant tensor:
#      x y z
#    x 3.513430 0.000000 0.000000 
#    y 0.000000 3.628580 0.000000 
#    z 0.000000 0.000000 3.566320 
# 
# 
# High freq. dielectric constant tensor:
#      x y z
#    x 1.776860 0.000000 0.000000 
#    y 0.000000 1.779150 0.000000 
#    z 0.000000 0.000000 1.775030 
# 
# From -- ./inp_files/23932.got.cif
#   From: 2010.03.12/outbox.cif.g09.slc.cpg/sg64_12_cif.got.tgz:23932.got - 2010.04.10 20:19:32.
