data_PCOD8263669
_publ_section_title
;
Structure prediction by ZEFSAII (Michael W. Deem and Ramdas Pophale) SiO2 
 PCOD8263669
Probable space group: C M C A
;
_chemical_formula_sum "Si O2"
_cell_formula_units_Z 88
_cell_length_a 22.831481
_cell_length_b 9.462600
_cell_length_c 21.825311
_cell_angle_alpha 90.000000
_cell_angle_beta 90.000000
_cell_angle_gamma 90.000000
_cell_volume 4715.253071
_symmetry_space_group_name_H-M "C M C A"
_symmetry_group_IT_number 64
_symmetry_cell_setting 'orthorhombic'
loop_
_space_group_symop_operation_xyz
x,y,z
-x,1/2-y,1/2+z
x,-y,-z
-x,1/2+y,1/2-z
-x,-y,-z
x,1/2+y,1/2-z
-x,y,z
x,1/2-y,1/2+z
1/2+x,1/2+y,z
1/2-x,-y,1/2+z
1/2+x,1/2-y,-z
1/2-x,y,1/2-z
1/2-x,1/2-y,-z
1/2+x,y,1/2-z
1/2-x,1/2+y,z
1/2+x,-y,1/2+z
loop_
_atom_site_type_symbol
_atom_site_label
_atom_site_fract_x
_atom_site_fract_y
_atom_site_fract_z
Si Si1 0.250000 0.855109 0.750000
Si Si2 0.169711 0.047676 0.141003
Si Si3 0.565640 0.783983 0.678253
Si Si4 0.661159 0.233063 0.151580
Si Si5 0.435211 0.462666 0.701761
Si Si6 0.236155 0.122157 0.456686
O O1 0.209186 0.943484 0.796957
O O2 0.293491 0.762014 0.791472
O O3 0.118141 0.165451 0.134113
O O4 0.207403 0.065903 0.079896
O O5 0.140323 0.892958 0.140636
O O6 0.500000 0.782467 0.648344
O O7 0.567005 0.902597 0.730289
O O8 0.582328 0.628544 0.703725
O O9 0.607141 0.128925 0.160364
O O10 0.688123 0.170298 0.090757
O O11 0.500000 0.446543 0.673732
O O12 0.250000 0.250000 0.500000
O O13 0.210519 0.000000 0.500000
#
# Coordination Sequence:
#
# PCOD8263669 Si02
#       6
#     8  16  16  16  16  16
#     4  10  22  32  54  90 122 146 186 230 302 344
#     4  11  22  36  60  85 120 153 191 243 286 355
#     4  10  21  36  56  85 120 155 191 235 290 350
#     4  11  22  36  60  85 120 153 190 244 285 354
#     4  10  21  36  56  85 120 155 192 234 291 350
#     4  11  24  43  60  85 116 155 201 241 292 341
#
# _framework density 18.662837
#
# number of rings (size 3 to 8) (size 9 to 14) (size 15 to 20)
#    0.000    1.455    3.636    1.636    2.545    3.636 
#    0.000    0.000    0.000    2.182    0.000    0.000 
#    0.000    0.000    0.000    0.000    0.000    0.000 
#
# Total GULP energy -545321.015818 kJ/mol
# GULP energy per Si atom -12393.659450 kJ/mol
# Density = 1.862036 g / cm^3
# Si number density = 18.662837 Si / 1000 Ang^3
#
#
#
# Elastic Constant Matrix: (Units=GPa)
#
#
# Indices 1 2 3 4 5 6 
#
# 1 89.1855 37.3873 19.1540 0.0000 0.0000 0.0000
# 2 37.3873 135.6311 21.2473 0.0000 0.0000 0.0000
# 3 19.1540 21.2473 81.0596 0.0000 0.0000 0.0000
# 4 0.0000 0.0000 0.0000 27.6802 0.0000 0.0000
# 5 0.0000 0.0000 0.0000 0.0000 16.9176 0.0000
# 6 0.0000 0.0000 0.0000 0.0000 0.0000 26.0182
#
#
#
# Elastic Compliance Matrix: (Units=1/GPa)
#
#
# Indices 1 2 3 4 5 6 
#
# 1 0.013054 -0.003249 -0.002233 0.000000 0.000000 0.000000
# 2 -0.003249 0.008497 -0.001460 0.000000 0.000000 0.000000
# 3 -0.002233 -0.001460 0.013247 0.000000 0.000000 0.000000
# 4 0.000000 0.000000 0.000000 0.036127 0.000000 0.000000
# 5 0.000000 0.000000 0.000000 0.000000 0.059110 0.000000
# 6 0.000000 0.000000 0.000000 0.000000 0.000000 0.038435
#
#
# Mechanical properties :
#
#
# Convention : Reuss Voigt Hill
#
# Bulk Modulus (GPa) = 47.81171 51.27261 49.54216
# Shear Modulus (GPa) = 26.40975 29.32903 27.86939
#
# Velocity S-wave (km/s) = 3.76586 3.96854 3.86853
# Velocity P-wave (km/s) = 6.67707 6.96648 6.82331
#
# Compressibility (1/GPa) = 0.02091538
#
# Stress axis : x y z
#
# Youngs Moduli (GPa) = 76.60488 117.68746 75.48961
#
# Poissons Ratio (x) = 0.38232 0.16857
# Poissons Ratio (y) = 0.24886 0.11019
# Poissons Ratio (z) = 0.17106 0.17178
#
# Static dielectric constant tensor:
#      x y z
#    x 3.460380 0.000000 0.000000 
#    y 0.000000 3.518560 0.000000 
#    z 0.000000 0.000000 3.191220 
# 
# 
# High freq. dielectric constant tensor:
#      x y z
#    x 1.724530 0.000000 0.000000 
#    y 0.000000 1.744100 0.000000 
#    z 0.000000 0.000000 1.695010 
# 
# From -- ./inp_files/41371.got.cif
#   From: 2010.03.12/outbox.cif.g09.slc.cpg/sg64_21_cif.got.tgz:41371.got - 2010.04.10 20:19:32.
