data_PCOD8263184
_publ_section_title
;
Structure prediction by ZEFSAII (Michael W. Deem and Ramdas Pophale) SiO2 
 PCOD8263184
Probable space group: C M C A
;
_chemical_formula_sum "Si O2"
_cell_formula_units_Z 72
_cell_length_a 14.079225
_cell_length_b 24.506965
_cell_length_c 10.033005
_cell_angle_alpha 90.000000
_cell_angle_beta 90.000000
_cell_angle_gamma 90.000000
_cell_volume 3461.778758
_symmetry_space_group_name_H-M "C M C A"
_symmetry_group_IT_number 64
_symmetry_cell_setting 'orthorhombic'
loop_
_space_group_symop_operation_xyz
x,y,z
-x,1/2-y,1/2+z
x,-y,-z
-x,1/2+y,1/2-z
-x,-y,-z
x,1/2+y,1/2-z
-x,y,z
x,1/2-y,1/2+z
1/2+x,1/2+y,z
1/2-x,-y,1/2+z
1/2+x,1/2-y,-z
1/2-x,y,1/2-z
1/2-x,1/2-y,-z
1/2+x,y,1/2-z
1/2-x,1/2+y,z
1/2+x,-y,1/2+z
loop_
_atom_site_type_symbol
_atom_site_label
_atom_site_fract_x
_atom_site_fract_y
_atom_site_fract_z
Si Si1 0.232033 0.615700 0.043033
Si Si2 0.605075 0.042911 0.881160
Si Si3 0.750000 0.473910 0.750000
Si Si4 0.390626 0.698734 0.015082
Si Si5 0.608797 0.704060 0.320786
O O1 0.268307 0.562093 0.119137
O O2 0.323390 0.647179 0.984995
O O3 0.172764 0.651958 0.147552
O O4 0.163336 0.597172 0.922934
O O5 0.500000 0.061274 0.834922
O O6 0.657745 0.012576 0.760154
O O7 0.597069 0.000000 0.000000
O O8 0.500000 0.681531 0.990458
O O9 0.375861 0.720059 0.166388
O O10 0.358994 0.746311 0.914683
O O11 0.500000 0.688252 0.349324
#
# Coordination Sequence:
#
# PCOD8263184 Si02
#       5
#    16  16   8  16  16
#     4  11  19  36  60  84 113 158 203 244 304 364
#     4   9  20  37  58  85 115 148 196 253 300 355
#     4  10  20  36  58  86 110 152 202 252 298 358
#     4  10  21  36  57  87 123 157 199 247 301 364
#     4  10  20  36  58  87 120 158 200 247 300 365
#
# _framework density 20.798556000000001
#
# number of rings (size 3 to 8) (size 9 to 14) (size 15 to 20)
#    0.000    2.000    2.222    1.333    0.000    1.778 
#    4.000    1.111    0.000    4.000    0.000    0.000 
#    0.000    0.000    0.000    0.000    0.000    0.000 
#
# Total GULP energy -446455.247954 kJ/mol
# GULP energy per Si atom -12401.534665 kJ/mol
# Density = 2.075122 g / cm^3
# Si number density = 20.798556 Si / 1000 Ang^3
#
#
#
# Elastic Constant Matrix: (Units=GPa)
#
#
# Indices 1 2 3 4 5 6 
#
# 1 144.1753 73.5521 59.3900 0.0000 0.0000 0.0000
# 2 73.5521 95.2504 54.3878 0.0000 0.0000 0.0000
# 3 59.3900 54.3878 62.7024 0.0000 0.0000 0.0000
# 4 0.0000 0.0000 0.0000 38.2197 0.0000 0.0000
# 5 0.0000 0.0000 0.0000 0.0000 28.5673 0.0000
# 6 0.0000 0.0000 0.0000 0.0000 0.0000 39.1911
#
#
#
# Elastic Compliance Matrix: (Units=1/GPa)
#
#
# Indices 1 2 3 4 5 6 
#
# 1 0.012850 -0.005890 -0.007062 0.000000 0.000000 0.000000
# 2 -0.005890 0.023501 -0.014805 0.000000 0.000000 0.000000
# 3 -0.007062 -0.014805 0.035479 0.000000 0.000000 0.000000
# 4 0.000000 0.000000 0.000000 0.026165 0.000000 0.000000
# 5 0.000000 0.000000 0.000000 0.000000 0.035005 0.000000
# 6 0.000000 0.000000 0.000000 0.000000 0.000000 0.025516
#
#
# Mechanical properties :
#
#
# Convention : Reuss Voigt Hill
#
# Bulk Modulus (GPa) = 61.29358 75.19865 68.24612
# Shear Modulus (GPa) = 22.78218 28.84885 25.81551
#
# Velocity S-wave (km/s) = 3.31323 3.72837 3.52691
# Velocity P-wave (km/s) = 6.64611 7.40057 7.03346
#
# Compressibility (1/GPa) = 0.01631492
#
# Stress axis : x y z
#
# Youngs Moduli (GPa) = 77.82074 42.55115 28.18547
#
# Poissons Ratio (x) = 0.25065 0.19904
# Poissons Ratio (y) = 0.45840 0.41730
# Poissons Ratio (z) = 0.54956 0.62999
#
# Static dielectric constant tensor:
#      x y z
#    x 4.102860 0.000000 0.000000 
#    y 0.000000 3.706700 0.000000 
#    z 0.000000 0.000000 3.572290 
# 
# 
# High freq. dielectric constant tensor:
#      x y z
#    x 1.829030 0.000000 0.000000 
#    y 0.000000 1.803360 0.000000 
#    z 0.000000 0.000000 1.793560 
# 
# From -- ./inp_files/14374.got.cif
#   From: 2010.03.12/outbox.cif.g09.slc.cpg/sg64_8_cif.got.tgz:14374.got - 2010.04.10 20:19:32.
