data_PCOD8263248
_publ_section_title
;
Structure prediction by ZEFSAII (Michael W. Deem and Ramdas Pophale) SiO2 
 PCOD8263248
Probable space group: C M C A
;
_chemical_formula_sum "Si O2"
_cell_formula_units_Z 88
_cell_length_a 29.444972
_cell_length_b 16.758739
_cell_length_c 9.727058
_cell_angle_alpha 90.000000
_cell_angle_beta 90.000000
_cell_angle_gamma 90.000000
_cell_volume 4799.919883
_symmetry_space_group_name_H-M "C M C A"
_symmetry_group_IT_number 64
_symmetry_cell_setting 'orthorhombic'
loop_
_space_group_symop_operation_xyz
x,y,z
-x,1/2-y,1/2+z
x,-y,-z
-x,1/2+y,1/2-z
-x,-y,-z
x,1/2+y,1/2-z
-x,y,z
x,1/2-y,1/2+z
1/2+x,1/2+y,z
1/2-x,-y,1/2+z
1/2+x,1/2-y,-z
1/2-x,y,1/2-z
1/2-x,1/2-y,-z
1/2+x,y,1/2-z
1/2-x,1/2+y,z
1/2+x,-y,1/2+z
loop_
_atom_site_type_symbol
_atom_site_label
_atom_site_fract_x
_atom_site_fract_y
_atom_site_fract_z
Si Si1 0.236367 0.068166 0.601397
Si Si2 0.295417 0.203225 0.530016
Si Si3 0.000000 0.309437 0.727269
Si Si4 0.500000 0.591106 0.948843
Si Si5 0.000000 0.094395 0.503136
Si Si6 0.561940 0.163084 0.774162
Si Si7 0.835090 0.802054 0.315482
O O1 0.250000 0.032756 0.750000
O O2 0.281471 0.109882 0.535250
O O3 0.194490 0.128458 0.615720
O O4 0.219491 0.000000 0.500000
O O5 0.250000 0.250000 0.500000
O O6 0.334294 0.225397 0.418286
O O7 0.312963 0.230913 0.677552
O O8 0.000000 0.352048 0.580545
O O9 0.955649 0.253723 0.741337
O O10 0.000000 0.374566 0.847370
O O11 0.455524 0.610004 0.855324
O O12 0.500000 0.500000 0.000000
O O13 0.955681 0.125667 0.583203
O O14 0.000000 0.000000 0.500000
O O15 0.615782 0.163216 0.781575
#
# Coordination Sequence:
#
# PCOD8263248 Si02
#       7
#    16  16   8   8   8  16  16
#     4   9  19  36  55  77 112 152 187 224 281 342
#     4   9  19  36  56  80 110 150 186 231 284 333
#     4  10  20  36  62  82 110 152 194 224 284 346
#     4  10  21  40  61  78 116 160 182 228 299 352
#     4  10  21  38  59  82 116 154 184 232 295 350
#     4  10  21  36  58  87 115 145 193 239 282 340
#     4  10  21  34  59  85 113 140 193 245 273 326
#
# _framework density 18.333639000000002
#
# number of rings (size 3 to 8) (size 9 to 14) (size 15 to 20)
#    0.000    2.545    0.000    4.909    5.091    3.636 
#    0.000    3.636    8.000    0.000    0.000    0.000 
#    0.000    0.000    0.000    0.000    0.000    0.000 
#
# Total GULP energy -545352.840677 kJ/mol
# GULP energy per Si atom -12394.382743 kJ/mol
# Density = 1.829191 g / cm^3
# Si number density = 18.333639 Si / 1000 Ang^3
#
#
#
# Elastic Constant Matrix: (Units=GPa)
#
#
# Indices 1 2 3 4 5 6 
#
# 1 110.7532 43.4117 60.0872 0.0000 0.0000 0.0000
# 2 43.4117 90.7900 61.7323 0.0000 0.0000 0.0000
# 3 60.0872 61.7323 143.4278 0.0000 0.0000 0.0000
# 4 0.0000 0.0000 0.0000 45.0779 0.0000 0.0000
# 5 0.0000 0.0000 0.0000 0.0000 18.1059 0.0000
# 6 0.0000 0.0000 0.0000 0.0000 0.0000 12.1491
#
#
#
# Elastic Compliance Matrix: (Units=1/GPa)
#
#
# Indices 1 2 3 4 5 6 
#
# 1 0.012379 -0.003383 -0.003730 0.000000 0.000000 0.000000
# 2 -0.003383 0.016496 -0.005683 0.000000 0.000000 0.000000
# 3 -0.003730 -0.005683 0.010981 0.000000 0.000000 0.000000
# 4 0.000000 0.000000 0.000000 0.022184 0.000000 0.000000
# 5 0.000000 0.000000 0.000000 0.000000 0.055231 0.000000
# 6 0.000000 0.000000 0.000000 0.000000 0.000000 0.082311
#
#
# Mechanical properties :
#
#
# Convention : Reuss Voigt Hill
#
# Bulk Modulus (GPa) = 70.10523 75.04817 72.57670
# Shear Modulus (GPa) = 21.74611 27.04921 24.39766
#
# Velocity S-wave (km/s) = 3.44776 3.84524 3.65191
# Velocity P-wave (km/s) = 7.36010 7.79346 7.57988
#
# Compressibility (1/GPa) = 0.01426427
#
# Stress axis : x y z
#
# Youngs Moduli (GPa) = 80.78451 60.62111 91.06929
#
# Poissons Ratio (x) = 0.20507 0.33968
# Poissons Ratio (y) = 0.27328 0.51753
# Poissons Ratio (z) = 0.30132 0.34450
#
# Static dielectric constant tensor:
#      x y z
#    x 3.317700 0.000000 0.000000 
#    y 0.000000 3.401540 0.000000 
#    z 0.000000 0.000000 1.190040 
# 
# 
# High freq. dielectric constant tensor:
#      x y z
#    x 1.693440 0.000000 0.000000 
#    y 0.000000 1.698720 0.000000 
#    z 0.000000 0.000000 1.730800 
# 
# From -- ./inp_files/11102.got.cif
#   From: 2010.03.12/outbox.cif.g09.slc.cpg/sg64_6_cif.got.tgz:11102.got - 2010.04.10 20:19:32.
