data_PCOD8263109
_publ_section_title
;
Structure prediction by ZEFSAII (Michael W. Deem and Ramdas Pophale) SiO2 
 PCOD8263109
Probable space group: C M C A
;
_chemical_formula_sum "Si O2"
_cell_formula_units_Z 80
_cell_length_a 12.594563
_cell_length_b 18.626734
_cell_length_c 17.234019
_cell_angle_alpha 90.000000
_cell_angle_beta 90.000000
_cell_angle_gamma 90.000000
_cell_volume 4043.024594
_symmetry_space_group_name_H-M "C M C A"
_symmetry_group_IT_number 64
_symmetry_cell_setting 'orthorhombic'
loop_
_space_group_symop_operation_xyz
x,y,z
-x,1/2-y,1/2+z
x,-y,-z
-x,1/2+y,1/2-z
-x,-y,-z
x,1/2+y,1/2-z
-x,y,z
x,1/2-y,1/2+z
1/2+x,1/2+y,z
1/2-x,-y,1/2+z
1/2+x,1/2-y,-z
1/2-x,y,1/2-z
1/2-x,1/2-y,-z
1/2+x,y,1/2-z
1/2-x,1/2+y,z
1/2+x,-y,1/2+z
loop_
_atom_site_type_symbol
_atom_site_label
_atom_site_fract_x
_atom_site_fract_y
_atom_site_fract_z
Si Si1 0.123501 0.948096 0.878795
Si Si2 0.751517 0.682504 0.096086
Si Si3 0.380224 0.091024 0.204803
Si Si4 0.124428 0.815687 0.439293
Si Si5 0.317984 0.473932 0.416008
O O1 0.164456 0.878673 0.926995
O O2 0.158257 0.934024 0.789680
O O3 0.000000 0.963046 0.891848
O O4 0.189656 0.017289 0.908217
O O5 0.812866 0.659069 0.174099
O O6 0.689209 0.756646 0.110333
O O7 0.837720 0.688201 0.027974
O O8 0.500000 0.118243 0.212984
O O9 0.375471 0.023950 0.146560
O O10 0.148815 0.892374 0.400835
O O11 0.000000 0.798652 0.435396
O O12 0.358055 0.500000 0.500000
#
# Coordination Sequence:
#
# PCOD8263109 Si02
#       5
#    16  16  16  16  16
#     4  10  21  39  58  82 115 156 195 231 283 340
#     4  10  20  36  55  82 110 148 190 233 282 342
#     4  10  20  37  62  83 112 154 196 234 276 344
#     4  11  22  35  54  84 117 145 182 237 295 338
#     4  11  20  35  57  87 114 147 191 238 286 339
#
# _framework density 19.787165000000002
#
# number of rings (size 3 to 8) (size 9 to 14) (size 15 to 20)
#    0.000    1.600    4.000    4.200    0.000    1.200 
#    0.000    6.000    0.000    4.800    0.000    0.000 
#    0.000    0.000    0.000    0.000    0.000    0.000 
#
# Total GULP energy -495929.631354 kJ/mol
# GULP energy per Si atom -12398.240784 kJ/mol
# Density = 1.974213 g / cm^3
# Si number density = 19.787165 Si / 1000 Ang^3
#
#
#
# Elastic Constant Matrix: (Units=GPa)
#
#
# Indices 1 2 3 4 5 6 
#
# 1 87.3036 48.2674 21.8915 0.0000 0.0000 0.0000
# 2 48.2674 126.7789 32.4541 0.0000 0.0000 0.0000
# 3 21.8915 32.4541 58.3298 0.0000 0.0000 0.0000
# 4 0.0000 0.0000 0.0000 22.7340 0.0000 0.0000
# 5 0.0000 0.0000 0.0000 0.0000 30.5781 0.0000
# 6 0.0000 0.0000 0.0000 0.0000 0.0000 31.0098
#
#
#
# Elastic Compliance Matrix: (Units=1/GPa)
#
#
# Indices 1 2 3 4 5 6 
#
# 1 0.014901 -0.004946 -0.002841 0.000000 0.000000 0.000000
# 2 -0.004946 0.010839 -0.004175 0.000000 0.000000 0.000000
# 3 -0.002841 -0.004175 0.020533 0.000000 0.000000 0.000000
# 4 0.000000 0.000000 0.000000 0.043987 0.000000 0.000000
# 5 0.000000 0.000000 0.000000 0.000000 0.032703 0.000000
# 6 0.000000 0.000000 0.000000 0.000000 0.000000 0.032248
#
#
# Mechanical properties :
#
#
# Convention : Reuss Voigt Hill
#
# Bulk Modulus (GPa) = 44.74124 53.07094 48.90609
# Shear Modulus (GPa) = 26.79757 28.18431 27.49094
#
# Velocity S-wave (km/s) = 3.68406 3.77818 3.73142
# Velocity P-wave (km/s) = 6.38410 6.77584 6.58288
#
# Compressibility (1/GPa) = 0.02235074
#
# Stress axis : x y z
#
# Youngs Moduli (GPa) = 67.10939 92.25530 48.70273
#
# Poissons Ratio (x) = 0.45629 0.13834
# Poissons Ratio (y) = 0.33192 0.20332
# Poissons Ratio (z) = 0.19063 0.38514
#
# Static dielectric constant tensor:
#      x y z
#    x 3.799800 0.000000 0.000000 
#    y 0.000000 3.614160 0.000000 
#    z 0.000000 0.000000 3.581500 
# 
# 
# High freq. dielectric constant tensor:
#      x y z
#    x 1.792080 0.000000 0.000000 
#    y 0.000000 1.754240 0.000000 
#    z 0.000000 0.000000 1.761040 
# 
# From -- ./inp_files/32249.got.cif
#   From: 2010.03.12/outbox.cif.g09.slc.cpg/sg64_17_cif.got.tgz:32249.got - 2010.04.10 20:19:32.
