data_PCOD8263357
_publ_section_title
;
Structure prediction by ZEFSAII (Michael W. Deem and Ramdas Pophale) SiO2 
 PCOD8263357
Probable space group: C M C A
;
_chemical_formula_sum "Si O2"
_cell_formula_units_Z 120
_cell_length_a 24.045572
_cell_length_b 19.356121
_cell_length_c 11.676211
_cell_angle_alpha 90.000000
_cell_angle_beta 90.000000
_cell_angle_gamma 90.000000
_cell_volume 5434.447223
_symmetry_space_group_name_H-M "C M C A"
_symmetry_group_IT_number 64
_symmetry_cell_setting 'orthorhombic'
loop_
_space_group_symop_operation_xyz
x,y,z
-x,1/2-y,1/2+z
x,-y,-z
-x,1/2+y,1/2-z
-x,-y,-z
x,1/2+y,1/2-z
-x,y,z
x,1/2-y,1/2+z
1/2+x,1/2+y,z
1/2-x,-y,1/2+z
1/2+x,1/2-y,-z
1/2-x,y,1/2-z
1/2-x,1/2-y,-z
1/2+x,y,1/2-z
1/2-x,1/2+y,z
1/2+x,-y,1/2+z
loop_
_atom_site_type_symbol
_atom_site_label
_atom_site_fract_x
_atom_site_fract_y
_atom_site_fract_z
Si Si1 0.821594 0.060487 0.083286
Si Si2 0.562302 0.619345 0.479535
Si Si3 0.143463 0.710278 0.689451
Si Si4 0.397149 0.648122 0.231810
Si Si5 0.342628 0.896726 0.134857
Si Si6 0.061400 0.277739 0.512630
Si Si7 0.761126 0.823863 0.049020
Si Si8 0.750000 0.512590 0.750000
O O1 0.865810 0.081339 0.180580
O O2 0.765090 0.031969 0.139672
O O3 0.805038 0.130886 0.021487
O O4 0.845773 0.000000 0.000000
O O5 0.500000 0.591080 0.505653
O O6 0.569285 0.619639 0.341436
O O7 0.609244 0.573317 0.548247
O O8 0.570038 0.696294 0.529371
O O9 0.143478 0.790502 0.725986
O O10 0.123831 0.659165 0.789356
O O11 0.106044 0.694372 0.578136
O O12 0.207990 0.689361 0.669445
O O13 0.435486 0.682021 0.133552
O O14 0.297589 0.860681 0.054041
O O15 0.307361 0.948190 0.216050
O O16 0.000000 0.291471 0.461602
O O17 0.750000 0.750000 0.000000
#
# Coordination Sequence:
#
# PCOD8263357 Si02
#       8
#    16  16  16  16  16  16  16   8
#     4  12  26  45  65 100 138 187 234 278 351 421
#     4  10  23  41  67 103 139 181 234 292 353 415
#     4  11  21  38  62 102 138 177 226 285 352 411
#     4  11  22  40  67 100 139 184 231 288 349 416
#     4  12  22  43  64  96 143 182 225 286 346 418
#     4  10  20  37  64 100 141 180 225 290 360 416
#     4  12  23  40  67 103 140 177 227 286 350 422
#     4  12  28  42  68 100 134 194 232 286 350 418
#
# _framework density 22.081363
#
# number of rings (size 3 to 8) (size 9 to 14) (size 15 to 20)
#    0.000    0.800    5.333    2.800    3.733    1.067 
#    0.000    0.000    0.000    4.000    0.000    0.000 
#    0.000    0.000    0.000    0.000    0.000    0.000 
#
# Total GULP energy -743442.811840 kJ/mol
# GULP energy per Si atom -12390.713531 kJ/mol
# Density = 2.203110 g / cm^3
# Si number density = 22.081363 Si / 1000 Ang^3
#
#
#
# Elastic Constant Matrix: (Units=GPa)
#
#
# Indices 1 2 3 4 5 6 
#
# 1 133.1049 23.9483 49.3773 0.0000 0.0000 0.0000
# 2 23.9483 74.9563 27.4399 0.0000 0.0000 0.0000
# 3 49.3773 27.4399 107.6339 0.0000 0.0000 0.0000
# 4 0.0000 0.0000 0.0000 29.1865 0.0000 0.0000
# 5 0.0000 0.0000 0.0000 0.0000 26.7073 0.0000
# 6 0.0000 0.0000 0.0000 0.0000 0.0000 13.8533
#
#
#
# Elastic Compliance Matrix: (Units=1/GPa)
#
#
# Indices 1 2 3 4 5 6 
#
# 1 0.009212 -0.001540 -0.003833 0.000000 0.000000 0.000000
# 2 -0.001540 0.014972 -0.003110 0.000000 0.000000 0.000000
# 3 -0.003833 -0.003110 0.011842 0.000000 0.000000 0.000000
# 4 0.000000 0.000000 0.000000 0.034262 0.000000 0.000000
# 5 0.000000 0.000000 0.000000 0.000000 0.037443 0.000000
# 6 0.000000 0.000000 0.000000 0.000000 0.000000 0.072185
#
#
# Mechanical properties :
#
#
# Convention : Reuss Voigt Hill
#
# Bulk Modulus (GPa) = 52.46986 57.46957 54.96972
# Shear Modulus (GPa) = 24.60186 28.27807 26.43997
#
# Velocity S-wave (km/s) = 3.34150 3.58247 3.46408
# Velocity P-wave (km/s) = 6.22103 6.57228 6.39907
#
# Compressibility (1/GPa) = 0.01905856
#
# Stress axis : x y z
#
# Youngs Moduli (GPa) = 108.55399 66.79246 84.44284
#
# Poissons Ratio (x) = 0.10285 0.32371
# Poissons Ratio (y) = 0.16716 0.26265
# Poissons Ratio (z) = 0.41614 0.20775
#
# Static dielectric constant tensor:
#      x y z
#    x 3.929830 0.000000 0.000000 
#    y 0.000000 3.786980 0.000000 
#    z 0.000000 0.000000 4.054920 
# 
# 
# High freq. dielectric constant tensor:
#      x y z
#    x 1.859790 0.000000 0.000000 
#    y 0.000000 1.848600 0.000000 
#    z 0.000000 0.000000 1.884040 
# 
# From -- ./inp_files/18576.got.cif
#   From: 2010.03.12/outbox.cif.g09.slc.cpg/sg64_10_cif.got.tgz:18576.got - 2010.04.10 20:19:32.
