data_PCOD8263846
_publ_section_title
;
Structure prediction by ZEFSAII (Michael W. Deem and Ramdas Pophale) SiO2 
 PCOD8263846
Probable space group: C M C A
;
_chemical_formula_sum "Si O2"
_cell_formula_units_Z 96
_cell_length_a 8.856681
_cell_length_b 20.052167
_cell_length_c 28.026247
_cell_angle_alpha 90.000000
_cell_angle_beta 90.000000
_cell_angle_gamma 90.000000
_cell_volume 4977.339454
_symmetry_space_group_name_H-M "C M C A"
_symmetry_group_IT_number 64
_symmetry_cell_setting 'orthorhombic'
loop_
_space_group_symop_operation_xyz
x,y,z
-x,1/2-y,1/2+z
x,-y,-z
-x,1/2+y,1/2-z
-x,-y,-z
x,1/2+y,1/2-z
-x,y,z
x,1/2-y,1/2+z
1/2+x,1/2+y,z
1/2-x,-y,1/2+z
1/2+x,1/2-y,-z
1/2-x,y,1/2-z
1/2-x,1/2-y,-z
1/2+x,y,1/2-z
1/2-x,1/2+y,z
1/2+x,-y,1/2+z
loop_
_atom_site_type_symbol
_atom_site_label
_atom_site_fract_x
_atom_site_fract_y
_atom_site_fract_z
Si Si1 0.321490 0.891231 0.146204
Si Si2 0.823234 0.322196 0.051785
Si Si3 0.322239 0.510461 0.199030
Si Si4 0.674359 0.729941 0.799415
Si Si5 0.171949 0.630728 0.151246
Si Si6 0.676421 0.318063 0.553455
O O1 0.500000 0.898715 0.152755
O O2 0.275526 0.876802 0.091137
O O3 0.263754 0.832472 0.179773
O O4 0.241615 0.959906 0.159838
O O5 0.752722 0.251814 0.065296
O O6 0.000000 0.310946 0.053668
O O7 0.771974 0.345780 0.998590
O O8 0.500000 0.502816 0.203833
O O9 0.250000 0.494526 0.250000
O O10 0.282838 0.584880 0.181852
O O11 0.500000 0.709889 0.792144
O O12 0.750000 0.750570 0.750000
O O13 0.691070 0.792843 0.833824
O O14 0.216005 0.628296 0.094842
O O15 0.000000 0.606246 0.159686
O O16 0.500000 0.303306 0.554106
#
# Coordination Sequence:
#
# PCOD8263846 Si02
#       6
#    16  16  16  16  16  16
#     4  11  22  38  59  85 117 152 193 237 284 341
#     4   9  18  32  56  88 119 152 189 231 282 337
#     4  12  26  43  62  82 112 153 196 241 293 349
#     4  11  22  36  56  84 114 147 188 239 290 339
#     4  10  21  38  60  86 117 152 191 236 286 342
#     4   9  17  33  57  87 120 152 187 231 283 337
#
# _framework density 19.287413999999998
#
# number of rings (size 3 to 8) (size 9 to 14) (size 15 to 20)
#    0.000    1.667    1.667    3.500    0.000    4.000 
#    0.000    0.833    0.000    5.000    0.000    0.000 
#    0.000    0.000    0.000    0.000    0.000    0.000 
#
# Total GULP energy -595212.840314 kJ/mol
# GULP energy per Si atom -12400.267507 kJ/mol
# Density = 1.924351 g / cm^3
# Si number density = 19.287414 Si / 1000 Ang^3
#
#
#
# Elastic Constant Matrix: (Units=GPa)
#
#
# Indices 1 2 3 4 5 6 
#
# 1 72.0557 15.8335 34.7303 0.0000 0.0000 0.0000
# 2 15.8335 51.5584 15.9198 0.0000 0.0000 0.0000
# 3 34.7303 15.9198 110.8206 0.0000 0.0000 0.0000
# 4 0.0000 0.0000 0.0000 22.4383 0.0000 0.0000
# 5 0.0000 0.0000 0.0000 0.0000 25.4800 0.0000
# 6 0.0000 0.0000 0.0000 0.0000 0.0000 33.5779
#
#
#
# Elastic Compliance Matrix: (Units=1/GPa)
#
#
# Indices 1 2 3 4 5 6 
#
# 1 0.017011 -0.003744 -0.004793 0.000000 0.000000 0.000000
# 2 -0.003744 0.021120 -0.001861 0.000000 0.000000 0.000000
# 3 -0.004793 -0.001861 0.010793 0.000000 0.000000 0.000000
# 4 0.000000 0.000000 0.000000 0.044567 0.000000 0.000000
# 5 0.000000 0.000000 0.000000 0.000000 0.039247 0.000000
# 6 0.000000 0.000000 0.000000 0.000000 0.000000 0.029781
#
#
# Mechanical properties :
#
#
# Convention : Reuss Voigt Hill
#
# Bulk Modulus (GPa) = 35.55163 40.82243 38.18703
# Shear Modulus (GPa) = 25.94833 27.49598 26.72216
#
# Velocity S-wave (km/s) = 3.67188 3.77980 3.72623
# Velocity P-wave (km/s) = 6.03734 6.34511 6.19314
#
# Compressibility (1/GPa) = 0.02812811
#
# Stress axis : x y z
#
# Youngs Moduli (GPa) = 58.78474 47.34901 92.65210
#
# Poissons Ratio (x) = 0.17728 0.44411
# Poissons Ratio (y) = 0.22009 0.17239
# Poissons Ratio (z) = 0.28177 0.08810
#
# Static dielectric constant tensor:
#      x y z
#    x 3.561360 0.000000 0.000000 
#    y 0.000000 3.218760 0.000000 
#    z 0.000000 0.000000 4.075280 
# 
# 
# High freq. dielectric constant tensor:
#      x y z
#    x 1.752650 0.000000 0.000000 
#    y 0.000000 1.727250 0.000000 
#    z 0.000000 0.000000 1.772240 
# 
# From -- ./inp_files/48049.got.cif
#   From: 2010.03.12/outbox.cif.g09.slc.cpg/sg64_25_cif.got.tgz:48049.got - 2010.04.10 20:19:32.
