data_PCOD8263699
_publ_section_title
;
Structure prediction by ZEFSAII (Michael W. Deem and Ramdas Pophale) SiO2 
 PCOD8263699
Probable space group: C M C A
;
_chemical_formula_sum "Si O2"
_cell_formula_units_Z 72
_cell_length_a 13.497865
_cell_length_b 17.575332
_cell_length_c 13.157657
_cell_angle_alpha 90.000000
_cell_angle_beta 90.000000
_cell_angle_gamma 90.000000
_cell_volume 3121.383847
_symmetry_space_group_name_H-M "C M C A"
_symmetry_group_IT_number 64
_symmetry_cell_setting 'orthorhombic'
loop_
_space_group_symop_operation_xyz
x,y,z
-x,1/2-y,1/2+z
x,-y,-z
-x,1/2+y,1/2-z
-x,-y,-z
x,1/2+y,1/2-z
-x,y,z
x,1/2-y,1/2+z
1/2+x,1/2+y,z
1/2-x,-y,1/2+z
1/2+x,1/2-y,-z
1/2-x,y,1/2-z
1/2-x,1/2-y,-z
1/2+x,y,1/2-z
1/2-x,1/2+y,z
1/2+x,-y,1/2+z
loop_
_atom_site_type_symbol
_atom_site_label
_atom_site_fract_x
_atom_site_fract_y
_atom_site_fract_z
Si Si1 0.388465 0.528085 0.153682
Si Si2 0.383902 0.896610 0.864647
Si Si3 0.611701 0.684606 0.033700
Si Si4 0.238507 0.500000 0.000000
Si Si5 0.220120 0.736826 0.643343
O O1 0.500000 0.495282 0.140689
O O2 0.364794 0.544573 0.271362
O O3 0.375980 0.606176 0.091574
O O4 0.308489 0.474158 0.096573
O O5 0.500000 0.886779 0.885284
O O6 0.337546 0.815982 0.836009
O O7 0.331391 0.929975 0.965520
O O8 0.500000 0.714177 0.037158
O O9 0.677564 0.750820 0.083187
O O10 0.648999 0.678378 0.916803
O O11 0.250000 0.698883 0.750000
#
# Coordination Sequence:
#
# PCOD8263699 Si02
#       5
#    16  16  16   8  16
#     4  10  21  39  61  85 116 156 197 239 292 350
#     4  11  22  38  61  89 119 155 195 241 293 346
#     4  10  21  36  60  90 119 153 195 238 292 354
#     4  12  20  36  58  88 112 154 202 248 282 342
#     4  11  20  37  61  91 119 158 192 240 290 350
#
# _framework density 23.066690999999999
#
# number of rings (size 3 to 8) (size 9 to 14) (size 15 to 20)
#    0.000    1.333    4.444    2.000    0.000    0.889 
#    0.000    2.222    0.000    0.000    0.000    0.000 
#    0.000    0.000    0.000    0.000    0.000    0.000 
#
# Total GULP energy -446228.613632 kJ/mol
# GULP energy per Si atom -12395.239268 kJ/mol
# Density = 2.301419 g / cm^3
# Si number density = 23.066691 Si / 1000 Ang^3
#
#
#
# Elastic Constant Matrix: (Units=GPa)
#
#
# Indices 1 2 3 4 5 6 
#
# 1 168.8416 14.5609 50.4013 0.0000 0.0000 0.0000
# 2 14.5609 23.5556 17.8160 0.0000 0.0000 0.0000
# 3 50.4013 17.8160 115.1482 0.0000 0.0000 0.0000
# 4 0.0000 0.0000 0.0000 35.7628 0.0000 0.0000
# 5 0.0000 0.0000 0.0000 0.0000 39.3620 0.0000
# 6 0.0000 0.0000 0.0000 0.0000 0.0000 26.6129
#
#
#
# Elastic Compliance Matrix: (Units=1/GPa)
#
#
# Indices 1 2 3 4 5 6 
#
# 1 0.006917 -0.002249 -0.002679 0.000000 0.000000 0.000000
# 2 -0.002249 0.048810 -0.006568 0.000000 0.000000 0.000000
# 3 -0.002679 -0.006568 0.010873 0.000000 0.000000 0.000000
# 4 0.000000 0.000000 0.000000 0.027962 0.000000 0.000000
# 5 0.000000 0.000000 0.000000 0.000000 0.025405 0.000000
# 6 0.000000 0.000000 0.000000 0.000000 0.000000 0.037576
#
#
# Mechanical properties :
#
#
# Convention : Reuss Voigt Hill
#
# Bulk Modulus (GPa) = 22.93142 52.56683 37.74913
# Shear Modulus (GPa) = 25.63163 35.33201 30.48182
#
# Velocity S-wave (km/s) = 3.33708 3.91798 3.63914
# Velocity P-wave (km/s) = 4.98107 6.58073 5.83597
#
# Compressibility (1/GPa) = 0.04360828
#
# Stress axis : x y z
#
# Youngs Moduli (GPa) = 144.58169 20.48746 91.96716
#
# Poissons Ratio (x) = 0.04607 0.24642
# Poissons Ratio (y) = 0.32514 0.60401
# Poissons Ratio (z) = 0.38740 0.13456
#
# Static dielectric constant tensor:
#      x y z
#    x 4.687070 0.000000 0.000000 
#    y 0.000000 3.623390 0.000000 
#    z 0.000000 0.000000 4.601680 
# 
# 
# High freq. dielectric constant tensor:
#      x y z
#    x 1.938100 0.000000 0.000000 
#    y 0.000000 1.860130 0.000000 
#    z 0.000000 0.000000 1.917100 
# 
# From -- ./inp_files/14379.got.cif
#   From: 2010.03.12/outbox.cif.g09.slc.cpg/sg64_8_cif.got.tgz:14379.got - 2010.04.10 20:19:32.
