data_PCOD8263855
_publ_section_title
;
Structure prediction by ZEFSAII (Michael W. Deem and Ramdas Pophale) SiO2 
 PCOD8263855
Probable space group: C M C A
;
_chemical_formula_sum "Si O2"
_cell_formula_units_Z 64
_cell_length_a 14.822847
_cell_length_b 14.654103
_cell_length_c 14.444166
_cell_angle_alpha 90.000000
_cell_angle_beta 90.000000
_cell_angle_gamma 90.000000
_cell_volume 3137.497125
_symmetry_space_group_name_H-M "C M C A"
_symmetry_group_IT_number 64
_symmetry_cell_setting 'orthorhombic'
loop_
_space_group_symop_operation_xyz
x,y,z
-x,1/2-y,1/2+z
x,-y,-z
-x,1/2+y,1/2-z
-x,-y,-z
x,1/2+y,1/2-z
-x,y,z
x,1/2-y,1/2+z
1/2+x,1/2+y,z
1/2-x,-y,1/2+z
1/2+x,1/2-y,-z
1/2-x,y,1/2-z
1/2-x,1/2-y,-z
1/2+x,y,1/2-z
1/2-x,1/2+y,z
1/2+x,-y,1/2+z
loop_
_atom_site_type_symbol
_atom_site_label
_atom_site_fract_x
_atom_site_fract_y
_atom_site_fract_z
Si Si1 0.747179 0.602805 0.021050
Si Si2 0.603166 0.559480 0.336178
Si Si3 0.178621 0.363205 0.170678
Si Si4 0.103518 0.172006 0.157293
O O1 0.835168 0.605696 0.086129
O O2 0.663183 0.653253 0.067314
O O3 0.717060 0.500000 0.000000
O O4 0.769692 0.654489 0.925949
O O5 0.500000 0.584272 0.359872
O O6 0.613588 0.450452 0.336042
O O7 0.631141 0.600441 0.236931
O O8 0.250000 0.383203 0.250000
O O9 0.120122 0.274214 0.194993
O O10 0.000000 0.160201 0.128412
#
# Coordination Sequence:
#
# PCOD8263855 Si02
#       4
#    16  16  16  16
#     4  10  21  38  61  85 115 154 191 239 293 345
#     4  10  21  38  61  88 118 152 193 241 292 348
#     4  11  22  38  60  85 118 157 196 239 290 345
#     4  11  23  39  60  87 119 154 195 240 288 345
#
# _framework density 20.398425
#
# number of rings (size 3 to 8) (size 9 to 14) (size 15 to 20)
#    0.000    1.500    0.000    6.750    0.000    6.000 
#    0.000    5.000    0.000    0.000    0.000    0.000 
#    0.000    0.000    0.000    0.000    0.000    0.000 
#
# Total GULP energy -397010.686982 kJ/mol
# GULP energy per Si atom -12406.583968 kJ/mol
# Density = 2.035200 g / cm^3
# Si number density = 20.398425 Si / 1000 Ang^3
#
#
#
# Elastic Constant Matrix: (Units=GPa)
#
#
# Indices 1 2 3 4 5 6 
#
# 1 105.7883 31.6805 59.8413 0.0000 0.0000 0.0000
# 2 31.6805 74.6305 27.7291 0.0000 0.0000 0.0000
# 3 59.8413 27.7291 123.3208 0.0000 0.0000 0.0000
# 4 0.0000 0.0000 0.0000 12.3097 0.0000 0.0000
# 5 0.0000 0.0000 0.0000 0.0000 20.6086 0.0000
# 6 0.0000 0.0000 0.0000 0.0000 0.0000 27.7182
#
#
#
# Elastic Compliance Matrix: (Units=1/GPa)
#
#
# Indices 1 2 3 4 5 6 
#
# 1 0.013909 -0.003706 -0.005916 0.000000 0.000000 0.000000
# 2 -0.003706 0.015608 -0.001711 0.000000 0.000000 0.000000
# 3 -0.005916 -0.001711 0.011364 0.000000 0.000000 0.000000
# 4 0.000000 0.000000 0.000000 0.081237 0.000000 0.000000
# 5 0.000000 0.000000 0.000000 0.000000 0.048523 0.000000
# 6 0.000000 0.000000 0.000000 0.000000 0.000000 0.036077
#
#
# Mechanical properties :
#
#
# Convention : Reuss Voigt Hill
#
# Bulk Modulus (GPa) = 54.89942 60.24902 57.57422
# Shear Modulus (GPa) = 21.23518 24.42656 22.83087
#
# Velocity S-wave (km/s) = 3.22999 3.46421 3.34914
# Velocity P-wave (km/s) = 6.39393 6.75287 6.57585
#
# Compressibility (1/GPa) = 0.01821513
#
# Stress axis : x y z
#
# Youngs Moduli (GPa) = 71.89406 64.06791 87.99358
#
# Poissons Ratio (x) = 0.23746 0.52058
# Poissons Ratio (y) = 0.26646 0.15057
# Poissons Ratio (z) = 0.42533 0.10963
#
# Static dielectric constant tensor:
#      x y z
#    x 3.529990 0.000000 0.000000 
#    y 0.000000 3.761840 0.000000 
#    z 0.000000 0.000000 3.765690 
# 
# 
# High freq. dielectric constant tensor:
#      x y z
#    x 1.794040 0.000000 0.000000 
#    y 0.000000 1.808070 0.000000 
#    z 0.000000 0.000000 1.800660 
# 
# From -- ./inp_files/14023.got.cif
#   From: 2010.03.12/outbox.cif.g09.slc.cpg/sg64_8_cif.got.tgz:14023.got - 2010.04.10 20:19:32.
