data_PCOD8263178
_publ_section_title
;
Structure prediction by ZEFSAII (Michael W. Deem and Ramdas Pophale) SiO2 
 PCOD8263178
Probable space group: C M C A
;
_chemical_formula_sum "Si O2"
_cell_formula_units_Z 96
_cell_length_a 23.450293
_cell_length_b 14.100875
_cell_length_c 14.489759
_cell_angle_alpha 90.000000
_cell_angle_beta 90.000000
_cell_angle_gamma 90.000000
_cell_volume 4791.323542
_symmetry_space_group_name_H-M "C M C A"
_symmetry_group_IT_number 64
_symmetry_cell_setting 'orthorhombic'
loop_
_space_group_symop_operation_xyz
x,y,z
-x,1/2-y,1/2+z
x,-y,-z
-x,1/2+y,1/2-z
-x,-y,-z
x,1/2+y,1/2-z
-x,y,z
x,1/2-y,1/2+z
1/2+x,1/2+y,z
1/2-x,-y,1/2+z
1/2+x,1/2-y,-z
1/2-x,y,1/2-z
1/2-x,1/2-y,-z
1/2+x,y,1/2-z
1/2-x,1/2+y,z
1/2+x,-y,1/2+z
loop_
_atom_site_type_symbol
_atom_site_label
_atom_site_fract_x
_atom_site_fract_y
_atom_site_fract_z
Si Si1 0.000000 0.359782 0.067395
Si Si2 0.308856 0.437800 0.303080
Si Si3 0.382782 0.723940 0.632982
Si Si4 0.178599 0.227225 0.437930
Si Si5 0.617407 0.879468 0.779525
Si Si6 0.259812 0.595957 0.970883
Si Si7 0.000000 0.426283 0.868681
O O1 0.946247 0.309127 0.112189
O O2 0.000000 0.468830 0.092888
O O3 0.000000 0.353070 0.955387
O O4 0.250000 0.419636 0.250000
O O5 0.351892 0.348788 0.296353
O O6 0.339671 0.532647 0.268452
O O7 0.292892 0.445784 0.411122
O O8 0.350151 0.734232 0.537369
O O9 0.383688 0.826109 0.681988
O O10 0.136212 0.191724 0.360337
O O11 0.233602 0.156972 0.443850
O O12 0.199345 0.334060 0.411857
O O13 0.554546 0.913710 0.804129
O O14 0.293957 0.500000 0.000000
#
# Coordination Sequence:
#
# PCOD8263178 Si02
#       7
#     8  16  16  16  16  16   8
#     4  11  21  42  70  98 119 161 218 280 318 383
#     4  11  24  38  61  93 127 170 211 259 316 390
#     4  11  24  40  65  92 132 164 213 268 325 379
#     4  10  22  38  60  93 119 171 213 255 321 377
#     4  12  23  41  64  92 126 167 211 270 324 381
#     4  10  20  36  58  84 128 166 209 253 304 378
#     4  11  23  40  74  92 119 163 222 274 332 363
#
# _framework density 20.036218999999999
#
# number of rings (size 3 to 8) (size 9 to 14) (size 15 to 20)
#    0.000    1.167    5.000    1.500    2.333    2.000 
#    0.000    0.000    0.000    0.000    0.000    3.500 
#    0.000    0.000    0.000    0.000    0.000    0.000 
#
# Total GULP energy -595078.976379 kJ/mol
# GULP energy per Si atom -12397.478675 kJ/mol
# Density = 1.999062 g / cm^3
# Si number density = 20.036219 Si / 1000 Ang^3
#
#
#
# Elastic Constant Matrix: (Units=GPa)
#
#
# Indices 1 2 3 4 5 6 
#
# 1 117.0803 37.6401 16.6434 0.0000 0.0000 0.0000
# 2 37.6401 116.4134 12.6074 0.0000 0.0000 0.0000
# 3 16.6434 12.6074 52.0226 0.0000 0.0000 0.0000
# 4 0.0000 0.0000 0.0000 31.8124 0.0000 0.0000
# 5 0.0000 0.0000 0.0000 0.0000 33.3232 0.0000
# 6 0.0000 0.0000 0.0000 0.0000 0.0000 35.8169
#
#
#
# Elastic Compliance Matrix: (Units=1/GPa)
#
#
# Indices 1 2 3 4 5 6 
#
# 1 0.009824 -0.002912 -0.002437 0.000000 0.000000 0.000000
# 2 -0.002912 0.009685 -0.001415 0.000000 0.000000 0.000000
# 3 -0.002437 -0.001415 0.020345 0.000000 0.000000 0.000000
# 4 0.000000 0.000000 0.000000 0.031434 0.000000 0.000000
# 5 0.000000 0.000000 0.000000 0.000000 0.030009 0.000000
# 6 0.000000 0.000000 0.000000 0.000000 0.000000 0.027920
#
#
# Mechanical properties :
#
#
# Convention : Reuss Voigt Hill
#
# Bulk Modulus (GPa) = 37.98778 46.58869 42.28823
# Shear Modulus (GPa) = 32.99855 34.76553 33.88204
#
# Velocity S-wave (km/s) = 4.06266 4.17001 4.11669
# Velocity P-wave (km/s) = 6.40372 6.81822 6.61422
#
# Compressibility (1/GPa) = 0.02632425
#
# Stress axis : x y z
#
# Youngs Moduli (GPa) = 101.79248 103.25202 49.15186
#
# Poissons Ratio (x) = 0.30072 0.11979
# Poissons Ratio (y) = 0.29646 0.06957
# Poissons Ratio (z) = 0.24808 0.14614
#
# Static dielectric constant tensor:
#      x y z
#    x 3.590030 0.000000 0.000000 
#    y 0.000000 3.764770 0.000000 
#    z 0.000000 0.000000 3.514470 
# 
# 
# High freq. dielectric constant tensor:
#      x y z
#    x 1.776390 0.000000 0.000000 
#    y 0.000000 1.790730 0.000000 
#    z 0.000000 0.000000 1.772300 
# 
# From -- ./inp_files/26373.got.cif
#   From: 2010.03.12/outbox.cif.g09.slc.cpg/sg64_14_cif.got.tgz:26373.got - 2010.04.10 20:19:32.
