data_PCOD8263086
_publ_section_title
;
Structure prediction by ZEFSAII (Michael W. Deem and Ramdas Pophale) SiO2 
 PCOD8263086
Probable space group: C M C A
;
_chemical_formula_sum "Si O2"
_cell_formula_units_Z 112
_cell_length_a 13.435514
_cell_length_b 23.728431
_cell_length_c 16.264474
_cell_angle_alpha 90.000000
_cell_angle_beta 90.000000
_cell_angle_gamma 90.000000
_cell_volume 5185.173951
_symmetry_space_group_name_H-M "C M C A"
_symmetry_group_IT_number 64
_symmetry_cell_setting 'orthorhombic'
loop_
_space_group_symop_operation_xyz
x,y,z
-x,1/2-y,1/2+z
x,-y,-z
-x,1/2+y,1/2-z
-x,-y,-z
x,1/2+y,1/2-z
-x,y,z
x,1/2-y,1/2+z
1/2+x,1/2+y,z
1/2-x,-y,1/2+z
1/2+x,1/2-y,-z
1/2-x,y,1/2-z
1/2-x,1/2-y,-z
1/2+x,y,1/2-z
1/2-x,1/2+y,z
1/2+x,-y,1/2+z
loop_
_atom_site_type_symbol
_atom_site_label
_atom_site_fract_x
_atom_site_fract_y
_atom_site_fract_z
Si Si1 0.111096 0.443511 0.950208
Si Si2 0.616605 0.128005 0.319452
Si Si3 0.884907 0.606742 0.760364
Si Si4 0.882958 0.520388 0.225865
Si Si5 0.736494 0.156480 0.038225
Si Si6 0.779519 0.826660 0.142634
Si Si7 0.616992 0.785548 0.827469
O O1 0.154005 0.454607 0.859918
O O2 0.189229 0.402139 0.993466
O O3 0.000000 0.417015 0.946410
O O4 0.107381 0.500000 0.000000
O O5 0.500000 0.128294 0.338532
O O6 0.670103 0.149089 0.401489
O O7 0.641346 0.169652 0.244029
O O8 0.653235 0.064347 0.296054
O O9 0.842391 0.542935 0.763312
O O10 0.865329 0.627732 0.666657
O O11 0.824385 0.649178 0.820644
O O12 0.000000 0.610161 0.785725
O O13 0.000000 0.517140 0.226081
O O14 0.647162 0.188551 0.084279
O O15 0.773143 0.186334 0.954614
O O16 0.813887 0.768897 0.186718
O O17 0.500000 0.769724 0.828711
#
# Coordination Sequence:
#
# PCOD8263086 Si02
#       7
#    16  16  16  16  16  16  16
#     4  10  20  35  61  98 137 171 215 275 329 382
#     4  10  23  41  67  97 131 173 221 270 332 398
#     4  10  23  44  69  90 131 182 222 267 326 391
#     4   9  18  38  63  94 127 172 223 263 317 393
#     4  12  24  39  65 101 133 167 218 276 334 392
#     4  11  26  43  63  97 133 167 227 270 325 391
#     4  11  24  46  68  92 129 174 218 272 330 393
#
# _framework density 21.600045999999999
#
# number of rings (size 3 to 8) (size 9 to 14) (size 15 to 20)
#    0.000    1.571    1.429    2.571    4.000    6.857 
#    0.000    0.000    0.000    3.000    0.000    0.000 
#    0.000    0.000    0.000    0.000    0.000    0.000 
#
# Total GULP energy -694008.519455 kJ/mol
# GULP energy per Si atom -12393.009276 kJ/mol
# Density = 2.155088 g / cm^3
# Si number density = 21.600046 Si / 1000 Ang^3
#
#
#
# Elastic Constant Matrix: (Units=GPa)
#
#
# Indices 1 2 3 4 5 6 
#
# 1 111.1513 52.2107 43.9233 0.0000 0.0000 0.0000
# 2 52.2107 121.1221 31.3589 0.0000 0.0000 0.0000
# 3 43.9233 31.3589 111.1628 0.0000 0.0000 0.0000
# 4 0.0000 0.0000 0.0000 21.4387 0.0000 0.0000
# 5 0.0000 0.0000 0.0000 0.0000 26.3134 0.0000
# 6 0.0000 0.0000 0.0000 0.0000 0.0000 38.9381
#
#
#
# Elastic Compliance Matrix: (Units=1/GPa)
#
#
# Indices 1 2 3 4 5 6 
#
# 1 0.012551 -0.004451 -0.003704 0.000000 0.000000 0.000000
# 2 -0.004451 0.010485 -0.001199 0.000000 0.000000 0.000000
# 3 -0.003704 -0.001199 0.010797 0.000000 0.000000 0.000000
# 4 0.000000 0.000000 0.000000 0.046645 0.000000 0.000000
# 5 0.000000 0.000000 0.000000 0.000000 0.038003 0.000000
# 6 0.000000 0.000000 0.000000 0.000000 0.000000 0.025682
#
#
# Mechanical properties :
#
#
# Convention : Reuss Voigt Hill
#
# Bulk Modulus (GPa) = 66.11148 66.49133 66.30141
# Shear Modulus (GPa) = 29.77715 31.73426 30.75571
#
# Velocity S-wave (km/s) = 3.71694 3.83714 3.77752
# Velocity P-wave (km/s) = 7.00674 7.10502 7.05605
#
# Compressibility (1/GPa) = 0.01512597
#
# Stress axis : x y z
#
# Youngs Moduli (GPa) = 79.67340 95.37070 92.61450
#
# Poissons Ratio (x) = 0.42454 0.34300
# Poissons Ratio (y) = 0.35466 0.11105
# Poissons Ratio (z) = 0.29508 0.11435
#
# Static dielectric constant tensor:
#      x y z
#    x 3.938580 0.000000 0.000000 
#    y 0.000000 4.222420 0.000000 
#    z 0.000000 0.000000 3.458710 
# 
# 
# High freq. dielectric constant tensor:
#      x y z
#    x 1.857150 0.000000 0.000000 
#    y 0.000000 1.861390 0.000000 
#    z 0.000000 0.000000 1.830740 
# 
# From -- ./inp_files/24286.got.cif
#   From: 2010.03.12/outbox.cif.g09.slc.cpg/sg64_13_cif.got.tgz:24286.got - 2010.04.10 20:19:32.
