data_PCOD8263859
_publ_section_title
;
Structure prediction by ZEFSAII (Michael W. Deem and Ramdas Pophale) SiO2 
 PCOD8263859
Probable space group: C M C A
;
_chemical_formula_sum "Si O2"
_cell_formula_units_Z 96
_cell_length_a 8.311635
_cell_length_b 24.725025
_cell_length_c 21.792280
_cell_angle_alpha 90.000000
_cell_angle_beta 90.000000
_cell_angle_gamma 90.000000
_cell_volume 4478.430851
_symmetry_space_group_name_H-M "C M C A"
_symmetry_group_IT_number 64
_symmetry_cell_setting 'orthorhombic'
loop_
_space_group_symop_operation_xyz
x,y,z
-x,1/2-y,1/2+z
x,-y,-z
-x,1/2+y,1/2-z
-x,-y,-z
x,1/2+y,1/2-z
-x,y,z
x,1/2-y,1/2+z
1/2+x,1/2+y,z
1/2-x,-y,1/2+z
1/2+x,1/2-y,-z
1/2-x,y,1/2-z
1/2-x,1/2-y,-z
1/2+x,y,1/2-z
1/2-x,1/2+y,z
1/2+x,-y,1/2+z
loop_
_atom_site_type_symbol
_atom_site_label
_atom_site_fract_x
_atom_site_fract_y
_atom_site_fract_z
Si Si1 0.308279 0.938623 0.184706
Si Si2 0.184476 0.369638 0.920459
Si Si3 0.314918 0.322202 0.346145
Si Si4 0.816207 0.805689 0.025615
Si Si5 0.687043 0.507512 0.430715
Si Si6 0.191431 0.204767 0.185446
O O1 0.500000 0.940937 0.182433
O O2 0.250000 0.964039 0.250000
O O3 0.239306 0.876850 0.182514
O O4 0.239181 0.969733 0.123918
O O5 0.219050 0.432101 0.906688
O O6 0.221498 0.333920 0.861810
O O7 0.000000 0.360688 0.940486
O O8 0.302285 0.351846 0.974739
O O9 0.500000 0.321664 0.329026
O O10 0.293337 0.324634 0.418732
O O11 0.239174 0.266181 0.321064
O O12 0.000000 0.798781 0.046504
O O13 0.750000 0.750000 0.000000
O O14 0.762407 0.500000 0.500000
O O15 0.500000 0.493433 0.436317
O O16 0.250000 0.181887 0.250000
O O17 0.000000 0.202251 0.176236
#
# Coordination Sequence:
#
# PCOD8263859 Si02
#       6
#    16  16  16  16  16  16
#     4  10  21  39  63  91 122 161 209 259 312 372
#     4  11  22  38  61  88 119 156 197 244 298 358
#     4  10  21  38  61  87 119 159 201 248 300 360
#     4  12  23  36  58  88 122 157 195 242 300 364
#     4   9  19  38  64  90 118 157 207 257 308 365
#     4  11  23  38  57  83 118 157 199 244 295 358
#
# _framework density 21.43608
#
# number of rings (size 3 to 8) (size 9 to 14) (size 15 to 20)
#    0.000    1.500    1.667    4.000    0.000    4.667 
#    0.000    3.333    0.000    3.500    0.000    0.000 
#    0.000    0.000    0.000    0.000    0.000    0.000 
#
# Total GULP energy -595028.487316 kJ/mol
# GULP energy per Si atom -12396.426819 kJ/mol
# Density = 2.138729 g / cm^3
# Si number density = 21.436080 Si / 1000 Ang^3
#
#
#
# Elastic Constant Matrix: (Units=GPa)
#
#
# Indices 1 2 3 4 5 6 
#
# 1 31.8732 23.4881 -3.5612 0.0000 0.0000 0.0000
# 2 23.4881 118.0307 46.8406 0.0000 0.0000 0.0000
# 3 -3.5612 46.8406 148.7044 0.0000 0.0000 0.0000
# 4 0.0000 0.0000 0.0000 22.7427 0.0000 0.0000
# 5 0.0000 0.0000 0.0000 0.0000 31.1980 0.0000
# 6 0.0000 0.0000 0.0000 0.0000 0.0000 21.7916
#
#
#
# Elastic Compliance Matrix: (Units=1/GPa)
#
#
# Indices 1 2 3 4 5 6 
#
# 1 0.038575 -0.009192 0.003819 0.000000 0.000000 0.000000
# 2 -0.009192 0.011873 -0.003960 0.000000 0.000000 0.000000
# 3 0.003819 -0.003960 0.008064 0.000000 0.000000 0.000000
# 4 0.000000 0.000000 0.000000 0.043970 0.000000 0.000000
# 5 0.000000 0.000000 0.000000 0.000000 0.032053 0.000000
# 6 0.000000 0.000000 0.000000 0.000000 0.000000 0.045889
#
#
# Mechanical properties :
#
#
# Convention : Reuss Voigt Hill
#
# Bulk Modulus (GPa) = 25.09676 48.01590 36.55633
# Shear Modulus (GPa) = 23.54360 30.60253 27.07307
#
# Velocity S-wave (km/s) = 3.31768 3.78248 3.55768
# Velocity P-wave (km/s) = 5.13898 6.44395 5.82810
#
# Compressibility (1/GPa) = 0.03984578
#
# Stress axis : x y z
#
# Youngs Moduli (GPa) = 25.92364 84.22371 124.01407
#
# Poissons Ratio (x) = 0.77419 -0.47364
# Poissons Ratio (y) = 0.23829 0.49110
# Poissons Ratio (z) = -0.09901 0.33353
#
# Static dielectric constant tensor:
#      x y z
#    x 3.444610 0.000000 0.000000 
#    y 0.000000 4.091420 0.000000 
#    z 0.000000 0.000000 4.237230 
# 
# 
# High freq. dielectric constant tensor:
#      x y z
#    x 1.810510 0.000000 0.000000 
#    y 0.000000 1.844740 0.000000 
#    z 0.000000 0.000000 1.855210 
# 
# From -- ./inp_files/37086.got.cif
#   From: 2010.03.12/outbox.cif.g09.slc.cpg/sg64_19_cif.got.tgz:37086.got - 2010.04.10 20:19:32.
