data_PCOD8263003
_publ_section_title
;
Structure prediction by ZEFSAII (Michael W. Deem and Ramdas Pophale) SiO2 
 PCOD8263003
Probable space group: C M C A
;
_chemical_formula_sum "Si O2"
_cell_formula_units_Z 104
_cell_length_a 9.313922
_cell_length_b 21.368900
_cell_length_c 26.109535
_cell_angle_alpha 90.000000
_cell_angle_beta 90.000000
_cell_angle_gamma 90.000000
_cell_volume 5196.535525
_symmetry_space_group_name_H-M "C M C A"
_symmetry_group_IT_number 64
_symmetry_cell_setting 'orthorhombic'
loop_
_space_group_symop_operation_xyz
x,y,z
-x,1/2-y,1/2+z
x,-y,-z
-x,1/2+y,1/2-z
-x,-y,-z
x,1/2+y,1/2-z
-x,y,z
x,1/2-y,1/2+z
1/2+x,1/2+y,z
1/2-x,-y,1/2+z
1/2+x,1/2-y,-z
1/2-x,y,1/2-z
1/2-x,1/2-y,-z
1/2+x,y,1/2-z
1/2-x,1/2+y,z
1/2+x,-y,1/2+z
loop_
_atom_site_type_symbol
_atom_site_label
_atom_site_fract_x
_atom_site_fract_y
_atom_site_fract_z
Si Si1 0.337230 0.046052 0.391212
Si Si2 0.844224 0.134573 0.523754
Si Si3 0.161516 0.833881 0.590024
Si Si4 0.658793 0.648287 0.704069
Si Si5 0.332669 0.807278 0.390411
Si Si6 0.660867 0.497672 0.297784
Si Si7 0.250906 0.000000 0.500000
O O1 0.500000 0.047988 0.371215
O O2 0.274572 0.116106 0.389184
O O3 0.242847 0.005603 0.351832
O O4 0.340560 0.017303 0.448759
O O5 0.830400 0.171412 0.470877
O O6 0.712932 0.159477 0.557032
O O7 0.843851 0.060048 0.514067
O O8 0.000000 0.149707 0.549017
O O9 0.203190 0.766064 0.611530
O O10 0.000000 0.852967 0.607133
O O11 0.500000 0.678934 0.702682
O O12 0.750000 0.679430 0.750000
O O13 0.741718 0.658795 0.652129
O O14 0.643523 0.575051 0.713230
O O15 0.500000 0.820472 0.382319
O O16 0.500000 0.527538 0.300543
O O17 0.750000 0.527947 0.250000
#
# Coordination Sequence:
#
# PCOD8263003 Si02
#       7
#    16  16  16  16  16  16   8
#     4  11  22  36  57  84 114 148 186 230 278 330
#     4  10  20  35  56  80 109 147 188 227 270 323
#     4   9  21  39  55  76 110 149 187 228 272 322
#     4  10  21  37  58  83 110 141 178 223 273 324
#     4  11  22  36  56  81 110 145 184 227 275 326
#     4  10  21  38  60  85 114 147 184 228 279 334
#     4  10  22  36  54  84 120 152 184 226 280 338
#
# _framework density 20.013334
#
# number of rings (size 3 to 8) (size 9 to 14) (size 15 to 20)
#    0.000    1.846    0.000    3.692    0.000   10.462 
#    0.000    0.769    0.000    3.692    0.000    0.000 
#    0.000    0.000    0.000    0.000    0.000    0.000 
#
# Total GULP energy -644656.545591 kJ/mol
# GULP energy per Si atom -12397.241261 kJ/mol
# Density = 1.996778 g / cm^3
# Si number density = 20.013334 Si / 1000 Ang^3
#
#
#
# Elastic Constant Matrix: (Units=GPa)
#
#
# Indices 1 2 3 4 5 6 
#
# 1 159.2247 26.8543 46.8387 0.0000 0.0000 0.0000
# 2 26.8543 38.2886 9.3860 0.0000 0.0000 0.0000
# 3 46.8387 9.3860 72.5087 0.0000 0.0000 0.0000
# 4 0.0000 0.0000 0.0000 14.0083 0.0000 0.0000
# 5 0.0000 0.0000 0.0000 0.0000 31.7272 0.0000
# 6 0.0000 0.0000 0.0000 0.0000 0.0000 20.5478
#
#
#
# Elastic Compliance Matrix: (Units=1/GPa)
#
#
# Indices 1 2 3 4 5 6 
#
# 1 0.008525 -0.004781 -0.004888 0.000000 0.000000 0.000000
# 2 -0.004781 0.029654 -0.000751 0.000000 0.000000 0.000000
# 3 -0.004888 -0.000751 0.017046 0.000000 0.000000 0.000000
# 4 0.000000 0.000000 0.000000 0.071386 0.000000 0.000000
# 5 0.000000 0.000000 0.000000 0.000000 0.031519 0.000000
# 6 0.000000 0.000000 0.000000 0.000000 0.000000 0.048667
#
#
# Mechanical properties :
#
#
# Convention : Reuss Voigt Hill
#
# Bulk Modulus (GPa) = 29.08075 48.46447 38.77261
# Shear Modulus (GPa) = 20.91202 25.71952 23.31577
#
# Velocity S-wave (km/s) = 3.23601 3.58875 3.41693
# Velocity P-wave (km/s) = 5.34084 6.43745 5.91461
#
# Compressibility (1/GPa) = 0.03438701
#
# Stress axis : x y z
#
# Youngs Moduli (GPa) = 117.30824 33.72186 58.66488
#
# Poissons Ratio (x) = 0.16121 0.28674
# Poissons Ratio (y) = 0.56081 0.04403
# Poissons Ratio (z) = 0.57338 0.02531
#
# Static dielectric constant tensor:
#      x y z
#    x 3.903100 0.000000 0.000000 
#    y 0.000000 3.418260 0.000000 
#    z 0.000000 0.000000 3.638520 
# 
# 
# High freq. dielectric constant tensor:
#      x y z
#    x 1.793490 0.000000 0.000000 
#    y 0.000000 1.760900 0.000000 
#    z 0.000000 0.000000 1.777390 
# 
# From -- ./inp_files/48230.got.cif
#   From: 2010.03.12/outbox.cif.g09.slc.cpg/sg64_25_cif.got.tgz:48230.got - 2010.04.10 20:19:32.
