data_PCOD8263953
_publ_section_title
;
Structure prediction by ZEFSAII (Michael W. Deem and Ramdas Pophale) SiO2 
 PCOD8263953
Probable space group: C M C A
;
_chemical_formula_sum "Si O2"
_cell_formula_units_Z 80
_cell_length_a 17.194843
_cell_length_b 24.194542
_cell_length_c 10.205478
_cell_angle_alpha 90.000000
_cell_angle_beta 90.000000
_cell_angle_gamma 90.000000
_cell_volume 4245.696747
_symmetry_space_group_name_H-M "C M C A"
_symmetry_group_IT_number 64
_symmetry_cell_setting 'orthorhombic'
loop_
_space_group_symop_operation_xyz
x,y,z
-x,1/2-y,1/2+z
x,-y,-z
-x,1/2+y,1/2-z
-x,-y,-z
x,1/2+y,1/2-z
-x,y,z
x,1/2-y,1/2+z
1/2+x,1/2+y,z
1/2-x,-y,1/2+z
1/2+x,1/2-y,-z
1/2-x,y,1/2-z
1/2-x,1/2-y,-z
1/2+x,y,1/2-z
1/2-x,1/2+y,z
1/2+x,-y,1/2+z
loop_
_atom_site_type_symbol
_atom_site_label
_atom_site_fract_x
_atom_site_fract_y
_atom_site_fract_z
Si Si1 0.407910 0.964121 0.882298
Si Si2 0.803045 0.253063 0.873484
Si Si3 0.407652 0.527275 0.868083
Si Si4 0.161305 0.137556 0.767305
Si Si5 0.091888 0.846449 0.520005
O O1 0.500000 0.970456 0.883776
O O2 0.374230 0.988920 0.748060
O O3 0.383663 0.900740 0.898939
O O4 0.371583 0.000000 0.000000
O O5 0.750000 0.270666 0.750000
O O6 0.843750 0.194143 0.849283
O O7 0.750000 0.250000 0.000000
O O8 0.871250 0.296454 0.899077
O O9 0.500000 0.527226 0.870455
O O10 0.381370 0.590413 0.850405
O O11 0.373764 0.500000 0.000000
O O12 0.250000 0.119104 0.750000
O O13 0.121787 0.147916 0.627582
O O14 0.000000 0.837717 0.515391
#
# Coordination Sequence:
#
# PCOD8263953 Si02
#       5
#    16  16  16  16  16
#     4   9  17  34  61  88 118 156 199 249 305 362
#     4  11  23  44  64  87 130 170 203 261 329 369
#     4  10  21  39  62  92 127 161 202 260 316 365
#     4  11  22  41  64  87 130 167 205 253 326 373
#     4  11  22  40  69  97 120 167 223 258 302 383
#
# _framework density 18.842607999999998
#
# number of rings (size 3 to 8) (size 9 to 14) (size 15 to 20)
#    0.000    1.600    6.000    0.600    0.000    3.200 
#    3.600    0.000    0.000    0.000    0.000    0.000 
#    0.000    0.000    0.000    0.000    0.000    0.000 
#
# Total GULP energy -495989.767706 kJ/mol
# GULP energy per Si atom -12399.744193 kJ/mol
# Density = 1.879972 g / cm^3
# Si number density = 18.842608 Si / 1000 Ang^3
#
#
#
# Elastic Constant Matrix: (Units=GPa)
#
#
# Indices 1 2 3 4 5 6 
#
# 1 64.3092 48.5605 44.9633 0.0000 0.0000 0.0000
# 2 48.5605 164.2146 94.6335 0.0000 0.0000 0.0000
# 3 44.9633 94.6335 167.3052 0.0000 0.0000 0.0000
# 4 0.0000 0.0000 0.0000 41.3145 0.0000 0.0000
# 5 0.0000 0.0000 0.0000 0.0000 25.4028 0.0000
# 6 0.0000 0.0000 0.0000 0.0000 0.0000 27.1656
#
#
#
# Elastic Compliance Matrix: (Units=1/GPa)
#
#
# Indices 1 2 3 4 5 6 
#
# 1 0.021100 -0.004409 -0.003177 0.000000 0.000000 0.000000
# 2 -0.004409 0.009956 -0.004446 0.000000 0.000000 0.000000
# 3 -0.003177 -0.004446 0.009346 0.000000 0.000000 0.000000
# 4 0.000000 0.000000 0.000000 0.024205 0.000000 0.000000
# 5 0.000000 0.000000 0.000000 0.000000 0.039366 0.000000
# 6 0.000000 0.000000 0.000000 0.000000 0.000000 0.036811
#
#
# Mechanical properties :
#
#
# Convention : Reuss Voigt Hill
#
# Bulk Modulus (GPa) = 61.20857 85.79373 73.50115
# Shear Modulus (GPa) = 29.36103 32.62135 30.99119
#
# Velocity S-wave (km/s) = 3.95172 4.16535 4.05994
# Velocity P-wave (km/s) = 7.30589 8.29241 7.81474
#
# Compressibility (1/GPa) = 0.01633758
#
# Stress axis : x y z
#
# Youngs Moduli (GPa) = 47.39280 100.44472 106.99827
#
# Poissons Ratio (x) = 0.44284 0.33992
# Poissons Ratio (y) = 0.20895 0.47576
# Poissons Ratio (z) = 0.15056 0.44662
#
# Static dielectric constant tensor:
#      x y z
#    x 3.295460 0.000000 0.000000 
#    y 0.000000 2.842590 0.000000 
#    z 0.000000 0.000000 3.723700 
# 
# 
# High freq. dielectric constant tensor:
#      x y z
#    x 1.715300 0.000000 0.000000 
#    y 0.000000 1.744550 0.000000 
#    z 0.000000 0.000000 1.741390 
# 
# From -- ./inp_files/7102.got.cif
#   From: 2010.03.12/outbox.cif.g09.slc.cpg/sg64_4_cif.got.tgz:7102.got - 2010.04.10 20:19:32.
