data_PCOD8263827
_publ_section_title
;
Structure prediction by ZEFSAII (Michael W. Deem and Ramdas Pophale) SiO2 
 PCOD8263827
Probable space group: C M C A
;
_chemical_formula_sum "Si O2"
_cell_formula_units_Z 80
_cell_length_a 12.744698
_cell_length_b 10.862597
_cell_length_c 26.342551
_cell_angle_alpha 90.000000
_cell_angle_beta 90.000000
_cell_angle_gamma 90.000000
_cell_volume 3646.876413
_symmetry_space_group_name_H-M "C M C A"
_symmetry_group_IT_number 64
_symmetry_cell_setting 'orthorhombic'
loop_
_space_group_symop_operation_xyz
x,y,z
-x,1/2-y,1/2+z
x,-y,-z
-x,1/2+y,1/2-z
-x,-y,-z
x,1/2+y,1/2-z
-x,y,z
x,1/2-y,1/2+z
1/2+x,1/2+y,z
1/2-x,-y,1/2+z
1/2+x,1/2-y,-z
1/2-x,y,1/2-z
1/2-x,1/2-y,-z
1/2+x,y,1/2-z
1/2-x,1/2+y,z
1/2+x,-y,1/2+z
loop_
_atom_site_type_symbol
_atom_site_label
_atom_site_fract_x
_atom_site_fract_y
_atom_site_fract_z
Si Si1 0.378041 0.647321 0.792638
Si Si2 0.381623 0.640511 0.531921
Si Si3 0.184725 0.096348 0.036440
Si Si4 0.620774 0.573570 0.283306
Si Si5 0.240007 0.036816 0.626159
O O1 0.500000 0.636665 0.806792
O O2 0.356454 0.782784 0.766618
O O3 0.343322 0.530066 0.757718
O O4 0.309739 0.637628 0.843878
O O5 0.500000 0.589688 0.523985
O O6 0.307065 0.605804 0.483985
O O7 0.386547 0.786120 0.532577
O O8 0.336299 0.603688 0.586659
O O9 0.183735 0.052674 0.094587
O O10 0.126294 0.000000 0.000000
O O11 0.500000 0.553645 0.293604
O O12 0.675995 0.549880 0.336332
#
# Coordination Sequence:
#
# PCOD8263827 Si02
#       5
#    16  16  16  16  16
#     4  10  23  41  60  86 122 160 200 248 301 357
#     4  10  21  38  59  84 116 153 195 244 295 352
#     4   9  21  38  55  84 118 151 194 241 295 353
#     4  10  22  40  61  87 119 158 201 245 297 354
#     4  11  21  36  60  87 116 152 197 246 296 351
#
# _framework density 21.936581
#
# number of rings (size 3 to 8) (size 9 to 14) (size 15 to 20)
#    0.000    2.000    0.000    2.400    0.000   10.400 
#    0.000   14.000    0.000    0.000    0.000    0.000 
#    0.000    0.000    0.000    0.000    0.000    0.000 
#
# Total GULP energy -495524.202385 kJ/mol
# GULP energy per Si atom -12388.105060 kJ/mol
# Density = 2.188665 g / cm^3
# Si number density = 21.936581 Si / 1000 Ang^3
#
#
#
# Elastic Constant Matrix: (Units=GPa)
#
#
# Indices 1 2 3 4 5 6 
#
# 1 87.3037 14.8119 32.6262 0.0000 0.0000 0.0000
# 2 14.8119 178.6146 60.8452 0.0000 0.0000 0.0000
# 3 32.6262 60.8452 121.4876 0.0000 0.0000 0.0000
# 4 0.0000 0.0000 0.0000 38.9051 0.0000 0.0000
# 5 0.0000 0.0000 0.0000 0.0000 18.5817 0.0000
# 6 0.0000 0.0000 0.0000 0.0000 0.0000 1.7820
#
#
#
# Elastic Compliance Matrix: (Units=1/GPa)
#
#
# Indices 1 2 3 4 5 6 
#
# 1 0.012735 0.000131 -0.003486 0.000000 0.000000 0.000000
# 2 0.000131 0.006752 -0.003417 0.000000 0.000000 0.000000
# 3 -0.003486 -0.003417 0.010879 0.000000 0.000000 0.000000
# 4 0.000000 0.000000 0.000000 0.025704 0.000000 0.000000
# 5 0.000000 0.000000 0.000000 0.000000 0.053816 0.000000
# 6 0.000000 0.000000 0.000000 0.000000 0.000000 0.561180
#
#
# Mechanical properties :
#
#
# Convention : Reuss Voigt Hill
#
# Bulk Modulus (GPa) = 59.44351 67.10806 63.27578
# Shear Modulus (GPa) = 7.24412 30.46192 18.85302
#
# Velocity S-wave (km/s) = 1.81920 3.73048 2.93479
# Velocity P-wave (km/s) = 5.61866 7.01524 6.35543
#
# Compressibility (1/GPa) = 0.01682269
#
# Stress axis : x y z
#
# Youngs Moduli (GPa) = 78.52594 148.11146 91.92326
#
# Poissons Ratio (x) = -0.01946 0.32042
# Poissons Ratio (y) = -0.01032 0.31408
# Poissons Ratio (z) = 0.27372 0.50606
#
# Static dielectric constant tensor:
#      x y z
#    x 3.796620 0.000000 0.000000 
#    y 0.000000 4.480960 0.000000 
#    z 0.000000 0.000000 3.903820 
# 
# 
# High freq. dielectric constant tensor:
#      x y z
#    x 1.861150 0.000000 0.000000 
#    y 0.000000 1.886030 0.000000 
#    z 0.000000 0.000000 1.851840 
# 
# From -- ./inp_files/44934.got.cif
#   From: 2010.03.12/outbox.cif.g09.slc.cpg/sg64_23_cif.got.tgz:44934.got - 2010.04.10 20:19:32.
