data_PCOD8263707
_publ_section_title
;
Structure prediction by ZEFSAII (Michael W. Deem and Ramdas Pophale) SiO2 
 PCOD8263707
Probable space group: C M C A
;
_chemical_formula_sum "Si O2"
_cell_formula_units_Z 120
_cell_length_a 21.512733
_cell_length_b 12.411620
_cell_length_c 20.719879
_cell_angle_alpha 90.000000
_cell_angle_beta 90.000000
_cell_angle_gamma 90.000000
_cell_volume 5532.370700
_symmetry_space_group_name_H-M "C M C A"
_symmetry_group_IT_number 64
_symmetry_cell_setting 'orthorhombic'
loop_
_space_group_symop_operation_xyz
x,y,z
-x,1/2-y,1/2+z
x,-y,-z
-x,1/2+y,1/2-z
-x,-y,-z
x,1/2+y,1/2-z
-x,y,z
x,1/2-y,1/2+z
1/2+x,1/2+y,z
1/2-x,-y,1/2+z
1/2+x,1/2-y,-z
1/2-x,y,1/2-z
1/2-x,1/2-y,-z
1/2+x,y,1/2-z
1/2-x,1/2+y,z
1/2+x,-y,1/2+z
loop_
_atom_site_type_symbol
_atom_site_label
_atom_site_fract_x
_atom_site_fract_y
_atom_site_fract_z
Si Si1 0.206962 0.000000 0.000000
Si Si2 0.571384 0.892097 0.038922
Si Si3 0.929729 0.111649 0.155135
Si Si4 0.748897 0.375988 0.385045
Si Si5 0.372623 0.551102 0.672071
Si Si6 0.658558 0.214083 0.444749
Si Si7 0.119794 0.615770 0.682333
Si Si8 0.431054 0.160511 0.196718
O O1 0.247020 0.027443 0.937224
O O2 0.166890 0.891845 0.988128
O O3 0.500000 0.858420 0.027775
O O4 0.584481 0.900648 0.115528
O O5 0.618630 0.799869 0.012727
O O6 0.587553 0.000000 0.000000
O O7 0.882663 0.186662 0.117080
O O8 0.925358 0.158254 0.226495
O O9 0.000000 0.120858 0.128310
O O10 0.908164 0.987662 0.146339
O O11 0.698968 0.419533 0.335040
O O12 0.724333 0.266299 0.420571
O O13 0.810865 0.359896 0.343292
O O14 0.390258 0.596743 0.741719
O O15 0.381027 0.422381 0.668423
O O16 0.080605 0.722207 0.666742
O O17 0.500000 0.123136 0.175533
#
# Coordination Sequence:
#
# PCOD8263707 Si02
#       8
#     8  16  16  16  16  16  16  16
#     4  12  26  46  65  96 127 172 226 270 336 406
#     4  10  22  42  68  98 136 179 229 276 325 390
#     4  10  21  41  64  93 134 174 212 260 331 399
#     4  11  25  42  67  92 129 172 217 270 330 390
#     4  10  23  39  64  96 131 170 218 272 326 388
#     4  11  24  43  68  96 129 176 223 277 334 399
#     4  11  22  40  63  99 133 168 215 271 328 399
#     4  10  21  36  64  97 130 171 211 263 322 387
#
# _framework density 21.690519999999999
#
# number of rings (size 3 to 8) (size 9 to 14) (size 15 to 20)
#    0.000    1.467    1.333    3.600    5.600    3.733 
#    0.000    2.667    0.000    0.000    0.000    0.000 
#    0.000    0.000    0.000    0.000    0.000    0.000 
#
# Total GULP energy -743777.736156 kJ/mol
# GULP energy per Si atom -12396.295603 kJ/mol
# Density = 2.164115 g / cm^3
# Si number density = 21.690520 Si / 1000 Ang^3
#
#
#
# Elastic Constant Matrix: (Units=GPa)
#
#
# Indices 1 2 3 4 5 6 
#
# 1 81.6250 35.6997 5.5368 0.0000 0.0000 0.0000
# 2 35.6997 144.7123 17.2240 0.0000 0.0000 0.0000
# 3 5.5368 17.2240 41.1486 0.0000 0.0000 0.0000
# 4 0.0000 0.0000 0.0000 35.0914 0.0000 0.0000
# 5 0.0000 0.0000 0.0000 0.0000 18.0158 0.0000
# 6 0.0000 0.0000 0.0000 0.0000 0.0000 34.2286
#
#
#
# Elastic Compliance Matrix: (Units=1/GPa)
#
#
# Indices 1 2 3 4 5 6 
#
# 1 0.013741 -0.003336 -0.000453 0.000000 0.000000 0.000000
# 2 -0.003336 0.008082 -0.002934 0.000000 0.000000 0.000000
# 3 -0.000453 -0.002934 0.025591 0.000000 0.000000 0.000000
# 4 0.000000 0.000000 0.000000 0.028497 0.000000 0.000000
# 5 0.000000 0.000000 0.000000 0.000000 0.055507 0.000000
# 6 0.000000 0.000000 0.000000 0.000000 0.000000 0.029215
#
#
# Mechanical properties :
#
#
# Convention : Reuss Voigt Hill
#
# Bulk Modulus (GPa) = 29.43860 42.71190 36.07525
# Shear Modulus (GPa) = 26.96838 31.40218 29.18528
#
# Velocity S-wave (km/s) = 3.52991 3.80904 3.67213
# Velocity P-wave (km/s) = 5.49684 6.25135 5.88619
#
# Compressibility (1/GPa) = 0.03396901
#
# Stress axis : x y z
#
# Youngs Moduli (GPa) = 72.77573 123.72466 39.07580
#
# Poissons Ratio (x) = 0.41274 0.01768
# Poissons Ratio (y) = 0.24277 0.11466
# Poissons Ratio (z) = 0.03294 0.36304
#
# Static dielectric constant tensor:
#      x y z
#    x 3.998470 0.000000 0.000000 
#    y 0.000000 4.220880 0.000000 
#    z 0.000000 0.000000 3.795560 
# 
# 
# High freq. dielectric constant tensor:
#      x y z
#    x 1.851880 0.000000 0.000000 
#    y 0.000000 1.868820 0.000000 
#    z 0.000000 0.000000 1.839610 
# 
# From -- ./inp_files/41594.got.cif
#   From: 2010.03.12/outbox.cif.g09.slc.cpg/sg64_21_cif.got.tgz:41594.got - 2010.04.10 20:19:32.
