data_PCOD8263297
_publ_section_title
;
Structure prediction by ZEFSAII (Michael W. Deem and Ramdas Pophale) SiO2 
 PCOD8263297
Probable space group: C M C A
;
_chemical_formula_sum "Si O2"
_cell_formula_units_Z 96
_cell_length_a 8.605189
_cell_length_b 20.588835
_cell_length_c 28.158821
_cell_angle_alpha 90.000000
_cell_angle_beta 90.000000
_cell_angle_gamma 90.000000
_cell_volume 4988.921307
_symmetry_space_group_name_H-M "C M C A"
_symmetry_group_IT_number 64
_symmetry_cell_setting 'orthorhombic'
loop_
_space_group_symop_operation_xyz
x,y,z
-x,1/2-y,1/2+z
x,-y,-z
-x,1/2+y,1/2-z
-x,-y,-z
x,1/2+y,1/2-z
-x,y,z
x,1/2-y,1/2+z
1/2+x,1/2+y,z
1/2-x,-y,1/2+z
1/2+x,1/2-y,-z
1/2-x,y,1/2-z
1/2-x,1/2-y,-z
1/2+x,y,1/2-z
1/2-x,1/2+y,z
1/2+x,-y,1/2+z
loop_
_atom_site_type_symbol
_atom_site_label
_atom_site_fract_x
_atom_site_fract_y
_atom_site_fract_z
Si Si1 0.817003 0.371541 0.891694
Si Si2 0.684866 0.998352 0.946572
Si Si3 0.182763 0.680854 0.700155
Si Si4 0.318702 0.746893 0.051942
Si Si5 0.680627 0.876437 0.109942
Si Si6 0.183236 0.321775 0.700055
O O1 0.754955 0.433467 0.920796
O O2 0.774837 0.306862 0.919594
O O3 0.735484 0.372096 0.840327
O O4 0.000000 0.375058 0.884058
O O5 0.500000 0.999536 0.949083
O O6 0.745333 0.060413 0.917269
O O7 0.753452 0.000000 0.000000
O O8 0.250000 0.654878 0.750000
O O9 0.225611 0.630090 0.659038
O O10 0.255010 0.750427 0.686957
O O11 0.000000 0.689017 0.704897
O O12 0.500000 0.728956 0.051003
O O13 0.288764 0.815800 0.076019
O O14 0.250000 0.750000 0.000000
O O15 0.500000 0.883640 0.122662
O O16 0.250000 0.346630 0.750000
O O17 0.000000 0.318250 0.703126
#
# Coordination Sequence:
#
# PCOD8263297 Si02
#       6
#    16  16  16  16  16  16
#     4  11  21  36  59  87 117 150 194 241 292 348
#     4   9  19  37  60  84 114 157 198 237 286 346
#     4  11  21  35  58  87 118 151 190 237 293 346
#     4  11  22  35  56  83 114 149 192 244 294 344
#     4  10  20  37  59  84 115 153 196 237 286 345
#     4  11  21  36  58  86 118 152 191 236 292 348
#
# _framework density 19.242636999999998
#
# number of rings (size 3 to 8) (size 9 to 14) (size 15 to 20)
#    0.000    1.500    1.667    6.000    0.000    3.333 
#    0.000    2.500    0.000    3.500    0.000    0.000 
#    0.000    0.000    0.000    0.000    0.000    0.000 
#
# Total GULP energy -595399.644821 kJ/mol
# GULP energy per Si atom -12404.159267 kJ/mol
# Density = 1.919884 g / cm^3
# Si number density = 19.242637 Si / 1000 Ang^3
#
#
#
# Elastic Constant Matrix: (Units=GPa)
#
#
# Indices 1 2 3 4 5 6 
#
# 1 106.2458 35.4541 51.9210 0.0000 0.0000 0.0000
# 2 35.4541 94.9519 56.0594 0.0000 0.0000 0.0000
# 3 51.9210 56.0594 171.3238 0.0000 0.0000 0.0000
# 4 0.0000 0.0000 0.0000 33.8644 0.0000 0.0000
# 5 0.0000 0.0000 0.0000 0.0000 33.3120 0.0000
# 6 0.0000 0.0000 0.0000 0.0000 0.0000 17.6508
#
#
#
# Elastic Compliance Matrix: (Units=1/GPa)
#
#
# Indices 1 2 3 4 5 6 
#
# 1 0.011620 -0.002801 -0.002605 0.000000 0.000000 0.000000
# 2 -0.002801 0.013728 -0.003643 0.000000 0.000000 0.000000
# 3 -0.002605 -0.003643 0.007819 0.000000 0.000000 0.000000
# 4 0.000000 0.000000 0.000000 0.029530 0.000000 0.000000
# 5 0.000000 0.000000 0.000000 0.000000 0.030019 0.000000
# 6 0.000000 0.000000 0.000000 0.000000 0.000000 0.056655
#
#
# Mechanical properties :
#
#
# Convention : Reuss Voigt Hill
#
# Bulk Modulus (GPa) = 66.36333 73.26559 69.81446
# Shear Modulus (GPa) = 28.98700 32.23792 30.61246
#
# Velocity S-wave (km/s) = 3.88544 4.09753 3.99289
# Velocity P-wave (km/s) = 7.39536 7.78098 7.59062
#
# Compressibility (1/GPa) = 0.01506856
#
# Stress axis : x y z
#
# Youngs Moduli (GPa) = 86.06022 72.84163 127.90136
#
# Poissons Ratio (x) = 0.20401 0.33319
# Poissons Ratio (y) = 0.24103 0.46599
# Poissons Ratio (z) = 0.22419 0.26539
#
# Static dielectric constant tensor:
#      x y z
#    x 3.427530 0.000000 0.000000 
#    y 0.000000 3.489270 0.000000 
#    z 0.000000 0.000000 3.773190 
# 
# 
# High freq. dielectric constant tensor:
#      x y z
#    x 1.742740 0.000000 0.000000 
#    y 0.000000 1.730920 0.000000 
#    z 0.000000 0.000000 1.770200 
# 
# From -- ./inp_files/48124.got.cif
#   From: 2010.03.12/outbox.cif.g09.slc.cpg/sg64_25_cif.got.tgz:48124.got - 2010.04.10 20:19:32.
