data_PCOD8263950
_publ_section_title
;
Structure prediction by ZEFSAII (Michael W. Deem and Ramdas Pophale) SiO2 
 PCOD8263950
Probable space group: C M C A
;
_chemical_formula_sum "Si O2"
_cell_formula_units_Z 96
_cell_length_a 8.839577
_cell_length_b 19.525102
_cell_length_c 27.544369
_cell_angle_alpha 90.000000
_cell_angle_beta 90.000000
_cell_angle_gamma 90.000000
_cell_volume 4753.982978
_symmetry_space_group_name_H-M "C M C A"
_symmetry_group_IT_number 64
_symmetry_cell_setting 'orthorhombic'
loop_
_space_group_symop_operation_xyz
x,y,z
-x,1/2-y,1/2+z
x,-y,-z
-x,1/2+y,1/2-z
-x,-y,-z
x,1/2+y,1/2-z
-x,y,z
x,1/2-y,1/2+z
1/2+x,1/2+y,z
1/2-x,-y,1/2+z
1/2+x,1/2-y,-z
1/2-x,y,1/2-z
1/2-x,1/2-y,-z
1/2+x,y,1/2-z
1/2-x,1/2+y,z
1/2+x,-y,1/2+z
loop_
_atom_site_type_symbol
_atom_site_label
_atom_site_fract_x
_atom_site_fract_y
_atom_site_fract_z
Si Si1 0.177257 0.106337 0.799320
Si Si2 0.672102 0.777573 0.147194
Si Si3 0.177272 0.635844 0.302461
Si Si4 0.673509 0.701378 0.538543
Si Si5 0.819919 0.546634 0.955900
Si Si6 0.679750 0.986386 0.853664
O O1 0.250000 0.134802 0.750000
O O2 0.212321 0.162091 0.840325
O O3 0.000000 0.095177 0.793726
O O4 0.256361 0.034913 0.811660
O O5 0.500000 0.802927 0.156426
O O6 0.710246 0.712380 0.179800
O O7 0.694710 0.761882 0.090445
O O8 0.250000 0.623946 0.250000
O O9 0.253781 0.588358 0.343154
O O10 0.000000 0.619992 0.299287
O O11 0.500000 0.695360 0.523617
O O12 0.750000 0.750000 0.500000
O O13 0.743228 0.624234 0.538823
O O14 0.761406 0.512973 0.905842
O O15 0.000000 0.548263 0.955104
O O16 0.758631 0.500000 0.000000
O O17 0.500000 0.984256 0.851181
#
# Coordination Sequence:
#
# PCOD8263950 Si02
#       6
#    16  16  16  16  16  16
#     4  12  24  39  63  91 121 156 203 252 306 368
#     4  10  22  42  63  87 125 165 203 254 308 361
#     4  11  24  41  61  88 123 160 205 252 304 361
#     4  10  21  39  62  90 125 159 199 249 305 363
#     4   9  19  37  62  90 120 157 200 248 300 360
#     4  11  22  40  64  88 123 162 203 249 304 362
#
# _framework density 20.193594000000001
#
# number of rings (size 3 to 8) (size 9 to 14) (size 15 to 20)
#    0.000    1.500    1.667    3.500    2.333    3.333 
#    0.000    0.000    0.000    2.500    0.000    0.000 
#    0.000    0.000    0.000    0.000    0.000    0.000 
#
# Total GULP energy -595370.720266 kJ/mol
# GULP energy per Si atom -12403.556672 kJ/mol
# Density = 2.014763 g / cm^3
# Si number density = 20.193594 Si / 1000 Ang^3
#
#
#
# Elastic Constant Matrix: (Units=GPa)
#
#
# Indices 1 2 3 4 5 6 
#
# 1 85.7168 37.7272 31.1524 0.0000 0.0000 0.0000
# 2 37.7272 92.7766 40.8300 0.0000 0.0000 0.0000
# 3 31.1524 40.8300 105.5137 0.0000 0.0000 0.0000
# 4 0.0000 0.0000 0.0000 47.7735 0.0000 0.0000
# 5 0.0000 0.0000 0.0000 0.0000 27.5806 0.0000
# 6 0.0000 0.0000 0.0000 0.0000 0.0000 29.5166
#
#
#
# Elastic Compliance Matrix: (Units=1/GPa)
#
#
# Indices 1 2 3 4 5 6 
#
# 1 0.014715 -0.004908 -0.002446 0.000000 0.000000 0.000000
# 2 -0.004908 0.014628 -0.004211 0.000000 0.000000 0.000000
# 3 -0.002446 -0.004211 0.011829 0.000000 0.000000 0.000000
# 4 0.000000 0.000000 0.000000 0.020932 0.000000 0.000000
# 5 0.000000 0.000000 0.000000 0.000000 0.036257 0.000000
# 6 0.000000 0.000000 0.000000 0.000000 0.000000 0.033879
#
#
# Mechanical properties :
#
#
# Convention : Reuss Voigt Hill
#
# Bulk Modulus (GPa) = 55.42365 55.93625 55.67995
# Shear Modulus (GPa) = 30.98202 32.59397 31.78799
#
# Velocity S-wave (km/s) = 3.92120 4.02191 3.97188
# Velocity P-wave (km/s) = 6.92869 7.02338 6.97620
#
# Compressibility (1/GPa) = 0.01804284
#
# Stress axis : x y z
#
# Youngs Moduli (GPa) = 67.95734 68.36371 84.53700
#
# Poissons Ratio (x) = 0.33550 0.20674
# Poissons Ratio (y) = 0.33351 0.35602
# Poissons Ratio (z) = 0.16619 0.28791
#
# Static dielectric constant tensor:
#      x y z
#    x 3.470810 0.000000 0.000000 
#    y 0.000000 3.838820 0.000000 
#    z 0.000000 0.000000 3.795260 
# 
# 
# High freq. dielectric constant tensor:
#      x y z
#    x 1.770080 0.000000 0.000000 
#    y 0.000000 1.797710 0.000000 
#    z 0.000000 0.000000 1.799930 
# 
# From -- ./inp_files/48152.got.cif
#   From: 2010.03.12/outbox.cif.g09.slc.cpg/sg64_25_cif.got.tgz:48152.got - 2010.04.10 20:19:32.
