data_PCOD8263955
_publ_section_title
;
Structure prediction by ZEFSAII (Michael W. Deem and Ramdas Pophale) SiO2 
 PCOD8263955
Probable space group: C M C A
;
_chemical_formula_sum "Si O2"
_cell_formula_units_Z 72
_cell_length_a 7.678972
_cell_length_b 18.327915
_cell_length_c 26.831680
_cell_angle_alpha 90.000000
_cell_angle_beta 90.000000
_cell_angle_gamma 90.000000
_cell_volume 3776.278464
_symmetry_space_group_name_H-M "C M C A"
_symmetry_group_IT_number 64
_symmetry_cell_setting 'orthorhombic'
loop_
_space_group_symop_operation_xyz
x,y,z
-x,1/2-y,1/2+z
x,-y,-z
-x,1/2+y,1/2-z
-x,-y,-z
x,1/2+y,1/2-z
-x,y,z
x,1/2-y,1/2+z
1/2+x,1/2+y,z
1/2-x,-y,1/2+z
1/2+x,1/2-y,-z
1/2-x,y,1/2-z
1/2-x,1/2-y,-z
1/2+x,y,1/2-z
1/2-x,1/2+y,z
1/2+x,-y,1/2+z
loop_
_atom_site_type_symbol
_atom_site_label
_atom_site_fract_x
_atom_site_fract_y
_atom_site_fract_z
Si Si1 0.309087 0.253276 0.094535
Si Si2 0.798374 0.302631 0.197169
Si Si3 0.500000 0.487754 0.377354
Si Si4 0.500000 0.625355 0.444202
Si Si5 0.804824 0.465235 0.304954
Si Si6 0.000000 0.346938 0.056985
O O1 0.500000 0.291896 0.090201
O O2 0.251855 0.248477 0.152403
O O3 0.327799 0.170428 0.073765
O O4 0.171256 0.297256 0.061714
O O5 0.750000 0.264646 0.250000
O O6 0.693327 0.377664 0.191971
O O7 0.000000 0.322803 0.194784
O O8 0.500000 0.545121 0.421876
O O9 0.672587 0.499889 0.344624
O O10 0.500000 0.406533 0.399629
O O11 0.500000 0.615363 0.503462
O O12 0.750000 0.491392 0.250000
O O13 0.000000 0.493017 0.316877
#
# Coordination Sequence:
#
# PCOD8263955 Si02
#       6
#    16  16   8   8  16   8
#     4  10  21  39  63  90 119 158 201 255 299 368
#     4  11  18  32  59  95 124 152 203 259 295 354
#     4  12  23  42  59  96 125 161 199 255 304 364
#     4  10  27  42  60  87 134 153 201 265 312 354
#     4  11  19  34  61  91 123 160 202 247 292 362
#     4  12  21  44  69  87 111 170 215 252 302 357
#
# _framework density 19.066389999999998
#
# number of rings (size 3 to 8) (size 9 to 14) (size 15 to 20)
#    0.667    0.444    5.556    4.333    0.000    0.000 
#    2.000    1.111    0.000    2.667    0.000    0.000 
#    0.000    0.000    0.000    0.000    0.000    0.000 
#
# Total GULP energy -446327.070886 kJ/mol
# GULP energy per Si atom -12397.974191 kJ/mol
# Density = 1.902299 g / cm^3
# Si number density = 19.066390 Si / 1000 Ang^3
#
#
#
# Elastic Constant Matrix: (Units=GPa)
#
#
# Indices 1 2 3 4 5 6 
#
# 1 148.0328 17.3806 32.3946 0.0000 0.0000 0.0000
# 2 17.3806 41.1265 7.9196 0.0000 0.0000 0.0000
# 3 32.3946 7.9196 113.7908 0.0000 0.0000 0.0000
# 4 0.0000 0.0000 0.0000 23.0773 0.0000 0.0000
# 5 0.0000 0.0000 0.0000 0.0000 27.9285 0.0000
# 6 0.0000 0.0000 0.0000 0.0000 0.0000 13.4896
#
#
#
# Elastic Compliance Matrix: (Units=1/GPa)
#
#
# Indices 1 2 3 4 5 6 
#
# 1 0.007509 -0.002799 -0.001943 0.000000 0.000000 0.000000
# 2 -0.002799 0.025689 -0.000991 0.000000 0.000000 0.000000
# 3 -0.001943 -0.000991 0.009410 0.000000 0.000000 0.000000
# 4 0.000000 0.000000 0.000000 0.043333 0.000000 0.000000
# 5 0.000000 0.000000 0.000000 0.000000 0.035806 0.000000
# 6 0.000000 0.000000 0.000000 0.000000 0.000000 0.074131
#
#
# Mechanical properties :
#
#
# Convention : Reuss Voigt Hill
#
# Bulk Modulus (GPa) = 32.11102 46.48217 39.29660
# Shear Modulus (GPa) = 22.96477 29.24943 26.10710
#
# Velocity S-wave (km/s) = 3.47430 3.92099 3.70438
# Velocity P-wave (km/s) = 5.74218 6.70305 6.24113
#
# Compressibility (1/GPa) = 0.03114195
#
# Stress axis : x y z
#
# Youngs Moduli (GPa) = 133.17173 38.92702 106.26827
#
# Poissons Ratio (x) = 0.10897 0.20647
# Poissons Ratio (y) = 0.37279 0.10531
# Poissons Ratio (z) = 0.25874 0.03858
#
# Static dielectric constant tensor:
#      x y z
#    x 3.586180 0.000000 0.000000 
#    y 0.000000 2.930900 0.000000 
#    z 0.000000 0.000000 3.629140 
# 
# 
# High freq. dielectric constant tensor:
#      x y z
#    x 1.751460 0.000000 0.000000 
#    y 0.000000 1.685950 0.000000 
#    z 0.000000 0.000000 1.755930 
# 
# From -- ./inp_files/47761.got.cif
#   From: 2010.03.12/outbox.cif.g09.slc.cpg/sg64_24_cif.got.tgz:47761.got - 2010.04.10 20:19:32.
