data_PCOD8263236
_publ_section_title
;
Structure prediction by ZEFSAII (Michael W. Deem and Ramdas Pophale) SiO2 
 PCOD8263236
Probable space group: C M C A
;
_chemical_formula_sum "Si O2"
_cell_formula_units_Z 80
_cell_length_a 17.904037
_cell_length_b 7.628255
_cell_length_c 28.617234
_cell_angle_alpha 90.000000
_cell_angle_beta 90.000000
_cell_angle_gamma 90.000000
_cell_volume 3908.443370
_symmetry_space_group_name_H-M "C M C A"
_symmetry_group_IT_number 64
_symmetry_cell_setting 'orthorhombic'
loop_
_space_group_symop_operation_xyz
x,y,z
-x,1/2-y,1/2+z
x,-y,-z
-x,1/2+y,1/2-z
-x,-y,-z
x,1/2+y,1/2-z
-x,y,z
x,1/2-y,1/2+z
1/2+x,1/2+y,z
1/2-x,-y,1/2+z
1/2+x,1/2-y,-z
1/2-x,y,1/2-z
1/2-x,1/2-y,-z
1/2+x,y,1/2-z
1/2-x,1/2+y,z
1/2+x,-y,1/2+z
loop_
_atom_site_type_symbol
_atom_site_label
_atom_site_fract_x
_atom_site_fract_y
_atom_site_fract_z
Si Si1 0.160751 0.779526 0.390200
Si Si2 0.415007 0.314565 0.799385
Si Si3 0.912919 0.476155 0.446474
Si Si4 0.669064 0.671929 0.393097
Si Si5 0.085196 0.776035 0.196747
O O1 0.134802 0.790064 0.336363
O O2 0.106497 0.653178 0.419069
O O3 0.243429 0.704918 0.392140
O O4 0.156122 0.974483 0.411820
O O5 0.500000 0.245485 0.802391
O O6 0.383755 0.276030 0.747680
O O7 0.409980 0.517905 0.811593
O O8 0.889771 0.500000 0.500000
O O9 0.870092 0.306956 0.427683
O O10 0.000000 0.438733 0.440076
O O11 0.637022 0.683566 0.340986
O O12 0.000000 0.709420 0.191005
#
# Coordination Sequence:
#
# PCOD8263236 Si02
#       5
#    16  16  16  16  16
#     4  12  24  43  67  98 135 175 219 271 336 392
#     4  10  20  36  60  93 133 177 222 267 320 388
#     4  11  26  48  72  99 131 171 221 276 333 398
#     4  12  24  43  67  98 135 175 219 271 336 392
#     4  10  20  36  60  93 133 177 222 267 320 388
#
# _framework density 20.468506000000001
#
# number of rings (size 3 to 8) (size 9 to 14) (size 15 to 20)
#    0.000    1.000    4.000    2.400    0.000    7.200 
#    0.000    6.000    0.000    0.000    0.000    0.000 
#    0.000    0.000    0.000    0.000    0.000    0.000 
#
# Total GULP energy -496223.142697 kJ/mol
# GULP energy per Si atom -12405.578567 kJ/mol
# Density = 2.042192 g / cm^3
# Si number density = 20.468506 Si / 1000 Ang^3
#
#
#
# Elastic Constant Matrix: (Units=GPa)
#
#
# Indices 1 2 3 4 5 6 
#
# 1 43.1266 -1.9081 19.9049 0.0000 0.0000 0.0000
# 2 -1.9081 104.0465 11.1118 0.0000 0.0000 0.0000
# 3 19.9049 11.1118 102.9879 0.0000 0.0000 0.0000
# 4 0.0000 0.0000 0.0000 26.8375 0.0000 0.0000
# 5 0.0000 0.0000 0.0000 0.0000 1.1344 0.0000
# 6 0.0000 0.0000 0.0000 0.0000 0.0000 29.5837
#
#
#
# Elastic Compliance Matrix: (Units=1/GPa)
#
#
# Indices 1 2 3 4 5 6 
#
# 1 0.025563 0.001008 -0.005049 0.000000 0.000000 0.000000
# 2 0.001008 0.009763 -0.001248 0.000000 0.000000 0.000000
# 3 -0.005049 -0.001248 0.010820 0.000000 0.000000 0.000000
# 4 0.000000 0.000000 0.000000 0.037261 0.000000 0.000000
# 5 0.000000 0.000000 0.000000 0.000000 0.881487 0.000000
# 6 0.000000 0.000000 0.000000 0.000000 0.000000 0.033802
#
#
# Mechanical properties :
#
#
# Convention : Reuss Voigt Hill
#
# Bulk Modulus (GPa) = 28.11595 34.26423 31.19009
# Shear Modulus (GPa) = 4.89653 26.24796 15.57224
#
# Velocity S-wave (km/s) = 1.54836 3.58489 2.76124
# Velocity P-wave (km/s) = 4.11857 5.82336 5.04352
#
# Compressibility (1/GPa) = 0.03556700
#
# Stress axis : x y z
#
# Youngs Moduli (GPa) = 39.11955 102.42881 92.41746
#
# Poissons Ratio (x) = -0.10325 0.46665
# Poissons Ratio (y) = -0.03943 0.11535
# Poissons Ratio (z) = 0.19753 0.12785
#
# Static dielectric constant tensor:
#      x y z
#    x 3.711820 0.000000 0.000000 
#    y 0.000000 3.830340 0.000000 
#    z 0.000000 0.000000 3.763040 
# 
# 
# High freq. dielectric constant tensor:
#      x y z
#    x 1.798960 0.000000 0.000000 
#    y 0.000000 1.814710 0.000000 
#    z 0.000000 0.000000 1.799390 
# 
# From -- ./inp_files/35376.got.cif
#   From: 2010.03.12/outbox.cif.g09.slc.cpg/sg64_18_cif.got.tgz:35376.got - 2010.04.10 20:19:32.
