data_PCOD8263515
_publ_section_title
;
Structure prediction by ZEFSAII (Michael W. Deem and Ramdas Pophale) SiO2 
 PCOD8263515
Probable space group: C M C A
;
_chemical_formula_sum "Si O2"
_cell_formula_units_Z 112
_cell_length_a 14.185020
_cell_length_b 14.479662
_cell_length_c 25.118557
_cell_angle_alpha 90.000000
_cell_angle_beta 90.000000
_cell_angle_gamma 90.000000
_cell_volume 5159.208308
_symmetry_space_group_name_H-M "C M C A"
_symmetry_group_IT_number 64
_symmetry_cell_setting 'orthorhombic'
loop_
_space_group_symop_operation_xyz
x,y,z
-x,1/2-y,1/2+z
x,-y,-z
-x,1/2+y,1/2-z
-x,-y,-z
x,1/2+y,1/2-z
-x,y,z
x,1/2-y,1/2+z
1/2+x,1/2+y,z
1/2-x,-y,1/2+z
1/2+x,1/2-y,-z
1/2-x,y,1/2-z
1/2-x,1/2-y,-z
1/2+x,y,1/2-z
1/2-x,1/2+y,z
1/2+x,-y,1/2+z
loop_
_atom_site_type_symbol
_atom_site_label
_atom_site_fract_x
_atom_site_fract_y
_atom_site_fract_z
Si Si1 0.394236 0.879201 0.101660
Si Si2 0.394419 0.560934 0.849458
Si Si3 0.105934 0.087269 0.973136
Si Si4 0.761198 0.399555 0.688787
Si Si5 0.613085 0.288136 0.505614
Si Si6 0.742680 0.186388 0.810798
Si Si7 0.393927 0.088223 0.102254
O O1 0.500000 0.845526 0.115154
O O2 0.333328 0.871504 0.155453
O O3 0.394230 0.983870 0.081351
O O4 0.350460 0.822349 0.052057
O O5 0.500000 0.557669 0.825430
O O6 0.396961 0.565278 0.911943
O O7 0.341022 0.466725 0.834047
O O8 0.345656 0.657154 0.832022
O O9 0.155531 0.184999 0.986526
O O10 0.000000 0.094145 0.996643
O O11 0.159495 0.000000 0.000000
O O12 0.750000 0.427981 0.750000
O O13 0.789243 0.292212 0.683846
O O14 0.664059 0.407732 0.656888
O O15 0.500000 0.292067 0.507058
O O16 0.650759 0.349769 0.554978
O O17 0.750000 0.153903 0.750000
O O18 0.500000 0.121356 0.116009
#
# Coordination Sequence:
#
# PCOD8263515 Si02
#       7
#    16  16  16  16  16  16  16
#     4  10  21  38  66  97 128 168 213 268 335 398
#     4  11  24  44  68  94 130 176 221 267 329 395
#     4   9  19  36  58  87 126 169 209 257 313 381
#     4  11  25  44  65  95 133 171 222 281 329 391
#     4   9  18  35  62  96 130 164 213 271 330 397
#     4  11  25  45  65  94 132 168 221 279 328 391
#     4  10  20  39  67  95 128 167 212 268 334 396
#
# _framework density 21.708756000000001
#
# number of rings (size 3 to 8) (size 9 to 14) (size 15 to 20)
#    0.000    1.857    1.429    1.714    2.000    5.143 
#    2.571    4.286    0.000    0.000    0.000    0.000 
#    0.000    0.000    0.000    0.000    0.000    0.000 
#
# Total GULP energy -694154.964560 kJ/mol
# GULP energy per Si atom -12395.624367 kJ/mol
# Density = 2.165935 g / cm^3
# Si number density = 21.708756 Si / 1000 Ang^3
#
#
#
# Elastic Constant Matrix: (Units=GPa)
#
#
# Indices 1 2 3 4 5 6 
#
# 1 86.8778 27.1595 53.0183 0.0000 0.0000 0.0000
# 2 27.1595 135.6800 52.1722 0.0000 0.0000 0.0000
# 3 53.0183 52.1722 144.7209 0.0000 0.0000 0.0000
# 4 0.0000 0.0000 0.0000 34.8243 0.0000 0.0000
# 5 0.0000 0.0000 0.0000 0.0000 26.1917 0.0000
# 6 0.0000 0.0000 0.0000 0.0000 0.0000 31.5456
#
#
#
# Elastic Compliance Matrix: (Units=1/GPa)
#
#
# Indices 1 2 3 4 5 6 
#
# 1 0.014948 -0.001029 -0.005105 0.000000 0.000000 0.000000
# 2 -0.001029 0.008627 -0.002733 0.000000 0.000000 0.000000
# 3 -0.005105 -0.002733 0.009765 0.000000 0.000000 0.000000
# 4 0.000000 0.000000 0.000000 0.028716 0.000000 0.000000
# 5 0.000000 0.000000 0.000000 0.000000 0.038180 0.000000
# 6 0.000000 0.000000 0.000000 0.000000 0.000000 0.031700
#
#
# Mechanical properties :
#
#
# Convention : Reuss Voigt Hill
#
# Bulk Modulus (GPa) = 64.07934 70.21985 67.14960
# Shear Modulus (GPa) = 32.28468 34.17424 33.22946
#
# Velocity S-wave (km/s) = 3.86057 3.97194 3.91665
# Velocity P-wave (km/s) = 7.03234 7.31106 7.17306
#
# Compressibility (1/GPa) = 0.01560565
#
# Stress axis : x y z
#
# Youngs Moduli (GPa) = 66.90071 115.91200 102.40276
#
# Poissons Ratio (x) = 0.11928 0.52277
# Poissons Ratio (y) = 0.06885 0.27988
# Poissons Ratio (z) = 0.34153 0.31680
#
# Static dielectric constant tensor:
#      x y z
#    x 3.996690 0.000000 0.000000 
#    y 0.000000 4.188850 0.000000 
#    z 0.000000 0.000000 3.860550 
# 
# 
# High freq. dielectric constant tensor:
#      x y z
#    x 1.838560 0.000000 0.000000 
#    y 0.000000 1.869130 0.000000 
#    z 0.000000 0.000000 1.855320 
# 
# From -- ./inp_files/45244.got.cif
#   From: 2010.03.12/outbox.cif.g09.slc.cpg/sg64_23_cif.got.tgz:45244.got - 2010.04.10 20:19:32.
