data_PCOD8263675
_publ_section_title
;
Structure prediction by ZEFSAII (Michael W. Deem and Ramdas Pophale) SiO2 
 PCOD8263675
Probable space group: C M C A
;
_chemical_formula_sum "Si O2"
_cell_formula_units_Z 88
_cell_length_a 24.240813
_cell_length_b 4.966405
_cell_length_c 32.718053
_cell_angle_alpha 90.000000
_cell_angle_beta 90.000000
_cell_angle_gamma 90.000000
_cell_volume 3938.916418
_symmetry_space_group_name_H-M "C M C A"
_symmetry_group_IT_number 64
_symmetry_cell_setting 'orthorhombic'
loop_
_space_group_symop_operation_xyz
x,y,z
-x,1/2-y,1/2+z
x,-y,-z
-x,1/2+y,1/2-z
-x,-y,-z
x,1/2+y,1/2-z
-x,y,z
x,1/2-y,1/2+z
1/2+x,1/2+y,z
1/2-x,-y,1/2+z
1/2+x,1/2-y,-z
1/2-x,y,1/2-z
1/2-x,1/2-y,-z
1/2+x,y,1/2-z
1/2-x,1/2+y,z
1/2+x,-y,1/2+z
loop_
_atom_site_type_symbol
_atom_site_label
_atom_site_fract_x
_atom_site_fract_y
_atom_site_fract_z
Si Si1 0.095887 0.132152 0.338646
Si Si2 0.500000 0.339315 0.722926
Si Si3 0.785205 0.485213 0.160696
Si Si4 0.892592 0.764366 0.473867
Si Si5 0.784081 0.008423 0.565035
Si Si6 0.937768 0.615182 0.387665
O O1 0.055336 0.221822 0.302504
O O2 0.155696 0.056899 0.319228
O O3 0.102544 0.381133 0.370587
O O4 0.069593 0.882307 0.361717
O O5 0.500000 0.646864 0.737742
O O6 0.761648 0.197363 0.174271
O O7 0.798410 0.473661 0.112687
O O8 0.880669 0.500000 0.500000
O O9 0.836327 0.907895 0.460693
O O10 0.927832 0.675840 0.435043
O O11 0.923886 0.000000 0.500000
O O12 0.733050 0.204895 0.553963
O O13 0.000000 0.509280 0.382685
#
# Coordination Sequence:
#
# PCOD8263675 Si02
#       6
#    16   8  16  16  16  16
#     4  12  23  44  73 101 136 178 216 272 328 398
#     4  12  26  46  74 114 144 166 208 264 336 396
#     4  10  21  37  65  99 130 170 228 278 319 384
#     4  12  26  39  57  85 126 176 225 286 342 392
#     4  10  21  36  57  84 120 165 219 283 334 386
#     4  12  24  43  67  94 124 175 235 273 334 403
#
# _framework density 22.341168
#
# number of rings (size 3 to 8) (size 9 to 14) (size 15 to 20)
#    0.000    0.727    3.636    4.364    5.091    2.909 
#    0.000    0.000    0.000    3.273    0.000    0.000 
#    0.000    0.000    0.000    0.000    0.000    0.000 
#
# Total GULP energy -545758.333460 kJ/mol
# GULP energy per Si atom -12403.598488 kJ/mol
# Density = 2.229032 g / cm^3
# Si number density = 22.341168 Si / 1000 Ang^3
#
#
#
# Elastic Constant Matrix: (Units=GPa)
#
#
# Indices 1 2 3 4 5 6 
#
# 1 97.4077 14.1947 36.6025 0.0000 0.0000 0.0000
# 2 14.1947 116.3734 24.7290 0.0000 0.0000 0.0000
# 3 36.6025 24.7290 51.9756 0.0000 0.0000 0.0000
# 4 0.0000 0.0000 0.0000 36.6506 0.0000 0.0000
# 5 0.0000 0.0000 0.0000 0.0000 10.4334 0.0000
# 6 0.0000 0.0000 0.0000 0.0000 0.0000 6.6541
#
#
#
# Elastic Compliance Matrix: (Units=1/GPa)
#
#
# Indices 1 2 3 4 5 6 
#
# 1 0.013980 0.000430 -0.010050 0.000000 0.000000 0.000000
# 2 0.000430 0.009573 -0.004858 0.000000 0.000000 0.000000
# 3 -0.010050 -0.004858 0.028628 0.000000 0.000000 0.000000
# 4 0.000000 0.000000 0.000000 0.027285 0.000000 0.000000
# 5 0.000000 0.000000 0.000000 0.000000 0.095846 0.000000
# 6 0.000000 0.000000 0.000000 0.000000 0.000000 0.150284
#
#
# Mechanical properties :
#
#
# Convention : Reuss Voigt Hill
#
# Bulk Modulus (GPa) = 43.05356 46.31211 44.68284
# Shear Modulus (GPa) = 13.80108 23.42966 18.61537
#
# Velocity S-wave (km/s) = 2.48814 3.24191 2.88971
# Velocity P-wave (km/s) = 5.25045 5.89812 5.58368
#
# Compressibility (1/GPa) = 0.02322688
#
# Stress axis : x y z
#
# Youngs Moduli (GPa) = 71.53228 104.46300 34.93071
#
# Poissons Ratio (x) = -0.04495 0.35104
# Poissons Ratio (y) = -0.03078 0.16968
# Poissons Ratio (z) = 0.71887 0.50744
#
# Static dielectric constant tensor:
#      x y z
#    x 3.976530 0.000000 0.000000 
#    y 0.000000 4.332760 0.000000 
#    z 0.000000 0.000000 3.859560 
# 
# 
# High freq. dielectric constant tensor:
#      x y z
#    x 1.878490 0.000000 0.000000 
#    y 0.000000 1.902270 0.000000 
#    z 0.000000 0.000000 1.851170 
# 
# From -- ./inp_files/53868.got.cif
#   From: 2010.03.12/outbox.cif.g09.slc.cpg/sg64_27_cif.got.tgz:53868.got - 2010.04.10 20:19:32.
