data_PCOD8263904
_publ_section_title
;
Structure prediction by ZEFSAII (Michael W. Deem and Ramdas Pophale) SiO2 
 PCOD8263904
Probable space group: C M C A
;
_chemical_formula_sum "Si O2"
_cell_formula_units_Z 104
_cell_length_a 19.300263
_cell_length_b 8.722750
_cell_length_c 29.657545
_cell_angle_alpha 90.000000
_cell_angle_beta 90.000000
_cell_angle_gamma 90.000000
_cell_volume 4992.888304
_symmetry_space_group_name_H-M "C M C A"
_symmetry_group_IT_number 64
_symmetry_cell_setting 'orthorhombic'
loop_
_space_group_symop_operation_xyz
x,y,z
-x,1/2-y,1/2+z
x,-y,-z
-x,1/2+y,1/2-z
-x,-y,-z
x,1/2+y,1/2-z
-x,y,z
x,1/2-y,1/2+z
1/2+x,1/2+y,z
1/2-x,-y,1/2+z
1/2+x,1/2-y,-z
1/2-x,y,1/2-z
1/2-x,1/2-y,-z
1/2+x,y,1/2-z
1/2-x,1/2+y,z
1/2+x,-y,1/2+z
loop_
_atom_site_type_symbol
_atom_site_label
_atom_site_fract_x
_atom_site_fract_y
_atom_site_fract_z
Si Si1 0.304649 0.672526 0.916255
Si Si2 0.078871 0.256911 0.562149
Si Si3 0.078396 0.001954 0.866988
Si Si4 0.150507 0.000000 0.000000
Si Si5 0.083280 0.544139 0.189542
Si Si6 0.419683 0.130324 0.724515
Si Si7 0.169649 0.485178 0.100125
O O1 0.374742 0.628267 0.890997
O O2 0.237575 0.616159 0.888270
O O3 0.304011 0.855426 0.920958
O O4 0.301086 0.592524 0.965305
O O5 0.088789 0.333707 0.611857
O O6 0.101423 0.377363 0.524419
O O7 0.125073 0.103738 0.561965
O O8 0.000000 0.209907 0.552971
O O9 0.094356 0.998917 0.813451
O O10 0.000000 0.059726 0.875350
O O11 0.110561 0.709160 0.206868
O O12 0.110053 0.424214 0.227479
O O13 0.122480 0.505309 0.143873
O O14 0.000000 0.540044 0.181752
O O15 0.500000 0.155227 0.732562
#
# Coordination Sequence:
#
# PCOD8263904 Si02
#       7
#    16  16  16   8  16  16  16
#     4  11  24  42  66  91 124 168 214 263 327 386
#     4  10  22  39  65  98 128 163 206 265 325 380
#     4   9  18  37  64  91 124 163 208 261 320 374
#     4  10  23  46  70  94 121 158 214 270 325 394
#     4  10  21  38  64  98 129 166 214 261 311 372
#     4   9  18  34  61  94 125 162 207 257 306 365
#     4  12  25  42  63  90 131 172 213 262 317 389
#
# _framework density 20.829626999999999
#
# number of rings (size 3 to 8) (size 9 to 14) (size 15 to 20)
#    0.000    1.846    1.538    2.538    2.154    4.308 
#    0.000    1.538    0.000    0.000    0.000    0.000 
#    0.000    0.000    0.000    0.000    0.000    0.000 
#
# Total GULP energy -644686.925136 kJ/mol
# GULP energy per Si atom -12397.825483 kJ/mol
# Density = 2.078222 g / cm^3
# Si number density = 20.829627 Si / 1000 Ang^3
#
#
#
# Elastic Constant Matrix: (Units=GPa)
#
#
# Indices 1 2 3 4 5 6 
#
# 1 95.9942 52.6080 37.3419 0.0000 0.0000 0.0000
# 2 52.6080 124.4002 43.9569 0.0000 0.0000 0.0000
# 3 37.3419 43.9569 105.2563 0.0000 0.0000 0.0000
# 4 0.0000 0.0000 0.0000 31.1499 0.0000 0.0000
# 5 0.0000 0.0000 0.0000 0.0000 20.4297 0.0000
# 6 0.0000 0.0000 0.0000 0.0000 0.0000 32.3513
#
#
#
# Elastic Compliance Matrix: (Units=1/GPa)
#
#
# Indices 1 2 3 4 5 6 
#
# 1 0.014321 -0.004999 -0.002993 0.000000 0.000000 0.000000
# 2 -0.004999 0.011175 -0.002893 0.000000 0.000000 0.000000
# 3 -0.002993 -0.002893 0.011771 0.000000 0.000000 0.000000
# 4 0.000000 0.000000 0.000000 0.032103 0.000000 0.000000
# 5 0.000000 0.000000 0.000000 0.000000 0.048948 0.000000
# 6 0.000000 0.000000 0.000000 0.000000 0.000000 0.030911
#
#
# Mechanical properties :
#
#
# Convention : Reuss Voigt Hill
#
# Bulk Modulus (GPa) = 64.53170 65.94048 65.23609
# Shear Modulus (GPa) = 28.38254 29.56910 28.97582
#
# Velocity S-wave (km/s) = 3.69535 3.77180 3.73377
# Velocity P-wave (km/s) = 7.01822 7.12000 7.06930
#
# Compressibility (1/GPa) = 0.01549626
#
# Stress axis : x y z
#
# Youngs Moduli (GPa) = 69.82715 89.48649 84.95551
#
# Poissons Ratio (x) = 0.44731 0.25429
# Poissons Ratio (y) = 0.34904 0.24581
# Poissons Ratio (z) = 0.20901 0.25892
#
# Static dielectric constant tensor:
#      x y z
#    x 3.597880 0.000000 0.000000 
#    y 0.000000 3.970270 0.000000 
#    z 0.000000 0.000000 3.859320 
# 
# 
# High freq. dielectric constant tensor:
#      x y z
#    x 1.798090 0.000000 0.000000 
#    y 0.000000 1.821490 0.000000 
#    z 0.000000 0.000000 1.812230 
# 
# From -- ./inp_files/50739.got.cif
#   From: 2010.03.12/outbox.cif.g09.slc.cpg/sg64_26_cif.got.tgz:50739.got - 2010.04.10 20:19:32.
