data_PCOD8263615
_publ_section_title
;
Structure prediction by ZEFSAII (Michael W. Deem and Ramdas Pophale) SiO2 
 PCOD8263615
Probable space group: C M C A
;
_chemical_formula_sum "Si O2"
_cell_formula_units_Z 88
_cell_length_a 15.906623
_cell_length_b 24.536071
_cell_length_c 10.535135
_cell_angle_alpha 90.000000
_cell_angle_beta 90.000000
_cell_angle_gamma 90.000000
_cell_volume 4111.716028
_symmetry_space_group_name_H-M "C M C A"
_symmetry_group_IT_number 64
_symmetry_cell_setting 'orthorhombic'
loop_
_space_group_symop_operation_xyz
x,y,z
-x,1/2-y,1/2+z
x,-y,-z
-x,1/2+y,1/2-z
-x,-y,-z
x,1/2+y,1/2-z
-x,y,z
x,1/2-y,1/2+z
1/2+x,1/2+y,z
1/2-x,-y,1/2+z
1/2+x,1/2-y,-z
1/2-x,y,1/2-z
1/2-x,1/2-y,-z
1/2+x,y,1/2-z
1/2-x,1/2+y,z
1/2+x,-y,1/2+z
loop_
_atom_site_type_symbol
_atom_site_label
_atom_site_fract_x
_atom_site_fract_y
_atom_site_fract_z
Si Si1 0.904737 0.971775 0.264107
Si Si2 0.595308 0.838348 0.968547
Si Si3 0.343164 0.000000 0.500000
Si Si4 0.696255 0.244671 0.628069
Si Si5 0.792244 0.063953 0.378330
Si Si6 0.903469 0.152324 0.753211
O O1 0.903232 0.991687 0.119415
O O2 0.872795 0.909605 0.264478
O O3 0.000000 0.976148 0.316116
O O4 0.843385 0.007798 0.351216
O O5 0.500000 0.854038 0.938003
O O6 0.621160 0.788257 0.879489
O O7 0.648128 0.891893 0.939741
O O8 0.606437 0.819759 0.115011
O O9 0.282794 0.947982 0.523384
O O10 0.750000 0.260883 0.750000
O O11 0.750000 0.250000 0.500000
O O12 0.655614 0.184482 0.646709
O O13 0.750000 0.086784 0.250000
O O14 0.000000 0.154161 0.801238
#
# Coordination Sequence:
#
# PCOD8263615 Si02
#       6
#    16  16   8  16  16  16
#     4  10  21  39  62  90 128 172 216 264 329 399
#     4  11  23  42  65  92 132 169 216 272 331 396
#     4  10  21  34  59  88 126 166 214 270 321 394
#     4  12  25  44  69  97 127 169 220 275 325 393
#     4  10  21  37  60  94 129 167 221 269 329 388
#     4  10  23  42  65  94 128 171 217 269 332 395
#
# _framework density 21.402256000000001
#
# number of rings (size 3 to 8) (size 9 to 14) (size 15 to 20)
#    0.000    1.455    1.818    3.000    2.545    2.182 
#    0.000    3.636    0.000    0.000    0.000    0.000 
#    0.000    0.000    0.000    0.000    0.000    0.000 
#
# Total GULP energy -545625.779382 kJ/mol
# GULP energy per Si atom -12400.585895 kJ/mol
# Density = 2.135354 g / cm^3
# Si number density = 21.402256 Si / 1000 Ang^3
#
#
#
# Elastic Constant Matrix: (Units=GPa)
#
#
# Indices 1 2 3 4 5 6 
#
# 1 91.9209 38.7285 31.6929 0.0000 0.0000 0.0000
# 2 38.7285 109.5459 17.7600 0.0000 0.0000 0.0000
# 3 31.6929 17.7600 74.9173 0.0000 0.0000 0.0000
# 4 0.0000 0.0000 0.0000 24.1468 0.0000 0.0000
# 5 0.0000 0.0000 0.0000 0.0000 35.2756 0.0000
# 6 0.0000 0.0000 0.0000 0.0000 0.0000 38.3579
#
#
#
# Elastic Compliance Matrix: (Units=1/GPa)
#
#
# Indices 1 2 3 4 5 6 
#
# 1 0.014438 -0.004278 -0.005093 0.000000 0.000000 0.000000
# 2 -0.004278 0.010761 -0.000741 0.000000 0.000000 0.000000
# 3 -0.005093 -0.000741 0.015678 0.000000 0.000000 0.000000
# 4 0.000000 0.000000 0.000000 0.041413 0.000000 0.000000
# 5 0.000000 0.000000 0.000000 0.000000 0.028348 0.000000
# 6 0.000000 0.000000 0.000000 0.000000 0.000000 0.026070
#
#
# Mechanical properties :
#
#
# Convention : Reuss Voigt Hill
#
# Bulk Modulus (GPa) = 48.42287 50.30519 49.36403
# Shear Modulus (GPa) = 30.52144 32.10290 31.31217
#
# Velocity S-wave (km/s) = 3.78045 3.87716 3.82911
# Velocity P-wave (km/s) = 6.45988 6.60294 6.53180
#
# Compressibility (1/GPa) = 0.02065140
#
# Stress axis : x y z
#
# Youngs Moduli (GPa) = 69.26317 92.92516 63.78179
#
# Poissons Ratio (x) = 0.39758 0.32487
# Poissons Ratio (y) = 0.29634 0.04727
# Poissons Ratio (z) = 0.35279 0.06887
#
# Static dielectric constant tensor:
#      x y z
#    x 3.930790 0.000000 0.000000 
#    y 0.000000 3.761390 0.000000 
#    z 0.000000 0.000000 3.907930 
# 
# 
# High freq. dielectric constant tensor:
#      x y z
#    x 1.851220 0.000000 0.000000 
#    y 0.000000 1.832660 0.000000 
#    z 0.000000 0.000000 1.840260 
# 
# From -- ./inp_files/14611.got.cif
#   From: 2010.03.12/outbox.cif.g09.slc.cpg/sg64_8_cif.got.tgz:14611.got - 2010.04.10 20:19:32.
