data_PCOD8263134
_publ_section_title
;
Structure prediction by ZEFSAII (Michael W. Deem and Ramdas Pophale) SiO2 
 PCOD8263134
Probable space group: C M C A
;
_chemical_formula_sum "Si O2"
_cell_formula_units_Z 96
_cell_length_a 26.681127
_cell_length_b 18.256648
_cell_length_c 11.475792
_cell_angle_alpha 90.000000
_cell_angle_beta 90.000000
_cell_angle_gamma 90.000000
_cell_volume 5589.949446
_symmetry_space_group_name_H-M "C M C A"
_symmetry_group_IT_number 64
_symmetry_cell_setting 'orthorhombic'
loop_
_space_group_symop_operation_xyz
x,y,z
-x,1/2-y,1/2+z
x,-y,-z
-x,1/2+y,1/2-z
-x,-y,-z
x,1/2+y,1/2-z
-x,y,z
x,1/2-y,1/2+z
1/2+x,1/2+y,z
1/2-x,-y,1/2+z
1/2+x,1/2-y,-z
1/2-x,y,1/2-z
1/2-x,1/2-y,-z
1/2+x,y,1/2-z
1/2-x,1/2+y,z
1/2+x,-y,1/2+z
loop_
_atom_site_type_symbol
_atom_site_label
_atom_site_fract_x
_atom_site_fract_y
_atom_site_fract_z
Si Si1 0.349509 0.889192 0.145373
Si Si2 0.358987 0.040759 0.243668
Si Si3 0.944245 0.032302 0.628226
Si Si4 0.794339 0.423837 0.545773
Si Si5 0.802184 0.149522 0.404004
Si Si6 0.797657 0.315990 0.331717
O O1 0.345120 0.829026 0.247455
O O2 0.329707 0.969233 0.191592
O O3 0.408948 0.895440 0.116446
O O4 0.315121 0.863210 0.038975
O O5 0.418440 0.024411 0.221575
O O6 0.344259 0.057426 0.377798
O O7 0.345304 0.113518 0.172596
O O8 0.000000 0.052098 0.673217
O O9 0.946990 0.000000 0.500000
O O10 0.772286 0.500000 0.500000
O O11 0.751655 0.386564 0.625810
O O12 0.805914 0.369821 0.439893
O O13 0.797220 0.234826 0.380241
O O14 0.750000 0.334719 0.250000
#
# Coordination Sequence:
#
# PCOD8263134 Si02
#       6
#    16  16  16  16  16  16
#     4  10  20  39  56  81 117 147 197 241 286 345
#     4  10  20  36  56  89 105 148 194 239 290 342
#     4   9  17  35  63  91 110 139 198 258 299 341
#     4  12  22  35  56  78 118 159 197 228 279 342
#     4  12  23  34  55  82 119 157 189 236 289 343
#     4  12  25  37  51  82 123 164 194 231 284 354
#
# _framework density 17.173680999999998
#
# number of rings (size 3 to 8) (size 9 to 14) (size 15 to 20)
#    1.000    0.167    5.000    3.500    2.333    0.000 
#    0.000    0.000    0.000    6.500    0.000    0.000 
#    0.000    0.000    0.000    0.000    0.000    0.000 
#
# Total GULP energy -594655.404336 kJ/mol
# GULP energy per Si atom -12388.654257 kJ/mol
# Density = 1.713459 g / cm^3
# Si number density = 17.173681 Si / 1000 Ang^3
#
#
#
# Elastic Constant Matrix: (Units=GPa)
#
#
# Indices 1 2 3 4 5 6 
#
# 1 95.1977 19.9888 34.1303 0.0000 0.0000 0.0000
# 2 19.9888 100.5809 42.5985 0.0000 0.0000 0.0000
# 3 34.1303 42.5985 96.3562 0.0000 0.0000 0.0000
# 4 0.0000 0.0000 0.0000 25.2863 0.0000 0.0000
# 5 0.0000 0.0000 0.0000 0.0000 21.6483 0.0000
# 6 0.0000 0.0000 0.0000 0.0000 0.0000 7.6459
#
#
#
# Elastic Compliance Matrix: (Units=1/GPa)
#
#
# Indices 1 2 3 4 5 6 
#
# 1 0.012075 -0.000724 -0.003957 0.000000 0.000000 0.000000
# 2 -0.000724 0.012276 -0.005171 0.000000 0.000000 0.000000
# 3 -0.003957 -0.005171 0.014066 0.000000 0.000000 0.000000
# 4 0.000000 0.000000 0.000000 0.039547 0.000000 0.000000
# 5 0.000000 0.000000 0.000000 0.000000 0.046193 0.000000
# 6 0.000000 0.000000 0.000000 0.000000 0.000000 0.130789
#
#
# Mechanical properties :
#
#
# Convention : Reuss Voigt Hill
#
# Bulk Modulus (GPa) = 53.43728 53.95222 53.69475
# Shear Modulus (GPa) = 17.80072 23.94391 20.87232
#
# Velocity S-wave (km/s) = 3.22298 3.73798 3.48999
# Velocity P-wave (km/s) = 6.71070 7.07911 6.89737
#
# Compressibility (1/GPa) = 0.01871353
#
# Stress axis : x y z
#
# Youngs Moduli (GPa) = 82.81476 81.45948 71.09450
#
# Poissons Ratio (x) = 0.05896 0.28133
# Poissons Ratio (y) = 0.05994 0.36761
# Poissons Ratio (z) = 0.32771 0.42121
#
# Static dielectric constant tensor:
#      x y z
#    x 3.121700 0.000000 0.000000 
#    y 0.000000 3.141270 0.000000 
#    z 0.000000 0.000000 3.301090 
# 
# 
# High freq. dielectric constant tensor:
#      x y z
#    x 1.624750 0.000000 0.000000 
#    y 0.000000 1.656260 0.000000 
#    z 0.000000 0.000000 1.674320 
# 
# From -- ./inp_files/19145.got.cif
#   From: 2010.03.12/outbox.cif.g09.slc.cpg/sg64_10_cif.got.tgz:19145.got - 2010.04.10 20:19:32.
