data_PCOD8263662
_publ_section_title
;
Structure prediction by ZEFSAII (Michael W. Deem and Ramdas Pophale) SiO2 
 PCOD8263662
Probable space group: C M C A
;
_chemical_formula_sum "Si O2"
_cell_formula_units_Z 72
_cell_length_a 10.309635
_cell_length_b 20.887465
_cell_length_c 15.766122
_cell_angle_alpha 90.000000
_cell_angle_beta 90.000000
_cell_angle_gamma 90.000000
_cell_volume 3395.110455
_symmetry_space_group_name_H-M "C M C A"
_symmetry_group_IT_number 64
_symmetry_cell_setting 'orthorhombic'
loop_
_space_group_symop_operation_xyz
x,y,z
-x,1/2-y,1/2+z
x,-y,-z
-x,1/2+y,1/2-z
-x,-y,-z
x,1/2+y,1/2-z
-x,y,z
x,1/2-y,1/2+z
1/2+x,1/2+y,z
1/2-x,-y,1/2+z
1/2+x,1/2-y,-z
1/2-x,y,1/2-z
1/2-x,1/2-y,-z
1/2+x,y,1/2-z
1/2-x,1/2+y,z
1/2+x,-y,1/2+z
loop_
_atom_site_type_symbol
_atom_site_label
_atom_site_fract_x
_atom_site_fract_y
_atom_site_fract_z
Si Si1 0.856115 0.667690 0.127048
Si Si2 0.145002 0.638407 0.504280
Si Si3 0.646524 0.027319 0.181001
Si Si4 0.254676 0.000000 0.500000
Si Si5 0.143937 0.193894 0.813022
O O1 0.837203 0.604065 0.182585
O O2 0.843622 0.729252 0.186730
O O3 0.000000 0.666632 0.084435
O O4 0.748413 0.673121 0.054836
O O5 0.154696 0.561904 0.501054
O O6 0.174781 0.663859 0.596907
O O7 0.000000 0.657685 0.475145
O O8 0.500000 0.008196 0.208961
O O9 0.750000 0.999493 0.250000
O O10 0.668252 0.000614 0.085663
O O11 0.250000 0.164395 0.750000
O O12 0.000000 0.173968 0.782262
#
# Coordination Sequence:
#
# PCOD8263662 Si02
#       5
#    16  16  16   8  16
#     4   9  19  36  57  81 110 142 179 225 280 339
#     4  10  21  36  56  81 108 143 188 232 275 326
#     4  10  21  37  59  85 112 147 190 236 286 340
#     4  10  22  40  58  80 116 156 194 236 282 336
#     4  10  21  36  54  81 113 143 178 223 277 336
#
# _framework density 21.206966999999999
#
# number of rings (size 3 to 8) (size 9 to 14) (size 15 to 20)
#    0.000    2.222    0.000    2.000    0.000    8.000 
#    0.000    2.222    0.000    0.000    0.000    0.000 
#    0.000    0.000    0.000    0.000    0.000    0.000 
#
# Total GULP energy -446322.875634 kJ/mol
# GULP energy per Si atom -12397.857656 kJ/mol
# Density = 2.115870 g / cm^3
# Si number density = 21.206967 Si / 1000 Ang^3
#
#
#
# Elastic Constant Matrix: (Units=GPa)
#
#
# Indices 1 2 3 4 5 6 
#
# 1 181.8058 -4.9098 91.4066 0.0000 0.0000 0.0000
# 2 -4.9098 21.8069 -2.2684 0.0000 0.0000 0.0000
# 3 91.4066 -2.2684 103.4993 0.0000 0.0000 0.0000
# 4 0.0000 0.0000 0.0000 17.5647 0.0000 0.0000
# 5 0.0000 0.0000 0.0000 0.0000 41.2174 0.0000
# 6 0.0000 0.0000 0.0000 0.0000 0.0000 16.1926
#
#
#
# Elastic Compliance Matrix: (Units=1/GPa)
#
#
# Indices 1 2 3 4 5 6 
#
# 1 0.009931 0.001327 -0.008742 0.000000 0.000000 0.000000
# 2 0.001327 0.046139 -0.000160 0.000000 0.000000 0.000000
# 3 -0.008742 -0.000160 0.017379 0.000000 0.000000 0.000000
# 4 0.000000 0.000000 0.000000 0.056932 0.000000 0.000000
# 5 0.000000 0.000000 0.000000 0.000000 0.024262 0.000000
# 6 0.000000 0.000000 0.000000 0.000000 0.000000 0.061756
#
#
# Mechanical properties :
#
#
# Convention : Reuss Voigt Hill
#
# Bulk Modulus (GPa) = 17.15324 52.84098 34.99711
# Shear Modulus (GPa) = 19.92159 29.85385 24.88772
#
# Velocity S-wave (km/s) = 3.06827 3.75605 3.42945
# Velocity P-wave (km/s) = 4.54515 6.61676 5.67626
#
# Compressibility (1/GPa) = 0.05829802
#
# Stress axis : x y z
#
# Youngs Moduli (GPa) = 100.69067 21.67360 57.54088
#
# Poissons Ratio (x) = -0.02875 0.50302
# Poissons Ratio (y) = -0.13358 0.00923
# Poissons Ratio (z) = 0.88023 0.00348
#
# Static dielectric constant tensor:
#      x y z
#    x 3.981410 0.000000 0.000000 
#    y 0.000000 3.796160 0.000000 
#    z 0.000000 0.000000 3.515960 
# 
# 
# High freq. dielectric constant tensor:
#      x y z
#    x 1.844700 0.000000 0.000000 
#    y 0.000000 1.826840 0.000000 
#    z 0.000000 0.000000 1.813310 
# 
# From -- ./inp_files/21135.got.cif
#   From: 2010.03.12/outbox.cif.g09.slc.cpg/sg64_11_cif.got.tgz:21135.got - 2010.04.10 20:19:32.
