data_PCOD8263194
_publ_section_title
;
Structure prediction by ZEFSAII (Michael W. Deem and Ramdas Pophale) SiO2 
 PCOD8263194
Probable space group: C M C A
;
_chemical_formula_sum "Si O2"
_cell_formula_units_Z 96
_cell_length_a 8.944974
_cell_length_b 24.941547
_cell_length_c 24.365410
_cell_angle_alpha 90.000000
_cell_angle_beta 90.000000
_cell_angle_gamma 90.000000
_cell_volume 5435.959262
_symmetry_space_group_name_H-M "C M C A"
_symmetry_group_IT_number 64
_symmetry_cell_setting 'orthorhombic'
loop_
_space_group_symop_operation_xyz
x,y,z
-x,1/2-y,1/2+z
x,-y,-z
-x,1/2+y,1/2-z
-x,-y,-z
x,1/2+y,1/2-z
-x,y,z
x,1/2-y,1/2+z
1/2+x,1/2+y,z
1/2-x,-y,1/2+z
1/2+x,1/2-y,-z
1/2-x,y,1/2-z
1/2-x,1/2-y,-z
1/2+x,y,1/2-z
1/2-x,1/2+y,z
1/2+x,-y,1/2+z
loop_
_atom_site_type_symbol
_atom_site_label
_atom_site_fract_x
_atom_site_fract_y
_atom_site_fract_z
Si Si1 0.825118 0.164497 0.806115
Si Si2 0.669370 0.918664 0.509367
Si Si3 0.331450 0.127848 0.378563
Si Si4 0.673115 0.472434 0.600007
Si Si5 0.826722 0.906652 0.396846
Si Si6 0.825025 0.711652 0.193846
O O1 0.750000 0.144354 0.750000
O O2 0.762157 0.131395 0.856515
O O3 0.786441 0.226446 0.816925
O O4 0.000000 0.154373 0.800908
O O5 0.500000 0.933707 0.492177
O O6 0.669378 0.870369 0.554684
O O7 0.748188 0.969693 0.539614
O O8 0.762563 0.898495 0.457601
O O9 0.500000 0.128504 0.355304
O O10 0.251243 0.071654 0.359951
O O11 0.241484 0.178676 0.356729
O O12 0.500000 0.457797 0.593332
O O13 0.695747 0.532090 0.623332
O O14 0.000000 0.890519 0.397137
O O15 0.750000 0.691437 0.250000
O O16 0.000000 0.701376 0.198179
#
# Coordination Sequence:
#
# PCOD8263194 Si02
#       6
#    16  16  16  16  16  16
#     4  10  22  39  58  79 104 136 177 221 266 316
#     4   9  19  32  51  80 111 143 179 216 261 313
#     4   9  19  33  52  79 108 138 173 217 263 309
#     4   9  18  32  51  78 110 141 176 213 256 309
#     4  11  21  33  54  81 109 145 181 216 262 313
#     4  10  20  36  59  80 101 135 176 220 267 318
#
# _framework density 17.660177000000001
#
# number of rings (size 3 to 8) (size 9 to 14) (size 15 to 20)
#    1.000    1.333    0.000    3.000    0.000    6.667 
#    0.000    1.667    0.000    4.000    0.000    0.000 
#    0.000    0.000    0.000    0.000    0.000    0.000 
#
# Total GULP energy -594959.505346 kJ/mol
# GULP energy per Si atom -12394.989695 kJ/mol
# Density = 1.761998 g / cm^3
# Si number density = 17.660177 Si / 1000 Ang^3
#
#
#
# Elastic Constant Matrix: (Units=GPa)
#
#
# Indices 1 2 3 4 5 6 
#
# 1 107.7984 48.3659 25.7710 0.0000 0.0000 0.0000
# 2 48.3659 75.1447 38.5700 0.0000 0.0000 0.0000
# 3 25.7710 38.5700 41.0089 0.0000 0.0000 0.0000
# 4 0.0000 0.0000 0.0000 -58.6365 0.0000 0.0000
# 5 0.0000 0.0000 0.0000 0.0000 35.6858 0.0000
# 6 0.0000 0.0000 0.0000 0.0000 0.0000 30.5742
#
#
#
# Elastic Compliance Matrix: (Units=1/GPa)
#
#
# Indices 1 2 3 4 5 6 
#
# 1 0.013050 -0.008101 -0.000582 0.000000 0.000000 0.000000
# 2 -0.008101 0.030756 -0.023836 0.000000 0.000000 0.000000
# 3 -0.000582 -0.023836 0.047169 0.000000 0.000000 0.000000
# 4 0.000000 0.000000 0.000000 -0.017054 0.000000 0.000000
# 5 0.000000 0.000000 0.000000 0.000000 0.028022 0.000000
# 6 0.000000 0.000000 0.000000 0.000000 0.000000 0.032707
#
#
# Mechanical properties :
#
#
# Convention : Reuss Voigt Hill
#
# Bulk Modulus (GPa) = 38.55419 49.92955 44.24187
# Shear Modulus (GPa) = 23.99969 8.94104 16.47036
#
# Velocity S-wave (km/s) = 3.69042 2.25251 3.05721
# Velocity P-wave (km/s) = 6.32752 5.92443 6.12929
#
# Compressibility (1/GPa) = 0.02593752
#
# Stress axis : x y z
#
# Youngs Moduli (GPa) = 76.62611 32.51358 21.20020
#
# Poissons Ratio (x) = 0.26339 0.01234
# Poissons Ratio (y) = 0.62075 0.50533
# Poissons Ratio (z) = 0.04459 0.77500
#
# Static dielectric constant tensor:
#      x y z
#    x 3.457680 0.000000 0.000000 
#    y 0.000000 3.124210 0.000000 
#    z 0.000000 0.000000 3.056550 
# 
# 
# High freq. dielectric constant tensor:
#      x y z
#    x 1.706690 0.000000 0.000000 
#    y 0.000000 1.668560 0.000000 
#    z 0.000000 0.000000 1.662070 
# 
# From -- ./inp_files/36946.got.cif
#   From: 2010.03.12/outbox.cif.g09.slc.cpg/sg64_19_cif.got.tgz:36946.got - 2010.04.10 20:19:32.
