data_PCOD8263089
_publ_section_title
;
Structure prediction by ZEFSAII (Michael W. Deem and Ramdas Pophale) SiO2 
 PCOD8263089
Probable space group: C M C A
;
_chemical_formula_sum "Si O2"
_cell_formula_units_Z 88
_cell_length_a 19.005633
_cell_length_b 23.906994
_cell_length_c 9.549756
_cell_angle_alpha 90.000000
_cell_angle_beta 90.000000
_cell_angle_gamma 90.000000
_cell_volume 4339.099276
_symmetry_space_group_name_H-M "C M C A"
_symmetry_group_IT_number 64
_symmetry_cell_setting 'orthorhombic'
loop_
_space_group_symop_operation_xyz
x,y,z
-x,1/2-y,1/2+z
x,-y,-z
-x,1/2+y,1/2-z
-x,-y,-z
x,1/2+y,1/2-z
-x,y,z
x,1/2-y,1/2+z
1/2+x,1/2+y,z
1/2-x,-y,1/2+z
1/2+x,1/2-y,-z
1/2-x,y,1/2-z
1/2-x,1/2-y,-z
1/2+x,y,1/2-z
1/2-x,1/2+y,z
1/2+x,-y,1/2+z
loop_
_atom_site_type_symbol
_atom_site_label
_atom_site_fract_x
_atom_site_fract_y
_atom_site_fract_z
Si Si1 0.328201 0.089023 0.779240
Si Si2 0.362365 0.000000 0.000000
Si Si3 0.419697 0.192546 0.828391
Si Si4 0.417466 0.906963 0.793018
Si Si5 0.077748 0.064377 0.988894
Si Si6 0.420220 0.213358 0.134042
O O1 0.250000 0.110794 0.750000
O O2 0.372945 0.137736 0.851126
O O3 0.367694 0.075781 0.634663
O O4 0.319149 0.036379 0.885870
O O5 0.405839 0.043785 0.094060
O O6 0.500000 0.174043 0.793227
O O7 0.384886 0.233962 0.713262
O O8 0.417510 0.227752 0.971063
O O9 0.500000 0.901428 0.780918
O O10 0.387219 0.917727 0.637172
O O11 0.384216 0.847291 0.839711
O O12 0.000000 0.092689 0.961636
O O13 0.062972 0.000000 0.000000
O O14 0.500000 0.210872 0.190826
#
# Coordination Sequence:
#
# PCOD8263089 Si02
#       6
#    16   8  16  16  16  16
#     4  12  27  42  62  88 128 173 218 259 322 385
#     4  12  23  38  62  86 129 168 208 262 314 386
#     4  10  21  40  65  93 124 162 212 267 317 373
#     4  10  20  35  62  97 126 156 202 263 323 379
#     4  10  21  38  61  91 122 157 203 259 317 378
#     4   9  19  35  61  95 125 157 204 258 319 372
#
# _framework density 20.280708000000001
#
# number of rings (size 3 to 8) (size 9 to 14) (size 15 to 20)
#    0.000    1.636    3.636    0.818    3.818    1.455 
#    0.000    0.909    0.000    0.000    0.000    0.000 
#    0.000    0.000    0.000    0.000    0.000    0.000 
#
# Total GULP energy -545093.441310 kJ/mol
# GULP energy per Si atom -12388.487303 kJ/mol
# Density = 2.023455 g / cm^3
# Si number density = 20.280708 Si / 1000 Ang^3
#
#
#
# Elastic Constant Matrix: (Units=GPa)
#
#
# Indices 1 2 3 4 5 6 
#
# 1 75.0157 27.6282 36.6404 0.0000 0.0000 0.0000
# 2 27.6282 103.2100 36.8572 0.0000 0.0000 0.0000
# 3 36.6404 36.8572 132.4235 0.0000 0.0000 0.0000
# 4 0.0000 0.0000 0.0000 42.8615 0.0000 0.0000
# 5 0.0000 0.0000 0.0000 0.0000 8.7414 0.0000
# 6 0.0000 0.0000 0.0000 0.0000 0.0000 0.7339
#
#
#
# Elastic Compliance Matrix: (Units=1/GPa)
#
#
# Indices 1 2 3 4 5 6 
#
# 1 0.016231 -0.003044 -0.003644 0.000000 0.000000 0.000000
# 2 -0.003044 0.011329 -0.002311 0.000000 0.000000 0.000000
# 3 -0.003644 -0.002311 0.009203 0.000000 0.000000 0.000000
# 4 0.000000 0.000000 0.000000 0.023331 0.000000 0.000000
# 5 0.000000 0.000000 0.000000 0.000000 0.114398 0.000000
# 6 0.000000 0.000000 0.000000 0.000000 0.000000 1.362562
#
#
# Mechanical properties :
#
#
# Convention : Reuss Voigt Hill
#
# Bulk Modulus (GPa) = 53.28755 56.98898 55.13826
# Shear Modulus (GPa) = 3.20244 24.43558 13.81901
#
# Velocity S-wave (km/s) = 1.25797 3.47489 2.61317
# Velocity P-wave (km/s) = 5.33311 6.65289 6.02922
#
# Compressibility (1/GPa) = 0.01876611
#
# Stress axis : x y z
#
# Youngs Moduli (GPa) = 61.60913 88.26878 108.66023
#
# Poissons Ratio (x) = 0.26866 0.39595
# Poissons Ratio (y) = 0.18752 0.25112
# Poissons Ratio (z) = 0.22450 0.20399
#
# Static dielectric constant tensor:
#      x y z
#    x 3.150360 0.000000 0.000000 
#    y 0.000000 3.873930 0.000000 
#    z 0.000000 0.000000 3.761250 
# 
# 
# High freq. dielectric constant tensor:
#      x y z
#    x 1.729980 0.000000 0.000000 
#    y 0.000000 1.798980 0.000000 
#    z 0.000000 0.000000 1.816500 
# 
# From -- ./inp_files/8215.got.cif
#   From: 2010.03.12/outbox.cif.g09.slc.cpg/sg64_5_cif.got.tgz:8215.got - 2010.04.10 20:19:32.
