data_PCOD8263265
_publ_section_title
;
Structure prediction by ZEFSAII (Michael W. Deem and Ramdas Pophale) SiO2 
 PCOD8263265
Probable space group: C M C A
;
_chemical_formula_sum "Si O2"
_cell_formula_units_Z 72
_cell_length_a 14.503844
_cell_length_b 17.095291
_cell_length_c 15.308484
_cell_angle_alpha 90.000000
_cell_angle_beta 90.000000
_cell_angle_gamma 90.000000
_cell_volume 3795.699323
_symmetry_space_group_name_H-M "C M C A"
_symmetry_group_IT_number 64
_symmetry_cell_setting 'orthorhombic'
loop_
_space_group_symop_operation_xyz
x,y,z
-x,1/2-y,1/2+z
x,-y,-z
-x,1/2+y,1/2-z
-x,-y,-z
x,1/2+y,1/2-z
-x,y,z
x,1/2-y,1/2+z
1/2+x,1/2+y,z
1/2-x,-y,1/2+z
1/2+x,1/2-y,-z
1/2-x,y,1/2-z
1/2-x,1/2-y,-z
1/2+x,y,1/2-z
1/2-x,1/2+y,z
1/2+x,-y,1/2+z
loop_
_atom_site_type_symbol
_atom_site_label
_atom_site_fract_x
_atom_site_fract_y
_atom_site_fract_z
Si Si1 0.187614 0.347267 0.831221
Si Si2 0.302346 0.908530 0.508309
Si Si3 0.500000 0.432097 0.183539
Si Si4 0.500000 0.081488 0.419258
Si Si5 0.316219 0.163277 0.671887
Si Si6 0.000000 0.915504 0.724467
O O1 0.250000 0.374702 0.750000
O O2 0.169707 0.255444 0.829962
O O3 0.089664 0.389806 0.828400
O O4 0.237665 0.372206 0.918843
O O5 0.409283 0.890295 0.529978
O O6 0.273563 0.866250 0.418935
O O7 0.283125 0.000000 0.500000
O O8 0.587167 0.377313 0.188163
O O9 0.500000 0.490051 0.266961
O O10 0.500000 0.485854 0.094163
O O11 0.500000 0.121507 0.322688
O O12 0.250000 0.137022 0.750000
#
# Coordination Sequence:
#
# PCOD8263265 Si02
#       6
#    16  16   8   8  16   8
#     4  11  23  42  62  91 128 164 196 257 321 370
#     4  12  22  38  67  94 122 160 215 256 307 369
#     4  10  20  39  63  90 119 156 218 249 300 360
#     4  10  20  36  65  94 111 157 212 262 288 353
#     4  11  25  40  62  91 127 163 206 256 313 371
#     4  10  21  38  66  91 121 161 204 251 315 360
#
# _framework density 18.968836
#
# number of rings (size 3 to 8) (size 9 to 14) (size 15 to 20)
#    0.667    0.444    4.444    2.333    3.111    0.000 
#    0.000    1.667    0.000    0.000    0.000    0.000 
#    0.000    0.000    0.000    0.000    0.000    0.000 
#
# Total GULP energy -446494.784942 kJ/mol
# GULP energy per Si atom -12402.632915 kJ/mol
# Density = 1.892566 g / cm^3
# Si number density = 18.968836 Si / 1000 Ang^3
#
#
#
# Elastic Constant Matrix: (Units=GPa)
#
#
# Indices 1 2 3 4 5 6 
#
# 1 151.2729 58.1704 81.8204 0.0000 0.0000 0.0000
# 2 58.1704 74.2629 44.5786 0.0000 0.0000 0.0000
# 3 81.8204 44.5786 145.7927 0.0000 0.0000 0.0000
# 4 0.0000 0.0000 0.0000 33.7123 0.0000 0.0000
# 5 0.0000 0.0000 0.0000 0.0000 191.6414 0.0000
# 6 0.0000 0.0000 0.0000 0.0000 0.0000 24.1143
#
#
#
# Elastic Compliance Matrix: (Units=1/GPa)
#
#
# Indices 1 2 3 4 5 6 
#
# 1 0.011464 -0.006268 -0.004517 0.000000 0.000000 0.000000
# 2 -0.006268 0.019920 -0.002573 0.000000 0.000000 0.000000
# 3 -0.004517 -0.002573 0.010181 0.000000 0.000000 0.000000
# 4 0.000000 0.000000 0.000000 0.029663 0.000000 0.000000
# 5 0.000000 0.000000 0.000000 0.000000 0.005218 0.000000
# 6 0.000000 0.000000 0.000000 0.000000 0.000000 0.041469
#
#
# Mechanical properties :
#
#
# Convention : Reuss Voigt Hill
#
# Bulk Modulus (GPa) = 67.34858 82.27417 74.81138
# Shear Modulus (GPa) = 33.42642 62.34421 47.88531
#
# Velocity S-wave (km/s) = 4.20238 5.73916 5.02981
# Velocity P-wave (km/s) = 7.68951 9.34799 8.55901
#
# Compressibility (1/GPa) = 0.01484812
#
# Stress axis : x y z
#
# Youngs Moduli (GPa) = 87.22729 50.19997 98.22300
#
# Poissons Ratio (x) = 0.31468 0.44369
# Poissons Ratio (y) = 0.54678 0.25273
# Poissons Ratio (z) = 0.39402 0.12917
#
# Static dielectric constant tensor:
#      x y z
#    x 3.448150 0.000000 0.000000 
#    y 0.000000 3.392070 0.000000 
#    z 0.000000 0.000000 3.587660 
# 
# 
# High freq. dielectric constant tensor:
#      x y z
#    x 1.741000 0.000000 0.000000 
#    y 0.000000 1.734660 0.000000 
#    z 0.000000 0.000000 1.742720 
# 
# From -- ./inp_files/25171.got.cif
#   From: 2010.03.12/outbox.cif.g09.slc.cpg/sg64_13_cif.got.tgz:25171.got - 2010.04.10 20:19:32.
