data_PCOD8263504
_publ_section_title
;
Structure prediction by ZEFSAII (Michael W. Deem and Ramdas Pophale) SiO2 
 PCOD8263504
Probable space group: C M C A
;
_chemical_formula_sum "Si O2"
_cell_formula_units_Z 96
_cell_length_a 15.345724
_cell_length_b 19.005825
_cell_length_c 15.709537
_cell_angle_alpha 90.000000
_cell_angle_beta 90.000000
_cell_angle_gamma 90.000000
_cell_volume 4581.814418
_symmetry_space_group_name_H-M "C M C A"
_symmetry_group_IT_number 64
_symmetry_cell_setting 'orthorhombic'
loop_
_space_group_symop_operation_xyz
x,y,z
-x,1/2-y,1/2+z
x,-y,-z
-x,1/2+y,1/2-z
-x,-y,-z
x,1/2+y,1/2-z
-x,y,z
x,1/2-y,1/2+z
1/2+x,1/2+y,z
1/2-x,-y,1/2+z
1/2+x,1/2-y,-z
1/2-x,y,1/2-z
1/2-x,1/2-y,-z
1/2+x,y,1/2-z
1/2-x,1/2+y,z
1/2+x,-y,1/2+z
loop_
_atom_site_type_symbol
_atom_site_label
_atom_site_fract_x
_atom_site_fract_y
_atom_site_fract_z
Si Si1 0.691474 0.986152 0.324656
Si Si2 0.402619 0.724790 0.294765
Si Si3 0.735184 0.688142 0.435907
Si Si4 0.901993 0.872438 0.280540
Si Si5 0.168752 0.065231 0.549397
Si Si6 0.097103 0.376456 0.646605
O O1 0.750000 0.022058 0.250000
O O2 0.616059 0.040371 0.349658
O O3 0.656352 0.913256 0.287226
O O4 0.743867 0.967147 0.409637
O O5 0.500000 0.734966 0.335448
O O6 0.326648 0.719628 0.363299
O O7 0.381617 0.789609 0.230336
O O8 0.401857 0.652881 0.242159
O O9 0.750000 0.750000 0.500000
O O10 0.687648 0.622618 0.478165
O O11 0.830521 0.664526 0.406410
O O12 0.888288 0.898347 0.377245
O O13 0.000000 0.889605 0.255788
O O14 0.121094 0.000000 0.500000
O O15 0.000000 0.365965 0.606570
#
# Coordination Sequence:
#
# PCOD8263504 Si02
#       6
#    16  16  16  16  16  16
#     4  10  20  39  64  88 125 169 218 257 311 389
#     4  10  23  42  65  92 125 167 222 270 315 384
#     4  12  24  40  65  92 127 169 209 262 336 386
#     4  10  22  41  65  93 126 169 218 267 319 384
#     4  11  23  39  61  94 133 167 209 267 328 393
#     4  11  23  40  63  90 121 165 219 266 313 383
#
# _framework density 20.952399
#
# number of rings (size 3 to 8) (size 9 to 14) (size 15 to 20)
#    0.000    1.333    1.667    4.000    2.333    4.333 
#    0.000    2.500    0.000    0.000    0.000    0.000 
#    0.000    0.000    0.000    0.000    0.000    0.000 
#
# Total GULP energy -595113.173135 kJ/mol
# GULP energy per Si atom -12398.191107 kJ/mol
# Density = 2.090471 g / cm^3
# Si number density = 20.952399 Si / 1000 Ang^3
#
#
#
# Elastic Constant Matrix: (Units=GPa)
#
#
# Indices 1 2 3 4 5 6 
#
# 1 85.7388 32.7660 17.0690 0.0000 0.0000 0.0000
# 2 32.7660 110.1229 31.1782 0.0000 0.0000 0.0000
# 3 17.0690 31.1782 75.5084 0.0000 0.0000 0.0000
# 4 0.0000 0.0000 0.0000 36.3993 0.0000 0.0000
# 5 0.0000 0.0000 0.0000 0.0000 19.6942 0.0000
# 6 0.0000 0.0000 0.0000 0.0000 0.0000 34.6881
#
#
#
# Elastic Compliance Matrix: (Units=1/GPa)
#
#
# Indices 1 2 3 4 5 6 
#
# 1 0.013319 -0.003522 -0.001556 0.000000 0.000000 0.000000
# 2 -0.003522 0.011214 -0.003834 0.000000 0.000000 0.000000
# 3 -0.001556 -0.003834 0.015179 0.000000 0.000000 0.000000
# 4 0.000000 0.000000 0.000000 0.027473 0.000000 0.000000
# 5 0.000000 0.000000 0.000000 0.000000 0.050776 0.000000
# 6 0.000000 0.000000 0.000000 0.000000 0.000000 0.028828
#
#
# Mechanical properties :
#
#
# Convention : Reuss Voigt Hill
#
# Bulk Modulus (GPa) = 45.69114 48.15516 46.92315
# Shear Modulus (GPa) = 29.08471 30.84678 29.96574
#
# Velocity S-wave (km/s) = 3.72981 3.84113 3.78588
# Velocity P-wave (km/s) = 6.35634 6.53494 6.44626
#
# Compressibility (1/GPa) = 0.02188608
#
# Stress axis : x y z
#
# Youngs Moduli (GPa) = 75.07900 89.17121 65.88208
#
# Poissons Ratio (x) = 0.31409 0.10254
# Poissons Ratio (y) = 0.26446 0.25261
# Poissons Ratio (z) = 0.11686 0.34191
#
# Static dielectric constant tensor:
#      x y z
#    x 3.918630 0.000000 0.000000 
#    y 0.000000 3.950200 0.000000 
#    z 0.000000 0.000000 3.723860 
# 
# 
# High freq. dielectric constant tensor:
#      x y z
#    x 1.821770 0.000000 0.000000 
#    y 0.000000 1.838970 0.000000 
#    z 0.000000 0.000000 1.810990 
# 
# From -- ./inp_files/23949.got.cif
#   From: 2010.03.12/outbox.cif.g09.slc.cpg/sg64_12_cif.got.tgz:23949.got - 2010.04.10 20:19:32.
