data_PCOD8263480
_publ_section_title
;
Structure prediction by ZEFSAII (Michael W. Deem and Ramdas Pophale) SiO2 
 PCOD8263480
Probable space group: C M C A
;
_chemical_formula_sum "Si O2"
_cell_formula_units_Z 112
_cell_length_a 29.685675
_cell_length_b 13.575233
_cell_length_c 14.694858
_cell_angle_alpha 90.000000
_cell_angle_beta 90.000000
_cell_angle_gamma 90.000000
_cell_volume 5921.880162
_symmetry_space_group_name_H-M "C M C A"
_symmetry_group_IT_number 64
_symmetry_cell_setting 'orthorhombic'
loop_
_space_group_symop_operation_xyz
x,y,z
-x,1/2-y,1/2+z
x,-y,-z
-x,1/2+y,1/2-z
-x,-y,-z
x,1/2+y,1/2-z
-x,y,z
x,1/2-y,1/2+z
1/2+x,1/2+y,z
1/2-x,-y,1/2+z
1/2+x,1/2-y,-z
1/2-x,y,1/2-z
1/2-x,1/2-y,-z
1/2+x,y,1/2-z
1/2-x,1/2+y,z
1/2+x,-y,1/2+z
loop_
_atom_site_type_symbol
_atom_site_label
_atom_site_fract_x
_atom_site_fract_y
_atom_site_fract_z
Si Si1 0.149774 0.303257 0.331737
Si Si2 0.368928 0.729375 0.526258
Si Si3 0.107447 0.531876 0.770966
Si Si4 0.684796 0.059243 0.912096
Si Si5 0.150886 0.636644 0.317030
Si Si6 0.288292 0.475562 0.104531
Si Si7 0.449338 0.913561 0.071316
O O1 0.131318 0.245717 0.418808
O O2 0.109787 0.373861 0.295968
O O3 0.163647 0.224908 0.253014
O O4 0.191609 0.371217 0.362479
O O5 0.323761 0.672407 0.559456
O O6 0.367507 0.828165 0.585262
O O7 0.414830 0.672859 0.549170
O O8 0.153103 0.529858 0.829759
O O9 0.108458 0.427802 0.718953
O O10 0.062336 0.540538 0.830060
O O11 0.735184 0.035720 0.882071
O O12 0.669033 0.000000 0.000000
O O13 0.193998 0.565464 0.333003
O O14 0.300473 0.500000 0.000000
O O15 0.500000 0.871290 0.072859
O O16 0.444014 0.000000 0.000000
#
# Coordination Sequence:
#
# PCOD8263480 Si02
#       7
#    16  16  16  16  16  16  16
#     4  11  21  37  61  87 117 160 202 244 293 362
#     4  11  21  39  61  86 119 157 196 244 305 354
#     4  10  21  38  57  88 120 155 195 242 308 348
#     4  10  20  39  55  78 119 158 202 256 285 338
#     4  11  21  38  60  85 115 161 199 242 298 356
#     4  10  22  39  55  84 120 161 209 248 299 344
#     4  10  20  39  66  91 117 149 197 247 296 358
#
# _framework density 18.912913
#
# number of rings (size 3 to 8) (size 9 to 14) (size 15 to 20)
#    0.000    1.571    4.286    3.429    0.000    2.857 
#    5.143    1.429    0.000    0.000    0.000    3.000 
#    0.000    0.000    0.000    0.000    0.000    0.000 
#
# Total GULP energy -694199.157636 kJ/mol
# GULP energy per Si atom -12396.413529 kJ/mol
# Density = 1.886987 g / cm^3
# Si number density = 18.912913 Si / 1000 Ang^3
#
#
#
# Elastic Constant Matrix: (Units=GPa)
#
#
# Indices 1 2 3 4 5 6 
#
# 1 92.7765 35.5335 27.7406 0.0000 0.0000 0.0000
# 2 35.5335 97.5268 28.7900 0.0000 0.0000 0.0000
# 3 27.7406 28.7900 92.3404 0.0000 0.0000 0.0000
# 4 0.0000 0.0000 0.0000 50.0117 0.0000 0.0000
# 5 0.0000 0.0000 0.0000 0.0000 -6.7308 0.0000
# 6 0.0000 0.0000 0.0000 0.0000 0.0000 18.2092
#
#
#
# Elastic Compliance Matrix: (Units=1/GPa)
#
#
# Indices 1 2 3 4 5 6 
#
# 1 0.013110 -0.003980 -0.002697 0.000000 0.000000 0.000000
# 2 -0.003980 0.012501 -0.002702 0.000000 0.000000 0.000000
# 3 -0.002697 -0.002702 0.012482 0.000000 0.000000 0.000000
# 4 0.000000 0.000000 0.000000 0.019995 0.000000 0.000000
# 5 0.000000 0.000000 0.000000 0.000000 -0.148570 0.000000
# 6 0.000000 0.000000 0.000000 0.000000 0.000000 0.054917
#
#
# Mechanical properties :
#
#
# Convention : Reuss Voigt Hill
#
# Bulk Modulus (GPa) = 51.72200 51.86353 51.79277
# Shear Modulus (GPa) = -482.61313 25.00332 -228.80491
#
# Velocity S-wave (km/s) = -15.99158 3.63991 -11.01094
# Velocity P-wave (km/s) = 17.70783 6.71916 11.58491
#
# Compressibility (1/GPa) = 0.01933413
#
# Stress axis : x y z
#
# Youngs Moduli (GPa) = 76.28045 79.99129 80.11358
#
# Poissons Ratio (x) = 0.31837 0.21610
# Poissons Ratio (y) = 0.30361 0.21647
# Poissons Ratio (z) = 0.20576 0.21614
#
# Static dielectric constant tensor:
#      x y z
#    x 3.178500 0.000000 0.000000 
#    y 0.000000 3.646720 0.000000 
#    z 0.000000 0.000000 3.833840 
# 
# 
# High freq. dielectric constant tensor:
#      x y z
#    x 1.694280 0.000000 0.000000 
#    y 0.000000 1.744140 0.000000 
#    z 0.000000 0.000000 1.758080 
# 
# From -- ./inp_files/28380.got.cif
#   From: 2010.03.12/outbox.cif.g09.slc.cpg/sg64_15_cif.got.tgz:28380.got - 2010.04.10 20:19:32.
