data_PCOD8263012
_publ_section_title
;
Structure prediction by ZEFSAII (Michael W. Deem and Ramdas Pophale) SiO2 
 PCOD8263012
Probable space group: C M C A
;
_chemical_formula_sum "Si O2"
_cell_formula_units_Z 80
_cell_length_a 8.388442
_cell_length_b 27.409092
_cell_length_c 18.038575
_cell_angle_alpha 90.000000
_cell_angle_beta 90.000000
_cell_angle_gamma 90.000000
_cell_volume 4147.421561
_symmetry_space_group_name_H-M "C M C A"
_symmetry_group_IT_number 64
_symmetry_cell_setting 'orthorhombic'
loop_
_space_group_symop_operation_xyz
x,y,z
-x,1/2-y,1/2+z
x,-y,-z
-x,1/2+y,1/2-z
-x,-y,-z
x,1/2+y,1/2-z
-x,y,z
x,1/2-y,1/2+z
1/2+x,1/2+y,z
1/2-x,-y,1/2+z
1/2+x,1/2-y,-z
1/2-x,y,1/2-z
1/2-x,1/2-y,-z
1/2+x,y,1/2-z
1/2-x,1/2+y,z
1/2+x,-y,1/2+z
loop_
_atom_site_type_symbol
_atom_site_label
_atom_site_fract_x
_atom_site_fract_y
_atom_site_fract_z
Si Si1 0.188240 0.456379 0.168085
Si Si2 0.314384 0.659244 0.170861
Si Si3 0.686006 0.301987 0.523221
Si Si4 0.314268 0.937880 0.886958
Si Si5 0.185226 0.100156 0.966005
O O1 0.250000 0.446611 0.250000
O O2 0.243879 0.509463 0.140196
O O3 0.267226 0.415723 0.116213
O O4 0.000000 0.450963 0.164623
O O5 0.500000 0.670943 0.163773
O O6 0.250000 0.676322 0.250000
O O7 0.218759 0.690076 0.110035
O O8 0.285706 0.601647 0.159230
O O9 0.500000 0.306094 0.506910
O O10 0.750000 0.250000 0.500000
O O11 0.775856 0.342809 0.474945
O O12 0.500000 0.929466 0.870623
O O13 0.282864 0.932247 0.974644
O O14 0.000000 0.091448 0.980721
#
# Coordination Sequence:
#
# PCOD8263012 Si02
#       5
#    16  16  16  16  16
#     4  11  23  37  54  79 113 152 191 231 276 326
#     4  11  21  35  56  85 117 148 184 229 281 330
#     4  11  22  40  63  86 112 144 184 229 279 333
#     4  10  20  35  56  82 113 149 188 230 276 327
#     4  11  22  37  58  83 111 146 187 229 276 330
#
# _framework density 19.289092
#
# number of rings (size 3 to 8) (size 9 to 14) (size 15 to 20)
#    0.000    1.200    0.000   10.200    0.000    7.200 
#    0.000    1.000    0.000    0.000    0.000    0.000 
#    0.000    0.000    0.000    0.000    0.000    0.000 
#
# Total GULP energy -496271.216094 kJ/mol
# GULP energy per Si atom -12406.780402 kJ/mol
# Density = 1.924519 g / cm^3
# Si number density = 19.289092 Si / 1000 Ang^3
#
#
#
# Elastic Constant Matrix: (Units=GPa)
#
#
# Indices 1 2 3 4 5 6 
#
# 1 80.0932 13.9186 8.4225 0.0000 0.0000 0.0000
# 2 13.9186 99.5514 62.8266 0.0000 0.0000 0.0000
# 3 8.4225 62.8266 126.8189 0.0000 0.0000 0.0000
# 4 0.0000 0.0000 0.0000 17.8040 0.0000 0.0000
# 5 0.0000 0.0000 0.0000 0.0000 36.2986 0.0000
# 6 0.0000 0.0000 0.0000 0.0000 0.0000 30.4935
#
#
#
# Elastic Compliance Matrix: (Units=1/GPa)
#
#
# Indices 1 2 3 4 5 6 
#
# 1 0.012797 -0.001823 0.000053 0.000000 0.000000 0.000000
# 2 -0.001823 0.014874 -0.007247 0.000000 0.000000 0.000000
# 3 0.000053 -0.007247 0.011472 0.000000 0.000000 0.000000
# 4 0.000000 0.000000 0.000000 0.056167 0.000000 0.000000
# 5 0.000000 0.000000 0.000000 0.000000 0.027549 0.000000
# 6 0.000000 0.000000 0.000000 0.000000 0.000000 0.032794
#
#
# Mechanical properties :
#
#
# Convention : Reuss Voigt Hill
#
# Bulk Modulus (GPa) = 47.37435 52.97765 50.17600
# Shear Modulus (GPa) = 27.66666 31.67228 29.66947
#
# Velocity S-wave (km/s) = 3.79135 4.05653 3.92618
# Velocity P-wave (km/s) = 6.61659 7.03316 6.82805
#
# Compressibility (1/GPa) = 0.02110847
#
# Stress axis : x y z
#
# Youngs Moduli (GPa) = 78.14571 67.23260 87.16763
#
# Poissons Ratio (x) = 0.12254 -0.00462
# Poissons Ratio (y) = 0.14243 0.63174
# Poissons Ratio (z) = -0.00415 0.48727
#
# Static dielectric constant tensor:
#      x y z
#    x 3.719390 0.000000 0.000000 
#    y 0.000000 3.427020 0.000000 
#    z 0.000000 0.000000 3.503230 
# 
# 
# High freq. dielectric constant tensor:
#      x y z
#    x 1.769540 0.000000 0.000000 
#    y 0.000000 1.735670 0.000000 
#    z 0.000000 0.000000 1.754380 
# 
# From -- ./inp_files/29967.got.cif
#   From: 2010.03.12/outbox.cif.g09.slc.cpg/sg64_15_cif.got.tgz:29967.got - 2010.04.10 20:19:32.
