data_PCOD8263767
_publ_section_title
;
Structure prediction by ZEFSAII (Michael W. Deem and Ramdas Pophale) SiO2 
 PCOD8263767
Probable space group: C M C A
;
_chemical_formula_sum "Si O2"
_cell_formula_units_Z 96
_cell_length_a 14.054907
_cell_length_b 21.055292
_cell_length_c 15.828022
_cell_angle_alpha 90.000000
_cell_angle_beta 90.000000
_cell_angle_gamma 90.000000
_cell_volume 4683.989256
_symmetry_space_group_name_H-M "C M C A"
_symmetry_group_IT_number 64
_symmetry_cell_setting 'orthorhombic'
loop_
_space_group_symop_operation_xyz
x,y,z
-x,1/2-y,1/2+z
x,-y,-z
-x,1/2+y,1/2-z
-x,-y,-z
x,1/2+y,1/2-z
-x,y,z
x,1/2-y,1/2+z
1/2+x,1/2+y,z
1/2-x,-y,1/2+z
1/2+x,1/2-y,-z
1/2-x,y,1/2-z
1/2-x,1/2-y,-z
1/2+x,y,1/2-z
1/2-x,1/2+y,z
1/2+x,-y,1/2+z
loop_
_atom_site_type_symbol
_atom_site_label
_atom_site_fract_x
_atom_site_fract_y
_atom_site_fract_z
Si Si1 0.256459 0.036721 0.121833
Si Si2 0.254882 0.097422 0.947387
Si Si3 0.387640 0.792588 0.454589
Si Si4 0.612776 0.704504 0.611352
Si Si5 0.887842 0.230294 0.281634
Si Si6 0.388007 0.087098 0.255276
O O1 0.345533 0.039493 0.185699
O O2 0.161736 0.071770 0.155786
O O3 0.230195 0.962923 0.110445
O O4 0.290314 0.071712 0.037347
O O5 0.159816 0.138622 0.958584
O O6 0.340141 0.136563 0.904826
O O7 0.500000 0.802800 0.452463
O O8 0.356702 0.751686 0.535833
O O9 0.348592 0.757870 0.369964
O O10 0.500000 0.695208 0.613099
O O11 0.652408 0.731754 0.700371
O O12 0.857860 0.157397 0.273574
O O13 0.000000 0.236457 0.280984
O O14 0.500000 0.077917 0.265135
#
# Coordination Sequence:
#
# PCOD8263767 Si02
#       6
#    16  16  16  16  16  16
#     4  10  24  39  56  86 113 151 204 230 272 355
#     4  11  23  39  56  82 122 154 186 239 288 338
#     4  10  21  37  59  87 116 150 193 240 296 352
#     4  10  21  37  59  87 116 150 193 240 296 352
#     4   9  19  35  58  87 113 144 192 244 293 347
#     4  10  21  41  63  82 113 151 191 242 286 332
#
# _framework density 20.495349999999998
#
# number of rings (size 3 to 8) (size 9 to 14) (size 15 to 20)
#    0.000    2.000    0.000    2.500    0.000   11.333 
#    0.000    5.000    0.000    0.000    0.000    0.000 
#    0.000    0.000    0.000    0.000    0.000    0.000 
#
# Total GULP energy -595313.924988 kJ/mol
# GULP energy per Si atom -12402.373437 kJ/mol
# Density = 2.044870 g / cm^3
# Si number density = 20.495350 Si / 1000 Ang^3
#
#
#
# Elastic Constant Matrix: (Units=GPa)
#
#
# Indices 1 2 3 4 5 6 
#
# 1 53.2304 14.9737 16.5649 0.0000 0.0000 0.0000
# 2 14.9737 125.0182 50.5487 0.0000 0.0000 0.0000
# 3 16.5649 50.5487 135.1401 0.0000 0.0000 0.0000
# 4 0.0000 0.0000 0.0000 33.3553 0.0000 0.0000
# 5 0.0000 0.0000 0.0000 0.0000 22.6026 0.0000
# 6 0.0000 0.0000 0.0000 0.0000 0.0000 28.0409
#
#
#
# Elastic Compliance Matrix: (Units=1/GPa)
#
#
# Indices 1 2 3 4 5 6 
#
# 1 0.019812 -0.001639 -0.001815 0.000000 0.000000 0.000000
# 2 -0.001639 0.009560 -0.003375 0.000000 0.000000 0.000000
# 3 -0.001815 -0.003375 0.008885 0.000000 0.000000 0.000000
# 4 0.000000 0.000000 0.000000 0.029980 0.000000 0.000000
# 5 0.000000 0.000000 0.000000 0.000000 0.044243 0.000000
# 6 0.000000 0.000000 0.000000 0.000000 0.000000 0.035662
#
#
# Mechanical properties :
#
#
# Convention : Reuss Voigt Hill
#
# Bulk Modulus (GPa) = 40.65361 53.06255 46.85808
# Shear Modulus (GPa) = 29.41182 32.21984 30.81583
#
# Velocity S-wave (km/s) = 3.79231 3.96922 3.88177
# Velocity P-wave (km/s) = 6.24933 6.85219 6.55769
#
# Compressibility (1/GPa) = 0.02459806
#
# Stress axis : x y z
#
# Youngs Moduli (GPa) = 50.47382 104.60580 112.55397
#
# Poissons Ratio (x) = 0.17144 0.20434
# Poissons Ratio (y) = 0.08272 0.37986
# Poissons Ratio (z) = 0.09163 0.35303
#
# Static dielectric constant tensor:
#      x y z
#    x 3.579950 0.000000 0.000000 
#    y 0.000000 3.707480 0.000000 
#    z 0.000000 0.000000 4.048730 
# 
# 
# High freq. dielectric constant tensor:
#      x y z
#    x 1.802780 0.000000 0.000000 
#    y 0.000000 1.797590 0.000000 
#    z 0.000000 0.000000 1.816640 
# 
# From -- ./inp_files/23946.got.cif
#   From: 2010.03.12/outbox.cif.g09.slc.cpg/sg64_12_cif.got.tgz:23946.got - 2010.04.10 20:19:32.
