data_PCOD8263618
_publ_section_title
;
Structure prediction by ZEFSAII (Michael W. Deem and Ramdas Pophale) SiO2 
 PCOD8263618
Probable space group: C M C A
;
_chemical_formula_sum "Si O2"
_cell_formula_units_Z 64
_cell_length_a 11.965269
_cell_length_b 16.668611
_cell_length_c 16.753705
_cell_angle_alpha 90.000000
_cell_angle_beta 90.000000
_cell_angle_gamma 90.000000
_cell_volume 3341.432884
_symmetry_space_group_name_H-M "C M C A"
_symmetry_group_IT_number 64
_symmetry_cell_setting 'orthorhombic'
loop_
_space_group_symop_operation_xyz
x,y,z
-x,1/2-y,1/2+z
x,-y,-z
-x,1/2+y,1/2-z
-x,-y,-z
x,1/2+y,1/2-z
-x,y,z
x,1/2-y,1/2+z
1/2+x,1/2+y,z
1/2-x,-y,1/2+z
1/2+x,1/2-y,-z
1/2-x,y,1/2-z
1/2-x,1/2-y,-z
1/2+x,y,1/2-z
1/2-x,1/2+y,z
1/2+x,-y,1/2+z
loop_
_atom_site_type_symbol
_atom_site_label
_atom_site_fract_x
_atom_site_fract_y
_atom_site_fract_z
Si Si1 0.000000 0.066645 0.106607
Si Si2 0.123536 0.592577 0.015182
Si Si3 0.266938 0.698895 0.920086
Si Si4 0.225089 0.853766 0.839973
Si Si5 0.500000 0.887055 0.423622
O O1 0.894308 0.109110 0.144081
O O2 0.000000 0.970846 0.126030
O O3 0.000000 0.084966 0.013847
O O4 0.185745 0.609730 0.098242
O O5 0.000000 0.631437 0.021308
O O6 0.114487 0.500000 0.000000
O O7 0.185455 0.623950 0.935005
O O8 0.227668 0.756297 0.847742
O O9 0.392231 0.667401 0.904344
O O10 0.250000 0.750000 0.000000
O O11 0.250000 0.878605 0.750000
#
# Coordination Sequence:
#
# PCOD8263618 Si02
#       5
#     8  16  16  16   8
#     4  11  22  39  66  88 117 163 209 248 291 370
#     4  10  21  38  62  88 118 158 203 249 296 355
#     4  10  21  34  62  88 118 155 198 255 289 359
#     4  11  25  38  61  89 126 157 197 246 313 362
#     4  11  20  39  64  92 114 157 219 252 290 344
#
# _framework density 19.153459999999999
#
# number of rings (size 3 to 8) (size 9 to 14) (size 15 to 20)
#    0.000    1.500    5.000    1.500   10.500    0.000 
#    0.000    5.000    0.000    0.000    0.000    0.000 
#    0.000    0.000    0.000    0.000    0.000    0.000 
#
# Total GULP energy -396573.428500 kJ/mol
# GULP energy per Si atom -12392.919641 kJ/mol
# Density = 1.910987 g / cm^3
# Si number density = 19.153460 Si / 1000 Ang^3
#
#
#
# Elastic Constant Matrix: (Units=GPa)
#
#
# Indices 1 2 3 4 5 6 
#
# 1 197.1043 73.5877 49.8892 0.0000 0.0000 0.0000
# 2 73.5877 114.8643 27.4172 0.0000 0.0000 0.0000
# 3 49.8892 27.4172 78.6589 0.0000 0.0000 0.0000
# 4 0.0000 0.0000 0.0000 17.0766 0.0000 0.0000
# 5 0.0000 0.0000 0.0000 0.0000 -5.5526 0.0000
# 6 0.0000 0.0000 0.0000 0.0000 0.0000 54.5306
#
#
#
# Elastic Compliance Matrix: (Units=1/GPa)
#
#
# Indices 1 2 3 4 5 6 
#
# 1 0.007382 -0.003939 -0.003309 0.000000 0.000000 0.000000
# 2 -0.003939 0.011598 -0.001544 0.000000 0.000000 0.000000
# 3 -0.003309 -0.001544 0.015350 0.000000 0.000000 0.000000
# 4 0.000000 0.000000 0.000000 0.058560 0.000000 0.000000
# 5 0.000000 0.000000 0.000000 0.000000 -0.180097 0.000000
# 6 0.000000 0.000000 0.000000 0.000000 0.000000 0.018338
#
#
# Mechanical properties :
#
#
# Convention : Reuss Voigt Hill
#
# Bulk Modulus (GPa) = 59.71783 76.93505 68.32644
# Shear Modulus (GPa) = -109.40207 29.19315 -40.10446
#
# Velocity S-wave (km/s) = -7.56589 3.90830 -4.58082
# Velocity P-wave (km/s) = 6.71396 7.78597 2.78783
#
# Compressibility (1/GPa) = 0.01674542
#
# Stress axis : x y z
#
# Youngs Moduli (GPa) = 135.47138 86.22031 65.14698
#
# Poissons Ratio (x) = 0.33965 0.21555
# Poissons Ratio (y) = 0.53366 0.10060
# Poissons Ratio (z) = 0.44824 0.13314
#
# Static dielectric constant tensor:
#      x y z
#    x 4.113700 0.000000 0.000000 
#    y 0.000000 4.335770 0.000000 
#    z 0.000000 0.000000 3.531430 
# 
# 
# High freq. dielectric constant tensor:
#      x y z
#    x 1.761550 0.000000 0.000000 
#    y 0.000000 1.764010 0.000000 
#    z 0.000000 0.000000 1.706310 
# 
# From -- ./inp_files/21994.got.cif
#   From: 2010.03.12/outbox.cif.g09.slc.cpg/sg64_11_cif.got.tgz:21994.got - 2010.04.10 20:19:32.
