data_PCOD8263148
_publ_section_title
;
Structure prediction by ZEFSAII (Michael W. Deem and Ramdas Pophale) SiO2 
 PCOD8263148
Probable space group: C M C A
;
_chemical_formula_sum "Si O2"
_cell_formula_units_Z 96
_cell_length_a 24.751726
_cell_length_b 21.684856
_cell_length_c 8.865401
_cell_angle_alpha 90.000000
_cell_angle_beta 90.000000
_cell_angle_gamma 90.000000
_cell_volume 4758.394180
_symmetry_space_group_name_H-M "C M C A"
_symmetry_group_IT_number 64
_symmetry_cell_setting 'orthorhombic'
loop_
_space_group_symop_operation_xyz
x,y,z
-x,1/2-y,1/2+z
x,-y,-z
-x,1/2+y,1/2-z
-x,-y,-z
x,1/2+y,1/2-z
-x,y,z
x,1/2-y,1/2+z
1/2+x,1/2+y,z
1/2-x,-y,1/2+z
1/2+x,1/2-y,-z
1/2-x,y,1/2-z
1/2-x,1/2-y,-z
1/2+x,y,1/2-z
1/2-x,1/2+y,z
1/2+x,-y,1/2+z
loop_
_atom_site_type_symbol
_atom_site_label
_atom_site_fract_x
_atom_site_fract_y
_atom_site_fract_z
Si Si1 0.900943 0.317721 0.387487
Si Si2 0.258611 0.061697 0.072598
Si Si3 0.789932 0.263043 0.366533
Si Si4 0.438407 0.200940 0.953175
Si Si5 0.638616 0.571010 0.036702
Si Si6 0.150111 0.858917 0.656502
O O1 0.837482 0.307550 0.415946
O O2 0.919558 0.306769 0.218014
O O3 0.933968 0.272850 0.499529
O O4 0.904433 0.389247 0.437579
O O5 0.250000 0.052588 0.250000
O O6 0.201950 0.080805 0.993949
O O7 0.306179 0.110604 0.043460
O O8 0.281345 0.000000 0.000000
O O9 0.750000 0.296103 0.250000
O O10 0.750000 0.250000 0.500000
O O11 0.819068 0.203086 0.288381
O O12 0.500000 0.179249 0.967668
O O13 0.403068 0.158289 0.062225
O O14 0.632285 0.594308 0.210463
O O15 0.622957 0.500000 0.000000
#
# Coordination Sequence:
#
# PCOD8263148 Si02
#       6
#    16  16  16  16  16  16
#     4  11  22  38  60  88 117 153 197 242 302 365
#     4   9  18  32  53  83 121 161 194 228 278 348
#     4  11  19  31  53  84 121 152 183 234 295 358
#     4  11  24  41  64  88 113 150 198 260 315 355
#     4  10  21  38  60  87 124 164 198 234 287 363
#     4  10  20  36  57  84 118 156 197 241 295 353
#
# _framework density 20.174872000000001
#
# number of rings (size 3 to 8) (size 9 to 14) (size 15 to 20)
#    0.000    1.667    0.000    8.000    0.000    4.000 
#    0.000    4.167    0.000    8.000    0.000    0.000 
#    0.000    0.000    0.000    0.000    0.000    0.000 
#
# Total GULP energy -594687.088665 kJ/mol
# GULP energy per Si atom -12389.314347 kJ/mol
# Density = 2.012895 g / cm^3
# Si number density = 20.174872 Si / 1000 Ang^3
#
#
#
# Elastic Constant Matrix: (Units=GPa)
#
#
# Indices 1 2 3 4 5 6 
#
# 1 114.8905 33.6326 39.9190 0.0000 0.0000 0.0000
# 2 33.6326 123.7541 40.4462 0.0000 0.0000 0.0000
# 3 39.9190 40.4462 92.2966 0.0000 0.0000 0.0000
# 4 0.0000 0.0000 0.0000 36.2919 0.0000 0.0000
# 5 0.0000 0.0000 0.0000 0.0000 19.4019 0.0000
# 6 0.0000 0.0000 0.0000 0.0000 0.0000 14.4369
#
#
#
# Elastic Compliance Matrix: (Units=1/GPa)
#
#
# Indices 1 2 3 4 5 6 
#
# 1 0.010508 -0.001599 -0.003844 0.000000 0.000000 0.000000
# 2 -0.001599 0.009675 -0.003548 0.000000 0.000000 0.000000
# 3 -0.003844 -0.003548 0.014052 0.000000 0.000000 0.000000
# 4 0.000000 0.000000 0.000000 0.027554 0.000000 0.000000
# 5 0.000000 0.000000 0.000000 0.000000 0.051541 0.000000
# 6 0.000000 0.000000 0.000000 0.000000 0.000000 0.069267
#
#
# Mechanical properties :
#
#
# Convention : Reuss Voigt Hill
#
# Bulk Modulus (GPa) = 61.53045 62.10410 61.81728
# Shear Modulus (GPa) = 24.27227 28.48902 26.38065
#
# Velocity S-wave (km/s) = 3.47233 3.76187 3.62000
# Velocity P-wave (km/s) = 6.82941 7.05115 6.94116
#
# Compressibility (1/GPa) = 0.01625212
#
# Stress axis : x y z
#
# Youngs Moduli (GPa) = 95.16851 103.36157 71.16497
#
# Poissons Ratio (x) = 0.16532 0.27354
# Poissons Ratio (y) = 0.15221 0.25249
# Poissons Ratio (z) = 0.36580 0.36672
#
# Static dielectric constant tensor:
#      x y z
#    x 3.686170 0.000000 0.000000 
#    y 0.000000 3.891010 0.000000 
#    z 0.000000 0.000000 3.391130 
# 
# 
# High freq. dielectric constant tensor:
#      x y z
#    x 1.772650 0.000000 0.000000 
#    y 0.000000 1.779930 0.000000 
#    z 0.000000 0.000000 1.786860 
# 
# From -- ./inp_files/10377.got.cif
#   From: 2010.03.12/outbox.cif.g09.slc.cpg/sg64_6_cif.got.tgz:10377.got - 2010.04.10 20:19:32.
