data_PCOD8263750
_publ_section_title
;
Structure prediction by ZEFSAII (Michael W. Deem and Ramdas Pophale) SiO2 
 PCOD8263750
Probable space group: C M C A
;
_chemical_formula_sum "Si O2"
_cell_formula_units_Z 80
_cell_length_a 14.645821
_cell_length_b 28.309859
_cell_length_c 9.652161
_cell_angle_alpha 90.000000
_cell_angle_beta 90.000000
_cell_angle_gamma 90.000000
_cell_volume 4001.989876
_symmetry_space_group_name_H-M "C M C A"
_symmetry_group_IT_number 64
_symmetry_cell_setting 'orthorhombic'
loop_
_space_group_symop_operation_xyz
x,y,z
-x,1/2-y,1/2+z
x,-y,-z
-x,1/2+y,1/2-z
-x,-y,-z
x,1/2+y,1/2-z
-x,y,z
x,1/2-y,1/2+z
1/2+x,1/2+y,z
1/2-x,-y,1/2+z
1/2+x,1/2-y,-z
1/2-x,y,1/2-z
1/2-x,1/2-y,-z
1/2+x,y,1/2-z
1/2-x,1/2+y,z
1/2+x,-y,1/2+z
loop_
_atom_site_type_symbol
_atom_site_label
_atom_site_fract_x
_atom_site_fract_y
_atom_site_fract_z
Si Si1 0.265477 0.385382 0.098203
Si Si2 0.605240 0.369865 0.578475
Si Si3 0.892932 0.283371 0.734724
Si Si4 0.711119 0.541952 0.397961
Si Si5 0.608945 0.700991 0.928030
O O1 0.250000 0.407634 0.250000
O O2 0.349776 0.349892 0.105396
O O3 0.170484 0.359118 0.053472
O O4 0.285804 0.427258 0.986398
O O5 0.500000 0.363523 0.534055
O O6 0.634104 0.333575 0.698918
O O7 0.624352 0.423553 0.631920
O O8 0.856274 0.282117 0.578743
O O9 0.851542 0.239497 0.820409
O O10 0.000000 0.276949 0.738110
O O11 0.679482 0.500000 0.500000
O O12 0.750000 0.524051 0.250000
O O13 0.500000 0.695954 0.924121
#
# Coordination Sequence:
#
# PCOD8263750 Si02
#       5
#    16  16  16  16  16
#     4  10  23  38  57  90 112 157 199 240 296 343
#     4   9  21  39  61  85 119 156 198 237 290 354
#     4   9  19  35  56  84 117 158 195 241 290 340
#     4  10  21  39  65  87 120 151 191 244 298 349
#     4  10  21  37  58  84 121 157 198 244 295 348
#
# _framework density 19.990055999999999
#
# number of rings (size 3 to 8) (size 9 to 14) (size 15 to 20)
#    1.200    1.200    0.000    1.800    2.800    2.000 
#    0.000    0.000    0.000    1.200    0.000    0.000 
#    0.000    0.000    0.000    0.000    0.000    0.000 
#
# Total GULP energy -495585.860013 kJ/mol
# GULP energy per Si atom -12389.646500 kJ/mol
# Density = 1.994456 g / cm^3
# Si number density = 19.990056 Si / 1000 Ang^3
#
#
#
# Elastic Constant Matrix: (Units=GPa)
#
#
# Indices 1 2 3 4 5 6 
#
# 1 47.0871 7.0177 13.0674 0.0000 0.0000 0.0000
# 2 7.0177 105.6959 29.5740 0.0000 0.0000 0.0000
# 3 13.0674 29.5740 135.3583 0.0000 0.0000 0.0000
# 4 0.0000 0.0000 0.0000 27.0880 0.0000 0.0000
# 5 0.0000 0.0000 0.0000 0.0000 20.4636 0.0000
# 6 0.0000 0.0000 0.0000 0.0000 0.0000 25.4696
#
#
#
# Elastic Compliance Matrix: (Units=1/GPa)
#
#
# Indices 1 2 3 4 5 6 
#
# 1 0.021905 -0.000919 -0.001914 0.000000 0.000000 0.000000
# 2 -0.000919 0.010116 -0.002121 0.000000 0.000000 0.000000
# 3 -0.001914 -0.002121 0.008036 0.000000 0.000000 0.000000
# 4 0.000000 0.000000 0.000000 0.036917 0.000000 0.000000
# 5 0.000000 0.000000 0.000000 0.000000 0.048867 0.000000
# 6 0.000000 0.000000 0.000000 0.000000 0.000000 0.039262
#
#
# Mechanical properties :
#
#
# Convention : Reuss Voigt Hill
#
# Bulk Modulus (GPa) = 33.16909 43.05107 38.11008
# Shear Modulus (GPa) = 27.01804 30.50306 28.76055
#
# Velocity S-wave (km/s) = 3.68036 3.91053 3.79719
# Velocity P-wave (km/s) = 5.88973 6.47863 6.19119
#
# Compressibility (1/GPa) = 0.03014855
#
# Stress axis : x y z
#
# Youngs Moduli (GPa) = 45.65097 98.85627 124.43872
#
# Poissons Ratio (x) = 0.09084 0.23817
# Poissons Ratio (y) = 0.04195 0.26399
# Poissons Ratio (z) = 0.08737 0.20972
#
# Static dielectric constant tensor:
#      x y z
#    x 3.239240 0.000000 0.000000 
#    y 0.000000 3.513770 0.000000 
#    z 0.000000 0.000000 3.871820 
# 
# 
# High freq. dielectric constant tensor:
#      x y z
#    x 1.749630 0.000000 0.000000 
#    y 0.000000 1.772830 0.000000 
#    z 0.000000 0.000000 1.790580 
# 
# From -- ./inp_files/7269.got.cif
#   From: 2010.03.12/outbox.cif.g09.slc.cpg/sg64_4_cif.got.tgz:7269.got - 2010.04.10 20:19:32.
