data_PCOD8263638
_publ_section_title
;
Structure prediction by ZEFSAII (Michael W. Deem and Ramdas Pophale) SiO2 
 PCOD8263638
Probable space group: C M C A
;
_chemical_formula_sum "Si O2"
_cell_formula_units_Z 104
_cell_length_a 9.659725
_cell_length_b 27.540648
_cell_length_c 18.734832
_cell_angle_alpha 90.000000
_cell_angle_beta 90.000000
_cell_angle_gamma 90.000000
_cell_volume 4984.122642
_symmetry_space_group_name_H-M "C M C A"
_symmetry_group_IT_number 64
_symmetry_cell_setting 'orthorhombic'
loop_
_space_group_symop_operation_xyz
x,y,z
-x,1/2-y,1/2+z
x,-y,-z
-x,1/2+y,1/2-z
-x,-y,-z
x,1/2+y,1/2-z
-x,y,z
x,1/2-y,1/2+z
1/2+x,1/2+y,z
1/2-x,-y,1/2+z
1/2+x,1/2-y,-z
1/2-x,y,1/2-z
1/2-x,1/2-y,-z
1/2+x,y,1/2-z
1/2-x,1/2+y,z
1/2+x,-y,1/2+z
loop_
_atom_site_type_symbol
_atom_site_label
_atom_site_fract_x
_atom_site_fract_y
_atom_site_fract_z
Si Si1 0.158466 0.008332 0.082840
Si Si2 0.345595 0.401412 0.119253
Si Si3 0.347763 0.763739 0.149294
Si Si4 0.338288 0.834600 0.027930
Si Si5 0.337828 0.571310 0.318328
Si Si6 0.250000 0.342852 0.250000
Si Si7 0.657948 0.178583 0.132475
O O1 0.268183 0.047411 0.112119
O O2 0.000000 0.026898 0.092977
O O3 0.182937 0.958634 0.126450
O O4 0.190941 0.000000 0.000000
O O5 0.500000 0.392526 0.089524
O O6 0.240437 0.379990 0.061808
O O7 0.335419 0.377167 0.197013
O O8 0.500000 0.740509 0.146688
O O9 0.305971 0.785638 0.072153
O O10 0.351413 0.807944 0.205476
O O11 0.242701 0.721242 0.171474
O O12 0.500000 0.847742 0.029497
O O13 0.284613 0.827578 0.947697
O O14 0.500000 0.556123 0.312059
O O15 0.250000 0.553668 0.250000
O O16 0.324585 0.629185 0.324098
O O17 0.500000 0.195954 0.130997
#
# Coordination Sequence:
#
# PCOD8263638 Si02
#       7
#    16  16  16  16  16   8  16
#     4  10  22  41  66  97 128 159 202 255 309 369
#     4  10  21  37  61  89 120 157 196 243 299 353
#     4  10  21  35  56  84 115 153 199 249 298 350
#     4   9  19  37  58  87 121 154 196 246 299 358
#     4  11  25  43  62  89 123 164 209 255 307 366
#     4  10  22  38  54  84 120 156 202 240 294 362
#     4  10  22  39  60  84 117 158 201 248 301 360
#
# _framework density 20.866261000000002
#
# number of rings (size 3 to 8) (size 9 to 14) (size 15 to 20)
#    0.000    2.000    0.000    2.308    2.154    6.462 
#    0.000    0.000    0.000    0.000    0.000    0.000 
#    0.000    0.000    0.000    0.000    0.000    0.000 
#
# Total GULP energy -644892.964244 kJ/mol
# GULP energy per Si atom -12401.787774 kJ/mol
# Density = 2.081877 g / cm^3
# Si number density = 20.866261 Si / 1000 Ang^3
#
#
#
# Elastic Constant Matrix: (Units=GPa)
#
#
# Indices 1 2 3 4 5 6 
#
# 1 108.2655 48.9631 30.5401 0.0000 0.0000 0.0000
# 2 48.9631 85.1374 23.1310 0.0000 0.0000 0.0000
# 3 30.5401 23.1310 89.3578 0.0000 0.0000 0.0000
# 4 0.0000 0.0000 0.0000 24.9382 0.0000 0.0000
# 5 0.0000 0.0000 0.0000 0.0000 26.4604 0.0000
# 6 0.0000 0.0000 0.0000 0.0000 0.0000 36.2445
#
#
#
# Elastic Compliance Matrix: (Units=1/GPa)
#
#
# Indices 1 2 3 4 5 6 
#
# 1 0.013067 -0.006778 -0.002711 0.000000 0.000000 0.000000
# 2 -0.006778 0.016150 -0.001864 0.000000 0.000000 0.000000
# 3 -0.002711 -0.001864 0.012600 0.000000 0.000000 0.000000
# 4 0.000000 0.000000 0.000000 0.040099 0.000000 0.000000
# 5 0.000000 0.000000 0.000000 0.000000 0.037792 0.000000
# 6 0.000000 0.000000 0.000000 0.000000 0.000000 0.027590
#
#
# Mechanical properties :
#
#
# Convention : Reuss Voigt Hill
#
# Bulk Modulus (GPa) = 52.32798 54.22546 53.27672
# Shear Modulus (GPa) = 28.34850 29.53705 28.94277
#
# Velocity S-wave (km/s) = 3.68989 3.76645 3.72837
# Velocity P-wave (km/s) = 6.57921 6.70510 6.64245
#
# Compressibility (1/GPa) = 0.01911023
#
# Stress axis : x y z
#
# Youngs Moduli (GPa) = 76.52981 61.91826 79.36417
#
# Poissons Ratio (x) = 0.41969 0.21518
# Poissons Ratio (y) = 0.51873 0.14794
# Poissons Ratio (z) = 0.20750 0.11542
#
# Static dielectric constant tensor:
#      x y z
#    x 3.711750 0.000000 0.000000 
#    y 0.000000 3.647640 0.000000 
#    z 0.000000 0.000000 3.832770 
# 
# 
# High freq. dielectric constant tensor:
#      x y z
#    x 1.814700 0.000000 0.000000 
#    y 0.000000 1.812550 0.000000 
#    z 0.000000 0.000000 1.822190 
# 
# From -- ./inp_files/37252.got.cif
#   From: 2010.03.12/outbox.cif.g09.slc.cpg/sg64_19_cif.got.tgz:37252.got - 2010.04.10 20:19:32.
