data_PCOD8263336
_publ_section_title
;
Structure prediction by ZEFSAII (Michael W. Deem and Ramdas Pophale) SiO2 
 PCOD8263336
Probable space group: C M C A
;
_chemical_formula_sum "Si O2"
_cell_formula_units_Z 96
_cell_length_a 18.296208
_cell_length_b 29.104028
_cell_length_c 9.229639
_cell_angle_alpha 90.000000
_cell_angle_beta 90.000000
_cell_angle_gamma 90.000000
_cell_volume 4914.721390
_symmetry_space_group_name_H-M "C M C A"
_symmetry_group_IT_number 64
_symmetry_cell_setting 'orthorhombic'
loop_
_space_group_symop_operation_xyz
x,y,z
-x,1/2-y,1/2+z
x,-y,-z
-x,1/2+y,1/2-z
-x,-y,-z
x,1/2+y,1/2-z
-x,y,z
x,1/2-y,1/2+z
1/2+x,1/2+y,z
1/2-x,-y,1/2+z
1/2+x,1/2-y,-z
1/2-x,y,1/2-z
1/2-x,1/2-y,-z
1/2+x,y,1/2-z
1/2-x,1/2+y,z
1/2+x,-y,1/2+z
loop_
_atom_site_type_symbol
_atom_site_label
_atom_site_fract_x
_atom_site_fract_y
_atom_site_fract_z
Si Si1 0.665717 0.877763 0.718329
Si Si2 0.413844 0.713708 0.714745
Si Si3 0.086998 0.368960 0.019084
Si Si4 0.321795 0.017009 0.340608
Si Si5 0.586146 0.533030 0.625682
Si Si6 0.413047 0.196737 0.457480
O O1 0.750000 0.866345 0.750000
O O2 0.654472 0.930041 0.668018
O O3 0.633189 0.847674 0.587721
O O4 0.619561 0.865719 0.859830
O O5 0.500000 0.709948 0.707578
O O6 0.381720 0.672480 0.616849
O O7 0.388838 0.762207 0.649092
O O8 0.387725 0.709767 0.880258
O O9 0.114150 0.415620 0.095365
O O10 0.000000 0.367191 0.003001
O O11 0.250000 0.007452 0.250000
O O12 0.305068 0.000000 0.500000
O O13 0.386068 0.984903 0.279533
O O14 0.617294 0.500000 0.500000
O O15 0.500000 0.531625 0.629775
O O16 0.500000 0.186931 0.449608
#
# Coordination Sequence:
#
# PCOD8263336 Si02
#       6
#    16  16  16  16  16  16
#     4  11  24  39  57  87 120 155 198 244 293 355
#     4   9  19  36  63  92 115 153 199 241 291 356
#     4  10  20  38  63  87 118 155 193 242 295 349
#     4  11  25  41  61  83 118 164 204 244 297 363
#     4  10  20  37  61  90 120 152 195 246 300 355
#     4  10  20  38  62  88 119 153 198 245 294 350
#
# _framework density 19.533151
#
# number of rings (size 3 to 8) (size 9 to 14) (size 15 to 20)
#    0.000    1.833    1.667    2.000    4.667    3.667 
#    0.000    4.167    0.000    0.000    0.000    0.000 
#    0.000    0.000    0.000    0.000    0.000    0.000 
#
# Total GULP energy -595321.082186 kJ/mol
# GULP energy per Si atom -12402.522546 kJ/mol
# Density = 1.948869 g / cm^3
# Si number density = 19.533151 Si / 1000 Ang^3
#
#
#
# Elastic Constant Matrix: (Units=GPa)
#
#
# Indices 1 2 3 4 5 6 
#
# 1 23.0996 21.6711 20.1113 0.0000 0.0000 0.0000
# 2 21.6711 95.9869 50.6234 0.0000 0.0000 0.0000
# 3 20.1113 50.6234 148.0734 0.0000 0.0000 0.0000
# 4 0.0000 0.0000 0.0000 41.4526 0.0000 0.0000
# 5 0.0000 0.0000 0.0000 0.0000 22.6684 0.0000
# 6 0.0000 0.0000 0.0000 0.0000 0.0000 17.2861
#
#
#
# Elastic Compliance Matrix: (Units=1/GPa)
#
#
# Indices 1 2 3 4 5 6 
#
# 1 0.056864 -0.010693 -0.004067 0.000000 0.000000 0.000000
# 2 -0.010693 0.014721 -0.003580 0.000000 0.000000 0.000000
# 3 -0.004067 -0.003580 0.008530 0.000000 0.000000 0.000000
# 4 0.000000 0.000000 0.000000 0.024124 0.000000 0.000000
# 5 0.000000 0.000000 0.000000 0.000000 0.044114 0.000000
# 6 0.000000 0.000000 0.000000 0.000000 0.000000 0.057850
#
#
# Mechanical properties :
#
#
# Convention : Reuss Voigt Hill
#
# Bulk Modulus (GPa) = 23.02424 50.21908 36.62166
# Shear Modulus (GPa) = 19.42791 27.93169 23.67980
#
# Velocity S-wave (km/s) = 3.15717 3.78559 3.48557
# Velocity P-wave (km/s) = 5.01030 6.69873 5.91507
#
# Compressibility (1/GPa) = 0.04343249
#
# Stress axis : x y z
#
# Youngs Moduli (GPa) = 17.58588 67.93222 117.23463
#
# Poissons Ratio (x) = 0.72640 0.47685
# Poissons Ratio (y) = 0.18805 0.41974
# Poissons Ratio (z) = 0.07153 0.24322
#
# Static dielectric constant tensor:
#      x y z
#    x 3.308430 0.000000 0.000000 
#    y 0.000000 3.876390 0.000000 
#    z 0.000000 0.000000 2.310750 
# 
# 
# High freq. dielectric constant tensor:
#      x y z
#    x 1.735810 0.000000 0.000000 
#    y 0.000000 1.775420 0.000000 
#    z 0.000000 0.000000 1.768850 
# 
# From -- ./inp_files/8374.got.cif
#   From: 2010.03.12/outbox.cif.g09.slc.cpg/sg64_5_cif.got.tgz:8374.got - 2010.04.10 20:19:32.
