data_PCOD8263262
_publ_section_title
;
Structure prediction by ZEFSAII (Michael W. Deem and Ramdas Pophale) SiO2 
 PCOD8263262
Probable space group: C M C A
;
_chemical_formula_sum "Si O2"
_cell_formula_units_Z 64
_cell_length_a 19.740095
_cell_length_b 8.767805
_cell_length_c 17.763472
_cell_angle_alpha 90.000000
_cell_angle_beta 90.000000
_cell_angle_gamma 90.000000
_cell_volume 3074.453837
_symmetry_space_group_name_H-M "C M C A"
_symmetry_group_IT_number 64
_symmetry_cell_setting 'orthorhombic'
loop_
_space_group_symop_operation_xyz
x,y,z
-x,1/2-y,1/2+z
x,-y,-z
-x,1/2+y,1/2-z
-x,-y,-z
x,1/2+y,1/2-z
-x,y,z
x,1/2-y,1/2+z
1/2+x,1/2+y,z
1/2-x,-y,1/2+z
1/2+x,1/2-y,-z
1/2-x,y,1/2-z
1/2-x,1/2-y,-z
1/2+x,y,1/2-z
1/2-x,1/2+y,z
1/2+x,-y,1/2+z
loop_
_atom_site_type_symbol
_atom_site_label
_atom_site_fract_x
_atom_site_fract_y
_atom_site_fract_z
Si Si1 0.796284 0.140299 0.049450
Si Si2 0.073712 0.322478 0.642823
Si Si3 0.117836 0.112404 0.770637
Si Si4 0.703225 0.873187 0.814000
O O1 0.864662 0.215053 0.084958
O O2 0.747222 0.077827 0.114533
O O3 0.750000 0.250000 0.000000
O O4 0.821821 0.000000 0.000000
O O5 0.071115 0.203380 0.711834
O O6 0.079010 0.492864 0.676839
O O7 0.000000 0.310403 0.602122
O O8 0.149786 0.236634 0.828993
O O9 0.171899 0.027338 0.718181
O O10 0.750000 0.799140 0.750000
#
# Coordination Sequence:
#
# PCOD8263262 Si02
#       4
#    16  16  16  16
#     4  12  25  38  59  91 123 160 203 252 310 367
#     4  11  23  39  60  88 127 163 203 252 310 375
#     4  10  20  36  64  94 114 155 205 260 308 352
#     4  11  20  36  66  88 121 151 206 265 303 348
#
# _framework density 20.816704999999999
#
# number of rings (size 3 to 8) (size 9 to 14) (size 15 to 20)
#    0.000    1.000    5.000    4.500    0.000    0.500 
#    0.000    0.000    0.000    8.250    0.000    0.000 
#    0.000    0.000    0.000    0.000    0.000    0.000 
#
# Total GULP energy -396534.791347 kJ/mol
# GULP energy per Si atom -12391.712230 kJ/mol
# Density = 2.076933 g / cm^3
# Si number density = 20.816705 Si / 1000 Ang^3
#
#
#
# Elastic Constant Matrix: (Units=GPa)
#
#
# Indices 1 2 3 4 5 6 
#
# 1 144.1946 25.5281 42.3780 0.0000 0.0000 0.0000
# 2 25.5281 82.2097 10.5126 0.0000 0.0000 0.0000
# 3 42.3780 10.5126 82.2456 0.0000 0.0000 0.0000
# 4 0.0000 0.0000 0.0000 28.6650 0.0000 0.0000
# 5 0.0000 0.0000 0.0000 0.0000 23.7317 0.0000
# 6 0.0000 0.0000 0.0000 0.0000 0.0000 9.9168
#
#
#
# Elastic Compliance Matrix: (Units=1/GPa)
#
#
# Indices 1 2 3 4 5 6 
#
# 1 0.008521 -0.002119 -0.004120 0.000000 0.000000 0.000000
# 2 -0.002119 0.012893 -0.000556 0.000000 0.000000 0.000000
# 3 -0.004120 -0.000556 0.014352 0.000000 0.000000 0.000000
# 4 0.000000 0.000000 0.000000 0.034886 0.000000 0.000000
# 5 0.000000 0.000000 0.000000 0.000000 0.042138 0.000000
# 6 0.000000 0.000000 0.000000 0.000000 0.000000 0.100839
#
#
# Mechanical properties :
#
#
# Convention : Reuss Voigt Hill
#
# Bulk Modulus (GPa) = 45.09208 51.72081 48.40645
# Shear Modulus (GPa) = 21.31188 27.81144 24.56166
#
# Velocity S-wave (km/s) = 3.20314 3.65912 3.43870
# Velocity P-wave (km/s) = 5.94884 6.53850 6.25062
#
# Compressibility (1/GPa) = 0.02217684
#
# Stress axis : x y z
#
# Youngs Moduli (GPa) = 117.35705 77.56036 69.67430
#
# Poissons Ratio (x) = 0.16436 0.28704
# Poissons Ratio (y) = 0.24870 0.03874
# Poissons Ratio (z) = 0.48347 0.04313
#
# Static dielectric constant tensor:
#      x y z
#    x 3.703240 0.000000 0.000000 
#    y 0.000000 3.780850 0.000000 
#    z 0.000000 0.000000 3.418250 
# 
# 
# High freq. dielectric constant tensor:
#      x y z
#    x 1.807950 0.000000 0.000000 
#    y 0.000000 1.825050 0.000000 
#    z 0.000000 0.000000 1.792520 
# 
# From -- ./inp_files/33862.got.cif
#   From: 2010.03.12/outbox.cif.g09.slc.cpg/sg64_17_cif.got.tgz:33862.got - 2010.04.10 20:19:32.
