data_PCOD8263861
_publ_section_title
;
Structure prediction by ZEFSAII (Michael W. Deem and Ramdas Pophale) SiO2 
 PCOD8263861
Probable space group: C M C A
;
_chemical_formula_sum "Si O2"
_cell_formula_units_Z 80
_cell_length_a 8.841244
_cell_length_b 14.881816
_cell_length_c 29.596727
_cell_angle_alpha 90.000000
_cell_angle_beta 90.000000
_cell_angle_gamma 90.000000
_cell_volume 3894.152845
_symmetry_space_group_name_H-M "C M C A"
_symmetry_group_IT_number 64
_symmetry_cell_setting 'orthorhombic'
loop_
_space_group_symop_operation_xyz
x,y,z
-x,1/2-y,1/2+z
x,-y,-z
-x,1/2+y,1/2-z
-x,-y,-z
x,1/2+y,1/2-z
-x,y,z
x,1/2-y,1/2+z
1/2+x,1/2+y,z
1/2-x,-y,1/2+z
1/2+x,1/2-y,-z
1/2-x,y,1/2-z
1/2-x,1/2-y,-z
1/2+x,y,1/2-z
1/2-x,1/2+y,z
1/2+x,-y,1/2+z
loop_
_atom_site_type_symbol
_atom_site_label
_atom_site_fract_x
_atom_site_fract_y
_atom_site_fract_z
Si Si1 0.675258 0.147773 0.107451
Si Si2 0.325237 0.849146 0.207253
Si Si3 0.825888 0.006274 0.947008
Si Si4 0.675161 0.843831 0.792218
Si Si5 0.176955 0.841093 0.391791
O O1 0.500000 0.142845 0.093341
O O2 0.695957 0.109944 0.158839
O O3 0.728858 0.250103 0.102430
O O4 0.773320 0.087078 0.074471
O O5 0.500000 0.850090 0.217882
O O6 0.250000 0.901919 0.250000
O O7 0.264960 0.748584 0.205925
O O8 0.291324 0.888437 0.157240
O O9 0.726174 0.088929 0.929665
O O10 0.000000 0.023368 0.934451
O O11 0.800463 0.000000 0.000000
O O12 0.500000 0.826696 0.782093
O O13 0.750000 0.899771 0.750000
O O14 0.000000 0.818267 0.396915
#
# Coordination Sequence:
#
# PCOD8263861 Si02
#       5
#    16  16  16  16  16
#     4  10  21  38  61  88 118 153 192 234 283 340
#     4   9  16  27  48  79 113 149 187 225 270 326
#     4  11  25  43  62  85 112 145 190 243 296 347
#     4   9  16  27  48  79 113 149 187 225 270 326
#     4  10  21  38  61  88 118 153 192 234 283 340
#
# _framework density 20.543621999999999
#
# number of rings (size 3 to 8) (size 9 to 14) (size 15 to 20)
#    0.000    2.200    0.000    4.200    0.000    7.200 
#    0.000    1.000    0.000    0.000    0.000    0.000 
#    0.000    0.000    0.000    0.000    0.000    0.000 
#
# Total GULP energy -495671.179239 kJ/mol
# GULP energy per Si atom -12391.779481 kJ/mol
# Density = 2.049686 g / cm^3
# Si number density = 20.543622 Si / 1000 Ang^3
#
#
#
# Elastic Constant Matrix: (Units=GPa)
#
#
# Indices 1 2 3 4 5 6 
#
# 1 59.2192 8.9767 60.3403 0.0000 0.0000 0.0000
# 2 8.9767 56.9358 35.6653 0.0000 0.0000 0.0000
# 3 60.3403 35.6653 127.5276 0.0000 0.0000 0.0000
# 4 0.0000 0.0000 0.0000 53.6105 0.0000 0.0000
# 5 0.0000 0.0000 0.0000 0.0000 36.3493 0.0000
# 6 0.0000 0.0000 0.0000 0.0000 0.0000 20.3264
#
#
#
# Elastic Compliance Matrix: (Units=1/GPa)
#
#
# Indices 1 2 3 4 5 6 
#
# 1 0.034083 0.005732 -0.017730 0.000000 0.000000 0.000000
# 2 0.005732 0.022258 -0.008937 0.000000 0.000000 0.000000
# 3 -0.017730 -0.008937 0.018730 0.000000 0.000000 0.000000
# 4 0.000000 0.000000 0.000000 0.018653 0.000000 0.000000
# 5 0.000000 0.000000 0.000000 0.000000 0.027511 0.000000
# 6 0.000000 0.000000 0.000000 0.000000 0.000000 0.049197
#
#
# Mechanical properties :
#
#
# Convention : Reuss Voigt Hill
#
# Bulk Modulus (GPa) = 30.11876 50.40526 40.26201
# Shear Modulus (GPa) = 22.38464 31.30395 26.84429
#
# Velocity S-wave (km/s) = 3.30451 3.90780 3.61875
# Velocity P-wave (km/s) = 5.40855 6.70449 6.09108
#
# Compressibility (1/GPa) = 0.03320190
#
# Stress axis : x y z
#
# Youngs Moduli (GPa) = 29.34043 44.92723 53.39113
#
# Poissons Ratio (x) = -0.25754 0.94660
# Poissons Ratio (y) = -0.16819 0.47717
# Poissons Ratio (z) = 0.52019 0.40152
#
# Static dielectric constant tensor:
#      x y z
#    x 3.844830 0.000000 0.000000 
#    y 0.000000 3.252100 0.000000 
#    z 0.000000 0.000000 4.562050 
# 
# 
# High freq. dielectric constant tensor:
#      x y z
#    x 1.819190 0.000000 0.000000 
#    y 0.000000 1.768230 0.000000 
#    z 0.000000 0.000000 1.820110 
# 
# From -- ./inp_files/47812.got.cif
#   From: 2010.03.12/outbox.cif.g09.slc.cpg/sg64_24_cif.got.tgz:47812.got - 2010.04.10 20:19:32.
