data_PCOD8263107
_publ_section_title
;
Structure prediction by ZEFSAII (Michael W. Deem and Ramdas Pophale) SiO2 
 PCOD8263107
Probable space group: C M C A
;
_chemical_formula_sum "Si O2"
_cell_formula_units_Z 80
_cell_length_a 8.856578
_cell_length_b 25.601570
_cell_length_c 19.425009
_cell_angle_alpha 90.000000
_cell_angle_beta 90.000000
_cell_angle_gamma 90.000000
_cell_volume 4404.471250
_symmetry_space_group_name_H-M "C M C A"
_symmetry_group_IT_number 64
_symmetry_cell_setting 'orthorhombic'
loop_
_space_group_symop_operation_xyz
x,y,z
-x,1/2-y,1/2+z
x,-y,-z
-x,1/2+y,1/2-z
-x,-y,-z
x,1/2+y,1/2-z
-x,y,z
x,1/2-y,1/2+z
1/2+x,1/2+y,z
1/2-x,-y,1/2+z
1/2+x,1/2-y,-z
1/2-x,y,1/2-z
1/2-x,1/2-y,-z
1/2+x,y,1/2-z
1/2-x,1/2+y,z
1/2+x,-y,1/2+z
loop_
_atom_site_type_symbol
_atom_site_label
_atom_site_fract_x
_atom_site_fract_y
_atom_site_fract_z
Si Si1 0.321517 0.941521 0.677492
Si Si2 0.673548 0.745415 0.927101
Si Si3 0.826421 0.860639 0.580424
Si Si4 0.320284 0.550649 0.677247
Si Si5 0.824158 0.643879 0.920576
O O1 0.500000 0.948013 0.685960
O O2 0.250000 0.924349 0.750000
O O3 0.285666 0.897793 0.621420
O O4 0.249018 0.995856 0.652387
O O5 0.500000 0.732983 0.938709
O O6 0.694975 0.801554 0.889798
O O7 0.746421 0.695831 0.887884
O O8 0.750000 0.750000 0.000000
O O9 0.779974 0.863922 0.500271
O O10 0.000000 0.878671 0.590033
O O11 0.500000 0.545438 0.683781
O O12 0.250000 0.567367 0.750000
O O13 0.270405 0.593451 0.621486
O O14 0.000000 0.653109 0.912221
#
# Coordination Sequence:
#
# PCOD8263107 Si02
#       5
#    16  16  16  16  16
#     4  11  22  36  54  75 100 134 171 211 257 305
#     4   9  17  30  51  76 105 137 168 205 252 301
#     4   9  18  34  53  76 104 135 170 208 251 300
#     4  10  20  36  55  75 102 137 172 209 254 305
#     4   9  19  34  54  78 105 137 171 207 252 301
#
# _framework density 18.163361999999999
#
# number of rings (size 3 to 8) (size 9 to 14) (size 15 to 20)
#    0.000    2.400    0.000    5.400    0.000    6.400 
#    0.000    5.000    0.000    2.400    0.000    0.000 
#    0.000    0.000    0.000    0.000    0.000    0.000 
#
# Total GULP energy -495858.464996 kJ/mol
# GULP energy per Si atom -12396.461625 kJ/mol
# Density = 1.812202 g / cm^3
# Si number density = 18.163362 Si / 1000 Ang^3
#
#
#
# Elastic Constant Matrix: (Units=GPa)
#
#
# Indices 1 2 3 4 5 6 
#
# 1 96.9368 65.6340 36.8533 0.0000 0.0000 0.0000
# 2 65.6340 147.3530 68.2980 0.0000 0.0000 0.0000
# 3 36.8533 68.2980 63.2172 0.0000 0.0000 0.0000
# 4 0.0000 0.0000 0.0000 4.8082 0.0000 0.0000
# 5 0.0000 0.0000 0.0000 0.0000 27.2406 0.0000
# 6 0.0000 0.0000 0.0000 0.0000 0.0000 36.9701
#
#
#
# Elastic Compliance Matrix: (Units=1/GPa)
#
#
# Indices 1 2 3 4 5 6 
#
# 1 0.015062 -0.005286 -0.003070 0.000000 0.000000 0.000000
# 2 -0.005286 0.015449 -0.013608 0.000000 0.000000 0.000000
# 3 -0.003070 -0.013608 0.032310 0.000000 0.000000 0.000000
# 4 0.000000 0.000000 0.000000 0.207977 0.000000 0.000000
# 5 0.000000 0.000000 0.000000 0.000000 0.036710 0.000000
# 6 0.000000 0.000000 0.000000 0.000000 0.000000 0.027049
#
#
# Mechanical properties :
#
#
# Convention : Reuss Voigt Hill
#
# Bulk Modulus (GPa) = 52.93179 72.11974 62.52576
# Shear Modulus (GPa) = 12.99433 22.91857 17.95645
#
# Velocity S-wave (km/s) = 2.67763 3.55604 3.14763
# Velocity P-wave (km/s) = 6.22615 7.52681 6.90716
#
# Compressibility (1/GPa) = 0.01889224
#
# Stress axis : x y z
#
# Youngs Moduli (GPa) = 66.39130 64.73104 30.95004
#
# Poissons Ratio (x) = 0.34218 0.09500
# Poissons Ratio (y) = 0.35096 0.42118
# Poissons Ratio (z) = 0.20380 0.88089
#
# Static dielectric constant tensor:
#      x y z
#    x 3.493900 0.000000 0.000000 
#    y 0.000000 3.802640 0.000000 
#    z 0.000000 0.000000 3.158840 
# 
# 
# High freq. dielectric constant tensor:
#      x y z
#    x 1.713000 0.000000 0.000000 
#    y 0.000000 1.720010 0.000000 
#    z 0.000000 0.000000 1.670610 
# 
# From -- ./inp_files/29755.got.cif
#   From: 2010.03.12/outbox.cif.g09.slc.cpg/sg64_15_cif.got.tgz:29755.got - 2010.04.10 20:19:32.
