data_PCOD8263704
_publ_section_title
;
Structure prediction by ZEFSAII (Michael W. Deem and Ramdas Pophale) SiO2 
 PCOD8263704
Probable space group: C M C A
;
_chemical_formula_sum "Si O2"
_cell_formula_units_Z 88
_cell_length_a 10.535012
_cell_length_b 19.339131
_cell_length_c 21.036590
_cell_angle_alpha 90.000000
_cell_angle_beta 90.000000
_cell_angle_gamma 90.000000
_cell_volume 4285.952293
_symmetry_space_group_name_H-M "C M C A"
_symmetry_group_IT_number 64
_symmetry_cell_setting 'orthorhombic'
loop_
_space_group_symop_operation_xyz
x,y,z
-x,1/2-y,1/2+z
x,-y,-z
-x,1/2+y,1/2-z
-x,-y,-z
x,1/2+y,1/2-z
-x,y,z
x,1/2-y,1/2+z
1/2+x,1/2+y,z
1/2-x,-y,1/2+z
1/2+x,1/2-y,-z
1/2-x,y,1/2-z
1/2-x,1/2-y,-z
1/2+x,y,1/2-z
1/2-x,1/2+y,z
1/2+x,-y,1/2+z
loop_
_atom_site_type_symbol
_atom_site_label
_atom_site_fract_x
_atom_site_fract_y
_atom_site_fract_z
Si Si1 0.735360 0.828110 0.020409
Si Si2 0.000000 0.946695 0.281338
Si Si3 0.729846 0.345941 0.618333
Si Si4 0.250000 0.620563 0.750000
Si Si5 0.000000 0.665247 0.886967
Si Si6 0.500000 0.105176 0.196490
Si Si7 0.500000 0.184805 0.325780
Si Si8 0.140815 0.191795 0.862889
O O1 0.614599 0.834273 0.064688
O O2 0.849768 0.848625 0.069157
O O3 0.750000 0.750000 0.000000
O O4 0.732608 0.872694 0.955478
O O5 0.874429 0.925515 0.243502
O O6 0.000000 0.907456 0.349099
O O7 0.000000 0.028465 0.277357
O O8 0.630476 0.393037 0.656266
O O9 0.669768 0.270727 0.622808
O O10 0.873274 0.349882 0.644851
O O11 0.249138 0.667975 0.686973
O O12 0.000000 0.732326 0.839182
O O13 0.500000 0.165522 0.250627
O O14 0.000000 0.182821 0.834162
#
# Coordination Sequence:
#
# PCOD8263704 Si02
#       8
#    16   8  16   8   8   8   8  16
#     4  10  21  36  62  98 139 166 208 274 335 392
#     4  12  28  46  67  92 136 181 230 273 335 404
#     4  11  24  39  65  96 137 172 217 268 342 398
#     4  12  24  44  66  98 126 176 226 276 332 388
#     4  12  21  42  68 102 129 173 224 278 333 402
#     4  12  29  46  63  91 137 180 223 272 340 409
#     4  12  24  40  69 101 131 171 218 291 338 393
#     4  11  22  35  65 100 133 166 213 279 334 390
#
# _framework density 20.532192999999999
#
# number of rings (size 3 to 8) (size 9 to 14) (size 15 to 20)
#    0.000    0.727    7.273    1.091   12.727    0.000 
#    0.000    1.818    0.000    0.000    0.000    3.818 
#    0.000    0.000    0.000    0.000    0.000    0.000 
#
# Total GULP energy -545102.917705 kJ/mol
# GULP energy per Si atom -12388.702675 kJ/mol
# Density = 2.048546 g / cm^3
# Si number density = 20.532193 Si / 1000 Ang^3
#
#
#
# Elastic Constant Matrix: (Units=GPa)
#
#
# Indices 1 2 3 4 5 6 
#
# 1 136.7292 14.0493 27.6607 0.0000 0.0000 0.0000
# 2 14.0493 46.1176 17.1873 0.0000 0.0000 0.0000
# 3 27.6607 17.1873 135.7161 0.0000 0.0000 0.0000
# 4 0.0000 0.0000 0.0000 16.3092 0.0000 0.0000
# 5 0.0000 0.0000 0.0000 0.0000 20.0540 0.0000
# 6 0.0000 0.0000 0.0000 0.0000 0.0000 14.4620
#
#
#
# Elastic Compliance Matrix: (Units=1/GPa)
#
#
# Indices 1 2 3 4 5 6 
#
# 1 0.007778 -0.001867 -0.001349 0.000000 0.000000 0.000000
# 2 -0.001867 0.023206 -0.002558 0.000000 0.000000 0.000000
# 3 -0.001349 -0.002558 0.007967 0.000000 0.000000 0.000000
# 4 0.000000 0.000000 0.000000 0.061315 0.000000 0.000000
# 5 0.000000 0.000000 0.000000 0.000000 0.049865 0.000000
# 6 0.000000 0.000000 0.000000 0.000000 0.000000 0.069147
#
#
# Mechanical properties :
#
#
# Convention : Reuss Voigt Hill
#
# Bulk Modulus (GPa) = 36.49205 48.48419 42.48812
# Shear Modulus (GPa) = 20.83669 27.47610 24.15639
#
# Velocity S-wave (km/s) = 3.18910 3.66210 3.43375
# Velocity P-wave (km/s) = 5.60108 6.44565 6.03815
#
# Compressibility (1/GPa) = 0.02740323
#
# Stress axis : x y z
#
# Youngs Moduli (GPa) = 128.56037 43.09257 125.51403
#
# Poissons Ratio (x) = 0.08045 0.16931
# Poissons Ratio (y) = 0.24001 0.32110
# Poissons Ratio (z) = 0.17342 0.11024
#
# Static dielectric constant tensor:
#      x y z
#    x 2.690480 0.000000 0.000000 
#    y 0.000000 3.212310 0.000000 
#    z 0.000000 0.000000 4.031730 
# 
# 
# High freq. dielectric constant tensor:
#      x y z
#    x 1.830380 0.000000 0.000000 
#    y 0.000000 1.741800 0.000000 
#    z 0.000000 0.000000 1.823580 
# 
# From -- ./inp_files/30980.got.cif
#   From: 2010.03.12/outbox.cif.g09.slc.cpg/sg64_16_cif.got.tgz:30980.got - 2010.04.10 20:19:32.
