data_PCOD8263622
_publ_section_title
;
Structure prediction by ZEFSAII (Michael W. Deem and Ramdas Pophale) SiO2 
 PCOD8263622
Probable space group: C M C A
;
_chemical_formula_sum "Si O2"
_cell_formula_units_Z 80
_cell_length_a 9.265911
_cell_length_b 25.098885
_cell_length_c 18.300646
_cell_angle_alpha 90.000000
_cell_angle_beta 90.000000
_cell_angle_gamma 90.000000
_cell_volume 4256.072070
_symmetry_space_group_name_H-M "C M C A"
_symmetry_group_IT_number 64
_symmetry_cell_setting 'orthorhombic'
loop_
_space_group_symop_operation_xyz
x,y,z
-x,1/2-y,1/2+z
x,-y,-z
-x,1/2+y,1/2-z
-x,-y,-z
x,1/2+y,1/2-z
-x,y,z
x,1/2-y,1/2+z
1/2+x,1/2+y,z
1/2-x,-y,1/2+z
1/2+x,1/2-y,-z
1/2-x,y,1/2-z
1/2-x,1/2-y,-z
1/2+x,y,1/2-z
1/2-x,1/2+y,z
1/2+x,-y,1/2+z
loop_
_atom_site_type_symbol
_atom_site_label
_atom_site_fract_x
_atom_site_fract_y
_atom_site_fract_z
Si Si1 0.166232 0.191115 0.073013
Si Si2 0.333891 0.508347 0.416134
Si Si3 0.166544 0.596483 0.824030
Si Si4 0.830970 0.594912 0.326077
Si Si5 0.331006 0.688184 0.571625
O O1 0.198097 0.154018 0.142610
O O2 0.209412 0.251498 0.094333
O O3 0.000000 0.187994 0.049595
O O4 0.257262 0.171260 0.004028
O O5 0.292424 0.500000 0.500000
O O6 0.500000 0.526767 0.407474
O O7 0.304745 0.453098 0.376111
O O8 0.229196 0.552781 0.383720
O O9 0.250000 0.586984 0.750000
O O10 0.224689 0.649589 0.864260
O O11 0.000000 0.602795 0.803983
O O12 0.750000 0.588406 0.250000
O O13 0.000000 0.584198 0.313667
O O14 0.500000 0.679941 0.559238
#
# Coordination Sequence:
#
# PCOD8263622 Si02
#       5
#    16  16  16  16  16
#     4   9  19  35  55  80 107 136 175 220 262 308
#     4  10  21  38  59  81 105 137 178 220 266 321
#     4  10  21  35  53  78 107 138 172 213 260 311
#     4  11  23  37  54  79 111 144 179 220 266 316
#     4   9  18  35  57  79 105 138 176 217 261 311
#
# _framework density 18.796673999999999
#
# number of rings (size 3 to 8) (size 9 to 14) (size 15 to 20)
#    0.000    2.200    0.000    2.400    0.000    7.600 
#    0.000    0.000    0.000    0.000    0.000    0.000 
#    0.000    0.000    0.000    0.000    0.000    0.000 
#
# Total GULP energy -496139.665106 kJ/mol
# GULP energy per Si atom -12403.491628 kJ/mol
# Density = 1.875389 g / cm^3
# Si number density = 18.796674 Si / 1000 Ang^3
#
#
#
# Elastic Constant Matrix: (Units=GPa)
#
#
# Indices 1 2 3 4 5 6 
#
# 1 72.8992 49.2525 61.1474 0.0000 0.0000 0.0000
# 2 49.2525 96.2764 61.7019 0.0000 0.0000 0.0000
# 3 61.1474 61.7019 145.0779 0.0000 0.0000 0.0000
# 4 0.0000 0.0000 0.0000 18.3912 0.0000 0.0000
# 5 0.0000 0.0000 0.0000 0.0000 33.3364 0.0000
# 6 0.0000 0.0000 0.0000 0.0000 0.0000 28.1535
#
#
#
# Elastic Compliance Matrix: (Units=1/GPa)
#
#
# Indices 1 2 3 4 5 6 
#
# 1 0.025374 -0.008422 -0.007113 0.000000 0.000000 0.000000
# 2 -0.008422 0.017074 -0.003712 0.000000 0.000000 0.000000
# 3 -0.007113 -0.003712 0.011469 0.000000 0.000000 0.000000
# 4 0.000000 0.000000 0.000000 0.054374 0.000000 0.000000
# 5 0.000000 0.000000 0.000000 0.000000 0.029997 0.000000
# 6 0.000000 0.000000 0.000000 0.000000 0.000000 0.035520
#
#
# Mechanical properties :
#
#
# Convention : Reuss Voigt Hill
#
# Bulk Modulus (GPa) = 64.83414 73.16190 68.99802
# Shear Modulus (GPa) = 22.99456 25.45301 24.22378
#
# Velocity S-wave (km/s) = 3.50141 3.68383 3.59378
# Velocity P-wave (km/s) = 7.13538 7.55655 7.34899
#
# Compressibility (1/GPa) = 0.01542397
#
# Stress axis : x y z
#
# Youngs Moduli (GPa) = 39.41076 58.56770 87.18922
#
# Poissons Ratio (x) = 0.49327 0.62014
# Poissons Ratio (y) = 0.33193 0.32364
# Poissons Ratio (z) = 0.28031 0.21740
#
# Static dielectric constant tensor:
#      x y z
#    x 3.440260 0.000000 0.000000 
#    y 0.000000 3.699740 0.000000 
#    z 0.000000 0.000000 3.389930 
# 
# 
# High freq. dielectric constant tensor:
#      x y z
#    x 1.726650 0.000000 0.000000 
#    y 0.000000 1.744260 0.000000 
#    z 0.000000 0.000000 1.730510 
# 
# From -- ./inp_files/29761.got.cif
#   From: 2010.03.12/outbox.cif.g09.slc.cpg/sg64_15_cif.got.tgz:29761.got - 2010.04.10 20:19:32.
