data_PCOD8263454
_publ_section_title
;
Structure prediction by ZEFSAII (Michael W. Deem and Ramdas Pophale) SiO2 
 PCOD8263454
Probable space group: C M C A
;
_chemical_formula_sum "Si O2"
_cell_formula_units_Z 104
_cell_length_a 26.777874
_cell_length_b 9.086726
_cell_length_c 20.294112
_cell_angle_alpha 90.000000
_cell_angle_beta 90.000000
_cell_angle_gamma 90.000000
_cell_volume 4938.028352
_symmetry_space_group_name_H-M "C M C A"
_symmetry_group_IT_number 64
_symmetry_cell_setting 'orthorhombic'
loop_
_space_group_symop_operation_xyz
x,y,z
-x,1/2-y,1/2+z
x,-y,-z
-x,1/2+y,1/2-z
-x,-y,-z
x,1/2+y,1/2-z
-x,y,z
x,1/2-y,1/2+z
1/2+x,1/2+y,z
1/2-x,-y,1/2+z
1/2+x,1/2-y,-z
1/2-x,y,1/2-z
1/2-x,1/2-y,-z
1/2+x,y,1/2-z
1/2-x,1/2+y,z
1/2+x,-y,1/2+z
loop_
_atom_site_type_symbol
_atom_site_label
_atom_site_fract_x
_atom_site_fract_y
_atom_site_fract_z
Si Si1 0.617499 0.941447 0.749269
Si Si2 0.752313 0.882278 0.951840
Si Si3 0.944130 0.726039 0.434452
Si Si4 0.896156 0.500000 0.000000
Si Si5 0.157252 0.669748 0.115100
Si Si6 0.356842 0.013422 0.395076
Si Si7 0.053850 0.303080 0.212677
O O1 0.647397 0.872059 0.809581
O O2 0.648627 0.937261 0.681258
O O3 0.564481 0.859943 0.739613
O O4 0.601665 0.107478 0.762775
O O5 0.717357 0.845014 0.889507
O O6 0.807926 0.925975 0.930778
O O7 0.750000 0.750000 0.000000
O O8 0.727300 0.000000 0.000000
O O9 0.928562 0.854348 0.484876
O O10 0.905019 0.588701 0.430650
O O11 0.947016 0.808989 0.365400
O O12 0.000000 0.666927 0.453181
O O13 0.865017 0.549546 0.064450
O O14 0.138723 0.836108 0.098676
O O15 0.000000 0.354170 0.240843
#
# Coordination Sequence:
#
# PCOD8263454 Si02
#       7
#    16  16  16   8  16  16  16
#     4  11  22  42  65  99 135 174 226 281 342 398
#     4  12  25  44  71 100 130 172 228 272 339 410
#     4  10  23  42  65  98 138 180 225 276 336 399
#     4  12  23  40  72 100 136 180 225 286 336 400
#     4  12  25  44  69 101 133 180 224 285 343 408
#     4  11  26  46  68  98 141 176 225 287 338 411
#     4  10  20  38  64  94 132 179 228 275 327 400
#
# _framework density 21.061036999999999
#
# number of rings (size 3 to 8) (size 9 to 14) (size 15 to 20)
#    0.000    0.923    5.385    1.615    0.000    1.231 
#    0.000    3.846    0.000    0.000    0.000    0.000 
#    0.000    0.000    0.000    0.000    0.000    0.000 
#
# Total GULP energy -644264.839129 kJ/mol
# GULP energy per Si atom -12389.708445 kJ/mol
# Density = 2.101310 g / cm^3
# Si number density = 21.061037 Si / 1000 Ang^3
#
#
#
# Elastic Constant Matrix: (Units=GPa)
#
#
# Indices 1 2 3 4 5 6 
#
# 1 118.1311 40.9697 39.2954 0.0000 0.0000 0.0000
# 2 40.9697 116.0050 28.2560 0.0000 0.0000 0.0000
# 3 39.2954 28.2560 97.4119 0.0000 0.0000 0.0000
# 4 0.0000 0.0000 0.0000 29.8522 0.0000 0.0000
# 5 0.0000 0.0000 0.0000 0.0000 19.6000 0.0000
# 6 0.0000 0.0000 0.0000 0.0000 0.0000 29.1314
#
#
#
# Elastic Compliance Matrix: (Units=1/GPa)
#
#
# Indices 1 2 3 4 5 6 
#
# 1 0.010619 -0.002913 -0.003439 0.000000 0.000000 0.000000
# 2 -0.002913 0.010075 -0.001747 0.000000 0.000000 0.000000
# 3 -0.003439 -0.001747 0.012160 0.000000 0.000000 0.000000
# 4 0.000000 0.000000 0.000000 0.033498 0.000000 0.000000
# 5 0.000000 0.000000 0.000000 0.000000 0.051020 0.000000
# 6 0.000000 0.000000 0.000000 0.000000 0.000000 0.034327
#
#
# Mechanical properties :
#
#
# Convention : Reuss Voigt Hill
#
# Bulk Modulus (GPa) = 60.03945 60.95448 60.49696
# Shear Modulus (GPa) = 28.82684 30.58519 29.70601
#
# Velocity S-wave (km/s) = 3.70365 3.81493 3.75970
# Velocity P-wave (km/s) = 6.84533 6.95770 6.90174
#
# Compressibility (1/GPa) = 0.01665572
#
# Stress axis : x y z
#
# Youngs Moduli (GPa) = 94.16828 99.25908 82.23868
#
# Poissons Ratio (x) = 0.28912 0.28281
# Poissons Ratio (y) = 0.27429 0.14370
# Poissons Ratio (z) = 0.32383 0.17344
#
# Static dielectric constant tensor:
#      x y z
#    x 3.677770 0.000000 0.000000 
#    y 0.000000 3.862470 0.000000 
#    z 0.000000 0.000000 3.800080 
# 
# 
# High freq. dielectric constant tensor:
#      x y z
#    x 1.819470 0.000000 0.000000 
#    y 0.000000 1.839150 0.000000 
#    z 0.000000 0.000000 1.827270 
# 
# From -- ./inp_files/41877.got.cif
#   From: 2010.03.12/outbox.cif.g09.slc.cpg/sg64_21_cif.got.tgz:41877.got - 2010.04.10 20:19:32.
