data_PCOD8263218
_publ_section_title
;
Structure prediction by ZEFSAII (Michael W. Deem and Ramdas Pophale) SiO2 
 PCOD8263218
Probable space group: C M C A
;
_chemical_formula_sum "Si O2"
_cell_formula_units_Z 80
_cell_length_a 9.003727
_cell_length_b 25.106626
_cell_length_c 17.940097
_cell_angle_alpha 90.000000
_cell_angle_beta 90.000000
_cell_angle_gamma 90.000000
_cell_volume 4055.416450
_symmetry_space_group_name_H-M "C M C A"
_symmetry_group_IT_number 64
_symmetry_cell_setting 'orthorhombic'
loop_
_space_group_symop_operation_xyz
x,y,z
-x,1/2-y,1/2+z
x,-y,-z
-x,1/2+y,1/2-z
-x,-y,-z
x,1/2+y,1/2-z
-x,y,z
x,1/2-y,1/2+z
1/2+x,1/2+y,z
1/2-x,-y,1/2+z
1/2+x,1/2-y,-z
1/2-x,y,1/2-z
1/2-x,1/2-y,-z
1/2+x,y,1/2-z
1/2-x,1/2+y,z
1/2+x,-y,1/2+z
loop_
_atom_site_type_symbol
_atom_site_label
_atom_site_fract_x
_atom_site_fract_y
_atom_site_fract_z
Si Si1 0.828178 0.892793 0.824756
Si Si2 0.326757 0.798439 0.904949
Si Si3 0.672160 0.808481 0.076027
Si Si4 0.674549 0.589286 0.671458
Si Si5 0.671519 0.996746 0.584780
O O1 0.750000 0.913682 0.750000
O O2 0.757014 0.837425 0.849355
O O3 0.804007 0.936479 0.888732
O O4 0.000000 0.883218 0.807892
O O5 0.500000 0.800897 0.887273
O O6 0.269398 0.738892 0.889336
O O7 0.289865 0.815906 0.989181
O O8 0.500000 0.794055 0.087332
O O9 0.717395 0.862635 0.116737
O O10 0.500000 0.584455 0.683746
O O11 0.750000 0.600405 0.750000
O O12 0.731399 0.534732 0.636265
O O13 0.500000 0.014250 0.591183
O O14 0.728120 0.000000 0.500000
#
# Coordination Sequence:
#
# PCOD8263218 Si02
#       5
#    16  16  16  16  16
#     4  11  23  38  57  82 115 151 186 230 282 337
#     4  10  20  36  60  86 112 147 191 237 283 333
#     4   9  20  38  58  83 115 151 191 233 281 337
#     4  11  23  38  58  84 116 152 189 233 283 336
#     4  10  22  40  62  87 114 147 188 233 283 339
#
# _framework density 19.726704999999999
#
# number of rings (size 3 to 8) (size 9 to 14) (size 15 to 20)
#    0.000    1.800    0.000    3.600    0.000    6.800 
#    0.000    2.000    0.000    0.000    0.000    0.000 
#    0.000    0.000    0.000    0.000    0.000    0.000 
#
# Total GULP energy -496276.033481 kJ/mol
# GULP energy per Si atom -12406.900837 kJ/mol
# Density = 1.968181 g / cm^3
# Si number density = 19.726705 Si / 1000 Ang^3
#
#
#
# Elastic Constant Matrix: (Units=GPa)
#
#
# Indices 1 2 3 4 5 6 
#
# 1 92.3777 43.8441 31.3770 0.0000 0.0000 0.0000
# 2 43.8441 80.9242 15.9593 0.0000 0.0000 0.0000
# 3 31.3770 15.9593 70.6333 0.0000 0.0000 0.0000
# 4 0.0000 0.0000 0.0000 27.4950 0.0000 0.0000
# 5 0.0000 0.0000 0.0000 0.0000 26.8708 0.0000
# 6 0.0000 0.0000 0.0000 0.0000 0.0000 33.2635
#
#
#
# Elastic Compliance Matrix: (Units=1/GPa)
#
#
# Indices 1 2 3 4 5 6 
#
# 1 0.016402 -0.007797 -0.005525 0.000000 0.000000 0.000000
# 2 -0.007797 0.016640 -0.000296 0.000000 0.000000 0.000000
# 3 -0.005525 -0.000296 0.016679 0.000000 0.000000 0.000000
# 4 0.000000 0.000000 0.000000 0.036370 0.000000 0.000000
# 5 0.000000 0.000000 0.000000 0.000000 0.037215 0.000000
# 6 0.000000 0.000000 0.000000 0.000000 0.000000 0.030063
#
#
# Mechanical properties :
#
#
# Convention : Reuss Voigt Hill
#
# Bulk Modulus (GPa) = 44.47315 47.36622 45.91969
# Shear Modulus (GPa) = 26.58165 27.70954 27.14559
#
# Velocity S-wave (km/s) = 3.67481 3.75196 3.71358
# Velocity P-wave (km/s) = 6.37175 6.54469 6.45880
#
# Compressibility (1/GPa) = 0.02248548
#
# Stress axis : x y z
#
# Youngs Moduli (GPa) = 60.96736 60.09610 59.95683
#
# Poissons Ratio (x) = 0.46857 0.33123
# Poissons Ratio (y) = 0.47537 0.01775
# Poissons Ratio (z) = 0.33682 0.01779
#
# Static dielectric constant tensor:
#      x y z
#    x 3.626530 0.000000 0.000000 
#    y 0.000000 3.527970 0.000000 
#    z 0.000000 0.000000 3.704570 
# 
# 
# High freq. dielectric constant tensor:
#      x y z
#    x 1.775470 0.000000 0.000000 
#    y 0.000000 1.775950 0.000000 
#    z 0.000000 0.000000 1.773700 
# 
# From -- ./inp_files/29730.got.cif
#   From: 2010.03.12/outbox.cif.g09.slc.cpg/sg64_15_cif.got.tgz:29730.got - 2010.04.10 20:19:32.
