data_PCOD8263765
_publ_section_title
;
Structure prediction by ZEFSAII (Michael W. Deem and Ramdas Pophale) SiO2 
 PCOD8263765
Probable space group: C M C A
;
_chemical_formula_sum "Si O2"
_cell_formula_units_Z 64
_cell_length_a 14.986019
_cell_length_b 14.110095
_cell_length_c 14.599096
_cell_angle_alpha 90.000000
_cell_angle_beta 90.000000
_cell_angle_gamma 90.000000
_cell_volume 3087.039461
_symmetry_space_group_name_H-M "C M C A"
_symmetry_group_IT_number 64
_symmetry_cell_setting 'orthorhombic'
loop_
_space_group_symop_operation_xyz
x,y,z
-x,1/2-y,1/2+z
x,-y,-z
-x,1/2+y,1/2-z
-x,-y,-z
x,1/2+y,1/2-z
-x,y,z
x,1/2-y,1/2+z
1/2+x,1/2+y,z
1/2-x,-y,1/2+z
1/2+x,1/2-y,-z
1/2-x,y,1/2-z
1/2-x,1/2-y,-z
1/2+x,y,1/2-z
1/2-x,1/2+y,z
1/2+x,-y,1/2+z
loop_
_atom_site_type_symbol
_atom_site_label
_atom_site_fract_x
_atom_site_fract_y
_atom_site_fract_z
Si Si1 0.102266 0.918224 0.163176
Si Si2 0.748459 0.140805 0.522540
Si Si3 0.102317 0.184794 0.649749
Si Si4 0.813549 0.613879 0.333718
O O1 0.159709 0.883129 0.078305
O O2 0.122147 0.849548 0.247831
O O3 0.000000 0.912877 0.132158
O O4 0.125326 0.025212 0.193242
O O5 0.750000 0.250000 0.500000
O O6 0.837866 0.120319 0.581155
O O7 0.744230 0.085261 0.425109
O O8 0.124907 0.296020 0.643755
O O9 0.000000 0.168581 0.621784
O O10 0.750000 0.640371 0.250000
#
# Coordination Sequence:
#
# PCOD8263765 Si02
#       4
#    16  16  16  16
#     4  11  23  39  62  90 121 158 201 250 304 365
#     4  10  21  37  59  85 117 156 196 245 298 352
#     4  10  21  39  61  88 122 158 201 250 302 360
#     4  11  22  38  61  88 122 161 203 248 302 360
#
# _framework density 20.731838
#
# number of rings (size 3 to 8) (size 9 to 14) (size 15 to 20)
#    0.000    1.500    0.000    6.750    0.000    6.000 
#    0.000    2.500    0.000    6.000    0.000    0.000 
#    0.000    0.000    0.000    0.000    0.000    0.000 
#
# Total GULP energy -396835.498263 kJ/mol
# GULP energy per Si atom -12401.109321 kJ/mol
# Density = 2.068465 g / cm^3
# Si number density = 20.731838 Si / 1000 Ang^3
#
#
#
# Elastic Constant Matrix: (Units=GPa)
#
#
# Indices 1 2 3 4 5 6 
#
# 1 136.1500 32.4601 79.5374 0.0000 0.0000 0.0000
# 2 32.4601 79.9054 11.8988 0.0000 0.0000 0.0000
# 3 79.5374 11.8988 132.7236 0.0000 0.0000 0.0000
# 4 0.0000 0.0000 0.0000 27.9012 0.0000 0.0000
# 5 0.0000 0.0000 0.0000 0.0000 27.2422 0.0000
# 6 0.0000 0.0000 0.0000 0.0000 0.0000 33.1765
#
#
#
# Elastic Compliance Matrix: (Units=1/GPa)
#
#
# Indices 1 2 3 4 5 6 
#
# 1 0.012446 -0.003999 -0.007100 0.000000 0.000000 0.000000
# 2 -0.003999 0.013969 0.001144 0.000000 0.000000 0.000000
# 3 -0.007100 0.001144 0.011687 0.000000 0.000000 0.000000
# 4 0.000000 0.000000 0.000000 0.035841 0.000000 0.000000
# 5 0.000000 0.000000 0.000000 0.000000 0.036708 0.000000
# 6 0.000000 0.000000 0.000000 0.000000 0.000000 0.030142
#
#
# Mechanical properties :
#
#
# Convention : Reuss Voigt Hill
#
# Bulk Modulus (GPa) = 54.96895 66.28574 60.62735
# Shear Modulus (GPa) = 29.98225 32.65614 31.31919
#
# Velocity S-wave (km/s) = 3.80701 3.97315 3.89096
# Velocity P-wave (km/s) = 6.77468 7.28630 7.03514
#
# Compressibility (1/GPa) = 0.01819209
#
# Stress axis : x y z
#
# Youngs Moduli (GPa) = 80.34759 71.58790 85.56718
#
# Poissons Ratio (x) = 0.28626 0.60753
# Poissons Ratio (y) = 0.32128 -0.09789
# Poissons Ratio (z) = 0.57047 -0.08189
#
# Static dielectric constant tensor:
#      x y z
#    x 3.867990 0.000000 0.000000 
#    y 0.000000 3.882610 0.000000 
#    z 0.000000 0.000000 4.264030 
# 
# 
# High freq. dielectric constant tensor:
#      x y z
#    x 1.806930 0.000000 0.000000 
#    y 0.000000 1.817970 0.000000 
#    z 0.000000 0.000000 1.823000 
# 
# From -- ./inp_files/23226.got.cif
#   From: 2010.03.12/outbox.cif.g09.slc.cpg/sg64_12_cif.got.tgz:23226.got - 2010.04.10 20:19:32.
