data_PCOD8263964
_publ_section_title
;
Structure prediction by ZEFSAII (Michael W. Deem and Ramdas Pophale) SiO2 
 PCOD8263964
Probable space group: C M C A
;
_chemical_formula_sum "Si O2"
_cell_formula_units_Z 96
_cell_length_a 17.215891
_cell_length_b 23.530342
_cell_length_c 11.622301
_cell_angle_alpha 90.000000
_cell_angle_beta 90.000000
_cell_angle_gamma 90.000000
_cell_volume 4708.145357
_symmetry_space_group_name_H-M "C M C A"
_symmetry_group_IT_number 64
_symmetry_cell_setting 'orthorhombic'
loop_
_space_group_symop_operation_xyz
x,y,z
-x,1/2-y,1/2+z
x,-y,-z
-x,1/2+y,1/2-z
-x,-y,-z
x,1/2+y,1/2-z
-x,y,z
x,1/2-y,1/2+z
1/2+x,1/2+y,z
1/2-x,-y,1/2+z
1/2+x,1/2-y,-z
1/2-x,y,1/2-z
1/2-x,1/2-y,-z
1/2+x,y,1/2-z
1/2-x,1/2+y,z
1/2+x,-y,1/2+z
loop_
_atom_site_type_symbol
_atom_site_label
_atom_site_fract_x
_atom_site_fract_y
_atom_site_fract_z
Si Si1 0.589373 0.220645 0.906025
Si Si2 0.087469 0.562966 0.972365
Si Si3 0.822719 0.658303 0.091846
Si Si4 0.908834 0.436090 0.482812
Si Si5 0.412664 0.377007 0.242855
Si Si6 0.852953 0.658561 0.357182
O O1 0.500000 0.202315 0.925838
O O2 0.623494 0.180971 0.800761
O O3 0.593978 0.287076 0.882803
O O4 0.636112 0.209624 0.023905
O O5 0.152618 0.599958 0.033311
O O6 0.000000 0.576217 0.018157
O O7 0.112794 0.500000 0.000000
O O8 0.090574 0.572471 0.835679
O O9 0.850336 0.654377 0.221505
O O10 0.730721 0.667023 0.084744
O O11 0.873637 0.500000 0.500000
O O12 0.871157 0.401984 0.372510
O O13 0.892249 0.398789 0.595794
O O14 0.000000 0.442685 0.461065
O O15 0.500000 0.361020 0.207214
#
# Coordination Sequence:
#
# PCOD8263964 Si02
#       6
#    16  16  16  16  16  16
#     4  10  21  39  64  88 115 153 202 252 295 352
#     4   9  18  34  62  88 111 150 199 250 295 346
#     4  10  23  41  57  86 122 155 196 247 294 362
#     4  10  22  38  59  88 122 158 199 247 300 359
#     4   8  17  35  55  85 117 143 187 245 296 343
#     4  11  24  39  59  86 122 163 194 240 304 363
#
# _framework density 20.390193
#
# number of rings (size 3 to 8) (size 9 to 14) (size 15 to 20)
#    0.000    2.333    0.000    2.500    4.667    3.333 
#    0.000    2.500    0.000    0.000    0.000    0.000 
#    0.000    0.000    0.000    0.000    0.000    0.000 
#
# Total GULP energy -594932.481805 kJ/mol
# GULP energy per Si atom -12394.426704 kJ/mol
# Density = 2.034378 g / cm^3
# Si number density = 20.390193 Si / 1000 Ang^3
#
#
#
# Elastic Constant Matrix: (Units=GPa)
#
#
# Indices 1 2 3 4 5 6 
#
# 1 34.3330 5.4393 31.6700 0.0000 0.0000 0.0000
# 2 5.4393 135.3844 39.4909 0.0000 0.0000 0.0000
# 3 31.6700 39.4909 95.7187 0.0000 0.0000 0.0000
# 4 0.0000 0.0000 0.0000 16.6532 0.0000 0.0000
# 5 0.0000 0.0000 0.0000 0.0000 24.9395 0.0000
# 6 0.0000 0.0000 0.0000 0.0000 0.0000 21.2260
#
#
#
# Elastic Compliance Matrix: (Units=1/GPa)
#
#
# Indices 1 2 3 4 5 6 
#
# 1 0.042797 0.002741 -0.015291 0.000000 0.000000 0.000000
# 2 0.002741 0.008572 -0.004444 0.000000 0.000000 0.000000
# 3 -0.015291 -0.004444 0.017340 0.000000 0.000000 0.000000
# 4 0.000000 0.000000 0.000000 0.060049 0.000000 0.000000
# 5 0.000000 0.000000 0.000000 0.000000 0.040097 0.000000
# 6 0.000000 0.000000 0.000000 0.000000 0.000000 0.047112
#
#
# Mechanical properties :
#
#
# Convention : Reuss Voigt Hill
#
# Bulk Modulus (GPa) = 28.80013 46.51517 37.65765
# Shear Modulus (GPa) = 19.11838 25.15279 22.13559
#
# Velocity S-wave (km/s) = 3.06539 3.51604 3.29842
# Velocity P-wave (km/s) = 5.16565 6.27259 5.74584
#
# Compressibility (1/GPa) = 0.03472206
#
# Stress axis : x y z
#
# Youngs Moduli (GPa) = 23.36605 116.65301 57.67070
#
# Poissons Ratio (x) = -0.31973 0.88184
# Poissons Ratio (y) = -0.06404 0.25627
# Poissons Ratio (z) = 0.35729 0.51836
#
# Static dielectric constant tensor:
#      x y z
#    x 3.449050 0.000000 0.000000 
#    y 0.000000 3.941560 0.000000 
#    z 0.000000 0.000000 3.824880 
# 
# 
# High freq. dielectric constant tensor:
#      x y z
#    x 1.768740 0.000000 0.000000 
#    y 0.000000 1.803740 0.000000 
#    z 0.000000 0.000000 1.801190 
# 
# From -- ./inp_files/16216.got.cif
#   From: 2010.03.12/outbox.cif.g09.slc.cpg/sg64_9_cif.got.tgz:16216.got - 2010.04.10 20:19:32.
