data_PCOD8263139
_publ_section_title
;
Structure prediction by ZEFSAII (Michael W. Deem and Ramdas Pophale) SiO2 
 PCOD8263139
Probable space group: C M C A
;
_chemical_formula_sum "Si O2"
_cell_formula_units_Z 96
_cell_length_a 23.652662
_cell_length_b 21.164475
_cell_length_c 8.962298
_cell_angle_alpha 90.000000
_cell_angle_beta 90.000000
_cell_angle_gamma 90.000000
_cell_volume 4486.492085
_symmetry_space_group_name_H-M "C M C A"
_symmetry_group_IT_number 64
_symmetry_cell_setting 'orthorhombic'
loop_
_space_group_symop_operation_xyz
x,y,z
-x,1/2-y,1/2+z
x,-y,-z
-x,1/2+y,1/2-z
-x,-y,-z
x,1/2+y,1/2-z
-x,y,z
x,1/2-y,1/2+z
1/2+x,1/2+y,z
1/2-x,-y,1/2+z
1/2+x,1/2-y,-z
1/2-x,y,1/2-z
1/2-x,1/2-y,-z
1/2+x,y,1/2-z
1/2-x,1/2+y,z
1/2+x,-y,1/2+z
loop_
_atom_site_type_symbol
_atom_site_label
_atom_site_fract_x
_atom_site_fract_y
_atom_site_fract_z
Si Si1 0.225192 0.562292 0.586526
Si Si2 0.090993 0.058988 0.910614
Si Si3 0.064776 0.192897 0.652911
Si Si4 0.062980 0.059995 0.578523
Si Si5 0.398781 0.192311 0.523202
Si Si6 0.772788 0.188465 0.081132
O O1 0.246426 0.500000 0.500000
O O2 0.250000 0.562592 0.750000
O O3 0.158241 0.561895 0.604553
O O4 0.247714 0.624034 0.498770
O O5 0.061376 0.049517 0.753926
O O6 0.071862 0.123497 0.994177
O O7 0.068337 0.000000 0.000000
O O8 0.088431 0.131437 0.558466
O O9 0.062967 0.253432 0.547108
O O10 0.000000 0.179340 0.704459
O O11 0.105170 0.203861 0.797113
O O12 0.000000 0.060432 0.510428
O O13 0.095800 0.000000 0.500000
O O14 0.340160 0.193127 0.433448
O O15 0.750000 0.187357 0.250000
O O16 0.750000 0.250000 0.000000
#
# Coordination Sequence:
#
# PCOD8263139 Si02
#       6
#    16  16  16  16  16  16
#     4  10  21  38  58  82 112 147 188 233 281 335
#     4   9  20  37  55  78 108 141 180 225 274 327
#     4  10  20  36  57  80 110 147 186 230 280 332
#     4   9  19  35  54  79 109 141 181 226 271 324
#     4  10  21  37  55  80 112 143 182 231 276 331
#     4  11  22  37  58  84 114 149 188 232 285 341
#
# _framework density 21.397563999999999
#
# number of rings (size 3 to 8) (size 9 to 14) (size 15 to 20)
#    0.000    2.167    0.000    2.500    0.000    5.667 
#    0.000    3.333    0.000    0.000    0.000    0.000 
#    0.000    0.000    0.000    0.000    0.000    0.000 
#
# Total GULP energy -594667.286653 kJ/mol
# GULP energy per Si atom -12388.901805 kJ/mol
# Density = 2.134886 g / cm^3
# Si number density = 21.397564 Si / 1000 Ang^3
#
#
#
# Elastic Constant Matrix: (Units=GPa)
#
#
# Indices 1 2 3 4 5 6 
#
# 1 38.4276 23.3403 30.1995 0.0000 0.0000 0.0000
# 2 23.3403 232.3058 95.0513 0.0000 0.0000 0.0000
# 3 30.1995 95.0513 117.8906 0.0000 0.0000 0.0000
# 4 0.0000 0.0000 0.0000 54.1302 0.0000 0.0000
# 5 0.0000 0.0000 0.0000 0.0000 16.9356 0.0000
# 6 0.0000 0.0000 0.0000 0.0000 0.0000 20.3565
#
#
#
# Elastic Compliance Matrix: (Units=1/GPa)
#
#
# Indices 1 2 3 4 5 6 
#
# 1 0.032589 0.000211 -0.008518 0.000000 0.000000 0.000000
# 2 0.000211 0.006425 -0.005235 0.000000 0.000000 0.000000
# 3 -0.008518 -0.005235 0.014885 0.000000 0.000000 0.000000
# 4 0.000000 0.000000 0.000000 0.018474 0.000000 0.000000
# 5 0.000000 0.000000 0.000000 0.000000 0.059047 0.000000
# 6 0.000000 0.000000 0.000000 0.000000 0.000000 0.049124
#
#
# Mechanical properties :
#
#
# Convention : Reuss Voigt Hill
#
# Bulk Modulus (GPa) = 37.29156 76.20068 56.74612
# Shear Modulus (GPa) = 23.08750 34.28666 28.68708
#
# Velocity S-wave (km/s) = 3.28834 4.00730 3.66549
# Velocity P-wave (km/s) = 5.64654 7.55648 6.67022
#
# Compressibility (1/GPa) = 0.02681572
#
# Stress axis : x y z
#
# Youngs Moduli (GPa) = 30.68502 155.63598 67.18165
#
# Poissons Ratio (x) = -0.03286 0.57228
# Poissons Ratio (y) = -0.00648 0.35167
# Poissons Ratio (z) = 0.26139 0.81468
#
# Static dielectric constant tensor:
#      x y z
#    x 1.003160 0.000000 0.000000 
#    y 0.000000 4.778700 0.000000 
#    z 0.000000 0.000000 3.054040 
# 
# 
# High freq. dielectric constant tensor:
#      x y z
#    x 1.817450 0.000000 0.000000 
#    y 0.000000 1.873780 0.000000 
#    z 0.000000 0.000000 1.825850 
# 
# From -- ./inp_files/10330.got.cif
#   From: 2010.03.12/outbox.cif.g09.slc.cpg/sg64_6_cif.got.tgz:10330.got - 2010.04.10 20:19:32.
