data_PCOD8263033
_publ_section_title
;
Structure prediction by ZEFSAII (Michael W. Deem and Ramdas Pophale) SiO2 
 PCOD8263033
Probable space group: C M C A
;
_chemical_formula_sum "Si O2"
_cell_formula_units_Z 96
_cell_length_a 9.189987
_cell_length_b 22.594419
_cell_length_c 23.205903
_cell_angle_alpha 90.000000
_cell_angle_beta 90.000000
_cell_angle_gamma 90.000000
_cell_volume 4818.529785
_symmetry_space_group_name_H-M "C M C A"
_symmetry_group_IT_number 64
_symmetry_cell_setting 'orthorhombic'
loop_
_space_group_symop_operation_xyz
x,y,z
-x,1/2-y,1/2+z
x,-y,-z
-x,1/2+y,1/2-z
-x,-y,-z
x,1/2+y,1/2-z
-x,y,z
x,1/2-y,1/2+z
1/2+x,1/2+y,z
1/2-x,-y,1/2+z
1/2+x,1/2-y,-z
1/2-x,y,1/2-z
1/2-x,1/2-y,-z
1/2+x,y,1/2-z
1/2-x,1/2+y,z
1/2+x,-y,1/2+z
loop_
_atom_site_type_symbol
_atom_site_label
_atom_site_fract_x
_atom_site_fract_y
_atom_site_fract_z
Si Si1 0.334184 0.593752 0.912901
Si Si2 0.334321 0.975212 0.917465
Si Si3 0.672412 0.797290 0.874174
Si Si4 0.171149 0.321570 0.310881
Si Si5 0.667207 0.864042 0.534166
Si Si6 0.337931 0.089905 0.195363
O O1 0.500000 0.570475 0.908816
O O2 0.229238 0.539835 0.928375
O O3 0.288610 0.623882 0.852590
O O4 0.321912 0.642044 0.964630
O O5 0.500000 0.972323 0.940629
O O6 0.239543 0.926558 0.949960
O O7 0.330822 0.963815 0.849301
O O8 0.500000 0.798943 0.885385
O O9 0.724650 0.737271 0.843969
O O10 0.750969 0.808600 0.935701
O O11 0.725201 0.850215 0.832583
O O12 0.250000 0.329427 0.250000
O O13 0.000000 0.317761 0.299037
O O14 0.500000 0.864388 0.554574
O O15 0.500000 0.103009 0.216362
O O16 0.250000 0.068673 0.250000
#
# Coordination Sequence:
#
# PCOD8263033 Si02
#       6
#    16  16  16  16  16  16
#     4  10  22  38  55  79 112 147 181 222 271 322
#     4  10  21  36  54  79 110 144 183 227 275 326
#     4   9  19  36  56  80 110 141 177 225 275 321
#     4  10  22  40  59  80 111 149 186 224 267 318
#     4  10  20  35  57  84 111 140 178 224 275 328
#     4   9  18  31  49  75 103 133 174 222 270 317
#
# _framework density 19.923088
#
# number of rings (size 3 to 8) (size 9 to 14) (size 15 to 20)
#    0.000    2.333    0.000    3.000    0.000    9.333 
#    0.000    3.333    0.000    0.000    0.000    0.000 
#    0.000    0.000    0.000    0.000    0.000    0.000 
#
# Total GULP energy -595140.705734 kJ/mol
# GULP energy per Si atom -12398.764703 kJ/mol
# Density = 1.987774 g / cm^3
# Si number density = 19.923088 Si / 1000 Ang^3
#
#
#
# Elastic Constant Matrix: (Units=GPa)
#
#
# Indices 1 2 3 4 5 6 
#
# 1 78.9498 17.1363 41.1563 0.0000 0.0000 0.0000
# 2 17.1363 43.8208 18.8371 0.0000 0.0000 0.0000
# 3 41.1563 18.8371 103.7238 0.0000 0.0000 0.0000
# 4 0.0000 0.0000 0.0000 22.0257 0.0000 0.0000
# 5 0.0000 0.0000 0.0000 0.0000 33.4764 0.0000
# 6 0.0000 0.0000 0.0000 0.0000 0.0000 20.5204
#
#
#
# Elastic Compliance Matrix: (Units=1/GPa)
#
#
# Indices 1 2 3 4 5 6 
#
# 1 0.016581 -0.003966 -0.005859 0.000000 0.000000 0.000000
# 2 -0.003966 0.025701 -0.003094 0.000000 0.000000 0.000000
# 3 -0.005859 -0.003094 0.012528 0.000000 0.000000 0.000000
# 4 0.000000 0.000000 0.000000 0.045401 0.000000 0.000000
# 5 0.000000 0.000000 0.000000 0.000000 0.029872 0.000000
# 6 0.000000 0.000000 0.000000 0.000000 0.000000 0.048732
#
#
# Mechanical properties :
#
#
# Convention : Reuss Voigt Hill
#
# Bulk Modulus (GPa) = 34.51532 42.30598 38.41065
# Shear Modulus (GPa) = 23.33069 25.16217 24.24643
#
# Velocity S-wave (km/s) = 3.42576 3.55768 3.49234
# Velocity P-wave (km/s) = 5.74540 6.17712 5.96517
#
# Compressibility (1/GPa) = 0.02897264
#
# Stress axis : x y z
#
# Youngs Moduli (GPa) = 60.30871 38.90905 79.82319
#
# Poissons Ratio (x) = 0.15430 0.46769
# Poissons Ratio (y) = 0.23916 0.24697
# Poissons Ratio (z) = 0.35335 0.12038
#
# Static dielectric constant tensor:
#      x y z
#    x 3.594420 0.000000 0.000000 
#    y 0.000000 3.434340 0.000000 
#    z 0.000000 0.000000 3.713590 
# 
# 
# High freq. dielectric constant tensor:
#      x y z
#    x 1.773960 0.000000 0.000000 
#    y 0.000000 1.761960 0.000000 
#    z 0.000000 0.000000 1.785820 
# 
# From -- ./inp_files/42959.got.cif
#   From: 2010.03.12/outbox.cif.g09.slc.cpg/sg64_22_cif.got.tgz:42959.got - 2010.04.10 20:19:32.
