data_PCOD8263112
_publ_section_title
;
Structure prediction by ZEFSAII (Michael W. Deem and Ramdas Pophale) SiO2 
 PCOD8263112
Probable space group: C M C A
;
_chemical_formula_sum "Si O2"
_cell_formula_units_Z 112
_cell_length_a 24.858132
_cell_length_b 22.563762
_cell_length_c 10.468668
_cell_angle_alpha 90.000000
_cell_angle_beta 90.000000
_cell_angle_gamma 90.000000
_cell_volume 5871.802331
_symmetry_space_group_name_H-M "C M C A"
_symmetry_group_IT_number 64
_symmetry_cell_setting 'orthorhombic'
loop_
_space_group_symop_operation_xyz
x,y,z
-x,1/2-y,1/2+z
x,-y,-z
-x,1/2+y,1/2-z
-x,-y,-z
x,1/2+y,1/2-z
-x,y,z
x,1/2-y,1/2+z
1/2+x,1/2+y,z
1/2-x,-y,1/2+z
1/2+x,1/2-y,-z
1/2-x,y,1/2-z
1/2-x,1/2-y,-z
1/2+x,y,1/2-z
1/2-x,1/2+y,z
1/2+x,-y,1/2+z
loop_
_atom_site_type_symbol
_atom_site_label
_atom_site_fract_x
_atom_site_fract_y
_atom_site_fract_z
Si Si1 0.868932 0.927908 0.279665
Si Si2 0.146739 0.865250 0.889217
Si Si3 0.185324 0.135264 0.519870
Si Si4 0.294639 0.848552 0.367411
Si Si5 0.307023 0.457678 0.700797
Si Si6 0.562558 0.565630 0.953241
Si Si7 0.190794 0.281240 0.798136
O O1 0.869227 0.882792 0.402014
O O2 0.825532 0.907078 0.175286
O O3 0.924533 0.930294 0.199834
O O4 0.848623 0.990443 0.334747
O O5 0.166087 0.923032 0.816374
O O6 0.143053 0.810829 0.787317
O O7 0.192461 0.841069 0.983572
O O8 0.091925 0.882762 0.963892
O O9 0.229701 0.142118 0.635743
O O10 0.202064 0.083177 0.423025
O O11 0.180275 0.196795 0.444138
O O12 0.313906 0.789393 0.293022
O O13 0.250000 0.482792 0.750000
O O14 0.500000 0.577391 0.972471
O O15 0.579325 0.500000 0.000000
O O16 0.250000 0.302720 0.750000
#
# Coordination Sequence:
#
# PCOD8263112 Si02
#       7
#    16  16  16  16  16  16  16
#     4  11  23  32  53  85 110 143 196 232 284 344
#     4  10  20  36  55  84 110 146 197 237 284 337
#     4  11  20  33  48  78 119 160 185 218 270 332
#     4  11  21  33  51  80 119 161 196 223 262 334
#     4  11  19  34  51  78 126 160 177 220 273 340
#     4  10  21  41  66  82 105 142 193 255 300 347
#     4  11  21  34  54  76 123 161 195 228 264 337
#
# _framework density 19.074210999999998
#
# number of rings (size 3 to 8) (size 9 to 14) (size 15 to 20)
#    0.000    1.286    4.286    3.857    2.000    0.000 
#    0.000    0.000    0.000    8.571    0.000    0.000 
#    0.000    0.000    0.000    0.000    0.000    0.000 
#
# Total GULP energy -694026.567811 kJ/mol
# GULP energy per Si atom -12393.331568 kJ/mol
# Density = 1.903080 g / cm^3
# Si number density = 19.074211 Si / 1000 Ang^3
#
#
#
# Elastic Constant Matrix: (Units=GPa)
#
#
# Indices 1 2 3 4 5 6 
#
# 1 56.1195 25.6506 19.3509 0.0000 0.0000 0.0000
# 2 25.6506 84.3618 19.2776 0.0000 0.0000 0.0000
# 3 19.3509 19.2776 54.0799 0.0000 0.0000 0.0000
# 4 0.0000 0.0000 0.0000 22.9068 0.0000 0.0000
# 5 0.0000 0.0000 0.0000 0.0000 24.7526 0.0000
# 6 0.0000 0.0000 0.0000 0.0000 0.0000 17.7594
#
#
#
# Elastic Compliance Matrix: (Units=1/GPa)
#
#
# Indices 1 2 3 4 5 6 
#
# 1 0.022393 -0.005419 -0.006081 0.000000 0.000000 0.000000
# 2 -0.005419 0.014216 -0.003129 0.000000 0.000000 0.000000
# 3 -0.006081 -0.003129 0.021782 0.000000 0.000000 0.000000
# 4 0.000000 0.000000 0.000000 0.043655 0.000000 0.000000
# 5 0.000000 0.000000 0.000000 0.000000 0.040400 0.000000
# 6 0.000000 0.000000 0.000000 0.000000 0.000000 0.056308
#
#
# Mechanical properties :
#
#
# Convention : Reuss Voigt Hill
#
# Bulk Modulus (GPa) = 34.32380 35.90216 35.11298
# Shear Modulus (GPa) = 21.03286 21.76922 21.40104
#
# Velocity S-wave (km/s) = 3.32427 3.38196 3.35324
# Velocity P-wave (km/s) = 5.72436 5.84067 5.78281
#
# Compressibility (1/GPa) = 0.02913430
#
# Stress axis : x y z
#
# Youngs Moduli (GPa) = 44.65718 70.34171 45.90891
#
# Poissons Ratio (x) = 0.38119 0.27917
# Poissons Ratio (y) = 0.24200 0.14363
# Poissons Ratio (z) = 0.27156 0.22007
#
# Static dielectric constant tensor:
#      x y z
#    x 2.983170 0.000000 0.000000 
#    y 0.000000 3.454050 0.000000 
#    z 0.000000 0.000000 3.862100 
# 
# 
# High freq. dielectric constant tensor:
#      x y z
#    x 1.670010 0.000000 0.000000 
#    y 0.000000 1.747190 0.000000 
#    z 0.000000 0.000000 1.772050 
# 
# From -- ./inp_files/18650.got.cif
#   From: 2010.03.12/outbox.cif.g09.slc.cpg/sg64_10_cif.got.tgz:18650.got - 2010.04.10 20:19:32.
