data_PCOD8263121
_publ_section_title
;
Structure prediction by ZEFSAII (Michael W. Deem and Ramdas Pophale) SiO2 
 PCOD8263121
Probable space group: C M C A
;
_chemical_formula_sum "Si O2"
_cell_formula_units_Z 80
_cell_length_a 8.571255
_cell_length_b 27.709790
_cell_length_c 17.765849
_cell_angle_alpha 90.000000
_cell_angle_beta 90.000000
_cell_angle_gamma 90.000000
_cell_volume 4219.525510
_symmetry_space_group_name_H-M "C M C A"
_symmetry_group_IT_number 64
_symmetry_cell_setting 'orthorhombic'
loop_
_space_group_symop_operation_xyz
x,y,z
-x,1/2-y,1/2+z
x,-y,-z
-x,1/2+y,1/2-z
-x,-y,-z
x,1/2+y,1/2-z
-x,y,z
x,1/2-y,1/2+z
1/2+x,1/2+y,z
1/2-x,-y,1/2+z
1/2+x,1/2-y,-z
1/2-x,y,1/2-z
1/2-x,1/2-y,-z
1/2+x,y,1/2-z
1/2-x,1/2+y,z
1/2+x,-y,1/2+z
loop_
_atom_site_type_symbol
_atom_site_label
_atom_site_fract_x
_atom_site_fract_y
_atom_site_fract_z
Si Si1 0.681967 0.196735 0.596784
Si Si2 0.314742 0.446079 0.018735
Si Si3 0.317256 0.789881 0.667430
Si Si4 0.816823 0.146244 0.453539
Si Si5 0.819270 0.598434 0.671540
O O1 0.500000 0.210906 0.598178
O O2 0.785452 0.242299 0.618336
O O3 0.725417 0.179005 0.513685
O O4 0.719667 0.154442 0.656424
O O5 0.500000 0.439063 0.011976
O O6 0.253793 0.433790 0.102800
O O7 0.261307 0.500000 0.000000
O O8 0.233081 0.409644 0.960370
O O9 0.500000 0.799762 0.671667
O O10 0.250000 0.782225 0.750000
O O11 0.232435 0.835549 0.629063
O O12 0.000000 0.151971 0.466201
O O13 0.750000 0.580716 0.750000
O O14 0.000000 0.589387 0.676952
#
# Coordination Sequence:
#
# PCOD8263121 Si02
#       5
#    16  16  16  16  16
#     4  10  20  36  56  80 110 146 185 222 268 325
#     4   9  19  38  60  79 104 142 184 226 277 333
#     4  12  24  38  55  79 112 149 187 226 270 321
#     4  11  22  37  57  82 110 142 182 228 276 325
#     4   9  18  31  51  79 108 137 171 216 269 322
#
# _framework density 18.959478000000001
#
# number of rings (size 3 to 8) (size 9 to 14) (size 15 to 20)
#    0.000    1.800    0.000    6.600    0.000    6.000 
#    0.000    1.000    0.000    2.400    0.000    0.000 
#    0.000    0.000    0.000    0.000    0.000    0.000 
#
# Total GULP energy -496118.007276 kJ/mol
# GULP energy per Si atom -12402.950182 kJ/mol
# Density = 1.891633 g / cm^3
# Si number density = 18.959478 Si / 1000 Ang^3
#
#
#
# Elastic Constant Matrix: (Units=GPa)
#
#
# Indices 1 2 3 4 5 6 
#
# 1 59.0425 35.8408 21.6331 0.0000 0.0000 0.0000
# 2 35.8408 117.7679 40.3763 0.0000 0.0000 0.0000
# 3 21.6331 40.3763 55.1034 0.0000 0.0000 0.0000
# 4 0.0000 0.0000 0.0000 17.9273 0.0000 0.0000
# 5 0.0000 0.0000 0.0000 0.0000 32.6543 0.0000
# 6 0.0000 0.0000 0.0000 0.0000 0.0000 26.9819
#
#
#
# Elastic Compliance Matrix: (Units=1/GPa)
#
#
# Indices 1 2 3 4 5 6 
#
# 1 0.021730 -0.004926 -0.004922 0.000000 0.000000 0.000000
# 2 -0.004926 0.012457 -0.007194 0.000000 0.000000 0.000000
# 3 -0.004922 -0.007194 0.025351 0.000000 0.000000 0.000000
# 4 0.000000 0.000000 0.000000 0.055781 0.000000 0.000000
# 5 0.000000 0.000000 0.000000 0.000000 0.030624 0.000000
# 6 0.000000 0.000000 0.000000 0.000000 0.000000 0.037062
#
#
# Mechanical properties :
#
#
# Convention : Reuss Voigt Hill
#
# Bulk Modulus (GPa) = 39.28423 47.51270 43.39846
# Shear Modulus (GPa) = 22.16580 24.45026 23.30803
#
# Velocity S-wave (km/s) = 3.42294 3.59500 3.51003
# Velocity P-wave (km/s) = 6.03217 6.50743 6.27430
#
# Compressibility (1/GPa) = 0.02545551
#
# Stress axis : x y z
#
# Youngs Moduli (GPa) = 46.01833 80.27802 39.44617
#
# Poissons Ratio (x) = 0.39544 0.19415
# Poissons Ratio (y) = 0.22668 0.28376
# Poissons Ratio (z) = 0.22649 0.57749
#
# Static dielectric constant tensor:
#      x y z
#    x 3.435340 0.000000 0.000000 
#    y 0.000000 3.464080 0.000000 
#    z 0.000000 0.000000 4.368240 
# 
# 
# High freq. dielectric constant tensor:
#      x y z
#    x 1.740240 0.000000 0.000000 
#    y 0.000000 1.725040 0.000000 
#    z 0.000000 0.000000 1.736280 
# 
# From -- ./inp_files/29729.got.cif
#   From: 2010.03.12/outbox.cif.g09.slc.cpg/sg64_15_cif.got.tgz:29729.got - 2010.04.10 20:19:32.
