data_PCOD8263111
_publ_section_title
;
Structure prediction by ZEFSAII (Michael W. Deem and Ramdas Pophale) SiO2 
 PCOD8263111
Probable space group: C M C A
;
_chemical_formula_sum "Si O2"
_cell_formula_units_Z 96
_cell_length_a 23.775458
_cell_length_b 8.681512
_cell_length_c 22.879989
_cell_angle_alpha 90.000000
_cell_angle_beta 90.000000
_cell_angle_gamma 90.000000
_cell_volume 4722.588149
_symmetry_space_group_name_H-M "C M C A"
_symmetry_group_IT_number 64
_symmetry_cell_setting 'orthorhombic'
loop_
_space_group_symop_operation_xyz
x,y,z
-x,1/2-y,1/2+z
x,-y,-z
-x,1/2+y,1/2-z
-x,-y,-z
x,1/2+y,1/2-z
-x,y,z
x,1/2-y,1/2+z
1/2+x,1/2+y,z
1/2-x,-y,1/2+z
1/2+x,1/2-y,-z
1/2-x,y,1/2-z
1/2-x,1/2-y,-z
1/2+x,y,1/2-z
1/2-x,1/2+y,z
1/2+x,-y,1/2+z
loop_
_atom_site_type_symbol
_atom_site_label
_atom_site_fract_x
_atom_site_fract_y
_atom_site_fract_z
Si Si1 0.117828 0.069811 0.833458
Si Si2 0.619481 0.597550 0.370869
Si Si3 0.289113 0.465077 0.435974
Si Si4 0.797161 0.334258 0.628357
Si Si5 0.692453 0.919140 0.222835
Si Si6 0.500000 0.396027 0.211853
Si Si7 0.000000 0.050185 0.329597
O O1 0.118484 0.218343 0.875086
O O2 0.151737 0.120915 0.776148
O O3 0.054340 0.024217 0.816961
O O4 0.143861 0.925016 0.868017
O O5 0.648490 0.537832 0.430474
O O6 0.657990 0.537710 0.317304
O O7 0.556109 0.531777 0.368353
O O8 0.264163 0.500000 0.500000
O O9 0.250973 0.537791 0.383434
O O10 0.294081 0.281903 0.426550
O O11 0.790778 0.237935 0.688364
O O12 0.750000 0.991903 0.250000
O O13 0.500000 0.417606 0.281260
O O14 0.500000 0.213477 0.203110
#
# Coordination Sequence:
#
# PCOD8263111 Si02
#       7
#    16  16  16  16  16   8   8
#     4  11  21  36  55  87 121 155 190 228 283 358
#     4  10  21  36  56  81 113 149 191 237 291 345
#     4  11  23  42  62  85 112 151 203 258 303 345
#     4  11  24  37  58  87 117 155 195 240 297 345
#     4  11  21  33  53  83 119 157 186 226 283 358
#     4  10  22  34  58  83 122 162 194 223 280 347
#     4  10  20  36  55  83 115 156 189 237 279 353
#
# _framework density 20.327836000000001
#
# number of rings (size 3 to 8) (size 9 to 14) (size 15 to 20)
#    0.000    1.333    1.667    5.500    2.333    2.667 
#    0.000    0.417    0.000    0.000    0.000    4.083 
#    0.000    0.000    0.000    0.000    0.000    0.000 
#
# Total GULP energy -595048.759037 kJ/mol
# GULP energy per Si atom -12396.849147 kJ/mol
# Density = 2.028157 g / cm^3
# Si number density = 20.327836 Si / 1000 Ang^3
#
#
#
# Elastic Constant Matrix: (Units=GPa)
#
#
# Indices 1 2 3 4 5 6 
#
# 1 152.9713 37.9900 26.6415 0.0000 0.0000 0.0000
# 2 37.9900 80.9431 16.1187 0.0000 0.0000 0.0000
# 3 26.6415 16.1187 52.8634 0.0000 0.0000 0.0000
# 4 0.0000 0.0000 0.0000 22.0221 0.0000 0.0000
# 5 0.0000 0.0000 0.0000 0.0000 17.7507 0.0000
# 6 0.0000 0.0000 0.0000 0.0000 0.0000 26.1476
#
#
#
# Elastic Compliance Matrix: (Units=1/GPa)
#
#
# Indices 1 2 3 4 5 6 
#
# 1 0.007824 -0.003074 -0.003006 0.000000 0.000000 0.000000
# 2 -0.003074 0.014360 -0.002830 0.000000 0.000000 0.000000
# 3 -0.003006 -0.002830 0.021294 0.000000 0.000000 0.000000
# 4 0.000000 0.000000 0.000000 0.045409 0.000000 0.000000
# 5 0.000000 0.000000 0.000000 0.000000 0.056336 0.000000
# 6 0.000000 0.000000 0.000000 0.000000 0.000000 0.038244
#
#
# Mechanical properties :
#
#
# Convention : Reuss Voigt Hill
#
# Bulk Modulus (GPa) = 38.97041 49.80871 44.38956
# Shear Modulus (GPa) = 23.82770 26.91924 25.37347
#
# Velocity S-wave (km/s) = 3.42741 3.64298 3.53684
# Velocity P-wave (km/s) = 5.90554 6.50007 6.20993
#
# Compressibility (1/GPa) = 0.02566049
#
# Stress axis : x y z
#
# Youngs Moduli (GPa) = 127.81208 69.63600 46.96082
#
# Poissons Ratio (x) = 0.21403 0.14116
# Poissons Ratio (y) = 0.39284 0.13288
# Poissons Ratio (z) = 0.38419 0.19705
#
# Static dielectric constant tensor:
#      x y z
#    x 3.990330 0.000000 0.000000 
#    y 0.000000 3.691190 0.000000 
#    z 0.000000 0.000000 3.332240 
# 
# 
# High freq. dielectric constant tensor:
#      x y z
#    x 1.800540 0.000000 0.000000 
#    y 0.000000 1.802590 0.000000 
#    z 0.000000 0.000000 1.753810 
# 
# From -- ./inp_files/46616.got.cif
#   From: 2010.03.12/outbox.cif.g09.slc.cpg/sg64_24_cif.got.tgz:46616.got - 2010.04.10 20:19:32.
