data_PCOD8263005
_publ_section_title
;
Structure prediction by ZEFSAII (Michael W. Deem and Ramdas Pophale) SiO2 
 PCOD8263005
Probable space group: C M C A
;
_chemical_formula_sum "Si O2"
_cell_formula_units_Z 112
_cell_length_a 27.064932
_cell_length_b 14.799866
_cell_length_c 14.316864
_cell_angle_alpha 90.000000
_cell_angle_beta 90.000000
_cell_angle_gamma 90.000000
_cell_volume 5734.725346
_symmetry_space_group_name_H-M "C M C A"
_symmetry_group_IT_number 64
_symmetry_cell_setting 'orthorhombic'
loop_
_space_group_symop_operation_xyz
x,y,z
-x,1/2-y,1/2+z
x,-y,-z
-x,1/2+y,1/2-z
-x,-y,-z
x,1/2+y,1/2-z
-x,y,z
x,1/2-y,1/2+z
1/2+x,1/2+y,z
1/2-x,-y,1/2+z
1/2+x,1/2-y,-z
1/2-x,y,1/2-z
1/2-x,1/2-y,-z
1/2+x,y,1/2-z
1/2-x,1/2+y,z
1/2+x,-y,1/2+z
loop_
_atom_site_type_symbol
_atom_site_label
_atom_site_fract_x
_atom_site_fract_y
_atom_site_fract_z
Si Si1 0.943109 0.671519 0.319975
Si Si2 0.707949 0.294490 0.175072
Si Si3 0.803168 0.519410 0.594724
Si Si4 0.720205 0.404420 0.653345
Si Si5 0.872986 0.526922 0.237628
Si Si6 0.557519 0.604804 0.978852
Si Si7 0.399496 0.662896 0.779093
O O1 0.913687 0.602919 0.253837
O O2 0.927061 0.663532 0.429196
O O3 0.936146 0.771690 0.277516
O O4 0.000000 0.643572 0.312072
O O5 0.750000 0.316087 0.250000
O O6 0.709302 0.374988 0.101111
O O7 0.717775 0.200205 0.122541
O O8 0.654532 0.291169 0.225327
O O9 0.833366 0.500000 0.500000
O O10 0.752079 0.463466 0.582268
O O11 0.838049 0.483144 0.673840
O O12 0.750000 0.412351 0.750000
O O13 0.664265 0.443830 0.655140
O O14 0.899427 0.430769 0.220090
O O15 0.500000 0.617585 0.955947
O O16 0.569227 0.500000 0.000000
O O17 0.586349 0.642042 0.887481
#
# Coordination Sequence:
#
# PCOD8263005 Si02
#       7
#    16  16  16  16  16  16  16
#     4  11  23  37  59  92 120 155 204 251 308 363
#     4  10  20  35  56  81 112 153 196 237 289 355
#     4  10  21  33  54  84 115 146 192 242 292 349
#     4   9  18  37  54  76 112 150 188 234 286 347
#     4  10  20  36  59  81 115 154 195 245 299 359
#     4  10  21  38  61  92 121 150 203 265 303 349
#     4  11  21  36  63  88 123 160 197 244 315 362
#
# _framework density 19.530142000000001
#
# number of rings (size 3 to 8) (size 9 to 14) (size 15 to 20)
#    0.000    1.857    2.857    2.571    4.000    1.143 
#    0.000    2.857    0.000    0.000    0.000    3.000 
#    0.000    0.000    0.000    0.000    0.000    0.000 
#
# Total GULP energy -694035.350051 kJ/mol
# GULP energy per Si atom -12393.488394 kJ/mol
# Density = 1.948569 g / cm^3
# Si number density = 19.530142 Si / 1000 Ang^3
#
#
#
# Elastic Constant Matrix: (Units=GPa)
#
#
# Indices 1 2 3 4 5 6 
#
# 1 82.4189 26.1996 8.1766 0.0000 0.0000 0.0000
# 2 26.1996 127.4086 27.2513 0.0000 0.0000 0.0000
# 3 8.1766 27.2513 53.9682 0.0000 0.0000 0.0000
# 4 0.0000 0.0000 0.0000 6.3995 0.0000 0.0000
# 5 0.0000 0.0000 0.0000 0.0000 11.8917 0.0000
# 6 0.0000 0.0000 0.0000 0.0000 0.0000 24.2478
#
#
#
# Elastic Compliance Matrix: (Units=1/GPa)
#
#
# Indices 1 2 3 4 5 6 
#
# 1 0.013005 -0.002526 -0.000695 0.000000 0.000000 0.000000
# 2 -0.002526 0.009290 -0.004308 0.000000 0.000000 0.000000
# 3 -0.000695 -0.004308 0.020810 0.000000 0.000000 0.000000
# 4 0.000000 0.000000 0.000000 0.156262 0.000000 0.000000
# 5 0.000000 0.000000 0.000000 0.000000 0.084092 0.000000
# 6 0.000000 0.000000 0.000000 0.000000 0.000000 0.041241
#
#
# Mechanical properties :
#
#
# Convention : Reuss Voigt Hill
#
# Bulk Modulus (GPa) = 35.65432 43.00563 39.32997
# Shear Modulus (GPa) = 14.32227 21.98568 18.15397
#
# Velocity S-wave (km/s) = 2.71097 3.35883 3.05214
# Velocity P-wave (km/s) = 5.30045 6.09182 5.70986
#
# Compressibility (1/GPa) = 0.02804709
#
# Stress axis : x y z
#
# Youngs Moduli (GPa) = 76.89389 107.64758 48.05348
#
# Poissons Ratio (x) = 0.27187 0.03340
# Poissons Ratio (y) = 0.19420 0.20702
# Poissons Ratio (z) = 0.05345 0.46376
#
# Static dielectric constant tensor:
#      x y z
#    x 3.822550 0.000000 0.000000 
#    y 0.000000 3.788680 0.000000 
#    z 0.000000 0.000000 3.447920 
# 
# 
# High freq. dielectric constant tensor:
#      x y z
#    x 1.773100 0.000000 0.000000 
#    y 0.000000 1.770340 0.000000 
#    z 0.000000 0.000000 1.721710 
# 
# From -- ./inp_files/28065.got.cif
#   From: 2010.03.12/outbox.cif.g09.slc.cpg/sg64_15_cif.got.tgz:28065.got - 2010.04.10 20:19:32.
