data_PCOD8263815
_publ_section_title
;
Structure prediction by ZEFSAII (Michael W. Deem and Ramdas Pophale) SiO2 
 PCOD8263815
Probable space group: C M C A
;
_chemical_formula_sum "Si O2"
_cell_formula_units_Z 64
_cell_length_a 10.436416
_cell_length_b 32.523019
_cell_length_c 9.360987
_cell_angle_alpha 90.000000
_cell_angle_beta 90.000000
_cell_angle_gamma 90.000000
_cell_volume 3177.341366
_symmetry_space_group_name_H-M "C M C A"
_symmetry_group_IT_number 64
_symmetry_cell_setting 'orthorhombic'
loop_
_space_group_symop_operation_xyz
x,y,z
-x,1/2-y,1/2+z
x,-y,-z
-x,1/2+y,1/2-z
-x,-y,-z
x,1/2+y,1/2-z
-x,y,z
x,1/2-y,1/2+z
1/2+x,1/2+y,z
1/2-x,-y,1/2+z
1/2+x,1/2-y,-z
1/2-x,y,1/2-z
1/2-x,1/2-y,-z
1/2+x,y,1/2-z
1/2-x,1/2+y,z
1/2+x,-y,1/2+z
loop_
_atom_site_type_symbol
_atom_site_label
_atom_site_fract_x
_atom_site_fract_y
_atom_site_fract_z
Si Si1 0.356675 0.878041 0.636367
Si Si2 0.282953 0.185119 0.592287
Si Si3 0.354987 0.472257 0.863379
Si Si4 0.637625 0.226254 0.139144
O O1 0.500000 0.873921 0.702630
O O2 0.250000 0.862407 0.750000
O O3 0.351656 0.851548 0.491822
O O4 0.328461 0.925037 0.593840
O O5 0.250000 0.168456 0.750000
O O6 0.371851 0.225432 0.603323
O O7 0.156840 0.200246 0.506125
O O8 0.500000 0.477602 0.802881
O O9 0.250000 0.487247 0.750000
O O10 0.333862 0.500000 0.000000
O O11 0.500000 0.213227 0.205183
O O12 0.750000 0.215861 0.250000
#
# Coordination Sequence:
#
# PCOD8263815 Si02
#       4
#    16  16  16  16
#     4  10  21  38  58  80 110 146 181 219 266 321
#     4  10  22  35  54  81 109 139 181 229 273 318
#     4   9  19  36  58  84 112 143 179 218 264 319
#     4  10  22  39  57  77 105 143 184 226 274 326
#
# _framework density 20.142627000000001
#
# number of rings (size 3 to 8) (size 9 to 14) (size 15 to 20)
#    0.000    2.250    0.000    1.500    0.000   16.500 
#    0.000    0.000    0.000    0.000    0.000    0.000 
#    0.000    0.000    0.000    0.000    0.000    0.000 
#
# Total GULP energy -396634.152742 kJ/mol
# GULP energy per Si atom -12394.817273 kJ/mol
# Density = 2.009678 g / cm^3
# Si number density = 20.142627 Si / 1000 Ang^3
#
#
#
# Elastic Constant Matrix: (Units=GPa)
#
#
# Indices 1 2 3 4 5 6 
#
# 1 174.3805 31.7795 77.9982 0.0000 0.0000 0.0000
# 2 31.7795 80.1438 49.7910 0.0000 0.0000 0.0000
# 3 77.9982 49.7910 134.4123 0.0000 0.0000 0.0000
# 4 0.0000 0.0000 0.0000 36.5556 0.0000 0.0000
# 5 0.0000 0.0000 0.0000 0.0000 30.1171 0.0000
# 6 0.0000 0.0000 0.0000 0.0000 0.0000 117.1541
#
#
#
# Elastic Compliance Matrix: (Units=1/GPa)
#
#
# Indices 1 2 3 4 5 6 
#
# 1 0.007753 -0.000363 -0.004365 0.000000 0.000000 0.000000
# 2 -0.000363 0.016225 -0.005800 0.000000 0.000000 0.000000
# 3 -0.004365 -0.005800 0.012121 0.000000 0.000000 0.000000
# 4 0.000000 0.000000 0.000000 0.027356 0.000000 0.000000
# 5 0.000000 0.000000 0.000000 0.000000 0.033204 0.000000
# 6 0.000000 0.000000 0.000000 0.000000 0.000000 0.008536
#
#
# Mechanical properties :
#
#
# Convention : Reuss Voigt Hill
#
# Bulk Modulus (GPa) = 66.46949 78.67489 72.57219
# Shear Modulus (GPa) = 38.09170 52.05657 45.07413
#
# Velocity S-wave (km/s) = 4.35339 5.08921 4.73562
# Velocity P-wave (km/s) = 7.63809 8.58354 8.12458
#
# Compressibility (1/GPa) = 0.01504450
#
# Stress axis : x y z
#
# Youngs Moduli (GPa) = 128.98393 61.63492 82.50195
#
# Poissons Ratio (x) = 0.02235 0.36009
# Poissons Ratio (y) = 0.04678 0.47849
# Poissons Ratio (z) = 0.56296 0.35746
#
# Static dielectric constant tensor:
#      x y z
#    x 3.692900 0.000000 0.000000 
#    y 0.000000 3.689360 0.000000 
#    z 0.000000 0.000000 3.540710 
# 
# 
# High freq. dielectric constant tensor:
#      x y z
#    x 1.790130 0.000000 0.000000 
#    y 0.000000 1.786960 0.000000 
#    z 0.000000 0.000000 1.770990 
# 
# From -- ./inp_files/4602.got.cif
#   From: 2010.03.12/outbox.cif.g09.slc.cpg/sg64_3_cif.got.tgz:4602.got - 2010.04.10 20:19:32.
