data_PCOD8263728
_publ_section_title
;
Structure prediction by ZEFSAII (Michael W. Deem and Ramdas Pophale) SiO2 
 PCOD8263728
Probable space group: C M C A
;
_chemical_formula_sum "Si O2"
_cell_formula_units_Z 96
_cell_length_a 9.192091
_cell_length_b 19.578241
_cell_length_c 28.808971
_cell_angle_alpha 90.000000
_cell_angle_beta 90.000000
_cell_angle_gamma 90.000000
_cell_volume 5184.605685
_symmetry_space_group_name_H-M "C M C A"
_symmetry_group_IT_number 64
_symmetry_cell_setting 'orthorhombic'
loop_
_space_group_symop_operation_xyz
x,y,z
-x,1/2-y,1/2+z
x,-y,-z
-x,1/2+y,1/2-z
-x,-y,-z
x,1/2+y,1/2-z
-x,y,z
x,1/2-y,1/2+z
1/2+x,1/2+y,z
1/2-x,-y,1/2+z
1/2+x,1/2-y,-z
1/2-x,y,1/2-z
1/2-x,1/2-y,-z
1/2+x,y,1/2-z
1/2-x,1/2+y,z
1/2+x,-y,1/2+z
loop_
_atom_site_type_symbol
_atom_site_label
_atom_site_fract_x
_atom_site_fract_y
_atom_site_fract_z
Si Si1 0.170245 0.353581 0.296838
Si Si2 0.170705 0.010531 0.202891
Si Si3 0.166634 0.575889 0.481730
Si Si4 0.334601 0.692304 0.526996
Si Si5 0.172203 0.106753 0.120922
Si Si6 0.834404 0.761865 0.368433
O O1 0.250000 0.331668 0.250000
O O2 0.205869 0.432034 0.309547
O O3 0.226905 0.305219 0.337116
O O4 0.000000 0.341879 0.290081
O O5 0.250000 0.033160 0.250000
O O6 0.233369 0.056777 0.160962
O O7 0.000000 0.022158 0.210396
O O8 0.179315 0.500000 0.500000
O O9 0.261651 0.619918 0.516946
O O10 0.230000 0.582479 0.429430
O O11 0.000000 0.602016 0.482955
O O12 0.500000 0.691691 0.509481
O O13 0.250000 0.750000 0.500000
O O14 0.325607 0.706080 0.581106
O O15 0.222729 0.183977 0.130931
O O16 0.000000 0.101696 0.120438
O O17 0.000000 0.765310 0.349552
#
# Coordination Sequence:
#
# PCOD8263728 Si02
#       6
#    16  16  16  16  16  16
#     4  10  21  37  59  85 112 143 185 230 278 338
#     4   9  19  36  58  80 107 142 180 226 276 330
#     4  10  21  37  60  85 114 153 195 237 286 345
#     4  11  22  38  59  83 118 156 193 237 287 340
#     4   9  18  36  56  80 112 145 183 230 281 328
#     4  10  21  37  57  81 114 151 184 230 284 333
#
# _framework density 18.516355000000001
#
# number of rings (size 3 to 8) (size 9 to 14) (size 15 to 20)
#    0.000    2.167    1.667    1.000    2.333    3.000 
#    0.000    3.333    0.000    0.000    0.000    0.000 
#    0.000    0.000    0.000    0.000    0.000    0.000 
#
# Total GULP energy -595301.349278 kJ/mol
# GULP energy per Si atom -12402.111443 kJ/mol
# Density = 1.847421 g / cm^3
# Si number density = 18.516355 Si / 1000 Ang^3
#
#
#
# Elastic Constant Matrix: (Units=GPa)
#
#
# Indices 1 2 3 4 5 6 
#
# 1 83.1481 49.7228 47.4643 0.0000 0.0000 0.0000
# 2 49.7228 108.5261 70.2309 0.0000 0.0000 0.0000
# 3 47.4643 70.2309 106.5129 0.0000 0.0000 0.0000
# 4 0.0000 0.0000 0.0000 39.4475 0.0000 0.0000
# 5 0.0000 0.0000 0.0000 0.0000 32.3156 0.0000
# 6 0.0000 0.0000 0.0000 0.0000 0.0000 25.9142
#
#
#
# Elastic Compliance Matrix: (Units=1/GPa)
#
#
# Indices 1 2 3 4 5 6 
#
# 1 0.017687 -0.005238 -0.004428 0.000000 0.000000 0.000000
# 2 -0.005238 0.017624 -0.009286 0.000000 0.000000 0.000000
# 3 -0.004428 -0.009286 0.017485 0.000000 0.000000 0.000000
# 4 0.000000 0.000000 0.000000 0.025350 0.000000 0.000000
# 5 0.000000 0.000000 0.000000 0.000000 0.030945 0.000000
# 6 0.000000 0.000000 0.000000 0.000000 0.000000 0.038589
#
#
# Mechanical properties :
#
#
# Convention : Reuss Voigt Hill
#
# Bulk Modulus (GPa) = 67.15513 70.33588 68.74551
# Shear Modulus (GPa) = 26.24030 28.25342 27.24686
#
# Velocity S-wave (km/s) = 3.76858 3.91047 3.84018
# Velocity P-wave (km/s) = 7.43525 7.64574 7.54123
#
# Compressibility (1/GPa) = 0.01489089
#
# Stress axis : x y z
#
# Youngs Moduli (GPa) = 56.53987 56.74165 57.19296
#
# Poissons Ratio (x) = 0.29722 0.25323
# Poissons Ratio (y) = 0.29616 0.53111
# Poissons Ratio (z) = 0.25034 0.52692
#
# Static dielectric constant tensor:
#      x y z
#    x 3.383810 0.000000 0.000000 
#    y 0.000000 3.523830 0.000000 
#    z 0.000000 0.000000 3.409410 
# 
# 
# High freq. dielectric constant tensor:
#      x y z
#    x 1.703150 0.000000 0.000000 
#    y 0.000000 1.726270 0.000000 
#    z 0.000000 0.000000 1.725550 
# 
# From -- ./inp_files/48165.got.cif
#   From: 2010.03.12/outbox.cif.g09.slc.cpg/sg64_25_cif.got.tgz:48165.got - 2010.04.10 20:19:32.
