data_PCOD8263143
_publ_section_title
;
Structure prediction by ZEFSAII (Michael W. Deem and Ramdas Pophale) SiO2 
 PCOD8263143
Probable space group: C M C A
;
_chemical_formula_sum "Si O2"
_cell_formula_units_Z 96
_cell_length_a 8.838887
_cell_length_b 25.152776
_cell_length_c 23.446662
_cell_angle_alpha 90.000000
_cell_angle_beta 90.000000
_cell_angle_gamma 90.000000
_cell_volume 5212.721563
_symmetry_space_group_name_H-M "C M C A"
_symmetry_group_IT_number 64
_symmetry_cell_setting 'orthorhombic'
loop_
_space_group_symop_operation_xyz
x,y,z
-x,1/2-y,1/2+z
x,-y,-z
-x,1/2+y,1/2-z
-x,-y,-z
x,1/2+y,1/2-z
-x,y,z
x,1/2-y,1/2+z
1/2+x,1/2+y,z
1/2-x,-y,1/2+z
1/2+x,1/2-y,-z
1/2-x,y,1/2-z
1/2-x,1/2-y,-z
1/2+x,y,1/2-z
1/2-x,1/2+y,z
1/2+x,-y,1/2+z
loop_
_atom_site_type_symbol
_atom_site_label
_atom_site_fract_x
_atom_site_fract_y
_atom_site_fract_z
Si Si1 0.325267 0.806680 0.006283
Si Si2 0.178293 0.854028 0.375808
Si Si3 0.326254 0.840365 0.882805
Si Si4 0.179660 0.947456 0.189569
Si Si5 0.678615 0.440894 0.690524
Si Si6 0.323800 0.251304 0.810227
O O1 0.500000 0.794784 0.016465
O O2 0.263492 0.838371 0.061115
O O3 0.250000 0.750000 0.000000
O O4 0.295773 0.842592 0.950497
O O5 0.271923 0.905713 0.358324
O O6 0.221201 0.806893 0.332392
O O7 0.000000 0.866622 0.374658
O O8 0.500000 0.826435 0.869263
O O9 0.283048 0.897542 0.857394
O O10 0.225032 0.794467 0.856317
O O11 0.250000 0.929963 0.250000
O O12 0.000000 0.949918 0.195185
O O13 0.243897 0.004539 0.170773
O O14 0.500000 0.449777 0.698491
O O15 0.750000 0.421063 0.750000
O O16 0.500000 0.256515 0.801554
O O17 0.250000 0.263530 0.750000
#
# Coordination Sequence:
#
# PCOD8263143 Si02
#       6
#    16  16  16  16  16  16
#     4  10  20  37  58  82 112 149 189 228 274 327
#     4  10  21  37  56  81 112 147 187 228 274 330
#     4  10  21  36  57  83 112 146 186 228 275 330
#     4  11  22  37  59  84 110 145 184 230 282 333
#     4  10  20  36  57  82 111 146 183 226 277 332
#     4  11  22  34  52  80 112 146 181 226 280 330
#
# _framework density 18.416485000000002
#
# number of rings (size 3 to 8) (size 9 to 14) (size 15 to 20)
#    0.000    1.667    1.667    4.500    0.000    6.000 
#    0.000    0.833    0.000    5.000    0.000    0.000 
#    0.000    0.000    0.000    0.000    0.000    0.000 
#
# Total GULP energy -595371.061094 kJ/mol
# GULP energy per Si atom -12403.563773 kJ/mol
# Density = 1.837457 g / cm^3
# Si number density = 18.416485 Si / 1000 Ang^3
#
#
#
# Elastic Constant Matrix: (Units=GPa)
#
#
# Indices 1 2 3 4 5 6 
#
# 1 86.9198 54.3210 43.8703 0.0000 0.0000 0.0000
# 2 54.3210 111.2805 52.2842 0.0000 0.0000 0.0000
# 3 43.8703 52.2842 95.6957 0.0000 0.0000 0.0000
# 4 0.0000 0.0000 0.0000 28.0349 0.0000 0.0000
# 5 0.0000 0.0000 0.0000 0.0000 24.1681 0.0000
# 6 0.0000 0.0000 0.0000 0.0000 0.0000 31.0686
#
#
#
# Elastic Compliance Matrix: (Units=1/GPa)
#
#
# Indices 1 2 3 4 5 6 
#
# 1 0.017963 -0.006591 -0.004634 0.000000 0.000000 0.000000
# 2 -0.006591 0.014509 -0.004905 0.000000 0.000000 0.000000
# 3 -0.004634 -0.004905 0.015254 0.000000 0.000000 0.000000
# 4 0.000000 0.000000 0.000000 0.035670 0.000000 0.000000
# 5 0.000000 0.000000 0.000000 0.000000 0.041377 0.000000
# 6 0.000000 0.000000 0.000000 0.000000 0.000000 0.032187
#
#
# Mechanical properties :
#
#
# Convention : Reuss Voigt Hill
#
# Bulk Modulus (GPa) = 64.66155 66.09410 65.37783
# Shear Modulus (GPa) = 25.72362 26.21569 25.96965
#
# Velocity S-wave (km/s) = 3.74139 3.77701 3.75924
# Velocity P-wave (km/s) = 7.33832 7.41536 7.37694
#
# Compressibility (1/GPa) = 0.01546514
#
# Stress axis : x y z
#
# Youngs Moduli (GPa) = 55.67037 68.92510 65.55710
#
# Poissons Ratio (x) = 0.45432 0.30376
# Poissons Ratio (y) = 0.36695 0.32156
# Poissons Ratio (z) = 0.25795 0.33808
#
# Static dielectric constant tensor:
#      x y z
#    x 3.470220 0.000000 0.000000 
#    y 0.000000 3.400570 0.000000 
#    z 0.000000 0.000000 3.689110 
# 
# 
# High freq. dielectric constant tensor:
#      x y z
#    x 1.718890 0.000000 0.000000 
#    y 0.000000 1.713980 0.000000 
#    z 0.000000 0.000000 1.716930 
# 
# From -- ./inp_files/36986.got.cif
#   From: 2010.03.12/outbox.cif.g09.slc.cpg/sg64_19_cif.got.tgz:36986.got - 2010.04.10 20:19:32.
