data_PCOD8263345
_publ_section_title
;
Structure prediction by ZEFSAII (Michael W. Deem and Ramdas Pophale) SiO2 
 PCOD8263345
Probable space group: C M C A
;
_chemical_formula_sum "Si O2"
_cell_formula_units_Z 112
_cell_length_a 11.206343
_cell_length_b 22.558294
_cell_length_c 21.689485
_cell_angle_alpha 90.000000
_cell_angle_beta 90.000000
_cell_angle_gamma 90.000000
_cell_volume 5483.014618
_symmetry_space_group_name_H-M "C M C A"
_symmetry_group_IT_number 64
_symmetry_cell_setting 'orthorhombic'
loop_
_space_group_symop_operation_xyz
x,y,z
-x,1/2-y,1/2+z
x,-y,-z
-x,1/2+y,1/2-z
-x,-y,-z
x,1/2+y,1/2-z
-x,y,z
x,1/2-y,1/2+z
1/2+x,1/2+y,z
1/2-x,-y,1/2+z
1/2+x,1/2-y,-z
1/2-x,y,1/2-z
1/2-x,1/2-y,-z
1/2+x,y,1/2-z
1/2-x,1/2+y,z
1/2+x,-y,1/2+z
loop_
_atom_site_type_symbol
_atom_site_label
_atom_site_fract_x
_atom_site_fract_y
_atom_site_fract_z
Si Si1 0.742724 0.064314 0.520884
Si Si2 0.365843 0.421888 0.351158
Si Si3 0.864263 0.042521 0.290258
Si Si4 0.363500 0.796828 0.207119
Si Si5 0.874050 0.817424 0.030847
Si Si6 0.867036 0.119967 0.409455
Si Si7 0.702210 0.267852 0.908178
O O1 0.785683 0.061260 0.590875
O O2 0.638113 0.112623 0.517541
O O3 0.844728 0.086973 0.474206
O O4 0.694470 0.000000 0.500000
O O5 0.500000 0.417345 0.376160
O O6 0.353380 0.472116 0.299019
O O7 0.328299 0.360768 0.319350
O O8 0.750000 0.064318 0.250000
O O9 0.848385 0.072472 0.356175
O O10 0.000000 0.057133 0.263624
O O11 0.500000 0.797405 0.236788
O O12 0.250000 0.778485 0.250000
O O13 0.371510 0.747624 0.152979
O O14 0.773061 0.792469 0.075410
O O15 0.000000 0.807496 0.064310
O O16 0.881223 0.782418 0.965937
O O17 0.786617 0.176541 0.396056
O O18 0.000000 0.145023 0.411180
#
# Coordination Sequence:
#
# PCOD8263345 Si02
#       7
#    16  16  16  16  16  16  16
#     4  11  20  35  60  91 122 151 196 248 312 366
#     4  10  20  37  62  89 120 151 196 250 305 361
#     4  10  21  39  60  85 117 155 200 250 302 361
#     4  11  24  42  64  92 123 162 208 254 301 358
#     4  10  21  37  58  86 123 161 197 245 308 368
#     4  10  21  35  59  91 120 152 199 252 304 362
#     4  10  21  39  60  86 117 160 202 251 295 365
#
# _framework density 20.426718000000001
#
# number of rings (size 3 to 8) (size 9 to 14) (size 15 to 20)
#    0.000    1.714    2.857    1.714    0.000    2.571 
#    0.000    5.714    0.000    0.000    0.000    0.000 
#    0.000    0.000    0.000    0.000    0.000    0.000 
#
# Total GULP energy -693926.092230 kJ/mol
# GULP energy per Si atom -12391.537361 kJ/mol
# Density = 2.038023 g / cm^3
# Si number density = 20.426718 Si / 1000 Ang^3
#
#
#
# Elastic Constant Matrix: (Units=GPa)
#
#
# Indices 1 2 3 4 5 6 
#
# 1 112.5568 15.0314 31.2394 0.0000 0.0000 0.0000
# 2 15.0314 91.4722 -4.0343 0.0000 0.0000 0.0000
# 3 31.2394 -4.0343 57.7633 0.0000 0.0000 0.0000
# 4 0.0000 0.0000 0.0000 22.6131 0.0000 0.0000
# 5 0.0000 0.0000 0.0000 0.0000 14.8837 0.0000
# 6 0.0000 0.0000 0.0000 0.0000 0.0000 -5.7598
#
#
#
# Elastic Compliance Matrix: (Units=1/GPa)
#
#
# Indices 1 2 3 4 5 6 
#
# 1 0.010821 -0.002043 -0.005995 0.000000 0.000000 0.000000
# 2 -0.002043 0.011352 0.001897 0.000000 0.000000 0.000000
# 3 -0.005995 0.001897 0.020687 0.000000 0.000000 0.000000
# 4 0.000000 0.000000 0.000000 0.044222 0.000000 0.000000
# 5 0.000000 0.000000 0.000000 0.000000 0.067188 0.000000
# 6 0.000000 0.000000 0.000000 0.000000 0.000000 -0.173616
#
#
# Mechanical properties :
#
#
# Convention : Reuss Voigt Hill
#
# Bulk Modulus (GPa) = 32.70177 38.47393 35.58785
# Shear Modulus (GPa) = 1599.65446 20.98445 810.31945
#
# Velocity S-wave (km/s) = 28.01462 3.20864 19.93883
# Velocity P-wave (km/s) = 32.59554 5.70991 23.39949
#
# Compressibility (1/GPa) = 0.03057939
#
# Stress axis : x y z
#
# Youngs Moduli (GPa) = 92.41276 88.09319 48.34029
#
# Poissons Ratio (x) = 0.17994 0.28979
# Poissons Ratio (y) = 0.18876 -0.09172
# Poissons Ratio (z) = 0.55400 -0.16715
#
# Static dielectric constant tensor:
#      x y z
#    x 3.633360 0.000000 0.000000 
#    y 0.000000 3.783730 0.000000 
#    z 0.000000 0.000000 3.492270 
# 
# 
# High freq. dielectric constant tensor:
#      x y z
#    x 1.791430 0.000000 0.000000 
#    y 0.000000 1.808890 0.000000 
#    z 0.000000 0.000000 1.779920 
# 
# From -- ./inp_files/38468.got.cif
#   From: 2010.03.12/outbox.cif.g09.slc.cpg/sg64_20_cif.got.tgz:38468.got - 2010.04.10 20:19:32.
