data_PCOD8263131
_publ_section_title
;
Structure prediction by ZEFSAII (Michael W. Deem and Ramdas Pophale) SiO2 
 PCOD8263131
Probable space group: C M C A
;
_chemical_formula_sum "Si O2"
_cell_formula_units_Z 120
_cell_length_a 21.020460
_cell_length_b 28.173669
_cell_length_c 10.819983
_cell_angle_alpha 90.000000
_cell_angle_beta 90.000000
_cell_angle_gamma 90.000000
_cell_volume 6407.848010
_symmetry_space_group_name_H-M "C M C A"
_symmetry_group_IT_number 64
_symmetry_cell_setting 'orthorhombic'
loop_
_space_group_symop_operation_xyz
x,y,z
-x,1/2-y,1/2+z
x,-y,-z
-x,1/2+y,1/2-z
-x,-y,-z
x,1/2+y,1/2-z
-x,y,z
x,1/2-y,1/2+z
1/2+x,1/2+y,z
1/2-x,-y,1/2+z
1/2+x,1/2-y,-z
1/2-x,y,1/2-z
1/2-x,1/2-y,-z
1/2+x,y,1/2-z
1/2-x,1/2+y,z
1/2+x,-y,1/2+z
loop_
_atom_site_type_symbol
_atom_site_label
_atom_site_fract_x
_atom_site_fract_y
_atom_site_fract_z
Si Si1 0.572364 0.722447 0.391079
Si Si2 0.717828 0.409331 0.468510
Si Si3 0.071517 0.669181 0.632604
Si Si4 0.858431 0.180879 0.614294
Si Si5 0.250000 0.021905 0.750000
Si Si6 0.681866 0.719407 0.191208
Si Si7 0.682325 0.568288 0.272043
Si Si8 0.652899 0.873123 0.563610
O O1 0.500000 0.710381 0.347090
O O2 0.576651 0.778086 0.425198
O O3 0.587789 0.690773 0.511234
O O4 0.623055 0.711037 0.284577
O O5 0.690339 0.359605 0.423682
O O6 0.721575 0.447552 0.360370
O O7 0.671974 0.429214 0.579227
O O8 0.790665 0.403670 0.506016
O O9 0.110111 0.664757 0.758770
O O10 0.095741 0.630123 0.534333
O O11 0.000000 0.655477 0.664577
O O12 0.817947 0.228719 0.631077
O O13 0.309471 0.985876 0.719938
O O14 0.750000 0.710950 0.250000
O O15 0.675219 0.680614 0.084981
O O16 0.750000 0.595854 0.250000
O O17 0.631461 0.598696 0.190349
#
# Coordination Sequence:
#
# PCOD8263131 Si02
#       8
#    16  16  16  16   8  16  16  16
#     4  10  21  38  56  75 111 168 217 244 278 341
#     4  11  21  34  57  87 117 147 189 231 294 361
#     4  10  22  36  52  78 112 156 206 252 281 330
#     4  11  22  35  54  81 116 155 199 240 293 346
#     4  10  20  36  56  86 116 150 178 232 296 360
#     4  11  23  34  52  82 122 158 193 240 299 348
#     4   8  19  34  55  80 113 148 181 228 282 351
#     4  11  20  36  54  81 115 154 190 231 287 352
#
# _framework density 18.727035999999998
#
# number of rings (size 3 to 8) (size 9 to 14) (size 15 to 20)
#    0.400    1.333    1.333    4.400    4.667    2.133 
#    0.000    0.000    0.000    0.000    0.000    8.400 
#    0.000   11.733    0.000    0.000    0.000    0.000 
#
# Total GULP energy -743445.807332 kJ/mol
# GULP energy per Si atom -12390.763456 kJ/mol
# Density = 1.868441 g / cm^3
# Si number density = 18.727036 Si / 1000 Ang^3
#
#
#
# Elastic Constant Matrix: (Units=GPa)
#
#
# Indices 1 2 3 4 5 6 
#
# 1 54.7696 8.8997 11.9182 0.0000 0.0000 0.0000
# 2 8.8997 70.2296 40.9959 0.0000 0.0000 0.0000
# 3 11.9182 40.9959 78.1043 0.0000 0.0000 0.0000
# 4 0.0000 0.0000 0.0000 15.6447 0.0000 0.0000
# 5 0.0000 0.0000 0.0000 0.0000 22.7031 0.0000
# 6 0.0000 0.0000 0.0000 0.0000 0.0000 8.4072
#
#
#
# Elastic Compliance Matrix: (Units=1/GPa)
#
#
# Indices 1 2 3 4 5 6 
#
# 1 0.018937 -0.001028 -0.002350 0.000000 0.000000 0.000000
# 2 -0.001028 0.020585 -0.010648 0.000000 0.000000 0.000000
# 3 -0.002350 -0.010648 0.018751 0.000000 0.000000 0.000000
# 4 0.000000 0.000000 0.000000 0.063920 0.000000 0.000000
# 5 0.000000 0.000000 0.000000 0.000000 0.044047 0.000000
# 6 0.000000 0.000000 0.000000 0.000000 0.000000 0.118946
#
#
# Mechanical properties :
#
#
# Convention : Reuss Voigt Hill
#
# Bulk Modulus (GPa) = 33.08977 36.30348 34.69663
# Shear Modulus (GPa) = 15.46503 18.77030 17.11767
#
# Velocity S-wave (km/s) = 2.87681 3.16936 3.02663
# Velocity P-wave (km/s) = 5.36121 5.72895 5.54813
#
# Compressibility (1/GPa) = 0.03022082
#
# Stress axis : x y z
#
# Youngs Moduli (GPa) = 52.80741 48.57941 53.33069
#
# Poissons Ratio (x) = 0.04993 0.12533
# Poissons Ratio (y) = 0.05428 0.56786
# Poissons Ratio (z) = 0.12410 0.51727
#
# Static dielectric constant tensor:
#      x y z
#    x 3.196740 0.000000 0.000000 
#    y 0.000000 3.376280 0.000000 
#    z 0.000000 0.000000 3.690270 
# 
# 
# High freq. dielectric constant tensor:
#      x y z
#    x 1.687740 0.000000 0.000000 
#    y 0.000000 1.716600 0.000000 
#    z 0.000000 0.000000 1.741990 
# 
# From -- ./inp_files/17721.got.cif
#   From: 2010.03.12/outbox.cif.g09.slc.cpg/sg64_9_cif.got.tgz:17721.got - 2010.04.10 20:19:32.
