data_PCOD8263317
_publ_section_title
;
Structure prediction by ZEFSAII (Michael W. Deem and Ramdas Pophale) SiO2 
 PCOD8263317
Probable space group: C M C A
;
_chemical_formula_sum "Si O2"
_cell_formula_units_Z 80
_cell_length_a 22.886349
_cell_length_b 12.587802
_cell_length_c 13.751029
_cell_angle_alpha 90.000000
_cell_angle_beta 90.000000
_cell_angle_gamma 90.000000
_cell_volume 3961.517852
_symmetry_space_group_name_H-M "C M C A"
_symmetry_group_IT_number 64
_symmetry_cell_setting 'orthorhombic'
loop_
_space_group_symop_operation_xyz
x,y,z
-x,1/2-y,1/2+z
x,-y,-z
-x,1/2+y,1/2-z
-x,-y,-z
x,1/2+y,1/2-z
-x,y,z
x,1/2-y,1/2+z
1/2+x,1/2+y,z
1/2-x,-y,1/2+z
1/2+x,1/2-y,-z
1/2-x,y,1/2-z
1/2-x,1/2-y,-z
1/2+x,y,1/2-z
1/2-x,1/2+y,z
1/2+x,-y,1/2+z
loop_
_atom_site_type_symbol
_atom_site_label
_atom_site_fract_x
_atom_site_fract_y
_atom_site_fract_z
Si Si1 0.376752 0.775897 0.926231
Si Si2 0.375965 0.027825 0.216198
Si Si3 0.305815 0.098128 0.929132
Si Si4 0.177037 0.559522 0.601289
Si Si5 0.000000 0.981992 0.335259
Si Si6 0.500000 0.838159 0.994676
O O1 0.368604 0.859324 0.837814
O O2 0.367075 0.657663 0.887413
O O3 0.441489 0.773177 0.971193
O O4 0.329073 0.799877 0.011279
O O5 0.351930 0.928776 0.154291
O O6 0.339985 0.028116 0.317138
O O7 0.444139 0.001472 0.233296
O O8 0.241329 0.111113 0.883883
O O9 0.303592 0.000000 0.000000
O O10 0.170500 0.500000 0.500000
O O11 0.000000 0.867784 0.390063
O O12 0.000000 0.060192 0.426232
#
# Coordination Sequence:
#
# PCOD8263317 Si02
#       6
#    16  16  16  16   8   8
#     4  10  20  37  62  87 114 151 200 245 293 343
#     4  10  20  37  60  86 112 149 198 241 287 346
#     4   9  18  36  61  86 111 149 196 241 285 342
#     4  11  24  38  54  85 128 158 187 237 296 353
#     4   9  16  33  62  87 109 137 194 254 280 332
#     4   9  16  33  62  91 105 143 199 247 290 339
#
# _framework density 20.194279999999999
#
# number of rings (size 3 to 8) (size 9 to 14) (size 15 to 20)
#    0.000    2.200    2.000    1.200    0.000    2.400 
#    0.000    8.000    0.000    0.000    0.000    0.000 
#    0.000    0.000    0.000    0.000    0.000    0.000 
#
# Total GULP energy -495825.648065 kJ/mol
# GULP energy per Si atom -12395.641202 kJ/mol
# Density = 2.014832 g / cm^3
# Si number density = 20.194280 Si / 1000 Ang^3
#
#
#
# Elastic Constant Matrix: (Units=GPa)
#
#
# Indices 1 2 3 4 5 6 
#
# 1 156.9386 31.7488 40.9567 0.0000 0.0000 0.0000
# 2 31.7488 73.5629 21.4033 0.0000 0.0000 0.0000
# 3 40.9567 21.4033 68.9683 0.0000 0.0000 0.0000
# 4 0.0000 0.0000 0.0000 20.8765 0.0000 0.0000
# 5 0.0000 0.0000 0.0000 0.0000 5.6919 0.0000
# 6 0.0000 0.0000 0.0000 0.0000 0.0000 18.3305
#
#
#
# Elastic Compliance Matrix: (Units=1/GPa)
#
#
# Indices 1 2 3 4 5 6 
#
# 1 0.007862 -0.002237 -0.003975 0.000000 0.000000 0.000000
# 2 -0.002237 0.015579 -0.003507 0.000000 0.000000 0.000000
# 3 -0.003975 -0.003507 0.017948 0.000000 0.000000 0.000000
# 4 0.000000 0.000000 0.000000 0.047901 0.000000 0.000000
# 5 0.000000 0.000000 0.000000 0.000000 0.175687 0.000000
# 6 0.000000 0.000000 0.000000 0.000000 0.000000 0.054554
#
#
# Mechanical properties :
#
#
# Convention : Reuss Voigt Hill
#
# Bulk Modulus (GPa) = 45.55101 54.18750 49.86925
# Shear Modulus (GPa) = 14.43902 22.67052 18.55477
#
# Velocity S-wave (km/s) = 2.67686 3.35419 3.03448
# Velocity P-wave (km/s) = 5.67093 6.47241 6.08488
#
# Compressibility (1/GPa) = 0.02195341
#
# Stress axis : x y z
#
# Youngs Moduli (GPa) = 127.20017 64.18750 55.71675
#
# Poissons Ratio (x) = 0.14356 0.22145
# Poissons Ratio (y) = 0.28449 0.19538
# Poissons Ratio (z) = 0.50556 0.22508
#
# Static dielectric constant tensor:
#      x y z
#    x 4.297100 0.000000 0.000000 
#    y 0.000000 3.247470 0.000000 
#    z 0.000000 0.000000 3.620420 
# 
# 
# High freq. dielectric constant tensor:
#      x y z
#    x 1.804860 0.000000 0.000000 
#    y 0.000000 1.757400 0.000000 
#    z 0.000000 0.000000 1.771960 
# 
# From -- ./inp_files/18118.got.cif
#   From: 2010.03.12/outbox.cif.g09.slc.cpg/sg64_10_cif.got.tgz:18118.got - 2010.04.10 20:19:32.
