data_PCOD8263463
_publ_section_title
;
Structure prediction by ZEFSAII (Michael W. Deem and Ramdas Pophale) SiO2 
 PCOD8263463
Probable space group: C M C A
;
_chemical_formula_sum "Si O2"
_cell_formula_units_Z 104
_cell_length_a 21.884170
_cell_length_b 8.800865
_cell_length_c 29.059328
_cell_angle_alpha 90.000000
_cell_angle_beta 90.000000
_cell_angle_gamma 90.000000
_cell_volume 5596.815699
_symmetry_space_group_name_H-M "C M C A"
_symmetry_group_IT_number 64
_symmetry_cell_setting 'orthorhombic'
loop_
_space_group_symop_operation_xyz
x,y,z
-x,1/2-y,1/2+z
x,-y,-z
-x,1/2+y,1/2-z
-x,-y,-z
x,1/2+y,1/2-z
-x,y,z
x,1/2-y,1/2+z
1/2+x,1/2+y,z
1/2-x,-y,1/2+z
1/2+x,1/2-y,-z
1/2-x,y,1/2-z
1/2-x,1/2-y,-z
1/2+x,y,1/2-z
1/2-x,1/2+y,z
1/2+x,-y,1/2+z
loop_
_atom_site_type_symbol
_atom_site_label
_atom_site_fract_x
_atom_site_fract_y
_atom_site_fract_z
Si Si1 0.692069 0.073802 0.112226
Si Si2 0.871450 0.620413 0.960555
Si Si3 0.500000 0.912805 0.428173
Si Si4 0.370986 0.888655 0.388565
Si Si5 0.500000 0.761257 0.525470
Si Si6 0.289749 0.504139 0.185846
Si Si7 0.750000 0.747540 0.750000
Si Si8 0.297692 0.581489 0.043874
O O1 0.651862 0.220220 0.123727
O O2 0.725359 0.006916 0.157508
O O3 0.744757 0.131828 0.078055
O O4 0.649655 0.944726 0.089066
O O5 0.834296 0.771449 0.972396
O O6 0.942707 0.660088 0.959503
O O7 0.857364 0.500000 0.000000
O O8 0.443349 0.884343 0.394291
O O9 0.500000 0.793860 0.470607
O O10 0.500000 0.083132 0.446587
O O11 0.348737 0.000084 0.347405
O O12 0.343620 0.955840 0.435509
O O13 0.294972 0.649687 0.218866
O O14 0.291727 0.353851 0.216924
O O15 0.267094 0.500000 0.000000
#
# Coordination Sequence:
#
# PCOD8263463 Si02
#       8
#    16  16   8  16   8  16   8  16
#     4  11  23  36  55  87 123 148 188 249 300 353
#     4  12  24  36  55  79 116 161 209 256 286 333
#     4  11  22  38  62  76 116 165 211 253 284 331
#     4  11  22  38  58  84 118 156 200 242 286 352
#     4  11  23  40  54  80 108 169 227 249 278 329
#     4  10  21  38  63  95 120 146 185 235 303 373
#     4  10  20  38  66  94 120 146 176 236 308 372
#     4  11  21  35  54  78 115 157 196 240 301 346
#
# _framework density 18.581996
#
# number of rings (size 3 to 8) (size 9 to 14) (size 15 to 20)
#    0.000    1.077    3.077    5.308    2.154    2.462 
#    0.000    0.000    0.000    0.923    0.000    0.000 
#    0.000    0.000    0.000    0.000    0.000    0.000 
#
# Total GULP energy -644906.471685 kJ/mol
# GULP energy per Si atom -12402.047532 kJ/mol
# Density = 1.853970 g / cm^3
# Si number density = 18.581996 Si / 1000 Ang^3
#
#
#
# Elastic Constant Matrix: (Units=GPa)
#
#
# Indices 1 2 3 4 5 6 
#
# 1 126.3362 36.8292 44.5107 0.0000 0.0000 0.0000
# 2 36.8292 98.3308 44.4168 0.0000 0.0000 0.0000
# 3 44.5107 44.4168 101.6897 0.0000 0.0000 0.0000
# 4 0.0000 0.0000 0.0000 25.9801 0.0000 0.0000
# 5 0.0000 0.0000 0.0000 0.0000 15.8633 0.0000
# 6 0.0000 0.0000 0.0000 0.0000 0.0000 21.7075
#
#
#
# Elastic Compliance Matrix: (Units=1/GPa)
#
#
# Indices 1 2 3 4 5 6 
#
# 1 0.009707 -0.002138 -0.003315 0.000000 0.000000 0.000000
# 2 -0.002138 0.013140 -0.004804 0.000000 0.000000 0.000000
# 3 -0.003315 -0.004804 0.013383 0.000000 0.000000 0.000000
# 4 0.000000 0.000000 0.000000 0.038491 0.000000 0.000000
# 5 0.000000 0.000000 0.000000 0.000000 0.063038 0.000000
# 6 0.000000 0.000000 0.000000 0.000000 0.000000 0.046067
#
#
# Mechanical properties :
#
#
# Convention : Reuss Voigt Hill
#
# Bulk Modulus (GPa) = 63.62663 64.20782 63.91723
# Shear Modulus (GPa) = 23.85742 26.08353 24.97047
#
# Velocity S-wave (km/s) = 3.58704 3.75066 3.66976
# Velocity P-wave (km/s) = 7.17434 7.30653 7.24074
#
# Compressibility (1/GPa) = 0.01571669
#
# Stress axis : x y z
#
# Youngs Moduli (GPa) = 103.02312 76.10075 74.72223
#
# Poissons Ratio (x) = 0.16272 0.24768
# Poissons Ratio (y) = 0.22029 0.35894
# Poissons Ratio (z) = 0.34149 0.36556
#
# Static dielectric constant tensor:
#      x y z
#    x 3.344850 0.000000 0.000000 
#    y 0.000000 3.622260 0.000000 
#    z 0.000000 0.000000 3.514570 
# 
# 
# High freq. dielectric constant tensor:
#      x y z
#    x 1.699680 0.000000 0.000000 
#    y 0.000000 1.739710 0.000000 
#    z 0.000000 0.000000 1.709690 
# 
# From -- ./inp_files/53785.got.cif
#   From: 2010.03.12/outbox.cif.g09.slc.cpg/sg64_27_cif.got.tgz:53785.got - 2010.04.10 20:19:32.
