data_PCOD8263611
_publ_section_title
;
Structure prediction by ZEFSAII (Michael W. Deem and Ramdas Pophale) SiO2 
 PCOD8263611
Probable space group: C M C A
;
_chemical_formula_sum "Si O2"
_cell_formula_units_Z 112
_cell_length_a 14.187360
_cell_length_b 31.885777
_cell_length_c 12.027470
_cell_angle_alpha 90.000000
_cell_angle_beta 90.000000
_cell_angle_gamma 90.000000
_cell_volume 5440.926707
_symmetry_space_group_name_H-M "C M C A"
_symmetry_group_IT_number 64
_symmetry_cell_setting 'orthorhombic'
loop_
_space_group_symop_operation_xyz
x,y,z
-x,1/2-y,1/2+z
x,-y,-z
-x,1/2+y,1/2-z
-x,-y,-z
x,1/2+y,1/2-z
-x,y,z
x,1/2-y,1/2+z
1/2+x,1/2+y,z
1/2-x,-y,1/2+z
1/2+x,1/2-y,-z
1/2-x,y,1/2-z
1/2-x,1/2-y,-z
1/2+x,y,1/2-z
1/2-x,1/2+y,z
1/2+x,-y,1/2+z
loop_
_atom_site_type_symbol
_atom_site_label
_atom_site_fract_x
_atom_site_fract_y
_atom_site_fract_z
Si Si1 0.783963 0.958970 0.071969
Si Si2 0.391266 0.939517 0.211215
Si Si3 0.796082 0.869954 0.988688
Si Si4 0.608014 0.772390 0.130086
Si Si5 0.102134 0.169147 0.437220
Si Si6 0.608243 0.347468 0.209195
Si Si7 0.652013 0.183384 0.298062
O O1 0.675168 0.955467 0.111455
O O2 0.856114 0.960961 0.174929
O O3 0.812646 0.919611 0.994685
O O4 0.798247 0.000000 0.000000
O O5 0.500000 0.952184 0.188895
O O6 0.378265 0.889412 0.218103
O O7 0.685755 0.863394 0.959192
O O8 0.867546 0.849868 0.897219
O O9 0.821348 0.847979 0.105267
O O10 0.500000 0.760183 0.148946
O O11 0.639243 0.808539 0.215417
O O12 0.664405 0.729762 0.151129
O O13 0.626112 0.788016 0.004092
O O14 0.082792 0.180217 0.307242
O O15 0.000000 0.151639 0.481592
O O16 0.500000 0.343962 0.168492
O O17 0.750000 0.168587 0.250000
#
# Coordination Sequence:
#
# PCOD8263611 Si02
#       7
#    16  16  16  16  16  16  16
#     4  10  21  39  64  92 122 156 194 254 306 359
#     4   9  19  39  62  92 124 154 198 246 298 358
#     4  10  22  39  61  85 114 155 197 239 301 359
#     4  10  21  34  55  83 114 155 198 244 289 332
#     4  10  22  39  55  79 118 159 196 240 291 349
#     4   9  19  35  60  89 116 151 197 246 291 342
#     4  10  23  37  52  78 114 157 200 243 285 350
#
# _framework density 20.58473
#
# number of rings (size 3 to 8) (size 9 to 14) (size 15 to 20)
#    0.000    2.286    0.000    1.286    4.000    5.714 
#    7.714    0.000    0.000    0.000    0.000    0.000 
#    0.000    0.000    0.000    0.000    0.000    0.000 
#
# Total GULP energy -694109.724873 kJ/mol
# GULP energy per Si atom -12394.816516 kJ/mol
# Density = 2.053788 g / cm^3
# Si number density = 20.584730 Si / 1000 Ang^3
#
#
#
# Elastic Constant Matrix: (Units=GPa)
#
#
# Indices 1 2 3 4 5 6 
#
# 1 71.3259 15.3172 18.8725 0.0000 0.0000 0.0000
# 2 15.3172 125.3018 70.3608 0.0000 0.0000 0.0000
# 3 18.8725 70.3608 108.7023 0.0000 0.0000 0.0000
# 4 0.0000 0.0000 0.0000 35.8066 0.0000 0.0000
# 5 0.0000 0.0000 0.0000 0.0000 25.1641 0.0000
# 6 0.0000 0.0000 0.0000 0.0000 0.0000 17.2034
#
#
#
# Elastic Compliance Matrix: (Units=1/GPa)
#
#
# Indices 1 2 3 4 5 6 
#
# 1 0.014721 -0.000572 -0.002185 0.000000 0.000000 0.000000
# 2 -0.000572 0.012560 -0.008031 0.000000 0.000000 0.000000
# 3 -0.002185 -0.008031 0.014777 0.000000 0.000000 0.000000
# 4 0.000000 0.000000 0.000000 0.027928 0.000000 0.000000
# 5 0.000000 0.000000 0.000000 0.000000 0.039739 0.000000
# 6 0.000000 0.000000 0.000000 0.000000 0.000000 0.058128
#
#
# Mechanical properties :
#
#
# Convention : Reuss Voigt Hill
#
# Bulk Modulus (GPa) = 48.82414 57.15902 52.99158
# Shear Modulus (GPa) = 25.47681 29.02013 27.24847
#
# Velocity S-wave (km/s) = 3.52185 3.75879 3.64225
# Velocity P-wave (km/s) = 6.34886 6.83125 6.59447
#
# Compressibility (1/GPa) = 0.02048167
#
# Stress axis : x y z
#
# Youngs Moduli (GPa) = 67.92871 79.61728 67.67350
#
# Poissons Ratio (x) = 0.04558 0.14789
# Poissons Ratio (y) = 0.03888 0.54345
# Poissons Ratio (z) = 0.14845 0.63937
#
# Static dielectric constant tensor:
#      x y z
#    x 3.850560 0.000000 0.000000 
#    y 0.000000 3.390040 0.000000 
#    z 0.000000 0.000000 4.192980 
# 
# 
# High freq. dielectric constant tensor:
#      x y z
#    x 1.811920 0.000000 0.000000 
#    y 0.000000 1.772920 0.000000 
#    z 0.000000 0.000000 1.809780 
# 
# From -- ./inp_files/14937.got.cif
#   From: 2010.03.12/outbox.cif.g09.slc.cpg/sg64_8_cif.got.tgz:14937.got - 2010.04.10 20:19:32.
