data_PCOD8263930
_publ_section_title
;
Structure prediction by ZEFSAII (Michael W. Deem and Ramdas Pophale) SiO2 
 PCOD8263930
Probable space group: C M C A
;
_chemical_formula_sum "Si O2"
_cell_formula_units_Z 80
_cell_length_a 17.147814
_cell_length_b 25.085312
_cell_length_c 9.045602
_cell_angle_alpha 90.000000
_cell_angle_beta 90.000000
_cell_angle_gamma 90.000000
_cell_volume 3891.040456
_symmetry_space_group_name_H-M "C M C A"
_symmetry_group_IT_number 64
_symmetry_cell_setting 'orthorhombic'
loop_
_space_group_symop_operation_xyz
x,y,z
-x,1/2-y,1/2+z
x,-y,-z
-x,1/2+y,1/2-z
-x,-y,-z
x,1/2+y,1/2-z
-x,y,z
x,1/2-y,1/2+z
1/2+x,1/2+y,z
1/2-x,-y,1/2+z
1/2+x,1/2-y,-z
1/2-x,y,1/2-z
1/2-x,1/2-y,-z
1/2+x,y,1/2-z
1/2-x,1/2+y,z
1/2+x,-y,1/2+z
loop_
_atom_site_type_symbol
_atom_site_label
_atom_site_fract_x
_atom_site_fract_y
_atom_site_fract_z
Si Si1 0.089977 0.089107 0.828474
Si Si2 0.089175 0.404169 0.666930
Si Si3 0.330870 0.504559 0.325466
Si Si4 0.910815 0.786989 0.901632
Si Si5 0.838629 0.801303 0.208723
O O1 0.140449 0.137203 0.759702
O O2 0.000000 0.105711 0.818000
O O3 0.104231 0.036173 0.734233
O O4 0.112358 0.079424 0.999641
O O5 0.144128 0.435664 0.780995
O O6 0.103096 0.341149 0.692360
O O7 0.000000 0.419857 0.699590
O O8 0.322904 0.500000 0.500000
O O9 0.250000 0.488694 0.250000
O O10 0.895361 0.735762 0.803469
O O11 0.000000 0.786265 0.959570
O O12 0.851938 0.786910 0.038437
O O13 0.750000 0.789565 0.250000
#
# Coordination Sequence:
#
# PCOD8263930 Si02
#       5
#    16  16  16  16  16
#     4  10  21  40  63  85 116 158 199 241 298 365
#     4   9  20  39  61  84 116 157 196 238 293 356
#     4  12  25  39  59  87 119 153 194 246 300 354
#     4  10  21  39  61  87 121 161 202 243 297 361
#     4  11  22  37  60  90 122 157 201 251 301 352
#
# _framework density 20.560054999999998
#
# number of rings (size 3 to 8) (size 9 to 14) (size 15 to 20)
#    0.000    1.600    0.000    6.600    0.000    7.200 
#    0.000    2.000    0.000    0.000    0.000    0.000 
#    0.000    0.000    0.000    0.000    0.000    0.000 
#
# Total GULP energy -496203.261410 kJ/mol
# GULP energy per Si atom -12405.081535 kJ/mol
# Density = 2.051326 g / cm^3
# Si number density = 20.560055 Si / 1000 Ang^3
#
#
#
# Elastic Constant Matrix: (Units=GPa)
#
#
# Indices 1 2 3 4 5 6 
#
# 1 86.3974 42.5351 49.4844 0.0000 0.0000 0.0000
# 2 42.5351 97.5609 50.7793 0.0000 0.0000 0.0000
# 3 49.4844 50.7793 109.8198 0.0000 0.0000 0.0000
# 4 0.0000 0.0000 0.0000 38.8354 0.0000 0.0000
# 5 0.0000 0.0000 0.0000 0.0000 29.7833 0.0000
# 6 0.0000 0.0000 0.0000 0.0000 0.0000 32.4577
#
#
#
# Elastic Compliance Matrix: (Units=1/GPa)
#
#
# Indices 1 2 3 4 5 6 
#
# 1 0.016982 -0.004505 -0.005569 0.000000 0.000000 0.000000
# 2 -0.004505 0.014694 -0.004764 0.000000 0.000000 0.000000
# 3 -0.005569 -0.004764 0.013818 0.000000 0.000000 0.000000
# 4 0.000000 0.000000 0.000000 0.025750 0.000000 0.000000
# 5 0.000000 0.000000 0.000000 0.000000 0.033576 0.000000
# 6 0.000000 0.000000 0.000000 0.000000 0.000000 0.030809
#
#
# Mechanical properties :
#
#
# Convention : Reuss Voigt Hill
#
# Bulk Modulus (GPa) = 63.22215 64.37506 63.79861
# Shear Modulus (GPa) = 29.31206 30.28058 29.79632
#
# Velocity S-wave (km/s) = 3.77991 3.84185 3.81101
# Velocity P-wave (km/s) = 7.06166 7.14552 7.10372
#
# Compressibility (1/GPa) = 0.01581724
#
# Stress axis : x y z
#
# Youngs Moduli (GPa) = 58.88561 68.05493 72.36935
#
# Poissons Ratio (x) = 0.30662 0.40301
# Poissons Ratio (y) = 0.26531 0.34478
# Poissons Ratio (z) = 0.32792 0.32423
#
# Static dielectric constant tensor:
#      x y z
#    x 3.610520 0.000000 0.000000 
#    y 0.000000 3.759940 0.000000 
#    z 0.000000 0.000000 3.518400 
# 
# 
# High freq. dielectric constant tensor:
#      x y z
#    x 1.807990 0.000000 0.000000 
#    y 0.000000 1.816330 0.000000 
#    z 0.000000 0.000000 1.789450 
# 
# From -- ./inp_files/7089.got.cif
#   From: 2010.03.12/outbox.cif.g09.slc.cpg/sg64_4_cif.got.tgz:7089.got - 2010.04.10 20:19:32.
