data_PCOD8263166
_publ_section_title
;
Structure prediction by ZEFSAII (Michael W. Deem and Ramdas Pophale) SiO2 
 PCOD8263166
Probable space group: C M C A
;
_chemical_formula_sum "Si O2"
_cell_formula_units_Z 56
_cell_length_a 29.132320
_cell_length_b 10.458030
_cell_length_c 8.653505
_cell_angle_alpha 90.000000
_cell_angle_beta 90.000000
_cell_angle_gamma 90.000000
_cell_volume 2636.434609
_symmetry_space_group_name_H-M "C M C A"
_symmetry_group_IT_number 64
_symmetry_cell_setting 'orthorhombic'
loop_
_space_group_symop_operation_xyz
x,y,z
-x,1/2-y,1/2+z
x,-y,-z
-x,1/2+y,1/2-z
-x,-y,-z
x,1/2+y,1/2-z
-x,y,z
x,1/2-y,1/2+z
1/2+x,1/2+y,z
1/2-x,-y,1/2+z
1/2+x,1/2-y,-z
1/2-x,y,1/2-z
1/2-x,1/2-y,-z
1/2+x,y,1/2-z
1/2-x,1/2+y,z
1/2+x,-y,1/2+z
loop_
_atom_site_type_symbol
_atom_site_label
_atom_site_fract_x
_atom_site_fract_y
_atom_site_fract_z
Si Si1 0.589621 0.358106 0.432236
Si Si2 0.250000 0.753913 0.250000
Si Si3 0.311871 0.856777 0.992459
Si Si4 0.552440 0.377136 0.098476
O O1 0.580776 0.500000 0.500000
O O2 0.639399 0.290764 0.470776
O O3 0.584546 0.366533 0.248290
O O4 0.554234 0.254963 0.501524
O O5 0.291534 0.672318 0.322984
O O6 0.228447 0.839367 0.383571
O O7 0.328022 0.000000 0.000000
O O8 0.500000 0.398829 0.150962
O O9 0.569333 0.500000 0.000000
#
# Coordination Sequence:
#
# PCOD8263166 Si02
#       4
#    16   8  16  16
#     4  11  23  40  62  89 122 158 202 252 303 360
#     4  10  20  36  58  82 114 150 188 234 286 348
#     4  10  21  37  57  84 114 149 191 236 289 345
#     4  11  24  41  62  89 121 160 204 251 305 363
#
# _framework density 21.240808000000001
#
# number of rings (size 3 to 8) (size 9 to 14) (size 15 to 20)
#    0.000    1.429    0.000    5.143    0.000    6.857 
#    0.000    7.143    0.000    0.000    0.000    0.000 
#    0.000    0.000    0.000    0.000    0.000    0.000 
#
# Total GULP energy -347090.213230 kJ/mol
# GULP energy per Si atom -12396.079044 kJ/mol
# Density = 2.119246 g / cm^3
# Si number density = 21.240808 Si / 1000 Ang^3
#
#
#
# Elastic Constant Matrix: (Units=GPa)
#
#
# Indices 1 2 3 4 5 6 
#
# 1 98.7072 15.0896 40.4583 0.0000 0.0000 0.0000
# 2 15.0896 112.0022 41.1924 0.0000 0.0000 0.0000
# 3 40.4583 41.1924 143.2543 0.0000 0.0000 0.0000
# 4 0.0000 0.0000 0.0000 30.9215 0.0000 0.0000
# 5 0.0000 0.0000 0.0000 0.0000 45.1648 0.0000
# 6 0.0000 0.0000 0.0000 0.0000 0.0000 25.1777
#
#
#
# Elastic Compliance Matrix: (Units=1/GPa)
#
#
# Indices 1 2 3 4 5 6 
#
# 1 0.011473 -0.000396 -0.003126 0.000000 0.000000 0.000000
# 2 -0.000396 0.009998 -0.002763 0.000000 0.000000 0.000000
# 3 -0.003126 -0.002763 0.008658 0.000000 0.000000 0.000000
# 4 0.000000 0.000000 0.000000 0.032340 0.000000 0.000000
# 5 0.000000 0.000000 0.000000 0.000000 0.022141 0.000000
# 6 0.000000 0.000000 0.000000 0.000000 0.000000 0.039718
#
#
# Mechanical properties :
#
#
# Convention : Reuss Voigt Hill
#
# Bulk Modulus (GPa) = 56.95321 60.82714 58.89018
# Shear Modulus (GPa) = 35.02598 37.40103 36.21350
#
# Velocity S-wave (km/s) = 4.06519 4.20075 4.13353
# Velocity P-wave (km/s) = 6.99326 7.22686 7.11102
#
# Compressibility (1/GPa) = 0.01755827
#
# Stress axis : x y z
#
# Youngs Moduli (GPa) = 87.16160 100.02064 115.49915
#
# Poissons Ratio (x) = 0.03960 0.36109
# Poissons Ratio (y) = 0.03451 0.31913
# Poissons Ratio (z) = 0.27250 0.27636
#
# Static dielectric constant tensor:
#      x y z
#    x 3.851810 0.000000 0.000000 
#    y 0.000000 3.737300 0.000000 
#    z 0.000000 0.000000 3.952550 
# 
# 
# High freq. dielectric constant tensor:
#      x y z
#    x 1.845390 0.000000 0.000000 
#    y 0.000000 1.824670 0.000000 
#    z 0.000000 0.000000 1.838240 
# 
# From -- ./inp_files/9891.got.cif
#   From: 2010.03.12/outbox.cif.g09.slc.cpg/sg64_5_cif.got.tgz:9891.got - 2010.04.10 20:19:32.
