data_PCOD8263282
_publ_section_title
;
Structure prediction by ZEFSAII (Michael W. Deem and Ramdas Pophale) SiO2 
 PCOD8263282
Probable space group: C M C A
;
_chemical_formula_sum "Si O2"
_cell_formula_units_Z 96
_cell_length_a 16.851938
_cell_length_b 11.289730
_cell_length_c 25.580642
_cell_angle_alpha 90.000000
_cell_angle_beta 90.000000
_cell_angle_gamma 90.000000
_cell_volume 4866.815114
_symmetry_space_group_name_H-M "C M C A"
_symmetry_group_IT_number 64
_symmetry_cell_setting 'orthorhombic'
loop_
_space_group_symop_operation_xyz
x,y,z
-x,1/2-y,1/2+z
x,-y,-z
-x,1/2+y,1/2-z
-x,-y,-z
x,1/2+y,1/2-z
-x,y,z
x,1/2-y,1/2+z
1/2+x,1/2+y,z
1/2-x,-y,1/2+z
1/2+x,1/2-y,-z
1/2-x,y,1/2-z
1/2-x,1/2-y,-z
1/2+x,y,1/2-z
1/2-x,1/2+y,z
1/2+x,-y,1/2+z
loop_
_atom_site_type_symbol
_atom_site_label
_atom_site_fract_x
_atom_site_fract_y
_atom_site_fract_z
Si Si1 0.339503 0.361588 0.377852
Si Si2 0.911789 0.787111 0.071200
Si Si3 0.412280 0.905513 0.851613
Si Si4 0.811067 0.514096 0.607811
Si Si5 0.248880 0.832094 0.811608
Si Si6 0.406785 0.173402 0.454310
O O1 0.400284 0.452938 0.350989
O O2 0.276015 0.441305 0.410109
O O3 0.291792 0.287266 0.333670
O O4 0.390739 0.283328 0.416719
O O5 0.909642 0.650443 0.089780
O O6 0.000000 0.838813 0.070898
O O7 0.864083 0.867922 0.112946
O O8 0.877894 0.793532 0.012438
O O9 0.500000 0.880303 0.826937
O O10 0.342751 0.837642 0.821778
O O11 0.799591 0.442463 0.662405
O O12 0.851918 0.435340 0.563170
O O13 0.250000 0.837461 0.750000
O O14 0.500000 0.140234 0.451414
#
# Coordination Sequence:
#
# PCOD8263282 Si02
#       6
#    16  16  16  16  16  16
#     4  10  21  38  58  86 117 152 194 243 292 344
#     4  10  20  37  59  85 123 161 193 235 288 349
#     4  10  21  40  60  85 120 154 194 240 290 350
#     4  10  20  37  57  88 113 149 194 242 291 339
#     4  10  22  42  65  82 113 151 196 248 303 353
#     4  10  21  37  58  85 119 162 198 232 285 347
#
# _framework density 19.725425000000001
#
# number of rings (size 3 to 8) (size 9 to 14) (size 15 to 20)
#    0.000    2.000    1.667    1.500    0.000    5.333 
#    6.000    7.500    0.000    0.000    0.000    0.000 
#    0.000    0.000    0.000    0.000    0.000    0.000 
#
# Total GULP energy -594657.130579 kJ/mol
# GULP energy per Si atom -12388.690220 kJ/mol
# Density = 1.968053 g / cm^3
# Si number density = 19.725425 Si / 1000 Ang^3
#
#
#
# Elastic Constant Matrix: (Units=GPa)
#
#
# Indices 1 2 3 4 5 6 
#
# 1 102.0555 28.8764 51.5718 0.0000 0.0000 0.0000
# 2 28.8764 91.2036 33.3688 0.0000 0.0000 0.0000
# 3 51.5718 33.3688 105.4775 0.0000 0.0000 0.0000
# 4 0.0000 0.0000 0.0000 10.4646 0.0000 0.0000
# 5 0.0000 0.0000 0.0000 0.0000 19.8288 0.0000
# 6 0.0000 0.0000 0.0000 0.0000 0.0000 36.2608
#
#
#
# Elastic Compliance Matrix: (Units=1/GPa)
#
#
# Indices 1 2 3 4 5 6 
#
# 1 0.013354 -0.002080 -0.005871 0.000000 0.000000 0.000000
# 2 -0.002080 0.012724 -0.003008 0.000000 0.000000 0.000000
# 3 -0.005871 -0.003008 0.013303 0.000000 0.000000 0.000000
# 4 0.000000 0.000000 0.000000 0.095560 0.000000 0.000000
# 5 0.000000 0.000000 0.000000 0.000000 0.050432 0.000000
# 6 0.000000 0.000000 0.000000 0.000000 0.000000 0.027578
#
#
# Mechanical properties :
#
#
# Convention : Reuss Voigt Hill
#
# Bulk Modulus (GPa) = 57.26795 58.48560 57.87678
# Shear Modulus (GPa) = 20.77358 25.63881 23.20620
#
# Velocity S-wave (km/s) = 3.24873 3.60916 3.43368
# Velocity P-wave (km/s) = 6.57023 6.86166 6.71752
#
# Compressibility (1/GPa) = 0.01746177
#
# Stress axis : x y z
#
# Youngs Moduli (GPa) = 74.88372 78.59365 75.17066
#
# Poissons Ratio (x) = 0.16347 0.44135
# Poissons Ratio (y) = 0.15576 0.22613
# Poissons Ratio (z) = 0.43966 0.23643
#
# Static dielectric constant tensor:
#      x y z
#    x 3.910270 0.000000 0.000000 
#    y 0.000000 3.855950 0.000000 
#    z 0.000000 0.000000 3.270180 
# 
# 
# High freq. dielectric constant tensor:
#      x y z
#    x 1.783650 0.000000 0.000000 
#    y 0.000000 1.784320 0.000000 
#    z 0.000000 0.000000 1.729860 
# 
# From -- ./inp_files/45714.got.cif
#   From: 2010.03.12/outbox.cif.g09.slc.cpg/sg64_23_cif.got.tgz:45714.got - 2010.04.10 20:19:32.
