data_PCOD8263946
_publ_section_title
;
Structure prediction by ZEFSAII (Michael W. Deem and Ramdas Pophale) SiO2 
 PCOD8263946
Probable space group: C M C A
;
_chemical_formula_sum "Si O2"
_cell_formula_units_Z 104
_cell_length_a 19.501704
_cell_length_b 9.604284
_cell_length_c 27.718030
_cell_angle_alpha 90.000000
_cell_angle_beta 90.000000
_cell_angle_gamma 90.000000
_cell_volume 5191.584350
_symmetry_space_group_name_H-M "C M C A"
_symmetry_group_IT_number 64
_symmetry_cell_setting 'orthorhombic'
loop_
_space_group_symop_operation_xyz
x,y,z
-x,1/2-y,1/2+z
x,-y,-z
-x,1/2+y,1/2-z
-x,-y,-z
x,1/2+y,1/2-z
-x,y,z
x,1/2-y,1/2+z
1/2+x,1/2+y,z
1/2-x,-y,1/2+z
1/2+x,1/2-y,-z
1/2-x,y,1/2-z
1/2-x,1/2-y,-z
1/2+x,y,1/2-z
1/2-x,1/2+y,z
1/2+x,-y,1/2+z
loop_
_atom_site_type_symbol
_atom_site_label
_atom_site_fract_x
_atom_site_fract_y
_atom_site_fract_z
Si Si1 0.923540 0.446767 0.715008
Si Si2 0.197272 0.747043 0.939829
Si Si3 0.283889 0.179934 0.146014
Si Si4 0.244938 0.000000 0.000000
Si Si5 0.217186 0.559404 0.700318
Si Si6 0.423022 0.784107 0.135208
Si Si7 0.076003 0.910991 0.674103
O O1 0.865567 0.560802 0.703887
O O2 0.910078 0.323834 0.677805
O O3 0.914925 0.387745 0.768835
O O4 0.000000 0.512467 0.708804
O O5 0.263837 0.763232 0.906146
O O6 0.205561 0.598984 0.967415
O O7 0.127549 0.741598 0.909352
O O8 0.196169 0.887778 0.972486
O O9 0.258689 0.285899 0.187549
O O10 0.366479 0.174166 0.145392
O O11 0.245546 0.036350 0.157117
O O12 0.250000 0.508171 0.750000
O O13 0.500000 0.771851 0.114372
O O14 0.410713 0.929356 0.161315
O O15 0.000000 0.862755 0.657521
#
# Coordination Sequence:
#
# PCOD8263946 Si02
#       7
#    16  16  16   8  16  16  16
#     4  10  22  36  54  82 124 171 206 239 279 329
#     4  11  22  42  65  91 116 148 195 250 316 377
#     4  12  24  37  61  86 119 160 202 251 294 347
#     4  10  24  42  68  90 112 142 188 256 326 386
#     4  12  24  35  54  86 124 162 206 246 286 329
#     4  10  21  39  62  88 123 163 201 245 295 351
#     4  10  22  36  55  86 126 170 211 242 279 335
#
# _framework density 20.032420999999999
#
# number of rings (size 3 to 8) (size 9 to 14) (size 15 to 20)
#    0.000    1.231    3.077    3.231    2.154    0.615 
#    0.000    0.769    0.000    3.692    0.000    0.000 
#    0.000    0.000    0.000    0.000    0.000    0.000 
#
# Total GULP energy -644620.863393 kJ/mol
# GULP energy per Si atom -12396.555065 kJ/mol
# Density = 1.998683 g / cm^3
# Si number density = 20.032421 Si / 1000 Ang^3
#
#
#
# Elastic Constant Matrix: (Units=GPa)
#
#
# Indices 1 2 3 4 5 6 
#
# 1 137.9100 35.9399 55.5163 0.0000 0.0000 0.0000
# 2 35.9399 91.7372 38.1167 0.0000 0.0000 0.0000
# 3 55.5163 38.1167 104.5406 0.0000 0.0000 0.0000
# 4 0.0000 0.0000 0.0000 29.2349 0.0000 0.0000
# 5 0.0000 0.0000 0.0000 0.0000 30.1334 0.0000
# 6 0.0000 0.0000 0.0000 0.0000 0.0000 26.5271
#
#
#
# Elastic Compliance Matrix: (Units=1/GPa)
#
#
# Indices 1 2 3 4 5 6 
#
# 1 0.009500 -0.001916 -0.004346 0.000000 0.000000 0.000000
# 2 -0.001916 0.013233 -0.003808 0.000000 0.000000 0.000000
# 3 -0.004346 -0.003808 0.013262 0.000000 0.000000 0.000000
# 4 0.000000 0.000000 0.000000 0.034206 0.000000 0.000000
# 5 0.000000 0.000000 0.000000 0.000000 0.033186 0.000000
# 6 0.000000 0.000000 0.000000 0.000000 0.000000 0.037697
#
#
# Mechanical properties :
#
#
# Convention : Reuss Voigt Hill
#
# Bulk Modulus (GPa) = 63.06895 65.92597 64.49746
# Shear Modulus (GPa) = 30.02833 30.82008 30.42421
#
# Velocity S-wave (km/s) = 3.87588 3.92664 3.90134
# Velocity P-wave (km/s) = 7.18204 7.31704 7.24985
#
# Compressibility (1/GPa) = 0.01585566
#
# Stress axis : x y z
#
# Youngs Moduli (GPa) = 105.26222 75.56670 75.40264
#
# Poissons Ratio (x) = 0.14478 0.32773
# Poissons Ratio (y) = 0.20167 0.28710
# Poissons Ratio (z) = 0.45752 0.28773
#
# Static dielectric constant tensor:
#      x y z
#    x 3.889250 0.000000 0.000000 
#    y 0.000000 3.660340 0.000000 
#    z 0.000000 0.000000 3.559590 
# 
# 
# High freq. dielectric constant tensor:
#      x y z
#    x 1.788090 0.000000 0.000000 
#    y 0.000000 1.788380 0.000000 
#    z 0.000000 0.000000 1.762070 
# 
# From -- ./inp_files/53777.got.cif
#   From: 2010.03.12/outbox.cif.g09.slc.cpg/sg64_27_cif.got.tgz:53777.got - 2010.04.10 20:19:32.
