data_PCOD8263517
_publ_section_title
;
Structure prediction by ZEFSAII (Michael W. Deem and Ramdas Pophale) SiO2 
 PCOD8263517
Probable space group: C M C A
;
_chemical_formula_sum "Si O2"
_cell_formula_units_Z 64
_cell_length_a 12.701200
_cell_length_b 13.940750
_cell_length_c 17.385185
_cell_angle_alpha 90.000000
_cell_angle_beta 90.000000
_cell_angle_gamma 90.000000
_cell_volume 3078.294811
_symmetry_space_group_name_H-M "C M C A"
_symmetry_group_IT_number 64
_symmetry_cell_setting 'orthorhombic'
loop_
_space_group_symop_operation_xyz
x,y,z
-x,1/2-y,1/2+z
x,-y,-z
-x,1/2+y,1/2-z
-x,-y,-z
x,1/2+y,1/2-z
-x,y,z
x,1/2-y,1/2+z
1/2+x,1/2+y,z
1/2-x,-y,1/2+z
1/2+x,1/2-y,-z
1/2-x,y,1/2-z
1/2-x,1/2-y,-z
1/2+x,y,1/2-z
1/2-x,1/2+y,z
1/2+x,-y,1/2+z
loop_
_atom_site_type_symbol
_atom_site_label
_atom_site_fract_x
_atom_site_fract_y
_atom_site_fract_z
Si Si1 0.379774 0.184924 0.980169
Si Si2 0.750000 0.606983 0.250000
Si Si3 0.207195 0.262692 0.372222
Si Si4 0.875678 0.036318 0.846010
Si Si5 0.258730 0.000000 0.500000
O O1 0.500000 0.162795 0.959783
O O2 0.326986 0.232668 0.904788
O O3 0.317274 0.090132 0.002100
O O4 0.371553 0.254026 0.054519
O O5 0.802618 0.673072 0.184690
O O6 0.842985 0.539037 0.280513
O O7 0.174986 0.359625 0.327590
O O8 0.000000 0.044819 0.847265
O O9 0.833676 0.996740 0.926660
#
# Coordination Sequence:
#
# PCOD8263517 Si02
#       5
#    16   8  16  16   8
#     4  10  20  39  67  96 131 177 219 272 329 382
#     4  12  24  46  62  98 136 168 216 276 334 394
#     4  10  23  42  64  96 135 168 225 275 318 405
#     4  11  24  42  68  95 130 177 218 272 333 389
#     4  10  20  42  64 100 130 170 228 278 308 406
#
# _framework density 20.790731000000001
#
# number of rings (size 3 to 8) (size 9 to 14) (size 15 to 20)
#    0.000    1.500    2.500    2.250    0.000    3.000 
#    0.000    6.250    0.000    0.000    0.000    0.000 
#    0.000    0.000    0.000    0.000    0.000    0.000 
#
# Total GULP energy -396888.056419 kJ/mol
# GULP energy per Si atom -12402.751763 kJ/mol
# Density = 2.074341 g / cm^3
# Si number density = 20.790731 Si / 1000 Ang^3
#
#
#
# Elastic Constant Matrix: (Units=GPa)
#
#
# Indices 1 2 3 4 5 6 
#
# 1 151.6989 45.8826 61.1501 0.0000 0.0000 0.0000
# 2 45.8826 133.6504 65.9478 0.0000 0.0000 0.0000
# 3 61.1501 65.9478 97.0964 0.0000 0.0000 0.0000
# 4 0.0000 0.0000 0.0000 49.0342 0.0000 0.0000
# 5 0.0000 0.0000 0.0000 0.0000 19.4587 0.0000
# 6 0.0000 0.0000 0.0000 0.0000 0.0000 12.6793
#
#
#
# Elastic Compliance Matrix: (Units=1/GPa)
#
#
# Indices 1 2 3 4 5 6 
#
# 1 0.008852 -0.000433 -0.005280 0.000000 0.000000 0.000000
# 2 -0.000433 0.011275 -0.007385 0.000000 0.000000 0.000000
# 3 -0.005280 -0.007385 0.018640 0.000000 0.000000 0.000000
# 4 0.000000 0.000000 0.000000 0.020394 0.000000 0.000000
# 5 0.000000 0.000000 0.000000 0.000000 0.051391 0.000000
# 6 0.000000 0.000000 0.000000 0.000000 0.000000 0.078869
#
#
# Mechanical properties :
#
#
# Convention : Reuss Voigt Hill
#
# Bulk Modulus (GPa) = 79.55672 80.93407 80.24540
# Shear Modulus (GPa) = 22.74713 30.19878 26.47296
#
# Velocity S-wave (km/s) = 3.31131 3.81532 3.57221
# Velocity P-wave (km/s) = 7.27793 7.64339 7.46289
#
# Compressibility (1/GPa) = 0.01256965
#
# Stress axis : x y z
#
# Youngs Moduli (GPa) = 112.97449 88.69154 53.64670
#
# Poissons Ratio (x) = 0.03843 0.28327
# Poissons Ratio (y) = 0.04895 0.39619
# Poissons Ratio (z) = 0.59654 0.65500
#
# Static dielectric constant tensor:
#      x y z
#    x 3.514120 0.000000 0.000000 
#    y 0.000000 4.031730 0.000000 
#    z 0.000000 0.000000 3.873720 
# 
# 
# High freq. dielectric constant tensor:
#      x y z
#    x 1.800080 0.000000 0.000000 
#    y 0.000000 1.835410 0.000000 
#    z 0.000000 0.000000 1.811360 
# 
# From -- ./inp_files/30491.got.cif
#   From: 2010.03.12/outbox.cif.g09.slc.cpg/sg64_16_cif.got.tgz:30491.got - 2010.04.10 20:19:32.
