data_PCOD8263011
_publ_section_title
;
Structure prediction by ZEFSAII (Michael W. Deem and Ramdas Pophale) SiO2 
 PCOD8263011
Probable space group: C M C A
;
_chemical_formula_sum "Si O2"
_cell_formula_units_Z 80
_cell_length_a 9.176068
_cell_length_b 14.552735
_cell_length_c 29.532343
_cell_angle_alpha 90.000000
_cell_angle_beta 90.000000
_cell_angle_gamma 90.000000
_cell_volume 3943.657119
_symmetry_space_group_name_H-M "C M C A"
_symmetry_group_IT_number 64
_symmetry_cell_setting 'orthorhombic'
loop_
_space_group_symop_operation_xyz
x,y,z
-x,1/2-y,1/2+z
x,-y,-z
-x,1/2+y,1/2-z
-x,-y,-z
x,1/2+y,1/2-z
-x,y,z
x,1/2-y,1/2+z
1/2+x,1/2+y,z
1/2-x,-y,1/2+z
1/2+x,1/2-y,-z
1/2-x,y,1/2-z
1/2-x,1/2-y,-z
1/2+x,y,1/2-z
1/2-x,1/2+y,z
1/2+x,-y,1/2+z
loop_
_atom_site_type_symbol
_atom_site_label
_atom_site_fract_x
_atom_site_fract_y
_atom_site_fract_z
Si Si1 0.336548 0.358101 0.207005
Si Si2 0.334773 0.639134 0.293639
Si Si3 0.666354 0.147371 0.879992
Si Si4 0.668202 0.510623 0.448286
Si Si5 0.828851 0.358160 0.616601
O O1 0.500000 0.396478 0.208692
O O2 0.250000 0.398409 0.250000
O O3 0.333607 0.248561 0.208234
O O4 0.262386 0.393094 0.160904
O O5 0.500000 0.601443 0.294130
O O6 0.250000 0.599241 0.250000
O O7 0.252126 0.604627 0.338532
O O8 0.500000 0.142496 0.863493
O O9 0.695072 0.087117 0.924367
O O10 0.708753 0.251582 0.891933
O O11 0.716297 0.500000 0.500000
O O12 0.500000 0.541373 0.444091
O O13 0.769324 0.588281 0.426716
O O14 0.000000 0.375089 0.622497
#
# Coordination Sequence:
#
# PCOD8263011 Si02
#       5
#    16  16  16  16  16
#     4   9  16  27  48  78 110 144 180 217 260 313
#     4   9  16  28  49  78 111 146 181 217 261 315
#     4   9  19  36  56  79 110 145 179 219 269 323
#     4  10  22  40  59  79 106 141 181 227 279 331
#     4  10  20  35  56  82 111 143 180 223 270 320
#
# _framework density 20.285739
#
# number of rings (size 3 to 8) (size 9 to 14) (size 15 to 20)
#    0.000    2.600    0.000    1.800    0.000    7.600 
#    0.000    1.000    0.000    4.800    0.000    0.000 
#    0.000    0.000    0.000    0.000    0.000    0.000 
#
# Total GULP energy -496129.528958 kJ/mol
# GULP energy per Si atom -12403.238224 kJ/mol
# Density = 2.023957 g / cm^3
# Si number density = 20.285739 Si / 1000 Ang^3
#
#
#
# Elastic Constant Matrix: (Units=GPa)
#
#
# Indices 1 2 3 4 5 6 
#
# 1 145.3281 43.2130 93.1366 0.0000 0.0000 0.0000
# 2 43.2130 56.2804 48.4110 0.0000 0.0000 0.0000
# 3 93.1366 48.4110 188.4713 0.0000 0.0000 0.0000
# 4 0.0000 0.0000 0.0000 -16.2200 0.0000 0.0000
# 5 0.0000 0.0000 0.0000 0.0000 39.1330 0.0000
# 6 0.0000 0.0000 0.0000 0.0000 0.0000 14.0886
#
#
#
# Elastic Compliance Matrix: (Units=1/GPa)
#
#
# Indices 1 2 3 4 5 6 
#
# 1 0.011011 -0.004844 -0.004197 0.000000 0.000000 0.000000
# 2 -0.004844 0.024939 -0.004012 0.000000 0.000000 0.000000
# 3 -0.004197 -0.004012 0.008410 0.000000 0.000000 0.000000
# 4 0.000000 0.000000 0.000000 -0.061652 0.000000 0.000000
# 5 0.000000 0.000000 0.000000 0.000000 0.025554 0.000000
# 6 0.000000 0.000000 0.000000 0.000000 0.000000 0.070979
#
#
# Mechanical properties :
#
#
# Convention : Reuss Voigt Hill
#
# Bulk Modulus (GPa) = 54.78343 84.40012 69.59178
# Shear Modulus (GPa) = 44.87025 21.08827 32.97926
#
# Velocity S-wave (km/s) = 4.70820 3.22772 4.03642
# Velocity P-wave (km/s) = 7.52467 7.45566 7.49025
#
# Compressibility (1/GPa) = 0.01825369
#
# Stress axis : x y z
#
# Youngs Moduli (GPa) = 90.81635 40.09840 118.90047
#
# Poissons Ratio (x) = 0.19425 0.49903
# Poissons Ratio (y) = 0.43995 0.47701
# Poissons Ratio (z) = 0.38116 0.16087
#
# Static dielectric constant tensor:
#      x y z
#    x 3.780210 0.000000 0.000000 
#    y 0.000000 3.409610 0.000000 
#    z 0.000000 0.000000 3.653650 
# 
# 
# High freq. dielectric constant tensor:
#      x y z
#    x 1.797540 0.000000 0.000000 
#    y 0.000000 1.779070 0.000000 
#    z 0.000000 0.000000 1.788730 
# 
# From -- ./inp_files/47835.got.cif
#   From: 2010.03.12/outbox.cif.g09.slc.cpg/sg64_24_cif.got.tgz:47835.got - 2010.04.10 20:19:32.
