data_PCOD8263310
_publ_section_title
;
Structure prediction by ZEFSAII (Michael W. Deem and Ramdas Pophale) SiO2 
 PCOD8263310
Probable space group: C M C A
;
_chemical_formula_sum "Si O2"
_cell_formula_units_Z 80
_cell_length_a 9.157988
_cell_length_b 24.959411
_cell_length_c 18.711235
_cell_angle_alpha 90.000000
_cell_angle_beta 90.000000
_cell_angle_gamma 90.000000
_cell_volume 4276.976420
_symmetry_space_group_name_H-M "C M C A"
_symmetry_group_IT_number 64
_symmetry_cell_setting 'orthorhombic'
loop_
_space_group_symop_operation_xyz
x,y,z
-x,1/2-y,1/2+z
x,-y,-z
-x,1/2+y,1/2-z
-x,-y,-z
x,1/2+y,1/2-z
-x,y,z
x,1/2-y,1/2+z
1/2+x,1/2+y,z
1/2-x,-y,1/2+z
1/2+x,1/2-y,-z
1/2-x,y,1/2-z
1/2-x,1/2-y,-z
1/2+x,y,1/2-z
1/2-x,1/2+y,z
1/2+x,-y,1/2+z
loop_
_atom_site_type_symbol
_atom_site_label
_atom_site_fract_x
_atom_site_fract_y
_atom_site_fract_z
Si Si1 0.828800 0.389135 0.935861
Si Si2 0.826841 0.585950 0.906445
Si Si3 0.828520 0.481681 0.824954
Si Si4 0.167279 0.689028 0.823108
Si Si5 0.331286 0.279234 0.936192
O O1 0.792764 0.430799 0.873733
O O2 0.740158 0.335860 0.918429
O O3 0.000000 0.374948 0.939481
O O4 0.774927 0.414014 0.011224
O O5 0.765096 0.534157 0.865076
O O6 0.766705 0.639530 0.868431
O O7 0.000000 0.584206 0.905195
O O8 0.750000 0.473970 0.750000
O O9 0.000000 0.487465 0.811110
O O10 0.250000 0.695693 0.750000
O O11 0.185954 0.743856 0.865686
O O12 0.000000 0.676704 0.805581
O O13 0.500000 0.286561 0.957430
O O14 0.250000 0.250000 0.000000
#
# Coordination Sequence:
#
# PCOD8263310 Si02
#       5
#    16  16  16  16  16
#     4  10  20  37  60  84 111 148 194 236 280 337
#     4   9  17  35  59  83 110 145 190 235 280 333
#     4  10  21  36  58  83 114 153 189 233 285 338
#     4  10  21  36  56  83 114 145 185 233 282 337
#     4  11  22  38  59  84 114 150 188 233 283 336
#
# _framework density 18.704802999999998
#
# number of rings (size 3 to 8) (size 9 to 14) (size 15 to 20)
#    0.000    2.000    2.000    1.800    0.000    5.600 
#    0.000    5.000    0.000    2.400    0.000    0.000 
#    0.000    0.000    0.000    0.000    0.000    0.000 
#
# Total GULP energy -496084.571731 kJ/mol
# GULP energy per Si atom -12402.114293 kJ/mol
# Density = 1.866223 g / cm^3
# Si number density = 18.704803 Si / 1000 Ang^3
#
#
#
# Elastic Constant Matrix: (Units=GPa)
#
#
# Indices 1 2 3 4 5 6 
#
# 1 64.8901 61.6377 60.7937 0.0000 0.0000 0.0000
# 2 61.6377 152.6450 80.1400 0.0000 0.0000 0.0000
# 3 60.7937 80.1400 156.4458 0.0000 0.0000 0.0000
# 4 0.0000 0.0000 0.0000 23.7280 0.0000 0.0000
# 5 0.0000 0.0000 0.0000 0.0000 35.2737 0.0000
# 6 0.0000 0.0000 0.0000 0.0000 0.0000 30.6889
#
#
#
# Elastic Compliance Matrix: (Units=1/GPa)
#
#
# Indices 1 2 3 4 5 6 
#
# 1 0.030365 -0.008298 -0.007549 0.000000 0.000000 0.000000
# 2 -0.008298 0.011229 -0.002527 0.000000 0.000000 0.000000
# 3 -0.007549 -0.002527 0.010620 0.000000 0.000000 0.000000
# 4 0.000000 0.000000 0.000000 0.042144 0.000000 0.000000
# 5 0.000000 0.000000 0.000000 0.000000 0.028350 0.000000
# 6 0.000000 0.000000 0.000000 0.000000 0.000000 0.032585
#
#
# Mechanical properties :
#
#
# Convention : Reuss Voigt Hill
#
# Bulk Modulus (GPa) = 64.66125 86.56930 75.61527
# Shear Modulus (GPa) = 25.35526 29.36541 27.36034
#
# Velocity S-wave (km/s) = 3.68577 3.96654 3.82873
# Velocity P-wave (km/s) = 7.26344 8.20733 7.74977
#
# Compressibility (1/GPa) = 0.01546521
#
# Stress axis : x y z
#
# Youngs Moduli (GPa) = 32.93225 89.05643 94.16056
#
# Poissons Ratio (x) = 0.73900 0.71082
# Poissons Ratio (y) = 0.27328 0.23798
# Poissons Ratio (z) = 0.24861 0.22508
#
# Static dielectric constant tensor:
#      x y z
#    x 3.194420 0.000000 0.000000 
#    y 0.000000 3.793610 0.000000 
#    z 0.000000 0.000000 3.455370 
# 
# 
# High freq. dielectric constant tensor:
#      x y z
#    x 1.701100 0.000000 0.000000 
#    y 0.000000 1.741160 0.000000 
#    z 0.000000 0.000000 1.735800 
# 
# From -- ./inp_files/22306.got.cif
#   From: 2010.03.12/outbox.cif.g09.slc.cpg/sg64_12_cif.got.tgz:22306.got - 2010.04.10 20:19:32.
