data_PCOD8263630
_publ_section_title
;
Structure prediction by ZEFSAII (Michael W. Deem and Ramdas Pophale) SiO2 
 PCOD8263630
Probable space group: C M C A
;
_chemical_formula_sum "Si O2"
_cell_formula_units_Z 96
_cell_length_a 13.809214
_cell_length_b 19.000461
_cell_length_c 20.450124
_cell_angle_alpha 90.000000
_cell_angle_beta 90.000000
_cell_angle_gamma 90.000000
_cell_volume 5365.732821
_symmetry_space_group_name_H-M "C M C A"
_symmetry_group_IT_number 64
_symmetry_cell_setting 'orthorhombic'
loop_
_space_group_symop_operation_xyz
x,y,z
-x,1/2-y,1/2+z
x,-y,-z
-x,1/2+y,1/2-z
-x,-y,-z
x,1/2+y,1/2-z
-x,y,z
x,1/2-y,1/2+z
1/2+x,1/2+y,z
1/2-x,-y,1/2+z
1/2+x,1/2-y,-z
1/2-x,y,1/2-z
1/2-x,1/2-y,-z
1/2+x,y,1/2-z
1/2-x,1/2+y,z
1/2+x,-y,1/2+z
loop_
_atom_site_type_symbol
_atom_site_label
_atom_site_fract_x
_atom_site_fract_y
_atom_site_fract_z
Si Si1 0.205082 0.945288 0.422914
Si Si2 0.301713 0.666297 0.681614
Si Si3 0.000000 0.847054 0.926219
Si Si4 0.500000 0.783064 0.157853
Si Si5 0.000000 0.396115 0.043580
Si Si6 0.792377 0.406157 0.553513
Si Si7 0.789818 0.763856 0.573023
Si Si8 0.000000 0.266917 0.960393
O O1 0.204292 0.910928 0.351028
O O2 0.272749 0.903402 0.474987
O O3 0.094822 0.945405 0.450734
O O4 0.248986 0.022793 0.415793
O O5 0.250000 0.664673 0.750000
O O6 0.407422 0.694922 0.700284
O O7 0.261678 0.717773 0.626751
O O8 0.907023 0.898069 0.932535
O O9 0.000000 0.800743 0.859230
O O10 0.000000 0.786663 0.979878
O O11 0.500000 0.833015 0.094992
O O12 0.000000 0.350567 0.977058
O O13 0.735452 0.344183 0.589810
O O14 0.750000 0.750000 0.500000
O O15 0.903967 0.750713 0.580852
#
# Coordination Sequence:
#
# PCOD8263630 Si02
#       8
#    16  16   8   8   8  16  16   8
#     4  10  21  35  53  87 120 156 190 237 294 353
#     4  11  22  39  61  86 117 152 197 243 296 352
#     4  11  18  33  56  84 115 158 192 235 294 359
#     4   9  18  35  62  80 106 156 200 228 294 355
#     4   9  16  32  56  83 116 155 186 235 297 348
#     4  11  21  33  57  85 121 148 196 237 289 338
#     4  12  19  36  57  89 117 148 194 249 287 339
#     4  11  18  28  59  88 116 147 192 253 299 319
#
# _framework density 17.891311999999999
#
# number of rings (size 3 to 8) (size 9 to 14) (size 15 to 20)
#    0.000    1.333    6.667    1.000    0.000    4.000 
#    0.000    3.333    0.000    0.000    0.000    0.000 
#    0.000    0.000    0.000    0.000    0.000    0.000 
#
# Total GULP energy -594850.603777 kJ/mol
# GULP energy per Si atom -12392.720912 kJ/mol
# Density = 1.785059 g / cm^3
# Si number density = 17.891312 Si / 1000 Ang^3
#
#
#
# Elastic Constant Matrix: (Units=GPa)
#
#
# Indices 1 2 3 4 5 6 
#
# 1 166.1606 56.2548 40.0433 0.0000 0.0000 0.0000
# 2 56.2548 106.1053 30.7242 0.0000 0.0000 0.0000
# 3 40.0433 30.7242 88.5857 0.0000 0.0000 0.0000
# 4 0.0000 0.0000 0.0000 13.5807 0.0000 0.0000
# 5 0.0000 0.0000 0.0000 0.0000 -414.7675 0.0000
# 6 0.0000 0.0000 0.0000 0.0000 0.0000 30.6354
#
#
#
# Elastic Compliance Matrix: (Units=1/GPa)
#
#
# Indices 1 2 3 4 5 6 
#
# 1 0.007737 -0.003434 -0.002306 0.000000 0.000000 0.000000
# 2 -0.003434 0.012001 -0.002610 0.000000 0.000000 0.000000
# 3 -0.002306 -0.002610 0.013236 0.000000 0.000000 0.000000
# 4 0.000000 0.000000 0.000000 0.073634 0.000000 0.000000
# 5 0.000000 0.000000 0.000000 0.000000 -0.002411 0.000000
# 6 0.000000 0.000000 0.000000 0.000000 0.000000 0.032642
#
#
# Mechanical properties :
#
#
# Convention : Reuss Voigt Hill
#
# Bulk Modulus (GPa) = 61.44994 68.32179 64.88586
# Shear Modulus (GPa) = 31.45376 -58.52165 -13.53394
#
# Velocity S-wave (km/s) = 4.19746 -5.72543 -2.75335
# Velocity P-wave (km/s) = 7.61001 2.33181 5.12225
#
# Compressibility (1/GPa) = 0.01627341
#
# Stress axis : x y z
#
# Youngs Moduli (GPa) = 129.25481 83.32623 75.55042
#
# Poissons Ratio (x) = 0.28615 0.17423
# Poissons Ratio (y) = 0.44387 0.19719
# Poissons Ratio (z) = 0.29808 0.21748
#
# Static dielectric constant tensor:
#      x y z
#    x 4.093540 0.000000 0.000000 
#    y 0.000000 3.591990 0.000000 
#    z 0.000000 0.000000 2.720540 
# 
# 
# High freq. dielectric constant tensor:
#      x y z
#    x 1.712590 0.000000 0.000000 
#    y 0.000000 1.698590 0.000000 
#    z 0.000000 0.000000 1.637570 
# 
# From -- ./inp_files/38346.got.cif
#   From: 2010.03.12/outbox.cif.g09.slc.cpg/sg64_20_cif.got.tgz:38346.got - 2010.04.10 20:19:32.
