data_PCOD8263809
_publ_section_title
;
Structure prediction by ZEFSAII (Michael W. Deem and Ramdas Pophale) SiO2 
 PCOD8263809
Probable space group: C M C A
;
_chemical_formula_sum "Si O2"
_cell_formula_units_Z 72
_cell_length_a 33.002369
_cell_length_b 25.026466
_cell_length_c 5.039331
_cell_angle_alpha 90.000000
_cell_angle_beta 90.000000
_cell_angle_gamma 90.000000
_cell_volume 4162.148086
_symmetry_space_group_name_H-M "C M C A"
_symmetry_group_IT_number 64
_symmetry_cell_setting 'orthorhombic'
loop_
_space_group_symop_operation_xyz
x,y,z
-x,1/2-y,1/2+z
x,-y,-z
-x,1/2+y,1/2-z
-x,-y,-z
x,1/2+y,1/2-z
-x,y,z
x,1/2-y,1/2+z
1/2+x,1/2+y,z
1/2-x,-y,1/2+z
1/2+x,1/2-y,-z
1/2-x,y,1/2-z
1/2-x,1/2-y,-z
1/2+x,y,1/2-z
1/2-x,1/2+y,z
1/2+x,-y,1/2+z
loop_
_atom_site_type_symbol
_atom_site_label
_atom_site_fract_x
_atom_site_fract_y
_atom_site_fract_z
Si Si1 0.793373 0.462616 0.748651
Si Si2 0.547121 0.214840 0.956857
Si Si3 0.621988 0.439467 0.896841
Si Si4 0.500000 0.962276 0.247284
Si Si5 0.420749 0.399870 0.383025
O O1 0.788595 0.500000 0.500000
O O2 0.750000 0.430572 0.750000
O O3 0.832538 0.424879 0.705535
O O4 0.801757 0.500000 0.000000
O O5 0.500000 0.198900 0.956952
O O6 0.559109 0.250317 0.707877
O O7 0.573290 0.161324 0.963233
O O8 0.591818 0.431763 0.648420
O O9 0.618179 0.500000 0.000000
O O10 0.612513 0.401754 0.148010
O O11 0.539042 0.924553 0.246154
O O12 0.500000 0.000000 0.500000
O O13 0.500000 0.000000 0.000000
#
# Coordination Sequence:
#
# PCOD8263809 Si02
#       5
#    16  16  16   8  16
#     4   9  17  30  48  70  99 137 174 203 239 287
#     4  10  21  38  57  72  92 124 172 227 272 297
#     4  11  21  33  51  74 109 140 168 202 246 297
#     4  12  24  34  46  68 102 140 170 194 227 294
#     4  12  22  36  51  74 101 135 175 209 252 301
#
# _framework density 17.298760999999999
#
# number of rings (size 3 to 8) (size 9 to 14) (size 15 to 20)
#    0.000    1.333    1.111    8.000    0.000    0.000 
#    0.000    0.000    0.000    0.000    0.000    0.000 
#    0.000   17.778    0.000    0.000    0.000    0.000 
#
# Total GULP energy -446268.970966 kJ/mol
# GULP energy per Si atom -12396.360305 kJ/mol
# Density = 1.725939 g / cm^3
# Si number density = 17.298761 Si / 1000 Ang^3
#
#
#
# Elastic Constant Matrix: (Units=GPa)
#
#
# Indices 1 2 3 4 5 6 
#
# 1 107.5111 48.9444 42.6798 0.0000 0.0000 0.0000
# 2 48.9444 77.3785 36.7992 0.0000 0.0000 0.0000
# 3 42.6798 36.7992 138.9090 0.0000 0.0000 0.0000
# 4 0.0000 0.0000 0.000014789.8778 0.0000 0.0000
# 5 0.0000 0.0000 0.0000 0.0000 28.8172 0.0000
# 6 0.0000 0.0000 0.0000 0.0000 0.0000 7.2997
#
#
#
# Elastic Compliance Matrix: (Units=1/GPa)
#
#
# Indices 1 2 3 4 5 6 
#
# 1 0.013614 -0.007577 -0.002176 0.000000 0.000000 0.000000
# 2 -0.007577 0.019003 -0.002706 0.000000 0.000000 0.000000
# 3 -0.002176 -0.002706 0.008584 0.000000 0.000000 0.000000
# 4 0.000000 0.000000 0.000000 0.000068 0.000000 0.000000
# 5 0.000000 0.000000 0.000000 0.000000 0.034702 0.000000
# 6 0.000000 0.000000 0.000000 0.000000 0.000000 0.136992
#
#
# Mechanical properties :
#
#
# Convention : Reuss Voigt Hill
#
# Bulk Modulus (GPa) = 61.40927 64.51615 62.96271
# Shear Modulus (GPa) = 20.55003 2978.22395 1499.38699
#
# Velocity S-wave (km/s) = 3.45040 41.53766 29.47272
# Velocity P-wave (km/s) = 7.17286 48.35163 34.56392
#
# Compressibility (1/GPa) = 0.01628419
#
# Stress axis : x y z
#
# Youngs Moduli (GPa) = 73.45123 52.62299 116.49034
#
# Poissons Ratio (x) = 0.39872 0.25346
# Poissons Ratio (y) = 0.55653 0.31525
# Poissons Ratio (z) = 0.15982 0.14241
#
# Static dielectric constant tensor:
#      x y z
#    x 3.926610 0.000000 0.000000 
#    y 0.000000 2.875600 0.000000 
#    z 0.000000 0.000000 3.453890 
# 
# 
# High freq. dielectric constant tensor:
#      x y z
#    x 1.665940 0.000000 0.000000 
#    y 0.000000 1.621130 0.000000 
#    z 0.000000 0.000000 1.700860 
# 
# From -- ./inp_files/3252.got.cif
#   From: 2010.03.12/outbox.cif.g09.slc.cpg/sg64_2_cif.got.tgz:3252.got - 2010.04.10 20:19:32.
