data_PCOD8263331
_publ_section_title
;
Structure prediction by ZEFSAII (Michael W. Deem and Ramdas Pophale) SiO2 
 PCOD8263331
Probable space group: C M C A
;
_chemical_formula_sum "Si O2"
_cell_formula_units_Z 80
_cell_length_a 10.156592
_cell_length_b 20.341266
_cell_length_c 20.829983
_cell_angle_alpha 90.000000
_cell_angle_beta 90.000000
_cell_angle_gamma 90.000000
_cell_volume 4303.431568
_symmetry_space_group_name_H-M "C M C A"
_symmetry_group_IT_number 64
_symmetry_cell_setting 'orthorhombic'
loop_
_space_group_symop_operation_xyz
x,y,z
-x,1/2-y,1/2+z
x,-y,-z
-x,1/2+y,1/2-z
-x,-y,-z
x,1/2+y,1/2-z
-x,y,z
x,1/2-y,1/2+z
1/2+x,1/2+y,z
1/2-x,-y,1/2+z
1/2+x,1/2-y,-z
1/2-x,y,1/2-z
1/2-x,1/2-y,-z
1/2+x,y,1/2-z
1/2-x,1/2+y,z
1/2+x,-y,1/2+z
loop_
_atom_site_type_symbol
_atom_site_label
_atom_site_fract_x
_atom_site_fract_y
_atom_site_fract_z
Si Si1 0.500000 0.443388 0.051143
Si Si2 0.244305 0.117117 0.324026
Si Si3 0.751767 0.354601 0.037167
Si Si4 0.500000 0.055269 0.942344
Si Si5 0.000000 0.036440 0.169119
Si Si6 0.158482 0.223036 0.414123
Si Si7 0.500000 0.029409 0.179043
O O1 0.626246 0.400530 0.035984
O O2 0.500000 0.471785 0.124168
O O3 0.500000 0.500000 0.000000
O O4 0.250000 0.130078 0.250000
O O5 0.376512 0.082221 0.348580
O O6 0.213759 0.189249 0.350547
O O7 0.126702 0.069381 0.342634
O O8 0.721074 0.295700 0.086852
O O9 0.874038 0.398887 0.055335
O O10 0.780158 0.322017 0.969220
O O11 0.500000 0.031762 0.868621
O O12 0.500000 0.000000 0.000000
O O13 0.000000 0.012644 0.244278
O O14 0.000000 0.226059 0.418378
#
# Coordination Sequence:
#
# PCOD8263331 Si02
#       7
#     8  16  16   8   8  16   8
#     4  12  22  38  57  86 123 152 196 251 294 351
#     4  10  20  37  63  90 114 155 203 239 286 348
#     4  11  24  37  61  90 114 156 198 238 303 353
#     4  12  22  38  61  92 121 154 198 241 292 363
#     4  10  22  37  57  91 121 154 196 247 299 345
#     4  11  21  41  62  83 122 154 191 251 298 342
#     4  10  20  37  61  85 123 158 192 241 295 355
#
# _framework density 18.589817
#
# number of rings (size 3 to 8) (size 9 to 14) (size 15 to 20)
#    0.000    1.200    3.000    4.200    0.000    0.800 
#    0.000    2.000    0.000    0.000    0.000    0.000 
#    0.000    0.000    0.000    0.000    0.000    0.000 
#
# Total GULP energy -495794.156815 kJ/mol
# GULP energy per Si atom -12394.853920 kJ/mol
# Density = 1.854751 g / cm^3
# Si number density = 18.589817 Si / 1000 Ang^3
#
#
#
# Elastic Constant Matrix: (Units=GPa)
#
#
# Indices 1 2 3 4 5 6 
#
# 1 184.5861 88.2240 39.0214 0.0000 0.0000 0.0000
# 2 88.2240 152.0650 56.9212 0.0000 0.0000 0.0000
# 3 39.0214 56.9212 56.4160 0.0000 0.0000 0.0000
# 4 0.0000 0.0000 0.0000 38.9917 0.0000 0.0000
# 5 0.0000 0.0000 0.0000 0.0000 32.1081 0.0000
# 6 0.0000 0.0000 0.0000 0.0000 0.0000 57.0867
#
#
#
# Elastic Compliance Matrix: (Units=1/GPa)
#
#
# Indices 1 2 3 4 5 6 
#
# 1 0.007554 -0.003900 -0.001290 0.000000 0.000000 0.000000
# 2 -0.003900 0.012580 -0.009996 0.000000 0.000000 0.000000
# 3 -0.001290 -0.009996 0.028703 0.000000 0.000000 0.000000
# 4 0.000000 0.000000 0.000000 0.025646 0.000000 0.000000
# 5 0.000000 0.000000 0.000000 0.000000 0.031145 0.000000
# 6 0.000000 0.000000 0.000000 0.000000 0.000000 0.017517
#
#
# Mechanical properties :
#
#
# Convention : Reuss Voigt Hill
#
# Bulk Modulus (GPa) = 54.15314 84.60003 69.37659
# Shear Modulus (GPa) = 31.31410 39.56401 35.43905
#
# Velocity S-wave (km/s) = 4.10869 4.61831 4.37094
# Velocity P-wave (km/s) = 7.19043 8.60500 7.92932
#
# Compressibility (1/GPa) = 0.01846615
#
# Stress axis : x y z
#
# Youngs Moduli (GPa) = 132.37641 79.49002 34.83959
#
# Poissons Ratio (x) = 0.30999 0.04496
# Poissons Ratio (y) = 0.51623 0.34824
# Poissons Ratio (z) = 0.17082 0.79454
#
# Static dielectric constant tensor:
#      x y z
#    x 4.931320 0.000000 0.000000 
#    y 0.000000 3.766060 0.000000 
#    z 0.000000 0.000000 3.457110 
# 
# 
# High freq. dielectric constant tensor:
#      x y z
#    x 1.747610 0.000000 0.000000 
#    y 0.000000 1.725290 0.000000 
#    z 0.000000 0.000000 1.716910 
# 
# From -- ./inp_files/38058.got.cif
#   From: 2010.03.12/outbox.cif.g09.slc.cpg/sg64_20_cif.got.tgz:38058.got - 2010.04.10 20:19:32.
