data_PCOD8263871
_publ_section_title
;
Structure prediction by ZEFSAII (Michael W. Deem and Ramdas Pophale) SiO2 
 PCOD8263871
Probable space group: C M C A
;
_chemical_formula_sum "Si O2"
_cell_formula_units_Z 96
_cell_length_a 17.757287
_cell_length_b 23.031192
_cell_length_c 11.196525
_cell_angle_alpha 90.000000
_cell_angle_beta 90.000000
_cell_angle_gamma 90.000000
_cell_volume 4579.059471
_symmetry_space_group_name_H-M "C M C A"
_symmetry_group_IT_number 64
_symmetry_cell_setting 'orthorhombic'
loop_
_space_group_symop_operation_xyz
x,y,z
-x,1/2-y,1/2+z
x,-y,-z
-x,1/2+y,1/2-z
-x,-y,-z
x,1/2+y,1/2-z
-x,y,z
x,1/2-y,1/2+z
1/2+x,1/2+y,z
1/2-x,-y,1/2+z
1/2+x,1/2-y,-z
1/2-x,y,1/2-z
1/2-x,1/2-y,-z
1/2+x,y,1/2-z
1/2-x,1/2+y,z
1/2+x,-y,1/2+z
loop_
_atom_site_type_symbol
_atom_site_label
_atom_site_fract_x
_atom_site_fract_y
_atom_site_fract_z
Si Si1 0.413416 0.654390 0.052017
Si Si2 0.415078 0.442359 0.575705
Si Si3 0.320810 0.879224 0.107341
Si Si4 0.151278 0.088621 0.860905
Si Si5 0.411304 0.032120 0.337322
Si Si6 0.294687 0.751494 0.626018
O O1 0.500000 0.670032 0.079131
O O2 0.387956 0.590931 0.097237
O O3 0.362628 0.702946 0.113982
O O4 0.398396 0.643268 0.911070
O O5 0.412765 0.500000 0.500000
O O6 0.500000 0.417792 0.587633
O O7 0.364816 0.392498 0.514622
O O8 0.380758 0.458300 0.703446
O O9 0.235419 0.899941 0.093123
O O10 0.358410 0.912303 0.218279
O O11 0.328612 0.812002 0.140784
O O12 0.124985 0.024276 0.901117
O O13 0.500000 0.021347 0.338619
O O14 0.250000 0.766817 0.750000
O O15 0.250000 0.750000 0.500000
#
# Coordination Sequence:
#
# PCOD8263871 Si02
#       6
#    16  16  16  16  16  16
#     4  11  25  43  68 101 130 175 231 278 340 411
#     4  10  21  38  61  92 131 169 212 273 333 394
#     4  11  23  41  65  95 127 175 233 271 330 419
#     4  11  21  42  63  95 136 171 218 276 337 411
#     4  10  22  41  64  95 134 169 211 275 343 404
#     4  12  25  49  70  94 138 183 225 288 345 396
#
# _framework density 20.965004
#
# number of rings (size 3 to 8) (size 9 to 14) (size 15 to 20)
#    0.000    1.167    5.000    1.000    2.333    4.000 
#    3.000    2.500    0.000    0.000    0.000    0.000 
#    0.000    0.000    0.000    0.000    0.000    0.000 
#
# Total GULP energy -594955.315990 kJ/mol
# GULP energy per Si atom -12394.902416 kJ/mol
# Density = 2.091729 g / cm^3
# Si number density = 20.965004 Si / 1000 Ang^3
#
#
#
# Elastic Constant Matrix: (Units=GPa)
#
#
# Indices 1 2 3 4 5 6 
#
# 1 95.4098 78.5143 40.0052 0.0000 0.0000 0.0000
# 2 78.5143 133.1172 25.3113 0.0000 0.0000 0.0000
# 3 40.0052 25.3113 76.6325 0.0000 0.0000 0.0000
# 4 0.0000 0.0000 0.0000 34.0084 0.0000 0.0000
# 5 0.0000 0.0000 0.0000 0.0000 15.3266 0.0000
# 6 0.0000 0.0000 0.0000 0.0000 0.0000 38.4625
#
#
#
# Elastic Compliance Matrix: (Units=1/GPa)
#
#
# Indices 1 2 3 4 5 6 
#
# 1 0.024786 -0.012974 -0.008654 0.000000 0.000000 0.000000
# 2 -0.012974 0.014806 0.001882 0.000000 0.000000 0.000000
# 3 -0.008654 0.001882 0.016945 0.000000 0.000000 0.000000
# 4 0.000000 0.000000 0.000000 0.029404 0.000000 0.000000
# 5 0.000000 0.000000 0.000000 0.000000 0.065246 0.000000
# 6 0.000000 0.000000 0.000000 0.000000 0.000000 0.025999
#
#
# Mechanical properties :
#
#
# Convention : Reuss Voigt Hill
#
# Bulk Modulus (GPa) = 58.66220 65.86901 62.26561
# Shear Modulus (GPa) = 22.48602 28.31475 25.40038
#
# Velocity S-wave (km/s) = 3.27853 3.67900 3.48452
# Velocity P-wave (km/s) = 6.50949 7.03800 6.77890
#
# Compressibility (1/GPa) = 0.01704675
#
# Stress axis : x y z
#
# Youngs Moduli (GPa) = 40.34549 67.53905 59.01307
#
# Poissons Ratio (x) = 0.87622 0.51071
# Poissons Ratio (y) = 0.52342 -0.11108
# Poissons Ratio (z) = 0.34916 -0.12713
#
# Static dielectric constant tensor:
#      x y z
#    x 3.696780 0.000000 0.000000 
#    y 0.000000 3.820230 0.000000 
#    z 0.000000 0.000000 4.404810 
# 
# 
# High freq. dielectric constant tensor:
#      x y z
#    x 1.806450 0.000000 0.000000 
#    y 0.000000 1.822140 0.000000 
#    z 0.000000 0.000000 1.842920 
# 
# From -- ./inp_files/16200.got.cif
#   From: 2010.03.12/outbox.cif.g09.slc.cpg/sg64_9_cif.got.tgz:16200.got - 2010.04.10 20:19:32.
