data_PCOD8263259
_publ_section_title
;
Structure prediction by ZEFSAII (Michael W. Deem and Ramdas Pophale) SiO2 
 PCOD8263259
Probable space group: C M C A
;
_chemical_formula_sum "Si O2"
_cell_formula_units_Z 96
_cell_length_a 29.643852
_cell_length_b 8.538599
_cell_length_c 18.460602
_cell_angle_alpha 90.000000
_cell_angle_beta 90.000000
_cell_angle_gamma 90.000000
_cell_volume 4672.691551
_symmetry_space_group_name_H-M "C M C A"
_symmetry_group_IT_number 64
_symmetry_cell_setting 'orthorhombic'
loop_
_space_group_symop_operation_xyz
x,y,z
-x,1/2-y,1/2+z
x,-y,-z
-x,1/2+y,1/2-z
-x,-y,-z
x,1/2+y,1/2-z
-x,y,z
x,1/2-y,1/2+z
1/2+x,1/2+y,z
1/2-x,-y,1/2+z
1/2+x,1/2-y,-z
1/2-x,y,1/2-z
1/2-x,1/2-y,-z
1/2+x,y,1/2-z
1/2-x,1/2+y,z
1/2+x,-y,1/2+z
loop_
_atom_site_type_symbol
_atom_site_label
_atom_site_fract_x
_atom_site_fract_y
_atom_site_fract_z
Si Si1 0.356509 0.858274 0.181713
Si Si2 0.240486 0.562492 0.830599
Si Si3 0.120156 0.391040 0.937351
Si Si4 0.783185 0.783822 0.567477
Si Si5 0.091603 0.434452 0.716853
Si Si6 0.448480 0.227087 0.655366
O O1 0.303076 0.823815 0.179768
O O2 0.382620 0.694852 0.167732
O O3 0.368962 0.991628 0.126274
O O4 0.371082 0.938155 0.257405
O O5 0.250000 0.492131 0.750000
O O6 0.230650 0.442223 0.893912
O O7 0.281300 0.659812 0.866225
O O8 0.165549 0.297508 0.961792
O O9 0.082262 0.267038 0.914174
O O10 0.100395 0.500000 0.000000
O O11 0.750000 0.750000 0.500000
O O12 0.064416 0.341870 0.778563
O O13 0.056616 0.541271 0.671973
O O14 0.500000 0.259478 0.634638
#
# Coordination Sequence:
#
# PCOD8263259 Si02
#       6
#    16  16  16  16  16  16
#     4   9  20  35  57  82 123 155 194 246 303 360
#     4  11  24  34  58  91 122 156 211 268 306 350
#     4  10  22  41  58  83 116 162 209 248 295 362
#     4  11  23  41  59  83 124 175 213 249 305 383
#     4   9  19  35  59  88 121 154 191 238 310 377
#     4  10  20  36  63  91 118 151 194 249 308 369
#
# _framework density 20.544905
#
# number of rings (size 3 to 8) (size 9 to 14) (size 15 to 20)
#    0.000    2.000    0.000    3.500   11.667    0.333 
#    0.000    3.333    0.000    1.000    0.000    0.000 
#    0.000    0.000    0.000    0.000    0.000    0.000 
#
# Total GULP energy -594740.007840 kJ/mol
# GULP energy per Si atom -12390.416830 kJ/mol
# Density = 2.049814 g / cm^3
# Si number density = 20.544905 Si / 1000 Ang^3
#
#
#
# Elastic Constant Matrix: (Units=GPa)
#
#
# Indices 1 2 3 4 5 6 
#
# 1 126.6622 54.6190 49.7512 0.0000 0.0000 0.0000
# 2 54.6190 92.3003 12.3696 0.0000 0.0000 0.0000
# 3 49.7512 12.3696 65.6712 0.0000 0.0000 0.0000
# 4 0.0000 0.0000 0.0000 29.5091 0.0000 0.0000
# 5 0.0000 0.0000 0.0000 0.0000 43.6374 0.0000
# 6 0.0000 0.0000 0.0000 0.0000 0.0000 31.1463
#
#
#
# Elastic Compliance Matrix: (Units=1/GPa)
#
#
# Indices 1 2 3 4 5 6 
#
# 1 0.015102 -0.007595 -0.010011 0.000000 0.000000 0.000000
# 2 -0.007595 0.014935 0.002941 0.000000 0.000000 0.000000
# 3 -0.010011 0.002941 0.022257 0.000000 0.000000 0.000000
# 4 0.000000 0.000000 0.000000 0.033888 0.000000 0.000000
# 5 0.000000 0.000000 0.000000 0.000000 0.022916 0.000000
# 6 0.000000 0.000000 0.000000 0.000000 0.000000 0.032107
#
#
# Mechanical properties :
#
#
# Convention : Reuss Voigt Hill
#
# Bulk Modulus (GPa) = 43.54562 57.56813 50.55688
# Shear Modulus (GPa) = 28.06010 32.05148 30.05579
#
# Velocity S-wave (km/s) = 3.69967 3.95406 3.82898
# Velocity P-wave (km/s) = 6.28422 6.99482 6.64902
#
# Compressibility (1/GPa) = 0.02296442
#
# Stress axis : x y z
#
# Youngs Moduli (GPa) = 66.21544 66.95870 44.92928
#
# Poissons Ratio (x) = 0.50857 0.44977
# Poissons Ratio (y) = 0.50292 -0.13214
# Poissons Ratio (z) = 0.66285 -0.19692
#
# Static dielectric constant tensor:
#      x y z
#    x 3.871370 0.000000 0.000000 
#    y 0.000000 3.845250 0.000000 
#    z 0.000000 0.000000 3.298490 
# 
# 
# High freq. dielectric constant tensor:
#      x y z
#    x 1.792900 0.000000 0.000000 
#    y 0.000000 1.807810 0.000000 
#    z 0.000000 0.000000 1.785540 
# 
# From -- ./inp_files/41808.got.cif
#   From: 2010.03.12/outbox.cif.g09.slc.cpg/sg64_21_cif.got.tgz:41808.got - 2010.04.10 20:19:32.
