data_PCOD8263340
_publ_section_title
;
Structure prediction by ZEFSAII (Michael W. Deem and Ramdas Pophale) SiO2 
 PCOD8263340
Probable space group: C M C A
;
_chemical_formula_sum "Si O2"
_cell_formula_units_Z 96
_cell_length_a 18.458671
_cell_length_b 27.995358
_cell_length_c 9.964943
_cell_angle_alpha 90.000000
_cell_angle_beta 90.000000
_cell_angle_gamma 90.000000
_cell_volume 5149.455075
_symmetry_space_group_name_H-M "C M C A"
_symmetry_group_IT_number 64
_symmetry_cell_setting 'orthorhombic'
loop_
_space_group_symop_operation_xyz
x,y,z
-x,1/2-y,1/2+z
x,-y,-z
-x,1/2+y,1/2-z
-x,-y,-z
x,1/2+y,1/2-z
-x,y,z
x,1/2-y,1/2+z
1/2+x,1/2+y,z
1/2-x,-y,1/2+z
1/2+x,1/2-y,-z
1/2-x,y,1/2-z
1/2-x,1/2-y,-z
1/2+x,y,1/2-z
1/2-x,1/2+y,z
1/2+x,-y,1/2+z
loop_
_atom_site_type_symbol
_atom_site_label
_atom_site_fract_x
_atom_site_fract_y
_atom_site_fract_z
Si Si1 0.681168 0.051427 0.843992
Si Si2 0.663324 0.150851 0.251897
Si Si3 0.584522 0.206550 0.032257
Si Si4 0.915802 0.183331 0.994090
Si Si5 0.183176 0.446292 0.849393
Si Si6 0.084760 0.360104 0.210484
O O1 0.750000 0.058066 0.750000
O O2 0.620203 0.088226 0.800324
O O3 0.645587 0.998194 0.830389
O O4 0.707701 0.060119 0.996311
O O5 0.750000 0.154818 0.250000
O O6 0.629561 0.193259 0.164120
O O7 0.634121 0.154870 0.402324
O O8 0.634950 0.099666 0.192347
O O9 0.500000 0.199512 0.065005
O O10 0.601300 0.260810 0.994215
O O11 0.611153 0.174114 0.909046
O O12 0.892759 0.165151 0.848033
O O13 0.000000 0.172919 0.024238
O O14 0.250000 0.445156 0.750000
O O15 0.000000 0.368465 0.201904
#
# Coordination Sequence:
#
# PCOD8263340 Si02
#       6
#    16  16  16  16  16  16
#     4  10  20  37  62  82 109 151 187 226 277 337
#     4  11  22  36  57  87 117 142 182 239 281 323
#     4  10  20  39  61  80 109 154 195 225 272 337
#     4  10  22  39  59  80 111 154 191 225 274 339
#     4   9  20  37  56  87 111 145 189 223 277 339
#     4  10  21  36  56  85 113 142 189 237 278 323
#
# _framework density 18.642748999999998
#
# number of rings (size 3 to 8) (size 9 to 14) (size 15 to 20)
#    0.000    2.000    1.667    1.500    4.667    3.333 
#    0.000    5.000    0.000    2.000    0.000    0.000 
#    0.000    0.000    0.000    0.000    0.000    0.000 
#
# Total GULP energy -595108.363483 kJ/mol
# GULP energy per Si atom -12398.090906 kJ/mol
# Density = 1.860032 g / cm^3
# Si number density = 18.642749 Si / 1000 Ang^3
#
#
#
# Elastic Constant Matrix: (Units=GPa)
#
#
# Indices 1 2 3 4 5 6 
#
# 1 44.9857 34.4435 40.3813 0.0000 0.0000 0.0000
# 2 34.4435 118.1554 45.1057 0.0000 0.0000 0.0000
# 3 40.3813 45.1057 113.1817 0.0000 0.0000 0.0000
# 4 0.0000 0.0000 0.0000 32.7593 0.0000 0.0000
# 5 0.0000 0.0000 0.0000 0.0000 32.5953 0.0000
# 6 0.0000 0.0000 0.0000 0.0000 0.0000 35.9891
#
#
#
# Elastic Compliance Matrix: (Units=1/GPa)
#
#
# Indices 1 2 3 4 5 6 
#
# 1 0.036742 -0.006730 -0.010427 0.000000 0.000000 0.000000
# 2 -0.006730 0.011215 -0.002068 0.000000 0.000000 0.000000
# 3 -0.010427 -0.002068 0.013380 0.000000 0.000000 0.000000
# 4 0.000000 0.000000 0.000000 0.030526 0.000000 0.000000
# 5 0.000000 0.000000 0.000000 0.000000 0.030679 0.000000
# 6 0.000000 0.000000 0.000000 0.000000 0.000000 0.027786
#
#
# Mechanical properties :
#
#
# Convention : Reuss Voigt Hill
#
# Bulk Modulus (GPa) = 43.69461 57.35375 50.52418
# Shear Modulus (GPa) = 25.45746 30.69491 28.07619
#
# Velocity S-wave (km/s) = 3.69933 4.06209 3.88495
# Velocity P-wave (km/s) = 6.46030 7.26857 6.87632
#
# Compressibility (1/GPa) = 0.02288612
#
# Stress axis : x y z
#
# Youngs Moduli (GPa) = 27.21702 89.16720 74.74052
#
# Poissons Ratio (x) = 0.60011 0.77929
# Poissons Ratio (y) = 0.18318 0.15458
# Poissons Ratio (z) = 0.28378 0.18441
#
# Static dielectric constant tensor:
#      x y z
#    x 3.093580 0.000000 0.000000 
#    y 0.000000 3.971580 0.000000 
#    z 0.000000 0.000000 3.625500 
# 
# 
# High freq. dielectric constant tensor:
#      x y z
#    x 1.689140 0.000000 0.000000 
#    y 0.000000 1.742220 0.000000 
#    z 0.000000 0.000000 1.743720 
# 
# From -- ./inp_files/8408.got.cif
#   From: 2010.03.12/outbox.cif.g09.slc.cpg/sg64_5_cif.got.tgz:8408.got - 2010.04.10 20:19:32.
