data_PCOD8263527
_publ_section_title
;
Structure prediction by ZEFSAII (Michael W. Deem and Ramdas Pophale) SiO2 
 PCOD8263527
Probable space group: C M C A
;
_chemical_formula_sum "Si O2"
_cell_formula_units_Z 72
_cell_length_a 9.472650
_cell_length_b 13.922870
_cell_length_c 26.441669
_cell_angle_alpha 90.000000
_cell_angle_beta 90.000000
_cell_angle_gamma 90.000000
_cell_volume 3487.298504
_symmetry_space_group_name_H-M "C M C A"
_symmetry_group_IT_number 64
_symmetry_cell_setting 'orthorhombic'
loop_
_space_group_symop_operation_xyz
x,y,z
-x,1/2-y,1/2+z
x,-y,-z
-x,1/2+y,1/2-z
-x,-y,-z
x,1/2+y,1/2-z
-x,y,z
x,1/2-y,1/2+z
1/2+x,1/2+y,z
1/2-x,-y,1/2+z
1/2+x,1/2-y,-z
1/2-x,y,1/2-z
1/2-x,1/2-y,-z
1/2+x,y,1/2-z
1/2-x,1/2+y,z
1/2+x,-y,1/2+z
loop_
_atom_site_type_symbol
_atom_site_label
_atom_site_fract_x
_atom_site_fract_y
_atom_site_fract_z
Si Si1 0.000000 0.695870 0.656816
Si Si2 0.000000 0.664089 0.771974
Si Si3 0.500000 0.979141 0.679126
Si Si4 0.000000 0.780849 0.867258
Si Si5 0.162010 0.891469 0.992448
Si Si6 0.250000 0.533671 0.750000
Si Si7 0.775814 0.253523 0.419024
O O1 0.000000 0.713064 0.716646
O O2 0.129354 0.751171 0.630821
O O3 0.000000 0.580220 0.648821
O O4 0.141310 0.600820 0.781442
O O5 0.000000 0.753146 0.808803
O O6 0.646010 0.972204 0.712718
O O7 0.500000 0.897334 0.635871
O O8 0.877537 0.729878 0.897705
O O9 0.271168 0.844279 0.952487
O O10 0.000000 0.883206 0.972550
O O11 0.172181 0.840652 0.046575
O O12 0.209937 0.000000 0.000000
#
# Coordination Sequence:
#
# PCOD8263527 Si02
#       7
#     8   8   8   8  16   8  16
#     4  10  22  41  65  85 134 172 206 257 315 378
#     4  10  20  40  60  88 128 172 202 262 311 358
#     4  10  22  36  64  89 122 168 218 253 306 364
#     4  12  24  37  63  93 128 164 220 255 313 374
#     4  10  22  43  70  91 123 164 209 265 326 383
#     4   8  18  40  60  82 118 170 212 254 304 356
#     4  11  23  39  65  97 123 163 213 262 315 386
#
# _framework density 20.646353999999999
#
# number of rings (size 3 to 8) (size 9 to 14) (size 15 to 20)
#    0.000    2.000    2.222    2.667    3.111    2.667 
#    0.000    3.333    0.000    0.000    0.000    0.000 
#    0.000    0.000    0.000    0.000    0.000    0.000 
#
# Total GULP energy -446018.081405 kJ/mol
# GULP energy per Si atom -12389.391150 kJ/mol
# Density = 2.059936 g / cm^3
# Si number density = 20.646354 Si / 1000 Ang^3
#
#
#
# Elastic Constant Matrix: (Units=GPa)
#
#
# Indices 1 2 3 4 5 6 
#
# 1 121.3666 13.6786 11.7295 0.0000 0.0000 0.0000
# 2 13.6786 84.3717 9.6782 0.0000 0.0000 0.0000
# 3 11.7295 9.6782 65.5711 0.0000 0.0000 0.0000
# 4 0.0000 0.0000 0.0000 17.4128 0.0000 0.0000
# 5 0.0000 0.0000 0.0000 0.0000 34.7000 0.0000
# 6 0.0000 0.0000 0.0000 0.0000 0.0000 11.9754
#
#
#
# Elastic Compliance Matrix: (Units=1/GPa)
#
#
# Indices 1 2 3 4 5 6 
#
# 1 0.008507 -0.001225 -0.001341 0.000000 0.000000 0.000000
# 2 -0.001225 0.012233 -0.001586 0.000000 0.000000 0.000000
# 3 -0.001341 -0.001586 0.015725 0.000000 0.000000 0.000000
# 4 0.000000 0.000000 0.000000 0.057429 0.000000 0.000000
# 5 0.000000 0.000000 0.000000 0.000000 0.028818 0.000000
# 6 0.000000 0.000000 0.000000 0.000000 0.000000 0.083504
#
#
# Mechanical properties :
#
#
# Convention : Reuss Voigt Hill
#
# Bulk Modulus (GPa) = 35.51210 37.94244 36.72727
# Shear Modulus (GPa) = 22.33057 28.56586 25.44821
#
# Velocity S-wave (km/s) = 3.29230 3.72368 3.51462
# Velocity P-wave (km/s) = 5.62937 6.07495 5.85640
#
# Compressibility (1/GPa) = 0.02815942
#
# Stress axis : x y z
#
# Youngs Moduli (GPa) = 117.54752 81.74641 63.59452
#
# Poissons Ratio (x) = 0.10017 0.08527
# Poissons Ratio (y) = 0.14404 0.10088
# Poissons Ratio (z) = 0.15762 0.12968
#
# Static dielectric constant tensor:
#      x y z
#    x 3.807920 0.000000 0.000000 
#    y 0.000000 3.484650 0.000000 
#    z 0.000000 0.000000 3.791920 
# 
# 
# High freq. dielectric constant tensor:
#      x y z
#    x 1.815710 0.000000 0.000000 
#    y 0.000000 1.785310 0.000000 
#    z 0.000000 0.000000 1.815470 
# 
# From -- ./inp_files/47667.got.cif
#   From: 2010.03.12/outbox.cif.g09.slc.cpg/sg64_24_cif.got.tgz:47667.got - 2010.04.10 20:19:32.
