data_PCOD8263633
_publ_section_title
;
Structure prediction by ZEFSAII (Michael W. Deem and Ramdas Pophale) SiO2 
 PCOD8263633
Probable space group: C M C A
;
_chemical_formula_sum "Si O2"
_cell_formula_units_Z 80
_cell_length_a 8.633326
_cell_length_b 15.494770
_cell_length_c 29.386264
_cell_angle_alpha 90.000000
_cell_angle_beta 90.000000
_cell_angle_gamma 90.000000
_cell_volume 3931.041697
_symmetry_space_group_name_H-M "C M C A"
_symmetry_group_IT_number 64
_symmetry_cell_setting 'orthorhombic'
loop_
_space_group_symop_operation_xyz
x,y,z
-x,1/2-y,1/2+z
x,-y,-z
-x,1/2+y,1/2-z
-x,-y,-z
x,1/2+y,1/2-z
-x,y,z
x,1/2-y,1/2+z
1/2+x,1/2+y,z
1/2-x,-y,1/2+z
1/2+x,1/2-y,-z
1/2-x,y,1/2-z
1/2-x,1/2-y,-z
1/2+x,y,1/2-z
1/2-x,1/2+y,z
1/2+x,-y,1/2+z
loop_
_atom_site_type_symbol
_atom_site_label
_atom_site_fract_x
_atom_site_fract_y
_atom_site_fract_z
Si Si1 0.677074 0.977930 0.145513
Si Si2 0.817396 0.132091 0.200621
Si Si3 0.827178 0.220526 0.954132
Si Si4 0.685083 0.287884 0.144933
Si Si5 0.327844 0.551335 0.545698
O O1 0.500000 0.983288 0.162968
O O2 0.780630 0.047710 0.171078
O O3 0.738224 0.880914 0.154723
O O4 0.685294 0.004242 0.091936
O O5 0.750000 0.114216 0.250000
O O6 0.738841 0.219077 0.181934
O O7 0.000000 0.146440 0.202354
O O8 0.760252 0.249979 0.904774
O O9 0.812665 0.117851 0.953050
O O10 0.000000 0.253494 0.957796
O O11 0.750000 0.250000 0.000000
O O12 0.500000 0.299073 0.146002
O O13 0.302041 0.500000 0.500000
O O14 0.500000 0.595051 0.544752
#
# Coordination Sequence:
#
# PCOD8263633 Si02
#       5
#    16  16  16  16  16
#     4  10  21  40  64  92 128 165 206 256 311 370
#     4  12  26  44  67  95 124 160 209 260 316 376
#     4  10  21  35  55  84 120 160 203 248 298 359
#     4  10  22  42  64  90 126 166 208 258 313 369
#     4   9  19  35  56  84 119 160 201 244 299 358
#
# _framework density 20.350839000000001
#
# number of rings (size 3 to 8) (size 9 to 14) (size 15 to 20)
#    0.000    1.800    0.000    3.600    2.800    4.400 
#    0.000    4.000    0.000    0.000    0.000    0.000 
#    0.000    0.000    0.000    0.000    0.000    0.000 
#
# Total GULP energy -495620.993400 kJ/mol
# GULP energy per Si atom -12390.524835 kJ/mol
# Density = 2.030452 g / cm^3
# Si number density = 20.350839 Si / 1000 Ang^3
#
#
#
# Elastic Constant Matrix: (Units=GPa)
#
#
# Indices 1 2 3 4 5 6 
#
# 1 71.5478 14.1381 25.4512 0.0000 0.0000 0.0000
# 2 14.1381 77.9830 43.7069 0.0000 0.0000 0.0000
# 3 25.4512 43.7069 123.8709 0.0000 0.0000 0.0000
# 4 0.0000 0.0000 0.0000 26.6154 0.0000 0.0000
# 5 0.0000 0.0000 0.0000 0.0000 29.3514 0.0000
# 6 0.0000 0.0000 0.0000 0.0000 0.0000 36.7937
#
#
#
# Elastic Compliance Matrix: (Units=1/GPa)
#
#
# Indices 1 2 3 4 5 6 
#
# 1 0.015176 -0.001251 -0.002677 0.000000 0.000000 0.000000
# 2 -0.001251 0.016087 -0.005419 0.000000 0.000000 0.000000
# 3 -0.002677 -0.005419 0.010535 0.000000 0.000000 0.000000
# 4 0.000000 0.000000 0.000000 0.037572 0.000000 0.000000
# 5 0.000000 0.000000 0.000000 0.000000 0.034070 0.000000
# 6 0.000000 0.000000 0.000000 0.000000 0.000000 0.027179
#
#
# Mechanical properties :
#
#
# Convention : Reuss Voigt Hill
#
# Bulk Modulus (GPa) = 43.28199 48.88822 46.08510
# Shear Modulus (GPa) = 29.93744 31.22580 30.58162
#
# Velocity S-wave (km/s) = 3.83961 3.92136 3.88070
# Velocity P-wave (km/s) = 6.40085 6.67665 6.54020
#
# Compressibility (1/GPa) = 0.02310430
#
# Stress axis : x y z
#
# Youngs Moduli (GPa) = 65.89321 62.16020 94.92134
#
# Poissons Ratio (x) = 0.07777 0.25407
# Poissons Ratio (y) = 0.08244 0.51440
# Poissons Ratio (z) = 0.17638 0.33686
#
# Static dielectric constant tensor:
#      x y z
#    x 3.824160 0.000000 0.000000 
#    y 0.000000 3.299110 0.000000 
#    z 0.000000 0.000000 4.567940 
# 
# 
# High freq. dielectric constant tensor:
#      x y z
#    x 1.801780 0.000000 0.000000 
#    y 0.000000 1.781790 0.000000 
#    z 0.000000 0.000000 1.812150 
# 
# From -- ./inp_files/51764.got.cif
#   From: 2010.03.12/outbox.cif.g09.slc.cpg/sg64_26_cif.got.tgz:51764.got - 2010.04.10 20:19:32.
