data_PCOD8263754
_publ_section_title
;
Structure prediction by ZEFSAII (Michael W. Deem and Ramdas Pophale) SiO2 
 PCOD8263754
Probable space group: C M C A
;
_chemical_formula_sum "Si O2"
_cell_formula_units_Z 72
_cell_length_a 13.210275
_cell_length_b 13.030281
_cell_length_c 22.717354
_cell_angle_alpha 90.000000
_cell_angle_beta 90.000000
_cell_angle_gamma 90.000000
_cell_volume 3910.419821
_symmetry_space_group_name_H-M "C M C A"
_symmetry_group_IT_number 64
_symmetry_cell_setting 'orthorhombic'
loop_
_space_group_symop_operation_xyz
x,y,z
-x,1/2-y,1/2+z
x,-y,-z
-x,1/2+y,1/2-z
-x,-y,-z
x,1/2+y,1/2-z
-x,y,z
x,1/2-y,1/2+z
1/2+x,1/2+y,z
1/2-x,-y,1/2+z
1/2+x,1/2-y,-z
1/2-x,y,1/2-z
1/2-x,1/2-y,-z
1/2+x,y,1/2-z
1/2-x,1/2+y,z
1/2+x,-y,1/2+z
loop_
_atom_site_type_symbol
_atom_site_label
_atom_site_fract_x
_atom_site_fract_y
_atom_site_fract_z
Si Si1 0.250000 0.825349 0.250000
Si Si2 0.382452 0.954098 0.164589
Si Si3 0.113636 0.724867 0.536541
Si Si4 0.384877 0.192867 0.164482
Si Si5 0.695425 0.400777 0.462163
O O1 0.333857 0.895201 0.219158
O O2 0.306391 0.755259 0.296903
O O3 0.500000 0.924927 0.159679
O O4 0.326214 0.921021 0.105557
O O5 0.366886 0.073714 0.176480
O O6 0.138387 0.785047 0.596447
O O7 0.186358 0.626873 0.529534
O O8 0.128157 0.804849 0.483335
O O9 0.000000 0.681750 0.535187
O O10 0.500000 0.224248 0.180443
O O11 0.666869 0.500000 0.500000
#
# Coordination Sequence:
#
# PCOD8263754 Si02
#       5
#     8  16  16  16  16
#     4  12  22  40  58  82 116 154 188 232 284 336
#     4  11  23  38  59  88 114 147 194 235 277 337
#     4  10  21  37  58  86 117 148 185 232 287 338
#     4  10  21  38  59  82 113 150 188 234 281 334
#     4  11  21  37  62  86 114 149 189 235 286 337
#
# _framework density 18.412345999999999
#
# number of rings (size 3 to 8) (size 9 to 14) (size 15 to 20)
#    0.000    1.333    4.444    2.000    0.000    1.333 
#    0.000    0.000    0.000    1.333    0.000    0.000 
#    0.000    0.000    0.000    0.000    0.000    0.000 
#
# Total GULP energy -446565.089501 kJ/mol
# GULP energy per Si atom -12404.585819 kJ/mol
# Density = 1.837044 g / cm^3
# Si number density = 18.412346 Si / 1000 Ang^3
#
#
#
# Elastic Constant Matrix: (Units=GPa)
#
#
# Indices 1 2 3 4 5 6 
#
# 1 74.0696 20.3697 13.8330 0.0000 0.0000 0.0000
# 2 20.3697 55.4974 9.4787 0.0000 0.0000 0.0000
# 3 13.8330 9.4787 52.6513 0.0000 0.0000 0.0000
# 4 0.0000 0.0000 0.0000 25.8659 0.0000 0.0000
# 5 0.0000 0.0000 0.0000 0.0000 27.1325 0.0000
# 6 0.0000 0.0000 0.0000 0.0000 0.0000 13.3621
#
#
#
# Elastic Compliance Matrix: (Units=1/GPa)
#
#
# Indices 1 2 3 4 5 6 
#
# 1 0.015506 -0.005154 -0.003146 0.000000 0.000000 0.000000
# 2 -0.005154 0.020304 -0.002301 0.000000 0.000000 0.000000
# 3 -0.003146 -0.002301 0.020234 0.000000 0.000000 0.000000
# 4 0.000000 0.000000 0.000000 0.038661 0.000000 0.000000
# 5 0.000000 0.000000 0.000000 0.000000 0.036856 0.000000
# 6 0.000000 0.000000 0.000000 0.000000 0.000000 0.074839
#
#
# Mechanical properties :
#
#
# Convention : Reuss Voigt Hill
#
# Bulk Modulus (GPa) = 28.70179 29.95344 29.32762
# Shear Modulus (GPa) = 20.90177 22.50789 21.70483
#
# Velocity S-wave (km/s) = 3.37293 3.50013 3.43712
# Velocity P-wave (km/s) = 5.54897 5.71296 5.63157
#
# Compressibility (1/GPa) = 0.03484103
#
# Stress axis : x y z
#
# Youngs Moduli (GPa) = 64.49240 49.25251 49.42260
#
# Poissons Ratio (x) = 0.25384 0.15548
# Poissons Ratio (y) = 0.33239 0.11373
# Poissons Ratio (z) = 0.20289 0.11334
#
# Static dielectric constant tensor:
#      x y z
#    x 3.477880 0.000000 0.000000 
#    y 0.000000 3.333280 0.000000 
#    z 0.000000 0.000000 3.406680 
# 
# 
# High freq. dielectric constant tensor:
#      x y z
#    x 1.722970 0.000000 0.000000 
#    y 0.000000 1.713340 0.000000 
#    z 0.000000 0.000000 1.719580 
# 
# From -- ./inp_files/43819.got.cif
#   From: 2010.03.12/outbox.cif.g09.slc.cpg/sg64_22_cif.got.tgz:43819.got - 2010.04.10 20:19:32.
