data_PCOD8263769
_publ_section_title
;
Structure prediction by ZEFSAII (Michael W. Deem and Ramdas Pophale) SiO2 
 PCOD8263769
Probable space group: C M C A
;
_chemical_formula_sum "Si O2"
_cell_formula_units_Z 88
_cell_length_a 16.862638
_cell_length_b 12.481959
_cell_length_c 19.849026
_cell_angle_alpha 90.000000
_cell_angle_beta 90.000000
_cell_angle_gamma 90.000000
_cell_volume 4177.798303
_symmetry_space_group_name_H-M "C M C A"
_symmetry_group_IT_number 64
_symmetry_cell_setting 'orthorhombic'
loop_
_space_group_symop_operation_xyz
x,y,z
-x,1/2-y,1/2+z
x,-y,-z
-x,1/2+y,1/2-z
-x,-y,-z
x,1/2+y,1/2-z
-x,y,z
x,1/2-y,1/2+z
1/2+x,1/2+y,z
1/2-x,-y,1/2+z
1/2+x,1/2-y,-z
1/2-x,y,1/2-z
1/2-x,1/2-y,-z
1/2+x,y,1/2-z
1/2-x,1/2+y,z
1/2+x,-y,1/2+z
loop_
_atom_site_type_symbol
_atom_site_label
_atom_site_fract_x
_atom_site_fract_y
_atom_site_fract_z
Si Si1 0.299589 0.000000 0.500000
Si Si2 0.341683 0.604007 0.566685
Si Si3 0.091502 0.623235 0.073482
Si Si4 0.908440 0.255720 0.180271
Si Si5 0.905979 0.306934 0.329206
Si Si6 0.409304 0.033898 0.383074
O O1 0.247242 0.091890 0.536951
O O2 0.355540 0.062211 0.447386
O O3 0.365673 0.486710 0.593800
O O4 0.397972 0.645549 0.506154
O O5 0.349690 0.686136 0.627889
O O6 0.128303 0.719985 0.117777
O O7 0.000000 0.609847 0.090743
O O8 0.875430 0.281476 0.254282
O O9 0.901978 0.128338 0.171135
O O10 0.000000 0.293993 0.170119
O O11 0.876783 0.425027 0.349414
O O12 0.000000 0.301717 0.330042
O O13 0.500000 0.020492 0.407384
#
# Coordination Sequence:
#
# PCOD8263769 Si02
#       6
#     8  16  16  16  16  16
#     4  10  23  42  61  86 126 160 204 246 305 364
#     4  10  21  37  59  87 121 160 201 250 299 355
#     4   9  17  33  58  88 117 155 202 248 295 349
#     4  10  21  37  63  93 120 158 201 252 306 362
#     4   9  20  36  60  90 122 156 199 256 307 356
#     4  10  22  40  63  90 118 155 204 255 307 362
#
# _framework density 21.063727
#
# number of rings (size 3 to 8) (size 9 to 14) (size 15 to 20)
#    0.000    2.545    0.000    2.455    5.091    0.727 
#    3.273    0.909    0.000    0.000    0.000    0.000 
#    0.000    0.000    0.000    0.000    0.000    0.000 
#
# Total GULP energy -545575.920011 kJ/mol
# GULP energy per Si atom -12399.452728 kJ/mol
# Density = 2.101578 g / cm^3
# Si number density = 21.063727 Si / 1000 Ang^3
#
#
#
# Elastic Constant Matrix: (Units=GPa)
#
#
# Indices 1 2 3 4 5 6 
#
# 1 67.4344 33.5636 38.8867 0.0000 0.0000 0.0000
# 2 33.5636 145.4466 83.6925 0.0000 0.0000 0.0000
# 3 38.8867 83.6925 132.7255 0.0000 0.0000 0.0000
# 4 0.0000 0.0000 0.0000 36.4657 0.0000 0.0000
# 5 0.0000 0.0000 0.0000 0.0000 24.0013 0.0000
# 6 0.0000 0.0000 0.0000 0.0000 0.0000 17.3861
#
#
#
# Elastic Compliance Matrix: (Units=1/GPa)
#
#
# Indices 1 2 3 4 5 6 
#
# 1 0.018129 -0.001769 -0.004196 0.000000 0.000000 0.000000
# 2 -0.001769 0.010963 -0.006395 0.000000 0.000000 0.000000
# 3 -0.004196 -0.006395 0.012796 0.000000 0.000000 0.000000
# 4 0.000000 0.000000 0.000000 0.027423 0.000000 0.000000
# 5 0.000000 0.000000 0.000000 0.000000 0.041664 0.000000
# 6 0.000000 0.000000 0.000000 0.000000 0.000000 0.057517
#
#
# Mechanical properties :
#
#
# Convention : Reuss Voigt Hill
#
# Bulk Modulus (GPa) = 58.24501 73.09910 65.67205
# Shear Modulus (GPa) = 25.13363 28.20153 26.66758
#
# Velocity S-wave (km/s) = 3.45805 3.66302 3.56201
# Velocity P-wave (km/s) = 6.60727 7.25737 6.93993
#
# Compressibility (1/GPa) = 0.01716885
#
# Stress axis : x y z
#
# Youngs Moduli (GPa) = 55.15880 91.21358 78.14868
#
# Poissons Ratio (x) = 0.16136 0.32793
# Poissons Ratio (y) = 0.09758 0.49974
# Poissons Ratio (z) = 0.23146 0.58329
#
# Static dielectric constant tensor:
#      x y z
#    x 3.622830 0.000000 0.000000 
#    y 0.000000 3.775790 0.000000 
#    z 0.000000 0.000000 3.849990 
# 
# 
# High freq. dielectric constant tensor:
#      x y z
#    x 1.803250 0.000000 0.000000 
#    y 0.000000 1.824880 0.000000 
#    z 0.000000 0.000000 1.820920 
# 
# From -- ./inp_files/40037.got.cif
#   From: 2010.03.12/outbox.cif.g09.slc.cpg/sg64_21_cif.got.tgz:40037.got - 2010.04.10 20:19:32.
