data_PCOD8263762
_publ_section_title
;
Structure prediction by ZEFSAII (Michael W. Deem and Ramdas Pophale) SiO2 
 PCOD8263762
Probable space group: C M C A
;
_chemical_formula_sum "Si O2"
_cell_formula_units_Z 80
_cell_length_a 18.021538
_cell_length_b 14.855090
_cell_length_c 17.100882
_cell_angle_alpha 90.000000
_cell_angle_beta 90.000000
_cell_angle_gamma 90.000000
_cell_volume 4578.103950
_symmetry_space_group_name_H-M "C M C A"
_symmetry_group_IT_number 64
_symmetry_cell_setting 'orthorhombic'
loop_
_space_group_symop_operation_xyz
x,y,z
-x,1/2-y,1/2+z
x,-y,-z
-x,1/2+y,1/2-z
-x,-y,-z
x,1/2+y,1/2-z
-x,y,z
x,1/2-y,1/2+z
1/2+x,1/2+y,z
1/2-x,-y,1/2+z
1/2+x,1/2-y,-z
1/2-x,y,1/2-z
1/2-x,1/2-y,-z
1/2+x,y,1/2-z
1/2-x,1/2+y,z
1/2+x,-y,1/2+z
loop_
_atom_site_type_symbol
_atom_site_label
_atom_site_fract_x
_atom_site_fract_y
_atom_site_fract_z
Si Si1 0.684732 0.134369 0.804904
Si Si2 0.914878 0.566270 0.572324
Si Si3 0.671972 0.316005 0.721389
Si Si4 0.086201 0.490183 0.741971
Si Si5 0.711418 0.708973 0.925370
O O1 0.750000 0.098063 0.750000
O O2 0.650779 0.227107 0.770852
O O3 0.721580 0.149835 0.889002
O O4 0.621958 0.058300 0.805178
O O5 0.905878 0.500000 0.500000
O O6 0.892042 0.516186 0.652969
O O7 0.860150 0.648777 0.554916
O O8 0.000000 0.601323 0.577912
O O9 0.750000 0.357151 0.750000
O O10 0.609033 0.389051 0.736189
O O11 0.681727 0.288573 0.630797
O O12 0.000000 0.497256 0.755179
O O13 0.750000 0.750000 0.000000
#
# Coordination Sequence:
#
# PCOD8263762 Si02
#       5
#    16  16  16  16  16
#     4   9  18  37  55  81 108 139 189 239 262 325
#     4  10  22  36  53  83 116 146 187 235 281 336
#     4   9  20  34  56  82 107 140 187 235 266 326
#     4  11  21  35  58  82 112 153 184 226 290 333
#     4  10  21  37  59  82 112 149 186 231 293 333
#
# _framework density 17.474482999999999
#
# number of rings (size 3 to 8) (size 9 to 14) (size 15 to 20)
#    0.000    2.600    4.000    0.600    5.600    1.600 
#    0.000    1.000    0.000    1.200    0.000    0.000 
#    0.000    0.000    0.000    0.000    0.000    0.000 
#
# Total GULP energy -495795.663837 kJ/mol
# GULP energy per Si atom -12394.891596 kJ/mol
# Density = 1.743471 g / cm^3
# Si number density = 17.474483 Si / 1000 Ang^3
#
#
#
# Elastic Constant Matrix: (Units=GPa)
#
#
# Indices 1 2 3 4 5 6 
#
# 1 105.4965 72.5382 51.4887 0.0000 0.0000 0.0000
# 2 72.5382 96.5758 35.9964 0.0000 0.0000 0.0000
# 3 51.4887 35.9964 97.9600 0.0000 0.0000 0.0000
# 4 0.0000 0.0000 0.0000 17.0274 0.0000 0.0000
# 5 0.0000 0.0000 0.0000 0.0000 20.4123 0.0000
# 6 0.0000 0.0000 0.0000 0.0000 0.0000 26.9503
#
#
#
# Elastic Compliance Matrix: (Units=1/GPa)
#
#
# Indices 1 2 3 4 5 6 
#
# 1 0.022758 -0.014640 -0.006582 0.000000 0.000000 0.000000
# 2 -0.014640 0.021416 -0.000174 0.000000 0.000000 0.000000
# 3 -0.006582 -0.000174 0.013732 0.000000 0.000000 0.000000
# 4 0.000000 0.000000 0.000000 0.058729 0.000000 0.000000
# 5 0.000000 0.000000 0.000000 0.000000 0.048990 0.000000
# 6 0.000000 0.000000 0.000000 0.000000 0.000000 0.037105
#
#
# Mechanical properties :
#
#
# Convention : Reuss Voigt Hill
#
# Bulk Modulus (GPa) = 66.17141 68.89767 67.53454
# Shear Modulus (GPa) = 19.95524 22.21191 21.08357
#
# Velocity S-wave (km/s) = 3.38296 3.56912 3.47729
# Velocity P-wave (km/s) = 7.29444 7.51652 7.40631
#
# Compressibility (1/GPa) = 0.01511227
#
# Stress axis : x y z
#
# Youngs Moduli (GPa) = 43.94099 46.69452 72.82285
#
# Poissons Ratio (x) = 0.68361 0.47932
# Poissons Ratio (y) = 0.64330 0.01271
# Poissons Ratio (z) = 0.28922 0.00815
#
# Static dielectric constant tensor:
#      x y z
#    x 6.548880 0.000000 0.000000 
#    y 0.000000 3.152840 0.000000 
#    z 0.000000 0.000000 3.097010 
# 
# 
# High freq. dielectric constant tensor:
#      x y z
#    x 1.673450 0.000000 0.000000 
#    y 0.000000 1.669390 0.000000 
#    z 0.000000 0.000000 1.664940 
# 
# From -- ./inp_files/33028.got.cif
#   From: 2010.03.12/outbox.cif.g09.slc.cpg/sg64_17_cif.got.tgz:33028.got - 2010.04.10 20:19:32.
