data_PCOD8263050
_publ_section_title
;
Structure prediction by ZEFSAII (Michael W. Deem and Ramdas Pophale) SiO2 
 PCOD8263050
Probable space group: C M C A
;
_chemical_formula_sum "Si O2"
_cell_formula_units_Z 96
_cell_length_a 16.571288
_cell_length_b 14.513416
_cell_length_c 20.009625
_cell_angle_alpha 90.000000
_cell_angle_beta 90.000000
_cell_angle_gamma 90.000000
_cell_volume 4812.434798
_symmetry_space_group_name_H-M "C M C A"
_symmetry_group_IT_number 64
_symmetry_cell_setting 'orthorhombic'
loop_
_space_group_symop_operation_xyz
x,y,z
-x,1/2-y,1/2+z
x,-y,-z
-x,1/2+y,1/2-z
-x,-y,-z
x,1/2+y,1/2-z
-x,y,z
x,1/2-y,1/2+z
1/2+x,1/2+y,z
1/2-x,-y,1/2+z
1/2+x,1/2-y,-z
1/2-x,y,1/2-z
1/2-x,1/2-y,-z
1/2+x,y,1/2-z
1/2-x,1/2+y,z
1/2+x,-y,1/2+z
loop_
_atom_site_type_symbol
_atom_site_label
_atom_site_fract_x
_atom_site_fract_y
_atom_site_fract_z
Si Si1 0.166562 0.215225 0.028225
Si Si2 0.593956 0.791993 0.907615
Si Si3 0.907683 0.305193 0.154741
Si Si4 0.273407 0.439119 0.563661
Si Si5 0.685138 0.019296 0.802314
Si Si6 0.342641 0.315014 0.732584
O O1 0.138559 0.283648 0.086393
O O2 0.187667 0.115122 0.058626
O O3 0.250000 0.250000 0.000000
O O4 0.104328 0.212800 0.965092
O O5 0.500000 0.817222 0.899397
O O6 0.644964 0.879096 0.932975
O O7 0.631094 0.762313 0.835716
O O8 0.880751 0.401927 0.186609
O O9 0.896926 0.222307 0.207344
O O10 0.000000 0.313741 0.135105
O O11 0.286387 0.500000 0.500000
O O12 0.265907 0.500263 0.629746
O O13 0.750000 0.057892 0.750000
O O14 0.643400 0.924925 0.775741
O O15 0.250000 0.292824 0.750000
#
# Coordination Sequence:
#
# PCOD8263050 Si02
#       6
#    16  16  16  16  16  16
#     4  10  20  37  57  80 112 151 192 233 284 346
#     4  10  20  35  58  85 114 147 186 241 299 342
#     4  12  24  37  59  89 119 152 192 245 299 342
#     4  10  21  36  57  84 113 151 196 240 286 344
#     4  10  21  37  59  84 113 154 200 241 286 345
#     4  10  21  40  60  83 118 157 197 238 284 348
#
# _framework density 19.948322999999998
#
# number of rings (size 3 to 8) (size 9 to 14) (size 15 to 20)
#    0.000    1.667    0.000    7.500    0.000    5.000 
#    0.000    0.000    0.000    2.000    0.000    0.000 
#    0.000    0.000    0.000    0.000    0.000    0.000 
#
# Total GULP energy -595007.004147 kJ/mol
# GULP energy per Si atom -12395.979253 kJ/mol
# Density = 1.990292 g / cm^3
# Si number density = 19.948323 Si / 1000 Ang^3
#
#
#
# Elastic Constant Matrix: (Units=GPa)
#
#
# Indices 1 2 3 4 5 6 
#
# 1 116.8391 46.7857 61.6557 0.0000 0.0000 0.0000
# 2 46.7857 67.4129 53.5030 0.0000 0.0000 0.0000
# 3 61.6557 53.5030 156.8224 0.0000 0.0000 0.0000
# 4 0.0000 0.0000 0.0000 31.0762 0.0000 0.0000
# 5 0.0000 0.0000 0.0000 0.0000 29.9604 0.0000
# 6 0.0000 0.0000 0.0000 0.0000 0.0000 19.6576
#
#
#
# Elastic Compliance Matrix: (Units=1/GPa)
#
#
# Indices 1 2 3 4 5 6 
#
# 1 0.012641 -0.006621 -0.002711 0.000000 0.000000 0.000000
# 2 -0.006621 0.023810 -0.005520 0.000000 0.000000 0.000000
# 3 -0.002711 -0.005520 0.009326 0.000000 0.000000 0.000000
# 4 0.000000 0.000000 0.000000 0.032179 0.000000 0.000000
# 5 0.000000 0.000000 0.000000 0.000000 0.033377 0.000000
# 6 0.000000 0.000000 0.000000 0.000000 0.000000 0.050871
#
#
# Mechanical properties :
#
#
# Convention : Reuss Voigt Hill
#
# Bulk Modulus (GPa) = 62.21923 73.88479 68.05201
# Shear Modulus (GPa) = 25.34646 28.08081 26.71364
#
# Velocity S-wave (km/s) = 3.56842 3.75597 3.66340
# Velocity P-wave (km/s) = 6.94522 7.47852 7.21680
#
# Compressibility (1/GPa) = 0.01607220
#
# Stress axis : x y z
#
# Youngs Moduli (GPa) = 79.10996 41.99832 107.23076
#
# Poissons Ratio (x) = 0.27809 0.29067
# Poissons Ratio (y) = 0.52382 0.59193
# Poissons Ratio (z) = 0.21444 0.23184
#
# Static dielectric constant tensor:
#      x y z
#    x 3.686420 0.000000 0.000000 
#    y 0.000000 3.979370 0.000000 
#    z 0.000000 0.000000 4.305090 
# 
# 
# High freq. dielectric constant tensor:
#      x y z
#    x 1.759380 0.000000 0.000000 
#    y 0.000000 1.758480 0.000000 
#    z 0.000000 0.000000 1.808180 
# 
# From -- ./inp_files/39231.got.cif
#   From: 2010.03.12/outbox.cif.g09.slc.cpg/sg64_20_cif.got.tgz:39231.got - 2010.04.10 20:19:32.
