data_PCOD8263404
_publ_section_title
;
Structure prediction by ZEFSAII (Michael W. Deem and Ramdas Pophale) SiO2 
 PCOD8263404
Probable space group: C M C A
;
_chemical_formula_sum "Si O2"
_cell_formula_units_Z 80
_cell_length_a 17.111126
_cell_length_b 25.065474
_cell_length_c 9.028140
_cell_angle_alpha 90.000000
_cell_angle_beta 90.000000
_cell_angle_gamma 90.000000
_cell_volume 3872.155558
_symmetry_space_group_name_H-M "C M C A"
_symmetry_group_IT_number 64
_symmetry_cell_setting 'orthorhombic'
loop_
_space_group_symop_operation_xyz
x,y,z
-x,1/2-y,1/2+z
x,-y,-z
-x,1/2+y,1/2-z
-x,-y,-z
x,1/2+y,1/2-z
-x,y,z
x,1/2-y,1/2+z
1/2+x,1/2+y,z
1/2-x,-y,1/2+z
1/2+x,1/2-y,-z
1/2-x,y,1/2-z
1/2-x,1/2-y,-z
1/2+x,y,1/2-z
1/2-x,1/2+y,z
1/2+x,-y,1/2+z
loop_
_atom_site_type_symbol
_atom_site_label
_atom_site_fract_x
_atom_site_fract_y
_atom_site_fract_z
Si Si1 0.589417 0.384081 0.115386
Si Si2 0.909893 0.095016 0.221113
Si Si3 0.827347 0.489036 0.331231
Si Si4 0.660823 0.213296 0.775522
Si Si5 0.090706 0.695937 0.089647
O O1 0.500000 0.370484 0.153630
O O2 0.607515 0.442974 0.177529
O O3 0.645606 0.342202 0.193617
O O4 0.605858 0.380473 0.940675
O O5 0.885696 0.138629 0.342772
O O6 0.000000 0.078681 0.235317
O O7 0.859392 0.042070 0.248994
O O8 0.805445 0.500000 0.500000
O O9 0.750000 0.468938 0.250000
O O10 0.750000 0.230423 0.750000
O O11 0.604523 0.258968 0.712454
O O12 0.644782 0.207060 0.949242
O O13 0.000000 0.696499 0.043334
#
# Coordination Sequence:
#
# PCOD8263404 Si02
#       5
#    16  16  16  16  16
#     4  10  20  38  61  84 115 156 200 242 289 350
#     4   9  20  38  61  86 113 151 198 243 287 345
#     4  10  21  36  57  85 118 154 192 239 295 350
#     4  12  25  40  60  89 122 154 194 246 302 352
#     4  11  23  41  63  87 117 156 200 242 292 356
#
# _framework density 20.660326999999999
#
# number of rings (size 3 to 8) (size 9 to 14) (size 15 to 20)
#    0.000    1.600    0.000    4.800    0.000    9.600 
#    0.000    0.000    0.000    4.800    0.000    0.000 
#    0.000    0.000    0.000    0.000    0.000    0.000 
#
# Total GULP energy -496261.282926 kJ/mol
# GULP energy per Si atom -12406.532073 kJ/mol
# Density = 2.061330 g / cm^3
# Si number density = 20.660327 Si / 1000 Ang^3
#
#
#
# Elastic Constant Matrix: (Units=GPa)
#
#
# Indices 1 2 3 4 5 6 
#
# 1 71.4240 30.6992 42.0303 0.0000 0.0000 0.0000
# 2 30.6992 79.4530 30.0036 0.0000 0.0000 0.0000
# 3 42.0303 30.0036 78.2111 0.0000 0.0000 0.0000
# 4 0.0000 0.0000 0.0000 29.6962 0.0000 0.0000
# 5 0.0000 0.0000 0.0000 0.0000 32.5866 0.0000
# 6 0.0000 0.0000 0.0000 0.0000 0.0000 27.9623
#
#
#
# Elastic Compliance Matrix: (Units=1/GPa)
#
#
# Indices 1 2 3 4 5 6 
#
# 1 0.021877 -0.004693 -0.009956 0.000000 0.000000 0.000000
# 2 -0.004693 0.015725 -0.003510 0.000000 0.000000 0.000000
# 3 -0.009956 -0.003510 0.019483 0.000000 0.000000 0.000000
# 4 0.000000 0.000000 0.000000 0.033674 0.000000 0.000000
# 5 0.000000 0.000000 0.000000 0.000000 0.030687 0.000000
# 6 0.000000 0.000000 0.000000 0.000000 0.000000 0.035762
#
#
# Mechanical properties :
#
#
# Convention : Reuss Voigt Hill
#
# Bulk Modulus (GPa) = 48.15681 48.28383 48.22032
# Shear Modulus (GPa) = 24.94384 26.47270 25.70827
#
# Velocity S-wave (km/s) = 3.47844 3.58345 3.53133
# Velocity P-wave (km/s) = 6.28428 6.36730 6.32592
#
# Compressibility (1/GPa) = 0.02076550
#
# Stress axis : x y z
#
# Youngs Moduli (GPa) = 45.71032 63.59293 51.32684
#
# Poissons Ratio (x) = 0.29845 0.51102
# Poissons Ratio (y) = 0.21452 0.18018
# Poissons Ratio (z) = 0.45510 0.22324
#
# Static dielectric constant tensor:
#      x y z
#    x 3.603490 0.000000 0.000000 
#    y 0.000000 3.817470 0.000000 
#    z 0.000000 0.000000 3.673160 
# 
# 
# High freq. dielectric constant tensor:
#      x y z
#    x 1.808650 0.000000 0.000000 
#    y 0.000000 1.819150 0.000000 
#    z 0.000000 0.000000 1.805470 
# 
# From -- ./inp_files/7046.got.cif
#   From: 2010.03.12/outbox.cif.g09.slc.cpg/sg64_4_cif.got.tgz:7046.got - 2010.04.10 20:19:32.
