data_PCOD8263185
_publ_section_title
;
Structure prediction by ZEFSAII (Michael W. Deem and Ramdas Pophale) SiO2 
 PCOD8263185
Probable space group: C M C A
;
_chemical_formula_sum "Si O2"
_cell_formula_units_Z 112
_cell_length_a 16.614863
_cell_length_b 25.147316
_cell_length_c 14.073901
_cell_angle_alpha 90.000000
_cell_angle_beta 90.000000
_cell_angle_gamma 90.000000
_cell_volume 5880.346200
_symmetry_space_group_name_H-M "C M C A"
_symmetry_group_IT_number 64
_symmetry_cell_setting 'orthorhombic'
loop_
_space_group_symop_operation_xyz
x,y,z
-x,1/2-y,1/2+z
x,-y,-z
-x,1/2+y,1/2-z
-x,-y,-z
x,1/2+y,1/2-z
-x,y,z
x,1/2-y,1/2+z
1/2+x,1/2+y,z
1/2-x,-y,1/2+z
1/2+x,1/2-y,-z
1/2-x,y,1/2-z
1/2-x,1/2-y,-z
1/2+x,y,1/2-z
1/2-x,1/2+y,z
1/2+x,-y,1/2+z
loop_
_atom_site_type_symbol
_atom_site_label
_atom_site_fract_x
_atom_site_fract_y
_atom_site_fract_z
Si Si1 0.591630 0.396904 0.178619
Si Si2 0.906871 0.686766 0.123876
Si Si3 0.801369 0.412871 0.843390
Si Si4 0.763039 0.099773 0.953940
Si Si5 0.173147 0.470763 0.182900
Si Si6 0.594034 0.218615 0.762330
Si Si7 0.690181 0.789604 0.052922
O O1 0.500000 0.397565 0.141970
O O2 0.647739 0.411128 0.087936
O O3 0.601144 0.441076 0.261601
O O4 0.614348 0.339731 0.222546
O O5 0.864597 0.634287 0.162467
O O6 0.881361 0.738569 0.183257
O O7 0.000000 0.675522 0.131648
O O8 0.883991 0.696079 0.015051
O O9 0.750000 0.408939 0.750000
O O10 0.849707 0.468884 0.844909
O O11 0.739855 0.407301 0.932392
O O12 0.695580 0.060078 0.913183
O O13 0.740961 0.158702 0.920770
O O14 0.250000 0.469427 0.250000
O O15 0.500000 0.222934 0.790242
O O16 0.650167 0.233544 0.851866
O O17 0.750000 0.750000 0.000000
#
# Coordination Sequence:
#
# PCOD8263185 Si02
#       7
#    16  16  16  16  16  16  16
#     4  10  20  36  61  92 119 148 193 248 301 349
#     4  10  23  39  55  81 121 154 189 241 291 349
#     4  10  22  38  59  82 116 159 202 238 292 353
#     4  10  20  36  58  87 116 150 196 249 289 338
#     4   9  18  36  60  85 114 149 192 246 287 339
#     4  10  21  38  58  84 121 155 189 244 302 345
#     4  11  22  34  60  86 112 154 196 238 285 354
#
# _framework density 19.046498
#
# number of rings (size 3 to 8) (size 9 to 14) (size 15 to 20)
#    0.000    2.000    1.429    1.714    4.000    1.714 
#    0.000    1.429    0.000   13.714    0.000    0.000 
#    0.000    0.000    0.000    0.000    0.000    0.000 
#
# Total GULP energy -694382.196359 kJ/mol
# GULP energy per Si atom -12399.682078 kJ/mol
# Density = 1.900315 g / cm^3
# Si number density = 19.046498 Si / 1000 Ang^3
#
#
#
# Elastic Constant Matrix: (Units=GPa)
#
#
# Indices 1 2 3 4 5 6 
#
# 1 77.9107 38.7475 47.5534 0.0000 0.0000 0.0000
# 2 38.7475 122.6403 19.6040 0.0000 0.0000 0.0000
# 3 47.5534 19.6040 90.2652 0.0000 0.0000 0.0000
# 4 0.0000 0.0000 0.0000 30.5844 0.0000 0.0000
# 5 0.0000 0.0000 0.0000 0.0000 29.9459 0.0000
# 6 0.0000 0.0000 0.0000 0.0000 0.0000 24.2178
#
#
#
# Elastic Compliance Matrix: (Units=1/GPa)
#
#
# Indices 1 2 3 4 5 6 
#
# 1 0.021722 -0.005215 -0.010311 0.000000 0.000000 0.000000
# 2 -0.005215 0.009699 0.000641 0.000000 0.000000 0.000000
# 3 -0.010311 0.000641 0.016371 0.000000 0.000000 0.000000
# 4 0.000000 0.000000 0.000000 0.032696 0.000000 0.000000
# 5 0.000000 0.000000 0.000000 0.000000 0.033394 0.000000
# 6 0.000000 0.000000 0.000000 0.000000 0.000000 0.041292
#
#
# Mechanical properties :
#
#
# Convention : Reuss Voigt Hill
#
# Bulk Modulus (GPa) = 55.48640 55.84735 55.66687
# Shear Modulus (GPa) = 26.18459 29.27704 27.73082
#
# Velocity S-wave (km/s) = 3.71181 3.92488 3.81984
# Velocity P-wave (km/s) = 6.89677 7.06575 6.98177
#
# Compressibility (1/GPa) = 0.01802243
#
# Stress axis : x y z
#
# Youngs Moduli (GPa) = 46.03607 103.10262 61.08233
#
# Poissons Ratio (x) = 0.53766 0.62982
# Poissons Ratio (y) = 0.24007 -0.03914
# Poissons Ratio (z) = 0.47468 -0.06606
#
# Static dielectric constant tensor:
#      x y z
#    x 3.310950 0.000000 0.000000 
#    y 0.000000 3.861970 0.000000 
#    z 0.000000 0.000000 3.564970 
# 
# 
# High freq. dielectric constant tensor:
#      x y z
#    x 1.725280 0.000000 0.000000 
#    y 0.000000 1.751880 0.000000 
#    z 0.000000 0.000000 1.744070 
# 
# From -- ./inp_files/24211.got.cif
#   From: 2010.03.12/outbox.cif.g09.slc.cpg/sg64_13_cif.got.tgz:24211.got - 2010.04.10 20:19:32.
