data_PCOD8263461
_publ_section_title
;
Structure prediction by ZEFSAII (Michael W. Deem and Ramdas Pophale) SiO2 
 PCOD8263461
Probable space group: C M C A
;
_chemical_formula_sum "Si O2"
_cell_formula_units_Z 96
_cell_length_a 13.966636
_cell_length_b 22.648734
_cell_length_c 13.996630
_cell_angle_alpha 90.000000
_cell_angle_beta 90.000000
_cell_angle_gamma 90.000000
_cell_volume 4427.506710
_symmetry_space_group_name_H-M "C M C A"
_symmetry_group_IT_number 64
_symmetry_cell_setting 'orthorhombic'
loop_
_space_group_symop_operation_xyz
x,y,z
-x,1/2-y,1/2+z
x,-y,-z
-x,1/2+y,1/2-z
-x,-y,-z
x,1/2+y,1/2-z
-x,y,z
x,1/2-y,1/2+z
1/2+x,1/2+y,z
1/2-x,-y,1/2+z
1/2+x,1/2-y,-z
1/2-x,y,1/2-z
1/2-x,1/2-y,-z
1/2+x,y,1/2-z
1/2-x,1/2+y,z
1/2+x,-y,1/2+z
loop_
_atom_site_type_symbol
_atom_site_label
_atom_site_fract_x
_atom_site_fract_y
_atom_site_fract_z
Si Si1 0.611434 0.144232 0.658074
Si Si2 0.890290 0.405494 0.013588
Si Si3 0.781879 0.972524 0.096117
Si Si4 0.890703 0.703055 0.849616
Si Si5 0.249287 0.596052 0.352782
Si Si6 0.611872 0.818974 0.548711
O O1 0.500000 0.130776 0.675063
O O2 0.660671 0.080545 0.645122
O O3 0.655621 0.178536 0.750521
O O4 0.629138 0.186063 0.565914
O O5 0.826347 0.452991 0.069272
O O6 0.879711 0.343638 0.066595
O O7 0.000000 0.427150 0.010688
O O8 0.851138 0.396258 0.905867
O O9 0.774633 0.027323 0.168161
O O10 0.830775 0.000000 0.000000
O O11 0.844763 0.763072 0.893041
O O12 0.000000 0.717252 0.826225
O O13 0.250000 0.628297 0.250000
O O14 0.166311 0.622547 0.418915
O O15 0.500000 0.827208 0.569501
#
# Coordination Sequence:
#
# PCOD8263461 Si02
#       6
#    16  16  16  16  16  16
#     4  10  20  38  65  97 131 170 214 267 328 383
#     4  10  22  43  64  90 130 173 217 270 323 383
#     4  10  21  40  62  93 129 167 216 270 321 386
#     4   9  21  39  65  98 128 170 222 258 314 399
#     4  11  25  41  59  95 131 165 220 262 323 395
#     4  10  21  42  64  91 133 166 204 269 328 381
#
# _framework density 21.682634
#
# number of rings (size 3 to 8) (size 9 to 14) (size 15 to 20)
#    0.000    2.000    3.333    0.000    2.333    6.667 
#    3.000    3.333    0.000    0.000    0.000    0.000 
#    0.000    0.000    0.000    0.000    0.000    0.000 
#
# Total GULP energy -594836.362921 kJ/mol
# GULP energy per Si atom -12392.424228 kJ/mol
# Density = 2.163328 g / cm^3
# Si number density = 21.682634 Si / 1000 Ang^3
#
#
#
# Elastic Constant Matrix: (Units=GPa)
#
#
# Indices 1 2 3 4 5 6 
#
# 1 73.7386 46.1693 36.5877 0.0000 0.0000 0.0000
# 2 46.1693 127.0323 57.6373 0.0000 0.0000 0.0000
# 3 36.5877 57.6373 144.1452 0.0000 0.0000 0.0000
# 4 0.0000 0.0000 0.0000 32.3121 0.0000 0.0000
# 5 0.0000 0.0000 0.0000 0.0000 12.0135 0.0000
# 6 0.0000 0.0000 0.0000 0.0000 0.0000 29.4736
#
#
#
# Elastic Compliance Matrix: (Units=1/GPa)
#
#
# Indices 1 2 3 4 5 6 
#
# 1 0.018220 -0.005526 -0.002415 0.000000 0.000000 0.000000
# 2 -0.005526 0.011293 -0.003113 0.000000 0.000000 0.000000
# 3 -0.002415 -0.003113 0.008795 0.000000 0.000000 0.000000
# 4 0.000000 0.000000 0.000000 0.030948 0.000000 0.000000
# 5 0.000000 0.000000 0.000000 0.000000 0.083240 0.000000
# 6 0.000000 0.000000 0.000000 0.000000 0.000000 0.033929
#
#
# Mechanical properties :
#
#
# Convention : Reuss Voigt Hill
#
# Bulk Modulus (GPa) = 61.72927 69.52275 65.62601
# Shear Modulus (GPa) = 23.37191 28.39462 25.88327
#
# Velocity S-wave (km/s) = 3.28671 3.62270 3.45879
# Velocity P-wave (km/s) = 6.55245 7.04500 6.80318
#
# Compressibility (1/GPa) = 0.01619977
#
# Stress axis : x y z
#
# Youngs Moduli (GPa) = 54.88557 88.55177 113.69957
#
# Poissons Ratio (x) = 0.48935 0.27458
# Poissons Ratio (y) = 0.30331 0.35393
# Poissons Ratio (z) = 0.13255 0.27565
#
# Static dielectric constant tensor:
#      x y z
#    x 3.811900 0.000000 0.000000 
#    y 0.000000 4.044220 0.000000 
#    z 0.000000 0.000000 4.161300 
# 
# 
# High freq. dielectric constant tensor:
#      x y z
#    x 1.837190 0.000000 0.000000 
#    y 0.000000 1.853780 0.000000 
#    z 0.000000 0.000000 1.860120 
# 
# From -- ./inp_files/23899.got.cif
#   From: 2010.03.12/outbox.cif.g09.slc.cpg/sg64_12_cif.got.tgz:23899.got - 2010.04.10 20:19:32.
