data_PCOD8263339
_publ_section_title
;
Structure prediction by ZEFSAII (Michael W. Deem and Ramdas Pophale) SiO2 
 PCOD8263339
Probable space group: C M C A
;
_chemical_formula_sum "Si O2"
_cell_formula_units_Z 96
_cell_length_a 15.495136
_cell_length_b 19.178928
_cell_length_c 15.465690
_cell_angle_alpha 90.000000
_cell_angle_beta 90.000000
_cell_angle_gamma 90.000000
_cell_volume 4596.095265
_symmetry_space_group_name_H-M "C M C A"
_symmetry_group_IT_number 64
_symmetry_cell_setting 'orthorhombic'
loop_
_space_group_symop_operation_xyz
x,y,z
-x,1/2-y,1/2+z
x,-y,-z
-x,1/2+y,1/2-z
-x,-y,-z
x,1/2+y,1/2-z
-x,y,z
x,1/2-y,1/2+z
1/2+x,1/2+y,z
1/2-x,-y,1/2+z
1/2+x,1/2-y,-z
1/2-x,y,1/2-z
1/2-x,1/2-y,-z
1/2+x,y,1/2-z
1/2-x,1/2+y,z
1/2+x,-y,1/2+z
loop_
_atom_site_type_symbol
_atom_site_label
_atom_site_fract_x
_atom_site_fract_y
_atom_site_fract_z
Si Si1 0.905408 0.060388 0.828381
Si Si2 0.736302 0.048883 0.922781
Si Si3 0.836831 0.944603 0.712956
Si Si4 0.600991 0.332032 0.446389
Si Si5 0.402700 0.804822 0.862189
Si Si6 0.653920 0.311217 0.262306
O O1 0.828780 0.080760 0.894453
O O2 0.908378 0.123848 0.759154
O O3 0.000000 0.059154 0.873576
O O4 0.892643 0.983145 0.787085
O O5 0.665773 0.103625 0.953919
O O6 0.691443 0.007866 0.846559
O O7 0.762568 0.000000 0.000000
O O8 0.750000 0.908402 0.750000
O O9 0.889560 0.886030 0.661786
O O10 0.500000 0.354841 0.442297
O O11 0.616832 0.290042 0.536198
O O12 0.628714 0.287910 0.360846
O O13 0.500000 0.784736 0.841156
O O14 0.347441 0.754835 0.801310
O O15 0.750000 0.341647 0.250000
#
# Coordination Sequence:
#
# PCOD8263339 Si02
#       6
#    16  16  16  16  16  16
#     4  11  22  39  64  90 125 172 217 256 312 384
#     4  11  21  39  63  94 128 160 213 266 319 377
#     4  10  20  37  61  92 126 164 207 262 322 375
#     4  11  23  40  63  95 126 165 216 265 317 382
#     4  11  24  39  61  95 130 165 209 265 324 376
#     4  12  23  43  66  91 127 173 214 263 319 380
#
# _framework density 20.887295000000002
#
# number of rings (size 3 to 8) (size 9 to 14) (size 15 to 20)
#    0.000    1.000    5.000    3.000    0.000    2.000 
#    0.000    0.000    0.000    6.000    0.000    0.000 
#    0.000    0.000    0.000    0.000    0.000    0.000 
#
# Total GULP energy -594876.051763 kJ/mol
# GULP energy per Si atom -12393.251078 kJ/mol
# Density = 2.083976 g / cm^3
# Si number density = 20.887295 Si / 1000 Ang^3
#
#
#
# Elastic Constant Matrix: (Units=GPa)
#
#
# Indices 1 2 3 4 5 6 
#
# 1 123.9816 35.0032 39.6793 0.0000 0.0000 0.0000
# 2 35.0032 68.2244 39.3287 0.0000 0.0000 0.0000
# 3 39.6793 39.3287 108.9673 0.0000 0.0000 0.0000
# 4 0.0000 0.0000 0.0000 29.2035 0.0000 0.0000
# 5 0.0000 0.0000 0.0000 0.0000 28.4188 0.0000
# 6 0.0000 0.0000 0.0000 0.0000 0.0000 20.8950
#
#
#
# Elastic Compliance Matrix: (Units=1/GPa)
#
#
# Indices 1 2 3 4 5 6 
#
# 1 0.009841 -0.003767 -0.002224 0.000000 0.000000 0.000000
# 2 -0.003767 0.019950 -0.005829 0.000000 0.000000 0.000000
# 3 -0.002224 -0.005829 0.012091 0.000000 0.000000 0.000000
# 4 0.000000 0.000000 0.000000 0.034242 0.000000 0.000000
# 5 0.000000 0.000000 0.000000 0.000000 0.035188 0.000000
# 6 0.000000 0.000000 0.000000 0.000000 0.000000 0.047858
#
#
# Mechanical properties :
#
#
# Convention : Reuss Voigt Hill
#
# Bulk Modulus (GPa) = 54.81708 58.79953 56.80830
# Shear Modulus (GPa) = 26.47031 28.18093 27.32562
#
# Velocity S-wave (km/s) = 3.56377 3.67712 3.62089
# Velocity P-wave (km/s) = 6.57534 6.80002 6.68862
#
# Compressibility (1/GPa) = 0.01824249
#
# Stress axis : x y z
#
# Youngs Moduli (GPa) = 101.61582 50.12456 82.70879
#
# Poissons Ratio (x) = 0.18882 0.18394
# Poissons Ratio (y) = 0.38279 0.48209
# Poissons Ratio (z) = 0.22598 0.29217
#
# Static dielectric constant tensor:
#      x y z
#    x 4.003570 0.000000 0.000000 
#    y 0.000000 3.275930 0.000000 
#    z 0.000000 0.000000 3.956660 
# 
# 
# High freq. dielectric constant tensor:
#      x y z
#    x 1.832130 0.000000 0.000000 
#    y 0.000000 1.793630 0.000000 
#    z 0.000000 0.000000 1.817760 
# 
# From -- ./inp_files/23944.got.cif
#   From: 2010.03.12/outbox.cif.g09.slc.cpg/sg64_12_cif.got.tgz:23944.got - 2010.04.10 20:19:32.
