data_PCOD8263434
_publ_section_title
;
Structure prediction by ZEFSAII (Michael W. Deem and Ramdas Pophale) SiO2 
 PCOD8263434
Probable space group: C M C A
;
_chemical_formula_sum "Si O2"
_cell_formula_units_Z 88
_cell_length_a 14.113553
_cell_length_b 23.327338
_cell_length_c 13.617376
_cell_angle_alpha 90.000000
_cell_angle_beta 90.000000
_cell_angle_gamma 90.000000
_cell_volume 4483.270777
_symmetry_space_group_name_H-M "C M C A"
_symmetry_group_IT_number 64
_symmetry_cell_setting 'orthorhombic'
loop_
_space_group_symop_operation_xyz
x,y,z
-x,1/2-y,1/2+z
x,-y,-z
-x,1/2+y,1/2-z
-x,-y,-z
x,1/2+y,1/2-z
-x,y,z
x,1/2-y,1/2+z
1/2+x,1/2+y,z
1/2-x,-y,1/2+z
1/2+x,1/2-y,-z
1/2-x,y,1/2-z
1/2-x,1/2-y,-z
1/2+x,y,1/2-z
1/2-x,1/2+y,z
1/2+x,-y,1/2+z
loop_
_atom_site_type_symbol
_atom_site_label
_atom_site_fract_x
_atom_site_fract_y
_atom_site_fract_z
Si Si1 0.105418 0.770084 0.264589
Si Si2 0.823274 0.123936 0.837033
Si Si3 0.392075 0.496519 0.114192
Si Si4 0.298739 0.306485 0.462494
Si Si5 0.889843 0.656737 0.153663
Si Si6 0.250000 0.931756 0.750000
O O1 0.110491 0.821715 0.187087
O O2 0.164480 0.787269 0.357656
O O3 0.143481 0.711689 0.216254
O O4 0.000000 0.759479 0.300346
O O5 0.750000 0.109753 0.750000
O O6 0.771329 0.140225 0.939895
O O7 0.889522 0.069542 0.853549
O O8 0.500000 0.519178 0.132053
O O9 0.314898 0.531163 0.177028
O O10 0.364696 0.500000 0.000000
O O11 0.250000 0.250000 0.500000
O O12 0.377358 0.329084 0.538255
O O13 0.821804 0.605056 0.184052
O O14 0.000000 0.640867 0.171201
#
# Coordination Sequence:
#
# PCOD8263434 Si02
#       6
#    16  16  16  16  16   8
#     4  10  21  36  57  88 124 158 199 249 307 371
#     4  10  20  38  63  88 119 162 199 249 310 368
#     4  11  24  43  67  94 122 161 215 265 311 368
#     4  11  20  35  60  90 125 161 199 246 309 376
#     4  11  23  39  61  92 127 165 207 255 312 374
#     4  12  24  44  66  86 126 170 210 264 316 368
#
# _framework density 19.628526999999998
#
# number of rings (size 3 to 8) (size 9 to 14) (size 15 to 20)
#    0.000    1.273    2.727    3.818    1.273    0.000 
#    0.000    1.818    0.000    2.182    0.000    0.000 
#    0.000    0.000    0.000    0.000    0.000    0.000 
#
# Total GULP energy -545444.124256 kJ/mol
# GULP energy per Si atom -12396.457369 kJ/mol
# Density = 1.958385 g / cm^3
# Si number density = 19.628527 Si / 1000 Ang^3
#
#
#
# Elastic Constant Matrix: (Units=GPa)
#
#
# Indices 1 2 3 4 5 6 
#
# 1 107.4953 54.1388 50.8991 0.0000 0.0000 0.0000
# 2 54.1388 121.4299 48.2881 0.0000 0.0000 0.0000
# 3 50.8991 48.2881 106.4106 0.0000 0.0000 0.0000
# 4 0.0000 0.0000 0.0000 28.6677 0.0000 0.0000
# 5 0.0000 0.0000 0.0000 0.0000 29.5755 0.0000
# 6 0.0000 0.0000 0.0000 0.0000 0.0000 31.7655
#
#
#
# Elastic Compliance Matrix: (Units=1/GPa)
#
#
# Indices 1 2 3 4 5 6 
#
# 1 0.013612 -0.004246 -0.004584 0.000000 0.000000 0.000000
# 2 -0.004246 0.011373 -0.003130 0.000000 0.000000 0.000000
# 3 -0.004584 -0.003130 0.013011 0.000000 0.000000 0.000000
# 4 0.000000 0.000000 0.000000 0.034882 0.000000 0.000000
# 5 0.000000 0.000000 0.000000 0.000000 0.033812 0.000000
# 6 0.000000 0.000000 0.000000 0.000000 0.000000 0.031481
#
#
# Mechanical properties :
#
#
# Convention : Reuss Voigt Hill
#
# Bulk Modulus (GPa) = 71.04637 71.33198 71.18918
# Shear Modulus (GPa) = 29.97931 30.13572 30.05751
#
# Velocity S-wave (km/s) = 3.91235 3.92254 3.91745
# Velocity P-wave (km/s) = 7.52879 7.54553 7.53716
#
# Compressibility (1/GPa) = 0.01407531
#
# Stress axis : x y z
#
# Youngs Moduli (GPa) = 73.46650 87.92882 76.85996
#
# Poissons Ratio (x) = 0.37332 0.35234
# Poissons Ratio (y) = 0.31192 0.24057
# Poissons Ratio (z) = 0.33678 0.27522
#
# Static dielectric constant tensor:
#      x y z
#    x 3.715110 0.000000 0.000000 
#    y 0.000000 3.273840 0.000000 
#    z 0.000000 0.000000 3.740560 
# 
# 
# High freq. dielectric constant tensor:
#      x y z
#    x 1.770180 0.000000 0.000000 
#    y 0.000000 1.766780 0.000000 
#    z 0.000000 0.000000 1.771380 
# 
# From -- ./inp_files/14621.got.cif
#   From: 2010.03.12/outbox.cif.g09.slc.cpg/sg64_8_cif.got.tgz:14621.got - 2010.04.10 20:19:32.
