data_PCOD8263561
_publ_section_title
;
Structure prediction by ZEFSAII (Michael W. Deem and Ramdas Pophale) SiO2 
 PCOD8263561
Probable space group: C M C A
;
_chemical_formula_sum "Si O2"
_cell_formula_units_Z 88
_cell_length_a 16.481713
_cell_length_b 9.221602
_cell_length_c 29.379497
_cell_angle_alpha 90.000000
_cell_angle_beta 90.000000
_cell_angle_gamma 90.000000
_cell_volume 4465.325043
_symmetry_space_group_name_H-M "C M C A"
_symmetry_group_IT_number 64
_symmetry_cell_setting 'orthorhombic'
loop_
_space_group_symop_operation_xyz
x,y,z
-x,1/2-y,1/2+z
x,-y,-z
-x,1/2+y,1/2-z
-x,-y,-z
x,1/2+y,1/2-z
-x,y,z
x,1/2-y,1/2+z
1/2+x,1/2+y,z
1/2-x,-y,1/2+z
1/2+x,1/2-y,-z
1/2-x,y,1/2-z
1/2-x,1/2-y,-z
1/2+x,y,1/2-z
1/2-x,1/2+y,z
1/2+x,-y,1/2+z
loop_
_atom_site_type_symbol
_atom_site_label
_atom_site_fract_x
_atom_site_fract_y
_atom_site_fract_z
Si Si1 0.750000 0.502376 0.750000
Si Si2 0.146950 0.839881 0.449957
Si Si3 0.804822 0.342494 0.390454
Si Si4 0.408841 0.122957 0.380846
Si Si5 0.694073 0.248228 0.810746
Si Si6 0.092413 0.652392 0.047912
O O1 0.699881 0.398876 0.783386
O O2 0.688438 0.608686 0.722437
O O3 0.236481 0.859070 0.429192
O O4 0.099688 0.703327 0.428983
O O5 0.149837 0.815008 0.504316
O O6 0.095550 0.983690 0.439138
O O7 0.842223 0.497332 0.378264
O O8 0.771049 0.270871 0.344350
O O9 0.876546 0.242348 0.409116
O O10 0.500000 0.064003 0.374768
O O11 0.387500 0.238821 0.340876
O O12 0.000000 0.696929 0.037034
#
# Coordination Sequence:
#
# PCOD8263561 Si02
#       6
#     8  16  16  16  16  16
#     4  10  20  40  68  88 112 146 200 234 284 358
#     4  10  21  38  57  81 116 162 207 238 279 346
#     4  11  22  37  59  88 117 155 200 239 289 350
#     4  11  22  38  58  89 124 153 190 246 298 345
#     4  10  21  39  64  90 112 154 190 239 286 356
#     4  11  22  37  56  84 120 160 198 248 295 337
#
# _framework density 19.707412000000001
#
# number of rings (size 3 to 8) (size 9 to 14) (size 15 to 20)
#    0.000    1.455    1.818    5.455    2.545    2.182 
#    0.000    2.727    0.000    0.000    0.000    0.000 
#    0.000    0.000    0.000    0.000    0.000    0.000 
#
# Total GULP energy -545588.442847 kJ/mol
# GULP energy per Si atom -12399.737337 kJ/mol
# Density = 1.966256 g / cm^3
# Si number density = 19.707412 Si / 1000 Ang^3
#
#
#
# Elastic Constant Matrix: (Units=GPa)
#
#
# Indices 1 2 3 4 5 6 
#
# 1 106.8155 26.9546 32.3806 0.0000 0.0000 0.0000
# 2 26.9546 98.4086 52.0270 0.0000 0.0000 0.0000
# 3 32.3806 52.0270 94.8201 0.0000 0.0000 0.0000
# 4 0.0000 0.0000 0.0000 39.7733 0.0000 0.0000
# 5 0.0000 0.0000 0.0000 0.0000 15.7070 0.0000
# 6 0.0000 0.0000 0.0000 0.0000 0.0000 22.6679
#
#
#
# Elastic Compliance Matrix: (Units=1/GPa)
#
#
# Indices 1 2 3 4 5 6 
#
# 1 0.010576 -0.001391 -0.002849 0.000000 0.000000 0.000000
# 2 -0.001391 0.014497 -0.007479 0.000000 0.000000 0.000000
# 3 -0.002849 -0.007479 0.015623 0.000000 0.000000 0.000000
# 4 0.000000 0.000000 0.000000 0.025143 0.000000 0.000000
# 5 0.000000 0.000000 0.000000 0.000000 0.063666 0.000000
# 6 0.000000 0.000000 0.000000 0.000000 0.000000 0.044115
#
#
# Mechanical properties :
#
#
# Convention : Reuss Voigt Hill
#
# Bulk Modulus (GPa) = 57.94235 58.08540 58.01388
# Shear Modulus (GPa) = 24.65352 28.20842 26.43097
#
# Velocity S-wave (km/s) = 3.54075 3.78744 3.66617
# Velocity P-wave (km/s) = 6.79566 6.97597 6.88640
#
# Compressibility (1/GPa) = 0.01725853
#
# Stress axis : x y z
#
# Youngs Moduli (GPa) = 94.54939 68.98026 64.00852
#
# Poissons Ratio (x) = 0.09595 0.18234
# Poissons Ratio (y) = 0.13151 0.47874
# Poissons Ratio (z) = 0.26934 0.51593
#
# Static dielectric constant tensor:
#      x y z
#    x 3.345080 0.000000 0.000000 
#    y 0.000000 3.699730 0.000000 
#    z 0.000000 0.000000 3.719490 
# 
# 
# High freq. dielectric constant tensor:
#      x y z
#    x 1.743590 0.000000 0.000000 
#    y 0.000000 1.777280 0.000000 
#    z 0.000000 0.000000 1.774010 
# 
# From -- ./inp_files/53561.got.cif
#   From: 2010.03.12/outbox.cif.g09.slc.cpg/sg64_27_cif.got.tgz:53561.got - 2010.04.10 20:19:32.
