data_PCOD8263398
_publ_section_title
;
Structure prediction by ZEFSAII (Michael W. Deem and Ramdas Pophale) SiO2 
 PCOD8263398
Probable space group: C M C A
;
_chemical_formula_sum "Si O2"
_cell_formula_units_Z 64
_cell_length_a 10.421997
_cell_length_b 34.760562
_cell_length_c 8.912338
_cell_angle_alpha 90.000000
_cell_angle_beta 90.000000
_cell_angle_gamma 90.000000
_cell_volume 3228.712551
_symmetry_space_group_name_H-M "C M C A"
_symmetry_group_IT_number 64
_symmetry_cell_setting 'orthorhombic'
loop_
_space_group_symop_operation_xyz
x,y,z
-x,1/2-y,1/2+z
x,-y,-z
-x,1/2+y,1/2-z
-x,-y,-z
x,1/2+y,1/2-z
-x,y,z
x,1/2-y,1/2+z
1/2+x,1/2+y,z
1/2-x,-y,1/2+z
1/2+x,1/2-y,-z
1/2-x,y,1/2-z
1/2-x,1/2-y,-z
1/2+x,y,1/2-z
1/2-x,1/2+y,z
1/2+x,-y,1/2+z
loop_
_atom_site_type_symbol
_atom_site_label
_atom_site_fract_x
_atom_site_fract_y
_atom_site_fract_z
Si Si1 0.250000 0.836885 0.250000
Si Si2 0.356667 0.782779 0.006189
Si Si3 0.250000 0.667999 0.250000
Si Si4 0.149194 0.967032 0.878115
Si Si5 0.856655 0.886820 0.987444
O O1 0.343548 0.809385 0.153736
O O2 0.320288 0.865725 0.360340
O O3 0.500000 0.764702 0.009537
O O4 0.250000 0.750000 0.000000
O O5 0.343017 0.806951 0.854314
O O6 0.157130 0.642157 0.349449
O O7 0.250000 0.979068 0.750000
O O8 0.209803 0.927677 0.950551
O O9 0.000000 0.962283 0.819819
O O10 0.153373 0.000000 0.000000
O O11 0.000000 0.899500 0.009740
#
# Coordination Sequence:
#
# PCOD8263398 Si02
#       5
#     8  16   8  16  16
#     4  10  23  38  59  88 118 156 200 250 299 356
#     4  11  24  40  60  87 118 154 199 246 302 361
#     4  10  21  38  61  84 112 156 196 246 293 356
#     4  10  22  40  63  92 126 162 202 245 295 353
#     4  10  20  38  60  85 119 157 197 246 297 349
#
# _framework density 19.822141999999999
#
# number of rings (size 3 to 8) (size 9 to 14) (size 15 to 20)
#    0.000    1.750    1.250    2.250    1.750    8.500 
#    0.000    1.250    0.000    0.000    0.000    0.000 
#    0.000    0.000    0.000    0.000    0.000    0.000 
#
# Total GULP energy -396548.787382 kJ/mol
# GULP energy per Si atom -12392.149606 kJ/mol
# Density = 1.977703 g / cm^3
# Si number density = 19.822142 Si / 1000 Ang^3
#
#
#
# Elastic Constant Matrix: (Units=GPa)
#
#
# Indices 1 2 3 4 5 6 
#
# 1 121.0924 44.8845 47.4470 0.0000 0.0000 0.0000
# 2 44.8845 116.9977 50.9141 0.0000 0.0000 0.0000
# 3 47.4470 50.9141 132.8669 0.0000 0.0000 0.0000
# 4 0.0000 0.0000 0.0000 -36.7483 0.0000 0.0000
# 5 0.0000 0.0000 0.0000 0.0000 14.1397 0.0000
# 6 0.0000 0.0000 0.0000 0.0000 0.0000 30.1250
#
#
#
# Elastic Compliance Matrix: (Units=1/GPa)
#
#
# Indices 1 2 3 4 5 6 
#
# 1 0.010327 -0.002829 -0.002604 0.000000 0.000000 0.000000
# 2 -0.002829 0.011033 -0.003217 0.000000 0.000000 0.000000
# 3 -0.002604 -0.003217 0.009689 0.000000 0.000000 0.000000
# 4 0.000000 0.000000 0.000000 -0.027212 0.000000 0.000000
# 5 0.000000 0.000000 0.000000 0.000000 0.070723 0.000000
# 6 0.000000 0.000000 0.000000 0.000000 0.000000 0.033195
#
#
# Mechanical properties :
#
#
# Convention : Reuss Voigt Hill
#
# Bulk Modulus (GPa) = 72.73500 73.04981 72.89240
# Shear Modulus (GPa) = 38.56924 16.68403 27.62663
#
# Velocity S-wave (km/s) = 4.41587 2.90433 3.73731
# Velocity P-wave (km/s) = 7.92296 6.94114 7.44825
#
# Compressibility (1/GPa) = 0.01374854
#
# Stress axis : x y z
#
# Youngs Moduli (GPa) = 96.83468 90.64117 103.20882
#
# Poissons Ratio (x) = 0.25639 0.26874
# Poissons Ratio (y) = 0.27391 0.33207
# Poissons Ratio (z) = 0.25214 0.29164
#
# Static dielectric constant tensor:
#      x y z
#    x 3.538450 0.000000 0.000000 
#    y 0.000000 3.819120 0.000000 
#    z 0.000000 0.000000 3.485060 
# 
# 
# High freq. dielectric constant tensor:
#      x y z
#    x 1.761710 0.000000 0.000000 
#    y 0.000000 1.787980 0.000000 
#    z 0.000000 0.000000 1.781370 
# 
# From -- ./inp_files/4655.got.cif
#   From: 2010.03.12/outbox.cif.g09.slc.cpg/sg64_3_cif.got.tgz:4655.got - 2010.04.10 20:19:32.
