data_PCOD8263600
_publ_section_title
;
Structure prediction by ZEFSAII (Michael W. Deem and Ramdas Pophale) SiO2 
 PCOD8263600
Probable space group: C M C A
;
_chemical_formula_sum "Si O2"
_cell_formula_units_Z 96
_cell_length_a 21.360189
_cell_length_b 18.781608
_cell_length_c 11.199845
_cell_angle_alpha 90.000000
_cell_angle_beta 90.000000
_cell_angle_gamma 90.000000
_cell_volume 4493.139219
_symmetry_space_group_name_H-M "C M C A"
_symmetry_group_IT_number 64
_symmetry_cell_setting 'orthorhombic'
loop_
_space_group_symop_operation_xyz
x,y,z
-x,1/2-y,1/2+z
x,-y,-z
-x,1/2+y,1/2-z
-x,-y,-z
x,1/2+y,1/2-z
-x,y,z
x,1/2-y,1/2+z
1/2+x,1/2+y,z
1/2-x,-y,1/2+z
1/2+x,1/2-y,-z
1/2-x,y,1/2-z
1/2-x,1/2-y,-z
1/2+x,y,1/2-z
1/2-x,1/2+y,z
1/2+x,-y,1/2+z
loop_
_atom_site_type_symbol
_atom_site_label
_atom_site_fract_x
_atom_site_fract_y
_atom_site_fract_z
Si Si1 0.724746 0.070387 0.562105
Si Si2 0.242445 0.811697 0.876091
Si Si3 0.383624 0.705442 0.396659
Si Si4 0.570891 0.045802 0.119891
Si Si5 0.121063 0.774825 0.347482
Si Si6 0.347927 0.428330 0.298649
O O1 0.715259 0.134957 0.472037
O O2 0.682575 0.090001 0.673394
O O3 0.796448 0.057181 0.599327
O O4 0.698565 0.000000 0.500000
O O5 0.250000 0.853690 0.750000
O O6 0.309388 0.779506 0.913222
O O7 0.194348 0.746669 0.852847
O O8 0.395589 0.621252 0.395339
O O9 0.410050 0.737508 0.270598
O O10 0.411475 0.740705 0.520841
O O11 0.500000 0.058279 0.163463
O O12 0.608228 0.997908 0.215943
O O13 0.573155 0.000000 0.000000
O O14 0.112256 0.859168 0.333770
#
# Coordination Sequence:
#
# PCOD8263600 Si02
#       6
#    16  16  16  16  16  16
#     4  11  23  33  57  93 136 163 202 251 326 384
#     4  10  21  33  57  87 131 168 200 239 313 393
#     4  11  22  38  64  93 130 166 214 256 316 384
#     4  11  23  45  70  89 115 169 231 276 310 364
#     4  11  22  36  61  92 132 163 200 252 319 388
#     4  11  23  38  61  94 127 164 209 266 311 386
#
# _framework density 21.365908999999998
#
# number of rings (size 3 to 8) (size 9 to 14) (size 15 to 20)
#    0.000    1.167    3.333    3.000   14.000    0.000 
#    0.000    1.667    0.000    0.500    0.000    0.000 
#    0.000    0.000    0.000    0.000    0.000    0.000 
#
# Total GULP energy -594820.002430 kJ/mol
# GULP energy per Si atom -12392.083384 kJ/mol
# Density = 2.131728 g / cm^3
# Si number density = 21.365909 Si / 1000 Ang^3
#
#
#
# Elastic Constant Matrix: (Units=GPa)
#
#
# Indices 1 2 3 4 5 6 
#
# 1 32.5549 7.4690 6.9693 0.0000 0.0000 0.0000
# 2 7.4690 95.0483 56.0821 0.0000 0.0000 0.0000
# 3 6.9693 56.0821 182.5893 0.0000 0.0000 0.0000
# 4 0.0000 0.0000 0.0000 42.1679 0.0000 0.0000
# 5 0.0000 0.0000 0.0000 0.0000 6.2109 0.0000
# 6 0.0000 0.0000 0.0000 0.0000 0.0000 6.2642
#
#
#
# Elastic Compliance Matrix: (Units=1/GPa)
#
#
# Indices 1 2 3 4 5 6 
#
# 1 0.031324 -0.002145 -0.000537 0.000000 0.000000 0.000000
# 2 -0.002145 0.012997 -0.003910 0.000000 0.000000 0.000000
# 3 -0.000537 -0.003910 0.006698 0.000000 0.000000 0.000000
# 4 0.000000 0.000000 0.000000 0.023715 0.000000 0.000000
# 5 0.000000 0.000000 0.000000 0.000000 0.161007 0.000000
# 6 0.000000 0.000000 0.000000 0.000000 0.000000 0.159638
#
#
# Mechanical properties :
#
#
# Convention : Reuss Voigt Hill
#
# Bulk Modulus (GPa) = 26.42993 50.13702 38.28348
# Shear Modulus (GPa) = 11.87159 26.90675 19.38917
#
# Velocity S-wave (km/s) = 2.35974 3.55256 3.01571
# Velocity P-wave (km/s) = 4.45214 6.35172 5.48479
#
# Compressibility (1/GPa) = 0.03783589
#
# Stress axis : x y z
#
# Youngs Moduli (GPa) = 31.92405 76.94347 149.29344
#
# Poissons Ratio (x) = 0.16502 0.08015
# Poissons Ratio (y) = 0.06847 0.58374
# Poissons Ratio (z) = 0.01714 0.30085
#
# Static dielectric constant tensor:
#      x y z
#    x 3.475760 0.000000 0.000000 
#    y 0.000000 3.834990 0.000000 
#    z 0.000000 0.000000 4.473350 
# 
# 
# High freq. dielectric constant tensor:
#      x y z
#    x 1.779460 0.000000 0.000000 
#    y 0.000000 1.839160 0.000000 
#    z 0.000000 0.000000 1.862590 
# 
# From -- ./inp_files/18355.got.cif
#   From: 2010.03.12/outbox.cif.g09.slc.cpg/sg64_10_cif.got.tgz:18355.got - 2010.04.10 20:19:32.
