data_PCOD8263954
_publ_section_title
;
Structure prediction by ZEFSAII (Michael W. Deem and Ramdas Pophale) SiO2 
 PCOD8263954
Probable space group: C M C A
;
_chemical_formula_sum "Si O2"
_cell_formula_units_Z 48
_cell_length_a 25.541740
_cell_length_b 15.606103
_cell_length_c 5.160865
_cell_angle_alpha 90.000000
_cell_angle_beta 90.000000
_cell_angle_gamma 90.000000
_cell_volume 2057.157045
_symmetry_space_group_name_H-M "C M C A"
_symmetry_group_IT_number 64
_symmetry_cell_setting 'orthorhombic'
loop_
_space_group_symop_operation_xyz
x,y,z
-x,1/2-y,1/2+z
x,-y,-z
-x,1/2+y,1/2-z
-x,-y,-z
x,1/2+y,1/2-z
-x,y,z
x,1/2-y,1/2+z
1/2+x,1/2+y,z
1/2-x,-y,1/2+z
1/2+x,1/2-y,-z
1/2-x,y,1/2-z
1/2-x,1/2-y,-z
1/2+x,y,1/2-z
1/2-x,1/2+y,z
1/2+x,-y,1/2+z
loop_
_atom_site_type_symbol
_atom_site_label
_atom_site_fract_x
_atom_site_fract_y
_atom_site_fract_z
Si Si1 0.192010 0.713442 0.449108
Si Si2 0.939496 0.304000 0.820742
Si Si3 0.642602 0.054041 0.249805
O O1 0.163073 0.770802 0.224680
O O2 0.250000 0.750000 0.500000
O O3 0.190147 0.615267 0.352808
O O4 0.925213 0.263025 0.544941
O O5 0.906670 0.391086 0.846954
O O6 0.000000 0.330537 0.841171
O O7 0.625156 0.000000 0.500000
O O8 0.662477 0.000000 0.000000
#
# Coordination Sequence:
#
# PCOD8263954 Si02
#       3
#    16  16  16
#     4  10  21  41  65  85 113 162 208 248 306 382
#     4  10  21  39  63  89 123 173 221 253 299 380
#     4  12  24  38  61  95 130 160 203 268 328 372
#
# _framework density 23.333172000000001
#
# number of rings (size 3 to 8) (size 9 to 14) (size 15 to 20)
#    0.000    1.333    0.000    6.000    0.000    1.333 
#    0.000   13.333    0.000    0.000    0.000    0.000 
#    0.000    0.000    0.000    0.000    0.000    0.000 
#
# Total GULP energy -297433.552775 kJ/mol
# GULP energy per Si atom -12393.064699 kJ/mol
# Density = 2.328006 g / cm^3
# Si number density = 23.333172 Si / 1000 Ang^3
#
#
#
# Elastic Constant Matrix: (Units=GPa)
#
#
# Indices 1 2 3 4 5 6 
#
# 1 75.2075 43.3614 28.9164 0.0000 0.0000 0.0000
# 2 43.3614 141.7635 58.4920 0.0000 0.0000 0.0000
# 3 28.9164 58.4920 192.5813 0.0000 0.0000 0.0000
# 4 0.0000 0.0000 0.0000 58.1527 0.0000 0.0000
# 5 0.0000 0.0000 0.0000 0.0000 32.9238 0.0000
# 6 0.0000 0.0000 0.0000 0.0000 0.0000 28.6821
#
#
#
# Elastic Compliance Matrix: (Units=1/GPa)
#
#
# Indices 1 2 3 4 5 6 
#
# 1 0.016334 -0.004555 -0.001069 0.000000 0.000000 0.000000
# 2 -0.004555 0.009335 -0.002151 0.000000 0.000000 0.000000
# 3 -0.001069 -0.002151 0.006007 0.000000 0.000000 0.000000
# 4 0.000000 0.000000 0.000000 0.017196 0.000000 0.000000
# 5 0.000000 0.000000 0.000000 0.000000 0.030373 0.000000
# 6 0.000000 0.000000 0.000000 0.000000 0.000000 0.034865
#
#
# Mechanical properties :
#
#
# Convention : Reuss Voigt Hill
#
# Bulk Modulus (GPa) = 62.01732 74.56577 68.29155
# Shear Modulus (GPa) = 37.02748 42.53723 39.78236
#
# Velocity S-wave (km/s) = 3.98792 4.27434 4.13361
# Velocity P-wave (km/s) = 6.91675 7.50908 7.21899
#
# Compressibility (1/GPa) = 0.01612453
#
# Stress axis : x y z
#
# Youngs Moduli (GPa) = 61.22283 107.12533 166.48497
#
# Poissons Ratio (x) = 0.48795 0.17799
# Poissons Ratio (y) = 0.27887 0.35816
# Poissons Ratio (z) = 0.06545 0.23046
#
# Static dielectric constant tensor:
#      x y z
#    x 4.988810 0.000000 0.000000 
#    y 0.000000 4.157330 0.000000 
#    z 0.000000 0.000000 15.032460 
# 
# 
# High freq. dielectric constant tensor:
#      x y z
#    x 1.928260 0.000000 0.000000 
#    y 0.000000 1.905160 0.000000 
#    z 0.000000 0.000000 1.967280 
# 
# From -- ./inp_files/2543.got.cif
#   From: 2010.03.12/outbox.cif.g09.slc.cpg/sg64_2_cif.got.tgz:2543.got - 2010.04.10 20:19:32.
