data_PCOD8263205
_publ_section_title
;
Structure prediction by ZEFSAII (Michael W. Deem and Ramdas Pophale) SiO2 
 PCOD8263205
Probable space group: C M C A
;
_chemical_formula_sum "Si O2"
_cell_formula_units_Z 64
_cell_length_a 10.458400
_cell_length_b 15.199519
_cell_length_c 16.796644
_cell_angle_alpha 90.000000
_cell_angle_beta 90.000000
_cell_angle_gamma 90.000000
_cell_volume 2670.039033
_symmetry_space_group_name_H-M "C M C A"
_symmetry_group_IT_number 64
_symmetry_cell_setting 'orthorhombic'
loop_
_space_group_symop_operation_xyz
x,y,z
-x,1/2-y,1/2+z
x,-y,-z
-x,1/2+y,1/2-z
-x,-y,-z
x,1/2+y,1/2-z
-x,y,z
x,1/2-y,1/2+z
1/2+x,1/2+y,z
1/2-x,-y,1/2+z
1/2+x,1/2-y,-z
1/2-x,y,1/2-z
1/2-x,1/2-y,-z
1/2+x,y,1/2-z
1/2-x,1/2+y,z
1/2+x,-y,1/2+z
loop_
_atom_site_type_symbol
_atom_site_label
_atom_site_fract_x
_atom_site_fract_y
_atom_site_fract_z
Si Si1 0.259634 0.028720 0.342557
Si Si2 0.000000 0.236292 0.935858
Si Si3 0.000000 0.080330 0.060585
Si Si4 0.000000 0.171128 0.585422
Si Si5 0.242250 0.678176 0.657223
Si Si6 0.000000 0.477739 0.909249
O O1 0.250000 0.049789 0.250000
O O2 0.376901 0.079043 0.382535
O O3 0.277303 0.925212 0.360001
O O4 0.129624 0.069063 0.380299
O O5 0.123191 0.229165 0.880617
O O6 0.000000 0.169272 0.010140
O O7 0.000000 0.329235 0.986438
O O8 0.000000 0.000000 0.000000
O O9 0.129869 0.217292 0.616294
O O10 0.000000 0.076218 0.628852
O O11 0.250000 0.699356 0.750000
O O12 0.000000 0.500000 0.000000
#
# Coordination Sequence:
#
# PCOD8263205 Si02
#       6
#    16   8   8   8  16   8
#     4  10  20  36  59  87 115 150 198 243 284 337
#     4  12  23  38  61  88 120 152 191 244 293 350
#     4  12  21  36  59  88 119 151 191 242 297 338
#     4  10  23  38  58  89 116 150 195 239 291 345
#     4  10  20  38  63  86 111 153 200 241 280 340
#     4  10  21  36  62  83 115 149 194 244 289 342
#
# _framework density 23.969687
#
# number of rings (size 3 to 8) (size 9 to 14) (size 15 to 20)
#    0.000    1.500    2.500    3.000    3.500    4.000 
#    0.000    1.250    5.500    0.000    0.000    0.000 
#    0.000    0.000    0.000    0.000    0.000    0.000 
#
# Total GULP energy -396791.910808 kJ/mol
# GULP energy per Si atom -12399.747213 kJ/mol
# Density = 2.391513 g / cm^3
# Si number density = 23.969687 Si / 1000 Ang^3
#
#
#
# Elastic Constant Matrix: (Units=GPa)
#
#
# Indices 1 2 3 4 5 6 
#
# 1 258.6563 5.7671 93.0548 0.0000 0.0000 0.0000
# 2 5.7671 40.5870 1.9248 0.0000 0.0000 0.0000
# 3 93.0548 1.9248 155.0647 0.0000 0.0000 0.0000
# 4 0.0000 0.0000 0.0000 32.1196 0.0000 0.0000
# 5 0.0000 0.0000 0.0000 0.0000 60.5425 0.0000
# 6 0.0000 0.0000 0.0000 0.0000 0.0000 -7.8702
#
#
#
# Elastic Compliance Matrix: (Units=1/GPa)
#
#
# Indices 1 2 3 4 5 6 
#
# 1 0.004943 -0.000562 -0.002960 0.000000 0.000000 0.000000
# 2 -0.000562 0.024717 0.000030 0.000000 0.000000 0.000000
# 3 -0.002960 0.000030 0.008225 0.000000 0.000000 0.000000
# 4 0.000000 0.000000 0.000000 0.031134 0.000000 0.000000
# 5 0.000000 0.000000 0.000000 0.000000 0.016517 0.000000
# 6 0.000000 0.000000 0.000000 0.000000 0.000000 -0.127062
#
#
# Mechanical properties :
#
#
# Convention : Reuss Voigt Hill
#
# Bulk Modulus (GPa) = 32.35976 72.86680 52.61328
# Shear Modulus (GPa) = -206.24641 40.52914 -82.85863
#
# Velocity S-wave (km/s) = -9.28609 4.11646 -5.88584
# Velocity P-wave (km/s) = 10.07203 7.28417 4.91867
#
# Compressibility (1/GPa) = 0.03090258
#
# Stress axis : x y z
#
# Youngs Moduli (GPa) = 202.28947 40.45818 121.58658
#
# Poissons Ratio (x) = 0.02274 0.35984
# Poissons Ratio (y) = 0.11370 -0.00371
# Poissons Ratio (z) = 0.59869 -0.00123
#
# Static dielectric constant tensor:
#      x y z
#    x 4.546070 0.000000 0.000000 
#    y 0.000000 6.931210 0.000000 
#    z 0.000000 0.000000 4.293380 
# 
# 
# High freq. dielectric constant tensor:
#      x y z
#    x 1.969460 0.000000 0.000000 
#    y 0.000000 1.939510 0.000000 
#    z 0.000000 0.000000 1.961550 
# 
# From -- ./inp_files/22053.got.cif
#   From: 2010.03.12/outbox.cif.g09.slc.cpg/sg64_12_cif.got.tgz:22053.got - 2010.04.10 20:19:32.
