data_PCOD8263674
_publ_section_title
;
Structure prediction by ZEFSAII (Michael W. Deem and Ramdas Pophale) SiO2 
 PCOD8263674
Probable space group: C M C A
;
_chemical_formula_sum "Si O2"
_cell_formula_units_Z 80
_cell_length_a 9.337436
_cell_length_b 28.410474
_cell_length_c 15.492074
_cell_angle_alpha 90.000000
_cell_angle_beta 90.000000
_cell_angle_gamma 90.000000
_cell_volume 4109.752615
_symmetry_space_group_name_H-M "C M C A"
_symmetry_group_IT_number 64
_symmetry_cell_setting 'orthorhombic'
loop_
_space_group_symop_operation_xyz
x,y,z
-x,1/2-y,1/2+z
x,-y,-z
-x,1/2+y,1/2-z
-x,-y,-z
x,1/2+y,1/2-z
-x,y,z
x,1/2-y,1/2+z
1/2+x,1/2+y,z
1/2-x,-y,1/2+z
1/2+x,1/2-y,-z
1/2-x,y,1/2-z
1/2-x,1/2-y,-z
1/2+x,y,1/2-z
1/2-x,1/2+y,z
1/2+x,-y,1/2+z
loop_
_atom_site_type_symbol
_atom_site_label
_atom_site_fract_x
_atom_site_fract_y
_atom_site_fract_z
Si Si1 0.664605 0.944644 0.491683
Si Si2 0.165451 0.604403 0.332184
Si Si3 0.831920 0.100520 0.664554
Si Si4 0.164582 0.803335 0.416395
Si Si5 0.834845 0.199174 0.087225
O O1 0.500000 0.930200 0.471557
O O2 0.716728 0.921748 0.581360
O O3 0.768023 0.927032 0.416478
O O4 0.680877 0.000000 0.500000
O O5 0.250000 0.584266 0.250000
O O6 0.198424 0.660364 0.340077
O O7 0.000000 0.594013 0.315119
O O8 0.750000 0.083425 0.750000
O O9 0.805283 0.156648 0.654416
O O10 0.000000 0.088748 0.672767
O O11 0.208149 0.751574 0.379552
O O12 0.252214 0.815362 0.501444
O O13 0.000000 0.803715 0.444544
O O14 0.000000 0.197014 0.061064
#
# Coordination Sequence:
#
# PCOD8263674 Si02
#       5
#    16  16  16  16  16
#     4  10  22  42  64  85 112 147 190 241 296 346
#     4  10  21  36  57  84 114 148 184 230 282 339
#     4  11  23  38  59  87 119 153 192 236 284 342
#     4   9  18  32  53  82 113 148 189 232 277 332
#     4   9  17  32  54  80 112 149 189 231 280 333
#
# _framework density 19.465892
#
# number of rings (size 3 to 8) (size 9 to 14) (size 15 to 20)
#    0.000    2.200    2.000    0.600    0.000    4.400 
#    0.000    2.000    0.000    0.000    0.000    0.000 
#    0.000    0.000    0.000    0.000    0.000    0.000 
#
# Total GULP energy -495940.944776 kJ/mol
# GULP energy per Si atom -12398.523619 kJ/mol
# Density = 1.942159 g / cm^3
# Si number density = 19.465892 Si / 1000 Ang^3
#
#
#
# Elastic Constant Matrix: (Units=GPa)
#
#
# Indices 1 2 3 4 5 6 
#
# 1 81.4783 37.0217 69.8999 0.0000 0.0000 0.0000
# 2 37.0217 78.2220 45.5769 0.0000 0.0000 0.0000
# 3 69.8999 45.5769 141.5200 0.0000 0.0000 0.0000
# 4 0.0000 0.0000 0.0000 11.9341 0.0000 0.0000
# 5 0.0000 0.0000 0.0000 0.0000 37.6960 0.0000
# 6 0.0000 0.0000 0.0000 0.0000 0.0000 21.2362
#
#
#
# Elastic Compliance Matrix: (Units=1/GPa)
#
#
# Indices 1 2 3 4 5 6 
#
# 1 0.022915 -0.005233 -0.009633 0.000000 0.000000 0.000000
# 2 -0.005233 0.016932 -0.002868 0.000000 0.000000 0.000000
# 3 -0.009633 -0.002868 0.012748 0.000000 0.000000 0.000000
# 4 0.000000 0.000000 0.000000 0.083793 0.000000 0.000000
# 5 0.000000 0.000000 0.000000 0.000000 0.026528 0.000000
# 6 0.000000 0.000000 0.000000 0.000000 0.000000 0.047089
#
#
# Mechanical properties :
#
#
# Convention : Reuss Voigt Hill
#
# Bulk Modulus (GPa) = 58.38877 67.35749 62.87313
# Shear Modulus (GPa) = 19.90585 24.08806 21.99696
#
# Velocity S-wave (km/s) = 3.20128 3.52156 3.36523
# Velocity P-wave (km/s) = 6.61248 7.15633 6.88977
#
# Compressibility (1/GPa) = 0.01712658
#
# Stress axis : x y z
#
# Youngs Moduli (GPa) = 43.63980 59.05968 78.44437
#
# Poissons Ratio (x) = 0.30904 0.75565
# Poissons Ratio (y) = 0.22835 0.22502
# Poissons Ratio (z) = 0.42038 0.16941
#
# Static dielectric constant tensor:
#      x y z
#    x 3.682840 0.000000 0.000000 
#    y 0.000000 3.777290 0.000000 
#    z 0.000000 0.000000 3.287430 
# 
# 
# High freq. dielectric constant tensor:
#      x y z
#    x 1.755500 0.000000 0.000000 
#    y 0.000000 1.766170 0.000000 
#    z 0.000000 0.000000 1.741270 
# 
# From -- ./inp_files/29792.got.cif
#   From: 2010.03.12/outbox.cif.g09.slc.cpg/sg64_15_cif.got.tgz:29792.got - 2010.04.10 20:19:32.
