data_PCOD8263937
_publ_section_title
;
Structure prediction by ZEFSAII (Michael W. Deem and Ramdas Pophale) SiO2 
 PCOD8263937
Probable space group: C M C A
;
_chemical_formula_sum "Si O2"
_cell_formula_units_Z 96
_cell_length_a 21.288927
_cell_length_b 14.108881
_cell_length_c 15.296960
_cell_angle_alpha 90.000000
_cell_angle_beta 90.000000
_cell_angle_gamma 90.000000
_cell_volume 4594.639843
_symmetry_space_group_name_H-M "C M C A"
_symmetry_group_IT_number 64
_symmetry_cell_setting 'orthorhombic'
loop_
_space_group_symop_operation_xyz
x,y,z
-x,1/2-y,1/2+z
x,-y,-z
-x,1/2+y,1/2-z
-x,-y,-z
x,1/2+y,1/2-z
-x,y,z
x,1/2-y,1/2+z
1/2+x,1/2+y,z
1/2-x,-y,1/2+z
1/2+x,1/2-y,-z
1/2-x,y,1/2-z
1/2-x,1/2-y,-z
1/2+x,y,1/2-z
1/2-x,1/2+y,z
1/2+x,-y,1/2+z
loop_
_atom_site_type_symbol
_atom_site_label
_atom_site_fract_x
_atom_site_fract_y
_atom_site_fract_z
Si Si1 0.198831 0.031569 0.358053
Si Si2 0.604806 0.500000 0.500000
Si Si3 0.000000 0.857689 0.286829
Si Si4 0.000000 0.357799 0.028467
Si Si5 0.500000 0.682320 0.328593
Si Si6 0.125945 0.843228 0.761920
Si Si7 0.633650 0.618460 0.747858
Si Si8 0.658813 0.485469 0.899904
O O1 0.187037 0.110478 0.283739
O O2 0.267427 0.037824 0.398090
O O3 0.148952 0.054402 0.432583
O O4 0.185666 0.928162 0.315410
O O5 0.561462 0.578876 0.543526
O O6 0.000000 0.797421 0.380346
O O7 0.063696 0.919217 0.278544
O O8 0.000000 0.788795 0.204440
O O9 0.000000 0.308250 0.934413
O O10 0.562600 0.630975 0.292520
O O11 0.137121 0.731114 0.766090
O O12 0.122061 0.895031 0.857039
O O13 0.645782 0.583327 0.847156
O O14 0.636658 0.500000 0.000000
#
# Coordination Sequence:
#
# PCOD8263937 Si02
#       8
#    16   8   8   8   8  16  16  16
#     4  11  21  39  63  87 123 162 203 255 305 360
#     4  11  20  32  60  92 114 147 214 256 292 353
#     4  10  21  39  61  94 123 155 199 264 309 371
#     4  11  20  36  66  88 116 159 206 255 326 354
#     4  10  21  39  61  94 123 155 199 264 309 371
#     4  10  22  42  63  89 124 161 204 257 315 364
#     4  10  22  42  63  89 124 161 204 257 315 364
#     4  11  25  42  61  89 128 170 209 251 313 379
#
# _framework density 20.893912
#
# number of rings (size 3 to 8) (size 9 to 14) (size 15 to 20)
#    0.000    1.500    4.167    2.000    0.000    5.333 
#   15.000    2.500    0.000    0.000    0.000    0.000 
#    0.000    0.000    0.000    0.000    0.000    0.000 
#
# Total GULP energy -594647.667245 kJ/mol
# GULP energy per Si atom -12388.493068 kJ/mol
# Density = 2.084636 g / cm^3
# Si number density = 20.893912 Si / 1000 Ang^3
#
#
#
# Elastic Constant Matrix: (Units=GPa)
#
#
# Indices 1 2 3 4 5 6 
#
# 1 78.4683 7.0890 26.6084 0.0000 0.0000 0.0000
# 2 7.0890 95.0573 -0.0255 0.0000 0.0000 0.0000
# 3 26.6084 -0.0255 101.8599 0.0000 0.0000 0.0000
# 4 0.0000 0.0000 0.0000 23.7637 0.0000 0.0000
# 5 0.0000 0.0000 0.0000 0.0000 54.0091 0.0000
# 6 0.0000 0.0000 0.0000 0.0000 0.0000 15.5690
#
#
#
# Elastic Compliance Matrix: (Units=1/GPa)
#
#
# Indices 1 2 3 4 5 6 
#
# 1 0.014087 -0.001052 -0.003680 0.000000 0.000000 0.000000
# 2 -0.001052 0.010598 0.000277 0.000000 0.000000 0.000000
# 3 -0.003680 0.000277 0.010779 0.000000 0.000000 0.000000
# 4 0.000000 0.000000 0.000000 0.042081 0.000000 0.000000
# 5 0.000000 0.000000 0.000000 0.000000 0.018515 0.000000
# 6 0.000000 0.000000 0.000000 0.000000 0.000000 0.064230
#
#
# Mechanical properties :
#
#
# Convention : Reuss Voigt Hill
#
# Bulk Modulus (GPa) = 37.65689 38.08103 37.86896
# Shear Modulus (GPa) = 28.08180 34.78261 31.43220
#
# Velocity S-wave (km/s) = 3.67006 4.08453 3.88283
# Velocity P-wave (km/s) = 6.00176 6.36474 6.18592
#
# Compressibility (1/GPa) = 0.02655557
#
# Stress axis : x y z
#
# Youngs Moduli (GPa) = 70.98789 94.35329 92.77461
#
# Poissons Ratio (x) = 0.09922 0.34142
# Poissons Ratio (y) = 0.07465 -0.02573
# Poissons Ratio (z) = 0.26124 -0.02617
#
# Static dielectric constant tensor:
#      x y z
#    x 4.131440 0.000000 0.000000 
#    y 0.000000 3.411940 0.000000 
#    z 0.000000 0.000000 3.960760 
# 
# 
# High freq. dielectric constant tensor:
#      x y z
#    x 1.830620 0.000000 0.000000 
#    y 0.000000 1.786760 0.000000 
#    z 0.000000 0.000000 1.826950 
# 
# From -- ./inp_files/26403.got.cif
#   From: 2010.03.12/outbox.cif.g09.slc.cpg/sg64_14_cif.got.tgz:26403.got - 2010.04.10 20:19:32.
