data_PCOD8263419
_publ_section_title
;
Structure prediction by ZEFSAII (Michael W. Deem and Ramdas Pophale) SiO2 
 PCOD8263419
Probable space group: C M C A
;
_chemical_formula_sum "Si O2"
_cell_formula_units_Z 104
_cell_length_a 23.783374
_cell_length_b 23.972346
_cell_length_c 8.520215
_cell_angle_alpha 90.000000
_cell_angle_beta 90.000000
_cell_angle_gamma 90.000000
_cell_volume 4857.743246
_symmetry_space_group_name_H-M "C M C A"
_symmetry_group_IT_number 64
_symmetry_cell_setting 'orthorhombic'
loop_
_space_group_symop_operation_xyz
x,y,z
-x,1/2-y,1/2+z
x,-y,-z
-x,1/2+y,1/2-z
-x,-y,-z
x,1/2+y,1/2-z
-x,y,z
x,1/2-y,1/2+z
1/2+x,1/2+y,z
1/2-x,-y,1/2+z
1/2+x,1/2-y,-z
1/2-x,y,1/2-z
1/2-x,1/2-y,-z
1/2+x,y,1/2-z
1/2-x,1/2+y,z
1/2+x,-y,1/2+z
loop_
_atom_site_type_symbol
_atom_site_label
_atom_site_fract_x
_atom_site_fract_y
_atom_site_fract_z
Si Si1 0.830937 0.086562 0.916360
Si Si2 0.937648 0.690930 0.997745
Si Si3 0.115456 0.000000 0.500000
Si Si4 0.063183 0.412019 0.211875
Si Si5 0.702759 0.704685 0.948331
Si Si6 0.812398 0.530012 0.269657
Si Si7 0.371751 0.234141 0.279971
O O1 0.892091 0.104813 0.846637
O O2 0.807543 0.036106 0.810238
O O3 0.785243 0.138543 0.915971
O O4 0.842449 0.064495 0.092216
O O5 0.934081 0.628870 0.935530
O O6 0.922637 0.730885 0.852430
O O7 0.000000 0.706420 0.056090
O O8 0.894261 0.695247 0.141075
O O9 0.077121 0.970698 0.369070
O O10 0.155507 0.959771 0.604822
O O11 0.000000 0.413278 0.285060
O O12 0.655714 0.697987 0.082847
O O13 0.750000 0.750000 0.000000
O O14 0.677256 0.726022 0.785505
O O15 0.750000 0.554224 0.250000
#
# Coordination Sequence:
#
# PCOD8263419 Si02
#       7
#    16  16   8  16  16  16  16
#     4  10  22  42  62  90 129 161 214 257 310 388
#     4  10  20  38  62  87 118 163 206 257 313 363
#     4  10  21  38  64  94 130 154 219 266 314 372
#     4  10  21  40  64  92 125 167 205 261 323 372
#     4  11  23  40  59  88 126 168 200 254 312 372
#     4  10  22  41  64  93 120 171 209 262 321 370
#     4  10  22  38  57  87 124 154 215 249 307 365
#
# _framework density 21.409117999999999
#
# number of rings (size 3 to 8) (size 9 to 14) (size 15 to 20)
#    0.000    1.846    1.538    2.077    2.154    2.462 
#    5.538    7.692    0.000    0.000    0.000    0.000 
#    0.000    0.000    0.000    0.000    0.000    0.000 
#
# Total GULP energy -644380.220364 kJ/mol
# GULP energy per Si atom -12391.927315 kJ/mol
# Density = 2.136039 g / cm^3
# Si number density = 21.409118 Si / 1000 Ang^3
#
#
#
# Elastic Constant Matrix: (Units=GPa)
#
#
# Indices 1 2 3 4 5 6 
#
# 1 81.9665 21.7156 15.9046 0.0000 0.0000 0.0000
# 2 21.7156 84.3303 4.6390 0.0000 0.0000 0.0000
# 3 15.9046 4.6390 87.4600 0.0000 0.0000 0.0000
# 4 0.0000 0.0000 0.0000 18.6000 0.0000 0.0000
# 5 0.0000 0.0000 0.0000 0.0000 27.3630 0.0000
# 6 0.0000 0.0000 0.0000 0.0000 0.0000 26.8678
#
#
#
# Elastic Compliance Matrix: (Units=1/GPa)
#
#
# Indices 1 2 3 4 5 6 
#
# 1 0.013533 -0.003359 -0.002283 0.000000 0.000000 0.000000
# 2 -0.003359 0.012727 -0.000064 0.000000 0.000000 0.000000
# 3 -0.002283 -0.000064 0.011852 0.000000 0.000000 0.000000
# 4 0.000000 0.000000 0.000000 0.053763 0.000000 0.000000
# 5 0.000000 0.000000 0.000000 0.000000 0.036546 0.000000
# 6 0.000000 0.000000 0.000000 0.000000 0.000000 0.037219
#
#
# Mechanical properties :
#
#
# Convention : Reuss Voigt Hill
#
# Bulk Modulus (GPa) = 37.45375 37.58614 37.51995
# Shear Modulus (GPa) = 26.88855 28.66600 27.77728
#
# Velocity S-wave (km/s) = 3.54777 3.66315 3.60592
# Velocity P-wave (km/s) = 5.85786 5.95700 5.90764
#
# Compressibility (1/GPa) = 0.02669960
#
# Stress axis : x y z
#
# Youngs Moduli (GPa) = 73.89321 78.57501 84.37157
#
# Poissons Ratio (x) = 0.26395 0.19260
# Poissons Ratio (y) = 0.24823 0.00541
# Poissons Ratio (z) = 0.16868 0.00504
#
# Static dielectric constant tensor:
#      x y z
#    x 3.883170 0.000000 0.000000 
#    y 0.000000 3.762200 0.000000 
#    z 0.000000 0.000000 3.876840 
# 
# 
# High freq. dielectric constant tensor:
#      x y z
#    x 1.829300 0.000000 0.000000 
#    y 0.000000 1.829880 0.000000 
#    z 0.000000 0.000000 1.849750 
# 
# From -- ./inp_files/10422.got.cif
#   From: 2010.03.12/outbox.cif.g09.slc.cpg/sg64_6_cif.got.tgz:10422.got - 2010.04.10 20:19:32.
