data_PCOD8263208
_publ_section_title
;
Structure prediction by ZEFSAII (Michael W. Deem and Ramdas Pophale) SiO2 
 PCOD8263208
Probable space group: C M C A
;
_chemical_formula_sum "Si O2"
_cell_formula_units_Z 96
_cell_length_a 16.293853
_cell_length_b 12.061786
_cell_length_c 23.800087
_cell_angle_alpha 90.000000
_cell_angle_beta 90.000000
_cell_angle_gamma 90.000000
_cell_volume 4677.501737
_symmetry_space_group_name_H-M "C M C A"
_symmetry_group_IT_number 64
_symmetry_cell_setting 'orthorhombic'
loop_
_space_group_symop_operation_xyz
x,y,z
-x,1/2-y,1/2+z
x,-y,-z
-x,1/2+y,1/2-z
-x,-y,-z
x,1/2+y,1/2-z
-x,y,z
x,1/2-y,1/2+z
1/2+x,1/2+y,z
1/2-x,-y,1/2+z
1/2+x,1/2-y,-z
1/2-x,y,1/2-z
1/2-x,1/2-y,-z
1/2+x,y,1/2-z
1/2-x,1/2+y,z
1/2+x,-y,1/2+z
loop_
_atom_site_type_symbol
_atom_site_label
_atom_site_fract_x
_atom_site_fract_y
_atom_site_fract_z
Si Si1 0.323960 0.546373 0.582394
Si Si2 0.093467 0.603419 0.807096
Si Si3 0.789599 0.311334 0.691926
Si Si4 0.826842 0.678302 0.019401
Si Si5 0.330085 0.182858 0.616702
Si Si6 0.907766 0.995612 0.188358
O O1 0.382133 0.536419 0.636674
O O2 0.369602 0.631032 0.537442
O O3 0.303393 0.428670 0.555881
O O4 0.235282 0.592306 0.597696
O O5 0.151920 0.707231 0.797562
O O6 0.104710 0.520954 0.754869
O O7 0.000000 0.644973 0.811548
O O8 0.750000 0.349928 0.750000
O O9 0.717246 0.281964 0.648873
O O10 0.843337 0.412490 0.667111
O O11 0.876106 0.760674 0.062277
O O12 0.750000 0.750000 0.000000
O O13 0.395194 0.121590 0.656448
O O14 0.000000 0.036504 0.175619
#
# Coordination Sequence:
#
# PCOD8263208 Si02
#       6
#    16  16  16  16  16  16
#     4   9  19  34  59  86 114 154 209 254 300 358
#     4  10  22  39  56  84 125 161 194 247 311 366
#     4  11  22  35  61  86 115 156 207 240 292 361
#     4   9  18  35  56  87 118 148 203 265 304 337
#     4  10  20  36  59  87 116 159 203 250 294 362
#     4  11  24  38  55  87 127 159 194 248 311 365
#
# _framework density 20.523778
#
# number of rings (size 3 to 8) (size 9 to 14) (size 15 to 20)
#    0.000    2.000    1.667    1.500    7.000    0.000 
#    0.000    3.333    0.000    0.000    0.000   30.333 
#    0.000    0.000    0.000    0.000    0.000    0.000 
#
# Total GULP energy -594695.812057 kJ/mol
# GULP energy per Si atom -12389.496085 kJ/mol
# Density = 2.047706 g / cm^3
# Si number density = 20.523778 Si / 1000 Ang^3
#
#
#
# Elastic Constant Matrix: (Units=GPa)
#
#
# Indices 1 2 3 4 5 6 
#
# 1 50.5897 23.5007 19.2633 0.0000 0.0000 0.0000
# 2 23.5007 83.0773 35.8242 0.0000 0.0000 0.0000
# 3 19.2633 35.8242 103.3030 0.0000 0.0000 0.0000
# 4 0.0000 0.0000 0.0000 38.0935 0.0000 0.0000
# 5 0.0000 0.0000 0.0000 0.0000 10.3395 0.0000
# 6 0.0000 0.0000 0.0000 0.0000 0.0000 24.3743
#
#
#
# Elastic Compliance Matrix: (Units=1/GPa)
#
#
# Indices 1 2 3 4 5 6 
#
# 1 0.023259 -0.005537 -0.002417 0.000000 0.000000 0.000000
# 2 -0.005537 0.015472 -0.004333 0.000000 0.000000 0.000000
# 3 -0.002417 -0.004333 0.011634 0.000000 0.000000 0.000000
# 4 0.000000 0.000000 0.000000 0.026251 0.000000 0.000000
# 5 0.000000 0.000000 0.000000 0.000000 0.096717 0.000000
# 6 0.000000 0.000000 0.000000 0.000000 0.000000 0.041027
#
#
# Mechanical properties :
#
#
# Convention : Reuss Voigt Hill
#
# Bulk Modulus (GPa) = 38.77409 43.79406 41.28408
# Shear Modulus (GPa) = 20.19949 25.12023 22.65986
#
# Velocity S-wave (km/s) = 3.14060 3.50231 3.32637
# Velocity P-wave (km/s) = 5.66431 6.14324 5.90863
#
# Compressibility (1/GPa) = 0.02579042
#
# Stress axis : x y z
#
# Youngs Moduli (GPa) = 42.99319 64.63386 85.95833
#
# Poissons Ratio (x) = 0.35790 0.20776
# Poissons Ratio (y) = 0.23807 0.37244
# Poissons Ratio (z) = 0.10391 0.28005
#
# Static dielectric constant tensor:
#      x y z
#    x 3.346900 0.000000 0.000000 
#    y 0.000000 3.741580 0.000000 
#    z 0.000000 0.000000 4.338600 
# 
# 
# High freq. dielectric constant tensor:
#      x y z
#    x 1.755370 0.000000 0.000000 
#    y 0.000000 1.811770 0.000000 
#    z 0.000000 0.000000 1.822570 
# 
# From -- ./inp_files/45736.got.cif
#   From: 2010.03.12/outbox.cif.g09.slc.cpg/sg64_23_cif.got.tgz:45736.got - 2010.04.10 20:19:32.
