data_PCOD8263591
_publ_section_title
;
Structure prediction by ZEFSAII (Michael W. Deem and Ramdas Pophale) SiO2 
 PCOD8263591
Probable space group: C M C A
;
_chemical_formula_sum "Si O2"
_cell_formula_units_Z 64
_cell_length_a 25.281426
_cell_length_b 15.343716
_cell_length_c 8.754901
_cell_angle_alpha 90.000000
_cell_angle_beta 90.000000
_cell_angle_gamma 90.000000
_cell_volume 3396.122582
_symmetry_space_group_name_H-M "C M C A"
_symmetry_group_IT_number 64
_symmetry_cell_setting 'orthorhombic'
loop_
_space_group_symop_operation_xyz
x,y,z
-x,1/2-y,1/2+z
x,-y,-z
-x,1/2+y,1/2-z
-x,-y,-z
x,1/2+y,1/2-z
-x,y,z
x,1/2-y,1/2+z
1/2+x,1/2+y,z
1/2-x,-y,1/2+z
1/2+x,1/2-y,-z
1/2-x,y,1/2-z
1/2-x,1/2-y,-z
1/2+x,y,1/2-z
1/2-x,1/2+y,z
1/2+x,-y,1/2+z
loop_
_atom_site_type_symbol
_atom_site_label
_atom_site_fract_x
_atom_site_fract_y
_atom_site_fract_z
Si Si1 0.301365 0.547013 0.155377
Si Si2 0.398017 0.508964 0.679828
Si Si3 0.397622 0.157904 0.349741
Si Si4 0.060165 0.681033 0.684120
O O1 0.250000 0.574253 0.250000
O O2 0.338135 0.480776 0.254339
O O3 0.335545 0.634841 0.120939
O O4 0.283973 0.500000 0.000000
O O5 0.396351 0.500000 0.500000
O O6 0.424026 0.421879 0.754143
O O7 0.432643 0.591610 0.724794
O O8 0.401020 0.246157 0.252722
O O9 0.428268 0.167381 0.507143
O O10 0.000000 0.712468 0.704569
#
# Coordination Sequence:
#
# PCOD8263591 Si02
#       4
#    16  16  16  16
#     4  10  20  42  68  95 123 166 211 266 327 374
#     4  10  21  40  64  91 130 165 215 267 311 386
#     4  10  23  41  60  96 129 161 218 265 312 387
#     4  12  23  40  65  91 131 173 212 265 319 376
#
# _framework density 18.845020000000002
#
# number of rings (size 3 to 8) (size 9 to 14) (size 15 to 20)
#    1.500    0.000    2.500    3.750    0.000    3.500 
#    0.000    2.500    0.000    0.000    0.000    0.000 
#    0.000    0.000    0.000    0.000    0.000    0.000 
#
# Total GULP energy -396669.484415 kJ/mol
# GULP energy per Si atom -12395.921388 kJ/mol
# Density = 1.880213 g / cm^3
# Si number density = 18.845020 Si / 1000 Ang^3
#
#
#
# Elastic Constant Matrix: (Units=GPa)
#
#
# Indices 1 2 3 4 5 6 
#
# 1 89.4598 19.4548 26.6950 0.0000 0.0000 0.0000
# 2 19.4548 116.2044 52.5934 0.0000 0.0000 0.0000
# 3 26.6950 52.5934 148.7499 0.0000 0.0000 0.0000
# 4 0.0000 0.0000 0.0000 33.6508 0.0000 0.0000
# 5 0.0000 0.0000 0.0000 0.0000 26.1946 0.0000
# 6 0.0000 0.0000 0.0000 0.0000 0.0000 18.7890
#
#
#
# Elastic Compliance Matrix: (Units=1/GPa)
#
#
# Indices 1 2 3 4 5 6 
#
# 1 0.011956 -0.001227 -0.001712 0.000000 0.000000 0.000000
# 2 -0.001227 0.010371 -0.003447 0.000000 0.000000 0.000000
# 3 -0.001712 -0.003447 0.008249 0.000000 0.000000 0.000000
# 4 0.000000 0.000000 0.000000 0.029717 0.000000 0.000000
# 5 0.000000 0.000000 0.000000 0.000000 0.038176 0.000000
# 6 0.000000 0.000000 0.000000 0.000000 0.000000 0.053223
#
#
# Mechanical properties :
#
#
# Convention : Reuss Voigt Hill
#
# Bulk Modulus (GPa) = 56.16547 61.32227 58.74387
# Shear Modulus (GPa) = 29.34340 32.77161 31.05750
#
# Velocity S-wave (km/s) = 3.95028 4.17466 4.06402
# Velocity P-wave (km/s) = 7.11863 7.47315 7.29804
#
# Compressibility (1/GPa) = 0.01780453
#
# Stress axis : x y z
#
# Youngs Moduli (GPa) = 83.64121 96.42409 121.23373
#
# Poissons Ratio (x) = 0.11830 0.20753
# Poissons Ratio (y) = 0.10262 0.41785
# Poissons Ratio (z) = 0.14318 0.33234
#
# Static dielectric constant tensor:
#      x y z
#    x 3.263400 0.000000 0.000000 
#    y 0.000000 2.413930 0.000000 
#    z 0.000000 0.000000 3.494690 
# 
# 
# High freq. dielectric constant tensor:
#      x y z
#    x 1.715360 0.000000 0.000000 
#    y 0.000000 1.722330 0.000000 
#    z 0.000000 0.000000 1.750560 
# 
# From -- ./inp_files/10870.got.cif
#   From: 2010.03.12/outbox.cif.g09.slc.cpg/sg64_6_cif.got.tgz:10870.got - 2010.04.10 20:19:32.
