data_PCOD8263217
_publ_section_title
;
Structure prediction by ZEFSAII (Michael W. Deem and Ramdas Pophale) SiO2 
 PCOD8263217
Probable space group: C M C A
;
_chemical_formula_sum "Si O2"
_cell_formula_units_Z 96
_cell_length_a 24.314443
_cell_length_b 22.579699
_cell_length_c 9.136953
_cell_angle_alpha 90.000000
_cell_angle_beta 90.000000
_cell_angle_gamma 90.000000
_cell_volume 5016.304189
_symmetry_space_group_name_H-M "C M C A"
_symmetry_group_IT_number 64
_symmetry_cell_setting 'orthorhombic'
loop_
_space_group_symop_operation_xyz
x,y,z
-x,1/2-y,1/2+z
x,-y,-z
-x,1/2+y,1/2-z
-x,-y,-z
x,1/2+y,1/2-z
-x,y,z
x,1/2-y,1/2+z
1/2+x,1/2+y,z
1/2-x,-y,1/2+z
1/2+x,1/2-y,-z
1/2-x,y,1/2-z
1/2-x,1/2-y,-z
1/2+x,y,1/2-z
1/2-x,1/2+y,z
1/2+x,-y,1/2+z
loop_
_atom_site_type_symbol
_atom_site_label
_atom_site_fract_x
_atom_site_fract_y
_atom_site_fract_z
Si Si1 0.802948 0.851606 0.351995
Si Si2 0.890400 0.762616 0.239921
Si Si3 0.156732 0.583457 0.397283
Si Si4 0.437439 0.173327 0.467260
Si Si5 0.810150 0.535795 0.698962
Si Si6 0.800308 0.823434 0.672798
O O1 0.750000 0.841550 0.250000
O O2 0.850103 0.803516 0.332624
O O3 0.830224 0.915975 0.318235
O O4 0.782077 0.849625 0.517954
O O5 0.928567 0.725335 0.349170
O O6 0.926521 0.800962 0.128806
O O7 0.852931 0.717559 0.147043
O O8 0.099291 0.615121 0.437748
O O9 0.148074 0.519922 0.314643
O O10 0.192503 0.570532 0.542931
O O11 0.190077 0.624275 0.287759
O O12 0.500000 0.151794 0.458092
O O13 0.750000 0.513105 0.750000
O O14 0.750000 0.786910 0.750000
#
# Coordination Sequence:
#
# PCOD8263217 Si02
#       6
#    16  16  16  16  16  16
#     4  11  22  34  57  88 123 162 191 237 296 364
#     4  11  22  38  59  88 117 154 200 249 305 358
#     4  10  22  39  58  88 120 159 203 240 293 352
#     4  11  23  42  64  85 115 156 208 261 302 345
#     4  10  20  36  60  85 123 156 192 234 286 359
#     4  11  22  34  56  87 124 160 191 235 298 368
#
# _framework density 19.137595999999998
#
# number of rings (size 3 to 8) (size 9 to 14) (size 15 to 20)
#    0.000    1.333    3.333    3.500    2.333    4.667 
#    0.000    1.667    0.000    0.000    0.000    2.333 
#    0.000    0.000    0.000    0.000    0.000    0.000 
#
# Total GULP energy -594907.291051 kJ/mol
# GULP energy per Si atom -12393.901897 kJ/mol
# Density = 1.909404 g / cm^3
# Si number density = 19.137596 Si / 1000 Ang^3
#
#
#
# Elastic Constant Matrix: (Units=GPa)
#
#
# Indices 1 2 3 4 5 6 
#
# 1 107.1144 40.6295 52.6532 0.0000 0.0000 0.0000
# 2 40.6295 102.0904 36.0744 0.0000 0.0000 0.0000
# 3 52.6532 36.0744 111.7721 0.0000 0.0000 0.0000
# 4 0.0000 0.0000 0.0000 17.1032 0.0000 0.0000
# 5 0.0000 0.0000 0.0000 0.0000 22.6331 0.0000
# 6 0.0000 0.0000 0.0000 0.0000 0.0000 22.7276
#
#
#
# Elastic Compliance Matrix: (Units=1/GPa)
#
#
# Indices 1 2 3 4 5 6 
#
# 1 0.013135 -0.003432 -0.005080 0.000000 0.000000 0.000000
# 2 -0.003432 0.011953 -0.002241 0.000000 0.000000 0.000000
# 3 -0.005080 -0.002241 0.012063 0.000000 0.000000 0.000000
# 4 0.000000 0.000000 0.000000 0.058469 0.000000 0.000000
# 5 0.000000 0.000000 0.000000 0.000000 0.044183 0.000000
# 6 0.000000 0.000000 0.000000 0.000000 0.000000 0.043999
#
#
# Mechanical properties :
#
#
# Convention : Reuss Voigt Hill
#
# Bulk Modulus (GPa) = 63.91898 64.41013 64.16456
# Shear Modulus (GPa) = 23.75041 25.26743 24.50892
#
# Velocity S-wave (km/s) = 3.52665 3.63754 3.58253
# Velocity P-wave (km/s) = 7.07497 7.16740 7.12134
#
# Compressibility (1/GPa) = 0.01564481
#
# Stress axis : x y z
#
# Youngs Moduli (GPa) = 76.13420 83.66040 82.89848
#
# Poissons Ratio (x) = 0.28715 0.42110
# Poissons Ratio (y) = 0.26132 0.18577
# Poissons Ratio (z) = 0.38674 0.18748
#
# Static dielectric constant tensor:
#      x y z
#    x 2.864660 0.000000 0.000000 
#    y 0.000000 3.714500 0.000000 
#    z 0.000000 0.000000 3.583210 
# 
# 
# High freq. dielectric constant tensor:
#      x y z
#    x 1.707420 0.000000 0.000000 
#    y 0.000000 1.752600 0.000000 
#    z 0.000000 0.000000 1.757640 
# 
# From -- ./inp_files/9464.got.cif
#   From: 2010.03.12/outbox.cif.g09.slc.cpg/sg64_5_cif.got.tgz:9464.got - 2010.04.10 20:19:32.
