data_PCOD8263155
_publ_section_title
;
Structure prediction by ZEFSAII (Michael W. Deem and Ramdas Pophale) SiO2 
 PCOD8263155
Probable space group: C M C A
;
_chemical_formula_sum "Si O2"
_cell_formula_units_Z 80
_cell_length_a 15.482125
_cell_length_b 28.750626
_cell_length_c 9.375712
_cell_angle_alpha 90.000000
_cell_angle_beta 90.000000
_cell_angle_gamma 90.000000
_cell_volume 4173.324291
_symmetry_space_group_name_H-M "C M C A"
_symmetry_group_IT_number 64
_symmetry_cell_setting 'orthorhombic'
loop_
_space_group_symop_operation_xyz
x,y,z
-x,1/2-y,1/2+z
x,-y,-z
-x,1/2+y,1/2-z
-x,-y,-z
x,1/2+y,1/2-z
-x,y,z
x,1/2-y,1/2+z
1/2+x,1/2+y,z
1/2-x,-y,1/2+z
1/2+x,1/2-y,-z
1/2-x,y,1/2-z
1/2-x,1/2-y,-z
1/2+x,y,1/2-z
1/2-x,1/2+y,z
1/2+x,-y,1/2+z
loop_
_atom_site_type_symbol
_atom_site_label
_atom_site_fract_x
_atom_site_fract_y
_atom_site_fract_z
Si Si1 0.336605 0.392525 0.327459
Si Si2 0.500000 0.944959 0.832125
Si Si3 0.842961 0.713932 0.808124
Si Si4 0.903131 0.289270 0.885406
Si Si5 0.164401 0.612956 0.163417
Si Si6 0.000000 0.549808 0.829158
O O1 0.250000 0.409516 0.250000
O O2 0.361735 0.340285 0.280734
O O3 0.320595 0.395967 0.496165
O O4 0.413993 0.424998 0.272217
O O5 0.585793 0.918593 0.778021
O O6 0.500000 0.997229 0.770776
O O7 0.500000 0.946806 0.001631
O O8 0.750000 0.728810 0.750000
O O9 0.909948 0.745838 0.721694
O O10 0.849927 0.725620 0.974864
O O11 0.858028 0.333089 0.808810
O O12 0.000000 0.304098 0.931243
O O13 0.250000 0.599195 0.250000
#
# Coordination Sequence:
#
# PCOD8263155 Si02
#       6
#    16   8  16  16  16   8
#     4   9  20  36  56  82 108 143 181 221 269 320
#     4   9  18  36  56  87 101 145 183 217 270 331
#     4  10  21  35  53  77 111 146 182 222 267 318
#     4  11  21  34  54  80 110 145 185 222 266 320
#     4  10  20  36  58  79 112 143 179 225 267 321
#     4   9  18  34  62  77 111 139 181 223 268 327
#
# _framework density 19.169370000000001
#
# number of rings (size 3 to 8) (size 9 to 14) (size 15 to 20)
#    0.000    2.200    1.000    1.800    5.600    4.000 
#    0.000    1.000    0.000    1.200    0.000    0.000 
#    0.000    0.000    0.000    0.000    0.000    0.000 
#
# Total GULP energy -496063.218063 kJ/mol
# GULP energy per Si atom -12401.580452 kJ/mol
# Density = 1.912574 g / cm^3
# Si number density = 19.169370 Si / 1000 Ang^3
#
#
#
# Elastic Constant Matrix: (Units=GPa)
#
#
# Indices 1 2 3 4 5 6 
#
# 1 155.2912 73.4769 44.1268 0.0000 0.0000 0.0000
# 2 73.4769 125.0553 49.6198 0.0000 0.0000 0.0000
# 3 44.1268 49.6198 45.9627 0.0000 0.0000 0.0000
# 4 0.0000 0.0000 0.0000 18.3439 0.0000 0.0000
# 5 0.0000 0.0000 0.0000 0.0000 24.7120 0.0000
# 6 0.0000 0.0000 0.0000 0.0000 0.0000 27.0884
#
#
#
# Elastic Compliance Matrix: (Units=1/GPa)
#
#
# Indices 1 2 3 4 5 6 
#
# 1 0.009654 -0.003489 -0.005501 0.000000 0.000000 0.000000
# 2 -0.003489 0.015250 -0.013113 0.000000 0.000000 0.000000
# 3 -0.005501 -0.013113 0.041195 0.000000 0.000000 0.000000
# 4 0.000000 0.000000 0.000000 0.054514 0.000000 0.000000
# 5 0.000000 0.000000 0.000000 0.000000 0.040466 0.000000
# 6 0.000000 0.000000 0.000000 0.000000 0.000000 0.036916
#
#
# Mechanical properties :
#
#
# Convention : Reuss Voigt Hill
#
# Bulk Modulus (GPa) = 45.68110 73.41737 59.54924
# Shear Modulus (GPa) = 20.04019 24.63457 22.33738
#
# Velocity S-wave (km/s) = 3.23681 3.58872 3.41730
# Velocity P-wave (km/s) = 6.15234 7.45348 6.83395
#
# Compressibility (1/GPa) = 0.02189089
#
# Stress axis : x y z
#
# Youngs Moduli (GPa) = 103.58745 65.57508 24.27498
#
# Poissons Ratio (x) = 0.22881 0.13354
# Poissons Ratio (y) = 0.36145 0.31832
# Poissons Ratio (z) = 0.56985 0.85990
#
# Static dielectric constant tensor:
#      x y z
#    x 3.564240 0.000000 0.000000 
#    y 0.000000 3.547570 0.000000 
#    z 0.000000 0.000000 3.171340 
# 
# 
# High freq. dielectric constant tensor:
#      x y z
#    x 1.757440 0.000000 0.000000 
#    y 0.000000 1.744700 0.000000 
#    z 0.000000 0.000000 1.713530 
# 
# From -- ./inp_files/7196.got.cif
#   From: 2010.03.12/outbox.cif.g09.slc.cpg/sg64_4_cif.got.tgz:7196.got - 2010.04.10 20:19:32.
