data_PCOD8263525
_publ_section_title
;
Structure prediction by ZEFSAII (Michael W. Deem and Ramdas Pophale) SiO2 
 PCOD8263525
Probable space group: C M C A
;
_chemical_formula_sum "Si O2"
_cell_formula_units_Z 96
_cell_length_a 24.478698
_cell_length_b 9.562774
_cell_length_c 21.125565
_cell_angle_alpha 90.000000
_cell_angle_beta 90.000000
_cell_angle_gamma 90.000000
_cell_volume 4945.162182
_symmetry_space_group_name_H-M "C M C A"
_symmetry_group_IT_number 64
_symmetry_cell_setting 'orthorhombic'
loop_
_space_group_symop_operation_xyz
x,y,z
-x,1/2-y,1/2+z
x,-y,-z
-x,1/2+y,1/2-z
-x,-y,-z
x,1/2+y,1/2-z
-x,y,z
x,1/2-y,1/2+z
1/2+x,1/2+y,z
1/2-x,-y,1/2+z
1/2+x,1/2-y,-z
1/2-x,y,1/2-z
1/2-x,1/2-y,-z
1/2+x,y,1/2-z
1/2-x,1/2+y,z
1/2+x,-y,1/2+z
loop_
_atom_site_type_symbol
_atom_site_label
_atom_site_fract_x
_atom_site_fract_y
_atom_site_fract_z
Si Si1 0.436667 0.202289 0.894486
Si Si2 0.711317 0.293441 0.357241
Si Si3 0.165308 0.716731 0.621067
Si Si4 0.872515 0.011362 0.315219
Si Si5 0.371849 0.933688 0.671690
Si Si6 0.342834 0.338013 0.485735
O O1 0.500000 0.200156 0.910744
O O2 0.421217 0.344557 0.857909
O O3 0.404147 0.191390 0.960746
O O4 0.420918 0.071235 0.850304
O O5 0.775627 0.290669 0.345139
O O6 0.685225 0.432283 0.325981
O O7 0.683857 0.156894 0.325970
O O8 0.700171 0.291889 0.432363
O O9 0.129854 0.834401 0.655668
O O10 0.135492 0.569299 0.628274
O O11 0.169938 0.746223 0.546852
O O12 0.887595 0.018729 0.241896
O O13 0.334575 0.500000 0.500000
#
# Coordination Sequence:
#
# PCOD8263525 Si02
#       6
#    16  16  16  16  16  16
#     4  10  23  44  63  82 115 155 197 258 315 343
#     4  10  22  35  56  88 125 162 188 232 288 350
#     4  12  20  36  61  86 120 160 198 233 289 355
#     4  10  21  40  58  87 122 156 197 238 285 361
#     4  10  23  37  58  90 121 150 195 247 290 343
#     4  10  20  40  58  86 117 152 205 246 288 355
#
# _framework density 19.412911000000001
#
# number of rings (size 3 to 8) (size 9 to 14) (size 15 to 20)
#    0.000    2.000    3.333    3.500    0.000    7.667 
#    0.000    2.500    0.000    0.000    0.000    0.000 
#    0.000    0.000    0.000    0.000    0.000    0.000 
#
# Total GULP energy -595335.987842 kJ/mol
# GULP energy per Si atom -12402.833080 kJ/mol
# Density = 1.936873 g / cm^3
# Si number density = 19.412911 Si / 1000 Ang^3
#
#
#
# Elastic Constant Matrix: (Units=GPa)
#
#
# Indices 1 2 3 4 5 6 
#
# 1 79.4736 19.9017 -13.7253 0.0000 0.0000 0.0000
# 2 19.9017 100.3180 1.9204 0.0000 0.0000 0.0000
# 3 -13.7253 1.9204 45.8967 0.0000 0.0000 0.0000
# 4 0.0000 0.0000 0.0000 31.9344 0.0000 0.0000
# 5 0.0000 0.0000 0.0000 0.0000 14.9979 0.0000
# 6 0.0000 0.0000 0.0000 0.0000 0.0000 15.4431
#
#
#
# Elastic Compliance Matrix: (Units=1/GPa)
#
#
# Indices 1 2 3 4 5 6 
#
# 1 0.014048 -0.002870 0.004321 0.000000 0.000000 0.000000
# 2 -0.002870 0.010562 -0.001300 0.000000 0.000000 0.000000
# 3 0.004321 -0.001300 0.023135 0.000000 0.000000 0.000000
# 4 0.000000 0.000000 0.000000 0.031314 0.000000 0.000000
# 5 0.000000 0.000000 0.000000 0.000000 0.066676 0.000000
# 6 0.000000 0.000000 0.000000 0.000000 0.000000 0.064754
#
#
# Mechanical properties :
#
#
# Convention : Reuss Voigt Hill
#
# Bulk Modulus (GPa) = 20.81280 26.87578 23.84429
# Shear Modulus (GPa) = 22.10416 26.98118 24.54267
#
# Velocity S-wave (km/s) = 3.37802 3.73212 3.55948
# Velocity P-wave (km/s) = 5.09501 5.69614 5.40394
#
# Compressibility (1/GPa) = 0.04804736
#
# Stress axis : x y z
#
# Youngs Moduli (GPa) = 71.18636 94.67483 43.22522
#
# Poissons Ratio (x) = 0.27168 -0.18677
# Poissons Ratio (y) = 0.20427 0.05620
# Poissons Ratio (z) = -0.30759 0.12309
#
# Static dielectric constant tensor:
#      x y z
#    x 3.190580 0.000000 0.000000 
#    y 0.000000 3.651600 0.000000 
#    z 0.000000 0.000000 3.616880 
# 
# 
# High freq. dielectric constant tensor:
#      x y z
#    x 1.723040 0.000000 0.000000 
#    y 0.000000 1.769870 0.000000 
#    z 0.000000 0.000000 1.763410 
# 
# From -- ./inp_files/41803.got.cif
#   From: 2010.03.12/outbox.cif.g09.slc.cpg/sg64_21_cif.got.tgz:41803.got - 2010.04.10 20:19:32.
