data_PCOD8263251
_publ_section_title
;
Structure prediction by ZEFSAII (Michael W. Deem and Ramdas Pophale) SiO2 
 PCOD8263251
Probable space group: C M C A
;
_chemical_formula_sum "Si O2"
_cell_formula_units_Z 104
_cell_length_a 9.341913
_cell_length_b 28.306284
_cell_length_c 18.957775
_cell_angle_alpha 90.000000
_cell_angle_beta 90.000000
_cell_angle_gamma 90.000000
_cell_volume 5013.096246
_symmetry_space_group_name_H-M "C M C A"
_symmetry_group_IT_number 64
_symmetry_cell_setting 'orthorhombic'
loop_
_space_group_symop_operation_xyz
x,y,z
-x,1/2-y,1/2+z
x,-y,-z
-x,1/2+y,1/2-z
-x,-y,-z
x,1/2+y,1/2-z
-x,y,z
x,1/2-y,1/2+z
1/2+x,1/2+y,z
1/2-x,-y,1/2+z
1/2+x,1/2-y,-z
1/2-x,y,1/2-z
1/2-x,1/2-y,-z
1/2+x,y,1/2-z
1/2-x,1/2+y,z
1/2+x,-y,1/2+z
loop_
_atom_site_type_symbol
_atom_site_label
_atom_site_fract_x
_atom_site_fract_y
_atom_site_fract_z
Si Si1 0.168974 0.001181 0.078643
Si Si2 0.338363 0.400163 0.119452
Si Si3 0.342358 0.763481 0.149958
Si Si4 0.335474 0.830861 0.028549
Si Si5 0.172132 0.582926 0.319045
Si Si6 0.250000 0.341469 0.250000
Si Si7 0.668563 0.175586 0.134408
O O1 0.221637 0.048115 0.118410
O O2 0.000000 0.003671 0.073283
O O3 0.216039 0.954467 0.122597
O O4 0.236420 0.000000 0.000000
O O5 0.500000 0.398915 0.092510
O O6 0.251409 0.374938 0.057963
O O7 0.332435 0.375571 0.195943
O O8 0.500000 0.740069 0.147077
O O9 0.298995 0.784111 0.073443
O O10 0.352038 0.806832 0.205350
O O11 0.223814 0.724333 0.170105
O O12 0.500000 0.844684 0.037068
O O13 0.295332 0.821291 0.948034
O O14 0.250000 0.562316 0.250000
O O15 0.238867 0.634129 0.332382
O O16 0.000000 0.585868 0.309853
O O17 0.500000 0.169179 0.150429
#
# Coordination Sequence:
#
# PCOD8263251 Si02
#       7
#    16  16  16  16  16   8  16
#     4   9  19  37  63  94 123 155 200 250 300 360
#     4  10  20  36  62  90 119 159 201 244 299 359
#     4  10  21  37  57  83 118 157 201 249 301 356
#     4   9  20  38  58  88 123 155 196 251 304 357
#     4  11  24  42  63  89 124 163 206 253 302 361
#     4  10  22  36  56  86 122 154 202 250 298 356
#     4  11  23  39  61  86 118 158 204 252 304 360
#
# _framework density 20.745660999999998
#
# number of rings (size 3 to 8) (size 9 to 14) (size 15 to 20)
#    0.000    2.000    0.000    2.769    2.154    6.154 
#    0.000    1.538    0.000    4.154    0.000    0.000 
#    0.000    0.000    0.000    0.000    0.000    0.000 
#
# Total GULP energy -644652.972725 kJ/mol
# GULP energy per Si atom -12397.172552 kJ/mol
# Density = 2.069844 g / cm^3
# Si number density = 20.745661 Si / 1000 Ang^3
#
#
#
# Elastic Constant Matrix: (Units=GPa)
#
#
# Indices 1 2 3 4 5 6 
#
# 1 81.1922 46.1205 24.9740 0.0000 0.0000 0.0000
# 2 46.1205 130.4987 47.6246 0.0000 0.0000 0.0000
# 3 24.9740 47.6246 110.8796 0.0000 0.0000 0.0000
# 4 0.0000 0.0000 0.0000 26.7517 0.0000 0.0000
# 5 0.0000 0.0000 0.0000 0.0000 27.5193 0.0000
# 6 0.0000 0.0000 0.0000 0.0000 0.0000 26.0058
#
#
#
# Elastic Compliance Matrix: (Units=1/GPa)
#
#
# Indices 1 2 3 4 5 6 
#
# 1 0.015580 -0.005011 -0.001357 0.000000 0.000000 0.000000
# 2 -0.005011 0.010699 -0.003467 0.000000 0.000000 0.000000
# 3 -0.001357 -0.003467 0.010813 0.000000 0.000000 0.000000
# 4 0.000000 0.000000 0.000000 0.037381 0.000000 0.000000
# 5 0.000000 0.000000 0.000000 0.000000 0.036338 0.000000
# 6 0.000000 0.000000 0.000000 0.000000 0.000000 0.038453
#
#
# Mechanical properties :
#
#
# Convention : Reuss Voigt Hill
#
# Bulk Modulus (GPa) = 57.39436 62.22320 59.80878
# Shear Modulus (GPa) = 28.61357 29.64545 29.12951
#
# Velocity S-wave (km/s) = 3.71786 3.78431 3.75123
# Velocity P-wave (km/s) = 6.79380 7.01093 6.90322
#
# Compressibility (1/GPa) = 0.01742331
#
# Stress axis : x y z
#
# Youngs Moduli (GPa) = 64.18328 93.46565 92.47763
#
# Poissons Ratio (x) = 0.46838 0.12548
# Poissons Ratio (y) = 0.32164 0.32060
# Poissons Ratio (z) = 0.08709 0.32402
#
# Static dielectric constant tensor:
#      x y z
#    x 3.531590 0.000000 0.000000 
#    y 0.000000 3.803490 0.000000 
#    z 0.000000 0.000000 4.133610 
# 
# 
# High freq. dielectric constant tensor:
#      x y z
#    x 1.794150 0.000000 0.000000 
#    y 0.000000 1.817060 0.000000 
#    z 0.000000 0.000000 1.822500 
# 
# From -- ./inp_files/37254.got.cif
#   From: 2010.03.12/outbox.cif.g09.slc.cpg/sg64_19_cif.got.tgz:37254.got - 2010.04.10 20:19:32.
