data_PCOD8263513
_publ_section_title
;
Structure prediction by ZEFSAII (Michael W. Deem and Ramdas Pophale) SiO2 
 PCOD8263513
Probable space group: C M C A
;
_chemical_formula_sum "Si O2"
_cell_formula_units_Z 64
_cell_length_a 15.511243
_cell_length_b 18.238521
_cell_length_c 10.096594
_cell_angle_alpha 90.000000
_cell_angle_beta 90.000000
_cell_angle_gamma 90.000000
_cell_volume 2856.347960
_symmetry_space_group_name_H-M "C M C A"
_symmetry_group_IT_number 64
_symmetry_cell_setting 'orthorhombic'
loop_
_space_group_symop_operation_xyz
x,y,z
-x,1/2-y,1/2+z
x,-y,-z
-x,1/2+y,1/2-z
-x,-y,-z
x,1/2+y,1/2-z
-x,y,z
x,1/2-y,1/2+z
1/2+x,1/2+y,z
1/2-x,-y,1/2+z
1/2+x,1/2-y,-z
1/2-x,y,1/2-z
1/2-x,1/2-y,-z
1/2+x,y,1/2-z
1/2-x,1/2+y,z
1/2+x,-y,1/2+z
loop_
_atom_site_type_symbol
_atom_site_label
_atom_site_fract_x
_atom_site_fract_y
_atom_site_fract_z
Si Si1 0.600024 0.563241 0.897813
Si Si2 0.156702 0.713841 0.515175
Si Si3 0.650517 0.683007 0.268182
Si Si4 0.900037 0.525897 0.141678
O O1 0.500000 0.584480 0.921007
O O2 0.661391 0.633013 0.920463
O O3 0.616067 0.538118 0.747356
O O4 0.627685 0.500000 0.000000
O O5 0.250000 0.750000 0.500000
O O6 0.105947 0.767827 0.616458
O O7 0.107390 0.703837 0.373873
O O8 0.750000 0.703836 0.250000
O O9 0.645952 0.598221 0.305282
O O10 0.000000 0.545294 0.126941
O O11 0.861851 0.500000 0.000000
#
# Coordination Sequence:
#
# PCOD8263513 Si02
#       4
#    16  16  16  16
#     4  10  20  39  67  92 120 164 212 260 316 375
#     4  10  22  40  61  87 128 165 209 260 312 379
#     4  10  22  41  58  90 125 167 210 257 316 375
#     4  10  22  41  64  93 127 161 211 267 313 372
#
# _framework density 22.406234999999999
#
# number of rings (size 3 to 8) (size 9 to 14) (size 15 to 20)
#    0.000    2.000    2.500    0.000    3.500    1.000 
#    9.000    0.000    0.000    0.000    0.000    0.000 
#    0.000    0.000    0.000    0.000    0.000    0.000 
#
# Total GULP energy -396614.063704 kJ/mol
# GULP energy per Si atom -12394.189491 kJ/mol
# Density = 2.235524 g / cm^3
# Si number density = 22.406235 Si / 1000 Ang^3
#
#
#
# Elastic Constant Matrix: (Units=GPa)
#
#
# Indices 1 2 3 4 5 6 
#
# 1 27.6162 36.1081 20.4655 0.0000 0.0000 0.0000
# 2 36.1081 165.9182 80.6808 0.0000 0.0000 0.0000
# 3 20.4655 80.6808 220.6099 0.0000 0.0000 0.0000
# 4 0.0000 0.0000 0.0000 51.7767 0.0000 0.0000
# 5 0.0000 0.0000 0.0000 0.0000 14.9758 0.0000
# 6 0.0000 0.0000 0.0000 0.0000 0.0000 11.7503
#
#
#
# Elastic Compliance Matrix: (Units=1/GPa)
#
#
# Indices 1 2 3 4 5 6 
#
# 1 0.050732 -0.010645 -0.000813 0.000000 0.000000 0.000000
# 2 -0.010645 0.009564 -0.002510 0.000000 0.000000 0.000000
# 3 -0.000813 -0.002510 0.005526 0.000000 0.000000 0.000000
# 4 0.000000 0.000000 0.000000 0.019314 0.000000 0.000000
# 5 0.000000 0.000000 0.000000 0.000000 0.066774 0.000000
# 6 0.000000 0.000000 0.000000 0.000000 0.000000 0.085104
#
#
# Mechanical properties :
#
#
# Convention : Reuss Voigt Hill
#
# Bulk Modulus (GPa) = 26.39551 76.51701 51.45626
# Shear Modulus (GPa) = 18.01277 34.15988 26.08632
#
# Velocity S-wave (km/s) = 2.83842 3.90881 3.41580
# Velocity P-wave (km/s) = 4.74849 7.38889 6.21063
#
# Compressibility (1/GPa) = 0.03788523
#
# Stress axis : x y z
#
# Youngs Moduli (GPa) = 19.71156 104.55417 180.94966
#
# Poissons Ratio (x) = 1.11299 0.14714
# Poissons Ratio (y) = 0.20983 0.45425
# Poissons Ratio (z) = 0.01603 0.26247
#
# Static dielectric constant tensor:
#      x y z
#    x 3.529130 0.000000 0.000000 
#    y 0.000000 3.969210 0.000000 
#    z 0.000000 0.000000 5.653880 
# 
# 
# High freq. dielectric constant tensor:
#      x y z
#    x 1.837060 0.000000 0.000000 
#    y 0.000000 1.885910 0.000000 
#    z 0.000000 0.000000 1.914890 
# 
# From -- ./inp_files/14039.got.cif
#   From: 2010.03.12/outbox.cif.g09.slc.cpg/sg64_8_cif.got.tgz:14039.got - 2010.04.10 20:19:32.
