data_PCOD8263378
_publ_section_title
;
Structure prediction by ZEFSAII (Michael W. Deem and Ramdas Pophale) SiO2 
 PCOD8263378
Probable space group: C M C A
;
_chemical_formula_sum "Si O2"
_cell_formula_units_Z 96
_cell_length_a 21.303134
_cell_length_b 9.138839
_cell_length_c 23.582034
_cell_angle_alpha 90.000000
_cell_angle_beta 90.000000
_cell_angle_gamma 90.000000
_cell_volume 4591.089792
_symmetry_space_group_name_H-M "C M C A"
_symmetry_group_IT_number 64
_symmetry_cell_setting 'orthorhombic'
loop_
_space_group_symop_operation_xyz
x,y,z
-x,1/2-y,1/2+z
x,-y,-z
-x,1/2+y,1/2-z
-x,-y,-z
x,1/2+y,1/2-z
-x,y,z
x,1/2-y,1/2+z
1/2+x,1/2+y,z
1/2-x,-y,1/2+z
1/2+x,1/2-y,-z
1/2-x,y,1/2-z
1/2-x,1/2-y,-z
1/2+x,y,1/2-z
1/2-x,1/2+y,z
1/2+x,-y,1/2+z
loop_
_atom_site_type_symbol
_atom_site_label
_atom_site_fract_x
_atom_site_fract_y
_atom_site_fract_z
Si Si1 0.606556 0.891997 0.276113
Si Si2 0.069035 0.634052 0.848899
Si Si3 0.813810 0.665023 0.275101
Si Si4 0.696165 0.045019 0.436361
Si Si5 0.302642 0.350651 0.386111
Si Si6 0.932270 0.468681 0.622018
O O1 0.573159 0.923705 0.215898
O O2 0.643359 0.738894 0.273947
O O3 0.559973 0.903052 0.329827
O O4 0.654356 0.018726 0.297195
O O5 0.126834 0.574235 0.888217
O O6 0.000000 0.589183 0.872996
O O7 0.077443 0.810529 0.847460
O O8 0.750000 0.606446 0.250000
O O9 0.799081 0.785942 0.322800
O O10 0.748399 0.969450 0.395960
O O11 0.625119 0.996990 0.420579
O O12 0.711033 0.000000 0.500000
O O13 0.703833 0.219989 0.431609
O O14 0.000000 0.467917 0.589545
#
# Coordination Sequence:
#
# PCOD8263378 Si02
#       6
#    16  16  16  16  16  16
#     4  11  18  35  51  82 113 155 188 220 273 338
#     4   9  19  35  56  82 114 153 186 219 275 342
#     4  11  22  31  54  83 123 152 185 223 277 342
#     4  11  22  40  63  85 109 148 198 247 298 340
#     4  10  22  39  58  85 115 149 187 241 290 335
#     4  10  20  38  57  83 118 149 189 237 284 335
#
# _framework density 20.910067999999999
#
# number of rings (size 3 to 8) (size 9 to 14) (size 15 to 20)
#    0.000    1.667    5.000    2.500    4.667    0.333 
#    0.000    0.000    0.000    0.500    0.000    0.000 
#    0.000    0.000    0.000    0.000    0.000    0.000 
#
# Total GULP energy -594637.189643 kJ/mol
# GULP energy per Si atom -12388.274784 kJ/mol
# Density = 2.086248 g / cm^3
# Si number density = 20.910068 Si / 1000 Ang^3
#
#
#
# Elastic Constant Matrix: (Units=GPa)
#
#
# Indices 1 2 3 4 5 6 
#
# 1 165.4084 18.0929 19.3083 0.0000 0.0000 0.0000
# 2 18.0929 26.9210 2.2059 0.0000 0.0000 0.0000
# 3 19.3083 2.2059 46.0403 0.0000 0.0000 0.0000
# 4 0.0000 0.0000 0.0000 26.0672 0.0000 0.0000
# 5 0.0000 0.0000 0.0000 0.0000 20.3863 0.0000
# 6 0.0000 0.0000 0.0000 0.0000 0.0000 18.6017
#
#
#
# Elastic Compliance Matrix: (Units=1/GPa)
#
#
# Indices 1 2 3 4 5 6 
#
# 1 0.006834 -0.004376 -0.002657 0.000000 0.000000 0.000000
# 2 -0.004376 0.040094 -0.000086 0.000000 0.000000 0.000000
# 3 -0.002657 -0.000086 0.022838 0.000000 0.000000 0.000000
# 4 0.000000 0.000000 0.000000 0.038362 0.000000 0.000000
# 5 0.000000 0.000000 0.000000 0.000000 0.049053 0.000000
# 6 0.000000 0.000000 0.000000 0.000000 0.000000 0.053759
#
#
# Mechanical properties :
#
#
# Convention : Reuss Voigt Hill
#
# Bulk Modulus (GPa) = 18.00824 35.28710 26.64767
# Shear Modulus (GPa) = 20.51821 26.26186 23.39004
#
# Velocity S-wave (km/s) = 3.13591 3.54777 3.34818
# Velocity P-wave (km/s) = 4.66292 5.80470 5.26485
#
# Compressibility (1/GPa) = 0.05553013
#
# Stress axis : x y z
#
# Youngs Moduli (GPa) = 146.31965 24.94169 43.78605
#
# Poissons Ratio (x) = 0.10913 0.11632
# Poissons Ratio (y) = 0.64023 0.00376
# Poissons Ratio (z) = 0.38870 0.00214
#
# Static dielectric constant tensor:
#      x y z
#    x 4.331350 0.000000 0.000000 
#    y 0.000000 3.557520 0.000000 
#    z 0.000000 0.000000 3.326590 
# 
# 
# High freq. dielectric constant tensor:
#      x y z
#    x 1.846450 0.000000 0.000000 
#    y 0.000000 1.789630 0.000000 
#    z 0.000000 0.000000 1.774800 
# 
# From -- ./inp_files/46615.got.cif
#   From: 2010.03.12/outbox.cif.g09.slc.cpg/sg64_24_cif.got.tgz:46615.got - 2010.04.10 20:19:32.
