data_PCOD8263032
_publ_section_title
;
Structure prediction by ZEFSAII (Michael W. Deem and Ramdas Pophale) SiO2 
 PCOD8263032
Probable space group: C M C A
;
_chemical_formula_sum "Si O2"
_cell_formula_units_Z 80
_cell_length_a 16.359057
_cell_length_b 25.368806
_cell_length_c 9.328641
_cell_angle_alpha 90.000000
_cell_angle_beta 90.000000
_cell_angle_gamma 90.000000
_cell_volume 3871.476907
_symmetry_space_group_name_H-M "C M C A"
_symmetry_group_IT_number 64
_symmetry_cell_setting 'orthorhombic'
loop_
_space_group_symop_operation_xyz
x,y,z
-x,1/2-y,1/2+z
x,-y,-z
-x,1/2+y,1/2-z
-x,-y,-z
x,1/2+y,1/2-z
-x,y,z
x,1/2-y,1/2+z
1/2+x,1/2+y,z
1/2-x,-y,1/2+z
1/2+x,1/2-y,-z
1/2-x,y,1/2-z
1/2-x,1/2-y,-z
1/2+x,y,1/2-z
1/2-x,1/2+y,z
1/2+x,-y,1/2+z
loop_
_atom_site_type_symbol
_atom_site_label
_atom_site_fract_x
_atom_site_fract_y
_atom_site_fract_z
Si Si1 0.339775 0.290150 0.697243
Si Si2 0.591503 0.707376 0.601888
Si Si3 0.095849 0.589416 0.880438
Si Si4 0.593032 0.005094 0.655801
Si Si5 0.160267 0.089636 0.308499
O O1 0.250000 0.275387 0.750000
O O2 0.401856 0.251361 0.776484
O O3 0.345968 0.280753 0.527170
O O4 0.362498 0.350514 0.733615
O O5 0.500000 0.708482 0.537933
O O6 0.608175 0.649781 0.670768
O O7 0.131663 0.550924 0.756645
O O8 0.000000 0.577222 0.913673
O O9 0.150877 0.580191 0.021655
O O10 0.500000 0.021964 0.630506
O O11 0.637001 0.000000 0.500000
O O12 0.596586 0.948574 0.731530
O O13 0.250000 0.075074 0.250000
#
# Coordination Sequence:
#
# PCOD8263032 Si02
#       5
#    16  16  16  16  16
#     4  10  21  37  55  79 113 147 181 227 284 336
#     4  10  20  35  57  84 110 143 190 233 273 330
#     4   9  19  37  58  79 108 146 183 223 276 333
#     4  10  21  36  55  81 110 141 181 229 279 329
#     4  10  21  36  55  80 108 143 185 224 270 331
#
# _framework density 20.663947
#
# number of rings (size 3 to 8) (size 9 to 14) (size 15 to 20)
#    0.000    2.200    0.000    2.400    0.000    7.200 
#    0.000    3.000    0.000    0.000    0.000    0.000 
#    0.000    0.000    0.000    0.000    0.000    0.000 
#
# Total GULP energy -495940.837970 kJ/mol
# GULP energy per Si atom -12398.520949 kJ/mol
# Density = 2.061692 g / cm^3
# Si number density = 20.663947 Si / 1000 Ang^3
#
#
#
# Elastic Constant Matrix: (Units=GPa)
#
#
# Indices 1 2 3 4 5 6 
#
# 1 46.7994 28.7742 33.7697 0.0000 0.0000 0.0000
# 2 28.7742 132.3689 86.4813 0.0000 0.0000 0.0000
# 3 33.7697 86.4813 137.6051 0.0000 0.0000 0.0000
# 4 0.0000 0.0000 0.0000 43.4208 0.0000 0.0000
# 5 0.0000 0.0000 0.0000 0.0000 26.0966 0.0000
# 6 0.0000 0.0000 0.0000 0.0000 0.0000 24.9372
#
#
#
# Elastic Compliance Matrix: (Units=1/GPa)
#
#
# Indices 1 2 3 4 5 6 
#
# 1 0.026468 -0.002562 -0.004886 0.000000 0.000000 0.000000
# 2 -0.002562 0.013066 -0.007583 0.000000 0.000000 0.000000
# 3 -0.004886 -0.007583 0.013232 0.000000 0.000000 0.000000
# 4 0.000000 0.000000 0.000000 0.023030 0.000000 0.000000
# 5 0.000000 0.000000 0.000000 0.000000 0.038319 0.000000
# 6 0.000000 0.000000 0.000000 0.000000 0.000000 0.040101
#
#
# Mechanical properties :
#
#
# Convention : Reuss Voigt Hill
#
# Bulk Modulus (GPa) = 44.04228 68.31374 56.17801
# Shear Modulus (GPa) = 26.06280 30.07413 28.06846
#
# Velocity S-wave (km/s) = 3.55529 3.81910 3.68955
# Velocity P-wave (km/s) = 6.18169 7.25110 6.73765
#
# Compressibility (1/GPa) = 0.02270546
#
# Stress axis : x y z
#
# Youngs Moduli (GPa) = 37.78117 76.53708 75.57610
#
# Poissons Ratio (x) = 0.19606 0.36924
# Poissons Ratio (y) = 0.09678 0.57307
# Poissons Ratio (z) = 0.18458 0.58036
#
# Static dielectric constant tensor:
#      x y z
#    x 3.499380 0.000000 0.000000 
#    y 0.000000 3.843600 0.000000 
#    z 0.000000 0.000000 3.749620 
# 
# 
# High freq. dielectric constant tensor:
#      x y z
#    x 1.787900 0.000000 0.000000 
#    y 0.000000 1.819920 0.000000 
#    z 0.000000 0.000000 1.804000 
# 
# From -- ./inp_files/7015.got.cif
#   From: 2010.03.12/outbox.cif.g09.slc.cpg/sg64_4_cif.got.tgz:7015.got - 2010.04.10 20:19:32.
