data_PCOD8263526
_publ_section_title
;
Structure prediction by ZEFSAII (Michael W. Deem and Ramdas Pophale) SiO2 
 PCOD8263526
Probable space group: C M C A
;
_chemical_formula_sum "Si O2"
_cell_formula_units_Z 112
_cell_length_a 29.578203
_cell_length_b 13.533841
_cell_length_c 14.828766
_cell_angle_alpha 90.000000
_cell_angle_beta 90.000000
_cell_angle_gamma 90.000000
_cell_volume 5936.054330
_symmetry_space_group_name_H-M "C M C A"
_symmetry_group_IT_number 64
_symmetry_cell_setting 'orthorhombic'
loop_
_space_group_symop_operation_xyz
x,y,z
-x,1/2-y,1/2+z
x,-y,-z
-x,1/2+y,1/2-z
-x,-y,-z
x,1/2+y,1/2-z
-x,y,z
x,1/2-y,1/2+z
1/2+x,1/2+y,z
1/2-x,-y,1/2+z
1/2+x,1/2-y,-z
1/2-x,y,1/2-z
1/2-x,1/2-y,-z
1/2+x,y,1/2-z
1/2-x,1/2+y,z
1/2+x,-y,1/2+z
loop_
_atom_site_type_symbol
_atom_site_label
_atom_site_fract_x
_atom_site_fract_y
_atom_site_fract_z
Si Si1 0.389269 0.542478 0.725153
Si Si2 0.449281 0.590859 0.566541
Si Si3 0.370298 0.234938 0.982343
Si Si4 0.153350 0.212674 0.816054
Si Si5 0.851339 0.120311 0.168233
Si Si6 0.184856 0.435721 0.081762
Si Si7 0.722980 0.458775 0.161833
O O1 0.432671 0.547337 0.661916
O O2 0.387793 0.644716 0.780738
O O3 0.391647 0.447183 0.789965
O O4 0.340995 0.530833 0.672620
O O5 0.447853 0.500000 0.500000
O O6 0.500000 0.632585 0.577015
O O7 0.417454 0.678486 0.532117
O O8 0.371223 0.335981 0.925005
O O9 0.328077 0.177020 0.938848
O O10 0.362294 0.245643 0.088158
O O11 0.163324 0.298629 0.743179
O O12 0.198010 0.146190 0.827882
O O13 0.809992 0.049534 0.138603
O O14 0.238883 0.446610 0.084968
O O15 0.164862 0.500000 0.000000
O O16 0.750000 0.487864 0.250000
#
# Coordination Sequence:
#
# PCOD8263526 Si02
#       7
#    16  16  16  16  16  16  16
#     4  10  20  40  59  84 123 154 189 244 311 352
#     4  10  20  40  69  95 117 146 201 255 298 363
#     4  11  23  38  62  88 119 164 199 244 314 364
#     4  11  22  39  57  84 121 164 201 248 299 359
#     4  11  21  38  59  83 118 164 198 246 303 355
#     4  11  21  39  54  79 116 159 207 261 285 337
#     4  11  23  37  52  82 119 160 215 258 288 339
#
# _framework density 18.867750999999998
#
# number of rings (size 3 to 8) (size 9 to 14) (size 15 to 20)
#    0.000    1.286    5.714    3.429    2.000    4.000 
#    0.000    1.429    0.000    0.000    0.000    5.000 
#    0.000    0.000    0.000    0.000    0.000    0.000 
#
# Total GULP energy -694242.468499 kJ/mol
# GULP energy per Si atom -12397.186937 kJ/mol
# Density = 1.882481 g / cm^3
# Si number density = 18.867751 Si / 1000 Ang^3
#
#
#
# Elastic Constant Matrix: (Units=GPa)
#
#
# Indices 1 2 3 4 5 6 
#
# 1 116.3348 40.4002 34.1327 0.0000 0.0000 0.0000
# 2 40.4002 89.8646 15.7863 0.0000 0.0000 0.0000
# 3 34.1327 15.7863 72.2909 0.0000 0.0000 0.0000
# 4 0.0000 0.0000 0.0000 43.5023 0.0000 0.0000
# 5 0.0000 0.0000 0.0000 0.0000 12.3043 0.0000
# 6 0.0000 0.0000 0.0000 0.0000 0.0000 21.4118
#
#
#
# Elastic Compliance Matrix: (Units=1/GPa)
#
#
# Indices 1 2 3 4 5 6 
#
# 1 0.011408 -0.004349 -0.004437 0.000000 0.000000 0.000000
# 2 -0.004349 0.013230 -0.000835 0.000000 0.000000 0.000000
# 3 -0.004437 -0.000835 0.016110 0.000000 0.000000 0.000000
# 4 0.000000 0.000000 0.000000 0.022987 0.000000 0.000000
# 5 0.000000 0.000000 0.000000 0.000000 0.081273 0.000000
# 6 0.000000 0.000000 0.000000 0.000000 0.000000 0.046703
#
#
# Mechanical properties :
#
#
# Convention : Reuss Voigt Hill
#
# Bulk Modulus (GPa) = 46.50005 51.01430 48.75717
# Shear Modulus (GPa) = 22.92290 27.98841 25.45565
#
# Velocity S-wave (km/s) = 3.48936 3.85567 3.67708
# Velocity P-wave (km/s) = 6.39788 6.84968 6.62763
#
# Compressibility (1/GPa) = 0.02150535
#
# Stress axis : x y z
#
# Youngs Moduli (GPa) = 87.65790 75.58626 62.07236
#
# Poissons Ratio (x) = 0.32875 0.27539
# Poissons Ratio (y) = 0.38125 0.05186
# Poissons Ratio (z) = 0.38890 0.06315
#
# Static dielectric constant tensor:
#      x y z
#    x 3.361070 0.000000 0.000000 
#    y 0.000000 3.534890 0.000000 
#    z 0.000000 0.000000 3.648310 
# 
# 
# High freq. dielectric constant tensor:
#      x y z
#    x 1.700110 0.000000 0.000000 
#    y 0.000000 1.738860 0.000000 
#    z 0.000000 0.000000 1.745140 
# 
# From -- ./inp_files/28427.got.cif
#   From: 2010.03.12/outbox.cif.g09.slc.cpg/sg64_15_cif.got.tgz:28427.got - 2010.04.10 20:19:32.
