data_PCOD8263239
_publ_section_title
;
Structure prediction by ZEFSAII (Michael W. Deem and Ramdas Pophale) SiO2 
 PCOD8263239
Probable space group: C M C A
;
_chemical_formula_sum "Si O2"
_cell_formula_units_Z 96
_cell_length_a 17.685478
_cell_length_b 14.754654
_cell_length_c 18.731865
_cell_angle_alpha 90.000000
_cell_angle_beta 90.000000
_cell_angle_gamma 90.000000
_cell_volume 4887.951085
_symmetry_space_group_name_H-M "C M C A"
_symmetry_group_IT_number 64
_symmetry_cell_setting 'orthorhombic'
loop_
_space_group_symop_operation_xyz
x,y,z
-x,1/2-y,1/2+z
x,-y,-z
-x,1/2+y,1/2-z
-x,-y,-z
x,1/2+y,1/2-z
-x,y,z
x,1/2-y,1/2+z
1/2+x,1/2+y,z
1/2-x,-y,1/2+z
1/2+x,1/2-y,-z
1/2-x,y,1/2-z
1/2-x,1/2-y,-z
1/2+x,y,1/2-z
1/2-x,1/2+y,z
1/2+x,-y,1/2+z
loop_
_atom_site_type_symbol
_atom_site_label
_atom_site_fract_x
_atom_site_fract_y
_atom_site_fract_z
Si Si1 0.416399 0.752169 0.984844
Si Si2 0.586336 0.706640 0.823206
Si Si3 0.192096 0.909690 0.538368
Si Si4 0.173222 0.381885 0.794923
Si Si5 0.411533 0.497662 0.193378
Si Si6 0.364125 0.578824 0.049404
O O1 0.500000 0.795976 0.990761
O O2 0.404148 0.707117 0.908030
O O3 0.354005 0.828617 0.998756
O O4 0.410728 0.671892 0.042857
O O5 0.500000 0.728062 0.800718
O O6 0.641461 0.779918 0.787054
O O7 0.611448 0.607268 0.797172
O O8 0.181616 0.911140 0.623296
O O9 0.280231 0.897844 0.521433
O O10 0.161349 0.000000 0.500000
O O11 0.250000 0.389438 0.750000
O O12 0.110905 0.451689 0.765636
O O13 0.500000 0.506979 0.176750
O O14 0.364333 0.545323 0.130469
O O15 0.400056 0.500000 0.000000
#
# Coordination Sequence:
#
# PCOD8263239 Si02
#       6
#    16  16  16  16  16  16
#     4  10  20  36  61  88 121 158 199 250 298 356
#     4   9  20  38  59  85 118 159 196 241 304 354
#     4  10  23  42  62  86 122 164 203 247 303 362
#     4  11  22  41  60  87 119 160 202 244 301 364
#     4  11  22  38  62  89 120 157 201 254 301 356
#     4  11  20  36  61  92 121 152 198 250 304 359
#
# _framework density 19.640131
#
# number of rings (size 3 to 8) (size 9 to 14) (size 15 to 20)
#    0.000    1.667    3.333    1.500    0.000    2.333 
#    3.000    0.000    0.000    0.000    0.000    0.000 
#    0.000    0.000    0.000    0.000    0.000    0.000 
#
# Total GULP energy -595307.896950 kJ/mol
# GULP energy per Si atom -12402.247853 kJ/mol
# Density = 1.959543 g / cm^3
# Si number density = 19.640131 Si / 1000 Ang^3
#
#
#
# Elastic Constant Matrix: (Units=GPa)
#
#
# Indices 1 2 3 4 5 6 
#
# 1 81.1552 55.2813 12.9960 0.0000 0.0000 0.0000
# 2 55.2813 148.2510 46.1392 0.0000 0.0000 0.0000
# 3 12.9960 46.1392 65.5742 0.0000 0.0000 0.0000
# 4 0.0000 0.0000 0.0000 34.1808 0.0000 0.0000
# 5 0.0000 0.0000 0.0000 0.0000 18.6551 0.0000
# 6 0.0000 0.0000 0.0000 0.0000 0.0000 32.8201
#
#
#
# Elastic Compliance Matrix: (Units=1/GPa)
#
#
# Indices 1 2 3 4 5 6 
#
# 1 0.016613 -0.006620 0.001365 0.000000 0.000000 0.000000
# 2 -0.006620 0.011274 -0.006621 0.000000 0.000000 0.000000
# 3 0.001365 -0.006621 0.019638 0.000000 0.000000 0.000000
# 4 0.000000 0.000000 0.000000 0.029256 0.000000 0.000000
# 5 0.000000 0.000000 0.000000 0.000000 0.053605 0.000000
# 6 0.000000 0.000000 0.000000 0.000000 0.000000 0.030469
#
#
# Mechanical properties :
#
#
# Convention : Reuss Voigt Hill
#
# Bulk Modulus (GPa) = 42.06217 58.20148 50.13183
# Shear Modulus (GPa) = 25.97001 29.16878 27.56940
#
# Velocity S-wave (km/s) = 3.64028 3.85796 3.75070
# Velocity P-wave (km/s) = 6.25554 7.03871 6.65865
#
# Compressibility (1/GPa) = 0.02377433
#
# Stress axis : x y z
#
# Youngs Moduli (GPa) = 60.19549 88.69779 50.92199
#
# Poissons Ratio (x) = 0.58714 -0.06952
# Poissons Ratio (y) = 0.39847 0.33715
# Poissons Ratio (z) = -0.08218 0.58725
#
# Static dielectric constant tensor:
#      x y z
#    x 3.583990 0.000000 0.000000 
#    y 0.000000 3.639860 0.000000 
#    z 0.000000 0.000000 3.347750 
# 
# 
# High freq. dielectric constant tensor:
#      x y z
#    x 1.770150 0.000000 0.000000 
#    y 0.000000 1.771480 0.000000 
#    z 0.000000 0.000000 1.747810 
# 
# From -- ./inp_files/39243.got.cif
#   From: 2010.03.12/outbox.cif.g09.slc.cpg/sg64_20_cif.got.tgz:39243.got - 2010.04.10 20:19:32.
