data_PCOD8263659
_publ_section_title
;
Structure prediction by ZEFSAII (Michael W. Deem and Ramdas Pophale) SiO2 
 PCOD8263659
Probable space group: C M C A
;
_chemical_formula_sum "Si O2"
_cell_formula_units_Z 112
_cell_length_a 17.685671
_cell_length_b 13.956460
_cell_length_c 24.335737
_cell_angle_alpha 90.000000
_cell_angle_beta 90.000000
_cell_angle_gamma 90.000000
_cell_volume 6006.774386
_symmetry_space_group_name_H-M "C M C A"
_symmetry_group_IT_number 64
_symmetry_cell_setting 'orthorhombic'
loop_
_space_group_symop_operation_xyz
x,y,z
-x,1/2-y,1/2+z
x,-y,-z
-x,1/2+y,1/2-z
-x,-y,-z
x,1/2+y,1/2-z
-x,y,z
x,1/2-y,1/2+z
1/2+x,1/2+y,z
1/2-x,-y,1/2+z
1/2+x,1/2-y,-z
1/2-x,y,1/2-z
1/2-x,1/2-y,-z
1/2+x,y,1/2-z
1/2-x,1/2+y,z
1/2+x,-y,1/2+z
loop_
_atom_site_type_symbol
_atom_site_label
_atom_site_fract_x
_atom_site_fract_y
_atom_site_fract_z
Si Si1 0.588999 0.502106 0.059634
Si Si2 0.411385 0.290048 0.940517
Si Si3 0.329265 0.263890 0.669506
Si Si4 0.089129 0.205315 0.932337
Si Si5 0.412129 0.612387 0.244777
Si Si6 0.154191 0.738897 0.834728
Si Si7 0.663332 0.087389 0.745955
O O1 0.500000 0.500517 0.051515
O O2 0.611525 0.604696 0.085058
O O3 0.611781 0.402658 0.088862
O O4 0.627577 0.500000 0.000000
O O5 0.500000 0.271246 0.936985
O O6 0.368720 0.219068 0.898513
O O7 0.386053 0.277321 0.004098
O O8 0.363276 0.273209 0.607944
O O9 0.363366 0.351525 0.703712
O O10 0.239698 0.275651 0.669232
O O11 0.351349 0.163348 0.697411
O O12 0.000000 0.224802 0.925535
O O13 0.500000 0.616594 0.259874
O O14 0.397761 0.678168 0.191569
O O15 0.389600 0.502657 0.232971
O O16 0.141438 0.638601 0.803437
O O17 0.750000 0.053532 0.750000
#
# Coordination Sequence:
#
# PCOD8263659 Si02
#       7
#    16  16  16  16  16  16  16
#     4   7  12  24  42  69 102 130 161 206 255 295
#     4   9  17  30  50  78 109 141 175 216 261 306
#     4  10  21  36  54  79 109 142 175 213 264 320
#     4   9  17  30  50  77 110 141 175 217 259 307
#     4  11  22  36  57  80 103 135 177 222 267 311
#     4  10  21  36  54  79 109 141 175 214 262 323
#     4   9  20  38  55  74 105 140 173 215 265 316
#
# _framework density 18.645613999999998
#
# number of rings (size 3 to 8) (size 9 to 14) (size 15 to 20)
#    0.000    2.714    0.000    4.714    2.000    4.000 
#    0.000    0.000    0.000    0.857    0.000    3.000 
#    0.000    0.000    0.000    0.000    0.000    0.000 
#
# Total GULP energy -693776.736423 kJ/mol
# GULP energy per Si atom -12388.870293 kJ/mol
# Density = 1.860318 g / cm^3
# Si number density = 18.645614 Si / 1000 Ang^3
#
#
#
# Elastic Constant Matrix: (Units=GPa)
#
#
# Indices 1 2 3 4 5 6 
#
# 1 58.3602 17.7991 19.9846 0.0000 0.0000 0.0000
# 2 17.7991 55.6467 16.4756 0.0000 0.0000 0.0000
# 3 19.9846 16.4756 97.4787 0.0000 0.0000 0.0000
# 4 0.0000 0.0000 0.0000 15.5806 0.0000 0.0000
# 5 0.0000 0.0000 0.0000 0.0000 31.1734 0.0000
# 6 0.0000 0.0000 0.0000 0.0000 0.0000 22.5741
#
#
#
# Elastic Compliance Matrix: (Units=1/GPa)
#
#
# Indices 1 2 3 4 5 6 
#
# 1 0.019869 -0.005421 -0.003157 0.000000 0.000000 0.000000
# 2 -0.005421 0.020396 -0.002336 0.000000 0.000000 0.000000
# 3 -0.003157 -0.002336 0.011301 0.000000 0.000000 0.000000
# 4 0.000000 0.000000 0.000000 0.064182 0.000000 0.000000
# 5 0.000000 0.000000 0.000000 0.000000 0.032079 0.000000
# 6 0.000000 0.000000 0.000000 0.000000 0.000000 0.044299
#
#
# Mechanical properties :
#
#
# Convention : Reuss Voigt Hill
#
# Bulk Modulus (GPa) = 33.62666 35.55601 34.59133
# Shear Modulus (GPa) = 22.33476 24.34737 23.34106
#
# Velocity S-wave (km/s) = 3.46476 3.61750 3.54195
# Velocity P-wave (km/s) = 5.83780 6.04642 5.94302
#
# Compressibility (1/GPa) = 0.02973831
#
# Stress axis : x y z
#
# Youngs Moduli (GPa) = 50.32877 49.02931 88.48945
#
# Poissons Ratio (x) = 0.26577 0.27939
# Poissons Ratio (y) = 0.27281 0.20671
# Poissons Ratio (z) = 0.15891 0.11453
#
# Static dielectric constant tensor:
#      x y z
#    x 3.138470 0.000000 0.000000 
#    y 0.000000 3.325170 0.000000 
#    z 0.000000 0.000000 3.432470 
# 
# 
# High freq. dielectric constant tensor:
#      x y z
#    x 1.704210 0.000000 0.000000 
#    y 0.000000 1.701570 0.000000 
#    z 0.000000 0.000000 1.726340 
# 
# From -- ./inp_files/50067.got.cif
#   From: 2010.03.12/outbox.cif.g09.slc.cpg/sg64_26_cif.got.tgz:50067.got - 2010.04.10 20:19:32.
