data_PCOD8263886
_publ_section_title
;
Structure prediction by ZEFSAII (Michael W. Deem and Ramdas Pophale) SiO2 
 PCOD8263886
Probable space group: C M C A
;
_chemical_formula_sum "Si O2"
_cell_formula_units_Z 48
_cell_length_a 16.572215
_cell_length_b 25.763435
_cell_length_c 4.922284
_cell_angle_alpha 90.000000
_cell_angle_beta 90.000000
_cell_angle_gamma 90.000000
_cell_volume 2101.604515
_symmetry_space_group_name_H-M "C M C A"
_symmetry_group_IT_number 64
_symmetry_cell_setting 'orthorhombic'
loop_
_space_group_symop_operation_xyz
x,y,z
-x,1/2-y,1/2+z
x,-y,-z
-x,1/2+y,1/2-z
-x,-y,-z
x,1/2+y,1/2-z
-x,y,z
x,1/2-y,1/2+z
1/2+x,1/2+y,z
1/2-x,-y,1/2+z
1/2+x,1/2-y,-z
1/2-x,y,1/2-z
1/2-x,1/2-y,-z
1/2+x,y,1/2-z
1/2-x,1/2+y,z
1/2+x,-y,1/2+z
loop_
_atom_site_type_symbol
_atom_site_label
_atom_site_fract_x
_atom_site_fract_y
_atom_site_fract_z
Si Si1 0.661242 0.392852 0.862226
Si Si2 0.592448 0.054351 0.875855
Si Si3 0.906990 0.715759 0.399197
O O1 0.750000 0.402777 0.750000
O O2 0.599729 0.403116 0.614306
O O3 0.648643 0.333858 0.960492
O O4 0.646162 0.431238 0.115029
O O5 0.500000 0.050816 0.778785
O O6 0.623387 0.000000 0.000000
O O7 0.886437 0.762265 0.603738
O O8 0.000000 0.698612 0.431141
#
# Coordination Sequence:
#
# PCOD8263886 Si02
#       3
#    16  16  16
#     4  12  25  41  65  99 136 170 212 273 338 390
#     4  11  24  44  69  94 126 173 225 271 320 390
#     4  10  21  38  62  91 126 172 221 266 316 382
#
# _framework density 22.839694000000001
#
# number of rings (size 3 to 8) (size 9 to 14) (size 15 to 20)
#    0.000    1.000    0.000    7.000    0.000    9.333 
#    0.000    0.000    0.000    0.000    0.000    0.000 
#    0.000    0.000    0.000    0.000    0.000    0.000 
#
# Total GULP energy -297774.210005 kJ/mol
# GULP energy per Si atom -12407.258750 kJ/mol
# Density = 2.278771 g / cm^3
# Si number density = 22.839694 Si / 1000 Ang^3
#
#
#
# Elastic Constant Matrix: (Units=GPa)
#
#
# Indices 1 2 3 4 5 6 
#
# 1 95.5102 69.2112 56.4040 0.0000 0.0000 0.0000
# 2 69.2112 123.8178 51.9178 0.0000 0.0000 0.0000
# 3 56.4040 51.9178 148.0298 0.0000 0.0000 0.0000
# 4 0.0000 0.0000 0.0000 38.9206 0.0000 0.0000
# 5 0.0000 0.0000 0.0000 0.0000 26.8975 0.0000
# 6 0.0000 0.0000 0.0000 0.0000 0.0000 24.4939
#
#
#
# Elastic Compliance Matrix: (Units=1/GPa)
#
#
# Indices 1 2 3 4 5 6 
#
# 1 0.019653 -0.009198 -0.004262 0.000000 0.000000 0.000000
# 2 -0.009198 0.013774 -0.001326 0.000000 0.000000 0.000000
# 3 -0.004262 -0.001326 0.008845 0.000000 0.000000 0.000000
# 4 0.000000 0.000000 0.000000 0.025693 0.000000 0.000000
# 5 0.000000 0.000000 0.000000 0.000000 0.037178 0.000000
# 6 0.000000 0.000000 0.000000 0.000000 0.000000 0.040826
#
#
# Mechanical properties :
#
#
# Convention : Reuss Voigt Hill
#
# Bulk Modulus (GPa) = 78.75164 80.26931 79.51047
# Shear Modulus (GPa) = 27.81260 30.71740 29.26500
#
# Velocity S-wave (km/s) = 3.49339 3.67128 3.58344
# Velocity P-wave (km/s) = 7.12928 7.29329 7.21175
#
# Compressibility (1/GPa) = 0.01269815
#
# Stress axis : x y z
#
# Youngs Moduli (GPa) = 50.88390 72.60071 113.06421
#
# Poissons Ratio (x) = 0.66779 0.48191
# Poissons Ratio (y) = 0.46804 0.14993
# Poissons Ratio (z) = 0.21688 0.09628
#
# Static dielectric constant tensor:
#      x y z
#    x 3.841150 0.000000 0.000000 
#    y 0.000000 4.004850 0.000000 
#    z 0.000000 0.000000 4.204430 
# 
# 
# High freq. dielectric constant tensor:
#      x y z
#    x 1.884920 0.000000 0.000000 
#    y 0.000000 1.907690 0.000000 
#    z 0.000000 0.000000 1.918070 
# 
# From -- ./inp_files/664.got.cif
#   From: 2010.03.12/outbox.cif.g09.slc.cpg/sg64_1_cif.got.tgz:664.got - 2010.04.10 20:19:32.
