data_PCOD8263004
_publ_section_title
;
Structure prediction by ZEFSAII (Michael W. Deem and Ramdas Pophale) SiO2 
 PCOD8263004
Probable space group: C M C A
;
_chemical_formula_sum "Si O2"
_cell_formula_units_Z 80
_cell_length_a 22.345747
_cell_length_b 21.037369
_cell_length_c 8.506804
_cell_angle_alpha 90.000000
_cell_angle_beta 90.000000
_cell_angle_gamma 90.000000
_cell_volume 3999.012196
_symmetry_space_group_name_H-M "C M C A"
_symmetry_group_IT_number 64
_symmetry_cell_setting 'orthorhombic'
loop_
_space_group_symop_operation_xyz
x,y,z
-x,1/2-y,1/2+z
x,-y,-z
-x,1/2+y,1/2-z
-x,-y,-z
x,1/2+y,1/2-z
-x,y,z
x,1/2-y,1/2+z
1/2+x,1/2+y,z
1/2-x,-y,1/2+z
1/2+x,1/2-y,-z
1/2-x,y,1/2-z
1/2-x,1/2-y,-z
1/2+x,y,1/2-z
1/2-x,1/2+y,z
1/2+x,-y,1/2+z
loop_
_atom_site_type_symbol
_atom_site_label
_atom_site_fract_x
_atom_site_fract_y
_atom_site_fract_z
Si Si1 0.688032 0.680001 0.316362
Si Si2 0.933518 0.667928 0.757952
Si Si3 0.567073 0.476865 0.322585
Si Si4 0.188281 0.467811 0.832786
Si Si5 0.877740 0.265652 0.533760
O O1 0.750000 0.705218 0.250000
O O2 0.689879 0.606794 0.361011
O O3 0.639048 0.690309 0.180467
O O4 0.675675 0.720492 0.472854
O O5 0.916870 0.597664 0.816777
O O6 0.894313 0.688107 0.608815
O O7 0.928210 0.716554 0.904813
O O8 0.000000 0.669700 0.693482
O O9 0.562612 0.500000 0.500000
O O10 0.500000 0.490110 0.245743
O O11 0.625235 0.512478 0.243386
O O12 0.250000 0.490558 0.750000
O O13 0.187035 0.500000 0.000000
#
# Coordination Sequence:
#
# PCOD8263004 Si02
#       5
#    16  16  16  16  16
#     4  10  21  37  56  81 111 144 184 228 276 331
#     4  10  20  35  56  82 111 143 182 228 279 333
#     4   9  18  34  55  78 105 142 186 225 266 322
#     4  10  21  37  57  82 111 145 186 230 278 330
#     4  10  20  35  56  81 111 143 180 225 280 334
#
# _framework density 20.004940000000001
#
# number of rings (size 3 to 8) (size 9 to 14) (size 15 to 20)
#    0.000    2.200    0.000    3.600    0.000    3.200 
#    0.000   10.000    0.000    3.000    0.000    0.000 
#    0.000    0.000    0.000    0.000    0.000    0.000 
#
# Total GULP energy -495527.664710 kJ/mol
# GULP energy per Si atom -12388.191618 kJ/mol
# Density = 1.995941 g / cm^3
# Si number density = 20.004940 Si / 1000 Ang^3
#
#
#
# Elastic Constant Matrix: (Units=GPa)
#
#
# Indices 1 2 3 4 5 6 
#
# 1 123.3606 15.4709 -1.1040 0.0000 0.0000 0.0000
# 2 15.4709 71.9150 20.7453 0.0000 0.0000 0.0000
# 3 -1.1040 20.7453 58.3402 0.0000 0.0000 0.0000
# 4 0.0000 0.0000 0.0000 27.6119 0.0000 0.0000
# 5 0.0000 0.0000 0.0000 0.0000 23.2303 0.0000
# 6 0.0000 0.0000 0.0000 0.0000 0.0000 -11.7888
#
#
#
# Elastic Compliance Matrix: (Units=1/GPa)
#
#
# Indices 1 2 3 4 5 6 
#
# 1 0.008372 -0.002058 0.000890 0.000000 0.000000 0.000000
# 2 -0.002058 0.016001 -0.005729 0.000000 0.000000 0.000000
# 3 0.000890 -0.005729 0.019195 0.000000 0.000000 0.000000
# 4 0.000000 0.000000 0.000000 0.036216 0.000000 0.000000
# 5 0.000000 0.000000 0.000000 0.000000 0.043047 0.000000
# 6 0.000000 0.000000 0.000000 0.000000 0.000000 -0.084826
#
#
# Mechanical properties :
#
#
# Convention : Reuss Voigt Hill
#
# Bulk Modulus (GPa) = 33.58520 35.98225 34.78373
# Shear Modulus (GPa) = 81.00722 22.37757 51.69239
#
# Velocity S-wave (km/s) = 6.37036 3.34818 5.08880
# Velocity P-wave (km/s) = 8.42221 5.74219 7.20786
#
# Compressibility (1/GPa) = 0.02977502
#
# Stress axis : x y z
#
# Youngs Moduli (GPa) = 119.44041 62.49784 52.09758
#
# Poissons Ratio (x) = 0.12862 -0.04638
# Poissons Ratio (y) = 0.24580 0.29845
# Poissons Ratio (z) = -0.10633 0.35803
#
# Static dielectric constant tensor:
#      x y z
#    x 4.591830 0.000000 0.000000 
#    y 0.000000 3.671250 0.000000 
#    z 0.000000 0.000000 3.441700 
# 
# 
# High freq. dielectric constant tensor:
#      x y z
#    x 1.793960 0.000000 0.000000 
#    y 0.000000 1.787540 0.000000 
#    z 0.000000 0.000000 1.756420 
# 
# From -- ./inp_files/10218.got.cif
#   From: 2010.03.12/outbox.cif.g09.slc.cpg/sg64_6_cif.got.tgz:10218.got - 2010.04.10 20:19:32.
