data_PCOD8263851
_publ_section_title
;
Structure prediction by ZEFSAII (Michael W. Deem and Ramdas Pophale) SiO2 
 PCOD8263851
Probable space group: C M C A
;
_chemical_formula_sum "Si O2"
_cell_formula_units_Z 96
_cell_length_a 21.798288
_cell_length_b 16.165112
_cell_length_c 13.236505
_cell_angle_alpha 90.000000
_cell_angle_beta 90.000000
_cell_angle_gamma 90.000000
_cell_volume 4664.170655
_symmetry_space_group_name_H-M "C M C A"
_symmetry_group_IT_number 64
_symmetry_cell_setting 'orthorhombic'
loop_
_space_group_symop_operation_xyz
x,y,z
-x,1/2-y,1/2+z
x,-y,-z
-x,1/2+y,1/2-z
-x,-y,-z
x,1/2+y,1/2-z
-x,y,z
x,1/2-y,1/2+z
1/2+x,1/2+y,z
1/2-x,-y,1/2+z
1/2+x,1/2-y,-z
1/2-x,y,1/2-z
1/2-x,1/2-y,-z
1/2+x,y,1/2-z
1/2-x,1/2+y,z
1/2+x,-y,1/2+z
loop_
_atom_site_type_symbol
_atom_site_label
_atom_site_fract_x
_atom_site_fract_y
_atom_site_fract_z
Si Si1 0.805494 0.931128 0.677366
Si Si2 0.397745 0.298204 0.148073
Si Si3 0.688110 0.623032 0.700056
Si Si4 0.932631 0.087417 0.022927
Si Si5 0.692000 0.193609 0.011041
Si Si6 0.070048 0.858263 0.762201
O O1 0.750000 0.899214 0.750000
O O2 0.791054 0.891379 0.568558
O O3 0.875725 0.907749 0.706233
O O4 0.802248 0.028930 0.668401
O O5 0.363117 0.365920 0.215343
O O6 0.356483 0.243459 0.075481
O O7 0.433655 0.236521 0.222904
O O8 0.438716 0.353477 0.074186
O O9 0.750000 0.659628 0.750000
O O10 0.667848 0.673330 0.600915
O O11 0.907510 0.137291 0.120499
O O12 0.000000 0.059888 0.056062
O O13 0.896402 0.000000 0.000000
O O14 0.750000 0.250000 0.000000
O O15 0.000000 0.893857 0.744974
#
# Coordination Sequence:
#
# PCOD8263851 Si02
#       6
#    16  16  16  16  16  16
#     4  10  24  39  64  90 124 161 202 255 309 372
#     4  11  22  36  62  85 120 161 205 248 304 365
#     4  11  22  39  56  89 123 160 202 247 312 371
#     4  10  21  38  60  88 119 154 203 254 300 356
#     4  11  23  37  59  86 124 156 195 256 301 366
#     4  10  22  40  62  90 125 164 208 258 313 369
#
# _framework density 20.582436999999999
#
# number of rings (size 3 to 8) (size 9 to 14) (size 15 to 20)
#    0.000    1.500    1.667    3.000    7.000    0.000 
#    0.000    0.833    0.000   10.000    0.000    0.000 
#    0.000    0.000    0.000    0.000    0.000    0.000 
#
# Total GULP energy -594632.739197 kJ/mol
# GULP energy per Si atom -12388.182067 kJ/mol
# Density = 2.053559 g / cm^3
# Si number density = 20.582437 Si / 1000 Ang^3
#
#
#
# Elastic Constant Matrix: (Units=GPa)
#
#
# Indices 1 2 3 4 5 6 
#
# 1 89.7912 13.4354 23.3699 0.0000 0.0000 0.0000
# 2 13.4354 102.0985 57.9899 0.0000 0.0000 0.0000
# 3 23.3699 57.9899 144.3801 0.0000 0.0000 0.0000
# 4 0.0000 0.0000 0.0000 44.6832 0.0000 0.0000
# 5 0.0000 0.0000 0.0000 0.0000 27.1268 0.0000
# 6 0.0000 0.0000 0.0000 0.0000 0.0000 21.4926
#
#
#
# Elastic Compliance Matrix: (Units=1/GPa)
#
#
# Indices 1 2 3 4 5 6 
#
# 1 0.011655 -0.000599 -0.001646 0.000000 0.000000 0.000000
# 2 -0.000599 0.012720 -0.005012 0.000000 0.000000 0.000000
# 3 -0.001646 -0.005012 0.009206 0.000000 0.000000 0.000000
# 4 0.000000 0.000000 0.000000 0.022380 0.000000 0.000000
# 5 0.000000 0.000000 0.000000 0.000000 0.036864 0.000000
# 6 0.000000 0.000000 0.000000 0.000000 0.000000 0.046528
#
#
# Mechanical properties :
#
#
# Convention : Reuss Voigt Hill
#
# Bulk Modulus (GPa) = 52.44684 58.42891 55.43787
# Shear Modulus (GPa) = 31.20685 34.75882 32.98283
#
# Velocity S-wave (km/s) = 3.89805 4.11391 4.00743
# Velocity P-wave (km/s) = 6.76730 7.14248 6.95742
#
# Compressibility (1/GPa) = 0.01906693
#
# Stress axis : x y z
#
# Youngs Moduli (GPa) = 85.80042 78.61639 108.62884
#
# Poissons Ratio (x) = 0.04708 0.17880
# Poissons Ratio (y) = 0.05138 0.54445
# Poissons Ratio (z) = 0.14123 0.39403
#
# Static dielectric constant tensor:
#      x y z
#    x 3.530140 0.000000 0.000000 
#    y 0.000000 3.843450 0.000000 
#    z 0.000000 0.000000 4.102790 
# 
# 
# High freq. dielectric constant tensor:
#      x y z
#    x 1.790500 0.000000 0.000000 
#    y 0.000000 1.808730 0.000000 
#    z 0.000000 0.000000 1.819000 
# 
# From -- ./inp_files/18368.got.cif
#   From: 2010.03.12/outbox.cif.g09.slc.cpg/sg64_10_cif.got.tgz:18368.got - 2010.04.10 20:19:32.
