data_PCOD8263533
_publ_section_title
;
Structure prediction by ZEFSAII (Michael W. Deem and Ramdas Pophale) SiO2 
 PCOD8263533
Probable space group: C M C A
;
_chemical_formula_sum "Si O2"
_cell_formula_units_Z 96
_cell_length_a 8.654807
_cell_length_b 29.837630
_cell_length_c 19.214424
_cell_angle_alpha 90.000000
_cell_angle_beta 90.000000
_cell_angle_gamma 90.000000
_cell_volume 4961.912275
_symmetry_space_group_name_H-M "C M C A"
_symmetry_group_IT_number 64
_symmetry_cell_setting 'orthorhombic'
loop_
_space_group_symop_operation_xyz
x,y,z
-x,1/2-y,1/2+z
x,-y,-z
-x,1/2+y,1/2-z
-x,-y,-z
x,1/2+y,1/2-z
-x,y,z
x,1/2-y,1/2+z
1/2+x,1/2+y,z
1/2-x,-y,1/2+z
1/2+x,1/2-y,-z
1/2-x,y,1/2-z
1/2-x,1/2-y,-z
1/2+x,y,1/2-z
1/2-x,1/2+y,z
1/2+x,-y,1/2+z
loop_
_atom_site_type_symbol
_atom_site_label
_atom_site_fract_x
_atom_site_fract_y
_atom_site_fract_z
Si Si1 0.180027 0.475934 0.427663
Si Si2 0.318365 0.139780 0.410278
Si Si3 0.681512 0.813303 0.177029
Si Si4 0.317879 0.946228 0.673892
Si Si5 0.317804 0.717537 0.323820
Si Si6 0.679535 0.618313 0.555941
O O1 0.215763 0.500000 0.500000
O O2 0.233064 0.508937 0.366110
O O3 0.282610 0.431873 0.420245
O O4 0.000000 0.463045 0.422670
O O5 0.500000 0.146529 0.400119
O O6 0.255568 0.097000 0.367509
O O7 0.230121 0.183546 0.384109
O O8 0.283015 0.132526 0.490946
O O9 0.500000 0.806528 0.185480
O O10 0.750000 0.830490 0.250000
O O11 0.755006 0.766104 0.155052
O O12 0.724634 0.849421 0.119150
O O13 0.500000 0.943444 0.678195
O O14 0.250000 0.947133 0.750000
O O15 0.500000 0.719570 0.317127
O O16 0.250000 0.701199 0.250000
O O17 0.500000 0.622342 0.536326
#
# Coordination Sequence:
#
# PCOD8263533 Si02
#       6
#    16  16  16  16  16  16
#     4  10  20  40  62  82 114 157 199 237 289 355
#     4  11  22  39  61  86 120 161 200 241 296 358
#     4  10  22  41  62  86 118 155 199 246 297 355
#     4  10  22  38  59  87 117 153 196 241 290 349
#     4  11  22  38  61  89 120 157 200 245 298 353
#     4  11  24  39  60  91 120 152 197 249 301 353
#
# _framework density 19.347380000000001
#
# number of rings (size 3 to 8) (size 9 to 14) (size 15 to 20)
#    0.000    1.500    1.667    4.500    0.000    7.667 
#    0.000    3.333    0.000    0.000    0.000    0.000 
#    0.000    0.000    0.000    0.000    0.000    0.000 
#
# Total GULP energy -595468.918883 kJ/mol
# GULP energy per Si atom -12405.602477 kJ/mol
# Density = 1.930334 g / cm^3
# Si number density = 19.347380 Si / 1000 Ang^3
#
#
#
# Elastic Constant Matrix: (Units=GPa)
#
#
# Indices 1 2 3 4 5 6 
#
# 1 75.9926 44.4501 41.6146 0.0000 0.0000 0.0000
# 2 44.4501 130.4768 77.0215 0.0000 0.0000 0.0000
# 3 41.6146 77.0215 136.3855 0.0000 0.0000 0.0000
# 4 0.0000 0.0000 0.0000 42.6020 0.0000 0.0000
# 5 0.0000 0.0000 0.0000 0.0000 34.1987 0.0000
# 6 0.0000 0.0000 0.0000 0.0000 0.0000 36.5709
#
#
#
# Elastic Compliance Matrix: (Units=1/GPa)
#
#
# Indices 1 2 3 4 5 6 
#
# 1 0.017168 -0.004135 -0.002903 0.000000 0.000000 0.000000
# 2 -0.004135 0.012493 -0.005793 0.000000 0.000000 0.000000
# 3 -0.002903 -0.005793 0.011490 0.000000 0.000000 0.000000
# 4 0.000000 0.000000 0.000000 0.023473 0.000000 0.000000
# 5 0.000000 0.000000 0.000000 0.000000 0.029241 0.000000
# 6 0.000000 0.000000 0.000000 0.000000 0.000000 0.027344
#
#
# Mechanical properties :
#
#
# Convention : Reuss Voigt Hill
#
# Bulk Modulus (GPa) = 64.56943 74.33637 69.45290
# Shear Modulus (GPa) = 32.88751 34.65889 33.77320
#
# Velocity S-wave (km/s) = 4.12739 4.23708 4.18260
# Velocity P-wave (km/s) = 7.49400 7.90206 7.70073
#
# Compressibility (1/GPa) = 0.01548720
#
# Stress axis : x y z
#
# Youngs Moduli (GPa) = 58.24944 80.04653 87.03406
#
# Poissons Ratio (x) = 0.33097 0.25268
# Poissons Ratio (y) = 0.24085 0.50423
# Poissons Ratio (z) = 0.16911 0.46375
#
# Static dielectric constant tensor:
#      x y z
#    x 3.534730 0.000000 0.000000 
#    y 0.000000 3.767650 0.000000 
#    z 0.000000 0.000000 3.475330 
# 
# 
# High freq. dielectric constant tensor:
#      x y z
#    x 1.758110 0.000000 0.000000 
#    y 0.000000 1.763690 0.000000 
#    z 0.000000 0.000000 1.757620 
# 
# From -- ./inp_files/37017.got.cif
#   From: 2010.03.12/outbox.cif.g09.slc.cpg/sg64_19_cif.got.tgz:37017.got - 2010.04.10 20:19:32.
