data_PCOD8263264
_publ_section_title
;
Structure prediction by ZEFSAII (Michael W. Deem and Ramdas Pophale) SiO2 
 PCOD8263264
Probable space group: C M C A
;
_chemical_formula_sum "Si O2"
_cell_formula_units_Z 64
_cell_length_a 20.213981
_cell_length_b 8.839875
_cell_length_c 16.845070
_cell_angle_alpha 90.000000
_cell_angle_beta 90.000000
_cell_angle_gamma 90.000000
_cell_volume 3010.029813
_symmetry_space_group_name_H-M "C M C A"
_symmetry_group_IT_number 64
_symmetry_cell_setting 'orthorhombic'
loop_
_space_group_symop_operation_xyz
x,y,z
-x,1/2-y,1/2+z
x,-y,-z
-x,1/2+y,1/2-z
-x,-y,-z
x,1/2+y,1/2-z
-x,y,z
x,1/2-y,1/2+z
1/2+x,1/2+y,z
1/2-x,-y,1/2+z
1/2+x,1/2-y,-z
1/2-x,y,1/2-z
1/2-x,1/2-y,-z
1/2+x,y,1/2-z
1/2-x,1/2+y,z
1/2+x,-y,1/2+z
loop_
_atom_site_type_symbol
_atom_site_label
_atom_site_fract_x
_atom_site_fract_y
_atom_site_fract_z
Si Si1 0.500000 0.317707 0.351615
Si Si2 0.628874 0.703803 0.819013
Si Si3 0.261695 0.617721 0.940863
Si Si4 0.869069 0.552599 0.848308
Si Si5 0.500000 0.540719 0.821369
O O1 0.567405 0.373432 0.394956
O O2 0.500000 0.414827 0.270600
O O3 0.500000 0.138613 0.336060
O O4 0.693338 0.661433 0.867727
O O5 0.643981 0.656430 0.728726
O O6 0.566306 0.615707 0.857901
O O7 0.615359 0.882484 0.820361
O O8 0.192663 0.553766 0.907112
O O9 0.296796 0.500000 0.000000
O O10 0.250000 0.750000 0.000000
#
# Coordination Sequence:
#
# PCOD8263264 Si02
#       5
#     8  16  16  16   8
#     4  10  20  36  64  94 124 156 207 259 311 361
#     4  11  23  41  67  94 125 163 210 256 310 369
#     4  12  27  44  63  90 128 169 209 256 312 369
#     4  11  23  41  67  94 125 164 208 259 308 370
#     4  10  20  36  64  94 124 157 205 263 305 366
#
# _framework density 21.262246999999999
#
# number of rings (size 3 to 8) (size 9 to 14) (size 15 to 20)
#    0.000    1.000    2.500    7.500    7.000    2.000 
#    0.000    2.500    0.000    0.000    0.000    0.000 
#    0.000    0.000    0.000    0.000    0.000    0.000 
#
# Total GULP energy -396593.759543 kJ/mol
# GULP energy per Si atom -12393.554986 kJ/mol
# Density = 2.121385 g / cm^3
# Si number density = 21.262247 Si / 1000 Ang^3
#
#
#
# Elastic Constant Matrix: (Units=GPa)
#
#
# Indices 1 2 3 4 5 6 
#
# 1 121.1601 27.1162 24.3882 0.0000 0.0000 0.0000
# 2 27.1162 162.0830 17.1685 0.0000 0.0000 0.0000
# 3 24.3882 17.1685 53.3551 0.0000 0.0000 0.0000
# 4 0.0000 0.0000 0.0000 35.0256 0.0000 0.0000
# 5 0.0000 0.0000 0.0000 0.0000 3.8759 0.0000
# 6 0.0000 0.0000 0.0000 0.0000 0.0000 34.4434
#
#
#
# Elastic Compliance Matrix: (Units=1/GPa)
#
#
# Indices 1 2 3 4 5 6 
#
# 1 0.009290 -0.001143 -0.003879 0.000000 0.000000 0.000000
# 2 -0.001143 0.006528 -0.001578 0.000000 0.000000 0.000000
# 3 -0.003879 -0.001578 0.021023 0.000000 0.000000 0.000000
# 4 0.000000 0.000000 0.000000 0.028551 0.000000 0.000000
# 5 0.000000 0.000000 0.000000 0.000000 0.258003 0.000000
# 6 0.000000 0.000000 0.000000 0.000000 0.000000 0.029033
#
#
# Mechanical properties :
#
#
# Convention : Reuss Voigt Hill
#
# Bulk Modulus (GPa) = 42.29863 52.66045 47.47954
# Shear Modulus (GPa) = 13.38658 32.53066 22.95862
#
# Velocity S-wave (km/s) = 2.51189 3.91573 3.28957
# Velocity P-wave (km/s) = 5.32445 6.72791 6.06690
#
# Compressibility (1/GPa) = 0.02364143
#
# Stress axis : x y z
#
# Youngs Moduli (GPa) = 107.64090 153.18368 47.56700
#
# Poissons Ratio (x) = 0.17515 0.18449
# Poissons Ratio (y) = 0.12308 0.07506
# Poissons Ratio (z) = 0.41749 0.24172
#
# Static dielectric constant tensor:
#      x y z
#    x 4.409310 0.000000 0.000000 
#    y 0.000000 4.035150 0.000000 
#    z 0.000000 0.000000 3.423510 
# 
# 
# High freq. dielectric constant tensor:
#      x y z
#    x 1.853340 0.000000 0.000000 
#    y 0.000000 1.859450 0.000000 
#    z 0.000000 0.000000 1.798540 
# 
# From -- ./inp_files/33896.got.cif
#   From: 2010.03.12/outbox.cif.g09.slc.cpg/sg64_17_cif.got.tgz:33896.got - 2010.04.10 20:19:32.
