data_PCOD8263231
_publ_section_title
;
Structure prediction by ZEFSAII (Michael W. Deem and Ramdas Pophale) SiO2 
 PCOD8263231
Probable space group: C M C A
;
_chemical_formula_sum "Si O2"
_cell_formula_units_Z 112
_cell_length_a 14.154155
_cell_length_b 23.837915
_cell_length_c 15.845656
_cell_angle_alpha 90.000000
_cell_angle_beta 90.000000
_cell_angle_gamma 90.000000
_cell_volume 5346.412179
_symmetry_space_group_name_H-M "C M C A"
_symmetry_group_IT_number 64
_symmetry_cell_setting 'orthorhombic'
loop_
_space_group_symop_operation_xyz
x,y,z
-x,1/2-y,1/2+z
x,-y,-z
-x,1/2+y,1/2-z
-x,-y,-z
x,1/2+y,1/2-z
-x,y,z
x,1/2-y,1/2+z
1/2+x,1/2+y,z
1/2-x,-y,1/2+z
1/2+x,1/2-y,-z
1/2-x,y,1/2-z
1/2-x,1/2-y,-z
1/2+x,y,1/2-z
1/2-x,1/2+y,z
1/2+x,-y,1/2+z
loop_
_atom_site_type_symbol
_atom_site_label
_atom_site_fract_x
_atom_site_fract_y
_atom_site_fract_z
Si Si1 0.394550 0.367231 0.367705
Si Si2 0.890904 0.216829 0.952619
Si Si3 0.109452 0.621504 0.682268
Si Si4 0.288759 0.174377 0.029784
Si Si5 0.244966 0.423056 0.841923
Si Si6 0.889478 0.493381 0.402130
Si Si7 0.395972 0.504351 0.592251
O O1 0.500000 0.339572 0.372757
O O2 0.347177 0.363134 0.274301
O O3 0.325551 0.338393 0.435160
O O4 0.404829 0.432135 0.383564
O O5 0.876245 0.176223 0.873876
O O6 0.858812 0.279837 0.927926
O O7 0.000000 0.215440 0.983926
O O8 0.819425 0.196810 0.026643
O O9 0.152304 0.565714 0.635706
O O10 0.000000 0.608250 0.697826
O O11 0.289288 0.120371 0.088131
O O12 0.250000 0.394020 0.750000
O O13 0.345618 0.451819 0.858771
O O14 0.167403 0.472456 0.839598
O O15 0.863915 0.500000 0.500000
O O16 0.000000 0.496212 0.386095
O O17 0.347685 0.500000 0.500000
O O18 0.500000 0.476127 0.589960
#
# Coordination Sequence:
#
# PCOD8263231 Si02
#       7
#    16  16  16  16  16  16  16
#     4  10  20  37  63  95 125 156 206 263 313 371
#     4  10  23  45  66  88 121 159 211 265 314 374
#     4   9  19  37  63  95 123 157 206 261 314 366
#     4  11  24  42  64  90 119 169 210 255 321 377
#     4  12  25  39  59  92 134 166 209 253 311 385
#     4  10  21  39  64  92 129 170 208 254 313 376
#     4  10  20  36  60  89 126 167 208 255 310 370
#
# _framework density 20.948627999999999
#
# number of rings (size 3 to 8) (size 9 to 14) (size 15 to 20)
#    0.000    1.714    1.429    2.571    2.000    4.571 
#    5.143    0.000    0.000    0.000    0.000    0.000 
#    0.000    0.000    0.000    0.000    0.000    0.000 
#
# Total GULP energy -694168.023534 kJ/mol
# GULP energy per Si atom -12395.857563 kJ/mol
# Density = 2.090095 g / cm^3
# Si number density = 20.948628 Si / 1000 Ang^3
#
#
#
# Elastic Constant Matrix: (Units=GPa)
#
#
# Indices 1 2 3 4 5 6 
#
# 1 100.8462 28.5572 34.1616 0.0000 0.0000 0.0000
# 2 28.5572 108.6071 45.2580 0.0000 0.0000 0.0000
# 3 34.1616 45.2580 119.6291 0.0000 0.0000 0.0000
# 4 0.0000 0.0000 0.0000 15.3482 0.0000 0.0000
# 5 0.0000 0.0000 0.0000 0.0000 23.7033 0.0000
# 6 0.0000 0.0000 0.0000 0.0000 0.0000 33.0670
#
#
#
# Elastic Compliance Matrix: (Units=1/GPa)
#
#
# Indices 1 2 3 4 5 6 
#
# 1 0.011310 -0.001933 -0.002498 0.000000 0.000000 0.000000
# 2 -0.001933 0.011261 -0.003708 0.000000 0.000000 0.000000
# 3 -0.002498 -0.003708 0.010476 0.000000 0.000000 0.000000
# 4 0.000000 0.000000 0.000000 0.065154 0.000000 0.000000
# 5 0.000000 0.000000 0.000000 0.000000 0.042188 0.000000
# 6 0.000000 0.000000 0.000000 0.000000 0.000000 0.030242
#
#
# Mechanical properties :
#
#
# Convention : Reuss Voigt Hill
#
# Bulk Modulus (GPa) = 59.63974 60.55957 60.09966
# Shear Modulus (GPa) = 25.97421 29.16406 27.56914
#
# Velocity S-wave (km/s) = 3.52504 3.73523 3.63166
# Velocity P-wave (km/s) = 6.71560 6.89739 6.80710
#
# Compressibility (1/GPa) = 0.01676734
#
# Stress axis : x y z
#
# Youngs Moduli (GPa) = 88.41942 88.80213 95.46007
#
# Poissons Ratio (x) = 0.17162 0.23851
# Poissons Ratio (y) = 0.17088 0.35400
# Poissons Ratio (z) = 0.22091 0.32931
#
# Static dielectric constant tensor:
#      x y z
#    x 4.028890 0.000000 0.000000 
#    y 0.000000 3.717470 0.000000 
#    z 0.000000 0.000000 3.097590 
# 
# 
# High freq. dielectric constant tensor:
#      x y z
#    x 1.832770 0.000000 0.000000 
#    y 0.000000 1.808460 0.000000 
#    z 0.000000 0.000000 1.812550 
# 
# From -- ./inp_files/24209.got.cif
#   From: 2010.03.12/outbox.cif.g09.slc.cpg/sg64_13_cif.got.tgz:24209.got - 2010.04.10 20:19:32.
