data_PCOD8263803
_publ_section_title
;
Structure prediction by ZEFSAII (Michael W. Deem and Ramdas Pophale) SiO2 
 PCOD8263803
Probable space group: C M C A
;
_chemical_formula_sum "Si O2"
_cell_formula_units_Z 80
_cell_length_a 24.837968
_cell_length_b 14.129058
_cell_length_c 11.147077
_cell_angle_alpha 90.000000
_cell_angle_beta 90.000000
_cell_angle_gamma 90.000000
_cell_volume 3911.922770
_symmetry_space_group_name_H-M "C M C A"
_symmetry_group_IT_number 64
_symmetry_cell_setting 'orthorhombic'
loop_
_space_group_symop_operation_xyz
x,y,z
-x,1/2-y,1/2+z
x,-y,-z
-x,1/2+y,1/2-z
-x,-y,-z
x,1/2+y,1/2-z
-x,y,z
x,1/2-y,1/2+z
1/2+x,1/2+y,z
1/2-x,-y,1/2+z
1/2+x,1/2-y,-z
1/2-x,y,1/2-z
1/2-x,1/2-y,-z
1/2+x,y,1/2-z
1/2-x,1/2+y,z
1/2+x,-y,1/2+z
loop_
_atom_site_type_symbol
_atom_site_label
_atom_site_fract_x
_atom_site_fract_y
_atom_site_fract_z
Si Si1 0.220416 0.151246 0.988382
Si Si2 0.362776 0.669464 0.196638
Si Si3 0.849090 0.618792 0.742915
Si Si4 0.059992 0.512867 0.359275
Si Si5 0.206211 0.453702 0.852369
O O1 0.171810 0.142198 0.080663
O O2 0.265420 0.071478 0.020447
O O3 0.250000 0.250000 0.000000
O O4 0.198281 0.131741 0.855612
O O5 0.369262 0.781896 0.205131
O O6 0.420010 0.618111 0.177141
O O7 0.335991 0.629871 0.318729
O O8 0.901162 0.567521 0.691647
O O9 0.824224 0.555579 0.851072
O O10 0.058589 0.500000 0.500000
O O11 0.000000 0.500166 0.305609
O O12 0.250000 0.452125 0.750000
#
# Coordination Sequence:
#
# PCOD8263803 Si02
#       5
#    16  16  16  16  16
#     4  11  21  37  56  82 125 171 192 238 294 359
#     4  10  21  38  55  90 116 153 207 248 288 376
#     4  11  22  38  60  87 125 156 206 253 300 373
#     4  10  21  41  65  85 112 156 207 264 316 357
#     4   9  21  33  52  83 119 160 202 231 284 361
#
# _framework density 20.450302000000001
#
# number of rings (size 3 to 8) (size 9 to 14) (size 15 to 20)
#    0.000    1.800    4.000    0.000    2.800    0.800 
#    0.000    0.000    0.000    0.000    0.000    1.400 
#    0.000    0.000    0.000    0.000    0.000    0.000 
#
# Total GULP energy -495829.768431 kJ/mol
# GULP energy per Si atom -12395.744211 kJ/mol
# Density = 2.040376 g / cm^3
# Si number density = 20.450302 Si / 1000 Ang^3
#
#
#
# Elastic Constant Matrix: (Units=GPa)
#
#
# Indices 1 2 3 4 5 6 
#
# 1 133.6764 62.4574 28.1110 0.0000 0.0000 0.0000
# 2 62.4574 180.1050 22.0596 0.0000 0.0000 0.0000
# 3 28.1110 22.0596 35.1872 0.0000 0.0000 0.0000
# 4 0.0000 0.0000 0.0000 25.3898 0.0000 0.0000
# 5 0.0000 0.0000 0.0000 0.0000 22.8102 0.0000
# 6 0.0000 0.0000 0.0000 0.0000 0.0000 20.5471
#
#
#
# Elastic Compliance Matrix: (Units=1/GPa)
#
#
# Indices 1 2 3 4 5 6 
#
# 1 0.010088 -0.002720 -0.006354 0.000000 0.000000 0.000000
# 2 -0.002720 0.006748 -0.002057 0.000000 0.000000 0.000000
# 3 -0.006354 -0.002057 0.034785 0.000000 0.000000 0.000000
# 4 0.000000 0.000000 0.000000 0.039386 0.000000 0.000000
# 5 0.000000 0.000000 0.000000 0.000000 0.043840 0.000000
# 6 0.000000 0.000000 0.000000 0.000000 0.000000 0.048669
#
#
# Mechanical properties :
#
#
# Convention : Reuss Voigt Hill
#
# Bulk Modulus (GPa) = 34.06181 63.80273 48.93227
# Shear Modulus (GPa) = 23.19504 29.50546 26.35025
#
# Velocity S-wave (km/s) = 3.37146 3.80253 3.59346
# Velocity P-wave (km/s) = 5.64338 7.10954 6.41846
#
# Compressibility (1/GPa) = 0.02935839
#
# Stress axis : x y z
#
# Youngs Moduli (GPa) = 99.12971 148.20206 28.74791
#
# Poissons Ratio (x) = 0.40312 0.18266
# Poissons Ratio (y) = 0.26964 0.05914
# Poissons Ratio (z) = 0.62986 0.30487
#
# Static dielectric constant tensor:
#      x y z
#    x 3.915090 0.000000 0.000000 
#    y 0.000000 3.986150 0.000000 
#    z 0.000000 0.000000 4.004050 
# 
# 
# High freq. dielectric constant tensor:
#      x y z
#    x 1.777890 0.000000 0.000000 
#    y 0.000000 1.824430 0.000000 
#    z 0.000000 0.000000 1.792100 
# 
# From -- ./inp_files/18082.got.cif
#   From: 2010.03.12/outbox.cif.g09.slc.cpg/sg64_10_cif.got.tgz:18082.got - 2010.04.10 20:19:32.
