data_PCOD8263717
_publ_section_title
;
Structure prediction by ZEFSAII (Michael W. Deem and Ramdas Pophale) SiO2 
 PCOD8263717
Probable space group: C M C A
;
_chemical_formula_sum "Si O2"
_cell_formula_units_Z 112
_cell_length_a 13.121919
_cell_length_b 15.912241
_cell_length_c 25.572063
_cell_angle_alpha 90.000000
_cell_angle_beta 90.000000
_cell_angle_gamma 90.000000
_cell_volume 5339.424699
_symmetry_space_group_name_H-M "C M C A"
_symmetry_group_IT_number 64
_symmetry_cell_setting 'orthorhombic'
loop_
_space_group_symop_operation_xyz
x,y,z
-x,1/2-y,1/2+z
x,-y,-z
-x,1/2+y,1/2-z
-x,-y,-z
x,1/2+y,1/2-z
-x,y,z
x,1/2-y,1/2+z
1/2+x,1/2+y,z
1/2-x,-y,1/2+z
1/2+x,1/2-y,-z
1/2-x,y,1/2-z
1/2-x,1/2-y,-z
1/2+x,y,1/2-z
1/2-x,1/2+y,z
1/2+x,-y,1/2+z
loop_
_atom_site_type_symbol
_atom_site_label
_atom_site_fract_x
_atom_site_fract_y
_atom_site_fract_z
Si Si1 0.881586 0.828957 0.293414
Si Si2 0.880942 0.373517 0.555953
Si Si3 0.615775 0.692033 0.946914
Si Si4 0.618825 0.509558 0.770480
Si Si5 0.615562 0.974052 0.384696
Si Si6 0.116848 0.331797 0.781383
Si Si7 0.259653 0.770135 0.630040
O O1 0.866922 0.747623 0.256425
O O2 0.808222 0.813490 0.343542
O O3 0.000000 0.837666 0.310284
O O4 0.840846 0.914296 0.266079
O O5 0.834640 0.338390 0.501672
O O6 0.836279 0.466238 0.570014
O O7 0.857188 0.319608 0.607792
O O8 0.000000 0.376168 0.544568
O O9 0.500000 0.726520 0.953413
O O10 0.618162 0.620603 0.903036
O O11 0.690091 0.759864 0.921584
O O12 0.500000 0.524540 0.775990
O O13 0.669696 0.517171 0.828061
O O14 0.646424 0.418559 0.747351
O O15 0.500000 0.006648 0.377892
O O16 0.192272 0.324059 0.829982
O O17 0.000000 0.334460 0.801127
#
# Coordination Sequence:
#
# PCOD8263717 Si02
#       7
#    16  16  16  16  16  16  16
#     4  10  21  37  55  79 113 149 185 222 264 321
#     4  10  21  37  56  78 104 136 178 228 277 321
#     4  10  21  37  56  78 104 136 178 228 277 321
#     4   9  18  34  56  80 109 146 181 217 264 321
#     4   9  17  33  57  79 102 135 175 222 274 321
#     4  10  21  37  55  79 113 149 185 222 264 321
#     4  12  22  34  54  80 110 146 180 218 266 322
#
# _framework density 20.976042
#
# number of rings (size 3 to 8) (size 9 to 14) (size 15 to 20)
#    0.000    2.000    0.000    3.857    0.000    7.429 
#    0.000    4.286    0.000    0.000    0.000    0.000 
#    0.000   16.000    0.000    0.000    0.000    0.000 
#
# Total GULP energy -693928.731642 kJ/mol
# GULP energy per Si atom -12391.584494 kJ/mol
# Density = 2.092830 g / cm^3
# Si number density = 20.976042 Si / 1000 Ang^3
#
#
#
# Elastic Constant Matrix: (Units=GPa)
#
#
# Indices 1 2 3 4 5 6 
#
# 1 52.3243 -4.4833 30.2823 0.0000 0.0000 0.0000
# 2 -4.4833 82.0212 10.3581 0.0000 0.0000 0.0000
# 3 30.2823 10.3581 92.2330 0.0000 0.0000 0.0000
# 4 0.0000 0.0000 0.0000 31.7883 0.0000 0.0000
# 5 0.0000 0.0000 0.0000 0.0000 31.2079 0.0000
# 6 0.0000 0.0000 0.0000 0.0000 0.0000 -44.8148
#
#
#
# Elastic Compliance Matrix: (Units=1/GPa)
#
#
# Indices 1 2 3 4 5 6 
#
# 1 0.024031 0.002343 -0.008153 0.000000 0.000000 0.000000
# 2 0.002343 0.012596 -0.002184 0.000000 0.000000 0.000000
# 3 -0.008153 -0.002184 0.013764 0.000000 0.000000 0.000000
# 4 0.000000 0.000000 0.000000 0.031458 0.000000 0.000000
# 5 0.000000 0.000000 0.000000 0.000000 0.032043 0.000000
# 6 0.000000 0.000000 0.000000 0.000000 0.000000 -0.022314
#
#
# Mechanical properties :
#
#
# Convention : Reuss Voigt Hill
#
# Bulk Modulus (GPa) = 29.06694 33.21030 31.13862
# Shear Modulus (GPa) = 42.00500 16.33104 29.16802
#
# Velocity S-wave (km/s) = 4.47981 2.79329 3.73304
# Velocity P-wave (km/s) = 6.37539 5.12544 5.78428
#
# Compressibility (1/GPa) = 0.03440334
#
# Stress axis : x y z
#
# Youngs Moduli (GPa) = 41.61315 79.39136 72.65220
#
# Poissons Ratio (x) = -0.18602 0.59234
# Poissons Ratio (y) = -0.09751 0.15866
# Poissons Ratio (z) = 0.33927 0.17338
#
# Static dielectric constant tensor:
#      x y z
#    x 3.836540 0.000000 0.000000 
#    y 0.000000 3.729260 0.000000 
#    z 0.000000 0.000000 3.885620 
# 
# 
# High freq. dielectric constant tensor:
#      x y z
#    x 1.813850 0.000000 0.000000 
#    y 0.000000 1.812890 0.000000 
#    z 0.000000 0.000000 1.823860 
# 
# From -- ./inp_files/50056.got.cif
#   From: 2010.03.12/outbox.cif.g09.slc.cpg/sg64_26_cif.got.tgz:50056.got - 2010.04.10 20:19:32.
