data_PCOD8263849
_publ_section_title
;
Structure prediction by ZEFSAII (Michael W. Deem and Ramdas Pophale) SiO2 
 PCOD8263849
Probable space group: C M C A
;
_chemical_formula_sum "Si O2"
_cell_formula_units_Z 72
_cell_length_a 14.858771
_cell_length_b 18.173541
_cell_length_c 13.443530
_cell_angle_alpha 90.000000
_cell_angle_beta 90.000000
_cell_angle_gamma 90.000000
_cell_volume 3630.243573
_symmetry_space_group_name_H-M "C M C A"
_symmetry_group_IT_number 64
_symmetry_cell_setting 'orthorhombic'
loop_
_space_group_symop_operation_xyz
x,y,z
-x,1/2-y,1/2+z
x,-y,-z
-x,1/2+y,1/2-z
-x,-y,-z
x,1/2+y,1/2-z
-x,y,z
x,1/2-y,1/2+z
1/2+x,1/2+y,z
1/2-x,-y,1/2+z
1/2+x,1/2-y,-z
1/2-x,y,1/2-z
1/2-x,1/2-y,-z
1/2+x,y,1/2-z
1/2-x,1/2+y,z
1/2+x,-y,1/2+z
loop_
_atom_site_type_symbol
_atom_site_label
_atom_site_fract_x
_atom_site_fract_y
_atom_site_fract_z
Si Si1 0.249478 0.072118 0.053399
Si Si2 0.341175 0.704680 0.513363
Si Si3 0.250000 0.002984 0.750000
Si Si4 0.605540 0.876563 0.209772
Si Si5 0.402616 0.655136 0.931746
O O1 0.215724 0.051410 0.163225
O O2 0.331550 0.130948 0.053729
O O3 0.166720 0.104607 0.990608
O O4 0.287219 0.000000 0.000000
O O5 0.250000 0.750000 0.500000
O O6 0.361892 0.681450 0.626699
O O7 0.415037 0.761448 0.473025
O O8 0.333425 0.050038 0.793293
O O9 0.500000 0.896407 0.194016
O O10 0.624805 0.839059 0.316082
O O11 0.500000 0.616693 0.941730
#
# Coordination Sequence:
#
# PCOD8263849 Si02
#       5
#    16  16   8  16  16
#     4  11  21  37  62  88 118 159 207 251 304 379
#     4  10  21  38  60  87 121 161 203 256 313 374
#     4  12  22  40  60  92 128 162 210 258 318 376
#     4  11  22  38  63  90 125 168 209 258 325 388
#     4  10  22  39  63  91 121 157 204 264 316 372
#
# _framework density 19.833379999999998
#
# number of rings (size 3 to 8) (size 9 to 14) (size 15 to 20)
#    0.000    1.333    4.444    2.000    0.000    4.889 
#    0.000    3.333    0.000    0.000    0.000    0.000 
#    0.000    0.000    0.000    0.000    0.000    0.000 
#
# Total GULP energy -446100.496989 kJ/mol
# GULP energy per Si atom -12391.680472 kJ/mol
# Density = 1.978824 g / cm^3
# Si number density = 19.833380 Si / 1000 Ang^3
#
#
#
# Elastic Constant Matrix: (Units=GPa)
#
#
# Indices 1 2 3 4 5 6 
#
# 1 94.4149 29.3997 41.9168 0.0000 0.0000 0.0000
# 2 29.3997 120.7754 58.4593 0.0000 0.0000 0.0000
# 3 41.9168 58.4593 155.9454 0.0000 0.0000 0.0000
# 4 0.0000 0.0000 0.0000 49.4346 0.0000 0.0000
# 5 0.0000 0.0000 0.0000 0.0000 29.2348 0.0000
# 6 0.0000 0.0000 0.0000 0.0000 0.0000 16.9836
#
#
#
# Elastic Compliance Matrix: (Units=1/GPa)
#
#
# Indices 1 2 3 4 5 6 
#
# 1 0.012307 -0.001704 -0.002669 0.000000 0.000000 0.000000
# 2 -0.001704 0.010351 -0.003422 0.000000 0.000000 0.000000
# 3 -0.002669 -0.003422 0.008413 0.000000 0.000000 0.000000
# 4 0.000000 0.000000 0.000000 0.020229 0.000000 0.000000
# 5 0.000000 0.000000 0.000000 0.000000 0.034206 0.000000
# 6 0.000000 0.000000 0.000000 0.000000 0.000000 0.058880
#
#
# Mechanical properties :
#
#
# Convention : Reuss Voigt Hill
#
# Bulk Modulus (GPa) = 64.59866 70.07635 67.33750
# Shear Modulus (GPa) = 30.27782 35.22126 32.74954
#
# Velocity S-wave (km/s) = 3.91142 4.21866 4.06795
# Velocity P-wave (km/s) = 7.28288 7.69017 7.48930
#
# Compressibility (1/GPa) = 0.01548020
#
# Stress axis : x y z
#
# Youngs Moduli (GPa) = 81.25331 96.60798 118.86448
#
# Poissons Ratio (x) = 0.16460 0.31729
# Poissons Ratio (y) = 0.13844 0.40680
# Poissons Ratio (z) = 0.21689 0.33063
#
# Static dielectric constant tensor:
#      x y z
#    x 3.818350 0.000000 0.000000 
#    y 0.000000 4.213220 0.000000 
#    z 0.000000 0.000000 3.827590 
# 
# 
# High freq. dielectric constant tensor:
#      x y z
#    x 1.768150 0.000000 0.000000 
#    y 0.000000 1.774320 0.000000 
#    z 0.000000 0.000000 1.780910 
# 
# From -- ./inp_files/15739.got.cif
#   From: 2010.03.12/outbox.cif.g09.slc.cpg/sg64_8_cif.got.tgz:15739.got - 2010.04.10 20:19:32.
