data_PCOD8263172
_publ_section_title
;
Structure prediction by ZEFSAII (Michael W. Deem and Ramdas Pophale) SiO2 
 PCOD8263172
Probable space group: C M C A
;
_chemical_formula_sum "Si O2"
_cell_formula_units_Z 104
_cell_length_a 9.538100
_cell_length_b 22.013728
_cell_length_c 24.777900
_cell_angle_alpha 90.000000
_cell_angle_beta 90.000000
_cell_angle_gamma 90.000000
_cell_volume 5202.594330
_symmetry_space_group_name_H-M "C M C A"
_symmetry_group_IT_number 64
_symmetry_cell_setting 'orthorhombic'
loop_
_space_group_symop_operation_xyz
x,y,z
-x,1/2-y,1/2+z
x,-y,-z
-x,1/2+y,1/2-z
-x,-y,-z
x,1/2+y,1/2-z
-x,y,z
x,1/2-y,1/2+z
1/2+x,1/2+y,z
1/2-x,-y,1/2+z
1/2+x,1/2-y,-z
1/2-x,y,1/2-z
1/2-x,1/2-y,-z
1/2+x,y,1/2-z
1/2-x,1/2+y,z
1/2+x,-y,1/2+z
loop_
_atom_site_type_symbol
_atom_site_label
_atom_site_fract_x
_atom_site_fract_y
_atom_site_fract_z
Si Si1 0.844596 0.086638 0.498603
Si Si2 0.841204 0.450457 0.593314
Si Si3 0.250000 0.267372 0.750000
Si Si4 0.660775 0.822743 0.641140
Si Si5 0.841409 0.781358 0.546540
Si Si6 0.653024 0.850593 0.294342
Si Si7 0.660004 0.084430 0.601595
O O1 0.759100 0.041950 0.458982
O O2 0.858209 0.149058 0.467349
O O3 0.761914 0.098785 0.552966
O O4 0.000000 0.060166 0.510329
O O5 0.800923 0.394077 0.632078
O O6 0.825613 0.515068 0.623801
O O7 0.000000 0.441457 0.572083
O O8 0.322899 0.309374 0.795013
O O9 0.354181 0.222264 0.716748
O O10 0.500000 0.809744 0.624725
O O11 0.758610 0.779164 0.603977
O O12 0.750000 0.750000 0.500000
O O13 0.000000 0.752674 0.551829
O O14 0.500000 0.879469 0.288603
O O15 0.750000 0.883320 0.250000
O O16 0.710578 0.867662 0.353253
O O17 0.500000 0.097359 0.583605
#
# Coordination Sequence:
#
# PCOD8263172 Si02
#       7
#    16  16   8  16  16  16  16
#     4  10  21  35  54  84 118 150 185 227 280 334
#     4   9  19  37  59  83 113 150 191 229 273 336
#     4  10  22  38  60  84 110 146 188 240 286 342
#     4  10  21  39  61  83 112 152 194 238 285 339
#     4  10  22  37  55  84 120 154 191 236 284 341
#     4   9  21  38  56  80 109 142 185 232 280 335
#     4  10  20  36  58  84 114 150 189 228 277 337
#
# _framework density 19.990026
#
# number of rings (size 3 to 8) (size 9 to 14) (size 15 to 20)
#    0.462    1.846    0.000    1.846    2.154    6.154 
#    1.385    0.000    0.000    0.000    0.000    0.000 
#    0.000    0.000    0.000    0.000    0.000    0.000 
#
# Total GULP energy -644291.466632 kJ/mol
# GULP energy per Si atom -12390.220512 kJ/mol
# Density = 1.994453 g / cm^3
# Si number density = 19.990026 Si / 1000 Ang^3
#
#
#
# Elastic Constant Matrix: (Units=GPa)
#
#
# Indices 1 2 3 4 5 6 
#
# 1 116.5384 22.6756 60.8941 0.0000 0.0000 0.0000
# 2 22.6756 53.4085 46.3179 0.0000 0.0000 0.0000
# 3 60.8941 46.3179 135.8951 0.0000 0.0000 0.0000
# 4 0.0000 0.0000 0.0000 33.1216 0.0000 0.0000
# 5 0.0000 0.0000 0.0000 0.0000 34.1278 0.0000
# 6 0.0000 0.0000 0.0000 0.0000 0.0000 14.8524
#
#
#
# Elastic Compliance Matrix: (Units=1/GPa)
#
#
# Indices 1 2 3 4 5 6 
#
# 1 0.011217 -0.000573 -0.004831 0.000000 0.000000 0.000000
# 2 -0.000573 0.026610 -0.008813 0.000000 0.000000 0.000000
# 3 -0.004831 -0.008813 0.012527 0.000000 0.000000 0.000000
# 4 0.000000 0.000000 0.000000 0.030192 0.000000 0.000000
# 5 0.000000 0.000000 0.000000 0.000000 0.029302 0.000000
# 6 0.000000 0.000000 0.000000 0.000000 0.000000 0.067329
#
#
# Mechanical properties :
#
#
# Convention : Reuss Voigt Hill
#
# Bulk Modulus (GPa) = 45.61975 62.84635 54.23305
# Shear Modulus (GPa) = 23.48351 28.15066 25.81709
#
# Velocity S-wave (km/s) = 3.43120 3.75672 3.59764
# Velocity P-wave (km/s) = 6.21034 7.09397 6.66681
#
# Compressibility (1/GPa) = 0.02192033
#
# Stress axis : x y z
#
# Youngs Moduli (GPa) = 89.15390 37.58036 79.82701
#
# Poissons Ratio (x) = 0.02152 0.38564
# Poissons Ratio (y) = 0.05105 0.70351
# Poissons Ratio (z) = 0.43070 0.33119
#
# Static dielectric constant tensor:
#      x y z
#    x 3.918150 0.000000 0.000000 
#    y 0.000000 3.616280 0.000000 
#    z 0.000000 0.000000 3.483090 
# 
# 
# High freq. dielectric constant tensor:
#      x y z
#    x 1.783720 0.000000 0.000000 
#    y 0.000000 1.776370 0.000000 
#    z 0.000000 0.000000 1.764540 
# 
# From -- ./inp_files/37275.got.cif
#   From: 2010.03.12/outbox.cif.g09.slc.cpg/sg64_19_cif.got.tgz:37275.got - 2010.04.10 20:19:32.
