data_PCOD8263451
_publ_section_title
;
Structure prediction by ZEFSAII (Michael W. Deem and Ramdas Pophale) SiO2 
 PCOD8263451
Probable space group: C M C A
;
_chemical_formula_sum "Si O2"
_cell_formula_units_Z 88
_cell_length_a 17.116057
_cell_length_b 14.409769
_cell_length_c 17.657508
_cell_angle_alpha 90.000000
_cell_angle_beta 90.000000
_cell_angle_gamma 90.000000
_cell_volume 4355.020008
_symmetry_space_group_name_H-M "C M C A"
_symmetry_group_IT_number 64
_symmetry_cell_setting 'orthorhombic'
loop_
_space_group_symop_operation_xyz
x,y,z
-x,1/2-y,1/2+z
x,-y,-z
-x,1/2+y,1/2-z
-x,-y,-z
x,1/2+y,1/2-z
-x,y,z
x,1/2-y,1/2+z
1/2+x,1/2+y,z
1/2-x,-y,1/2+z
1/2+x,1/2-y,-z
1/2-x,y,1/2-z
1/2-x,1/2-y,-z
1/2+x,y,1/2-z
1/2-x,1/2+y,z
1/2+x,-y,1/2+z
loop_
_atom_site_type_symbol
_atom_site_label
_atom_site_fract_x
_atom_site_fract_y
_atom_site_fract_z
Si Si1 0.169717 0.500000 0.000000
Si Si2 0.412628 0.450689 0.920305
Si Si3 0.321976 0.296672 0.694423
Si Si4 0.408590 0.101416 0.702647
Si Si5 0.090866 0.527344 0.162318
Si Si6 0.235076 0.340316 0.545396
O O1 0.120118 0.510312 0.076773
O O2 0.230105 0.583428 0.989109
O O3 0.500000 0.414519 0.897648
O O4 0.380822 0.525127 0.859017
O O5 0.353718 0.362958 0.927613
O O6 0.417841 0.500000 0.000000
O O7 0.250000 0.287852 0.750000
O O8 0.365002 0.198234 0.689690
O O9 0.379834 0.382845 0.711028
O O10 0.290129 0.331142 0.615910
O O11 0.500000 0.120592 0.691781
O O12 0.389154 0.063099 0.786680
O O13 0.000000 0.542696 0.154752
O O14 0.250000 0.250000 0.500000
#
# Coordination Sequence:
#
# PCOD8263451 Si02
#       6
#     8  16  16  16  16  16
#     4  10  23  40  65  90 126 162 212 268 315 376
#     4  10  20  38  64  92 126 166 207 256 315 375
#     4  11  24  37  61  94 125 162 208 255 314 376
#     4  10  22  40  65  92 125 166 206 260 318 377
#     4  10  22  43  65  90 125 166 212 263 318 378
#     4  11  23  39  61  93 127 165 206 258 308 369
#
# _framework density 20.206565999999999
#
# number of rings (size 3 to 8) (size 9 to 14) (size 15 to 20)
#    0.000    1.636    0.909    3.000    2.545    2.182 
#    0.000    5.455    0.000    0.000    0.000    0.000 
#    0.000    0.000    0.000    0.000    0.000    0.000 
#
# Total GULP energy -545165.258549 kJ/mol
# GULP energy per Si atom -12390.119512 kJ/mol
# Density = 2.016057 g / cm^3
# Si number density = 20.206566 Si / 1000 Ang^3
#
#
#
# Elastic Constant Matrix: (Units=GPa)
#
#
# Indices 1 2 3 4 5 6 
#
# 1 122.6048 78.6896 32.1486 0.0000 0.0000 0.0000
# 2 78.6896 148.2522 34.0398 0.0000 0.0000 0.0000
# 3 32.1486 34.0398 80.0870 0.0000 0.0000 0.0000
# 4 0.0000 0.0000 0.0000 37.8183 0.0000 0.0000
# 5 0.0000 0.0000 0.0000 0.0000 23.0738 0.0000
# 6 0.0000 0.0000 0.0000 0.0000 0.0000 31.5002
#
#
#
# Elastic Compliance Matrix: (Units=1/GPa)
#
#
# Indices 1 2 3 4 5 6 
#
# 1 0.012805 -0.006224 -0.002495 0.000000 0.000000 0.000000
# 2 -0.006224 0.010500 -0.001964 0.000000 0.000000 0.000000
# 3 -0.002495 -0.001964 0.014323 0.000000 0.000000 0.000000
# 4 0.000000 0.000000 0.000000 0.026442 0.000000 0.000000
# 5 0.000000 0.000000 0.000000 0.000000 0.043339 0.000000
# 6 0.000000 0.000000 0.000000 0.000000 0.000000 0.031746
#
#
# Mechanical properties :
#
#
# Convention : Reuss Voigt Hill
#
# Bulk Modulus (GPa) = 61.49504 71.18891 66.34197
# Shear Modulus (GPa) = 30.13108 32.21620 31.17364
#
# Velocity S-wave (km/s) = 3.86573 3.99725 3.93204
# Velocity P-wave (km/s) = 7.10102 7.52404 7.31559
#
# Compressibility (1/GPa) = 0.01626148
#
# Stress axis : x y z
#
# Youngs Moduli (GPa) = 78.09439 95.23990 69.81845
#
# Poissons Ratio (x) = 0.59276 0.17419
# Poissons Ratio (y) = 0.48605 0.13715
# Poissons Ratio (z) = 0.19483 0.18709
#
# Static dielectric constant tensor:
#      x y z
#    x 2.382240 0.000000 0.000000 
#    y 0.000000 3.647080 0.000000 
#    z 0.000000 0.000000 3.769580 
# 
# 
# High freq. dielectric constant tensor:
#      x y z
#    x 1.800570 0.000000 0.000000 
#    y 0.000000 1.788120 0.000000 
#    z 0.000000 0.000000 1.801510 
# 
# From -- ./inp_files/40049.got.cif
#   From: 2010.03.12/outbox.cif.g09.slc.cpg/sg64_21_cif.got.tgz:40049.got - 2010.04.10 20:19:32.
