data_PCOD8263918
_publ_section_title
;
Structure prediction by ZEFSAII (Michael W. Deem and Ramdas Pophale) SiO2 
 PCOD8263918
Probable space group: C M C A
;
_chemical_formula_sum "Si O2"
_cell_formula_units_Z 88
_cell_length_a 20.808042
_cell_length_b 12.150002
_cell_length_c 15.360790
_cell_angle_alpha 90.000000
_cell_angle_beta 90.000000
_cell_angle_gamma 90.000000
_cell_volume 3883.480395
_symmetry_space_group_name_H-M "C M C A"
_symmetry_group_IT_number 64
_symmetry_cell_setting 'orthorhombic'
loop_
_space_group_symop_operation_xyz
x,y,z
-x,1/2-y,1/2+z
x,-y,-z
-x,1/2+y,1/2-z
-x,-y,-z
x,1/2+y,1/2-z
-x,y,z
x,1/2-y,1/2+z
1/2+x,1/2+y,z
1/2-x,-y,1/2+z
1/2+x,1/2-y,-z
1/2-x,y,1/2-z
1/2-x,1/2-y,-z
1/2+x,y,1/2-z
1/2-x,1/2+y,z
1/2+x,-y,1/2+z
loop_
_atom_site_type_symbol
_atom_site_label
_atom_site_fract_x
_atom_site_fract_y
_atom_site_fract_z
Si Si1 0.132195 0.682722 0.366135
Si Si2 0.316099 0.958031 0.303178
Si Si3 0.071733 0.184691 0.773617
Si Si4 0.149540 0.500000 0.000000
Si Si5 0.764141 0.173747 0.582434
Si Si6 0.426286 0.786062 0.962770
O O1 0.155329 0.558386 0.358037
O O2 0.080257 0.712569 0.292229
O O3 0.195766 0.755264 0.348294
O O4 0.106346 0.710516 0.462824
O O5 0.250000 0.985435 0.250000
O O6 0.376259 0.909898 0.247738
O O7 0.301996 0.861842 0.373234
O O8 0.080604 0.224793 0.871818
O O9 0.000000 0.136358 0.760681
O O10 0.196305 0.438708 0.067008
O O11 0.106429 0.593668 0.046071
O O12 0.750000 0.250000 0.500000
O O13 0.500000 0.804331 0.988933
#
# Coordination Sequence:
#
# PCOD8263918 Si02
#       6
#    16  16  16   8  16  16
#     4  11  25  43  70 101 144 187 240 301 361 431
#     4  12  26  43  73 104 144 188 240 301 366 437
#     4  11  26  47  70 102 143 190 241 299 360 434
#     4  10  21  38  68  98 135 186 230 294 346 430
#     4  11  23  42  67 103 143 178 236 291 366 428
#     4  10  23  43  69 102 145 190 242 296 358 433
#
# _framework density 22.660087000000001
#
# number of rings (size 3 to 8) (size 9 to 14) (size 15 to 20)
#    0.000    1.091    1.818    4.091    5.091    3.636 
#    0.000    5.455    0.000    0.000    0.000    0.000 
#    0.000    0.000    0.000    0.000    0.000    0.000 
#
# Total GULP energy -545290.161527 kJ/mol
# GULP energy per Si atom -12392.958217 kJ/mol
# Density = 2.260851 g / cm^3
# Si number density = 22.660087 Si / 1000 Ang^3
#
#
#
# Elastic Constant Matrix: (Units=GPa)
#
#
# Indices 1 2 3 4 5 6 
#
# 1 148.8200 47.4588 34.2329 0.0000 0.0000 0.0000
# 2 47.4588 92.1399 29.8032 0.0000 0.0000 0.0000
# 3 34.2329 29.8032 111.3424 0.0000 0.0000 0.0000
# 4 0.0000 0.0000 0.0000 31.4001 0.0000 0.0000
# 5 0.0000 0.0000 0.0000 0.0000 30.5357 0.0000
# 6 0.0000 0.0000 0.0000 0.0000 0.0000 35.3847
#
#
#
# Elastic Compliance Matrix: (Units=1/GPa)
#
#
# Indices 1 2 3 4 5 6 
#
# 1 0.008273 -0.003765 -0.001536 0.000000 0.000000 0.000000
# 2 -0.003765 0.013595 -0.002481 0.000000 0.000000 0.000000
# 3 -0.001536 -0.002481 0.010118 0.000000 0.000000 0.000000
# 4 0.000000 0.000000 0.000000 0.031847 0.000000 0.000000
# 5 0.000000 0.000000 0.000000 0.000000 0.032749 0.000000
# 6 0.000000 0.000000 0.000000 0.000000 0.000000 0.028261
#
#
# Mechanical properties :
#
#
# Convention : Reuss Voigt Hill
#
# Bulk Modulus (GPa) = 60.89490 63.92137 62.40813
# Shear Modulus (GPa) = 34.27468 35.51794 34.89631
#
# Velocity S-wave (km/s) = 3.89338 3.96336 3.92853
# Velocity P-wave (km/s) = 6.86606 7.01530 6.94108
#
# Compressibility (1/GPa) = 0.01642174
#
# Stress axis : x y z
#
# Youngs Moduli (GPa) = 120.86955 73.55787 98.83582
#
# Poissons Ratio (x) = 0.27691 0.15182
# Poissons Ratio (y) = 0.45502 0.24526
# Poissons Ratio (z) = 0.18566 0.18253
#
# Static dielectric constant tensor:
#      x y z
#    x 4.760000 0.000000 0.000000 
#    y 0.000000 4.082110 0.000000 
#    z 0.000000 0.000000 3.887180 
# 
# 
# High freq. dielectric constant tensor:
#      x y z
#    x 1.916580 0.000000 0.000000 
#    y 0.000000 1.886800 0.000000 
#    z 0.000000 0.000000 1.890990 
# 
# From -- ./inp_files/27166.got.cif
#   From: 2010.03.12/outbox.cif.g09.slc.cpg/sg64_14_cif.got.tgz:27166.got - 2010.04.10 20:19:32.
