data_PCOD8263254
_publ_section_title
;
Structure prediction by ZEFSAII (Michael W. Deem and Ramdas Pophale) SiO2 
 PCOD8263254
Probable space group: C M C A
;
_chemical_formula_sum "Si O2"
_cell_formula_units_Z 112
_cell_length_a 36.595332
_cell_length_b 13.064431
_cell_length_c 12.834301
_cell_angle_alpha 90.000000
_cell_angle_beta 90.000000
_cell_angle_gamma 90.000000
_cell_volume 6136.043242
_symmetry_space_group_name_H-M "C M C A"
_symmetry_group_IT_number 64
_symmetry_cell_setting 'orthorhombic'
loop_
_space_group_symop_operation_xyz
x,y,z
-x,1/2-y,1/2+z
x,-y,-z
-x,1/2+y,1/2-z
-x,-y,-z
x,1/2+y,1/2-z
-x,y,z
x,1/2-y,1/2+z
1/2+x,1/2+y,z
1/2-x,-y,1/2+z
1/2+x,1/2-y,-z
1/2-x,y,1/2-z
1/2-x,1/2-y,-z
1/2+x,y,1/2-z
1/2-x,1/2+y,z
1/2+x,-y,1/2+z
loop_
_atom_site_type_symbol
_atom_site_label
_atom_site_fract_x
_atom_site_fract_y
_atom_site_fract_z
Si Si1 0.459328 0.885057 0.464091
Si Si2 0.355170 0.733249 0.415854
Si Si3 0.219146 0.831298 0.020538
Si Si4 0.218107 0.482883 0.668342
Si Si5 0.595347 0.127960 0.715820
Si Si6 0.400457 0.279067 0.897610
Si Si7 0.139984 0.935136 0.756931
O O1 0.500000 0.837269 0.456646
O O2 0.441479 0.883342 0.350020
O O3 0.436466 0.823233 0.549132
O O4 0.461603 0.000000 0.500000
O O5 0.314604 0.762226 0.446477
O O6 0.372329 0.830517 0.357453
O O7 0.377871 0.710796 0.520514
O O8 0.356171 0.631928 0.346612
O O9 0.228743 0.910128 0.113486
O O10 0.250000 0.750000 0.000000
O O11 0.213093 0.892248 0.914191
O O12 0.250000 0.455415 0.750000
O O13 0.178825 0.490141 0.723990
O O14 0.585606 0.206662 0.806323
O O15 0.609092 0.020687 0.762976
O O16 0.373459 0.368013 0.855376
#
# Coordination Sequence:
#
# PCOD8263254 Si02
#       7
#    16  16  16  16  16  16  16
#     4  10  20  36  62  92 121 157 201 241 287 357
#     4  10  21  36  60  88 109 152 200 246 294 354
#     4  11  23  39  59  80 114 152 195 246 302 355
#     4  11  24  39  59  83 112 155 195 244 304 353
#     4  10  21  36  61  89 117 157 196 243 295 352
#     4  10  21  37  60  89 118 155 199 242 298 346
#     4  11  20  37  61  84 118 153 197 248 293 355
#
# _framework density 18.252804000000001
#
# number of rings (size 3 to 8) (size 9 to 14) (size 15 to 20)
#    0.000    1.571    4.286    0.857    0.000    4.000 
#    0.000    0.000    0.000    0.000    0.000    4.000 
#    0.000    0.000    0.000    0.000    0.000    0.000 
#
# Total GULP energy -694474.313267 kJ/mol
# GULP energy per Si atom -12401.327023 kJ/mol
# Density = 1.821126 g / cm^3
# Si number density = 18.252804 Si / 1000 Ang^3
#
#
#
# Elastic Constant Matrix: (Units=GPa)
#
#
# Indices 1 2 3 4 5 6 
#
# 1 145.9899 50.0302 59.0436 0.0000 0.0000 0.0000
# 2 50.0302 84.9749 36.9185 0.0000 0.0000 0.0000
# 3 59.0436 36.9185 86.0777 0.0000 0.0000 0.0000
# 4 0.0000 0.0000 0.0000 26.1230 0.0000 0.0000
# 5 0.0000 0.0000 0.0000 0.0000 25.8313 0.0000
# 6 0.0000 0.0000 0.0000 0.0000 0.0000 40.1210
#
#
#
# Elastic Compliance Matrix: (Units=1/GPa)
#
#
# Indices 1 2 3 4 5 6 
#
# 1 0.010345 -0.003697 -0.005511 0.000000 0.000000 0.000000
# 2 -0.003697 0.015784 -0.004234 0.000000 0.000000 0.000000
# 3 -0.005511 -0.004234 0.017213 0.000000 0.000000 0.000000
# 4 0.000000 0.000000 0.000000 0.038280 0.000000 0.000000
# 5 0.000000 0.000000 0.000000 0.000000 0.038713 0.000000
# 6 0.000000 0.000000 0.000000 0.000000 0.000000 0.024925
#
#
# Mechanical properties :
#
#
# Convention : Reuss Voigt Hill
#
# Bulk Modulus (GPa) = 60.75378 67.66967 64.21172
# Shear Modulus (GPa) = 28.14831 29.81842 28.98336
#
# Velocity S-wave (km/s) = 3.93126 4.04621 3.98915
# Velocity P-wave (km/s) = 7.34597 7.68005 7.51487
#
# Compressibility (1/GPa) = 0.01645988
#
# Stress axis : x y z
#
# Youngs Moduli (GPa) = 96.66143 63.35421 58.09440
#
# Poissons Ratio (x) = 0.23421 0.32014
# Poissons Ratio (y) = 0.35734 0.24598
# Poissons Ratio (z) = 0.53267 0.26825
#
# Static dielectric constant tensor:
#      x y z
#    x 3.489160 0.000000 0.000000 
#    y 0.000000 3.238960 0.000000 
#    z 0.000000 0.000000 3.453640 
# 
# 
# High freq. dielectric constant tensor:
#      x y z
#    x 1.706220 0.000000 0.000000 
#    y 0.000000 1.704580 0.000000 
#    z 0.000000 0.000000 1.713770 
# 
# From -- ./inp_files/28366.got.cif
#   From: 2010.03.12/outbox.cif.g09.slc.cpg/sg64_15_cif.got.tgz:28366.got - 2010.04.10 20:19:32.
