data_PCOD8263482
_publ_section_title
;
Structure prediction by ZEFSAII (Michael W. Deem and Ramdas Pophale) SiO2 
 PCOD8263482
Probable space group: C M C A
;
_chemical_formula_sum "Si O2"
_cell_formula_units_Z 96
_cell_length_a 24.388093
_cell_length_b 16.212066
_cell_length_c 12.602597
_cell_angle_alpha 90.000000
_cell_angle_beta 90.000000
_cell_angle_gamma 90.000000
_cell_volume 4982.832109
_symmetry_space_group_name_H-M "C M C A"
_symmetry_group_IT_number 64
_symmetry_cell_setting 'orthorhombic'
loop_
_space_group_symop_operation_xyz
x,y,z
-x,1/2-y,1/2+z
x,-y,-z
-x,1/2+y,1/2-z
-x,-y,-z
x,1/2+y,1/2-z
-x,y,z
x,1/2-y,1/2+z
1/2+x,1/2+y,z
1/2-x,-y,1/2+z
1/2+x,1/2-y,-z
1/2-x,y,1/2-z
1/2-x,1/2-y,-z
1/2+x,y,1/2-z
1/2-x,1/2+y,z
1/2+x,-y,1/2+z
loop_
_atom_site_type_symbol
_atom_site_label
_atom_site_fract_x
_atom_site_fract_y
_atom_site_fract_z
Si Si1 0.890499 0.699085 0.367960
Si Si2 0.311224 0.612028 0.287581
Si Si3 0.306012 0.300128 0.497373
Si Si4 0.062503 0.086262 0.965556
Si Si5 0.564804 0.142911 0.762558
Si Si6 0.151509 0.046756 0.605920
O O1 0.854203 0.634643 0.302794
O O2 0.853188 0.741812 0.455568
O O3 0.934701 0.649115 0.436280
O O4 0.921025 0.762377 0.290031
O O5 0.250000 0.628499 0.250000
O O6 0.322963 0.671955 0.385742
O O7 0.318296 0.515911 0.315103
O O8 0.250000 0.250000 0.500000
O O9 0.304094 0.381230 0.421244
O O10 0.087032 0.123877 0.856355
O O11 0.000000 0.066934 0.939303
O O12 0.091828 0.000000 0.000000
O O13 0.500000 0.128507 0.775926
O O14 0.596220 0.082583 0.842983
O O15 0.132169 0.000000 0.500000
#
# Coordination Sequence:
#
# PCOD8263482 Si02
#       6
#    16  16  16  16  16  16
#     4  11  21  37  60  84 116 154 199 236 290 349
#     4  11  21  38  56  83 116 154 197 233 288 351
#     4  10  20  39  56  81 115 151 187 242 288 335
#     4  10  21  38  58  86 121 152 191 245 297 349
#     4  10  21  39  61  88 116 153 199 246 302 356
#     4   9  21  39  58  84 119 148 194 247 290 357
#
# _framework density 19.266152000000002
#
# number of rings (size 3 to 8) (size 9 to 14) (size 15 to 20)
#    0.000    1.833    1.667    2.500    0.000    0.333 
#   12.000    0.833    0.000    1.000    0.000    0.000 
#    0.000    0.000    0.000    0.000    0.000    0.000 
#
# Total GULP energy -595124.357488 kJ/mol
# GULP energy per Si atom -12398.424114 kJ/mol
# Density = 1.922230 g / cm^3
# Si number density = 19.266152 Si / 1000 Ang^3
#
#
#
# Elastic Constant Matrix: (Units=GPa)
#
#
# Indices 1 2 3 4 5 6 
#
# 1 72.6860 34.9442 39.7157 0.0000 0.0000 0.0000
# 2 34.9442 127.5357 67.5495 0.0000 0.0000 0.0000
# 3 39.7157 67.5495 121.0316 0.0000 0.0000 0.0000
# 4 0.0000 0.0000 0.0000 36.0294 0.0000 0.0000
# 5 0.0000 0.0000 0.0000 0.0000 28.3178 0.0000
# 6 0.0000 0.0000 0.0000 0.0000 0.0000 -28.3469
#
#
#
# Elastic Compliance Matrix: (Units=1/GPa)
#
#
# Indices 1 2 3 4 5 6 
#
# 1 0.017290 -0.002459 -0.004301 0.000000 0.000000 0.000000
# 2 -0.002459 0.011481 -0.005601 0.000000 0.000000 0.000000
# 3 -0.004301 -0.005601 0.012800 0.000000 0.000000 0.000000
# 4 0.000000 0.000000 0.000000 0.027755 0.000000 0.000000
# 5 0.000000 0.000000 0.000000 0.000000 0.035313 0.000000
# 6 0.000000 0.000000 0.000000 0.000000 0.000000 -0.035277
#
#
# Mechanical properties :
#
#
# Convention : Reuss Voigt Hill
#
# Bulk Modulus (GPa) = 59.35226 67.29689 63.32457
# Shear Modulus (GPa) = 50.14978 19.13632 34.64305
#
# Velocity S-wave (km/s) = 5.10749 3.15502 4.24504
# Velocity P-wave (km/s) = 8.10280 6.94825 7.54763
#
# Compressibility (1/GPa) = 0.01684856
#
# Stress axis : x y z
#
# Youngs Moduli (GPa) = 57.83598 87.09811 78.12747
#
# Poissons Ratio (x) = 0.21421 0.33603
# Poissons Ratio (y) = 0.14224 0.43758
# Poissons Ratio (z) = 0.24876 0.48782
#
# Static dielectric constant tensor:
#      x y z
#    x 3.258140 0.000000 0.000000 
#    y 0.000000 3.784600 0.000000 
#    z 0.000000 0.000000 3.713540 
# 
# 
# High freq. dielectric constant tensor:
#      x y z
#    x 1.730130 0.000000 0.000000 
#    y 0.000000 1.764460 0.000000 
#    z 0.000000 0.000000 1.763450 
# 
# From -- ./inp_files/18339.got.cif
#   From: 2010.03.12/outbox.cif.g09.slc.cpg/sg64_10_cif.got.tgz:18339.got - 2010.04.10 20:19:32.
