data_PCOD8263862
_publ_section_title
;
Structure prediction by ZEFSAII (Michael W. Deem and Ramdas Pophale) SiO2 
 PCOD8263862
Probable space group: C M C A
;
_chemical_formula_sum "Si O2"
_cell_formula_units_Z 80
_cell_length_a 16.932650
_cell_length_b 26.107840
_cell_length_c 8.477111
_cell_angle_alpha 90.000000
_cell_angle_beta 90.000000
_cell_angle_gamma 90.000000
_cell_volume 3747.518142
_symmetry_space_group_name_H-M "C M C A"
_symmetry_group_IT_number 64
_symmetry_cell_setting 'orthorhombic'
loop_
_space_group_symop_operation_xyz
x,y,z
-x,1/2-y,1/2+z
x,-y,-z
-x,1/2+y,1/2-z
-x,-y,-z
x,1/2+y,1/2-z
-x,y,z
x,1/2-y,1/2+z
1/2+x,1/2+y,z
1/2-x,-y,1/2+z
1/2+x,1/2-y,-z
1/2-x,y,1/2-z
1/2-x,1/2-y,-z
1/2+x,y,1/2-z
1/2-x,1/2+y,z
1/2+x,-y,1/2+z
loop_
_atom_site_type_symbol
_atom_site_label
_atom_site_fract_x
_atom_site_fract_y
_atom_site_fract_z
Si Si1 0.590712 0.197182 0.860970
Si Si2 0.411908 0.500200 0.187711
Si Si3 0.336592 0.895884 0.678926
Si Si4 0.163500 0.896693 0.195095
Si Si5 0.840196 0.208781 0.307367
O O1 0.500000 0.199086 0.919266
O O2 0.603324 0.144098 0.768347
O O3 0.606622 0.243402 0.741118
O O4 0.652904 0.203118 0.004008
O O5 0.500000 0.492274 0.251651
O O6 0.380948 0.554782 0.250399
O O7 0.359252 0.453662 0.255438
O O8 0.409912 0.500000 0.000000
O O9 0.250000 0.897363 0.750000
O O10 0.338864 0.895517 0.492022
O O11 0.377424 0.843190 0.734418
O O12 0.250000 0.881761 0.250000
O O13 0.750000 0.216517 0.250000
#
# Coordination Sequence:
#
# PCOD8263862 Si02
#       5
#    16  16  16  16  16
#     4  12  25  41  63  94 126 158 203 259 316 369
#     4   9  19  35  57  86 120 158 199 246 302 360
#     4  10  21  38  61  88 118 158 205 248 296 359
#     4  11  21  38  63  88 121 161 204 251 301 363
#     4  11  23  42  64  89 123 164 209 251 306 376
#
# _framework density 21.347460999999999
#
# number of rings (size 3 to 8) (size 9 to 14) (size 15 to 20)
#    0.000    1.400    0.000    6.600    0.000    2.400 
#    0.000    3.000    0.000    6.000    0.000    0.000 
#    0.000    0.000    0.000    0.000    0.000    0.000 
#
# Total GULP energy -496044.472108 kJ/mol
# GULP energy per Si atom -12401.111803 kJ/mol
# Density = 2.129887 g / cm^3
# Si number density = 21.347461 Si / 1000 Ang^3
#
#
#
# Elastic Constant Matrix: (Units=GPa)
#
#
# Indices 1 2 3 4 5 6 
#
# 1 95.4722 33.9867 20.6706 0.0000 0.0000 0.0000
# 2 33.9867 175.8815 33.0418 0.0000 0.0000 0.0000
# 3 20.6706 33.0418 89.7398 0.0000 0.0000 0.0000
# 4 0.0000 0.0000 0.0000 35.2095 0.0000 0.0000
# 5 0.0000 0.0000 0.0000 0.0000 22.2586 0.0000
# 6 0.0000 0.0000 0.0000 0.0000 0.0000 29.2418
#
#
#
# Elastic Compliance Matrix: (Units=1/GPa)
#
#
# Indices 1 2 3 4 5 6 
#
# 1 0.011566 -0.001863 -0.001978 0.000000 0.000000 0.000000
# 2 -0.001863 0.006408 -0.001930 0.000000 0.000000 0.000000
# 3 -0.001978 -0.001930 0.012310 0.000000 0.000000 0.000000
# 4 0.000000 0.000000 0.000000 0.028401 0.000000 0.000000
# 5 0.000000 0.000000 0.000000 0.000000 0.044927 0.000000
# 6 0.000000 0.000000 0.000000 0.000000 0.000000 0.034198
#
#
# Mechanical properties :
#
#
# Convention : Reuss Voigt Hill
#
# Bulk Modulus (GPa) = 53.36026 59.61017 56.48521
# Shear Modulus (GPa) = 32.13376 35.56827 33.85102
#
# Velocity S-wave (km/s) = 3.88399 4.08629 3.98643
# Velocity P-wave (km/s) = 6.72043 7.08859 6.90696
#
# Compressibility (1/GPa) = 0.01874054
#
# Stress axis : x y z
#
# Youngs Moduli (GPa) = 86.46156 156.04640 81.23693
#
# Poissons Ratio (x) = 0.29077 0.16069
# Poissons Ratio (y) = 0.16111 0.15681
# Poissons Ratio (z) = 0.17102 0.30122
#
# Static dielectric constant tensor:
#      x y z
#    x 3.620770 0.000000 0.000000 
#    y 0.000000 4.491160 0.000000 
#    z 0.000000 0.000000 3.631690 
# 
# 
# High freq. dielectric constant tensor:
#      x y z
#    x 1.830290 0.000000 0.000000 
#    y 0.000000 1.864820 0.000000 
#    z 0.000000 0.000000 1.823770 
# 
# From -- ./inp_files/7013.got.cif
#   From: 2010.03.12/outbox.cif.g09.slc.cpg/sg64_4_cif.got.tgz:7013.got - 2010.04.10 20:19:32.
