data_PCOD8263475
_publ_section_title
;
Structure prediction by ZEFSAII (Michael W. Deem and Ramdas Pophale) SiO2 
 PCOD8263475
Probable space group: C M C A
;
_chemical_formula_sum "Si O2"
_cell_formula_units_Z 64
_cell_length_a 15.049726
_cell_length_b 8.958629
_cell_length_c 19.834426
_cell_angle_alpha 90.000000
_cell_angle_beta 90.000000
_cell_angle_gamma 90.000000
_cell_volume 2674.174736
_symmetry_space_group_name_H-M "C M C A"
_symmetry_group_IT_number 64
_symmetry_cell_setting 'orthorhombic'
loop_
_space_group_symop_operation_xyz
x,y,z
-x,1/2-y,1/2+z
x,-y,-z
-x,1/2+y,1/2-z
-x,-y,-z
x,1/2+y,1/2-z
-x,y,z
x,1/2-y,1/2+z
1/2+x,1/2+y,z
1/2-x,-y,1/2+z
1/2+x,1/2-y,-z
1/2-x,y,1/2-z
1/2-x,1/2-y,-z
1/2+x,y,1/2-z
1/2-x,1/2+y,z
1/2+x,-y,1/2+z
loop_
_atom_site_type_symbol
_atom_site_label
_atom_site_fract_x
_atom_site_fract_y
_atom_site_fract_z
Si Si1 0.333670 0.430624 0.202913
Si Si2 0.098224 0.609492 0.188146
Si Si3 0.104744 0.076164 0.071119
Si Si4 0.605732 0.583315 0.565383
O O1 0.250000 0.476320 0.250000
O O2 0.413004 0.512014 0.243714
O O3 0.341205 0.253150 0.200156
O O4 0.334941 0.493941 0.127029
O O5 0.141913 0.504995 0.130523
O O6 0.000000 0.663439 0.165607
O O7 0.138354 0.246548 0.067986
O O8 0.000000 0.063188 0.088578
O O9 0.125324 0.000000 0.000000
O O10 0.644963 0.500000 0.500000
O O11 0.500000 0.581310 0.564020
#
# Coordination Sequence:
#
# PCOD8263475 Si02
#       4
#    16  16  16  16
#     4  12  25  41  61  94 135 172 213 272 343 401
#     4  11  22  39  64  90 124 174 229 276 322 392
#     4  10  20  38  68 102 135 176 230 285 336 401
#     4   9  18  34  60  96 131 164 213 280 340 387
#
# _framework density 23.932615999999999
#
# number of rings (size 3 to 8) (size 9 to 14) (size 15 to 20)
#    0.000    1.500    0.000    6.000    0.000    6.000 
#    0.000    2.500    0.000    7.500    0.000    0.000 
#    0.000    0.000    0.000    0.000    0.000    1.000 
#
# Total GULP energy -396798.794966 kJ/mol
# GULP energy per Si atom -12399.962343 kJ/mol
# Density = 2.387814 g / cm^3
# Si number density = 23.932616 Si / 1000 Ang^3
#
#
#
# Elastic Constant Matrix: (Units=GPa)
#
#
# Indices 1 2 3 4 5 6 
#
# 1 54.7055 25.8406 31.2220 0.0000 0.0000 0.0000
# 2 25.8406 221.0816 102.1184 0.0000 0.0000 0.0000
# 3 31.2220 102.1184 213.9611 0.0000 0.0000 0.0000
# 4 0.0000 0.0000 0.0000 56.9483 0.0000 0.0000
# 5 0.0000 0.0000 0.0000 0.0000 32.4113 0.0000
# 6 0.0000 0.0000 0.0000 0.0000 0.0000 22.5306
#
#
#
# Elastic Compliance Matrix: (Units=1/GPa)
#
#
# Indices 1 2 3 4 5 6 
#
# 1 0.020220 -0.001283 -0.002338 0.000000 0.000000 0.000000
# 2 -0.001283 0.005884 -0.002621 0.000000 0.000000 0.000000
# 3 -0.002338 -0.002621 0.006266 0.000000 0.000000 0.000000
# 4 0.000000 0.000000 0.000000 0.017560 0.000000 0.000000
# 5 0.000000 0.000000 0.000000 0.000000 0.030853 0.000000
# 6 0.000000 0.000000 0.000000 0.000000 0.000000 0.044384
#
#
# Mechanical properties :
#
#
# Convention : Reuss Voigt Hill
#
# Bulk Modulus (GPa) = 50.28885 89.79001 70.03943
# Shear Modulus (GPa) = 34.65472 44.41587 39.53529
#
# Velocity S-wave (km/s) = 3.80940 4.31266 4.06882
# Velocity P-wave (km/s) = 6.35665 7.89924 7.16955
#
# Compressibility (1/GPa) = 0.01988513
#
# Stress axis : x y z
#
# Youngs Moduli (GPa) = 49.45518 169.95680 159.59566
#
# Poissons Ratio (x) = 0.21813 0.37315
# Poissons Ratio (y) = 0.06347 0.41829
# Poissons Ratio (z) = 0.11563 0.44545
#
# Static dielectric constant tensor:
#      x y z
#    x 3.802100 0.000000 0.000000 
#    y 0.000000 4.264240 0.000000 
#    z 0.000000 0.000000 4.450770 
# 
# 
# High freq. dielectric constant tensor:
#      x y z
#    x 1.927540 0.000000 0.000000 
#    y 0.000000 1.959600 0.000000 
#    z 0.000000 0.000000 1.962280 
# 
# From -- ./inp_files/39797.got.cif
#   From: 2010.03.12/outbox.cif.g09.slc.cpg/sg64_20_cif.got.tgz:39797.got - 2010.04.10 20:19:32.
