data_PCOD8263406
_publ_section_title
;
Structure prediction by ZEFSAII (Michael W. Deem and Ramdas Pophale) SiO2 
 PCOD8263406
Probable space group: C M C A
;
_chemical_formula_sum "Si O2"
_cell_formula_units_Z 96
_cell_length_a 18.216330
_cell_length_b 11.842352
_cell_length_c 22.873539
_cell_angle_alpha 90.000000
_cell_angle_beta 90.000000
_cell_angle_gamma 90.000000
_cell_volume 4934.375719
_symmetry_space_group_name_H-M "C M C A"
_symmetry_group_IT_number 64
_symmetry_cell_setting 'orthorhombic'
loop_
_space_group_symop_operation_xyz
x,y,z
-x,1/2-y,1/2+z
x,-y,-z
-x,1/2+y,1/2-z
-x,-y,-z
x,1/2+y,1/2-z
-x,y,z
x,1/2-y,1/2+z
1/2+x,1/2+y,z
1/2-x,-y,1/2+z
1/2+x,1/2-y,-z
1/2-x,y,1/2-z
1/2-x,1/2-y,-z
1/2+x,y,1/2-z
1/2-x,1/2+y,z
1/2+x,-y,1/2+z
loop_
_atom_site_type_symbol
_atom_site_label
_atom_site_fract_x
_atom_site_fract_y
_atom_site_fract_z
Si Si1 0.417915 0.992531 0.390435
Si Si2 0.834515 0.155536 0.376561
Si Si3 0.681812 0.910756 0.169151
Si Si4 0.825320 0.294591 0.585333
Si Si5 0.157939 0.638589 0.701324
Si Si6 0.084817 0.785569 0.030277
O O1 0.500000 0.038608 0.395321
O O2 0.409824 0.920256 0.331203
O O3 0.399778 0.911378 0.445227
O O4 0.365632 0.098965 0.387044
O O5 0.760690 0.174995 0.414537
O O6 0.834379 0.230076 0.317078
O O7 0.900477 0.192912 0.419325
O O8 0.848174 0.028183 0.356192
O O9 0.659685 0.815883 0.123253
O O10 0.768487 0.924404 0.179461
O O11 0.643976 0.874633 0.230018
O O12 0.857487 0.267758 0.521642
O O13 0.000000 0.773586 0.009803
#
# Coordination Sequence:
#
# PCOD8263406 Si02
#       6
#    16  16  16  16  16  16
#     4  10  20  38  61  86 116 155 201 244 287 340
#     4  10  21  38  59  89 120 151 196 243 295 349
#     4  10  21  35  60  90 116 151 194 244 295 347
#     4  11  21  36  59  92 117 153 201 242 290 348
#     4   9  20  36  59  85 116 153 191 241 294 345
#     4  10  22  41  61  83 120 162 197 241 295 349
#
# _framework density 19.455348999999998
#
# number of rings (size 3 to 8) (size 9 to 14) (size 15 to 20)
#    0.000    2.000    1.667    1.500    2.333    3.333 
#    3.000    5.000    0.000    0.000    0.000    0.000 
#    0.000    0.000    0.000    0.000    0.000    0.000 
#
# Total GULP energy -595159.734456 kJ/mol
# GULP energy per Si atom -12399.161135 kJ/mol
# Density = 1.941107 g / cm^3
# Si number density = 19.455349 Si / 1000 Ang^3
#
#
#
# Elastic Constant Matrix: (Units=GPa)
#
#
# Indices 1 2 3 4 5 6 
#
# 1 55.1985 33.3357 40.3968 0.0000 0.0000 0.0000
# 2 33.3357 132.4068 49.3383 0.0000 0.0000 0.0000
# 3 40.3968 49.3383 116.8014 0.0000 0.0000 0.0000
# 4 0.0000 0.0000 0.0000 27.6142 0.0000 0.0000
# 5 0.0000 0.0000 0.0000 0.0000 14.6298 0.0000
# 6 0.0000 0.0000 0.0000 0.0000 0.0000 21.0379
#
#
#
# Elastic Compliance Matrix: (Units=1/GPa)
#
#
# Indices 1 2 3 4 5 6 
#
# 1 0.025738 -0.003754 -0.007316 0.000000 0.000000 0.000000
# 2 -0.003754 0.009511 -0.002719 0.000000 0.000000 0.000000
# 3 -0.007316 -0.002719 0.012240 0.000000 0.000000 0.000000
# 4 0.000000 0.000000 0.000000 0.036213 0.000000 0.000000
# 5 0.000000 0.000000 0.000000 0.000000 0.068354 0.000000
# 6 0.000000 0.000000 0.000000 0.000000 0.000000 0.047533
#
#
# Mechanical properties :
#
#
# Convention : Reuss Voigt Hill
#
# Bulk Modulus (GPa) = 50.22346 61.17203 55.69775
# Shear Modulus (GPa) = 21.38543 24.74542 23.06543
#
# Velocity S-wave (km/s) = 3.31902 3.57025 3.44693
# Velocity P-wave (km/s) = 6.36857 6.96463 6.67326
#
# Compressibility (1/GPa) = 0.01991101
#
# Stress axis : x y z
#
# Youngs Moduli (GPa) = 38.85372 105.14351 81.69640
#
# Poissons Ratio (x) = 0.39469 0.59768
# Poissons Ratio (y) = 0.14585 0.22215
# Poissons Ratio (z) = 0.28425 0.28591
#
# Static dielectric constant tensor:
#      x y z
#    x 3.421200 0.000000 0.000000 
#    y 0.000000 3.473320 0.000000 
#    z 0.000000 0.000000 3.519710 
# 
# 
# High freq. dielectric constant tensor:
#      x y z
#    x 1.741910 0.000000 0.000000 
#    y 0.000000 1.759480 0.000000 
#    z 0.000000 0.000000 1.759720 
# 
# From -- ./inp_files/40837.got.cif
#   From: 2010.03.12/outbox.cif.g09.slc.cpg/sg64_21_cif.got.tgz:40837.got - 2010.04.10 20:19:32.
