data_PCOD8263422
_publ_section_title
;
Structure prediction by ZEFSAII (Michael W. Deem and Ramdas Pophale) SiO2 
 PCOD8263422
Probable space group: C M C A
;
_chemical_formula_sum "Si O2"
_cell_formula_units_Z 88
_cell_length_a 22.731738
_cell_length_b 8.679919
_cell_length_c 22.280542
_cell_angle_alpha 90.000000
_cell_angle_beta 90.000000
_cell_angle_gamma 90.000000
_cell_volume 4396.165823
_symmetry_space_group_name_H-M "C M C A"
_symmetry_group_IT_number 64
_symmetry_cell_setting 'orthorhombic'
loop_
_space_group_symop_operation_xyz
x,y,z
-x,1/2-y,1/2+z
x,-y,-z
-x,1/2+y,1/2-z
-x,-y,-z
x,1/2+y,1/2-z
-x,y,z
x,1/2-y,1/2+z
1/2+x,1/2+y,z
1/2-x,-y,1/2+z
1/2+x,1/2-y,-z
1/2-x,y,1/2-z
1/2-x,1/2-y,-z
1/2+x,y,1/2-z
1/2-x,1/2+y,z
1/2+x,-y,1/2+z
loop_
_atom_site_type_symbol
_atom_site_label
_atom_site_fract_x
_atom_site_fract_y
_atom_site_fract_z
Si Si1 0.432239 0.930998 0.933942
Si Si2 0.186601 0.229420 0.429228
Si Si3 0.374885 0.416700 0.765828
Si Si4 0.740308 0.000000 0.500000
Si Si5 0.299856 0.188392 0.700266
Si Si6 0.066863 0.359082 0.177107
O O1 0.500000 0.871821 0.923450
O O2 0.384461 0.794192 0.924722
O O3 0.416038 0.063717 0.885994
O O4 0.425764 0.000000 0.000000
O O5 0.216836 0.070335 0.449408
O O6 0.197831 0.366644 0.475758
O O7 0.219280 0.277911 0.367542
O O8 0.350233 0.312580 0.712410
O O9 0.323674 0.514669 0.797136
O O10 0.421473 0.529038 0.733818
O O11 0.399977 0.304224 0.817134
O O12 0.250000 0.209914 0.750000
O O13 0.000000 0.312685 0.178638
#
# Coordination Sequence:
#
# PCOD8263422 Si02
#       6
#    16  16  16   8  16  16
#     4  10  21  40  67  92 125 169 214 261 314 381
#     4  11  23  45  62  96 127 166 218 263 318 390
#     4  10  22  37  57  91 119 162 202 252 314 375
#     4  10  26  40  68  90 126 176 208 266 322 370
#     4  11  24  38  60  90 125 162 202 259 314 380
#     4  10  20  38  62  89 121 161 207 259 312 370
#
# _framework density 20.017443
#
# number of rings (size 3 to 8) (size 9 to 14) (size 15 to 20)
#    0.000    1.636    2.727    1.091    5.091    1.455 
#    0.000    1.364    0.000    0.000    0.000    0.000 
#    0.000    0.000    0.000    0.000    0.000    0.000 
#
# Total GULP energy -545469.218690 kJ/mol
# GULP energy per Si atom -12397.027698 kJ/mol
# Density = 1.997188 g / cm^3
# Si number density = 20.017443 Si / 1000 Ang^3
#
#
#
# Elastic Constant Matrix: (Units=GPa)
#
#
# Indices 1 2 3 4 5 6 
#
# 1 94.6725 40.8009 38.2808 0.0000 0.0000 0.0000
# 2 40.8009 109.1117 37.4522 0.0000 0.0000 0.0000
# 3 38.2808 37.4522 122.5883 0.0000 0.0000 0.0000
# 4 0.0000 0.0000 0.0000 27.4291 0.0000 0.0000
# 5 0.0000 0.0000 0.0000 0.0000 28.9761 0.0000
# 6 0.0000 0.0000 0.0000 0.0000 0.0000 20.3361
#
#
#
# Elastic Compliance Matrix: (Units=1/GPa)
#
#
# Indices 1 2 3 4 5 6 
#
# 1 0.013505 -0.004025 -0.002988 0.000000 0.000000 0.000000
# 2 -0.004025 0.011438 -0.002238 0.000000 0.000000 0.000000
# 3 -0.002988 -0.002238 0.009774 0.000000 0.000000 0.000000
# 4 0.000000 0.000000 0.000000 0.036458 0.000000 0.000000
# 5 0.000000 0.000000 0.000000 0.000000 0.034511 0.000000
# 6 0.000000 0.000000 0.000000 0.000000 0.000000 0.049174
#
#
# Mechanical properties :
#
#
# Convention : Reuss Voigt Hill
#
# Bulk Modulus (GPa) = 61.66285 62.16004 61.91145
# Shear Modulus (GPa) = 27.96960 29.33750 28.65355
#
# Velocity S-wave (km/s) = 3.74205 3.83246 3.78753
# Velocity P-wave (km/s) = 7.03861 7.12068 7.07976
#
# Compressibility (1/GPa) = 0.01621722
#
# Stress axis : x y z
#
# Youngs Moduli (GPa) = 74.04502 87.42840 102.31218
#
# Poissons Ratio (x) = 0.35186 0.30568
# Poissons Ratio (y) = 0.29800 0.22894
# Poissons Ratio (z) = 0.22123 0.19564
#
# Static dielectric constant tensor:
#      x y z
#    x 3.747580 0.000000 0.000000 
#    y 0.000000 3.650230 0.000000 
#    z 0.000000 0.000000 3.622410 
# 
# 
# High freq. dielectric constant tensor:
#      x y z
#    x 1.780090 0.000000 0.000000 
#    y 0.000000 1.780270 0.000000 
#    z 0.000000 0.000000 1.784510 
# 
# From -- ./inp_files/41349.got.cif
#   From: 2010.03.12/outbox.cif.g09.slc.cpg/sg64_21_cif.got.tgz:41349.got - 2010.04.10 20:19:32.
