data_PCOD8263026
_publ_section_title
;
Structure prediction by ZEFSAII (Michael W. Deem and Ramdas Pophale) SiO2 
 PCOD8263026
Probable space group: C M C A
;
_chemical_formula_sum "Si O2"
_cell_formula_units_Z 80
_cell_length_a 8.644131
_cell_length_b 25.150975
_cell_length_c 18.912716
_cell_angle_alpha 90.000000
_cell_angle_beta 90.000000
_cell_angle_gamma 90.000000
_cell_volume 4111.781863
_symmetry_space_group_name_H-M "C M C A"
_symmetry_group_IT_number 64
_symmetry_cell_setting 'orthorhombic'
loop_
_space_group_symop_operation_xyz
x,y,z
-x,1/2-y,1/2+z
x,-y,-z
-x,1/2+y,1/2-z
-x,-y,-z
x,1/2+y,1/2-z
-x,y,z
x,1/2-y,1/2+z
1/2+x,1/2+y,z
1/2-x,-y,1/2+z
1/2+x,1/2-y,-z
1/2-x,y,1/2-z
1/2-x,1/2-y,-z
1/2+x,y,1/2-z
1/2-x,1/2+y,z
1/2+x,-y,1/2+z
loop_
_atom_site_type_symbol
_atom_site_label
_atom_site_fract_x
_atom_site_fract_y
_atom_site_fract_z
Si Si1 0.183723 0.586614 0.593242
Si Si2 0.183553 0.308048 0.327223
Si Si3 0.815958 0.482503 0.672408
Si Si4 0.183719 0.895482 0.937182
Si Si5 0.316496 0.775139 0.570675
O O1 0.241041 0.641346 0.627994
O O2 0.248601 0.537016 0.638119
O O3 0.247492 0.584241 0.513046
O O4 0.000000 0.584461 0.592874
O O5 0.250000 0.314976 0.250000
O O6 0.252801 0.254960 0.361039
O O7 0.000000 0.303774 0.325282
O O8 0.750000 0.475035 0.750000
O O9 0.753877 0.433934 0.624375
O O10 0.000000 0.483047 0.676038
O O11 0.241460 0.835775 0.922561
O O12 0.000000 0.897159 0.939178
O O13 0.500000 0.771760 0.567602
O O14 0.250000 0.750000 0.500000
#
# Coordination Sequence:
#
# PCOD8263026 Si02
#       5
#    16  16  16  16  16
#     4   9  17  33  58  84 108 141 187 233 277 331
#     4  11  22  37  57  85 117 149 189 235 284 339
#     4  10  20  35  57  81 111 146 182 228 280 333
#     4   9  18  34  58  84 107 141 190 233 273 333
#     4  11  21  37  59  84 114 149 190 235 283 337
#
# _framework density 19.456284
#
# number of rings (size 3 to 8) (size 9 to 14) (size 15 to 20)
#    0.000    2.000    2.000    2.400    0.000    3.200 
#    0.000    5.000    0.000    1.200    0.000    0.000 
#    0.000    0.000    0.000    0.000    0.000    0.000 
#
# Total GULP energy -496047.815535 kJ/mol
# GULP energy per Si atom -12401.195388 kJ/mol
# Density = 1.941200 g / cm^3
# Si number density = 19.456284 Si / 1000 Ang^3
#
#
#
# Elastic Constant Matrix: (Units=GPa)
#
#
# Indices 1 2 3 4 5 6 
#
# 1 38.8506 26.8712 23.6383 0.0000 0.0000 0.0000
# 2 26.8712 158.9152 94.7462 0.0000 0.0000 0.0000
# 3 23.6383 94.7462 182.7371 0.0000 0.0000 0.0000
# 4 0.0000 0.0000 0.0000 40.5684 0.0000 0.0000
# 5 0.0000 0.0000 0.0000 0.0000 34.3295 0.0000
# 6 0.0000 0.0000 0.0000 0.0000 0.0000 21.8810
#
#
#
# Elastic Compliance Matrix: (Units=1/GPa)
#
#
# Indices 1 2 3 4 5 6 
#
# 1 0.029544 -0.003933 -0.001783 0.000000 0.000000 0.000000
# 2 -0.003933 0.009632 -0.004485 0.000000 0.000000 0.000000
# 3 -0.001783 -0.004485 0.008028 0.000000 0.000000 0.000000
# 4 0.000000 0.000000 0.000000 0.024650 0.000000 0.000000
# 5 0.000000 0.000000 0.000000 0.000000 0.029129 0.000000
# 6 0.000000 0.000000 0.000000 0.000000 0.000000 0.045702
#
#
# Mechanical properties :
#
#
# Convention : Reuss Voigt Hill
#
# Bulk Modulus (GPa) = 37.30888 74.55715 55.93301
# Shear Modulus (GPa) = 28.40561 35.03892 31.72226
#
# Velocity S-wave (km/s) = 3.82510 4.24831 4.04225
# Velocity P-wave (km/s) = 6.22302 7.90365 7.11314
#
# Compressibility (1/GPa) = 0.02680327
#
# Stress axis : x y z
#
# Youngs Moduli (GPa) = 33.84726 103.82315 124.55747
#
# Poissons Ratio (x) = 0.40833 0.22204
# Poissons Ratio (y) = 0.13312 0.55866
# Poissons Ratio (z) = 0.06034 0.46566
#
# Static dielectric constant tensor:
#      x y z
#    x 3.212610 0.000000 0.000000 
#    y 0.000000 3.967080 0.000000 
#    z 0.000000 0.000000 3.707750 
# 
# 
# High freq. dielectric constant tensor:
#      x y z
#    x 1.719740 0.000000 0.000000 
#    y 0.000000 1.773800 0.000000 
#    z 0.000000 0.000000 1.770910 
# 
# From -- ./inp_files/29785.got.cif
#   From: 2010.03.12/outbox.cif.g09.slc.cpg/sg64_15_cif.got.tgz:29785.got - 2010.04.10 20:19:32.
