data_PCOD8263928
_publ_section_title
;
Structure prediction by ZEFSAII (Michael W. Deem and Ramdas Pophale) SiO2 
 PCOD8263928
Probable space group: C M C A
;
_chemical_formula_sum "Si O2"
_cell_formula_units_Z 88
_cell_length_a 25.720761
_cell_length_b 9.689012
_cell_length_c 16.330083
_cell_angle_alpha 90.000000
_cell_angle_beta 90.000000
_cell_angle_gamma 90.000000
_cell_volume 4069.599767
_symmetry_space_group_name_H-M "C M C A"
_symmetry_group_IT_number 64
_symmetry_cell_setting 'orthorhombic'
loop_
_space_group_symop_operation_xyz
x,y,z
-x,1/2-y,1/2+z
x,-y,-z
-x,1/2+y,1/2-z
-x,-y,-z
x,1/2+y,1/2-z
-x,y,z
x,1/2-y,1/2+z
1/2+x,1/2+y,z
1/2-x,-y,1/2+z
1/2+x,1/2-y,-z
1/2-x,y,1/2-z
1/2-x,1/2-y,-z
1/2+x,y,1/2-z
1/2-x,1/2+y,z
1/2+x,-y,1/2+z
loop_
_atom_site_type_symbol
_atom_site_label
_atom_site_fract_x
_atom_site_fract_y
_atom_site_fract_z
Si Si1 0.652442 0.806462 0.433506
Si Si2 0.442145 0.251175 0.794917
Si Si3 0.375962 0.023385 0.715535
Si Si4 0.086608 0.631604 0.958743
Si Si5 0.729551 0.500000 0.000000
Si Si6 0.818277 0.017533 0.374840
O O1 0.642943 0.937545 0.374752
O O2 0.599597 0.754656 0.477545
O O3 0.694015 0.861390 0.500575
O O4 0.673716 0.681199 0.379630
O O5 0.500000 0.295084 0.765772
O O6 0.421695 0.127816 0.739176
O O7 0.401207 0.373281 0.786517
O O8 0.447711 0.196886 0.887722
O O9 0.327033 0.024815 0.779474
O O10 0.141239 0.570880 0.927201
O O11 0.056784 0.500000 0.000000
O O12 0.762219 0.488862 0.084846
#
# Coordination Sequence:
#
# PCOD8263928 Si02
#       6
#    16  16  16  16   8  16
#     4  11  21  40  63  91 124 167 209 258 319 364
#     4  11  23  41  66  95 124 165 215 262 317 389
#     4  11  23  43  63  92 134 167 205 261 331 377
#     4   9  20  40  64  88 127 168 207 259 324 374
#     4  12  22  36  66  92 118 166 220 260 294 378
#     4  10  21  39  60  90 128 168 208 254 308 382
#
# _framework density 21.623747000000002
#
# number of rings (size 3 to 8) (size 9 to 14) (size 15 to 20)
#    0.000    1.455    4.545    2.182    0.000    1.091 
#    0.000    4.545    0.000    0.000    0.000    0.000 
#    0.000    0.000    0.000    0.000    0.000    0.000 
#
# Total GULP energy -545363.827691 kJ/mol
# GULP energy per Si atom -12394.632448 kJ/mol
# Density = 2.157453 g / cm^3
# Si number density = 21.623747 Si / 1000 Ang^3
#
#
#
# Elastic Constant Matrix: (Units=GPa)
#
#
# Indices 1 2 3 4 5 6 
#
# 1 74.8740 23.1184 30.6915 0.0000 0.0000 0.0000
# 2 23.1184 90.6461 29.4949 0.0000 0.0000 0.0000
# 3 30.6915 29.4949 89.9691 0.0000 0.0000 0.0000
# 4 0.0000 0.0000 0.0000 45.0530 0.0000 0.0000
# 5 0.0000 0.0000 0.0000 0.0000 15.1751 0.0000
# 6 0.0000 0.0000 0.0000 0.0000 0.0000 17.0498
#
#
#
# Elastic Compliance Matrix: (Units=1/GPa)
#
#
# Indices 1 2 3 4 5 6 
#
# 1 0.016052 -0.002588 -0.004627 0.000000 0.000000 0.000000
# 2 -0.002588 0.012767 -0.003302 0.000000 0.000000 0.000000
# 3 -0.004627 -0.003302 0.013776 0.000000 0.000000 0.000000
# 4 0.000000 0.000000 0.000000 0.022196 0.000000 0.000000
# 5 0.000000 0.000000 0.000000 0.000000 0.065897 0.000000
# 6 0.000000 0.000000 0.000000 0.000000 0.000000 0.058652
#
#
# Mechanical properties :
#
#
# Convention : Reuss Voigt Hill
#
# Bulk Modulus (GPa) = 46.38518 46.89989 46.64253
# Shear Modulus (GPa) = 22.98202 26.93454 24.95828
#
# Velocity S-wave (km/s) = 3.26362 3.53313 3.40105
# Velocity P-wave (km/s) = 5.97488 6.19518 6.08603
#
# Compressibility (1/GPa) = 0.02155861
#
# Stress axis : x y z
#
# Youngs Moduli (GPa) = 62.29882 78.32963 72.58952
#
# Poissons Ratio (x) = 0.20273 0.33589
# Poissons Ratio (y) = 0.16124 0.23972
# Poissons Ratio (z) = 0.28827 0.25868
#
# Static dielectric constant tensor:
#      x y z
#    x 3.539260 0.000000 0.000000 
#    y 0.000000 3.972300 0.000000 
#    z 0.000000 0.000000 4.233750 
# 
# 
# High freq. dielectric constant tensor:
#      x y z
#    x 1.820400 0.000000 0.000000 
#    y 0.000000 1.862090 0.000000 
#    z 0.000000 0.000000 1.847800 
# 
# From -- ./inp_files/35713.got.cif
#   From: 2010.03.12/outbox.cif.g09.slc.cpg/sg64_18_cif.got.tgz:35713.got - 2010.04.10 20:19:32.
