data_PCOD8263929
_publ_section_title
;
Structure prediction by ZEFSAII (Michael W. Deem and Ramdas Pophale) SiO2 
 PCOD8263929
Probable space group: C M C A
;
_chemical_formula_sum "Si O2"
_cell_formula_units_Z 96
_cell_length_a 8.881129
_cell_length_b 22.814035
_cell_length_c 23.418151
_cell_angle_alpha 90.000000
_cell_angle_beta 90.000000
_cell_angle_gamma 90.000000
_cell_volume 4744.854329
_symmetry_space_group_name_H-M "C M C A"
_symmetry_group_IT_number 64
_symmetry_cell_setting 'orthorhombic'
loop_
_space_group_symop_operation_xyz
x,y,z
-x,1/2-y,1/2+z
x,-y,-z
-x,1/2+y,1/2-z
-x,-y,-z
x,1/2+y,1/2-z
-x,y,z
x,1/2-y,1/2+z
1/2+x,1/2+y,z
1/2-x,-y,1/2+z
1/2+x,1/2-y,-z
1/2-x,y,1/2-z
1/2-x,1/2-y,-z
1/2+x,y,1/2-z
1/2-x,1/2+y,z
1/2+x,-y,1/2+z
loop_
_atom_site_type_symbol
_atom_site_label
_atom_site_fract_x
_atom_site_fract_y
_atom_site_fract_z
Si Si1 0.175324 0.310869 0.811939
Si Si2 0.321172 0.524769 0.582661
Si Si3 0.678112 0.869019 0.474008
Si Si4 0.674634 0.390366 0.584827
Si Si5 0.330455 0.587726 0.692620
Si Si6 0.173453 0.702777 0.873509
O O1 0.250000 0.318305 0.750000
O O2 0.204124 0.368770 0.850307
O O3 0.241401 0.258763 0.849786
O O4 0.000000 0.298865 0.801556
O O5 0.500000 0.534288 0.575308
O O6 0.239773 0.564643 0.535250
O O7 0.274019 0.457585 0.579348
O O8 0.259846 0.548471 0.642834
O O9 0.500000 0.866455 0.467234
O O10 0.728096 0.852990 0.538843
O O11 0.750336 0.821978 0.430913
O O12 0.500000 0.382540 0.569161
O O13 0.500000 0.568381 0.701517
O O14 0.250000 0.571573 0.750000
O O15 0.314990 0.655834 0.677314
O O16 0.000000 0.717598 0.887420
#
# Coordination Sequence:
#
# PCOD8263929 Si02
#       6
#    16  16  16  16  16  16
#     4  11  24  41  61  86 116 153 195 236 281 334
#     4   9  19  37  57  79 113 156 195 231 281 345
#     4  11  22  36  59  91 119 143 183 241 296 343
#     4  10  22  40  60  81 113 158 197 229 276 343
#     4   9  18  31  51  79 107 140 184 232 281 332
#     4  10  21  39  61  83 112 151 192 236 289 346
#
# _framework density 20.232443
#
# number of rings (size 3 to 8) (size 9 to 14) (size 15 to 20)
#    0.000    2.000    0.000    4.500    0.000   10.000 
#    0.000    0.000    0.000    0.000    0.000    0.000 
#    0.000    0.000    0.000    0.000    0.000    0.000 
#
# Total GULP energy -595120.305885 kJ/mol
# GULP energy per Si atom -12398.339706 kJ/mol
# Density = 2.018639 g / cm^3
# Si number density = 20.232443 Si / 1000 Ang^3
#
#
#
# Elastic Constant Matrix: (Units=GPa)
#
#
# Indices 1 2 3 4 5 6 
#
# 1 111.8350 42.1837 55.7285 0.0000 0.0000 0.0000
# 2 42.1837 59.4496 51.6085 0.0000 0.0000 0.0000
# 3 55.7285 51.6085 125.0973 0.0000 0.0000 0.0000
# 4 0.0000 0.0000 0.0000 7.4889 0.0000 0.0000
# 5 0.0000 0.0000 0.0000 0.0000 37.9882 0.0000
# 6 0.0000 0.0000 0.0000 0.0000 0.0000 22.8350
#
#
#
# Elastic Compliance Matrix: (Units=1/GPa)
#
#
# Indices 1 2 3 4 5 6 
#
# 1 0.012927 -0.006502 -0.003076 0.000000 0.000000 0.000000
# 2 -0.006502 0.029477 -0.009264 0.000000 0.000000 0.000000
# 3 -0.003076 -0.009264 0.013186 0.000000 0.000000 0.000000
# 4 0.000000 0.000000 0.000000 0.133531 0.000000 0.000000
# 5 0.000000 0.000000 0.000000 0.000000 0.026324 0.000000
# 6 0.000000 0.000000 0.000000 0.000000 0.000000 0.043792
#
#
# Mechanical properties :
#
#
# Convention : Reuss Voigt Hill
#
# Bulk Modulus (GPa) = 55.85005 66.15813 61.00409
# Shear Modulus (GPa) = 16.50759 23.45319 19.98039
#
# Velocity S-wave (km/s) = 2.85949 3.40838 3.14593
# Velocity P-wave (km/s) = 6.21018 6.94690 6.58885
#
# Compressibility (1/GPa) = 0.01790509
#
# Stress axis : x y z
#
# Youngs Moduli (GPa) = 77.35535 33.92493 75.83746
#
# Poissons Ratio (x) = 0.22059 0.23331
# Poissons Ratio (y) = 0.50298 0.70256
# Poissons Ratio (z) = 0.23798 0.31428
#
# Static dielectric constant tensor:
#      x y z
#    x 3.600120 0.000000 0.000000 
#    y 0.000000 3.640280 0.000000 
#    z 0.000000 0.000000 4.425330 
# 
# 
# High freq. dielectric constant tensor:
#      x y z
#    x 1.784730 0.000000 0.000000 
#    y 0.000000 1.781910 0.000000 
#    z 0.000000 0.000000 1.804640 
# 
# From -- ./inp_files/42985.got.cif
#   From: 2010.03.12/outbox.cif.g09.slc.cpg/sg64_22_cif.got.tgz:42985.got - 2010.04.10 20:19:32.
