data_PCOD8263144
_publ_section_title
;
Structure prediction by ZEFSAII (Michael W. Deem and Ramdas Pophale) SiO2 
 PCOD8263144
Probable space group: C M C A
;
_chemical_formula_sum "Si O2"
_cell_formula_units_Z 80
_cell_length_a 17.658777
_cell_length_b 9.675637
_cell_length_c 24.657938
_cell_angle_alpha 90.000000
_cell_angle_beta 90.000000
_cell_angle_gamma 90.000000
_cell_volume 4213.053218
_symmetry_space_group_name_H-M "C M C A"
_symmetry_group_IT_number 64
_symmetry_cell_setting 'orthorhombic'
loop_
_space_group_symop_operation_xyz
x,y,z
-x,1/2-y,1/2+z
x,-y,-z
-x,1/2+y,1/2-z
-x,-y,-z
x,1/2+y,1/2-z
-x,y,z
x,1/2-y,1/2+z
1/2+x,1/2+y,z
1/2-x,-y,1/2+z
1/2+x,1/2-y,-z
1/2-x,y,1/2-z
1/2-x,1/2-y,-z
1/2+x,y,1/2-z
1/2-x,1/2+y,z
1/2+x,-y,1/2+z
loop_
_atom_site_type_symbol
_atom_site_label
_atom_site_fract_x
_atom_site_fract_y
_atom_site_fract_z
Si Si1 0.087501 0.787921 0.202991
Si Si2 0.833899 0.205741 0.907374
Si Si3 0.664867 0.063133 0.270546
Si Si4 0.584371 0.660337 0.013544
Si Si5 0.690240 0.391838 0.891641
O O1 0.102487 0.780330 0.138798
O O2 0.108686 0.644432 0.231157
O O3 0.000000 0.822513 0.212182
O O4 0.139068 0.904687 0.230663
O O5 0.872789 0.238711 0.964923
O O6 0.770512 0.319317 0.897432
O O7 0.797725 0.052559 0.906726
O O8 0.750000 0.072704 0.250000
O O9 0.659010 0.125683 0.330879
O O10 0.500000 0.722180 0.020634
O O11 0.578946 0.500000 0.000000
O O12 0.629789 0.682415 0.069260
#
# Coordination Sequence:
#
# PCOD8263144 Si02
#       5
#    16  16  16  16  16
#     4  11  23  37  58  85 115 150 190 235 283 332
#     4  10  20  36  57  83 110 144 186 230 278 337
#     4  11  22  38  58  82 115 152 190 231 279 338
#     4   9  18  34  56  82 111 141 181 233 282 328
#     4  10  21  34  59  81 108 145 188 229 276 335
#
# _framework density 18.988605
#
# number of rings (size 3 to 8) (size 9 to 14) (size 15 to 20)
#    0.000    1.800    2.000    2.400    2.800    5.600 
#    0.000    0.000    0.000    3.600    0.000    0.000 
#    0.000    0.000    0.000    0.000    0.000    0.000 
#
# Total GULP energy -496162.867612 kJ/mol
# GULP energy per Si atom -12404.071690 kJ/mol
# Density = 1.894539 g / cm^3
# Si number density = 18.988605 Si / 1000 Ang^3
#
#
#
# Elastic Constant Matrix: (Units=GPa)
#
#
# Indices 1 2 3 4 5 6 
#
# 1 98.6430 25.5442 33.1280 0.0000 0.0000 0.0000
# 2 25.5442 40.3500 25.0907 0.0000 0.0000 0.0000
# 3 33.1280 25.0907 104.6578 0.0000 0.0000 0.0000
# 4 0.0000 0.0000 0.0000 13.3153 0.0000 0.0000
# 5 0.0000 0.0000 0.0000 0.0000 30.8240 0.0000
# 6 0.0000 0.0000 0.0000 0.0000 0.0000 21.1832
#
#
#
# Elastic Compliance Matrix: (Units=1/GPa)
#
#
# Indices 1 2 3 4 5 6 
#
# 1 0.012637 -0.006478 -0.002447 0.000000 0.000000 0.000000
# 2 -0.006478 0.032446 -0.005728 0.000000 0.000000 0.000000
# 3 -0.002447 -0.005728 0.011703 0.000000 0.000000 0.000000
# 4 0.000000 0.000000 0.000000 0.075101 0.000000 0.000000
# 5 0.000000 0.000000 0.000000 0.000000 0.032442 0.000000
# 6 0.000000 0.000000 0.000000 0.000000 0.000000 0.047207
#
#
# Mechanical properties :
#
#
# Convention : Reuss Voigt Hill
#
# Bulk Modulus (GPa) = 36.39120 45.68629 41.03874
# Shear Modulus (GPa) = 19.99972 23.72369 21.86171
#
# Velocity S-wave (km/s) = 3.24890 3.53847 3.39677
# Velocity P-wave (km/s) = 5.76890 6.38799 6.08632
#
# Compressibility (1/GPa) = 0.02747917
#
# Stress axis : x y z
#
# Youngs Moduli (GPa) = 79.13300 30.82020 85.45019
#
# Poissons Ratio (x) = 0.19967 0.20909
# Poissons Ratio (y) = 0.51266 0.48946
# Poissons Ratio (z) = 0.19363 0.17654
#
# Static dielectric constant tensor:
#      x y z
#    x 3.473240 0.000000 0.000000 
#    y 0.000000 3.244200 0.000000 
#    z 0.000000 0.000000 3.805360 
# 
# 
# High freq. dielectric constant tensor:
#      x y z
#    x 1.741500 0.000000 0.000000 
#    y 0.000000 1.714020 0.000000 
#    z 0.000000 0.000000 1.753680 
# 
# From -- ./inp_files/44917.got.cif
#   From: 2010.03.12/outbox.cif.g09.slc.cpg/sg64_23_cif.got.tgz:44917.got - 2010.04.10 20:19:32.
