data_PCOD8263464
_publ_section_title
;
Structure prediction by ZEFSAII (Michael W. Deem and Ramdas Pophale) SiO2 
 PCOD8263464
Probable space group: C M C A
;
_chemical_formula_sum "Si O2"
_cell_formula_units_Z 104
_cell_length_a 21.542034
_cell_length_b 8.943299
_cell_length_c 28.887884
_cell_angle_alpha 90.000000
_cell_angle_beta 90.000000
_cell_angle_gamma 90.000000
_cell_volume 5565.448767
_symmetry_space_group_name_H-M "C M C A"
_symmetry_group_IT_number 64
_symmetry_cell_setting 'orthorhombic'
loop_
_space_group_symop_operation_xyz
x,y,z
-x,1/2-y,1/2+z
x,-y,-z
-x,1/2+y,1/2-z
-x,-y,-z
x,1/2+y,1/2-z
-x,y,z
x,1/2-y,1/2+z
1/2+x,1/2+y,z
1/2-x,-y,1/2+z
1/2+x,1/2-y,-z
1/2-x,y,1/2-z
1/2-x,1/2-y,-z
1/2+x,y,1/2-z
1/2-x,1/2+y,z
1/2+x,-y,1/2+z
loop_
_atom_site_type_symbol
_atom_site_label
_atom_site_fract_x
_atom_site_fract_y
_atom_site_fract_z
Si Si1 0.788263 0.667839 0.144396
Si Si2 0.875300 0.112984 0.635232
Si Si3 0.825293 0.668629 0.291551
Si Si4 0.800041 0.241788 0.561388
Si Si5 0.000000 0.931542 0.317990
Si Si6 0.500000 0.235528 0.232823
Si Si7 0.867148 0.342024 0.293121
Si Si8 0.765638 0.000000 0.000000
O O1 0.822878 0.513518 0.135011
O O2 0.742148 0.637048 0.187377
O O3 0.752702 0.724959 0.099411
O O4 0.838482 0.796237 0.157090
O O5 0.866234 0.230021 0.675655
O O6 0.865620 0.199582 0.586149
O O7 0.943426 0.049634 0.645596
O O8 0.862215 0.516217 0.283425
O O9 0.823568 0.751876 0.242668
O O10 0.809470 0.391312 0.530663
O O11 0.779204 0.101933 0.530814
O O12 0.000000 0.776227 0.288101
O O13 0.000000 0.057935 0.277776
O O14 0.560778 0.302059 0.208652
#
# Coordination Sequence:
#
# PCOD8263464 Si02
#       8
#    16  16  16  16   8   8  16   8
#     4  11  22  38  56  88 122 149 191 244 298 354
#     4  11  22  39  60  85 120 157 201 244 290 351
#     4  11  23  36  55  79 115 158 197 251 295 336
#     4  10  21  38  63  96 122 149 186 241 309 376
#     4  12  24  42  58  78 118 170 210 255 274 337
#     4  12  24  40  56  76 114 166 224 239 277 319
#     4  12  23  37  55  78 116 162 205 246 283 334
#     4  10  20  38  66  94 122 148 178 242 316 378
#
# _framework density 18.686723000000001
#
# number of rings (size 3 to 8) (size 9 to 14) (size 15 to 20)
#    0.000    0.923    4.615    4.154    2.154    1.231 
#    0.000    0.000    0.000    0.923    0.000    0.000 
#    0.000    0.000    0.000    0.000    0.000    0.000 
#
# Total GULP energy -644606.373876 kJ/mol
# GULP energy per Si atom -12396.276421 kJ/mol
# Density = 1.864419 g / cm^3
# Si number density = 18.686723 Si / 1000 Ang^3
#
#
#
# Elastic Constant Matrix: (Units=GPa)
#
#
# Indices 1 2 3 4 5 6 
#
# 1 105.8334 22.0911 44.1293 0.0000 0.0000 0.0000
# 2 22.0911 116.2558 46.3349 0.0000 0.0000 0.0000
# 3 44.1293 46.3349 90.5012 0.0000 0.0000 0.0000
# 4 0.0000 0.0000 0.0000 36.5363 0.0000 0.0000
# 5 0.0000 0.0000 0.0000 0.0000 30.8824 0.0000
# 6 0.0000 0.0000 0.0000 0.0000 0.0000 22.7893
#
#
#
# Elastic Compliance Matrix: (Units=1/GPa)
#
#
# Indices 1 2 3 4 5 6 
#
# 1 0.011861 0.000064 -0.005816 0.000000 0.000000 0.000000
# 2 0.000064 0.010807 -0.005565 0.000000 0.000000 0.000000
# 3 -0.005816 -0.005565 0.016735 0.000000 0.000000 0.000000
# 4 0.000000 0.000000 0.000000 0.027370 0.000000 0.000000
# 5 0.000000 0.000000 0.000000 0.000000 0.032381 0.000000
# 6 0.000000 0.000000 0.000000 0.000000 0.000000 0.043880
#
#
# Mechanical properties :
#
#
# Convention : Reuss Voigt Hill
#
# Bulk Modulus (GPa) = 59.63177 59.74456 59.68817
# Shear Modulus (GPa) = 29.19600 31.37728 30.28664
#
# Velocity S-wave (km/s) = 3.95700 4.10215 4.03023
# Velocity P-wave (km/s) = 7.27033 7.38092 7.32583
#
# Compressibility (1/GPa) = 0.01676958
#
# Stress axis : x y z
#
# Youngs Moduli (GPa) = 84.31285 92.53027 59.75650
#
# Poissons Ratio (x) = -0.00596 0.34756
# Poissons Ratio (y) = -0.00543 0.33252
# Poissons Ratio (z) = 0.49039 0.51489
#
# Static dielectric constant tensor:
#      x y z
#    x 3.374540 0.000000 0.000000 
#    y 0.000000 3.676350 0.000000 
#    z 0.000000 0.000000 3.560590 
# 
# 
# High freq. dielectric constant tensor:
#      x y z
#    x 1.708490 0.000000 0.000000 
#    y 0.000000 1.745670 0.000000 
#    z 0.000000 0.000000 1.711370 
# 
# From -- ./inp_files/53781.got.cif
#   From: 2010.03.12/outbox.cif.g09.slc.cpg/sg64_27_cif.got.tgz:53781.got - 2010.04.10 20:19:32.
