data_PCOD8263305
_publ_section_title
;
Structure prediction by ZEFSAII (Michael W. Deem and Ramdas Pophale) SiO2 
 PCOD8263305
Probable space group: C M C A
;
_chemical_formula_sum "Si O2"
_cell_formula_units_Z 112
_cell_length_a 21.310893
_cell_length_b 10.959923
_cell_length_c 24.179451
_cell_angle_alpha 90.000000
_cell_angle_beta 90.000000
_cell_angle_gamma 90.000000
_cell_volume 5647.491519
_symmetry_space_group_name_H-M "C M C A"
_symmetry_group_IT_number 64
_symmetry_cell_setting 'orthorhombic'
loop_
_space_group_symop_operation_xyz
x,y,z
-x,1/2-y,1/2+z
x,-y,-z
-x,1/2+y,1/2-z
-x,-y,-z
x,1/2+y,1/2-z
-x,y,z
x,1/2-y,1/2+z
1/2+x,1/2+y,z
1/2-x,-y,1/2+z
1/2+x,1/2-y,-z
1/2-x,y,1/2-z
1/2-x,1/2-y,-z
1/2+x,y,1/2-z
1/2-x,1/2+y,z
1/2+x,-y,1/2+z
loop_
_atom_site_type_symbol
_atom_site_label
_atom_site_fract_x
_atom_site_fract_y
_atom_site_fract_z
Si Si1 0.863511 0.583422 0.759788
Si Si2 0.807901 0.833921 0.564428
Si Si3 0.325134 0.380781 0.141690
Si Si4 0.191176 0.430966 0.120397
Si Si5 0.070139 0.338123 0.721807
Si Si6 0.167607 0.288273 0.544864
Si Si7 0.572165 0.943324 0.604343
O O1 0.818477 0.612504 0.707955
O O2 0.825339 0.566849 0.815561
O O3 0.907600 0.702469 0.762521
O O4 0.896035 0.452356 0.750871
O O5 0.816363 0.756348 0.620332
O O6 0.837901 0.963145 0.581875
O O7 0.846710 0.775854 0.513822
O O8 0.735975 0.851237 0.543915
O O9 0.266290 0.454227 0.116206
O O10 0.392229 0.432518 0.121588
O O11 0.167008 0.305214 0.095628
O O12 0.074068 0.350543 0.655673
O O13 0.000000 0.347212 0.743855
O O14 0.110977 0.383875 0.553732
O O15 0.500000 0.971768 0.586929
#
# Coordination Sequence:
#
# PCOD8263305 Si02
#       7
#    16  16  16  16  16  16  16
#     4  11  21  35  59  87 119 160 198 253 305 355
#     4  10  21  36  60  84 121 151 198 252 298 362
#     4  10  22  36  54  88 120 155 197 242 308 352
#     4  11  20  36  58  87 121 152 197 252 307 363
#     4  10  21  37  57  83 119 162 208 244 292 368
#     4  10  20  37  59  87 113 158 200 246 300 357
#     4  10  20  39  61  83 118 158 200 241 293 368
#
# _framework density 19.831813
#
# number of rings (size 3 to 8) (size 9 to 14) (size 15 to 20)
#    0.000    1.714    2.857    2.143    0.000    1.143 
#    0.000    4.286    0.000    4.286    0.000    0.000 
#    0.000    0.000    0.000    0.000    0.000    0.000 
#
# Total GULP energy -693983.973585 kJ/mol
# GULP energy per Si atom -12392.570957 kJ/mol
# Density = 1.978667 g / cm^3
# Si number density = 19.831813 Si / 1000 Ang^3
#
#
#
# Elastic Constant Matrix: (Units=GPa)
#
#
# Indices 1 2 3 4 5 6 
#
# 1 70.4728 24.9459 13.3876 0.0000 0.0000 0.0000
# 2 24.9459 47.7287 2.2770 0.0000 0.0000 0.0000
# 3 13.3876 2.2770 69.5175 0.0000 0.0000 0.0000
# 4 0.0000 0.0000 0.0000 30.9713 0.0000 0.0000
# 5 0.0000 0.0000 0.0000 0.0000 25.5900 0.0000
# 6 0.0000 0.0000 0.0000 0.0000 0.0000 25.4904
#
#
#
# Elastic Compliance Matrix: (Units=1/GPa)
#
#
# Indices 1 2 3 4 5 6 
#
# 1 0.018086 -0.009301 -0.003178 0.000000 0.000000 0.000000
# 2 -0.009301 0.025768 0.000947 0.000000 0.000000 0.000000
# 3 -0.003178 0.000947 0.014966 0.000000 0.000000 0.000000
# 4 0.000000 0.000000 0.000000 0.032288 0.000000 0.000000
# 5 0.000000 0.000000 0.000000 0.000000 0.039078 0.000000
# 6 0.000000 0.000000 0.000000 0.000000 0.000000 0.039231
#
#
# Mechanical properties :
#
#
# Convention : Reuss Voigt Hill
#
# Bulk Modulus (GPa) = 27.96796 29.88222 28.92509
# Shear Modulus (GPa) = 24.46190 26.21756 25.33973
#
# Velocity S-wave (km/s) = 3.51589 3.63987 3.57841
# Velocity P-wave (km/s) = 5.53309 5.72411 5.62941
#
# Compressibility (1/GPa) = 0.03575520
#
# Stress axis : x y z
#
# Youngs Moduli (GPa) = 55.29103 38.80784 66.81846
#
# Poissons Ratio (x) = 0.36096 0.21237
# Poissons Ratio (y) = 0.51428 -0.06329
# Poissons Ratio (z) = 0.17573 -0.03676
#
# Static dielectric constant tensor:
#      x y z
#    x 3.450200 0.000000 0.000000 
#    y 0.000000 3.567160 0.000000 
#    z 0.000000 0.000000 3.664220 
# 
# 
# High freq. dielectric constant tensor:
#      x y z
#    x 1.745880 0.000000 0.000000 
#    y 0.000000 1.776980 0.000000 
#    z 0.000000 0.000000 1.781420 
# 
# From -- ./inp_files/46373.got.cif
#   From: 2010.03.12/outbox.cif.g09.slc.cpg/sg64_24_cif.got.tgz:46373.got - 2010.04.10 20:19:32.
