data_PCOD8263247
_publ_section_title
;
Structure prediction by ZEFSAII (Michael W. Deem and Ramdas Pophale) SiO2 
 PCOD8263247
Probable space group: C M C A
;
_chemical_formula_sum "Si O2"
_cell_formula_units_Z 80
_cell_length_a 12.242168
_cell_length_b 14.857684
_cell_length_c 20.550465
_cell_angle_alpha 90.000000
_cell_angle_beta 90.000000
_cell_angle_gamma 90.000000
_cell_volume 3737.929496
_symmetry_space_group_name_H-M "C M C A"
_symmetry_group_IT_number 64
_symmetry_cell_setting 'orthorhombic'
loop_
_space_group_symop_operation_xyz
x,y,z
-x,1/2-y,1/2+z
x,-y,-z
-x,1/2+y,1/2-z
-x,-y,-z
x,1/2+y,1/2-z
-x,y,z
x,1/2-y,1/2+z
1/2+x,1/2+y,z
1/2-x,-y,1/2+z
1/2+x,1/2-y,-z
1/2-x,y,1/2-z
1/2-x,1/2-y,-z
1/2+x,y,1/2-z
1/2-x,1/2+y,z
1/2+x,-y,1/2+z
loop_
_atom_site_type_symbol
_atom_site_label
_atom_site_fract_x
_atom_site_fract_y
_atom_site_fract_z
Si Si1 0.121772 0.904209 0.520005
Si Si2 0.214888 0.978792 0.176737
Si Si3 0.500000 0.121622 0.467976
Si Si4 0.703444 0.663954 0.113281
Si Si5 0.122900 0.152158 0.619952
Si Si6 0.000000 0.565318 0.606054
O O1 0.183197 0.851264 0.576716
O O2 0.118273 0.839555 0.457837
O O3 0.000000 0.924925 0.546381
O O4 0.178209 0.000000 0.500000
O O5 0.250000 0.958297 0.250000
O O6 0.317285 0.941852 0.135837
O O7 0.105445 0.926727 0.153125
O O8 0.192784 0.085084 0.166826
O O9 0.392281 0.167371 0.439877
O O10 0.500000 0.137995 0.546842
O O11 0.500000 0.021443 0.439709
O O12 0.692920 0.762185 0.147708
O O13 0.000000 0.151620 0.649414
#
# Coordination Sequence:
#
# PCOD8263247 Si02
#       6
#    16  16   8  16  16   8
#     4  10  20  36  61  96 132 165 203 259 330 397
#     4  11  25  42  66  89 126 176 222 265 312 379
#     4   9  18  34  65  94 124 157 203 273 324 381
#     4  11  21  40  65  97 126 169 212 265 327 390
#     4  11  23  41  65  96 130 168 208 262 331 389
#     4   9  20  38  61  94 123 161 216 262 320 375
#
# _framework density 21.402222999999999
#
# number of rings (size 3 to 8) (size 9 to 14) (size 15 to 20)
#    0.000    1.600    3.000    1.800    4.200    0.800 
#    1.800    0.000    0.000    0.000    0.000    0.000 
#    0.000    0.000    0.000    0.000    0.000    0.000 
#
# Total GULP energy -495712.090893 kJ/mol
# GULP energy per Si atom -12392.802272 kJ/mol
# Density = 2.135351 g / cm^3
# Si number density = 21.402223 Si / 1000 Ang^3
#
#
#
# Elastic Constant Matrix: (Units=GPa)
#
#
# Indices 1 2 3 4 5 6 
#
# 1 117.3663 27.8313 37.1114 0.0000 0.0000 0.0000
# 2 27.8313 89.3074 -5.5964 0.0000 0.0000 0.0000
# 3 37.1114 -5.5964 91.4516 0.0000 0.0000 0.0000
# 4 0.0000 0.0000 0.0000 17.4423 0.0000 0.0000
# 5 0.0000 0.0000 0.0000 0.0000 31.5535 0.0000
# 6 0.0000 0.0000 0.0000 0.0000 0.0000 36.1028
#
#
#
# Elastic Compliance Matrix: (Units=1/GPa)
#
#
# Indices 1 2 3 4 5 6 
#
# 1 0.010855 -0.003673 -0.004630 0.000000 0.000000 0.000000
# 2 -0.003673 0.012483 0.002254 0.000000 0.000000 0.000000
# 3 -0.004630 0.002254 0.012952 0.000000 0.000000 0.000000
# 4 0.000000 0.000000 0.000000 0.057332 0.000000 0.000000
# 5 0.000000 0.000000 0.000000 0.000000 0.031692 0.000000
# 6 0.000000 0.000000 0.000000 0.000000 0.000000 0.027699
#
#
# Mechanical properties :
#
#
# Convention : Reuss Voigt Hill
#
# Bulk Modulus (GPa) = 41.33416 46.31311 43.82363
# Shear Modulus (GPa) = 28.87267 32.93833 30.90550
#
# Velocity S-wave (km/s) = 3.67693 3.92728 3.80416
# Velocity P-wave (km/s) = 6.11403 6.50009 6.31001
#
# Compressibility (1/GPa) = 0.02419307
#
# Stress axis : x y z
#
# Youngs Moduli (GPa) = 92.12093 80.10776 77.21098
#
# Poissons Ratio (x) = 0.29424 0.35748
# Poissons Ratio (y) = 0.33836 -0.17407
# Poissons Ratio (z) = 0.42651 -0.18060
#
# Static dielectric constant tensor:
#      x y z
#    x 3.925690 0.000000 0.000000 
#    y 0.000000 3.969200 0.000000 
#    z 0.000000 0.000000 3.485870 
# 
# 
# High freq. dielectric constant tensor:
#      x y z
#    x 1.844610 0.000000 0.000000 
#    y 0.000000 1.841840 0.000000 
#    z 0.000000 0.000000 1.797740 
# 
# From -- ./inp_files/38028.got.cif
#   From: 2010.03.12/outbox.cif.g09.slc.cpg/sg64_20_cif.got.tgz:38028.got - 2010.04.10 20:19:32.
