data_PCOD8263346
_publ_section_title
;
Structure prediction by ZEFSAII (Michael W. Deem and Ramdas Pophale) SiO2 
 PCOD8263346
Probable space group: C M C A
;
_chemical_formula_sum "Si O2"
_cell_formula_units_Z 56
_cell_length_a 15.176550
_cell_length_b 9.680501
_cell_length_c 16.896999
_cell_angle_alpha 90.000000
_cell_angle_beta 90.000000
_cell_angle_gamma 90.000000
_cell_volume 2482.449769
_symmetry_space_group_name_H-M "C M C A"
_symmetry_group_IT_number 64
_symmetry_cell_setting 'orthorhombic'
loop_
_space_group_symop_operation_xyz
x,y,z
-x,1/2-y,1/2+z
x,-y,-z
-x,1/2+y,1/2-z
-x,-y,-z
x,1/2+y,1/2-z
-x,y,z
x,1/2-y,1/2+z
1/2+x,1/2+y,z
1/2-x,-y,1/2+z
1/2+x,1/2-y,-z
1/2-x,y,1/2-z
1/2-x,1/2-y,-z
1/2+x,y,1/2-z
1/2-x,1/2+y,z
1/2+x,-y,1/2+z
loop_
_atom_site_type_symbol
_atom_site_label
_atom_site_fract_x
_atom_site_fract_y
_atom_site_fract_z
Si Si1 0.364737 0.353367 0.981314
Si Si2 0.402339 0.140350 0.852182
Si Si3 0.680248 0.128308 0.093361
Si Si4 0.750000 0.752683 0.250000
O O1 0.406732 0.278181 0.905551
O O2 0.263186 0.389361 0.963934
O O3 0.412425 0.500000 0.000000
O O4 0.375602 0.257342 0.059129
O O5 0.500000 0.118102 0.815225
O O6 0.328942 0.152226 0.783788
O O7 0.377304 0.011235 0.908271
O O8 0.709129 0.156165 0.183017
#
# Coordination Sequence:
#
# PCOD8263346 Si02
#       4
#    16  16  16   8
#     4  10  20  37  62  91 125 166 206 250 307 367
#     4  11  24  41  63  92 125 164 211 261 313 372
#     4  10  20  37  62  89 122 166 211 253 303 366
#     4  10  22  40  62  90 126 166 208 258 312 372
#
# _framework density 22.558361999999999
#
# number of rings (size 3 to 8) (size 9 to 14) (size 15 to 20)
#    0.000    1.714    0.000    6.857    0.000    6.286 
#    0.000    0.000    0.000    0.000    0.000    0.000 
#    0.000    0.000    0.000    0.000    0.000    0.000 
#
# Total GULP energy -347142.098718 kJ/mol
# GULP energy per Si atom -12397.932097 kJ/mol
# Density = 2.250702 g / cm^3
# Si number density = 22.558362 Si / 1000 Ang^3
#
#
#
# Elastic Constant Matrix: (Units=GPa)
#
#
# Indices 1 2 3 4 5 6 
#
# 1 137.2189 44.3537 21.2149 0.0000 0.0000 0.0000
# 2 44.3537 165.4242 45.8504 0.0000 0.0000 0.0000
# 3 21.2149 45.8504 100.8737 0.0000 0.0000 0.0000
# 4 0.0000 0.0000 0.0000 30.0065 0.0000 0.0000
# 5 0.0000 0.0000 0.0000 0.0000 6.5978 0.0000
# 6 0.0000 0.0000 0.0000 0.0000 0.0000 -6.0645
#
#
#
# Elastic Compliance Matrix: (Units=1/GPa)
#
#
# Indices 1 2 3 4 5 6 
#
# 1 0.008037 -0.001929 -0.000813 0.000000 0.000000 0.000000
# 2 -0.001929 0.007380 -0.002948 0.000000 0.000000 0.000000
# 3 -0.000813 -0.002948 0.011425 0.000000 0.000000 0.000000
# 4 0.000000 0.000000 0.000000 0.033326 0.000000 0.000000
# 5 0.000000 0.000000 0.000000 0.000000 0.151566 0.000000
# 6 0.000000 0.000000 0.000000 0.000000 0.000000 -0.164893
#
#
# Mechanical properties :
#
#
# Convention : Reuss Voigt Hill
#
# Bulk Modulus (GPa) = 64.68811 69.59499 67.14155
# Shear Modulus (GPa) = 78.89513 25.58115 52.23814
#
# Velocity S-wave (km/s) = 5.92028 3.37114 4.81738
# Velocity P-wave (km/s) = 8.68741 6.78755 7.79557
#
# Compressibility (1/GPa) = 0.01545879
#
# Stress axis : x y z
#
# Youngs Moduli (GPa) = 124.42399 135.50813 87.53031
#
# Poissons Ratio (x) = 0.26146 0.07119
# Poissons Ratio (y) = 0.24007 0.25808
# Poissons Ratio (z) = 0.10119 0.39955
#
# Static dielectric constant tensor:
#      x y z
#    x 3.862420 0.000000 0.000000 
#    y 0.000000 4.209410 0.000000 
#    z 0.000000 0.000000 3.839830 
# 
# 
# High freq. dielectric constant tensor:
#      x y z
#    x 1.865100 0.000000 0.000000 
#    y 0.000000 1.903120 0.000000 
#    z 0.000000 0.000000 1.879670 
# 
# From -- ./inp_files/32680.got.cif
#   From: 2010.03.12/outbox.cif.g09.slc.cpg/sg64_17_cif.got.tgz:32680.got - 2010.04.10 20:19:32.
