data_PCOD8263136
_publ_section_title
;
Structure prediction by ZEFSAII (Michael W. Deem and Ramdas Pophale) SiO2 
 PCOD8263136
Probable space group: C M C A
;
_chemical_formula_sum "Si O2"
_cell_formula_units_Z 80
_cell_length_a 18.301390
_cell_length_b 15.273440
_cell_length_c 13.881550
_cell_angle_alpha 90.000000
_cell_angle_beta 90.000000
_cell_angle_gamma 90.000000
_cell_volume 3880.242791
_symmetry_space_group_name_H-M "C M C A"
_symmetry_group_IT_number 64
_symmetry_cell_setting 'orthorhombic'
loop_
_space_group_symop_operation_xyz
x,y,z
-x,1/2-y,1/2+z
x,-y,-z
-x,1/2+y,1/2-z
-x,-y,-z
x,1/2+y,1/2-z
-x,y,z
x,1/2-y,1/2+z
1/2+x,1/2+y,z
1/2-x,-y,1/2+z
1/2+x,1/2-y,-z
1/2-x,y,1/2-z
1/2-x,1/2-y,-z
1/2+x,y,1/2-z
1/2-x,1/2+y,z
1/2+x,-y,1/2+z
loop_
_atom_site_type_symbol
_atom_site_label
_atom_site_fract_x
_atom_site_fract_y
_atom_site_fract_z
Si Si1 0.632923 0.994579 0.275019
Si Si2 0.416528 0.798893 0.301032
Si Si3 0.417309 0.835185 0.640147
Si Si4 0.314402 0.807836 0.462404
Si Si5 0.265565 0.471063 0.393906
O O1 0.592339 0.904389 0.302365
O O2 0.659501 0.979231 0.165528
O O3 0.701660 0.024793 0.341296
O O4 0.581199 0.078727 0.290250
O O5 0.500000 0.775494 0.322899
O O6 0.393319 0.750906 0.201518
O O7 0.368109 0.758017 0.387896
O O8 0.500000 0.823060 0.601155
O O9 0.363095 0.846914 0.549364
O O10 0.250000 0.750000 0.500000
O O11 0.270352 0.876031 0.396912
O O12 0.285560 0.500000 0.500000
#
# Coordination Sequence:
#
# PCOD8263136 Si02
#       5
#    16  16  16  16  16
#     4  10  21  38  62  85 124 159 201 258 307 359
#     4  10  23  41  59  87 124 161 207 256 304 370
#     4  11  23  40  64  90 122 169 211 250 310 379
#     4  11  23  38  63  92 121 161 202 258 317 364
#     4  10  20  36  56  91 120 150 198 255 306 361
#
# _framework density 20.617266999999998
#
# number of rings (size 3 to 8) (size 9 to 14) (size 15 to 20)
#    0.000    1.600    2.000    2.400    2.800    2.400 
#    0.000    3.000    0.000    1.200    0.000    0.000 
#    0.000    0.000    0.000    0.000    0.000    0.000 
#
# Total GULP energy -495555.731409 kJ/mol
# GULP energy per Si atom -12388.893285 kJ/mol
# Density = 2.057034 g / cm^3
# Si number density = 20.617267 Si / 1000 Ang^3
#
#
#
# Elastic Constant Matrix: (Units=GPa)
#
#
# Indices 1 2 3 4 5 6 
#
# 1 86.2012 11.5192 43.5510 0.0000 0.0000 0.0000
# 2 11.5192 63.0739 8.8435 0.0000 0.0000 0.0000
# 3 43.5510 8.8435 115.6700 0.0000 0.0000 0.0000
# 4 0.0000 0.0000 0.0000 32.2670 0.0000 0.0000
# 5 0.0000 0.0000 0.0000 0.0000 24.4566 0.0000
# 6 0.0000 0.0000 0.0000 0.0000 0.0000 25.4917
#
#
#
# Elastic Compliance Matrix: (Units=1/GPa)
#
#
# Indices 1 2 3 4 5 6 
#
# 1 0.014550 -0.001910 -0.005332 0.000000 0.000000 0.000000
# 2 -0.001910 0.016277 -0.000525 0.000000 0.000000 0.000000
# 3 -0.005332 -0.000525 0.010693 0.000000 0.000000 0.000000
# 4 0.000000 0.000000 0.000000 0.030991 0.000000 0.000000
# 5 0.000000 0.000000 0.000000 0.000000 0.040889 0.000000
# 6 0.000000 0.000000 0.000000 0.000000 0.000000 0.039229
#
#
# Mechanical properties :
#
#
# Convention : Reuss Voigt Hill
#
# Bulk Modulus (GPa) = 38.48329 43.64138 41.06234
# Shear Modulus (GPa) = 28.27657 29.84515 29.06086
#
# Velocity S-wave (km/s) = 3.70739 3.80884 3.75846
# Velocity P-wave (km/s) = 6.08543 6.36838 6.22851
#
# Compressibility (1/GPa) = 0.02598531
#
# Stress axis : x y z
#
# Youngs Moduli (GPa) = 68.72894 61.43698 93.51831
#
# Poissons Ratio (x) = 0.11732 0.49866
# Poissons Ratio (y) = 0.13125 0.04914
# Poissons Ratio (z) = 0.36648 0.03228
#
# Static dielectric constant tensor:
#      x y z
#    x 3.433230 0.000000 0.000000 
#    y 0.000000 3.289600 0.000000 
#    z 0.000000 0.000000 3.065620 
# 
# 
# High freq. dielectric constant tensor:
#      x y z
#    x 1.808140 0.000000 0.000000 
#    y 0.000000 1.792760 0.000000 
#    z 0.000000 0.000000 1.809190 
# 
# From -- ./inp_files/25281.got.cif
#   From: 2010.03.12/outbox.cif.g09.slc.cpg/sg64_13_cif.got.tgz:25281.got - 2010.04.10 20:19:32.
