data_PCOD8263984
_publ_section_title
;
Structure prediction by ZEFSAII (Michael W. Deem and Ramdas Pophale) SiO2 
 PCOD8263984
Probable space group: C M C A
;
_chemical_formula_sum "Si O2"
_cell_formula_units_Z 88
_cell_length_a 15.580115
_cell_length_b 28.256490
_cell_length_c 9.131204
_cell_angle_alpha 90.000000
_cell_angle_beta 90.000000
_cell_angle_gamma 90.000000
_cell_volume 4019.915439
_symmetry_space_group_name_H-M "C M C A"
_symmetry_group_IT_number 64
_symmetry_cell_setting 'orthorhombic'
loop_
_space_group_symop_operation_xyz
x,y,z
-x,1/2-y,1/2+z
x,-y,-z
-x,1/2+y,1/2-z
-x,-y,-z
x,1/2+y,1/2-z
-x,y,z
x,1/2-y,1/2+z
1/2+x,1/2+y,z
1/2-x,-y,1/2+z
1/2+x,1/2-y,-z
1/2-x,y,1/2-z
1/2-x,1/2-y,-z
1/2+x,y,1/2-z
1/2-x,1/2+y,z
1/2+x,-y,1/2+z
loop_
_atom_site_type_symbol
_atom_site_label
_atom_site_fract_x
_atom_site_fract_y
_atom_site_fract_z
Si Si1 0.401410 0.418661 0.321295
Si Si2 0.102259 0.900540 0.654564
Si Si3 0.822624 0.275251 0.085744
Si Si4 0.401678 0.014205 0.343482
Si Si5 0.250000 0.140767 0.750000
Si Si6 0.903891 0.295410 0.806416
O O1 0.500000 0.400362 0.299076
O O2 0.368704 0.412446 0.488357
O O3 0.394544 0.473235 0.277074
O O4 0.334927 0.390753 0.214237
O O5 0.140903 0.939224 0.768698
O O6 0.133336 0.848795 0.710565
O O7 0.000000 0.902583 0.654267
O O8 0.781731 0.326013 0.119452
O O9 0.846980 0.243818 0.225359
O O10 0.750000 0.250000 0.000000
O O11 0.904097 0.282991 0.979549
O O12 0.500000 0.026655 0.378416
O O13 0.357700 0.000000 0.500000
O O14 0.000000 0.292478 0.745516
#
# Coordination Sequence:
#
# PCOD8263984 Si02
#       6
#    16  16  16  16   8  16
#     4  10  21  39  65  91 125 173 222 268 326 396
#     4   9  18  35  62  93 124 167 216 267 325 392
#     4  12  24  44  62  90 133 174 211 274 339 383
#     4   9  18  35  59  91 131 168 211 270 330 386
#     4  12  24  40  66  92 134 168 224 272 328 392
#     4  11  23  41  68  98 127 170 226 270 326 401
#
# _framework density 21.891006999999998
#
# number of rings (size 3 to 8) (size 9 to 14) (size 15 to 20)
#    0.000    1.636    3.636    1.091    0.000    4.364 
#    0.000    3.636    4.000    0.000    0.000    0.000 
#    0.000    0.000    0.000    0.000    0.000    0.000 
#
# Total GULP energy -545178.688014 kJ/mol
# GULP energy per Si atom -12390.424728 kJ/mol
# Density = 2.184118 g / cm^3
# Si number density = 21.891007 Si / 1000 Ang^3
#
#
#
# Elastic Constant Matrix: (Units=GPa)
#
#
# Indices 1 2 3 4 5 6 
#
# 1 71.5929 38.5630 26.8634 0.0000 0.0000 0.0000
# 2 38.5630 139.9680 56.6328 0.0000 0.0000 0.0000
# 3 26.8634 56.6328 113.2727 0.0000 0.0000 0.0000
# 4 0.0000 0.0000 0.0000 32.3175 0.0000 0.0000
# 5 0.0000 0.0000 0.0000 0.0000 19.6655 0.0000
# 6 0.0000 0.0000 0.0000 0.0000 0.0000 22.8131
#
#
#
# Elastic Compliance Matrix: (Units=1/GPa)
#
#
# Indices 1 2 3 4 5 6 
#
# 1 0.016788 -0.003779 -0.002092 0.000000 0.000000 0.000000
# 2 -0.003779 0.009807 -0.004007 0.000000 0.000000 0.000000
# 3 -0.002092 -0.004007 0.011328 0.000000 0.000000 0.000000
# 4 0.000000 0.000000 0.000000 0.030943 0.000000 0.000000
# 5 0.000000 0.000000 0.000000 0.000000 0.050850 0.000000
# 6 0.000000 0.000000 0.000000 0.000000 0.000000 0.043834
#
#
# Mechanical properties :
#
#
# Convention : Reuss Voigt Hill
#
# Bulk Modulus (GPa) = 55.04474 63.21689 59.13081
# Shear Modulus (GPa) = 26.40437 28.47752 27.44095
#
# Velocity S-wave (km/s) = 3.47677 3.61068 3.54436
# Velocity P-wave (km/s) = 6.42781 6.80613 6.61967
#
# Compressibility (1/GPa) = 0.01816704
#
# Stress axis : x y z
#
# Youngs Moduli (GPa) = 59.56504 101.96917 88.27869
#
# Poissons Ratio (x) = 0.38533 0.18469
# Poissons Ratio (y) = 0.22509 0.35373
# Poissons Ratio (z) = 0.12462 0.40858
#
# Static dielectric constant tensor:
#      x y z
#    x 3.819830 0.000000 0.000000 
#    y 0.000000 4.373400 0.000000 
#    z 0.000000 0.000000 4.635140 
# 
# 
# High freq. dielectric constant tensor:
#      x y z
#    x 1.834970 0.000000 0.000000 
#    y 0.000000 1.875370 0.000000 
#    z 0.000000 0.000000 1.852840 
# 
# From -- ./inp_files/7325.got.cif
#   From: 2010.03.12/outbox.cif.g09.slc.cpg/sg64_4_cif.got.tgz:7325.got - 2010.04.10 20:19:32.
