data_PCOD8263363
_publ_section_title
;
Structure prediction by ZEFSAII (Michael W. Deem and Ramdas Pophale) SiO2 
 PCOD8263363
Probable space group: C M C A
;
_chemical_formula_sum "Si O2"
_cell_formula_units_Z 80
_cell_length_a 22.469390
_cell_length_b 12.265378
_cell_length_c 14.029150
_cell_angle_alpha 90.000000
_cell_angle_beta 90.000000
_cell_angle_gamma 90.000000
_cell_volume 3866.371476
_symmetry_space_group_name_H-M "C M C A"
_symmetry_group_IT_number 64
_symmetry_cell_setting 'orthorhombic'
loop_
_space_group_symop_operation_xyz
x,y,z
-x,1/2-y,1/2+z
x,-y,-z
-x,1/2+y,1/2-z
-x,-y,-z
x,1/2+y,1/2-z
-x,y,z
x,1/2-y,1/2+z
1/2+x,1/2+y,z
1/2-x,-y,1/2+z
1/2+x,1/2-y,-z
1/2-x,y,1/2-z
1/2-x,1/2-y,-z
1/2+x,y,1/2-z
1/2-x,1/2+y,z
1/2+x,-y,1/2+z
loop_
_atom_site_type_symbol
_atom_site_label
_atom_site_fract_x
_atom_site_fract_y
_atom_site_fract_z
Si Si1 0.566785 0.386879 0.225282
Si Si2 0.731136 0.548868 0.603954
Si Si3 0.831371 0.464521 0.723348
Si Si4 0.647515 0.253657 0.368642
Si Si5 0.932901 0.624903 0.510538
O O1 0.500000 0.405183 0.263396
O O2 0.598885 0.504980 0.219328
O O3 0.601935 0.310441 0.297229
O O4 0.566333 0.335669 0.119956
O O5 0.739763 0.500000 0.500000
O O6 0.795067 0.553152 0.658034
O O7 0.689891 0.469209 0.667272
O O8 0.700078 0.666984 0.596131
O O9 0.819653 0.344063 0.685526
O O10 0.611114 0.207509 0.457957
O O11 0.909919 0.500000 0.500000
O O12 0.000000 0.632280 0.467910
#
# Coordination Sequence:
#
# PCOD8263363 Si02
#       5
#    16  16  16  16  16
#     4  10  22  39  63  95 127 158 208 263 313 379
#     4  10  25  43  63  93 126 166 215 269 311 374
#     4  10  23  42  63  92 127 163 215 257 318 380
#     4  11  23  40  67  89 130 171 209 260 326 377
#     4  10  20  37  64  97 127 164 215 257 308 383
#
# _framework density 20.691234000000001
#
# number of rings (size 3 to 8) (size 9 to 14) (size 15 to 20)
#    0.000    1.800    2.000    0.600    5.600    8.000 
#    0.000    0.000    0.000    3.000    0.000    0.000 
#    0.000    0.000    0.000    0.000    0.000    0.000 
#
# Total GULP energy -495930.186980 kJ/mol
# GULP energy per Si atom -12398.254675 kJ/mol
# Density = 2.064414 g / cm^3
# Si number density = 20.691234 Si / 1000 Ang^3
#
#
#
# Elastic Constant Matrix: (Units=GPa)
#
#
# Indices 1 2 3 4 5 6 
#
# 1 106.3763 35.9352 14.4267 0.0000 0.0000 0.0000
# 2 35.9352 91.9658 12.8959 0.0000 0.0000 0.0000
# 3 14.4267 12.8959 85.5818 0.0000 0.0000 0.0000
# 4 0.0000 0.0000 0.0000 29.7258 0.0000 0.0000
# 5 0.0000 0.0000 0.0000 0.0000 24.3881 0.0000
# 6 0.0000 0.0000 0.0000 0.0000 0.0000 27.2614
#
#
#
# Elastic Compliance Matrix: (Units=1/GPa)
#
#
# Indices 1 2 3 4 5 6 
#
# 1 0.010955 -0.004108 -0.001228 0.000000 0.000000 0.000000
# 2 -0.004108 0.012649 -0.001213 0.000000 0.000000 0.000000
# 3 -0.001228 -0.001213 0.012075 0.000000 0.000000 0.000000
# 4 0.000000 0.000000 0.000000 0.033641 0.000000 0.000000
# 5 0.000000 0.000000 0.000000 0.000000 0.041004 0.000000
# 6 0.000000 0.000000 0.000000 0.000000 0.000000 0.036682
#
#
# Mechanical properties :
#
#
# Convention : Reuss Voigt Hill
#
# Bulk Modulus (GPa) = 44.28787 45.60436 44.94612
# Shear Modulus (GPa) = 29.82751 30.98614 30.40682
#
# Velocity S-wave (km/s) = 3.80090 3.87402 3.83763
# Velocity P-wave (km/s) = 6.38068 6.48837 6.43475
#
# Compressibility (1/GPa) = 0.02257954
#
# Stress axis : x y z
#
# Youngs Moduli (GPa) = 91.28283 79.05689 82.81908
#
# Poissons Ratio (x) = 0.32480 0.10167
# Poissons Ratio (y) = 0.37503 0.10050
# Poissons Ratio (z) = 0.11206 0.09593
#
# Static dielectric constant tensor:
#      x y z
#    x 3.939480 0.000000 0.000000 
#    y 0.000000 3.591860 0.000000 
#    z 0.000000 0.000000 3.781480 
# 
# 
# High freq. dielectric constant tensor:
#      x y z
#    x 1.823170 0.000000 0.000000 
#    y 0.000000 1.786830 0.000000 
#    z 0.000000 0.000000 1.817050 
# 
# From -- ./inp_files/27085.got.cif
#   From: 2010.03.12/outbox.cif.g09.slc.cpg/sg64_14_cif.got.tgz:27085.got - 2010.04.10 20:19:32.
