data_PCOD8263246
_publ_section_title
;
Structure prediction by ZEFSAII (Michael W. Deem and Ramdas Pophale) SiO2 
 PCOD8263246
Probable space group: C M C A
;
_chemical_formula_sum "Si O2"
_cell_formula_units_Z 96
_cell_length_a 14.685549
_cell_length_b 21.826104
_cell_length_c 13.687401
_cell_angle_alpha 90.000000
_cell_angle_beta 90.000000
_cell_angle_gamma 90.000000
_cell_volume 4387.199645
_symmetry_space_group_name_H-M "C M C A"
_symmetry_group_IT_number 64
_symmetry_cell_setting 'orthorhombic'
loop_
_space_group_symop_operation_xyz
x,y,z
-x,1/2-y,1/2+z
x,-y,-z
-x,1/2+y,1/2-z
-x,-y,-z
x,1/2+y,1/2-z
-x,y,z
x,1/2-y,1/2+z
1/2+x,1/2+y,z
1/2-x,-y,1/2+z
1/2+x,1/2-y,-z
1/2-x,y,1/2-z
1/2-x,1/2-y,-z
1/2+x,y,1/2-z
1/2-x,1/2+y,z
1/2+x,-y,1/2+z
loop_
_atom_site_type_symbol
_atom_site_label
_atom_site_fract_x
_atom_site_fract_y
_atom_site_fract_z
Si Si1 0.153052 0.240885 0.215318
Si Si2 0.100500 0.123793 0.689888
Si Si3 0.895543 0.897470 0.092073
Si Si4 0.211134 0.430845 0.012676
Si Si5 0.397068 0.223196 0.487001
Si Si6 0.603544 0.340746 0.607434
O O1 0.250000 0.263605 0.250000
O O2 0.094680 0.302706 0.204628
O O3 0.164133 0.209637 0.108362
O O4 0.112309 0.188512 0.285283
O O5 0.123460 0.091455 0.793450
O O6 0.171811 0.101024 0.609976
O O7 0.000000 0.103344 0.655463
O O8 0.821479 0.932183 0.024310
O O9 0.000000 0.916806 0.064288
O O10 0.879694 0.825183 0.072879
O O11 0.176729 0.500000 0.000000
O O12 0.174989 0.395292 0.915782
O O13 0.500000 0.219370 0.449595
O O14 0.373870 0.289829 0.527006
O O15 0.500000 0.364945 0.595951
#
# Coordination Sequence:
#
# PCOD8263246 Si02
#       6
#    16  16  16  16  16  16
#     4  12  22  34  61  98 135 170 213 274 338 391
#     4  11  22  39  65  96 128 168 219 270 327 388
#     4  10  22  42  67  96 127 166 218 276 331 386
#     4  12  26  43  65  95 134 181 225 262 317 393
#     4  10  20  36  61  94 130 163 207 269 337 390
#     4  11  23  39  63  96 135 173 213 268 328 390
#
# _framework density 21.881841000000001
#
# number of rings (size 3 to 8) (size 9 to 14) (size 15 to 20)
#    0.000    1.000    3.333    4.500    0.000    3.000 
#    0.000    5.000    0.000    2.000    0.000    0.000 
#    0.000    0.000    0.000    0.000    0.000    0.000 
#
# Total GULP energy -595060.481424 kJ/mol
# GULP energy per Si atom -12397.093363 kJ/mol
# Density = 2.183204 g / cm^3
# Si number density = 21.881841 Si / 1000 Ang^3
#
#
#
# Elastic Constant Matrix: (Units=GPa)
#
#
# Indices 1 2 3 4 5 6 
#
# 1 98.7231 28.3001 33.3116 0.0000 0.0000 0.0000
# 2 28.3001 96.1939 23.4508 0.0000 0.0000 0.0000
# 3 33.3116 23.4508 94.0500 0.0000 0.0000 0.0000
# 4 0.0000 0.0000 0.0000 19.8367 0.0000 0.0000
# 5 0.0000 0.0000 0.0000 0.0000 31.2200 0.0000
# 6 0.0000 0.0000 0.0000 0.0000 0.0000 13.6877
#
#
#
# Elastic Compliance Matrix: (Units=1/GPa)
#
#
# Indices 1 2 3 4 5 6 
#
# 1 0.012121 -0.002682 -0.003624 0.000000 0.000000 0.000000
# 2 -0.002682 0.011662 -0.001958 0.000000 0.000000 0.000000
# 3 -0.003624 -0.001958 0.012405 0.000000 0.000000 0.000000
# 4 0.000000 0.000000 0.000000 0.050412 0.000000 0.000000
# 5 0.000000 0.000000 0.000000 0.000000 0.032031 0.000000
# 6 0.000000 0.000000 0.000000 0.000000 0.000000 0.073058
#
#
# Mechanical properties :
#
#
# Convention : Reuss Voigt Hill
#
# Bulk Modulus (GPa) = 50.86818 51.01022 50.93920
# Shear Modulus (GPa) = 23.28065 26.54252 24.91159
#
# Velocity S-wave (km/s) = 3.26533 3.48658 3.37777
# Velocity P-wave (km/s) = 6.12484 6.29052 6.20823
#
# Compressibility (1/GPa) = 0.01965866
#
# Stress axis : x y z
#
# Youngs Moduli (GPa) = 82.49975 85.74764 80.61582
#
# Poissons Ratio (x) = 0.23002 0.29218
# Poissons Ratio (y) = 0.22130 0.15783
# Poissons Ratio (z) = 0.29901 0.16787
#
# Static dielectric constant tensor:
#      x y z
#    x 4.144170 0.000000 0.000000 
#    y 0.000000 3.502800 0.000000 
#    z 0.000000 0.000000 4.003290 
# 
# 
# High freq. dielectric constant tensor:
#      x y z
#    x 1.875090 0.000000 0.000000 
#    y 0.000000 1.812810 0.000000 
#    z 0.000000 0.000000 1.864970 
# 
# From -- ./inp_files/23850.got.cif
#   From: 2010.03.12/outbox.cif.g09.slc.cpg/sg64_12_cif.got.tgz:23850.got - 2010.04.10 20:19:32.
