data_PCOD8263808
_publ_section_title
;
Structure prediction by ZEFSAII (Michael W. Deem and Ramdas Pophale) SiO2 
 PCOD8263808
Probable space group: C M C A
;
_chemical_formula_sum "Si O2"
_cell_formula_units_Z 88
_cell_length_a 9.724195
_cell_length_b 21.865678
_cell_length_c 21.387133
_cell_angle_alpha 90.000000
_cell_angle_beta 90.000000
_cell_angle_gamma 90.000000
_cell_volume 4547.463037
_symmetry_space_group_name_H-M "C M C A"
_symmetry_group_IT_number 64
_symmetry_cell_setting 'orthorhombic'
loop_
_space_group_symop_operation_xyz
x,y,z
-x,1/2-y,1/2+z
x,-y,-z
-x,1/2+y,1/2-z
-x,-y,-z
x,1/2+y,1/2-z
-x,y,z
x,1/2-y,1/2+z
1/2+x,1/2+y,z
1/2-x,-y,1/2+z
1/2+x,1/2-y,-z
1/2-x,y,1/2-z
1/2-x,1/2-y,-z
1/2+x,y,1/2-z
1/2-x,1/2+y,z
1/2+x,-y,1/2+z
loop_
_atom_site_type_symbol
_atom_site_label
_atom_site_fract_x
_atom_site_fract_y
_atom_site_fract_z
Si Si1 0.844470 0.681892 0.806122
Si Si2 0.000000 0.150328 0.094237
Si Si3 0.500000 0.667877 0.398185
Si Si4 0.000000 0.218368 0.982358
Si Si5 0.231971 0.820663 0.819455
Si Si6 0.739478 0.130946 0.566040
Si Si7 0.500000 0.564519 0.972603
Si Si8 0.500000 0.925039 0.995719
O O1 0.750000 0.658233 0.750000
O O2 0.835646 0.754394 0.813726
O O3 0.797758 0.646491 0.867099
O O4 0.000000 0.663898 0.789965
O O5 0.131790 0.138329 0.137805
O O6 0.000000 0.217799 0.059293
O O7 0.000000 0.107983 0.033489
O O8 0.500000 0.712243 0.458848
O O9 0.624754 0.683550 0.353587
O O10 0.500000 0.597603 0.422930
O O11 0.855889 0.186828 0.959641
O O12 0.250000 0.849453 0.750000
O O13 0.634499 0.073877 0.570146
O O14 0.864509 0.107272 0.523448
O O15 0.500000 0.500000 0.000000
O O16 0.500000 0.000000 0.000000
#
# Coordination Sequence:
#
# PCOD8263808 Si02
#       8
#    16   8   8   8  16  16   8   8
#     4  11  23  36  60  90 128 163 195 241 306 377
#     4  10  21  38  56  88 121 154 199 251 297 373
#     4  12  23  36  62  90 127 156 197 261 298 384
#     4  10  22  34  61  96 123 152 202 240 336 364
#     4  11  23  36  57  88 127 159 194 236 308 380
#     4  10  21  39  60  90 121 154 196 257 300 378
#     4  10  22  41  65  85 115 162 204 257 310 361
#     4  12  26  41  60  87 120 164 208 255 316 356
#
# _framework density 19.35145
#
# number of rings (size 3 to 8) (size 9 to 14) (size 15 to 20)
#    0.000    1.455    3.636    3.273    8.909    1.455 
#    0.000    0.000    0.000    6.545    0.000    0.000 
#    0.000    0.000    0.000    0.000    0.000    0.000 
#
# Total GULP energy -545108.873089 kJ/mol
# GULP energy per Si atom -12388.838025 kJ/mol
# Density = 1.930740 g / cm^3
# Si number density = 19.351450 Si / 1000 Ang^3
#
#
#
# Elastic Constant Matrix: (Units=GPa)
#
#
# Indices 1 2 3 4 5 6 
#
# 1 171.1179 20.3700 53.6283 0.0000 0.0000 0.0000
# 2 20.3700 62.8236 19.8089 0.0000 0.0000 0.0000
# 3 53.6283 19.8089 121.1000 0.0000 0.0000 0.0000
# 4 0.0000 0.0000 0.0000 17.1220 0.0000 0.0000
# 5 0.0000 0.0000 0.0000 0.0000 39.2929 0.0000
# 6 0.0000 0.0000 0.0000 0.0000 0.0000 7.1506
#
#
#
# Elastic Compliance Matrix: (Units=1/GPa)
#
#
# Indices 1 2 3 4 5 6 
#
# 1 0.006891 -0.001341 -0.002832 0.000000 0.000000 0.000000
# 2 -0.001341 0.017044 -0.002194 0.000000 0.000000 0.000000
# 3 -0.002832 -0.002194 0.009871 0.000000 0.000000 0.000000
# 4 0.000000 0.000000 0.000000 0.058404 0.000000 0.000000
# 5 0.000000 0.000000 0.000000 0.000000 0.025450 0.000000
# 6 0.000000 0.000000 0.000000 0.000000 0.000000 0.139849
#
#
# Mechanical properties :
#
#
# Convention : Reuss Voigt Hill
#
# Bulk Modulus (GPa) = 47.45868 60.29509 53.87688
# Shear Modulus (GPa) = 18.03305 30.12871 24.08088
#
# Velocity S-wave (km/s) = 3.05597 3.95007 3.53143
# Velocity P-wave (km/s) = 6.08521 7.21315 6.67306
#
# Compressibility (1/GPa) = 0.02107096
#
# Stress axis : x y z
#
# Youngs Moduli (GPa) = 145.11155 58.67064 101.30892
#
# Poissons Ratio (x) = 0.07870 0.28694
# Poissons Ratio (y) = 0.19465 0.22227
# Poissons Ratio (z) = 0.41100 0.12872
#
# Static dielectric constant tensor:
#      x y z
#    x 3.827180 0.000000 0.000000 
#    y 0.000000 3.082780 0.000000 
#    z 0.000000 0.000000 3.757940 
# 
# 
# High freq. dielectric constant tensor:
#      x y z
#    x 1.785940 0.000000 0.000000 
#    y 0.000000 1.706390 0.000000 
#    z 0.000000 0.000000 1.758020 
# 
# From -- ./inp_files/36882.got.cif
#   From: 2010.03.12/outbox.cif.g09.slc.cpg/sg64_19_cif.got.tgz:36882.got - 2010.04.10 20:19:32.
