data_PCOD8263343
_publ_section_title
;
Structure prediction by ZEFSAII (Michael W. Deem and Ramdas Pophale) SiO2 
 PCOD8263343
Probable space group: C M C A
;
_chemical_formula_sum "Si O2"
_cell_formula_units_Z 112
_cell_length_a 19.788380
_cell_length_b 13.814029
_cell_length_c 19.185636
_cell_angle_alpha 90.000000
_cell_angle_beta 90.000000
_cell_angle_gamma 90.000000
_cell_volume 5244.532796
_symmetry_space_group_name_H-M "C M C A"
_symmetry_group_IT_number 64
_symmetry_cell_setting 'orthorhombic'
loop_
_space_group_symop_operation_xyz
x,y,z
-x,1/2-y,1/2+z
x,-y,-z
-x,1/2+y,1/2-z
-x,-y,-z
x,1/2+y,1/2-z
-x,y,z
x,1/2-y,1/2+z
1/2+x,1/2+y,z
1/2-x,-y,1/2+z
1/2+x,1/2-y,-z
1/2-x,y,1/2-z
1/2-x,1/2-y,-z
1/2+x,y,1/2-z
1/2-x,1/2+y,z
1/2+x,-y,1/2+z
loop_
_atom_site_type_symbol
_atom_site_label
_atom_site_fract_x
_atom_site_fract_y
_atom_site_fract_z
Si Si1 0.675939 0.716789 0.260659
Si Si2 0.306865 0.064992 0.704059
Si Si3 0.644088 0.278220 0.490230
Si Si4 0.573466 0.462742 0.290312
Si Si5 0.577659 0.644605 0.376078
Si Si6 0.424296 0.750608 0.650716
Si Si7 0.773620 0.902076 0.044825
O O1 0.750000 0.666146 0.250000
O O2 0.688530 0.829733 0.263014
O O3 0.635192 0.696869 0.331111
O O4 0.628971 0.685630 0.195188
O O5 0.250000 0.010034 0.750000
O O6 0.376679 0.011846 0.725778
O O7 0.289905 0.063325 0.622869
O O8 0.598298 0.337387 0.544460
O O9 0.594518 0.244315 0.429692
O O10 0.700897 0.350743 0.460337
O O11 0.672402 0.178403 0.522024
O O12 0.500000 0.478242 0.256876
O O13 0.583614 0.531865 0.357265
O O14 0.581567 0.357398 0.321388
O O15 0.500000 0.681966 0.362931
O O16 0.500000 0.791656 0.661061
O O17 0.776987 0.000000 0.000000
#
# Coordination Sequence:
#
# PCOD8263343 Si02
#       7
#    16  16  16  16  16  16  16
#     4  10  20  37  62  87 122 162 215 262 319 374
#     4  10  20  39  62  91 120 163 209 257 313 380
#     4  11  24  41  64  94 130 171 216 262 320 396
#     4   9  21  38  61  92 125 163 214 266 318 379
#     4  11  23  39  61  95 129 169 218 268 325 383
#     4  10  21  39  62  90 127 168 206 263 324 381
#     4  11  25  42  64  95 134 169 212 269 325 380
#
# _framework density 21.355571999999999
#
# number of rings (size 3 to 8) (size 9 to 14) (size 15 to 20)
#    0.000    1.714    1.429    3.429    6.000    2.286 
#    0.000    2.143    0.000    3.000    0.000    0.000 
#    0.000    0.000    0.000    0.000    0.000    0.000 
#
# Total GULP energy -693916.063387 kJ/mol
# GULP energy per Si atom -12391.358275 kJ/mol
# Density = 2.130697 g / cm^3
# Si number density = 21.355572 Si / 1000 Ang^3
#
#
#
# Elastic Constant Matrix: (Units=GPa)
#
#
# Indices 1 2 3 4 5 6 
#
# 1 179.7418 23.0980 74.3403 0.0000 0.0000 0.0000
# 2 23.0980 49.0838 12.1471 0.0000 0.0000 0.0000
# 3 74.3403 12.1471 161.2902 0.0000 0.0000 0.0000
# 4 0.0000 0.0000 0.0000 15.8999 0.0000 0.0000
# 5 0.0000 0.0000 0.0000 0.0000 40.1807 0.0000
# 6 0.0000 0.0000 0.0000 0.0000 0.0000 10.8529
#
#
#
# Elastic Compliance Matrix: (Units=1/GPa)
#
#
# Indices 1 2 3 4 5 6 
#
# 1 0.007188 -0.002611 -0.003116 0.000000 0.000000 0.000000
# 2 -0.002611 0.021709 -0.000431 0.000000 0.000000 0.000000
# 3 -0.003116 -0.000431 0.007669 0.000000 0.000000 0.000000
# 4 0.000000 0.000000 0.000000 0.062893 0.000000 0.000000
# 5 0.000000 0.000000 0.000000 0.000000 0.024888 0.000000
# 6 0.000000 0.000000 0.000000 0.000000 0.000000 0.092141
#
#
# Mechanical properties :
#
#
# Convention : Reuss Voigt Hill
#
# Bulk Modulus (GPa) = 41.24106 67.69851 54.46978
# Shear Modulus (GPa) = 21.10701 32.08875 26.59788
#
# Velocity S-wave (km/s) = 3.14723 3.88054 3.53296
# Velocity P-wave (km/s) = 5.70616 7.20052 6.49645
#
# Compressibility (1/GPa) = 0.02424768
#
# Stress axis : x y z
#
# Youngs Moduli (GPa) = 139.12040 46.06407 130.39760
#
# Poissons Ratio (x) = 0.12029 0.40637
# Poissons Ratio (y) = 0.36329 0.05625
# Poissons Ratio (z) = 0.43355 0.01987
#
# Static dielectric constant tensor:
#      x y z
#    x 4.808490 0.000000 0.000000 
#    y 0.000000 3.731280 0.000000 
#    z 0.000000 0.000000 3.788710 
# 
# 
# High freq. dielectric constant tensor:
#      x y z
#    x 1.858930 0.000000 0.000000 
#    y 0.000000 1.828840 0.000000 
#    z 0.000000 0.000000 1.833280 
# 
# From -- ./inp_files/34468.got.cif
#   From: 2010.03.12/outbox.cif.g09.slc.cpg/sg64_18_cif.got.tgz:34468.got - 2010.04.10 20:19:32.
