data_PCOD8263137
_publ_section_title
;
Structure prediction by ZEFSAII (Michael W. Deem and Ramdas Pophale) SiO2 
 PCOD8263137
Probable space group: C M C A
;
_chemical_formula_sum "Si O2"
_cell_formula_units_Z 80
_cell_length_a 18.386654
_cell_length_b 14.144810
_cell_length_c 14.803154
_cell_angle_alpha 90.000000
_cell_angle_beta 90.000000
_cell_angle_gamma 90.000000
_cell_volume 3849.941044
_symmetry_space_group_name_H-M "C M C A"
_symmetry_group_IT_number 64
_symmetry_cell_setting 'orthorhombic'
loop_
_space_group_symop_operation_xyz
x,y,z
-x,1/2-y,1/2+z
x,-y,-z
-x,1/2+y,1/2-z
-x,-y,-z
x,1/2+y,1/2-z
-x,y,z
x,1/2-y,1/2+z
1/2+x,1/2+y,z
1/2-x,-y,1/2+z
1/2+x,1/2-y,-z
1/2-x,y,1/2-z
1/2-x,1/2-y,-z
1/2+x,y,1/2-z
1/2-x,1/2+y,z
1/2+x,-y,1/2+z
loop_
_atom_site_type_symbol
_atom_site_label
_atom_site_fract_x
_atom_site_fract_y
_atom_site_fract_z
Si Si1 0.344977 0.724990 0.557316
Si Si2 0.082756 0.879615 0.281557
Si Si3 0.583078 0.724695 0.361457
Si Si4 0.177097 0.438301 0.805663
Si Si5 0.264422 0.596854 0.028211
O O1 0.397965 0.689481 0.635330
O O2 0.384922 0.729920 0.461435
O O3 0.318993 0.832298 0.580810
O O4 0.273596 0.656791 0.552881
O O5 0.090817 0.826308 0.186248
O O6 0.000000 0.913819 0.296408
O O7 0.136183 0.967799 0.275012
O O8 0.500000 0.692170 0.368455
O O9 0.623898 0.650983 0.296024
O O10 0.250000 0.422164 0.750000
O O11 0.199104 0.443855 0.910405
O O12 0.306688 0.500000 0.000000
#
# Coordination Sequence:
#
# PCOD8263137 Si02
#       5
#    16  16  16  16  16
#     4  10  21  38  63  85 124 158 198 256 305 354
#     4  11  23  40  61  87 122 163 206 251 306 372
#     4  10  23  41  61  89 122 162 207 247 301 372
#     4  11  23  37  63  90 121 159 200 256 311 359
#     4  10  20  36  56  92 120 149 197 251 302 362
#
# _framework density 20.779539
#
# number of rings (size 3 to 8) (size 9 to 14) (size 15 to 20)
#    0.000    1.600    2.000    2.400    2.800    2.400 
#    0.000    3.000    0.000    1.200    0.000    0.000 
#    0.000    0.000    0.000    0.000    0.000    0.000 
#
# Total GULP energy -495888.560225 kJ/mol
# GULP energy per Si atom -12397.214006 kJ/mol
# Density = 2.073224 g / cm^3
# Si number density = 20.779539 Si / 1000 Ang^3
#
#
#
# Elastic Constant Matrix: (Units=GPa)
#
#
# Indices 1 2 3 4 5 6 
#
# 1 115.5515 48.7462 16.4857 0.0000 0.0000 0.0000
# 2 48.7462 128.3840 7.1979 0.0000 0.0000 0.0000
# 3 16.4857 7.1979 55.0771 0.0000 0.0000 0.0000
# 4 0.0000 0.0000 0.0000 23.4706 0.0000 0.0000
# 5 0.0000 0.0000 0.0000 0.0000 33.7220 0.0000
# 6 0.0000 0.0000 0.0000 0.0000 0.0000 38.3107
#
#
#
# Elastic Compliance Matrix: (Units=1/GPa)
#
#
# Indices 1 2 3 4 5 6 
#
# 1 0.010686 -0.003907 -0.002688 0.000000 0.000000 0.000000
# 2 -0.003907 0.009275 -0.000043 0.000000 0.000000 0.000000
# 3 -0.002688 -0.000043 0.018967 0.000000 0.000000 0.000000
# 4 0.000000 0.000000 0.000000 0.042607 0.000000 0.000000
# 5 0.000000 0.000000 0.000000 0.000000 0.029654 0.000000
# 6 0.000000 0.000000 0.000000 0.000000 0.000000 0.026102
#
#
# Mechanical properties :
#
#
# Convention : Reuss Voigt Hill
#
# Bulk Modulus (GPa) = 38.98255 49.31912 44.15083
# Shear Modulus (GPa) = 31.42375 34.20618 32.81496
#
# Velocity S-wave (km/s) = 3.89298 4.06168 3.97822
# Velocity P-wave (km/s) = 6.24562 6.76626 6.51115
#
# Compressibility (1/GPa) = 0.02565250
#
# Stress axis : x y z
#
# Youngs Moduli (GPa) = 93.58364 107.81893 52.72450
#
# Poissons Ratio (x) = 0.42120 0.14172
# Poissons Ratio (y) = 0.36559 0.00226
# Poissons Ratio (z) = 0.25154 0.00461
#
# Static dielectric constant tensor:
#      x y z
#    x 3.774460 0.000000 0.000000 
#    y 0.000000 3.872800 0.000000 
#    z 0.000000 0.000000 3.590850 
# 
# 
# High freq. dielectric constant tensor:
#      x y z
#    x 1.807160 0.000000 0.000000 
#    y 0.000000 1.824290 0.000000 
#    z 0.000000 0.000000 1.805450 
# 
# From -- ./inp_files/26141.got.cif
#   From: 2010.03.12/outbox.cif.g09.slc.cpg/sg64_14_cif.got.tgz:26141.got - 2010.04.10 20:19:32.
