data_PCOD8263429
_publ_section_title
;
Structure prediction by ZEFSAII (Michael W. Deem and Ramdas Pophale) SiO2 
 PCOD8263429
Probable space group: C M C A
;
_chemical_formula_sum "Si O2"
_cell_formula_units_Z 88
_cell_length_a 8.765714
_cell_length_b 23.461479
_cell_length_c 20.255126
_cell_angle_alpha 90.000000
_cell_angle_beta 90.000000
_cell_angle_gamma 90.000000
_cell_volume 4165.600648
_symmetry_space_group_name_H-M "C M C A"
_symmetry_group_IT_number 64
_symmetry_cell_setting 'orthorhombic'
loop_
_space_group_symop_operation_xyz
x,y,z
-x,1/2-y,1/2+z
x,-y,-z
-x,1/2+y,1/2-z
-x,-y,-z
x,1/2+y,1/2-z
-x,y,z
x,1/2-y,1/2+z
1/2+x,1/2+y,z
1/2-x,-y,1/2+z
1/2+x,1/2-y,-z
1/2-x,y,1/2-z
1/2-x,1/2-y,-z
1/2+x,y,1/2-z
1/2-x,1/2+y,z
1/2+x,-y,1/2+z
loop_
_atom_site_type_symbol
_atom_site_label
_atom_site_fract_x
_atom_site_fract_y
_atom_site_fract_z
Si Si1 0.181982 0.046274 0.181303
Si Si2 0.170821 0.243259 0.635145
Si Si3 0.750000 0.164321 0.750000
Si Si4 0.167429 0.076056 0.853490
Si Si5 0.819329 0.146115 0.395938
Si Si6 0.682067 0.340832 0.038229
O O1 0.250000 0.068523 0.250000
O O2 0.243544 0.086393 0.123564
O O3 0.000000 0.048072 0.184879
O O4 0.250437 0.982466 0.167856
O O5 0.155478 0.205147 0.701184
O O6 0.250404 0.303945 0.650604
O O7 0.274244 0.215940 0.577964
O O8 0.000000 0.253151 0.608002
O O9 0.851539 0.122070 0.794453
O O10 0.243167 0.105667 0.917585
O O11 0.000000 0.056965 0.875187
O O12 0.773326 0.158647 0.470810
O O13 0.000000 0.143156 0.387541
O O14 0.500000 0.342335 0.027514
#
# Coordination Sequence:
#
# PCOD8263429 Si02
#       6
#    16  16   8  16  16  16
#     4  11  23  42  65  92 126 164 204 250 309 369
#     4  11  23  39  64  94 127 165 209 259 314 371
#     4  10  20  38  62  94 124 160 202 256 308 372
#     4   9  19  37  64  93 123 159 199 251 309 370
#     4  12  26  43  61  87 126 169 213 257 309 368
#     4  10  21  41  66  94 126 163 208 256 313 370
#
# _framework density 21.125405000000001
#
# number of rings (size 3 to 8) (size 9 to 14) (size 15 to 20)
#    0.000    1.455    0.909    4.364    1.273    2.909 
#    0.000    6.364    0.000    0.000    0.000    0.000 
#    0.000    0.000    0.000    0.000    0.000    0.000 
#
# Total GULP energy -545409.628600 kJ/mol
# GULP energy per Si atom -12395.673377 kJ/mol
# Density = 2.107732 g / cm^3
# Si number density = 21.125405 Si / 1000 Ang^3
#
#
#
# Elastic Constant Matrix: (Units=GPa)
#
#
# Indices 1 2 3 4 5 6 
#
# 1 109.3544 41.3685 15.7267 0.0000 0.0000 0.0000
# 2 41.3685 145.2660 51.3805 0.0000 0.0000 0.0000
# 3 15.7267 51.3805 76.3605 0.0000 0.0000 0.0000
# 4 0.0000 0.0000 0.0000 24.8436 0.0000 0.0000
# 5 0.0000 0.0000 0.0000 0.0000 29.6996 0.0000
# 6 0.0000 0.0000 0.0000 0.0000 0.0000 25.0174
#
#
#
# Elastic Compliance Matrix: (Units=1/GPa)
#
#
# Indices 1 2 3 4 5 6 
#
# 1 0.010251 -0.002851 -0.000193 0.000000 0.000000 0.000000
# 2 -0.002851 0.009827 -0.006025 0.000000 0.000000 0.000000
# 3 -0.000193 -0.006025 0.017190 0.000000 0.000000 0.000000
# 4 0.000000 0.000000 0.000000 0.040252 0.000000 0.000000
# 5 0.000000 0.000000 0.000000 0.000000 0.033670 0.000000
# 6 0.000000 0.000000 0.000000 0.000000 0.000000 0.039972
#
#
# Mechanical properties :
#
#
# Convention : Reuss Voigt Hill
#
# Bulk Modulus (GPa) = 52.27524 60.88138 56.57831
# Shear Modulus (GPa) = 28.46148 30.74579 29.60363
#
# Velocity S-wave (km/s) = 3.67449 3.81910 3.74749
# Velocity P-wave (km/s) = 6.54228 6.95190 6.75020
#
# Compressibility (1/GPa) = 0.01912951
#
# Stress axis : x y z
#
# Youngs Moduli (GPa) = 97.55301 101.76179 58.17491
#
# Poissons Ratio (x) = 0.29012 0.01122
# Poissons Ratio (y) = 0.27812 0.35050
# Poissons Ratio (z) = 0.01881 0.61312
#
# Static dielectric constant tensor:
#      x y z
#    x 3.588460 0.000000 0.000000 
#    y 0.000000 4.156130 0.000000 
#    z 0.000000 0.000000 3.782560 
# 
# 
# High freq. dielectric constant tensor:
#      x y z
#    x 1.816370 0.000000 0.000000 
#    y 0.000000 1.840920 0.000000 
#    z 0.000000 0.000000 1.826390 
# 
# From -- ./inp_files/36830.got.cif
#   From: 2010.03.12/outbox.cif.g09.slc.cpg/sg64_19_cif.got.tgz:36830.got - 2010.04.10 20:19:32.
