data_PCOD8263885
_publ_section_title
;
Structure prediction by ZEFSAII (Michael W. Deem and Ramdas Pophale) SiO2 
 PCOD8263885
Probable space group: C M C A
;
_chemical_formula_sum "Si O2"
_cell_formula_units_Z 96
_cell_length_a 21.282978
_cell_length_b 14.553842
_cell_length_c 13.818176
_cell_angle_alpha 90.000000
_cell_angle_beta 90.000000
_cell_angle_gamma 90.000000
_cell_volume 4280.167567
_symmetry_space_group_name_H-M "C M C A"
_symmetry_group_IT_number 64
_symmetry_cell_setting 'orthorhombic'
loop_
_space_group_symop_operation_xyz
x,y,z
-x,1/2-y,1/2+z
x,-y,-z
-x,1/2+y,1/2-z
-x,-y,-z
x,1/2+y,1/2-z
-x,y,z
x,1/2-y,1/2+z
1/2+x,1/2+y,z
1/2-x,-y,1/2+z
1/2+x,1/2-y,-z
1/2-x,y,1/2-z
1/2-x,1/2-y,-z
1/2+x,y,1/2-z
1/2-x,1/2+y,z
1/2+x,-y,1/2+z
loop_
_atom_site_type_symbol
_atom_site_label
_atom_site_fract_x
_atom_site_fract_y
_atom_site_fract_z
Si Si1 0.879363 0.890684 0.000001
Si Si2 0.931628 0.850184 0.794984
Si Si3 0.689157 0.648658 0.295358
Si Si4 0.931629 0.350195 0.294981
Si Si5 0.810844 0.851356 0.295354
Si Si6 0.267248 0.891721 0.000001
O O1 0.912518 0.845637 0.907382
O O2 0.805763 0.864755 0.000001
O O3 0.912518 0.845638 0.092621
O O4 0.889245 0.000000 0.000000
O O5 0.875608 0.902956 0.736277
O O6 0.938110 0.749992 0.750008
O O7 0.000000 0.899655 0.784742
O O8 0.750000 0.596296 0.250000
O O9 0.686188 0.750009 0.250008
O O10 0.696534 0.652891 0.409957
O O11 0.875608 0.402971 0.236277
O O12 0.000000 0.399667 0.284745
O O13 0.750000 0.903721 0.250000
O O14 0.803465 0.847111 0.409953
O O15 0.276856 0.000000 0.000000
#
# Coordination Sequence:
#
# PCOD8263885 Si02
#       6
#    16  16  16  16  16  16
#     4  11  23  39  63  92 122 157 201 256 304 350
#     4  10  22  40  61  90 124 159 201 250 302 357
#     4  10  21  38  62  91 118 158 202 249 295 357
#     4  10  22  40  61  90 124 159 201 250 302 357
#     4  10  21  38  62  91 118 158 202 249 295 357
#     4  11  24  39  60  93 128 156 197 254 307 354
#
# _framework density 22.429029
#
# number of rings (size 3 to 8) (size 9 to 14) (size 15 to 20)
#    0.000    1.667    3.333    0.500    0.000   11.333 
#    0.000    2.500    0.000    1.000    0.000    0.000 
#    0.000    0.000    0.000    0.000    0.000    0.000 
#
# Total GULP energy -594710.054862 kJ/mol
# GULP energy per Si atom -12389.792810 kJ/mol
# Density = 2.237798 g / cm^3
# Si number density = 22.429029 Si / 1000 Ang^3
#
#
#
# Elastic Constant Matrix: (Units=GPa)
#
#
# Indices 1 2 3 4 5 6 
#
# 1 274.8031 5.8678 103.8937 0.0000 0.0000 0.0000
# 2 5.8678 63.2961 36.3341 0.0000 0.0000 0.0000
# 3 103.8937 36.3341 225.9496 0.0000 0.0000 0.0000
# 4 0.0000 0.0000 0.0000 -18.2756 0.0000 0.0000
# 5 0.0000 0.0000 0.0000 0.0000 -55.7688 0.0000
# 6 0.0000 0.0000 0.0000 0.0000 0.0000 12.9448
#
#
#
# Elastic Compliance Matrix: (Units=1/GPa)
#
#
# Indices 1 2 3 4 5 6 
#
# 1 0.004445 0.000839 -0.002179 0.000000 0.000000 0.000000
# 2 0.000839 0.017564 -0.003210 0.000000 0.000000 0.000000
# 3 -0.002179 -0.003210 0.005944 0.000000 0.000000 0.000000
# 4 0.000000 0.000000 0.000000 -0.054718 0.000000 0.000000
# 5 0.000000 0.000000 0.000000 0.000000 -0.017931 0.000000
# 6 0.000000 0.000000 0.000000 0.000000 0.000000 0.077251
#
#
# Mechanical properties :
#
#
# Convention : Reuss Voigt Hill
#
# Bulk Modulus (GPa) = 53.04443 95.13777 74.09110
# Shear Modulus (GPa) = 104.30112 15.64362 59.97237
#
# Velocity S-wave (km/s) = 6.82669 2.64383 5.17656
# Velocity P-wave (km/s) = 9.26496 7.19925 8.29665
#
# Compressibility (1/GPa) = 0.01885212
#
# Stress axis : x y z
#
# Youngs Moduli (GPa) = 224.98698 56.93584 168.24652
#
# Poissons Ratio (x) = -0.04774 0.36653
# Poissons Ratio (y) = -0.18866 0.54006
# Poissons Ratio (z) = 0.49015 0.18276
#
# Static dielectric constant tensor:
#      x y z
#    x 6.695720 0.000000 0.000000 
#    y 0.000000 3.564080 0.000000 
#    z 0.000000 0.000000 3.716600 
# 
# 
# High freq. dielectric constant tensor:
#      x y z
#    x 1.910600 0.000000 0.000000 
#    y 0.000000 1.848490 0.000000 
#    z 0.000000 0.000000 1.890350 
# 
# From -- ./inp_files/18369.got.cif
#   From: 2010.03.12/outbox.cif.g09.slc.cpg/sg64_10_cif.got.tgz:18369.got - 2010.04.10 20:19:32.
