data_PCOD8263519
_publ_section_title
;
Structure prediction by ZEFSAII (Michael W. Deem and Ramdas Pophale) SiO2 
 PCOD8263519
Probable space group: C M C A
;
_chemical_formula_sum "Si O2"
_cell_formula_units_Z 56
_cell_length_a 19.377059
_cell_length_b 13.311737
_cell_length_c 8.611807
_cell_angle_alpha 90.000000
_cell_angle_beta 90.000000
_cell_angle_gamma 90.000000
_cell_volume 2221.349419
_symmetry_space_group_name_H-M "C M C A"
_symmetry_group_IT_number 64
_symmetry_cell_setting 'orthorhombic'
loop_
_space_group_symop_operation_xyz
x,y,z
-x,1/2-y,1/2+z
x,-y,-z
-x,1/2+y,1/2-z
-x,-y,-z
x,1/2+y,1/2-z
-x,y,z
x,1/2-y,1/2+z
1/2+x,1/2+y,z
1/2-x,-y,1/2+z
1/2+x,1/2-y,-z
1/2-x,y,1/2-z
1/2-x,1/2-y,-z
1/2+x,y,1/2-z
1/2-x,1/2+y,z
1/2+x,-y,1/2+z
loop_
_atom_site_type_symbol
_atom_site_label
_atom_site_fract_x
_atom_site_fract_y
_atom_site_fract_z
Si Si1 0.500000 0.363736 0.041168
Si Si2 0.246232 0.000000 0.000000
Si Si3 0.000000 0.358233 0.826003
Si Si4 0.359861 0.148094 0.035499
Si Si5 0.139185 0.631036 0.669701
O O1 0.500000 0.254501 0.113443
O O2 0.431758 0.419155 0.105276
O O3 0.500000 0.360428 0.857558
O O4 0.295118 0.919534 0.911205
O O5 0.200814 0.055675 0.870343
O O6 0.928646 0.404799 0.891766
O O7 0.347483 0.261566 0.089535
O O8 0.366129 0.148436 0.851130
#
# Coordination Sequence:
#
# PCOD8263519 Si02
#       5
#     8   8   8  16  16
#     4  10  20  39  68  97 129 169 217 272 328 389
#     4  12  28  42  62  96 136 178 216 264 328 394
#     4  10  20  39  68  97 129 169 217 272 328 389
#     4  11  24  44  70  98 132 173 220 274 329 390
#     4  11  24  44  70  98 132 173 220 274 329 390
#
# _framework density 25.209900000000001
#
# number of rings (size 3 to 8) (size 9 to 14) (size 15 to 20)
#    0.000    1.143    0.000    9.429    0.000   10.286 
#    0.000    0.000    0.000    0.000    0.000    0.000 
#    0.000    0.000    0.000    0.000    0.000    0.000 
#
# Total GULP energy -347187.261881 kJ/mol
# GULP energy per Si atom -12399.545067 kJ/mol
# Density = 2.515252 g / cm^3
# Si number density = 25.209900 Si / 1000 Ang^3
#
#
#
# Elastic Constant Matrix: (Units=GPa)
#
#
# Indices 1 2 3 4 5 6 
#
# 1 238.5262 66.9097 86.6550 0.0000 0.0000 0.0000
# 2 66.9097 93.6768 55.3489 0.0000 0.0000 0.0000
# 3 86.6550 55.3489 222.5764 0.0000 0.0000 0.0000
# 4 0.0000 0.0000 0.0000 16.4902 0.0000 0.0000
# 5 0.0000 0.0000 0.0000 0.0000 -2.7425 0.0000
# 6 0.0000 0.0000 0.0000 0.0000 0.0000 118.4870
#
#
#
# Elastic Compliance Matrix: (Units=1/GPa)
#
#
# Indices 1 2 3 4 5 6 
#
# 1 0.005585 -0.003170 -0.001386 0.000000 0.000000 0.000000
# 2 -0.003170 0.014313 -0.002325 0.000000 0.000000 0.000000
# 3 -0.001386 -0.002325 0.005611 0.000000 0.000000 0.000000
# 4 0.000000 0.000000 0.000000 0.060642 0.000000 0.000000
# 5 0.000000 0.000000 0.000000 0.000000 -0.364629 0.000000
# 6 0.000000 0.000000 0.000000 0.000000 0.000000 0.008440
#
#
# Mechanical properties :
#
#
# Convention : Reuss Voigt Hill
#
# Bulk Modulus (GPa) = 85.13413 108.06740 96.60077
# Shear Modulus (GPa) = -19.81296 49.50466 14.84585
#
# Velocity S-wave (km/s) = -2.80647 4.43617 2.42934
# Velocity P-wave (km/s) = 4.83133 8.31863 6.80226
#
# Compressibility (1/GPa) = 0.01174617
#
# Stress axis : x y z
#
# Youngs Moduli (GPa) = 179.04088 69.86548 178.23211
#
# Poissons Ratio (x) = 0.22150 0.24705
# Poissons Ratio (y) = 0.56763 0.41439
# Poissons Ratio (z) = 0.24817 0.16244
#
# Static dielectric constant tensor:
#      x y z
#    x 6.093540 0.000000 0.000000 
#    y 0.000000 5.066420 0.000000 
#    z 0.000000 0.000000 4.011330 
# 
# 
# High freq. dielectric constant tensor:
#      x y z
#    x 2.033900 0.000000 0.000000 
#    y 0.000000 2.002960 0.000000 
#    z 0.000000 0.000000 2.013950 
# 
# From -- ./inp_files/7660.got.cif
#   From: 2010.03.12/outbox.cif.g09.slc.cpg/sg64_4_cif.got.tgz:7660.got - 2010.04.10 20:19:32.
