data_PCOD8263484
_publ_section_title
;
Structure prediction by ZEFSAII (Michael W. Deem and Ramdas Pophale) SiO2 
 PCOD8263484
Probable space group: C M C A
;
_chemical_formula_sum "Si O2"
_cell_formula_units_Z 96
_cell_length_a 32.445391
_cell_length_b 12.465126
_cell_length_c 11.464185
_cell_angle_alpha 90.000000
_cell_angle_beta 90.000000
_cell_angle_gamma 90.000000
_cell_volume 4636.527828
_symmetry_space_group_name_H-M "C M C A"
_symmetry_group_IT_number 64
_symmetry_cell_setting 'orthorhombic'
loop_
_space_group_symop_operation_xyz
x,y,z
-x,1/2-y,1/2+z
x,-y,-z
-x,1/2+y,1/2-z
-x,-y,-z
x,1/2+y,1/2-z
-x,y,z
x,1/2-y,1/2+z
1/2+x,1/2+y,z
1/2-x,-y,1/2+z
1/2+x,1/2-y,-z
1/2-x,y,1/2-z
1/2-x,1/2-y,-z
1/2+x,y,1/2-z
1/2-x,1/2+y,z
1/2+x,-y,1/2+z
loop_
_atom_site_type_symbol
_atom_site_label
_atom_site_fract_x
_atom_site_fract_y
_atom_site_fract_z
Si Si1 0.500000 0.104031 0.310864
Si Si2 0.716757 0.314604 0.428048
Si Si3 0.205210 0.378856 0.710542
Si Si4 0.500000 0.672787 0.576245
Si Si5 0.000000 0.629751 0.664984
Si Si6 0.230740 0.000000 0.000000
Si Si7 0.646943 0.104436 0.078033
Si Si8 0.557960 0.818673 0.880135
O O1 0.500000 0.197253 0.407833
O O2 0.540703 0.114660 0.230005
O O3 0.500000 0.991956 0.382666
O O4 0.750000 0.250000 0.500000
O O5 0.705462 0.252037 0.307517
O O6 0.737720 0.431590 0.416542
O O7 0.674713 0.317588 0.501244
O O8 0.250000 0.415597 0.750000
O O9 0.199717 0.433086 0.582944
O O10 0.171006 0.421431 0.800979
O O11 0.500000 0.609520 0.695871
O O12 0.459856 0.637377 0.502499
O O13 0.041402 0.695605 0.632139
O O14 0.606838 0.171357 0.115441
O O15 0.636104 0.000000 0.000000
#
# Coordination Sequence:
#
# PCOD8263484 Si02
#       8
#     8  16  16   8   8   8  16  16
#     4   9  19  39  66  93 120 171 212 243 342 380
#     4  10  20  39  59  88 121 168 222 267 332 383
#     4  11  22  40  65  90 128 167 229 277 322 397
#     4   8  18  38  64  88 127 163 200 264 300 408
#     4   9  19  39  65  94 126 167 205 252 325 394
#     4  10  20  42  64  92 114 172 224 272 338 390
#     4  12  24  42  61  98 132 174 222 278 337 394
#     4   9  22  37  59  98 123 160 214 257 320 390
#
# _framework density 20.70515
#
# number of rings (size 3 to 8) (size 9 to 14) (size 15 to 20)
#    0.000    2.333    4.167    0.000    2.333    6.667 
#    0.000    0.000    0.000    0.000    0.000    0.000 
#    0.000    0.000    0.000    0.000    0.000    0.000 
#
# Total GULP energy -594633.186464 kJ/mol
# GULP energy per Si atom -12388.191385 kJ/mol
# Density = 2.065802 g / cm^3
# Si number density = 20.705150 Si / 1000 Ang^3
#
#
#
# Elastic Constant Matrix: (Units=GPa)
#
#
# Indices 1 2 3 4 5 6 
#
# 1 145.1561 29.0071 30.6373 0.0000 0.0000 0.0000
# 2 29.0071 102.3221 13.1652 0.0000 0.0000 0.0000
# 3 30.6373 13.1652 90.4420 0.0000 0.0000 0.0000
# 4 0.0000 0.0000 0.0000 31.6007 0.0000 0.0000
# 5 0.0000 0.0000 0.0000 0.0000 18.4125 0.0000
# 6 0.0000 0.0000 0.0000 0.0000 0.0000 13.8171
#
#
#
# Elastic Compliance Matrix: (Units=1/GPa)
#
#
# Indices 1 2 3 4 5 6 
#
# 1 0.007765 -0.001898 -0.002354 0.000000 0.000000 0.000000
# 2 -0.001898 0.010424 -0.000874 0.000000 0.000000 0.000000
# 3 -0.002354 -0.000874 0.011982 0.000000 0.000000 0.000000
# 4 0.000000 0.000000 0.000000 0.031645 0.000000 0.000000
# 5 0.000000 0.000000 0.000000 0.000000 0.054311 0.000000
# 6 0.000000 0.000000 0.000000 0.000000 0.000000 0.072374
#
#
# Mechanical properties :
#
#
# Convention : Reuss Voigt Hill
#
# Bulk Modulus (GPa) = 50.20860 53.72658 51.96759
# Shear Modulus (GPa) = 24.34352 30.44010 27.39181
#
# Velocity S-wave (km/s) = 3.43260 3.83844 3.64118
# Velocity P-wave (km/s) = 6.32553 6.75645 6.54454
#
# Compressibility (1/GPa) = 0.01991691
#
# Stress axis : x y z
#
# Youngs Moduli (GPa) = 128.77634 95.93485 83.46169
#
# Poissons Ratio (x) = 0.18213 0.19648
# Poissons Ratio (y) = 0.24448 0.07296
# Poissons Ratio (z) = 0.30316 0.08387
#
# Static dielectric constant tensor:
#      x y z
#    x 3.428300 0.000000 0.000000 
#    y 0.000000 4.000180 0.000000 
#    z 0.000000 0.000000 3.939030 
# 
# 
# High freq. dielectric constant tensor:
#      x y z
#    x 1.777060 0.000000 0.000000 
#    y 0.000000 1.809680 0.000000 
#    z 0.000000 0.000000 1.817360 
# 
# From -- ./inp_files/19816.got.cif
#   From: 2010.03.12/outbox.cif.g09.slc.cpg/sg64_10_cif.got.tgz:19816.got - 2010.04.10 20:19:32.
