data_PCOD8263836
_publ_section_title
;
Structure prediction by ZEFSAII (Michael W. Deem and Ramdas Pophale) SiO2 
 PCOD8263836
Probable space group: C M C A
;
_chemical_formula_sum "Si O2"
_cell_formula_units_Z 96
_cell_length_a 16.183726
_cell_length_b 11.246124
_cell_length_c 25.394833
_cell_angle_alpha 90.000000
_cell_angle_beta 90.000000
_cell_angle_gamma 90.000000
_cell_volume 4621.965995
_symmetry_space_group_name_H-M "C M C A"
_symmetry_group_IT_number 64
_symmetry_cell_setting 'orthorhombic'
loop_
_space_group_symop_operation_xyz
x,y,z
-x,1/2-y,1/2+z
x,-y,-z
-x,1/2+y,1/2-z
-x,-y,-z
x,1/2+y,1/2-z
-x,y,z
x,1/2-y,1/2+z
1/2+x,1/2+y,z
1/2-x,-y,1/2+z
1/2+x,1/2-y,-z
1/2-x,y,1/2-z
1/2-x,1/2-y,-z
1/2+x,y,1/2-z
1/2-x,1/2+y,z
1/2+x,-y,1/2+z
loop_
_atom_site_type_symbol
_atom_site_label
_atom_site_fract_x
_atom_site_fract_y
_atom_site_fract_z
Si Si1 0.404482 0.029934 0.791284
Si Si2 0.090770 0.439402 0.587496
Si Si3 0.592053 0.887876 0.320321
Si Si4 0.767427 0.006063 0.559047
Si Si5 0.689915 0.833794 0.850932
Si Si6 0.845244 0.290852 0.125725
O O1 0.500000 0.987758 0.785604
O O2 0.345287 0.919760 0.805694
O O3 0.368822 0.083690 0.736851
O O4 0.400784 0.129427 0.836366
O O5 0.096070 0.491875 0.646344
O O6 0.167601 0.492323 0.554830
O O7 0.096195 0.296236 0.592143
O O8 0.000000 0.470724 0.562562
O O9 0.500000 0.842100 0.310673
O O10 0.636313 0.785116 0.353190
O O11 0.809866 0.900086 0.592498
O O12 0.803413 0.000000 0.500000
O O13 0.790699 0.131321 0.585249
O O14 0.783557 0.791662 0.839233
#
# Coordination Sequence:
#
# PCOD8263836 Si02
#       6
#    16  16  16  16  16  16
#     4  10  22  38  60  85 120 165 201 235 291 360
#     4  10  21  38  59  86 123 155 197 249 300 362
#     4  10  21  38  59  87 124 164 197 239 299 359
#     4  10  22  42  67  86 117 159 205 253 314 359
#     4  10  21  39  59  91 121 155 201 253 293 356
#     4  10  21  40  59  91 119 158 199 253 299 352
#
# _framework density 20.770381
#
# number of rings (size 3 to 8) (size 9 to 14) (size 15 to 20)
#    0.000    2.000    1.667    1.000    2.333    3.667 
#    3.000    0.000    0.000   17.000    0.000    0.000 
#    0.000    0.000    0.000    0.000    0.000    0.000 
#
# Total GULP energy -594961.090343 kJ/mol
# GULP energy per Si atom -12395.022715 kJ/mol
# Density = 2.072311 g / cm^3
# Si number density = 20.770381 Si / 1000 Ang^3
#
#
#
# Elastic Constant Matrix: (Units=GPa)
#
#
# Indices 1 2 3 4 5 6 
#
# 1 86.0124 40.4431 35.7606 0.0000 0.0000 0.0000
# 2 40.4431 105.1890 33.6399 0.0000 0.0000 0.0000
# 3 35.7606 33.6399 93.6221 0.0000 0.0000 0.0000
# 4 0.0000 0.0000 0.0000 18.2146 0.0000 0.0000
# 5 0.0000 0.0000 0.0000 0.0000 19.3735 0.0000
# 6 0.0000 0.0000 0.0000 0.0000 0.0000 27.5819
#
#
#
# Elastic Compliance Matrix: (Units=1/GPa)
#
#
# Indices 1 2 3 4 5 6 
#
# 1 0.015582 -0.004618 -0.004293 0.000000 0.000000 0.000000
# 2 -0.004618 0.012110 -0.002587 0.000000 0.000000 0.000000
# 3 -0.004293 -0.002587 0.013250 0.000000 0.000000 0.000000
# 4 0.000000 0.000000 0.000000 0.054901 0.000000 0.000000
# 5 0.000000 0.000000 0.000000 0.000000 0.051617 0.000000
# 6 0.000000 0.000000 0.000000 0.000000 0.000000 0.036256
#
#
# Mechanical properties :
#
#
# Convention : Reuss Voigt Hill
#
# Bulk Modulus (GPa) = 55.72108 56.05674 55.88891
# Shear Modulus (GPa) = 23.50787 24.69931 24.10359
#
# Velocity S-wave (km/s) = 3.36787 3.45216 3.41028
# Velocity P-wave (km/s) = 6.48142 6.55265 6.51713
#
# Compressibility (1/GPa) = 0.01794653
#
# Stress axis : x y z
#
# Youngs Moduli (GPa) = 64.17474 82.57806 75.46911
#
# Poissons Ratio (x) = 0.38138 0.32395
# Poissons Ratio (y) = 0.29638 0.19525
# Poissons Ratio (z) = 0.27547 0.21364
#
# Static dielectric constant tensor:
#      x y z
#    x 3.925470 0.000000 0.000000 
#    y 0.000000 3.864510 0.000000 
#    z 0.000000 0.000000 3.446560 
# 
# 
# High freq. dielectric constant tensor:
#      x y z
#    x 1.813430 0.000000 0.000000 
#    y 0.000000 1.822770 0.000000 
#    z 0.000000 0.000000 1.785940 
# 
# From -- ./inp_files/45760.got.cif
#   From: 2010.03.12/outbox.cif.g09.slc.cpg/sg64_23_cif.got.tgz:45760.got - 2010.04.10 20:19:32.
