data_PCOD8263538
_publ_section_title
;
Structure prediction by ZEFSAII (Michael W. Deem and Ramdas Pophale) SiO2 
 PCOD8263538
Probable space group: C M C A
;
_chemical_formula_sum "Si O2"
_cell_formula_units_Z 112
_cell_length_a 17.887363
_cell_length_b 11.481750
_cell_length_c 27.696572
_cell_angle_alpha 90.000000
_cell_angle_beta 90.000000
_cell_angle_gamma 90.000000
_cell_volume 5688.272938
_symmetry_space_group_name_H-M "C M C A"
_symmetry_group_IT_number 64
_symmetry_cell_setting 'orthorhombic'
loop_
_space_group_symop_operation_xyz
x,y,z
-x,1/2-y,1/2+z
x,-y,-z
-x,1/2+y,1/2-z
-x,-y,-z
x,1/2+y,1/2-z
-x,y,z
x,1/2-y,1/2+z
1/2+x,1/2+y,z
1/2-x,-y,1/2+z
1/2+x,1/2-y,-z
1/2-x,y,1/2-z
1/2-x,1/2-y,-z
1/2+x,y,1/2-z
1/2-x,1/2+y,z
1/2+x,-y,1/2+z
loop_
_atom_site_type_symbol
_atom_site_label
_atom_site_fract_x
_atom_site_fract_y
_atom_site_fract_z
Si Si1 0.135373 0.577336 0.666448
Si Si2 0.324106 0.713996 0.581784
Si Si3 0.083539 0.166405 0.163338
Si Si4 0.664731 0.820676 0.235853
Si Si5 0.301974 0.486836 0.346841
Si Si6 0.413772 0.365366 0.506326
Si Si7 0.161371 0.711789 0.100842
O O1 0.075961 0.473850 0.661749
O O2 0.120045 0.645745 0.716153
O O3 0.215082 0.512530 0.666426
O O4 0.129615 0.668718 0.622800
O O5 0.375246 0.794094 0.615074
O O6 0.317147 0.585591 0.604386
O O7 0.361705 0.708807 0.529406
O O8 0.242616 0.771748 0.576730
O O9 0.128287 0.207348 0.211148
O O10 0.000000 0.218918 0.164314
O O11 0.750000 0.790322 0.250000
O O12 0.656063 0.927912 0.198310
O O13 0.331664 0.617283 0.355846
O O14 0.394801 0.500000 0.500000
O O15 0.500000 0.339312 0.494335
O O16 0.397339 0.328748 0.561022
#
# Coordination Sequence:
#
# PCOD8263538 Si02
#       7
#    16  16  16  16  16  16  16
#     4  10  22  36  59  87 123 161 196 248 301 353
#     4  10  20  40  63  87 119 159 202 251 301 362
#     4  11  23  39  60  88 125 159 198 246 303 367
#     4   9  21  37  63  88 116 160 205 251 292 358
#     4   9  18  36  60  92 116 149 208 252 294 347
#     4  11  23  39  61  89 121 158 201 257 315 364
#     4  11  21  38  64  92 121 158 206 259 299 360
#
# _framework density 19.689632
#
# number of rings (size 3 to 8) (size 9 to 14) (size 15 to 20)
#    0.000    1.857    2.857    1.714    2.000    1.714 
#    0.000    0.714    0.000    1.714    0.000    0.000 
#    0.000    0.000    0.000    0.000    0.000    0.000 
#
# Total GULP energy -694516.500204 kJ/mol
# GULP energy per Si atom -12402.080361 kJ/mol
# Density = 1.964482 g / cm^3
# Si number density = 19.689632 Si / 1000 Ang^3
#
#
#
# Elastic Constant Matrix: (Units=GPa)
#
#
# Indices 1 2 3 4 5 6 
#
# 1 62.0949 30.8319 29.5292 0.0000 0.0000 0.0000
# 2 30.8319 104.2294 34.8740 0.0000 0.0000 0.0000
# 3 29.5292 34.8740 104.5238 0.0000 0.0000 0.0000
# 4 0.0000 0.0000 0.0000 26.0477 0.0000 0.0000
# 5 0.0000 0.0000 0.0000 0.0000 12.9249 0.0000
# 6 0.0000 0.0000 0.0000 0.0000 0.0000 17.2945
#
#
#
# Elastic Compliance Matrix: (Units=1/GPa)
#
#
# Indices 1 2 3 4 5 6 
#
# 1 0.020409 -0.004624 -0.004223 0.000000 0.000000 0.000000
# 2 -0.004624 0.011848 -0.002647 0.000000 0.000000 0.000000
# 3 -0.004223 -0.002647 0.011643 0.000000 0.000000 0.000000
# 4 0.000000 0.000000 0.000000 0.038391 0.000000 0.000000
# 5 0.000000 0.000000 0.000000 0.000000 0.077370 0.000000
# 6 0.000000 0.000000 0.000000 0.000000 0.000000 0.057822
#
#
# Mechanical properties :
#
#
# Convention : Reuss Voigt Hill
#
# Bulk Modulus (GPa) = 47.81856 51.25758 49.53807
# Shear Modulus (GPa) = 20.20692 22.96095 21.58394
#
# Velocity S-wave (km/s) = 3.20702 3.41859 3.31450
# Velocity P-wave (km/s) = 6.16865 6.45536 6.31363
#
# Compressibility (1/GPa) = 0.02091238
#
# Stress axis : x y z
#
# Youngs Moduli (GPa) = 48.99911 84.40556 85.88704
#
# Poissons Ratio (x) = 0.39030 0.36269
# Poissons Ratio (y) = 0.22658 0.22730
# Poissons Ratio (z) = 0.20691 0.22338
#
# Static dielectric constant tensor:
#      x y z
#    x 3.373050 0.000000 0.000000 
#    y 0.000000 3.518840 0.000000 
#    z 0.000000 0.000000 3.544500 
# 
# 
# High freq. dielectric constant tensor:
#      x y z
#    x 1.749770 0.000000 0.000000 
#    y 0.000000 1.766550 0.000000 
#    z 0.000000 0.000000 1.767530 
# 
# From -- ./inp_files/50861.got.cif
#   From: 2010.03.12/outbox.cif.g09.slc.cpg/sg64_26_cif.got.tgz:50861.got - 2010.04.10 20:19:32.
