data_PCOD8263819
_publ_section_title
;
Structure prediction by ZEFSAII (Michael W. Deem and Ramdas Pophale) SiO2 
 PCOD8263819
Probable space group: C M C A
;
_chemical_formula_sum "Si O2"
_cell_formula_units_Z 56
_cell_length_a 29.949451
_cell_length_b 16.406522
_cell_length_c 5.165464
_cell_angle_alpha 90.000000
_cell_angle_beta 90.000000
_cell_angle_gamma 90.000000
_cell_volume 2538.135071
_symmetry_space_group_name_H-M "C M C A"
_symmetry_group_IT_number 64
_symmetry_cell_setting 'orthorhombic'
loop_
_space_group_symop_operation_xyz
x,y,z
-x,1/2-y,1/2+z
x,-y,-z
-x,1/2+y,1/2-z
-x,-y,-z
x,1/2+y,1/2-z
-x,y,z
x,1/2-y,1/2+z
1/2+x,1/2+y,z
1/2-x,-y,1/2+z
1/2+x,1/2-y,-z
1/2-x,y,1/2-z
1/2-x,1/2-y,-z
1/2+x,y,1/2-z
1/2-x,1/2+y,z
1/2+x,-y,1/2+z
loop_
_atom_site_type_symbol
_atom_site_label
_atom_site_fract_x
_atom_site_fract_y
_atom_site_fract_z
Si Si1 0.299286 0.781369 0.076080
Si Si2 0.500000 0.306163 0.241644
Si Si3 0.569327 0.447546 0.243515
Si Si4 0.672384 0.949192 0.254849
O O1 0.323537 0.722423 0.294011
O O2 0.298100 0.869000 0.212047
O O3 0.250000 0.750000 0.000000
O O4 0.500000 0.240871 0.470779
O O5 0.543701 0.362428 0.261667
O O6 0.560716 0.500000 0.500000
O O7 0.620994 0.424618 0.203871
O O8 0.551797 0.500000 0.000000
O O9 0.690844 0.000000 0.500000
O O10 0.678880 0.000000 0.000000
#
# Coordination Sequence:
#
# PCOD8263819 Si02
#       4
#    16   8  16  16
#     4  10  21  38  58  84 117 152 185 233 303 357
#     4  12  24  36  56  90 122 154 200 252 302 356
#     4  10  21  39  60  82 116 161 201 244 299 354
#     4  10  21  38  62  88 114 154 206 248 287 353
#
# _framework density 22.063444
#
# number of rings (size 3 to 8) (size 9 to 14) (size 15 to 20)
#    0.000    1.714    0.000    4.286    0.000    2.286 
#    0.000   11.429    0.000    0.000    0.000    0.000 
#    0.000    0.000    0.000    0.000    0.000    0.000 
#
# Total GULP energy -346965.287002 kJ/mol
# GULP energy per Si atom -12391.617393 kJ/mol
# Density = 2.201323 g / cm^3
# Si number density = 22.063444 Si / 1000 Ang^3
#
#
#
# Elastic Constant Matrix: (Units=GPa)
#
#
# Indices 1 2 3 4 5 6 
#
# 1 62.7137 53.4070 29.4511 0.0000 0.0000 0.0000
# 2 53.4070 145.0522 60.5272 0.0000 0.0000 0.0000
# 3 29.4511 60.5272 203.8921 0.0000 0.0000 0.0000
# 4 0.0000 0.0000 0.0000 42.8546 0.0000 0.0000
# 5 0.0000 0.0000 0.0000 0.0000 14.0135 0.0000
# 6 0.0000 0.0000 0.0000 0.0000 0.0000 40.1802
#
#
#
# Elastic Compliance Matrix: (Units=1/GPa)
#
#
# Indices 1 2 3 4 5 6 
#
# 1 0.023385 -0.008219 -0.000938 0.000000 0.000000 0.000000
# 2 -0.008219 0.010757 -0.002006 0.000000 0.000000 0.000000
# 3 -0.000938 -0.002006 0.005636 0.000000 0.000000 0.000000
# 4 0.000000 0.000000 0.000000 0.023335 0.000000 0.000000
# 5 0.000000 0.000000 0.000000 0.000000 0.071360 0.000000
# 6 0.000000 0.000000 0.000000 0.000000 0.000000 0.024888
#
#
# Mechanical properties :
#
#
# Convention : Reuss Voigt Hill
#
# Bulk Modulus (GPa) = 57.30027 77.60318 67.45172
# Shear Modulus (GPa) = 26.66608 37.29450 31.98029
#
# Velocity S-wave (km/s) = 3.48028 4.11582 3.81132
# Velocity P-wave (km/s) = 6.49437 7.60498 7.07151
#
# Compressibility (1/GPa) = 0.01745193
#
# Stress axis : x y z
#
# Youngs Moduli (GPa) = 42.76222 92.95989 177.44269
#
# Poissons Ratio (x) = 0.76402 0.16645
# Poissons Ratio (y) = 0.35145 0.35599
# Poissons Ratio (z) = 0.04011 0.18650
#
# Static dielectric constant tensor:
#      x y z
#    x 2.882540 0.000000 0.000000 
#    y 0.000000 3.858210 0.000000 
#    z 0.000000 0.000000 19.917080 
# 
# 
# High freq. dielectric constant tensor:
#      x y z
#    x 1.842780 0.000000 0.000000 
#    y 0.000000 1.869200 0.000000 
#    z 0.000000 0.000000 1.910980 
# 
# From -- ./inp_files/3084.got.cif
#   From: 2010.03.12/outbox.cif.g09.slc.cpg/sg64_2_cif.got.tgz:3084.got - 2010.04.10 20:19:32.
