data_PCOD8263755
_publ_section_title
;
Structure prediction by ZEFSAII (Michael W. Deem and Ramdas Pophale) SiO2 
 PCOD8263755
Probable space group: C M C A
;
_chemical_formula_sum "Si O2"
_cell_formula_units_Z 80
_cell_length_a 9.038687
_cell_length_b 24.749628
_cell_length_c 18.254198
_cell_angle_alpha 90.000000
_cell_angle_beta 90.000000
_cell_angle_gamma 90.000000
_cell_volume 4083.539681
_symmetry_space_group_name_H-M "C M C A"
_symmetry_group_IT_number 64
_symmetry_cell_setting 'orthorhombic'
loop_
_space_group_symop_operation_xyz
x,y,z
-x,1/2-y,1/2+z
x,-y,-z
-x,1/2+y,1/2-z
-x,-y,-z
x,1/2+y,1/2-z
-x,y,z
x,1/2-y,1/2+z
1/2+x,1/2+y,z
1/2-x,-y,1/2+z
1/2+x,1/2-y,-z
1/2-x,y,1/2-z
1/2-x,1/2-y,-z
1/2+x,y,1/2-z
1/2-x,1/2+y,z
1/2+x,-y,1/2+z
loop_
_atom_site_type_symbol
_atom_site_label
_atom_site_fract_x
_atom_site_fract_y
_atom_site_fract_z
Si Si1 0.328459 0.582625 0.070881
Si Si2 0.172547 0.981769 0.174927
Si Si3 0.324826 0.397417 0.422104
Si Si4 0.827531 0.320290 0.673426
Si Si5 0.672427 0.274207 0.429917
O O1 0.500000 0.588680 0.048449
O O2 0.300704 0.529057 0.117063
O O3 0.272614 0.634292 0.116590
O O4 0.231466 0.577676 0.998156
O O5 0.250000 0.999344 0.250000
O O6 0.247514 0.927303 0.145436
O O7 0.000000 0.971396 0.188921
O O8 0.500000 0.404774 0.416666
O O9 0.275395 0.335083 0.415378
O O10 0.750000 0.329124 0.750000
O O11 0.787160 0.261504 0.641208
O O12 0.000000 0.327550 0.687430
O O13 0.500000 0.271503 0.446728
O O14 0.750000 0.250000 0.500000
#
# Coordination Sequence:
#
# PCOD8263755 Si02
#       5
#    16  16  16  16  16
#     4  10  21  39  62  87 117 155 198 245 299 354
#     4  11  24  41  61  86 119 159 200 245 299 355
#     4  11  23  38  61  91 120 155 201 246 294 355
#     4  10  21  37  58  86 119 151 192 243 295 350
#     4  10  21  38  60  86 117 154 197 242 291 349
#
# _framework density 19.590847
#
# number of rings (size 3 to 8) (size 9 to 14) (size 15 to 20)
#    0.000    1.600    2.000    2.400    0.000    7.200 
#    0.000    2.000    0.000    0.000    0.000    0.000 
#    0.000    0.000    0.000    0.000    0.000    0.000 
#
# Total GULP energy -496223.016503 kJ/mol
# GULP energy per Si atom -12405.575413 kJ/mol
# Density = 1.954626 g / cm^3
# Si number density = 19.590847 Si / 1000 Ang^3
#
#
#
# Elastic Constant Matrix: (Units=GPa)
#
#
# Indices 1 2 3 4 5 6 
#
# 1 67.3367 35.4672 27.6768 0.0000 0.0000 0.0000
# 2 35.4672 107.2323 11.6279 0.0000 0.0000 0.0000
# 3 27.6768 11.6279 63.0979 0.0000 0.0000 0.0000
# 4 0.0000 0.0000 0.0000 18.1627 0.0000 0.0000
# 5 0.0000 0.0000 0.0000 0.0000 41.1680 0.0000
# 6 0.0000 0.0000 0.0000 0.0000 0.0000 28.6983
#
#
#
# Elastic Compliance Matrix: (Units=1/GPa)
#
#
# Indices 1 2 3 4 5 6 
#
# 1 0.021542 -0.006225 -0.008302 0.000000 0.000000 0.000000
# 2 -0.006225 0.011314 0.000645 0.000000 0.000000 0.000000
# 3 -0.008302 0.000645 0.019371 0.000000 0.000000 0.000000
# 4 0.000000 0.000000 0.000000 0.055058 0.000000 0.000000
# 5 0.000000 0.000000 0.000000 0.000000 0.024291 0.000000
# 6 0.000000 0.000000 0.000000 0.000000 0.000000 0.034845
#
#
# Mechanical properties :
#
#
# Convention : Reuss Voigt Hill
#
# Bulk Modulus (GPa) = 40.87539 43.02342 41.94940
# Shear Modulus (GPa) = 24.71116 28.46547 26.58832
#
# Velocity S-wave (km/s) = 3.55542 3.81596 3.68799
# Velocity P-wave (km/s) = 6.14528 6.43615 6.29240
#
# Compressibility (1/GPa) = 0.02446460
#
# Stress axis : x y z
#
# Youngs Moduli (GPa) = 46.42191 88.38303 51.62393
#
# Poissons Ratio (x) = 0.55016 0.42857
# Poissons Ratio (y) = 0.28896 -0.03331
# Poissons Ratio (z) = 0.38538 -0.05703
#
# Static dielectric constant tensor:
#      x y z
#    x 3.549780 0.000000 0.000000 
#    y 0.000000 3.866600 0.000000 
#    z 0.000000 0.000000 3.426990 
# 
# 
# High freq. dielectric constant tensor:
#      x y z
#    x 1.761930 0.000000 0.000000 
#    y 0.000000 1.779340 0.000000 
#    z 0.000000 0.000000 1.765330 
# 
# From -- ./inp_files/29727.got.cif
#   From: 2010.03.12/outbox.cif.g09.slc.cpg/sg64_15_cif.got.tgz:29727.got - 2010.04.10 20:19:32.
