data_PCOD8263794
_publ_section_title
;
Structure prediction by ZEFSAII (Michael W. Deem and Ramdas Pophale) SiO2 
 PCOD8263794
Probable space group: C M C A
;
_chemical_formula_sum "Si O2"
_cell_formula_units_Z 112
_cell_length_a 14.667473
_cell_length_b 14.942614
_cell_length_c 23.628593
_cell_angle_alpha 90.000000
_cell_angle_beta 90.000000
_cell_angle_gamma 90.000000
_cell_volume 5178.687881
_symmetry_space_group_name_H-M "C M C A"
_symmetry_group_IT_number 64
_symmetry_cell_setting 'orthorhombic'
loop_
_space_group_symop_operation_xyz
x,y,z
-x,1/2-y,1/2+z
x,-y,-z
-x,1/2+y,1/2-z
-x,-y,-z
x,1/2+y,1/2-z
-x,y,z
x,1/2-y,1/2+z
1/2+x,1/2+y,z
1/2-x,-y,1/2+z
1/2+x,1/2-y,-z
1/2-x,y,1/2-z
1/2-x,1/2-y,-z
1/2+x,y,1/2-z
1/2-x,1/2+y,z
1/2+x,-y,1/2+z
loop_
_atom_site_type_symbol
_atom_site_label
_atom_site_fract_x
_atom_site_fract_y
_atom_site_fract_z
Si Si1 0.275555 0.282401 0.562455
Si Si2 0.892390 0.458090 0.263679
Si Si3 0.891761 0.048539 0.444757
Si Si4 0.399418 0.217452 0.376668
Si Si5 0.104312 0.701392 0.655808
Si Si6 0.647012 0.666532 0.246034
Si Si7 0.894100 0.086387 0.644471
O O1 0.250000 0.250000 0.500000
O O2 0.355456 0.352571 0.556851
O O3 0.184721 0.328840 0.590444
O O4 0.322068 0.209853 0.604765
O O5 0.863074 0.391867 0.314583
O O6 0.856758 0.559613 0.262707
O O7 0.850781 0.412356 0.207064
O O8 0.000000 0.463285 0.264071
O O9 0.000000 0.052853 0.444624
O O10 0.854098 0.000000 0.500000
O O11 0.851176 0.994141 0.391599
O O12 0.500000 0.187416 0.399475
O O13 0.400497 0.206703 0.309334
O O14 0.381250 0.321888 0.389775
O O15 0.102124 0.788525 0.698110
O O16 0.000000 0.692068 0.633234
O O17 0.750000 0.697923 0.250000
O O18 0.000000 0.065931 0.652293
#
# Coordination Sequence:
#
# PCOD8263794 Si02
#       7
#    16  16  16  16  16  16  16
#     4  12  26  43  64  98 132 173 230 279 337 405
#     4  10  21  37  63  96 132 174 214 264 335 411
#     4  10  21  41  69 100 130 167 226 288 337 387
#     4  11  23  42  65  91 132 175 216 273 343 408
#     4  11  23  44  70  98 138 178 222 282 345 413
#     4  12  23  39  64 101 138 177 221 273 338 411
#     4   9  18  35  63  94 124 166 216 270 330 388
#
# _framework density 21.627098
#
# number of rings (size 3 to 8) (size 9 to 14) (size 15 to 20)
#    0.000    1.286    2.857    3.429    0.000    5.143 
#    2.571    0.000    0.000    0.429    0.000    0.000 
#    0.000    0.000    0.000    0.000    0.000    0.000 
#
# Total GULP energy -693844.140984 kJ/mol
# GULP energy per Si atom -12390.073946 kJ/mol
# Density = 2.157787 g / cm^3
# Si number density = 21.627098 Si / 1000 Ang^3
#
#
#
# Elastic Constant Matrix: (Units=GPa)
#
#
# Indices 1 2 3 4 5 6 
#
# 1 87.1847 4.0897 36.5833 0.0000 0.0000 0.0000
# 2 4.0897 85.4595 18.7789 0.0000 0.0000 0.0000
# 3 36.5833 18.7789 120.6463 0.0000 0.0000 0.0000
# 4 0.0000 0.0000 0.0000 34.6473 0.0000 0.0000
# 5 0.0000 0.0000 0.0000 0.0000 27.8329 0.0000
# 6 0.0000 0.0000 0.0000 0.0000 0.0000 17.6011
#
#
#
# Elastic Compliance Matrix: (Units=1/GPa)
#
#
# Indices 1 2 3 4 5 6 
#
# 1 0.013147 0.000256 -0.004026 0.000000 0.000000 0.000000
# 2 0.000256 0.012121 -0.001964 0.000000 0.000000 0.000000
# 3 -0.004026 -0.001964 0.009815 0.000000 0.000000 0.000000
# 4 0.000000 0.000000 0.000000 0.028862 0.000000 0.000000
# 5 0.000000 0.000000 0.000000 0.000000 0.035929 0.000000
# 6 0.000000 0.000000 0.000000 0.000000 0.000000 0.056815
#
#
# Mechanical properties :
#
#
# Convention : Reuss Voigt Hill
#
# Bulk Modulus (GPa) = 42.34844 45.79936 44.07390
# Shear Modulus (GPa) = 28.40419 31.60550 30.00484
#
# Velocity S-wave (km/s) = 3.62796 3.82695 3.72879
# Velocity P-wave (km/s) = 6.09698 6.38359 6.24193
#
# Compressibility (1/GPa) = 0.02361362
#
# Stress axis : x y z
#
# Youngs Moduli (GPa) = 76.06036 82.50271 101.88118
#
# Poissons Ratio (x) = -0.02109 0.41022
# Poissons Ratio (y) = -0.01944 0.20011
# Poissons Ratio (z) = 0.30625 0.16205
#
# Static dielectric constant tensor:
#      x y z
#    x 3.936560 0.000000 0.000000 
#    y 0.000000 3.913060 0.000000 
#    z 0.000000 0.000000 4.785380 
# 
# 
# High freq. dielectric constant tensor:
#      x y z
#    x 1.853580 0.000000 0.000000 
#    y 0.000000 1.840310 0.000000 
#    z 0.000000 0.000000 1.840480 
# 
# From -- ./inp_files/45270.got.cif
#   From: 2010.03.12/outbox.cif.g09.slc.cpg/sg64_23_cif.got.tgz:45270.got - 2010.04.10 20:19:32.
