data_PCOD8263105
_publ_section_title
;
Structure prediction by ZEFSAII (Michael W. Deem and Ramdas Pophale) SiO2 
 PCOD8263105
Probable space group: C M C A
;
_chemical_formula_sum "Si O2"
_cell_formula_units_Z 112
_cell_length_a 22.993234
_cell_length_b 10.922371
_cell_length_c 23.215706
_cell_angle_alpha 90.000000
_cell_angle_beta 90.000000
_cell_angle_gamma 90.000000
_cell_volume 5830.407083
_symmetry_space_group_name_H-M "C M C A"
_symmetry_group_IT_number 64
_symmetry_cell_setting 'orthorhombic'
loop_
_space_group_symop_operation_xyz
x,y,z
-x,1/2-y,1/2+z
x,-y,-z
-x,1/2+y,1/2-z
-x,-y,-z
x,1/2+y,1/2-z
-x,y,z
x,1/2-y,1/2+z
1/2+x,1/2+y,z
1/2-x,-y,1/2+z
1/2+x,1/2-y,-z
1/2-x,y,1/2-z
1/2-x,1/2-y,-z
1/2+x,y,1/2-z
1/2-x,1/2+y,z
1/2+x,-y,1/2+z
loop_
_atom_site_type_symbol
_atom_site_label
_atom_site_fract_x
_atom_site_fract_y
_atom_site_fract_z
Si Si1 0.179334 0.239356 0.130101
Si Si2 0.000000 0.488493 0.219569
Si Si3 0.374553 0.438580 0.289218
Si Si4 0.500000 0.253369 0.201838
Si Si5 0.202234 0.635445 0.159026
Si Si6 0.276353 0.037711 0.938027
Si Si7 0.141548 0.986540 0.934760
Si Si8 0.613305 0.658148 0.837295
O O1 0.144388 0.314822 0.178211
O O2 0.228694 0.162561 0.165558
O O3 0.207291 0.325832 0.081328
O O4 0.137972 0.149728 0.092798
O O5 0.061182 0.473119 0.184765
O O6 0.000000 0.384477 0.267571
O O7 0.000000 0.631082 0.242129
O O8 0.326504 0.547265 0.292597
O O9 0.381157 0.419089 0.221229
O O10 0.558157 0.250433 0.163325
O O11 0.191165 0.561313 0.100844
O O12 0.172099 0.766009 0.156145
O O13 0.207490 0.030779 0.934896
O O14 0.300233 0.000000 0.000000
O O15 0.104298 0.071372 0.892253
O O16 0.116328 0.000000 0.000000
#
# Coordination Sequence:
#
# PCOD8263105 Si02
#       8
#    16   8  16   8  16  16  16  16
#     4  10  21  38  54  90 123 156 190 243 304 363
#     4  10  20  40  64  91 114 164 208 255 295 352
#     4  10  23  38  59  87 120 156 197 248 298 364
#     4  10  22  38  65  85 117 150 211 257 302 356
#     4  10  20  36  54  84 120 148 194 230 307 355
#     4   9  19  34  56  82 113 154 195 242 281 353
#     4  10  22  36  57  83 117 158 202 241 295 361
#     4  11  22  38  58  85 111 156 192 244 301 354
#
# _framework density 19.209636
#
# number of rings (size 3 to 8) (size 9 to 14) (size 15 to 20)
#    0.000    2.000    2.857    0.000    4.000    3.429 
#    2.571    0.357    0.000    0.000    0.000    3.500 
#    0.000    0.000    0.000    0.000    0.000    0.000 
#
# Total GULP energy -693796.605802 kJ/mol
# GULP energy per Si atom -12389.225104 kJ/mol
# Density = 1.916591 g / cm^3
# Si number density = 19.209636 Si / 1000 Ang^3
#
#
#
# Elastic Constant Matrix: (Units=GPa)
#
#
# Indices 1 2 3 4 5 6 
#
# 1 69.6260 31.7287 30.5565 0.0000 0.0000 0.0000
# 2 31.7287 121.5654 44.5010 0.0000 0.0000 0.0000
# 3 30.5565 44.5010 95.0032 0.0000 0.0000 0.0000
# 4 0.0000 0.0000 0.0000 21.9644 0.0000 0.0000
# 5 0.0000 0.0000 0.0000 0.0000 9.3434 0.0000
# 6 0.0000 0.0000 0.0000 0.0000 0.0000 25.5489
#
#
#
# Elastic Compliance Matrix: (Units=1/GPa)
#
#
# Indices 1 2 3 4 5 6 
#
# 1 0.017610 -0.003045 -0.004238 0.000000 0.000000 0.000000
# 2 -0.003045 0.010455 -0.003918 0.000000 0.000000 0.000000
# 3 -0.004238 -0.003918 0.013724 0.000000 0.000000 0.000000
# 4 0.000000 0.000000 0.000000 0.045528 0.000000 0.000000
# 5 0.000000 0.000000 0.000000 0.000000 0.107028 0.000000
# 6 0.000000 0.000000 0.000000 0.000000 0.000000 0.039141
#
#
# Mechanical properties :
#
#
# Convention : Reuss Voigt Hill
#
# Bulk Modulus (GPa) = 51.57848 55.52967 53.55408
# Shear Modulus (GPa) = 19.05855 23.33189 21.19522
#
# Velocity S-wave (km/s) = 3.15323 3.48888 3.32530
# Velocity P-wave (km/s) = 6.33765 6.72307 6.53320
#
# Compressibility (1/GPa) = 0.01938793
#
# Stress axis : x y z
#
# Youngs Moduli (GPa) = 56.78660 95.64834 72.86413
#
# Poissons Ratio (x) = 0.29124 0.30877
# Poissons Ratio (y) = 0.17291 0.28548
# Poissons Ratio (z) = 0.24064 0.37474
#
# Static dielectric constant tensor:
#      x y z
#    x 3.782670 0.000000 0.000000 
#    y 0.000000 3.673550 0.000000 
#    z 0.000000 0.000000 3.488830 
# 
# 
# High freq. dielectric constant tensor:
#      x y z
#    x 1.731420 0.000000 0.000000 
#    y 0.000000 1.766710 0.000000 
#    z 0.000000 0.000000 1.722990 
# 
# From -- ./inp_files/46716.got.cif
#   From: 2010.03.12/outbox.cif.g09.slc.cpg/sg64_24_cif.got.tgz:46716.got - 2010.04.10 20:19:32.
