data_PCOD8263418
_publ_section_title
;
Structure prediction by ZEFSAII (Michael W. Deem and Ramdas Pophale) SiO2 
 PCOD8263418
Probable space group: C M C A
;
_chemical_formula_sum "Si O2"
_cell_formula_units_Z 72
_cell_length_a 13.840458
_cell_length_b 19.601454
_cell_length_c 13.116334
_cell_angle_alpha 90.000000
_cell_angle_beta 90.000000
_cell_angle_gamma 90.000000
_cell_volume 3558.370922
_symmetry_space_group_name_H-M "C M C A"
_symmetry_group_IT_number 64
_symmetry_cell_setting 'orthorhombic'
loop_
_space_group_symop_operation_xyz
x,y,z
-x,1/2-y,1/2+z
x,-y,-z
-x,1/2+y,1/2-z
-x,-y,-z
x,1/2+y,1/2-z
-x,y,z
x,1/2-y,1/2+z
1/2+x,1/2+y,z
1/2-x,-y,1/2+z
1/2+x,1/2-y,-z
1/2-x,y,1/2-z
1/2-x,1/2-y,-z
1/2+x,y,1/2-z
1/2-x,1/2+y,z
1/2+x,-y,1/2+z
loop_
_atom_site_type_symbol
_atom_site_label
_atom_site_fract_x
_atom_site_fract_y
_atom_site_fract_z
Si Si1 0.109756 0.349602 0.863515
Si Si2 0.389444 0.502345 0.699244
Si Si3 0.219377 0.180910 0.553248
Si Si4 0.750000 0.252008 0.250000
Si Si5 0.701554 0.953498 0.405799
O O1 0.129779 0.421761 0.809792
O O2 0.172217 0.293393 0.806970
O O3 0.000000 0.327309 0.851584
O O4 0.134900 0.352558 0.984393
O O5 0.500000 0.520386 0.669373
O O6 0.369390 0.526448 0.814366
O O7 0.315178 0.539305 0.623519
O O8 0.250000 0.250000 0.500000
O O9 0.191271 0.200111 0.669753
O O10 0.307868 0.125910 0.560630
O O11 0.671527 0.000000 0.500000
#
# Coordination Sequence:
#
# PCOD8263418 Si02
#       5
#    16  16  16   8  16
#     4  10  21  38  62  93 124 164 205 251 310 363
#     4  10  22  38  61  93 122 153 204 256 300 360
#     4  10  22  39  60  89 122 159 203 249 301 363
#     4  10  20  38  62  86 130 166 204 252 306 366
#     4  11  21  38  65  87 116 162 199 246 307 355
#
# _framework density 20.233979999999999
#
# number of rings (size 3 to 8) (size 9 to 14) (size 15 to 20)
#    0.000    1.778    2.222    2.667    3.111    2.667 
#    0.000    8.889    0.000    0.000    0.000    0.000 
#    0.000    0.000    0.000    0.000    0.000    0.000 
#
# Total GULP energy -446178.006567 kJ/mol
# GULP energy per Si atom -12393.833516 kJ/mol
# Density = 2.018793 g / cm^3
# Si number density = 20.233980 Si / 1000 Ang^3
#
#
#
# Elastic Constant Matrix: (Units=GPa)
#
#
# Indices 1 2 3 4 5 6 
#
# 1 73.2040 16.1463 17.5034 0.0000 0.0000 0.0000
# 2 16.1463 118.0399 43.9498 0.0000 0.0000 0.0000
# 3 17.5034 43.9498 119.0820 0.0000 0.0000 0.0000
# 4 0.0000 0.0000 0.0000 40.9169 0.0000 0.0000
# 5 0.0000 0.0000 0.0000 0.0000 24.3139 0.0000
# 6 0.0000 0.0000 0.0000 0.0000 0.0000 14.4003
#
#
#
# Elastic Compliance Matrix: (Units=1/GPa)
#
#
# Indices 1 2 3 4 5 6 
#
# 1 0.014345 -0.001365 -0.001605 0.000000 0.000000 0.000000
# 2 -0.001365 0.009951 -0.003472 0.000000 0.000000 0.000000
# 3 -0.001605 -0.003472 0.009915 0.000000 0.000000 0.000000
# 4 0.000000 0.000000 0.000000 0.024440 0.000000 0.000000
# 5 0.000000 0.000000 0.000000 0.000000 0.041129 0.000000
# 6 0.000000 0.000000 0.000000 0.000000 0.000000 0.069443
#
#
# Mechanical properties :
#
#
# Convention : Reuss Voigt Hill
#
# Bulk Modulus (GPa) = 46.88684 51.72498 49.30591
# Shear Modulus (GPa) = 26.42491 31.44132 28.93312
#
# Velocity S-wave (km/s) = 3.61774 3.94621 3.78554
# Velocity P-wave (km/s) = 6.37756 6.81046 6.59756
#
# Compressibility (1/GPa) = 0.02132795
#
# Stress axis : x y z
#
# Youngs Moduli (GPa) = 69.70973 100.49094 100.85813
#
# Poissons Ratio (x) = 0.13714 0.16187
# Poissons Ratio (y) = 0.09513 0.35019
# Poissons Ratio (z) = 0.11188 0.34891
#
# Static dielectric constant tensor:
#      x y z
#    x 3.395090 0.000000 0.000000 
#    y 0.000000 3.959480 0.000000 
#    z 0.000000 0.000000 4.265580 
# 
# 
# High freq. dielectric constant tensor:
#      x y z
#    x 1.750000 0.000000 0.000000 
#    y 0.000000 1.811020 0.000000 
#    z 0.000000 0.000000 1.809910 
# 
# From -- ./inp_files/23524.got.cif
#   From: 2010.03.12/outbox.cif.g09.slc.cpg/sg64_12_cif.got.tgz:23524.got - 2010.04.10 20:19:32.
