data_PCOD8263733
_publ_section_title
;
Structure prediction by ZEFSAII (Michael W. Deem and Ramdas Pophale) SiO2 
 PCOD8263733
Probable space group: C M C A
;
_chemical_formula_sum "Si O2"
_cell_formula_units_Z 112
_cell_length_a 14.312031
_cell_length_b 10.838336
_cell_length_c 30.747093
_cell_angle_alpha 90.000000
_cell_angle_beta 90.000000
_cell_angle_gamma 90.000000
_cell_volume 4769.446045
_symmetry_space_group_name_H-M "C M C A"
_symmetry_group_IT_number 64
_symmetry_cell_setting 'orthorhombic'
loop_
_space_group_symop_operation_xyz
x,y,z
-x,1/2-y,1/2+z
x,-y,-z
-x,1/2+y,1/2-z
-x,-y,-z
x,1/2+y,1/2-z
-x,y,z
x,1/2-y,1/2+z
1/2+x,1/2+y,z
1/2-x,-y,1/2+z
1/2+x,1/2-y,-z
1/2-x,y,1/2-z
1/2-x,1/2-y,-z
1/2+x,y,1/2-z
1/2-x,1/2+y,z
1/2+x,-y,1/2+z
loop_
_atom_site_type_symbol
_atom_site_label
_atom_site_fract_x
_atom_site_fract_y
_atom_site_fract_z
Si Si1 0.897847 0.788306 0.714574
Si Si2 0.657222 0.438487 0.274202
Si Si3 0.394053 0.691968 0.085248
Si Si4 0.753533 0.808022 0.350165
Si Si5 0.202659 0.552671 0.571188
Si Si6 0.895667 0.216597 0.990590
Si Si7 0.601175 0.535198 0.450423
O O1 0.888825 0.685476 0.753109
O O2 0.812439 0.772710 0.681176
O O3 0.000000 0.764650 0.693311
O O4 0.900570 0.932903 0.729778
O O5 0.750000 0.474843 0.250000
O O6 0.683509 0.406425 0.323944
O O7 0.500000 0.708051 0.101317
O O8 0.325787 0.721596 0.124482
O O9 0.373561 0.553799 0.070452
O O10 0.373745 0.768901 0.039979
O O11 0.684152 0.870429 0.384986
O O12 0.183735 0.621044 0.525178
O O13 0.311622 0.514815 0.576732
O O14 0.893118 0.317226 0.952346
O O15 0.000000 0.158015 0.992681
O O16 0.606064 0.500000 0.500000
O O17 0.500000 0.492916 0.429949
#
# Coordination Sequence:
#
# PCOD8263733 Si02
#       7
#    16  16  16  16  16  16  16
#     4  11  24  45  74 105 137 175 219 266 326 401
#     4  10  22  45  73 102 137 175 216 265 323 395
#     4  11  24  41  61  88 124 170 225 280 334 393
#     4  11  25  42  63  96 137 173 211 265 329 397
#     4  12  23  38  62  90 125 170 218 274 332 388
#     4  10  22  40  61  86 119 166 225 284 337 387
#     4  10  21  37  57  82 115 158 210 267 328 393
#
# _framework density 23.482811999999999
#
# number of rings (size 3 to 8) (size 9 to 14) (size 15 to 20)
#    0.000    1.286    0.000    6.000    0.000    8.000 
#    0.000    3.571    0.000    0.857    0.000    0.000 
#    0.000    0.000    0.000    0.000    0.000    0.000 
#
# Total GULP energy -693800.146256 kJ/mol
# GULP energy per Si atom -12389.288326 kJ/mol
# Density = 2.342936 g / cm^3
# Si number density = 23.482812 Si / 1000 Ang^3
#
#
#
# Elastic Constant Matrix: (Units=GPa)
#
#
# Indices 1 2 3 4 5 6 
#
# 1 143.5578 38.4547 43.0137 0.0000 0.0000 0.0000
# 2 38.4547 97.5724 28.3301 0.0000 0.0000 0.0000
# 3 43.0137 28.3301 101.3070 0.0000 0.0000 0.0000
# 4 0.0000 0.0000 0.0000 22.3227 0.0000 0.0000
# 5 0.0000 0.0000 0.0000 0.0000 9.0783 0.0000
# 6 0.0000 0.0000 0.0000 0.0000 0.0000 12.2027
#
#
#
# Elastic Compliance Matrix: (Units=1/GPa)
#
#
# Indices 1 2 3 4 5 6 
#
# 1 0.008510 -0.002509 -0.002912 0.000000 0.000000 0.000000
# 2 -0.002509 0.011894 -0.002261 0.000000 0.000000 0.000000
# 3 -0.002912 -0.002261 0.011740 0.000000 0.000000 0.000000
# 4 0.000000 0.000000 0.000000 0.044797 0.000000 0.000000
# 5 0.000000 0.000000 0.000000 0.000000 0.110153 0.000000
# 6 0.000000 0.000000 0.000000 0.000000 0.000000 0.081949
#
#
# Mechanical properties :
#
#
# Convention : Reuss Voigt Hill
#
# Bulk Modulus (GPa) = 59.59117 62.44825 61.01971
# Shear Modulus (GPa) = 17.24137 24.22997 20.73567
#
# Velocity S-wave (km/s) = 2.71257 3.21568 2.97478
# Velocity P-wave (km/s) = 5.93653 6.35911 6.15145
#
# Compressibility (1/GPa) = 0.01678101
#
# Stress axis : x y z
#
# Youngs Moduli (GPa) = 117.50508 84.07639 85.18180
#
# Poissons Ratio (x) = 0.21091 0.24804
# Poissons Ratio (y) = 0.29477 0.19259
# Poissons Ratio (z) = 0.34216 0.19010
#
# Static dielectric constant tensor:
#      x y z
#    x 4.480430 0.000000 0.000000 
#    y 0.000000 4.828990 0.000000 
#    z 0.000000 0.000000 4.386460 
# 
# 
# High freq. dielectric constant tensor:
#      x y z
#    x 1.936840 0.000000 0.000000 
#    y 0.000000 1.942480 0.000000 
#    z 0.000000 0.000000 1.904970 
# 
# From -- ./inp_files/53237.got.cif
#   From: 2010.03.12/outbox.cif.g09.slc.cpg/sg64_27_cif.got.tgz:53237.got - 2010.04.10 20:19:32.
