data_PCOD8263412
_publ_section_title
;
Structure prediction by ZEFSAII (Michael W. Deem and Ramdas Pophale) SiO2 
 PCOD8263412
Probable space group: C M C A
;
_chemical_formula_sum "Si O2"
_cell_formula_units_Z 104
_cell_length_a 21.553041
_cell_length_b 26.139112
_cell_length_c 9.038397
_cell_angle_alpha 90.000000
_cell_angle_beta 90.000000
_cell_angle_gamma 90.000000
_cell_volume 5092.028174
_symmetry_space_group_name_H-M "C M C A"
_symmetry_group_IT_number 64
_symmetry_cell_setting 'orthorhombic'
loop_
_space_group_symop_operation_xyz
x,y,z
-x,1/2-y,1/2+z
x,-y,-z
-x,1/2+y,1/2-z
-x,-y,-z
x,1/2+y,1/2-z
-x,y,z
x,1/2-y,1/2+z
1/2+x,1/2+y,z
1/2-x,-y,1/2+z
1/2+x,1/2-y,-z
1/2-x,y,1/2-z
1/2-x,1/2-y,-z
1/2+x,y,1/2-z
1/2-x,1/2+y,z
1/2+x,-y,1/2+z
loop_
_atom_site_type_symbol
_atom_site_label
_atom_site_fract_x
_atom_site_fract_y
_atom_site_fract_z
Si Si1 0.626588 0.805890 0.437519
Si Si2 0.759589 0.839635 0.424352
Si Si3 0.405063 0.079886 0.532955
Si Si4 0.500000 0.936859 0.716514
Si Si5 0.000000 0.450932 0.227160
Si Si6 0.889242 0.204377 0.590164
Si Si7 0.734196 0.449989 0.079782
Si Si8 0.000000 0.132618 0.487958
O O1 0.699561 0.808814 0.482255
O O2 0.594874 0.858883 0.479220
O O3 0.612982 0.794847 0.266241
O O4 0.595036 0.761146 0.532971
O O5 0.750000 0.844991 0.250000
O O6 0.821784 0.811090 0.473881
O O7 0.764555 0.897881 0.485592
O O8 0.439124 0.060239 0.386455
O O9 0.439349 0.064126 0.681767
O O10 0.338510 0.054205 0.546414
O O11 0.500000 0.988830 0.812266
O O12 0.500000 0.885692 0.817070
O O13 0.000000 0.420071 0.076095
O O14 0.939411 0.165431 0.525959
O O15 0.750000 0.456868 0.250000
O O16 0.761968 0.500000 0.000000
#
# Coordination Sequence:
#
# PCOD8263412 Si02
#       8
#    16  16  16   8   8  16  16   8
#     4  10  21  39  68  88 122 164 208 258 321 373
#     4   8  18  39  62  85 122 164 205 250 313 376
#     4  10  21  43  67  90 124 166 212 258 313 393
#     4  11  25  42  68  91 120 170 220 260 302 387
#     4  11  21  44  66  90 118 171 207 252 321 375
#     4  11  23  41  60  93 126 168 205 261 314 377
#     4  10  20  38  61  94 127 165 206 260 325 375
#     4  12  27  40  60  95 136 151 214 272 319 363
#
# _framework density 20.424081000000001
#
# number of rings (size 3 to 8) (size 9 to 14) (size 15 to 20)
#    0.000    1.846    1.538    3.462    2.154    1.846 
#    5.538    0.000    0.000    0.000    0.000    0.000 
#    0.000    0.000    0.000    0.000    0.000    0.000 
#
# Total GULP energy -644706.619924 kJ/mol
# GULP energy per Si atom -12398.204229 kJ/mol
# Density = 2.037759 g / cm^3
# Si number density = 20.424081 Si / 1000 Ang^3
#
#
#
# Elastic Constant Matrix: (Units=GPa)
#
#
# Indices 1 2 3 4 5 6 
#
# 1 71.0513 38.8979 24.5068 0.0000 0.0000 0.0000
# 2 38.8979 135.9647 31.2407 0.0000 0.0000 0.0000
# 3 24.5068 31.2407 62.8385 0.0000 0.0000 0.0000
# 4 0.0000 0.0000 0.0000 42.5248 0.0000 0.0000
# 5 0.0000 0.0000 0.0000 0.0000 6.7199 0.0000
# 6 0.0000 0.0000 0.0000 0.0000 0.0000 15.4683
#
#
#
# Elastic Compliance Matrix: (Units=1/GPa)
#
#
# Indices 1 2 3 4 5 6 
#
# 1 0.017996 -0.003992 -0.005034 0.000000 0.000000 0.000000
# 2 -0.003992 0.009189 -0.003012 0.000000 0.000000 0.000000
# 3 -0.005034 -0.003012 0.019374 0.000000 0.000000 0.000000
# 4 0.000000 0.000000 0.000000 0.023516 0.000000 0.000000
# 5 0.000000 0.000000 0.000000 0.000000 0.148811 0.000000
# 6 0.000000 0.000000 0.000000 0.000000 0.000000 0.064648
#
#
# Mechanical properties :
#
#
# Convention : Reuss Voigt Hill
#
# Bulk Modulus (GPa) = 44.47465 51.01614 47.74539
# Shear Modulus (GPa) = 15.86782 24.62321 20.24551
#
# Velocity S-wave (km/s) = 2.79035 3.47594 3.15184
# Velocity P-wave (km/s) = 5.67488 6.41422 6.05584
#
# Compressibility (1/GPa) = 0.02248472
#
# Stress axis : x y z
#
# Youngs Moduli (GPa) = 55.56807 108.82796 51.61509
#
# Poissons Ratio (x) = 0.43442 0.25982
# Poissons Ratio (y) = 0.22182 0.15544
# Poissons Ratio (z) = 0.27972 0.32774
#
# Static dielectric constant tensor:
#      x y z
#    x 3.775400 0.000000 0.000000 
#    y 0.000000 3.931620 0.000000 
#    z 0.000000 0.000000 3.399470 
# 
# 
# High freq. dielectric constant tensor:
#      x y z
#    x 1.797620 0.000000 0.000000 
#    y 0.000000 1.821650 0.000000 
#    z 0.000000 0.000000 1.773850 
# 
# From -- ./inp_files/8568.got.cif
#   From: 2010.03.12/outbox.cif.g09.slc.cpg/sg64_5_cif.got.tgz:8568.got - 2010.04.10 20:19:32.
