data_PCOD8263147
_publ_section_title
;
Structure prediction by ZEFSAII (Michael W. Deem and Ramdas Pophale) SiO2 
 PCOD8263147
Probable space group: C M C A
;
_chemical_formula_sum "Si O2"
_cell_formula_units_Z 96
_cell_length_a 8.902116
_cell_length_b 25.035703
_cell_length_c 23.463589
_cell_angle_alpha 90.000000
_cell_angle_beta 90.000000
_cell_angle_gamma 90.000000
_cell_volume 5229.347262
_symmetry_space_group_name_H-M "C M C A"
_symmetry_group_IT_number 64
_symmetry_cell_setting 'orthorhombic'
loop_
_space_group_symop_operation_xyz
x,y,z
-x,1/2-y,1/2+z
x,-y,-z
-x,1/2+y,1/2-z
-x,-y,-z
x,1/2+y,1/2-z
-x,y,z
x,1/2-y,1/2+z
1/2+x,1/2+y,z
1/2-x,-y,1/2+z
1/2+x,1/2-y,-z
1/2-x,y,1/2-z
1/2-x,1/2-y,-z
1/2+x,y,1/2-z
1/2-x,1/2+y,z
1/2+x,-y,1/2+z
loop_
_atom_site_type_symbol
_atom_site_label
_atom_site_fract_x
_atom_site_fract_y
_atom_site_fract_z
Si Si1 0.822155 0.397828 0.619209
Si Si2 0.674786 0.687580 0.807841
Si Si3 0.823138 0.095699 0.891970
Si Si4 0.822586 0.309458 0.809243
Si Si5 0.676690 0.438147 0.505193
Si Si6 0.824047 0.999915 0.189592
O O1 0.745065 0.343173 0.639007
O O2 0.764864 0.411874 0.556909
O O3 0.772507 0.443994 0.662998
O O4 0.000000 0.390598 0.617358
O O5 0.500000 0.682846 0.796361
O O6 0.750000 0.666593 0.750000
O O7 0.721942 0.650717 0.860797
O O8 0.722324 0.748200 0.821714
O O9 0.727559 0.093704 0.949362
O O10 0.771500 0.046714 0.852562
O O11 0.000000 0.092653 0.906022
O O12 0.750000 0.328902 0.750000
O O13 0.000000 0.317976 0.805511
O O14 0.723555 0.500000 0.500000
O O15 0.500000 0.431510 0.514756
O O16 0.750000 0.990878 0.250000
O O17 0.000000 0.997765 0.198866
#
# Coordination Sequence:
#
# PCOD8263147 Si02
#       6
#    16  16  16  16  16  16
#     4  11  22  37  57  81 109 148 188 228 277 330
#     4   9  19  35  58  84 113 148 185 226 276 328
#     4  10  20  37  57  80 110 146 185 226 273 330
#     4  10  20  36  57  84 115 148 186 229 275 328
#     4  11  23  38  57  82 110 146 186 230 279 331
#     4  10  21  33  51  79 110 140 175 220 272 326
#
# _framework density 18.35793
#
# number of rings (size 3 to 8) (size 9 to 14) (size 15 to 20)
#    0.000    1.833    1.667    2.500    0.000    5.333 
#    0.000    0.833    0.000    0.000    0.000    0.000 
#    0.000    0.000    0.000    0.000    0.000    0.000 
#
# Total GULP energy -595429.320800 kJ/mol
# GULP energy per Si atom -12404.777517 kJ/mol
# Density = 1.831615 g / cm^3
# Si number density = 18.357930 Si / 1000 Ang^3
#
#
#
# Elastic Constant Matrix: (Units=GPa)
#
#
# Indices 1 2 3 4 5 6 
#
# 1 56.2616 38.9143 42.6725 0.0000 0.0000 0.0000
# 2 38.9143 94.9249 46.7600 0.0000 0.0000 0.0000
# 3 42.6725 46.7600 110.5417 0.0000 0.0000 0.0000
# 4 0.0000 0.0000 0.0000 29.7592 0.0000 0.0000
# 5 0.0000 0.0000 0.0000 0.0000 39.2661 0.0000
# 6 0.0000 0.0000 0.0000 0.0000 0.0000 29.0837
#
#
#
# Elastic Compliance Matrix: (Units=1/GPa)
#
#
# Indices 1 2 3 4 5 6 
#
# 1 0.029415 -0.008167 -0.007901 0.000000 0.000000 0.000000
# 2 -0.008167 0.015575 -0.003436 0.000000 0.000000 0.000000
# 3 -0.007901 -0.003436 0.013550 0.000000 0.000000 0.000000
# 4 0.000000 0.000000 0.000000 0.033603 0.000000 0.000000
# 5 0.000000 0.000000 0.000000 0.000000 0.025467 0.000000
# 6 0.000000 0.000000 0.000000 0.000000 0.000000 0.034384
#
#
# Mechanical properties :
#
#
# Convention : Reuss Voigt Hill
#
# Bulk Modulus (GPa) = 51.19395 57.60242 54.39818
# Shear Modulus (GPa) = 25.31504 28.51388 26.91446
#
# Velocity S-wave (km/s) = 3.71748 3.94536 3.83312
# Velocity P-wave (km/s) = 6.80979 7.22496 7.02045
#
# Compressibility (1/GPa) = 0.01953356
#
# Stress axis : x y z
#
# Youngs Moduli (GPa) = 33.99607 64.20514 73.80331
#
# Poissons Ratio (x) = 0.52436 0.58308
# Poissons Ratio (y) = 0.27764 0.25357
# Poissons Ratio (z) = 0.26859 0.22059
#
# Static dielectric constant tensor:
#      x y z
#    x 3.347540 0.000000 0.000000 
#    y 0.000000 3.580630 0.000000 
#    z 0.000000 0.000000 3.407440 
# 
# 
# High freq. dielectric constant tensor:
#      x y z
#    x 1.714860 0.000000 0.000000 
#    y 0.000000 1.714430 0.000000 
#    z 0.000000 0.000000 1.713160 
# 
# From -- ./inp_files/36955.got.cif
#   From: 2010.03.12/outbox.cif.g09.slc.cpg/sg64_19_cif.got.tgz:36955.got - 2010.04.10 20:19:32.
