data_PCOD8263175
_publ_section_title
;
Structure prediction by ZEFSAII (Michael W. Deem and Ramdas Pophale) SiO2 
 PCOD8263175
Probable space group: C M C A
;
_chemical_formula_sum "Si O2"
_cell_formula_units_Z 80
_cell_length_a 8.792577
_cell_length_b 24.987599
_cell_length_c 18.045924
_cell_angle_alpha 90.000000
_cell_angle_beta 90.000000
_cell_angle_gamma 90.000000
_cell_volume 3964.786739
_symmetry_space_group_name_H-M "C M C A"
_symmetry_group_IT_number 64
_symmetry_cell_setting 'orthorhombic'
loop_
_space_group_symop_operation_xyz
x,y,z
-x,1/2-y,1/2+z
x,-y,-z
-x,1/2+y,1/2-z
-x,-y,-z
x,1/2+y,1/2-z
-x,y,z
x,1/2-y,1/2+z
1/2+x,1/2+y,z
1/2-x,-y,1/2+z
1/2+x,1/2-y,-z
1/2-x,y,1/2-z
1/2-x,1/2-y,-z
1/2+x,y,1/2-z
1/2-x,1/2+y,z
1/2+x,-y,1/2+z
loop_
_atom_site_type_symbol
_atom_site_label
_atom_site_fract_x
_atom_site_fract_y
_atom_site_fract_z
Si Si1 0.179536 0.004407 0.327385
Si Si2 0.322784 0.416370 0.073171
Si Si3 0.319665 0.198829 0.171791
Si Si4 0.677433 0.319508 0.173885
Si Si5 0.178638 0.396920 0.596100
O O1 0.250000 0.984488 0.250000
O O2 0.223668 0.963042 0.391386
O O3 0.000000 0.007716 0.319704
O O4 0.244396 0.062618 0.346554
O O5 0.500000 0.429015 0.087088
O O6 0.275772 0.359280 0.107964
O O7 0.283778 0.415203 0.986875
O O8 0.500000 0.192324 0.174088
O O9 0.250000 0.180674 0.250000
O O10 0.268193 0.259608 0.153380
O O11 0.249181 0.161741 0.108043
O O12 0.500000 0.319590 0.187823
O O13 0.750000 0.340223 0.250000
O O14 0.000000 0.395189 0.610998
#
# Coordination Sequence:
#
# PCOD8263175 Si02
#       5
#    16  16  16  16  16
#     4  12  25  41  62  86 113 147 190 236 283 338
#     4  10  22  40  60  85 118 152 187 231 285 340
#     4  10  20  36  58  84 115 150 192 237 280 332
#     4   9  19  36  58  84 114 150 190 233 280 332
#     4  11  23  39  59  84 117 153 188 232 286 339
#
# _framework density 20.177630000000001
#
# number of rings (size 3 to 8) (size 9 to 14) (size 15 to 20)
#    0.000    1.600    0.000    4.800    0.000    8.000 
#    0.000    0.000    0.000    0.000    0.000    0.000 
#    0.000    0.000    0.000    0.000    0.000    0.000 
#
# Total GULP energy -496239.508177 kJ/mol
# GULP energy per Si atom -12405.987704 kJ/mol
# Density = 2.013170 g / cm^3
# Si number density = 20.177630 Si / 1000 Ang^3
#
#
#
# Elastic Constant Matrix: (Units=GPa)
#
#
# Indices 1 2 3 4 5 6 
#
# 1 97.0014 36.8647 40.0942 0.0000 0.0000 0.0000
# 2 36.8647 90.7028 26.6829 0.0000 0.0000 0.0000
# 3 40.0942 26.6829 76.3997 0.0000 0.0000 0.0000
# 4 0.0000 0.0000 0.0000 26.0869 0.0000 0.0000
# 5 0.0000 0.0000 0.0000 0.0000 32.0405 0.0000
# 6 0.0000 0.0000 0.0000 0.0000 0.0000 29.8287
#
#
#
# Elastic Compliance Matrix: (Units=1/GPa)
#
#
# Indices 1 2 3 4 5 6 
#
# 1 0.014381 -0.004040 -0.006136 0.000000 0.000000 0.000000
# 2 -0.004040 0.013422 -0.002568 0.000000 0.000000 0.000000
# 3 -0.006136 -0.002568 0.017206 0.000000 0.000000 0.000000
# 4 0.000000 0.000000 0.000000 0.038333 0.000000 0.000000
# 5 0.000000 0.000000 0.000000 0.000000 0.031210 0.000000
# 6 0.000000 0.000000 0.000000 0.000000 0.000000 0.033525
#
#
# Mechanical properties :
#
#
# Convention : Reuss Voigt Hill
#
# Bulk Modulus (GPa) = 51.22431 52.37636 51.80034
# Shear Modulus (GPa) = 27.76672 28.28872 28.02772
#
# Velocity S-wave (km/s) = 3.71363 3.74837 3.73104
# Velocity P-wave (km/s) = 6.62041 6.68937 6.65498
#
# Compressibility (1/GPa) = 0.01952198
#
# Stress axis : x y z
#
# Youngs Moduli (GPa) = 69.53808 74.50309 58.11923
#
# Poissons Ratio (x) = 0.30097 0.35662
# Poissons Ratio (y) = 0.28091 0.14924
# Poissons Ratio (z) = 0.42669 0.19131
#
# Static dielectric constant tensor:
#      x y z
#    x 3.629810 0.000000 0.000000 
#    y 0.000000 3.913590 0.000000 
#    z 0.000000 0.000000 3.626150 
# 
# 
# High freq. dielectric constant tensor:
#      x y z
#    x 1.789700 0.000000 0.000000 
#    y 0.000000 1.802100 0.000000 
#    z 0.000000 0.000000 1.786430 
# 
# From -- ./inp_files/29821.got.cif
#   From: 2010.03.12/outbox.cif.g09.slc.cpg/sg64_15_cif.got.tgz:29821.got - 2010.04.10 20:19:32.
