data_PCOD8263244
_publ_section_title
;
Structure prediction by ZEFSAII (Michael W. Deem and Ramdas Pophale) SiO2 
 PCOD8263244
Probable space group: C M C A
;
_chemical_formula_sum "Si O2"
_cell_formula_units_Z 96
_cell_length_a 27.276102
_cell_length_b 18.312248
_cell_length_c 9.760148
_cell_angle_alpha 90.000000
_cell_angle_beta 90.000000
_cell_angle_gamma 90.000000
_cell_volume 4875.064548
_symmetry_space_group_name_H-M "C M C A"
_symmetry_group_IT_number 64
_symmetry_cell_setting 'orthorhombic'
loop_
_space_group_symop_operation_xyz
x,y,z
-x,1/2-y,1/2+z
x,-y,-z
-x,1/2+y,1/2-z
-x,-y,-z
x,1/2+y,1/2-z
-x,y,z
x,1/2-y,1/2+z
1/2+x,1/2+y,z
1/2-x,-y,1/2+z
1/2+x,1/2-y,-z
1/2-x,y,1/2-z
1/2-x,1/2-y,-z
1/2+x,y,1/2-z
1/2-x,1/2+y,z
1/2+x,-y,1/2+z
loop_
_atom_site_type_symbol
_atom_site_label
_atom_site_fract_x
_atom_site_fract_y
_atom_site_fract_z
Si Si1 0.672986 0.864342 0.468159
Si Si2 0.348224 0.104871 0.218861
Si Si3 0.898139 0.759870 0.593104
Si Si4 0.722920 0.083677 0.989370
Si Si5 0.556588 0.826095 0.167999
Si Si6 0.364230 0.440019 0.288234
O O1 0.661590 0.886650 0.622179
O O2 0.652708 0.783597 0.434325
O O3 0.731553 0.865690 0.445283
O O4 0.646754 0.923292 0.370400
O O5 0.386816 0.164264 0.167543
O O6 0.371524 0.025738 0.187597
O O7 0.297188 0.110856 0.136153
O O8 0.926024 0.771882 0.451284
O O9 0.934345 0.713148 0.687489
O O10 0.680566 0.092641 0.876696
O O11 0.741313 0.000000 0.000000
O O12 0.500000 0.845583 0.150984
O O13 0.586238 0.901744 0.160936
#
# Coordination Sequence:
#
# PCOD8263244 Si02
#       6
#    16  16  16  16  16  16
#     4  11  22  37  62  88 127 168 199 238 306 362
#     4  11  21  39  61  90 127 157 206 249 299 352
#     4  11  23  41  63  91 123 159 202 254 305 366
#     4  10  20  36  61  91 125 167 208 243 294 359
#     4  11  23  44  66  88 118 161 205 254 316 364
#     4  10  22  39  64  89 123 158 206 259 296 357
#
# _framework density 19.692046000000001
#
# number of rings (size 3 to 8) (size 9 to 14) (size 15 to 20)
#    0.000    1.333    3.333    3.000    0.000    3.333 
#    0.000    4.167    0.000    2.000    0.000    0.000 
#    0.000    0.000    0.000    0.000    0.000    0.000 
#
# Total GULP energy -595402.330141 kJ/mol
# GULP energy per Si atom -12404.215211 kJ/mol
# Density = 1.964723 g / cm^3
# Si number density = 19.692046 Si / 1000 Ang^3
#
#
#
# Elastic Constant Matrix: (Units=GPa)
#
#
# Indices 1 2 3 4 5 6 
#
# 1 144.3660 65.6959 42.3517 0.0000 0.0000 0.0000
# 2 65.6959 104.1041 28.0770 0.0000 0.0000 0.0000
# 3 42.3517 28.0770 108.3614 0.0000 0.0000 0.0000
# 4 0.0000 0.0000 0.0000 24.4122 0.0000 0.0000
# 5 0.0000 0.0000 0.0000 0.0000 22.3891 0.0000
# 6 0.0000 0.0000 0.0000 0.0000 0.0000 23.2947
#
#
#
# Elastic Compliance Matrix: (Units=1/GPa)
#
#
# Indices 1 2 3 4 5 6 
#
# 1 0.010321 -0.005833 -0.002523 0.000000 0.000000 0.000000
# 2 -0.005833 0.013624 -0.001250 0.000000 0.000000 0.000000
# 3 -0.002523 -0.001250 0.010538 0.000000 0.000000 0.000000
# 4 0.000000 0.000000 0.000000 0.040963 0.000000 0.000000
# 5 0.000000 0.000000 0.000000 0.000000 0.044665 0.000000
# 6 0.000000 0.000000 0.000000 0.000000 0.000000 0.042928
#
#
# Mechanical properties :
#
#
# Convention : Reuss Voigt Hill
#
# Bulk Modulus (GPa) = 65.48037 69.89785 67.68911
# Shear Modulus (GPa) = 26.68920 28.73299 27.71110
#
# Velocity S-wave (km/s) = 3.68547 3.82398 3.75537
# Velocity P-wave (km/s) = 7.17180 7.42089 7.29741
#
# Compressibility (1/GPa) = 0.01527175
#
# Stress axis : x y z
#
# Youngs Moduli (GPa) = 96.88741 73.40017 94.89243
#
# Poissons Ratio (x) = 0.42814 0.23937
# Poissons Ratio (y) = 0.56514 0.11864
# Poissons Ratio (z) = 0.24441 0.09177
#
# Static dielectric constant tensor:
#      x y z
#    x 3.367230 0.000000 0.000000 
#    y 0.000000 3.576250 0.000000 
#    z 0.000000 0.000000 3.852680 
# 
# 
# High freq. dielectric constant tensor:
#      x y z
#    x 1.744270 0.000000 0.000000 
#    y 0.000000 1.764390 0.000000 
#    z 0.000000 0.000000 1.791530 
# 
# From -- ./inp_files/10361.got.cif
#   From: 2010.03.12/outbox.cif.g09.slc.cpg/sg64_6_cif.got.tgz:10361.got - 2010.04.10 20:19:32.
