data_PCOD8263641
_publ_section_title
;
Structure prediction by ZEFSAII (Michael W. Deem and Ramdas Pophale) SiO2 
 PCOD8263641
Probable space group: C M C A
;
_chemical_formula_sum "Si O2"
_cell_formula_units_Z 80
_cell_length_a 23.617796
_cell_length_b 5.129066
_cell_length_c 26.482379
_cell_angle_alpha 90.000000
_cell_angle_beta 90.000000
_cell_angle_gamma 90.000000
_cell_volume 3208.002154
_symmetry_space_group_name_H-M "C M C A"
_symmetry_group_IT_number 64
_symmetry_cell_setting 'orthorhombic'
loop_
_space_group_symop_operation_xyz
x,y,z
-x,1/2-y,1/2+z
x,-y,-z
-x,1/2+y,1/2-z
-x,-y,-z
x,1/2+y,1/2-z
-x,y,z
x,1/2-y,1/2+z
1/2+x,1/2+y,z
1/2-x,-y,1/2+z
1/2+x,1/2-y,-z
1/2-x,y,1/2-z
1/2-x,1/2-y,-z
1/2+x,y,1/2-z
1/2-x,1/2+y,z
1/2+x,-y,1/2+z
loop_
_atom_site_type_symbol
_atom_site_label
_atom_site_fract_x
_atom_site_fract_y
_atom_site_fract_z
Si Si1 0.719114 0.817992 0.355606
Si Si2 0.065469 0.072673 0.718338
Si Si3 0.875075 0.667297 0.370276
Si Si4 0.175343 0.453045 0.943988
Si Si5 0.436442 0.649615 0.948226
O O1 0.734108 0.528479 0.335319
O O2 0.713198 0.774446 0.417393
O O3 0.657880 0.934696 0.339686
O O4 0.080521 0.289667 0.760188
O O5 0.101833 0.116144 0.667947
O O6 0.000000 0.094517 0.703185
O O7 0.826441 0.792355 0.407192
O O8 0.927009 0.547835 0.401589
O O9 0.108647 0.381201 0.946637
O O10 0.199617 0.500000 0.000000
O O11 0.500000 0.764962 0.944335
O O12 0.426810 0.500000 0.000000
#
# Coordination Sequence:
#
# PCOD8263641 Si02
#       5
#    16  16  16  16  16
#     4  11  24  43  65  96 128 172 221 274 328 383
#     4  10  24  44  69 101 131 165 216 268 324 393
#     4  11  23  42  67  91 131 174 215 275 328 389
#     4  11  23  39  60  93 134 180 225 267 318 395
#     4  10  21  35  56  92 135 176 215 259 317 392
#
# _framework density 24.937640999999999
#
# number of rings (size 3 to 8) (size 9 to 14) (size 15 to 20)
#    0.000    1.400    4.000    0.600    5.600    2.800 
#    0.000    0.000    0.000    3.600    0.000    0.000 
#    0.000    0.000    0.000    0.000    0.000    0.000 
#
# Total GULP energy -495642.768283 kJ/mol
# GULP energy per Si atom -12391.069207 kJ/mol
# Density = 2.488088 g / cm^3
# Si number density = 24.937641 Si / 1000 Ang^3
#
#
#
# Elastic Constant Matrix: (Units=GPa)
#
#
# Indices 1 2 3 4 5 6 
#
# 1 52.4192 9.2075 1.7590 0.0000 0.0000 0.0000
# 2 9.2075 90.0236 -15.2524 0.0000 0.0000 0.0000
# 3 1.7590 -15.2524 44.9447 0.0000 0.0000 0.0000
# 4 0.0000 0.0000 0.0000 27.4870 0.0000 0.0000
# 5 0.0000 0.0000 0.0000 0.0000 11.5967 0.0000
# 6 0.0000 0.0000 0.0000 0.0000 0.0000 31.8660
#
#
#
# Elastic Compliance Matrix: (Units=1/GPa)
#
#
# Indices 1 2 3 4 5 6 
#
# 1 0.019525 -0.002256 -0.001530 0.000000 0.000000 0.000000
# 2 -0.002256 0.012047 0.004176 0.000000 0.000000 0.000000
# 3 -0.001530 0.004176 0.023727 0.000000 0.000000 0.000000
# 4 0.000000 0.000000 0.000000 0.036381 0.000000 0.000000
# 5 0.000000 0.000000 0.000000 0.000000 0.086232 0.000000
# 6 0.000000 0.000000 0.000000 0.000000 0.000000 0.031381
#
#
# Mechanical properties :
#
#
# Convention : Reuss Voigt Hill
#
# Bulk Modulus (GPa) = 17.83202 19.86841 18.85022
# Shear Modulus (GPa) = 22.00666 26.96815 24.48740
#
# Velocity S-wave (km/s) = 2.97386 3.29207 3.13700
# Velocity P-wave (km/s) = 4.35407 4.73654 4.54933
#
# Compressibility (1/GPa) = 0.05607888
#
# Stress axis : x y z
#
# Youngs Moduli (GPa) = 51.21738 83.01134 42.14652
#
# Poissons Ratio (x) = 0.18729 0.06448
# Poissons Ratio (y) = 0.11555 -0.17602
# Poissons Ratio (z) = 0.07835 -0.34669
#
# Static dielectric constant tensor:
#      x y z
#    x 4.519540 0.000000 0.000000 
#    y 0.000000 4.552510 0.000000 
#    z 0.000000 0.000000 4.103540 
# 
# 
# High freq. dielectric constant tensor:
#      x y z
#    x 2.001360 0.000000 0.000000 
#    y 0.000000 2.001690 0.000000 
#    z 0.000000 0.000000 1.952230 
# 
# From -- ./inp_files/53852.got.cif
#   From: 2010.03.12/outbox.cif.g09.slc.cpg/sg64_27_cif.got.tgz:53852.got - 2010.04.10 20:19:32.
