data_PCOD8263338
_publ_section_title
;
Structure prediction by ZEFSAII (Michael W. Deem and Ramdas Pophale) SiO2 
 PCOD8263338
Probable space group: C M C A
;
_chemical_formula_sum "Si O2"
_cell_formula_units_Z 64
_cell_length_a 21.987530
_cell_length_b 8.701530
_cell_length_c 16.947101
_cell_angle_alpha 90.000000
_cell_angle_beta 90.000000
_cell_angle_gamma 90.000000
_cell_volume 3242.406673
_symmetry_space_group_name_H-M "C M C A"
_symmetry_group_IT_number 64
_symmetry_cell_setting 'orthorhombic'
loop_
_space_group_symop_operation_xyz
x,y,z
-x,1/2-y,1/2+z
x,-y,-z
-x,1/2+y,1/2-z
-x,-y,-z
x,1/2+y,1/2-z
-x,y,z
x,1/2-y,1/2+z
1/2+x,1/2+y,z
1/2-x,-y,1/2+z
1/2+x,1/2-y,-z
1/2-x,y,1/2-z
1/2-x,1/2-y,-z
1/2+x,y,1/2-z
1/2-x,1/2+y,z
1/2+x,-y,1/2+z
loop_
_atom_site_type_symbol
_atom_site_label
_atom_site_fract_x
_atom_site_fract_y
_atom_site_fract_z
Si Si1 0.380880 0.869609 0.195152
Si Si2 0.791867 0.459709 0.910202
Si Si3 0.931920 0.544244 0.329859
Si Si4 0.319281 0.867805 0.350967
O O1 0.351038 0.949506 0.119497
O O2 0.426122 0.990940 0.237936
O O3 0.418294 0.724489 0.164414
O O4 0.328140 0.820091 0.258610
O O5 0.733176 0.504623 0.858478
O O6 0.802648 0.278074 0.903648
O O7 0.778860 0.500000 0.000000
O O8 0.882870 0.446249 0.381038
O O9 0.000000 0.512384 0.361103
#
# Coordination Sequence:
#
# PCOD8263338 Si02
#       4
#    16  16  16  16
#     4  10  20  37  61  91 119 151 206 252 298 356
#     4  12  23  39  62  92 129 159 196 254 317 367
#     4  10  20  37  66  89 116 156 211 259 291 351
#     4  10  22  38  59  91 119 158 204 249 297 366
#
# _framework density 19.738424999999999
#
# number of rings (size 3 to 8) (size 9 to 14) (size 15 to 20)
#    1.500    0.000    2.500    3.750    0.000    2.000 
#    0.000    0.000    0.000   12.000    0.000    0.000 
#    0.000    0.000    0.000    0.000    0.000    0.000 
#
# Total GULP energy -396644.846230 kJ/mol
# GULP energy per Si atom -12395.151445 kJ/mol
# Density = 1.969350 g / cm^3
# Si number density = 19.738425 Si / 1000 Ang^3
#
#
#
# Elastic Constant Matrix: (Units=GPa)
#
#
# Indices 1 2 3 4 5 6 
#
# 1 134.0843 59.6133 3.9447 0.0000 0.0000 0.0000
# 2 59.6133 112.0344 -0.8309 0.0000 0.0000 0.0000
# 3 3.9447 -0.8309 35.9854 0.0000 0.0000 0.0000
# 4 0.0000 0.0000 0.0000 23.7529 0.0000 0.0000
# 5 0.0000 0.0000 0.0000 0.0000 8.3452 0.0000
# 6 0.0000 0.0000 0.0000 0.0000 0.0000 33.0476
#
#
#
# Elastic Compliance Matrix: (Units=1/GPa)
#
#
# Indices 1 2 3 4 5 6 
#
# 1 0.009820 -0.005234 -0.001197 0.000000 0.000000 0.000000
# 2 -0.005234 0.011717 0.000844 0.000000 0.000000 0.000000
# 3 -0.001197 0.000844 0.027940 0.000000 0.000000 0.000000
# 4 0.000000 0.000000 0.000000 0.042100 0.000000 0.000000
# 5 0.000000 0.000000 0.000000 0.000000 0.119829 0.000000
# 6 0.000000 0.000000 0.000000 0.000000 0.000000 0.030259
#
#
# Mechanical properties :
#
#
# Convention : Reuss Voigt Hill
#
# Bulk Modulus (GPa) = 26.10777 45.28425 35.69601
# Shear Modulus (GPa) = 18.82471 27.65428 23.23950
#
# Velocity S-wave (km/s) = 3.09157 3.74710 3.43501
# Velocity P-wave (km/s) = 5.09895 6.45856 5.81861
#
# Compressibility (1/GPa) = 0.03830278
#
# Stress axis : x y z
#
# Youngs Moduli (GPa) = 101.82933 85.34431 35.79125
#
# Poissons Ratio (x) = 0.44672 0.04286
# Poissons Ratio (y) = 0.53300 -0.03022
# Poissons Ratio (z) = 0.12193 -0.07206
#
# Static dielectric constant tensor:
#      x y z
#    x 3.458000 0.000000 0.000000 
#    y 0.000000 3.536820 0.000000 
#    z 0.000000 0.000000 3.094320 
# 
# 
# High freq. dielectric constant tensor:
#      x y z
#    x 1.764290 0.000000 0.000000 
#    y 0.000000 1.781370 0.000000 
#    z 0.000000 0.000000 1.722460 
# 
# From -- ./inp_files/34773.got.cif
#   From: 2010.03.12/outbox.cif.g09.slc.cpg/sg64_18_cif.got.tgz:34773.got - 2010.04.10 20:19:32.
