data_PCOD8263285
_publ_section_title
;
Structure prediction by ZEFSAII (Michael W. Deem and Ramdas Pophale) SiO2 
 PCOD8263285
Probable space group: C M C A
;
_chemical_formula_sum "Si O2"
_cell_formula_units_Z 112
_cell_length_a 21.570044
_cell_length_b 23.915486
_cell_length_c 11.450500
_cell_angle_alpha 90.000000
_cell_angle_beta 90.000000
_cell_angle_gamma 90.000000
_cell_volume 5906.833006
_symmetry_space_group_name_H-M "C M C A"
_symmetry_group_IT_number 64
_symmetry_cell_setting 'orthorhombic'
loop_
_space_group_symop_operation_xyz
x,y,z
-x,1/2-y,1/2+z
x,-y,-z
-x,1/2+y,1/2-z
-x,-y,-z
x,1/2+y,1/2-z
-x,y,z
x,1/2-y,1/2+z
1/2+x,1/2+y,z
1/2-x,-y,1/2+z
1/2+x,1/2-y,-z
1/2-x,y,1/2-z
1/2-x,1/2-y,-z
1/2+x,y,1/2-z
1/2-x,1/2+y,z
1/2+x,-y,1/2+z
loop_
_atom_site_type_symbol
_atom_site_label
_atom_site_fract_x
_atom_site_fract_y
_atom_site_fract_z
Si Si1 0.750162 0.789875 0.115383
Si Si2 0.385254 0.802564 0.360557
Si Si3 0.569824 0.096022 0.523871
Si Si4 0.071474 0.680038 0.113380
Si Si5 0.426515 0.080304 0.271141
Si Si6 0.623936 0.853600 0.123006
Si Si7 0.926205 0.455987 0.237744
O O1 0.750000 0.762420 0.250000
O O2 0.815190 0.822401 0.110607
O O3 0.695045 0.835063 0.100825
O O4 0.750000 0.750000 0.000000
O O5 0.427633 0.837187 0.450751
O O6 0.389867 0.736369 0.371628
O O7 0.404792 0.818957 0.230171
O O8 0.500000 0.076215 0.507568
O O9 0.603487 0.082961 0.400945
O O10 0.597192 0.060490 0.631674
O O11 0.100517 0.631722 0.195822
O O12 0.000000 0.692156 0.141973
O O13 0.078733 0.660003 0.982287
O O14 0.500000 0.087950 0.276142
O O15 0.410147 0.020701 0.213105
O O16 0.615345 0.919800 0.148083
O O17 0.000000 0.443915 0.222830
#
# Coordination Sequence:
#
# PCOD8263285 Si02
#       7
#    16  16  16  16  16  16  16
#     4  10  20  37  58  81 104 143 192 231 276 332
#     4  10  21  35  54  79 108 146 182 232 277 334
#     4   9  17  31  53  81 109 144 184 227 280 331
#     4  11  22  32  49  80 117 149 177 219 279 335
#     4   9  19  32  50  81 115 148 184 224 271 332
#     4  10  21  36  54  78 103 144 185 230 279 334
#     4   9  17  33  55  80 110 144 186 230 278 335
#
# _framework density 18.961092000000001
#
# number of rings (size 3 to 8) (size 9 to 14) (size 15 to 20)
#    0.000    2.286    1.429    1.286    2.000    4.000 
#    0.000    2.143    0.000    0.000   33.429    0.000 
#    0.000    0.000    0.000    0.000    0.000    0.000 
#
# Total GULP energy -693773.203794 kJ/mol
# GULP energy per Si atom -12388.807211 kJ/mol
# Density = 1.891794 g / cm^3
# Si number density = 18.961092 Si / 1000 Ang^3
#
#
#
# Elastic Constant Matrix: (Units=GPa)
#
#
# Indices 1 2 3 4 5 6 
#
# 1 48.8487 20.0119 12.3489 0.0000 0.0000 0.0000
# 2 20.0119 128.5477 27.6494 0.0000 0.0000 0.0000
# 3 12.3489 27.6494 74.5882 0.0000 0.0000 0.0000
# 4 0.0000 0.0000 0.0000 25.1456 0.0000 0.0000
# 5 0.0000 0.0000 0.0000 0.0000 19.5653 0.0000
# 6 0.0000 0.0000 0.0000 0.0000 0.0000 19.5035
#
#
#
# Elastic Compliance Matrix: (Units=1/GPa)
#
#
# Indices 1 2 3 4 5 6 
#
# 1 0.022326 -0.002913 -0.002617 0.000000 0.000000 0.000000
# 2 -0.002913 0.008833 -0.002792 0.000000 0.000000 0.000000
# 3 -0.002617 -0.002792 0.014875 0.000000 0.000000 0.000000
# 4 0.000000 0.000000 0.000000 0.039768 0.000000 0.000000
# 5 0.000000 0.000000 0.000000 0.000000 0.051111 0.000000
# 6 0.000000 0.000000 0.000000 0.000000 0.000000 0.051273
#
#
# Mechanical properties :
#
#
# Convention : Reuss Voigt Hill
#
# Bulk Modulus (GPa) = 34.02358 41.33390 37.67874
# Shear Modulus (GPa) = 23.29623 25.64118 24.46870
#
# Velocity S-wave (km/s) = 3.50899 3.68136 3.59621
# Velocity P-wave (km/s) = 5.86517 6.31795 6.09577
#
# Compressibility (1/GPa) = 0.02939138
#
# Stress axis : x y z
#
# Youngs Moduli (GPa) = 44.79052 113.20866 67.22608
#
# Poissons Ratio (x) = 0.32976 0.17590
# Poissons Ratio (y) = 0.13047 0.18771
# Poissons Ratio (z) = 0.11720 0.31610
#
# Static dielectric constant tensor:
#      x y z
#    x 3.226720 0.000000 0.000000 
#    y 0.000000 3.492520 0.000000 
#    z 0.000000 0.000000 3.823300 
# 
# 
# High freq. dielectric constant tensor:
#      x y z
#    x 1.698520 0.000000 0.000000 
#    y 0.000000 1.728330 0.000000 
#    z 0.000000 0.000000 1.749210 
# 
# From -- ./inp_files/17548.got.cif
#   From: 2010.03.12/outbox.cif.g09.slc.cpg/sg64_9_cif.got.tgz:17548.got - 2010.04.10 20:19:32.
