data_PCOD8263142
_publ_section_title
;
Structure prediction by ZEFSAII (Michael W. Deem and Ramdas Pophale) SiO2 
 PCOD8263142
Probable space group: C M C A
;
_chemical_formula_sum "Si O2"
_cell_formula_units_Z 80
_cell_length_a 8.683971
_cell_length_b 27.443898
_cell_length_c 17.909321
_cell_angle_alpha 90.000000
_cell_angle_beta 90.000000
_cell_angle_gamma 90.000000
_cell_volume 4268.185457
_symmetry_space_group_name_H-M "C M C A"
_symmetry_group_IT_number 64
_symmetry_cell_setting 'orthorhombic'
loop_
_space_group_symop_operation_xyz
x,y,z
-x,1/2-y,1/2+z
x,-y,-z
-x,1/2+y,1/2-z
-x,-y,-z
x,1/2+y,1/2-z
-x,y,z
x,1/2-y,1/2+z
1/2+x,1/2+y,z
1/2-x,-y,1/2+z
1/2+x,1/2-y,-z
1/2-x,y,1/2-z
1/2-x,1/2-y,-z
1/2+x,y,1/2-z
1/2-x,1/2+y,z
1/2+x,-y,1/2+z
loop_
_atom_site_type_symbol
_atom_site_label
_atom_site_fract_x
_atom_site_fract_y
_atom_site_fract_z
Si Si1 0.319414 0.959992 0.830780
Si Si2 0.818604 0.153403 0.672461
Si Si3 0.679862 0.558539 0.890557
Si Si4 0.819539 0.700705 0.530315
Si Si5 0.677134 0.101939 0.451403
O O1 0.500000 0.969454 0.824102
O O2 0.250000 0.949622 0.750000
O O3 0.285682 0.913330 0.882820
O O4 0.237603 0.005585 0.869110
O O5 0.750000 0.172462 0.750000
O O6 0.768079 0.097813 0.659344
O O7 0.757336 0.189236 0.609063
O O8 0.000000 0.156329 0.675039
O O9 0.500000 0.563973 0.872797
O O10 0.712743 0.567488 0.977767
O O11 0.750000 0.750000 0.500000
O O12 0.783882 0.657677 0.471612
O O13 0.000000 0.705965 0.543458
O O14 0.500000 0.096100 0.426990
#
# Coordination Sequence:
#
# PCOD8263142 Si02
#       5
#    16  16  16  16  16
#     4  12  24  36  53  78 111 149 188 227 268 320
#     4  11  21  35  56  84 116 146 182 229 278 327
#     4  10  20  36  57  81 112 147 182 223 273 328
#     4  10  21  39  62  86 112 144 182 226 278 333
#     4   9  20  38  58  80 109 143 179 223 273 324
#
# _framework density 18.743328999999999
#
# number of rings (size 3 to 8) (size 9 to 14) (size 15 to 20)
#    0.000    1.600    0.000    7.200    0.000    7.200 
#    0.000    1.000    0.000    4.800    0.000    0.000 
#    0.000    0.000    0.000    0.000    0.000    0.000 
#
# Total GULP energy -496199.611986 kJ/mol
# GULP energy per Si atom -12404.990300 kJ/mol
# Density = 1.870067 g / cm^3
# Si number density = 18.743329 Si / 1000 Ang^3
#
#
#
# Elastic Constant Matrix: (Units=GPa)
#
#
# Indices 1 2 3 4 5 6 
#
# 1 133.0503 53.0859 67.1894 0.0000 0.0000 0.0000
# 2 53.0859 106.5054 71.1777 0.0000 0.0000 0.0000
# 3 67.1894 71.1777 123.8834 0.0000 0.0000 0.0000
# 4 0.0000 0.0000 0.0000 5.7238 0.0000 0.0000
# 5 0.0000 0.0000 0.0000 0.0000 35.5915 0.0000
# 6 0.0000 0.0000 0.0000 0.0000 0.0000 31.4262
#
#
#
# Elastic Compliance Matrix: (Units=1/GPa)
#
#
# Indices 1 2 3 4 5 6 
#
# 1 0.010705 -0.002363 -0.004448 0.000000 0.000000 0.000000
# 2 -0.002363 0.015763 -0.007775 0.000000 0.000000 0.000000
# 3 -0.004448 -0.007775 0.014952 0.000000 0.000000 0.000000
# 4 0.000000 0.000000 0.000000 0.174709 0.000000 0.000000
# 5 0.000000 0.000000 0.000000 0.000000 0.028097 0.000000
# 6 0.000000 0.000000 0.000000 0.000000 0.000000 0.031821
#
#
# Mechanical properties :
#
#
# Convention : Reuss Voigt Hill
#
# Bulk Modulus (GPa) = 81.65129 82.92722 82.28926
# Shear Modulus (GPa) = 16.16542 26.01406 21.08974
#
# Velocity S-wave (km/s) = 2.93996 3.72951 3.35802
# Velocity P-wave (km/s) = 7.42845 7.93002 7.68333
#
# Compressibility (1/GPa) = 0.01224720
#
# Stress axis : x y z
#
# Youngs Moduli (GPa) = 93.41292 63.43917 66.88058
#
# Poissons Ratio (x) = 0.14990 0.29751
# Poissons Ratio (y) = 0.22073 0.52001
# Poissons Ratio (z) = 0.41554 0.49325
#
# Static dielectric constant tensor:
#      x y z
#    x 3.533870 0.000000 0.000000 
#    y 0.000000 3.351720 0.000000 
#    z 0.000000 0.000000 3.510970 
# 
# 
# High freq. dielectric constant tensor:
#      x y z
#    x 1.742180 0.000000 0.000000 
#    y 0.000000 1.716180 0.000000 
#    z 0.000000 0.000000 1.733040 
# 
# From -- ./inp_files/29706.got.cif
#   From: 2010.03.12/outbox.cif.g09.slc.cpg/sg64_15_cif.got.tgz:29706.got - 2010.04.10 20:19:32.
