data_PCOD8263177
_publ_section_title
;
Structure prediction by ZEFSAII (Michael W. Deem and Ramdas Pophale) SiO2 
 PCOD8263177
Probable space group: C M C A
;
_chemical_formula_sum "Si O2"
_cell_formula_units_Z 104
_cell_length_a 9.181918
_cell_length_b 26.741035
_cell_length_c 21.576330
_cell_angle_alpha 90.000000
_cell_angle_beta 90.000000
_cell_angle_gamma 90.000000
_cell_volume 5297.722408
_symmetry_space_group_name_H-M "C M C A"
_symmetry_group_IT_number 64
_symmetry_cell_setting 'orthorhombic'
loop_
_space_group_symop_operation_xyz
x,y,z
-x,1/2-y,1/2+z
x,-y,-z
-x,1/2+y,1/2-z
-x,-y,-z
x,1/2+y,1/2-z
-x,y,z
x,1/2-y,1/2+z
1/2+x,1/2+y,z
1/2-x,-y,1/2+z
1/2+x,1/2-y,-z
1/2-x,y,1/2-z
1/2-x,1/2-y,-z
1/2+x,y,1/2-z
1/2-x,1/2+y,z
1/2+x,-y,1/2+z
loop_
_atom_site_type_symbol
_atom_site_label
_atom_site_fract_x
_atom_site_fract_y
_atom_site_fract_z
Si Si1 0.673495 0.227666 0.939570
Si Si2 0.837008 0.818502 0.865248
Si Si3 0.335966 0.538592 0.339760
Si Si4 0.828662 0.059114 0.807829
Si Si5 0.167989 0.875237 0.074155
Si Si6 0.170353 0.090282 0.059450
Si Si7 0.250000 0.376235 0.750000
O O1 0.500000 0.225083 0.949656
O O2 0.722856 0.262824 0.880596
O O3 0.730404 0.172787 0.924381
O O4 0.750000 0.250000 0.000000
O O5 0.764326 0.858448 0.911687
O O6 0.835886 0.837191 0.794021
O O7 0.000000 0.816067 0.888957
O O8 0.500000 0.519487 0.349233
O O9 0.237620 0.496298 0.309207
O O10 0.264349 0.547527 0.407290
O O11 0.342653 0.587891 0.295340
O O12 0.750000 0.086806 0.750000
O O13 0.790124 0.090069 0.868641
O O14 0.000000 0.054761 0.796337
O O15 0.000000 0.857811 0.075964
O O16 0.197206 0.909301 0.013773
O O17 0.000000 0.081539 0.075870
#
# Coordination Sequence:
#
# PCOD8263177 Si02
#       7
#    16  16  16  16  16  16   8
#     4  11  21  37  62  89 118 155 197 246 299 356
#     4   9  18  34  56  83 117 153 191 236 291 351
#     4  11  22  36  60  91 122 152 196 244 298 359
#     4  11  24  42  64  85 117 160 206 249 299 358
#     4  10  22  42  63  86 116 159 205 247 295 359
#     4   9  18  36  60  85 119 154 193 238 294 355
#     4  10  20  36  58  84 120 154 196 234 296 348
#
# _framework density 19.631076
#
# number of rings (size 3 to 8) (size 9 to 14) (size 15 to 20)
#    0.000    1.846    2.308    1.846    0.000    3.692 
#    1.385    5.385    0.000    0.000    0.000    0.000 
#    0.000    0.000    0.000    0.000    0.000    0.000 
#
# Total GULP energy -644301.942975 kJ/mol
# GULP energy per Si atom -12390.421980 kJ/mol
# Density = 1.958640 g / cm^3
# Si number density = 19.631076 Si / 1000 Ang^3
#
#
#
# Elastic Constant Matrix: (Units=GPa)
#
#
# Indices 1 2 3 4 5 6 
#
# 1 99.7471 44.8054 53.5839 0.0000 0.0000 0.0000
# 2 44.8054 81.3476 59.2963 0.0000 0.0000 0.0000
# 3 53.5839 59.2963 155.0761 0.0000 0.0000 0.0000
# 4 0.0000 0.0000 0.0000 32.6617 0.0000 0.0000
# 5 0.0000 0.0000 0.0000 0.0000 28.6413 0.0000
# 6 0.0000 0.0000 0.0000 0.0000 0.0000 28.8334
#
#
#
# Elastic Compliance Matrix: (Units=1/GPa)
#
#
# Indices 1 2 3 4 5 6 
#
# 1 0.014054 -0.005824 -0.002629 0.000000 0.000000 0.000000
# 2 -0.005824 0.019457 -0.005427 0.000000 0.000000 0.000000
# 3 -0.002629 -0.005427 0.009432 0.000000 0.000000 0.000000
# 4 0.000000 0.000000 0.000000 0.030617 0.000000 0.000000
# 5 0.000000 0.000000 0.000000 0.000000 0.034915 0.000000
# 6 0.000000 0.000000 0.000000 0.000000 0.000000 0.034682
#
#
# Mechanical properties :
#
#
# Convention : Reuss Voigt Hill
#
# Bulk Modulus (GPa) = 65.86885 72.39355 69.13120
# Shear Modulus (GPa) = 28.41260 29.92630 29.16945
#
# Velocity S-wave (km/s) = 3.80850 3.90864 3.85889
# Velocity P-wave (km/s) = 7.27776 7.57146 7.42606
#
# Compressibility (1/GPa) = 0.01518168
#
# Stress axis : x y z
#
# Youngs Moduli (GPa) = 71.15457 51.39546 106.02132
#
# Poissons Ratio (x) = 0.29935 0.27873
# Poissons Ratio (y) = 0.41443 0.57540
# Poissons Ratio (z) = 0.18707 0.27893
#
# Static dielectric constant tensor:
#      x y z
#    x 3.457590 0.000000 0.000000 
#    y 0.000000 3.663670 0.000000 
#    z 0.000000 0.000000 3.794480 
# 
# 
# High freq. dielectric constant tensor:
#      x y z
#    x 1.752350 0.000000 0.000000 
#    y 0.000000 1.754690 0.000000 
#    z 0.000000 0.000000 1.772580 
# 
# From -- ./inp_files/37203.got.cif
#   From: 2010.03.12/outbox.cif.g09.slc.cpg/sg64_19_cif.got.tgz:37203.got - 2010.04.10 20:19:32.
