data_PCOD8263910
_publ_section_title
;
Structure prediction by ZEFSAII (Michael W. Deem and Ramdas Pophale) SiO2 
 PCOD8263910
Probable space group: C M C A
;
_chemical_formula_sum "Si O2"
_cell_formula_units_Z 96
_cell_length_a 19.118537
_cell_length_b 18.345744
_cell_length_c 13.612395
_cell_angle_alpha 90.000000
_cell_angle_beta 90.000000
_cell_angle_gamma 90.000000
_cell_volume 4774.462951
_symmetry_space_group_name_H-M "C M C A"
_symmetry_group_IT_number 64
_symmetry_cell_setting 'orthorhombic'
loop_
_space_group_symop_operation_xyz
x,y,z
-x,1/2-y,1/2+z
x,-y,-z
-x,1/2+y,1/2-z
-x,-y,-z
x,1/2+y,1/2-z
-x,y,z
x,1/2-y,1/2+z
1/2+x,1/2+y,z
1/2-x,-y,1/2+z
1/2+x,1/2-y,-z
1/2-x,y,1/2-z
1/2-x,1/2-y,-z
1/2+x,y,1/2-z
1/2-x,1/2+y,z
1/2+x,-y,1/2+z
loop_
_atom_site_type_symbol
_atom_site_label
_atom_site_fract_x
_atom_site_fract_y
_atom_site_fract_z
Si Si1 0.581218 0.461509 0.095440
Si Si2 0.421445 0.228856 0.332487
Si Si3 0.719360 0.935268 0.919986
Si Si4 0.674976 0.214798 0.005201
Si Si5 0.852973 0.077210 0.215892
Si Si6 0.421376 0.301824 0.135817
O O1 0.500000 0.450429 0.079732
O O2 0.594974 0.511568 0.189304
O O3 0.612480 0.380476 0.109366
O O4 0.615271 0.500000 0.000000
O O5 0.500000 0.214306 0.374165
O O6 0.370471 0.261363 0.412917
O O7 0.392755 0.154015 0.285960
O O8 0.424965 0.292341 0.252173
O O9 0.793524 0.918577 0.868572
O O10 0.669634 0.946141 0.825358
O O11 0.687691 0.870856 0.986014
O O12 0.723459 0.000000 0.000000
O O13 0.750000 0.250000 0.000000
O O14 0.632061 0.240815 0.099521
O O15 0.500000 0.292410 0.091610
#
# Coordination Sequence:
#
# PCOD8263910 Si02
#       6
#    16  16  16  16  16  16
#     4  10  21  38  65  96 125 161 215 276 330 385
#     4  11  23  42  69  96 127 172 223 274 334 393
#     4  11  26  43  61  97 136 177 215 264 332 396
#     4  12  24  41  68  94 131 167 215 272 327 395
#     4  11  22  43  67  91 133 173 218 268 329 404
#     4  10  23  42  64  96 130 165 219 277 328 388
#
# _framework density 20.106974000000001
#
# number of rings (size 3 to 8) (size 9 to 14) (size 15 to 20)
#    0.000    1.167    3.333    2.500    4.667    2.000 
#    0.000    0.000    0.000    4.000    0.000    0.000 
#    0.000    0.000    0.000    0.000    0.000    0.000 
#
# Total GULP energy -594830.833771 kJ/mol
# GULP energy per Si atom -12392.309037 kJ/mol
# Density = 2.006121 g / cm^3
# Si number density = 20.106974 Si / 1000 Ang^3
#
#
#
# Elastic Constant Matrix: (Units=GPa)
#
#
# Indices 1 2 3 4 5 6 
#
# 1 96.1855 45.6292 55.1898 0.0000 0.0000 0.0000
# 2 45.6292 135.1007 44.6800 0.0000 0.0000 0.0000
# 3 55.1898 44.6800 108.1059 0.0000 0.0000 0.0000
# 4 0.0000 0.0000 0.0000 42.3998 0.0000 0.0000
# 5 0.0000 0.0000 0.0000 0.0000 42.1366 0.0000
# 6 0.0000 0.0000 0.0000 0.0000 0.0000 29.3391
#
#
#
# Elastic Compliance Matrix: (Units=1/GPa)
#
#
# Indices 1 2 3 4 5 6 
#
# 1 0.015737 -0.003079 -0.006761 0.000000 0.000000 0.000000
# 2 -0.003079 0.009176 -0.002221 0.000000 0.000000 0.000000
# 3 -0.006761 -0.002221 0.013620 0.000000 0.000000 0.000000
# 4 0.000000 0.000000 0.000000 0.023585 0.000000 0.000000
# 5 0.000000 0.000000 0.000000 0.000000 0.023732 0.000000
# 6 0.000000 0.000000 0.000000 0.000000 0.000000 0.034084
#
#
# Mechanical properties :
#
#
# Convention : Reuss Voigt Hill
#
# Bulk Modulus (GPa) = 69.39217 70.04333 69.71775
# Shear Modulus (GPa) = 33.58869 35.70131 34.64500
#
# Velocity S-wave (km/s) = 4.09161 4.21832 4.15545
# Velocity P-wave (km/s) = 7.54375 7.65745 7.60081
#
# Compressibility (1/GPa) = 0.01441085
#
# Stress axis : x y z
#
# Youngs Moduli (GPa) = 63.54571 108.97798 73.42262
#
# Poissons Ratio (x) = 0.33553 0.49644
# Poissons Ratio (y) = 0.19565 0.16305
# Poissons Ratio (z) = 0.42966 0.24201
#
# Static dielectric constant tensor:
#      x y z
#    x 3.606290 0.000000 0.000000 
#    y 0.000000 4.493580 0.000000 
#    z 0.000000 0.000000 2.580830 
# 
# 
# High freq. dielectric constant tensor:
#      x y z
#    x 1.790750 0.000000 0.000000 
#    y 0.000000 1.789430 0.000000 
#    z 0.000000 0.000000 1.789580 
# 
# From -- ./inp_files/26330.got.cif
#   From: 2010.03.12/outbox.cif.g09.slc.cpg/sg64_14_cif.got.tgz:26330.got - 2010.04.10 20:19:32.
