data_PCOD8263599
_publ_section_title
;
Structure prediction by ZEFSAII (Michael W. Deem and Ramdas Pophale) SiO2 
 PCOD8263599
Probable space group: C M C A
;
_chemical_formula_sum "Si O2"
_cell_formula_units_Z 88
_cell_length_a 13.708458
_cell_length_b 21.720810
_cell_length_c 14.718079
_cell_angle_alpha 90.000000
_cell_angle_beta 90.000000
_cell_angle_gamma 90.000000
_cell_volume 4382.437712
_symmetry_space_group_name_H-M "C M C A"
_symmetry_group_IT_number 64
_symmetry_cell_setting 'orthorhombic'
loop_
_space_group_symop_operation_xyz
x,y,z
-x,1/2-y,1/2+z
x,-y,-z
-x,1/2+y,1/2-z
-x,-y,-z
x,1/2+y,1/2-z
-x,y,z
x,1/2-y,1/2+z
1/2+x,1/2+y,z
1/2-x,-y,1/2+z
1/2+x,1/2-y,-z
1/2-x,y,1/2-z
1/2-x,1/2-y,-z
1/2+x,y,1/2-z
1/2-x,1/2+y,z
1/2+x,-y,1/2+z
loop_
_atom_site_type_symbol
_atom_site_label
_atom_site_fract_x
_atom_site_fract_y
_atom_site_fract_z
Si Si1 0.800503 0.067817 0.975882
Si Si2 0.891277 0.103945 0.613809
Si Si3 0.891764 0.216999 0.492985
Si Si4 0.887338 0.642529 0.687786
Si Si5 0.750000 0.246612 0.750000
Si Si6 0.205526 0.821798 0.908666
O O1 0.687599 0.064744 0.942872
O O2 0.863851 0.098054 0.896151
O O3 0.814822 0.106460 0.070234
O O4 0.838241 0.000000 0.000000
O O5 0.886588 0.175626 0.584251
O O6 0.866154 0.103556 0.720578
O O7 0.000000 0.076935 0.595144
O O8 0.856333 0.285684 0.515345
O O9 0.821963 0.187402 0.418173
O O10 0.000000 0.219836 0.452074
O O11 0.819614 0.703804 0.686778
O O12 0.000000 0.663091 0.683591
O O13 0.817906 0.293344 0.690057
#
# Coordination Sequence:
#
# PCOD8263599 Si02
#       6
#    16  16  16  16   8  16
#     4  11  23  40  56  84 120 162 200 233 279 338
#     4   9  17  34  62  89 111 148 196 243 291 341
#     4   9  16  32  57  84 112 138 181 239 298 344
#     4  11  21  37  63  88 114 150 190 240 296 352
#     4  12  20  38  58  88 118 142 192 242 304 346
#     4  10  21  33  52  83 114 148 185 236 285 342
#
# _framework density 20.080148000000001
#
# number of rings (size 3 to 8) (size 9 to 14) (size 15 to 20)
#    0.000    1.818    3.636    2.182    0.000    3.636 
#    3.273    0.000    0.000    0.000    0.000    0.000 
#    0.000    0.000    0.000    0.000    0.000    0.000 
#
# Total GULP energy -545303.460113 kJ/mol
# GULP energy per Si atom -12393.260457 kJ/mol
# Density = 2.003444 g / cm^3
# Si number density = 20.080148 Si / 1000 Ang^3
#
#
#
# Elastic Constant Matrix: (Units=GPa)
#
#
# Indices 1 2 3 4 5 6 
#
# 1 79.7146 12.8608 3.0881 0.0000 0.0000 0.0000
# 2 12.8608 125.7956 48.7585 0.0000 0.0000 0.0000
# 3 3.0881 48.7585 69.9171 0.0000 0.0000 0.0000
# 4 0.0000 0.0000 0.0000 27.9505 0.0000 0.0000
# 5 0.0000 0.0000 0.0000 0.0000 21.1575 0.0000
# 6 0.0000 0.0000 0.0000 0.0000 0.0000 13.0175
#
#
#
# Elastic Compliance Matrix: (Units=1/GPa)
#
#
# Indices 1 2 3 4 5 6 
#
# 1 0.012767 -0.001489 0.000475 0.000000 0.000000 0.000000
# 2 -0.001489 0.011068 -0.007653 0.000000 0.000000 0.000000
# 3 0.000475 -0.007653 0.019618 0.000000 0.000000 0.000000
# 4 0.000000 0.000000 0.000000 0.035777 0.000000 0.000000
# 5 0.000000 0.000000 0.000000 0.000000 0.047264 0.000000
# 6 0.000000 0.000000 0.000000 0.000000 0.000000 0.076820
#
#
# Mechanical properties :
#
#
# Convention : Reuss Voigt Hill
#
# Bulk Modulus (GPa) = 38.28698 44.98244 41.63471
# Shear Modulus (GPa) = 21.80024 26.47311 24.13667
#
# Velocity S-wave (km/s) = 3.29851 3.63488 3.47077
# Velocity P-wave (km/s) = 5.79788 6.32981 6.06968
#
# Compressibility (1/GPa) = 0.02611854
#
# Stress axis : x y z
#
# Youngs Moduli (GPa) = 78.32928 90.35197 50.97236
#
# Poissons Ratio (x) = 0.13455 -0.02419
# Poissons Ratio (y) = 0.11665 0.39007
# Poissons Ratio (z) = -0.03718 0.69143
#
# Static dielectric constant tensor:
#      x y z
#    x 3.789820 0.000000 0.000000 
#    y 0.000000 3.290540 0.000000 
#    z 0.000000 0.000000 3.548760 
# 
# 
# High freq. dielectric constant tensor:
#      x y z
#    x 1.786410 0.000000 0.000000 
#    y 0.000000 1.744620 0.000000 
#    z 0.000000 0.000000 1.775530 
# 
# From -- ./inp_files/23760.got.cif
#   From: 2010.03.12/outbox.cif.g09.slc.cpg/sg64_12_cif.got.tgz:23760.got - 2010.04.10 20:19:32.
