data_PCOD8263839
_publ_section_title
;
Structure prediction by ZEFSAII (Michael W. Deem and Ramdas Pophale) SiO2 
 PCOD8263839
Probable space group: C M C A
;
_chemical_formula_sum "Si O2"
_cell_formula_units_Z 96
_cell_length_a 15.602784
_cell_length_b 14.915412
_cell_length_c 20.867972
_cell_angle_alpha 90.000000
_cell_angle_beta 90.000000
_cell_angle_gamma 90.000000
_cell_volume 4856.435172
_symmetry_space_group_name_H-M "C M C A"
_symmetry_group_IT_number 64
_symmetry_cell_setting 'orthorhombic'
loop_
_space_group_symop_operation_xyz
x,y,z
-x,1/2-y,1/2+z
x,-y,-z
-x,1/2+y,1/2-z
-x,-y,-z
x,1/2+y,1/2-z
-x,y,z
x,1/2-y,1/2+z
1/2+x,1/2+y,z
1/2-x,-y,1/2+z
1/2+x,1/2-y,-z
1/2-x,y,1/2-z
1/2-x,1/2-y,-z
1/2+x,y,1/2-z
1/2-x,1/2+y,z
1/2+x,-y,1/2+z
loop_
_atom_site_type_symbol
_atom_site_label
_atom_site_fract_x
_atom_site_fract_y
_atom_site_fract_z
Si Si1 0.100430 0.436767 0.812172
Si Si2 0.098541 0.448864 0.066204
Si Si3 0.747698 0.307296 0.437221
Si Si4 0.691094 0.751823 0.808929
Si Si5 0.902811 0.937235 0.058659
Si Si6 0.598172 0.561764 0.799757
O O1 0.129937 0.485519 0.877328
O O2 0.124832 0.333065 0.814614
O O3 0.139337 0.492070 0.751377
O O4 0.000000 0.439198 0.805425
O O5 0.161487 0.364905 0.065300
O O6 0.000000 0.416680 0.076459
O O7 0.108156 0.500000 0.000000
O O8 0.750000 0.250000 0.500000
O O9 0.750023 0.248878 0.372563
O O10 0.837927 0.356623 0.441148
O O11 0.750000 0.776181 0.750000
O O12 0.645887 0.656743 0.796841
O O13 0.895160 0.983323 0.129143
O O14 0.000000 0.901776 0.048166
O O15 0.875581 0.000000 0.000000
O O16 0.500000 0.582061 0.781978
#
# Coordination Sequence:
#
# PCOD8263839 Si02
#       6
#    16  16  16  16  16  16
#     4  10  21  38  60  83 111 150 193 239 291 345
#     4  10  21  38  60  84 112 151 197 243 291 342
#     4  11  23  37  56  84 116 151 189 235 287 339
#     4  11  23  36  55  84 115 148 190 236 290 350
#     4   9  19  36  58  82 109 144 184 228 282 339
#     4   9  19  37  58  80 110 148 189 235 286 342
#
# _framework density 19.767586999999999
#
# number of rings (size 3 to 8) (size 9 to 14) (size 15 to 20)
#    0.000    2.000    0.000    3.000    0.000    6.000 
#    0.000    0.833    0.000    0.000    0.000    0.000 
#    0.000    0.000    0.000    0.000    0.000    0.000 
#
# Total GULP energy -594978.691249 kJ/mol
# GULP energy per Si atom -12395.389401 kJ/mol
# Density = 1.972259 g / cm^3
# Si number density = 19.767587 Si / 1000 Ang^3
#
#
#
# Elastic Constant Matrix: (Units=GPa)
#
#
# Indices 1 2 3 4 5 6 
#
# 1 52.6833 25.6867 31.5748 0.0000 0.0000 0.0000
# 2 25.6867 101.2172 58.4686 0.0000 0.0000 0.0000
# 3 31.5748 58.4686 173.6444 0.0000 0.0000 0.0000
# 4 0.0000 0.0000 0.0000 37.3986 0.0000 0.0000
# 5 0.0000 0.0000 0.0000 0.0000 28.7526 0.0000
# 6 0.0000 0.0000 0.0000 0.0000 0.0000 23.4400
#
#
#
# Elastic Compliance Matrix: (Units=1/GPa)
#
#
# Indices 1 2 3 4 5 6 
#
# 1 0.022644 -0.004181 -0.002710 0.000000 0.000000 0.000000
# 2 -0.004181 0.013038 -0.003630 0.000000 0.000000 0.000000
# 3 -0.002710 -0.003630 0.007474 0.000000 0.000000 0.000000
# 4 0.000000 0.000000 0.000000 0.026739 0.000000 0.000000
# 5 0.000000 0.000000 0.000000 0.000000 0.034779 0.000000
# 6 0.000000 0.000000 0.000000 0.000000 0.000000 0.042662
#
#
# Mechanical properties :
#
#
# Convention : Reuss Voigt Hill
#
# Bulk Modulus (GPa) = 45.21984 62.11168 53.66576
# Shear Modulus (GPa) = 28.44978 32.03922 30.24450
#
# Velocity S-wave (km/s) = 3.79781 4.03028 3.91577
# Velocity P-wave (km/s) = 6.49281 7.29018 6.90302
#
# Compressibility (1/GPa) = 0.02211419
#
# Stress axis : x y z
#
# Youngs Moduli (GPa) = 44.16189 76.70161 133.80194
#
# Poissons Ratio (x) = 0.32072 0.36254
# Poissons Ratio (y) = 0.18466 0.48565
# Poissons Ratio (z) = 0.11966 0.27840
#
# Static dielectric constant tensor:
#      x y z
#    x 4.538470 0.000000 0.000000 
#    y 0.000000 3.417600 0.000000 
#    z 0.000000 0.000000 4.268380 
# 
# 
# High freq. dielectric constant tensor:
#      x y z
#    x 1.776310 0.000000 0.000000 
#    y 0.000000 1.750170 0.000000 
#    z 0.000000 0.000000 1.799770 
# 
# From -- ./inp_files/39154.got.cif
#   From: 2010.03.12/outbox.cif.g09.slc.cpg/sg64_20_cif.got.tgz:39154.got - 2010.04.10 20:19:32.
