data_PCOD8263488
_publ_section_title
;
Structure prediction by ZEFSAII (Michael W. Deem and Ramdas Pophale) SiO2 
 PCOD8263488
Probable space group: C M C A
;
_chemical_formula_sum "Si O2"
_cell_formula_units_Z 96
_cell_length_a 8.774803
_cell_length_b 23.393548
_cell_length_c 25.145468
_cell_angle_alpha 90.000000
_cell_angle_beta 90.000000
_cell_angle_gamma 90.000000
_cell_volume 5161.705145
_symmetry_space_group_name_H-M "C M C A"
_symmetry_group_IT_number 64
_symmetry_cell_setting 'orthorhombic'
loop_
_space_group_symop_operation_xyz
x,y,z
-x,1/2-y,1/2+z
x,-y,-z
-x,1/2+y,1/2-z
-x,-y,-z
x,1/2+y,1/2-z
-x,y,z
x,1/2-y,1/2+z
1/2+x,1/2+y,z
1/2-x,-y,1/2+z
1/2+x,1/2-y,-z
1/2-x,y,1/2-z
1/2-x,1/2-y,-z
1/2+x,y,1/2-z
1/2-x,1/2+y,z
1/2+x,-y,1/2+z
loop_
_atom_site_type_symbol
_atom_site_label
_atom_site_fract_x
_atom_site_fract_y
_atom_site_fract_z
Si Si1 0.322081 0.692459 0.194378
Si Si2 0.176776 0.380444 0.101955
Si Si3 0.323725 0.118512 0.406269
Si Si4 0.676631 0.494558 0.560843
Si Si5 0.819886 0.311885 0.306687
Si Si6 0.820935 0.811788 0.500656
O O1 0.500000 0.704605 0.202476
O O2 0.250000 0.672618 0.250000
O O3 0.291545 0.642043 0.152671
O O4 0.245541 0.751002 0.173558
O O5 0.204426 0.447222 0.092496
O O6 0.275302 0.361299 0.152202
O O7 0.236558 0.346607 0.050469
O O8 0.000000 0.367184 0.112845
O O9 0.500000 0.124801 0.421485
O O10 0.274146 0.052707 0.408282
O O11 0.225326 0.154910 0.446888
O O12 0.733367 0.500000 0.500000
O O13 0.500000 0.476294 0.560876
O O14 0.750000 0.328553 0.250000
O O15 0.000000 0.307600 0.301734
O O16 0.750000 0.750000 0.500000
O O17 0.000000 0.805447 0.499690
#
# Coordination Sequence:
#
# PCOD8263488 Si02
#       6
#    16  16  16  16  16  16
#     4  10  21  38  59  84 115 150 189 232 285 339
#     4  10  21  38  58  81 114 150 190 235 281 337
#     4  11  23  37  56  85 117 149 189 237 286 339
#     4  10  20  39  61  82 110 154 196 231 285 339
#     4  11  22  37  60  87 115 149 190 233 286 340
#     4  11  22  36  55  82 116 150 187 232 286 344
#
# _framework density 18.598504999999999
#
# number of rings (size 3 to 8) (size 9 to 14) (size 15 to 20)
#    0.000    1.500    1.667    5.000    0.000    9.000 
#    0.000    0.833    0.000    2.000    0.000    0.000 
#    0.000    0.000    0.000    0.000    0.000    0.000 
#
# Total GULP energy -595449.122942 kJ/mol
# GULP energy per Si atom -12405.190061 kJ/mol
# Density = 1.855617 g / cm^3
# Si number density = 18.598505 Si / 1000 Ang^3
#
#
#
# Elastic Constant Matrix: (Units=GPa)
#
#
# Indices 1 2 3 4 5 6 
#
# 1 94.0271 44.1073 54.3631 0.0000 0.0000 0.0000
# 2 44.1073 114.7541 60.9239 0.0000 0.0000 0.0000
# 3 54.3631 60.9239 110.9952 0.0000 0.0000 0.0000
# 4 0.0000 0.0000 0.0000 25.3719 0.0000 0.0000
# 5 0.0000 0.0000 0.0000 0.0000 32.9530 0.0000
# 6 0.0000 0.0000 0.0000 0.0000 0.0000 34.9430
#
#
#
# Elastic Compliance Matrix: (Units=1/GPa)
#
#
# Indices 1 2 3 4 5 6 
#
# 1 0.015409 -0.002704 -0.006063 0.000000 0.000000 0.000000
# 2 -0.002704 0.012772 -0.005686 0.000000 0.000000 0.000000
# 3 -0.006063 -0.005686 0.015100 0.000000 0.000000 0.000000
# 4 0.000000 0.000000 0.000000 0.039414 0.000000 0.000000
# 5 0.000000 0.000000 0.000000 0.000000 0.030346 0.000000
# 6 0.000000 0.000000 0.000000 0.000000 0.000000 0.028618
#
#
# Mechanical properties :
#
#
# Convention : Reuss Voigt Hill
#
# Bulk Modulus (GPa) = 69.56371 70.95166 70.25769
# Shear Modulus (GPa) = 28.51320 29.34570 28.92945
#
# Velocity S-wave (km/s) = 3.91972 3.97653 3.94823
# Velocity P-wave (km/s) = 7.61378 7.70167 7.65785
#
# Compressibility (1/GPa) = 0.01437531
#
# Stress axis : x y z
#
# Youngs Moduli (GPa) = 64.89763 78.29338 66.22487
#
# Poissons Ratio (x) = 0.21169 0.40151
# Poissons Ratio (y) = 0.17547 0.37658
# Poissons Ratio (z) = 0.39347 0.44521
#
# Static dielectric constant tensor:
#      x y z
#    x 3.456250 0.000000 0.000000 
#    y 0.000000 3.547440 0.000000 
#    z 0.000000 0.000000 3.583840 
# 
# 
# High freq. dielectric constant tensor:
#      x y z
#    x 1.729910 0.000000 0.000000 
#    y 0.000000 1.723290 0.000000 
#    z 0.000000 0.000000 1.723100 
# 
# From -- ./inp_files/43013.got.cif
#   From: 2010.03.12/outbox.cif.g09.slc.cpg/sg64_22_cif.got.tgz:43013.got - 2010.04.10 20:19:32.
