data_PCOD8263180
_publ_section_title
;
Structure prediction by ZEFSAII (Michael W. Deem and Ramdas Pophale) SiO2 
 PCOD8263180
Probable space group: C M C A
;
_chemical_formula_sum "Si O2"
_cell_formula_units_Z 80
_cell_length_a 15.130033
_cell_length_b 15.477907
_cell_length_c 17.687151
_cell_angle_alpha 90.000000
_cell_angle_beta 90.000000
_cell_angle_gamma 90.000000
_cell_volume 4141.999018
_symmetry_space_group_name_H-M "C M C A"
_symmetry_group_IT_number 64
_symmetry_cell_setting 'orthorhombic'
loop_
_space_group_symop_operation_xyz
x,y,z
-x,1/2-y,1/2+z
x,-y,-z
-x,1/2+y,1/2-z
-x,-y,-z
x,1/2+y,1/2-z
-x,y,z
x,1/2-y,1/2+z
1/2+x,1/2+y,z
1/2-x,-y,1/2+z
1/2+x,1/2-y,-z
1/2-x,y,1/2-z
1/2-x,1/2-y,-z
1/2+x,y,1/2-z
1/2-x,1/2+y,z
1/2+x,-y,1/2+z
loop_
_atom_site_type_symbol
_atom_site_label
_atom_site_fract_x
_atom_site_fract_y
_atom_site_fract_z
Si Si1 0.895357 0.448833 0.425344
Si Si2 0.280292 0.282765 0.079957
Si Si3 0.101708 0.189305 0.304846
Si Si4 0.161152 0.340309 0.204487
Si Si5 0.398729 0.013661 0.265979
O O1 0.867020 0.500000 0.500000
O O2 0.852181 0.356262 0.430941
O O3 0.857918 0.494922 0.349290
O O4 0.000000 0.435414 0.420245
O O5 0.330879 0.208528 0.126941
O O6 0.189351 0.315305 0.119557
O O7 0.250000 0.250000 0.000000
O O8 0.102417 0.265016 0.241870
O O9 0.000000 0.179066 0.333166
O O10 0.141589 0.100738 0.269641
O O11 0.250000 0.352445 0.250000
O O12 0.111563 0.432348 0.209000
O O13 0.500000 0.034285 0.279120
#
# Coordination Sequence:
#
# PCOD8263180 Si02
#       5
#    16  16  16  16  16
#     4  10  21  38  59  85 119 159 202 245 293 352
#     4  11  24  39  56  88 128 157 189 244 307 357
#     4  10  21  39  63  86 115 156 200 245 290 350
#     4  10  20  36  58  85 115 152 193 242 291 347
#     4  10  20  37  62  86 112 154 203 246 293 347
#
# _framework density 19.314346
#
# number of rings (size 3 to 8) (size 9 to 14) (size 15 to 20)
#    0.000    1.800    4.000    1.200    2.800    4.000 
#    0.000    3.000    0.000    2.400    0.000    0.000 
#    0.000    0.000    0.000    0.000    0.000    0.000 
#
# Total GULP energy -495863.468466 kJ/mol
# GULP energy per Si atom -12396.586712 kJ/mol
# Density = 1.927039 g / cm^3
# Si number density = 19.314346 Si / 1000 Ang^3
#
#
#
# Elastic Constant Matrix: (Units=GPa)
#
#
# Indices 1 2 3 4 5 6 
#
# 1 40.7931 25.8561 34.6639 0.0000 0.0000 0.0000
# 2 25.8561 165.0860 75.8777 0.0000 0.0000 0.0000
# 3 34.6639 75.8777 154.6616 0.0000 0.0000 0.0000
# 4 0.0000 0.0000 0.0000 32.9095 0.0000 0.0000
# 5 0.0000 0.0000 0.0000 0.0000 26.0703 0.0000
# 6 0.0000 0.0000 0.0000 0.0000 0.0000 7.1301
#
#
#
# Elastic Compliance Matrix: (Units=1/GPa)
#
#
# Indices 1 2 3 4 5 6 
#
# 1 0.030853 -0.002136 -0.005867 0.000000 0.000000 0.000000
# 2 -0.002136 0.007969 -0.003431 0.000000 0.000000 0.000000
# 3 -0.005867 -0.003431 0.009464 0.000000 0.000000 0.000000
# 4 0.000000 0.000000 0.000000 0.030386 0.000000 0.000000
# 5 0.000000 0.000000 0.000000 0.000000 0.038358 0.000000
# 6 0.000000 0.000000 0.000000 0.000000 0.000000 0.140250
#
#
# Mechanical properties :
#
#
# Convention : Reuss Voigt Hill
#
# Bulk Modulus (GPa) = 39.34137 70.37067 54.85602
# Shear Modulus (GPa) = 17.32378 28.16485 22.74431
#
# Velocity S-wave (km/s) = 2.99814 3.82283 3.43532
# Velocity P-wave (km/s) = 5.69195 7.48324 6.64820
#
# Compressibility (1/GPa) = 0.02541854
#
# Stress axis : x y z
#
# Youngs Moduli (GPa) = 32.41139 125.48846 105.66355
#
# Poissons Ratio (x) = 0.26798 0.61997
# Poissons Ratio (y) = 0.06922 0.36252
# Poissons Ratio (z) = 0.19017 0.43054
#
# Static dielectric constant tensor:
#      x y z
#    x 3.980790 0.000000 0.000000 
#    y 0.000000 3.379720 0.000000 
#    z 0.000000 0.000000 3.559770 
# 
# 
# High freq. dielectric constant tensor:
#      x y z
#    x 1.745930 0.000000 0.000000 
#    y 0.000000 1.760480 0.000000 
#    z 0.000000 0.000000 1.739100 
# 
# From -- ./inp_files/32983.got.cif
#   From: 2010.03.12/outbox.cif.g09.slc.cpg/sg64_17_cif.got.tgz:32983.got - 2010.04.10 20:19:32.
