data_PCOD8263684
_publ_section_title
;
Structure prediction by ZEFSAII (Michael W. Deem and Ramdas Pophale) SiO2 
 PCOD8263684
Probable space group: C M C A
;
_chemical_formula_sum "Si O2"
_cell_formula_units_Z 96
_cell_length_a 8.793212
_cell_length_b 28.603576
_cell_length_c 20.329126
_cell_angle_alpha 90.000000
_cell_angle_beta 90.000000
_cell_angle_gamma 90.000000
_cell_volume 5113.127040
_symmetry_space_group_name_H-M "C M C A"
_symmetry_group_IT_number 64
_symmetry_cell_setting 'orthorhombic'
loop_
_space_group_symop_operation_xyz
x,y,z
-x,1/2-y,1/2+z
x,-y,-z
-x,1/2+y,1/2-z
-x,-y,-z
x,1/2+y,1/2-z
-x,y,z
x,1/2-y,1/2+z
1/2+x,1/2+y,z
1/2-x,-y,1/2+z
1/2+x,1/2-y,-z
1/2-x,y,1/2-z
1/2-x,1/2-y,-z
1/2+x,y,1/2-z
1/2-x,1/2+y,z
1/2+x,-y,1/2+z
loop_
_atom_site_type_symbol
_atom_site_label
_atom_site_fract_x
_atom_site_fract_y
_atom_site_fract_z
Si Si1 0.176741 0.027280 0.564263
Si Si2 0.320652 0.723499 0.938467
Si Si3 0.324058 0.131128 0.978651
Si Si4 0.176825 0.222471 0.180570
Si Si5 0.175719 0.623995 0.381862
Si Si6 0.678489 0.526917 0.180354
O O1 0.207955 0.081957 0.555915
O O2 0.000000 0.015755 0.574828
O O3 0.237796 0.000000 0.500000
O O4 0.268633 0.011122 0.627668
O O5 0.500000 0.728753 0.942314
O O6 0.275364 0.669192 0.940320
O O7 0.260214 0.745354 0.871809
O O8 0.250000 0.750000 0.000000
O O9 0.500000 0.145246 0.974347
O O10 0.279934 0.129097 0.054729
O O11 0.250000 0.234400 0.250000
O O12 0.202707 0.168091 0.164959
O O13 0.000000 0.235440 0.181186
O O14 0.230335 0.578513 0.342151
O O15 0.000000 0.620057 0.404035
O O16 0.500000 0.524006 0.188004
O O17 0.750000 0.514281 0.250000
#
# Coordination Sequence:
#
# PCOD8263684 Si02
#       6
#    16  16  16  16  16  16
#     4  10  21  39  61  88 120 157 198 246 298 355
#     4  12  24  40  62  89 122 159 202 249 299 356
#     4  11  22  37  62  91 120 156 200 248 300 354
#     4  11  23  40  61  89 124 162 202 246 301 359
#     4  10  21  36  58  89 124 159 196 244 299 359
#     4  11  23  38  59  88 123 163 202 246 300 357
#
# _framework density 18.775203999999999
#
# number of rings (size 3 to 8) (size 9 to 14) (size 15 to 20)
#    0.000    1.167    3.333    3.500    0.000    3.000 
#    0.000    0.833    0.000    4.000    0.000    0.000 
#    0.000    0.000    0.000    0.000    0.000    0.000 
#
# Total GULP energy -595523.681853 kJ/mol
# GULP energy per Si atom -12406.743372 kJ/mol
# Density = 1.873247 g / cm^3
# Si number density = 18.775204 Si / 1000 Ang^3
#
#
#
# Elastic Constant Matrix: (Units=GPa)
#
#
# Indices 1 2 3 4 5 6 
#
# 1 115.9221 58.0393 64.8045 0.0000 0.0000 0.0000
# 2 58.0393 107.0123 64.8408 0.0000 0.0000 0.0000
# 3 64.8045 64.8408 145.9052 0.0000 0.0000 0.0000
# 4 0.0000 0.0000 0.0000 27.1530 0.0000 0.0000
# 5 0.0000 0.0000 0.0000 0.0000 35.5856 0.0000
# 6 0.0000 0.0000 0.0000 0.0000 0.0000 29.9511
#
#
#
# Elastic Compliance Matrix: (Units=1/GPa)
#
#
# Indices 1 2 3 4 5 6 
#
# 1 0.013122 -0.004907 -0.003648 0.000000 0.000000 0.000000
# 2 -0.004907 0.014623 -0.004319 0.000000 0.000000 0.000000
# 3 -0.003648 -0.004319 0.010393 0.000000 0.000000 0.000000
# 4 0.000000 0.000000 0.000000 0.036828 0.000000 0.000000
# 5 0.000000 0.000000 0.000000 0.000000 0.028101 0.000000
# 6 0.000000 0.000000 0.000000 0.000000 0.000000 0.033388
#
#
# Mechanical properties :
#
#
# Convention : Reuss Voigt Hill
#
# Bulk Modulus (GPa) = 80.70141 82.68989 81.69565
# Shear Modulus (GPa) = 30.05995 30.61494 30.33744
#
# Velocity S-wave (km/s) = 4.00565 4.04246 4.02409
# Velocity P-wave (km/s) = 8.02931 8.11950 8.07453
#
# Compressibility (1/GPa) = 0.01239136
#
# Stress axis : x y z
#
# Youngs Moduli (GPa) = 76.20525 68.38509 96.21506
#
# Poissons Ratio (x) = 0.33556 0.35097
# Poissons Ratio (y) = 0.37393 0.41557
# Poissons Ratio (z) = 0.27798 0.29537
#
# Static dielectric constant tensor:
#      x y z
#    x 3.516520 0.000000 0.000000 
#    y 0.000000 4.038780 0.000000 
#    z 0.000000 0.000000 3.308720 
# 
# 
# High freq. dielectric constant tensor:
#      x y z
#    x 1.739870 0.000000 0.000000 
#    y 0.000000 1.735010 0.000000 
#    z 0.000000 0.000000 1.727540 
# 
# From -- ./inp_files/37020.got.cif
#   From: 2010.03.12/outbox.cif.g09.slc.cpg/sg64_19_cif.got.tgz:37020.got - 2010.04.10 20:19:32.
