data_PCOD8263291
_publ_section_title
;
Structure prediction by ZEFSAII (Michael W. Deem and Ramdas Pophale) SiO2 
 PCOD8263291
Probable space group: C M C A
;
_chemical_formula_sum "Si O2"
_cell_formula_units_Z 80
_cell_length_a 27.391680
_cell_length_b 9.818051
_cell_length_c 14.944257
_cell_angle_alpha 90.000000
_cell_angle_beta 90.000000
_cell_angle_gamma 90.000000
_cell_volume 4019.002541
_symmetry_space_group_name_H-M "C M C A"
_symmetry_group_IT_number 64
_symmetry_cell_setting 'orthorhombic'
loop_
_space_group_symop_operation_xyz
x,y,z
-x,1/2-y,1/2+z
x,-y,-z
-x,1/2+y,1/2-z
-x,-y,-z
x,1/2+y,1/2-z
-x,y,z
x,1/2-y,1/2+z
1/2+x,1/2+y,z
1/2-x,-y,1/2+z
1/2+x,1/2-y,-z
1/2-x,y,1/2-z
1/2-x,1/2-y,-z
1/2+x,y,1/2-z
1/2-x,1/2+y,z
1/2+x,-y,1/2+z
loop_
_atom_site_type_symbol
_atom_site_label
_atom_site_fract_x
_atom_site_fract_y
_atom_site_fract_z
Si Si1 0.055052 0.339952 0.984898
Si Si2 0.290224 0.440333 0.594260
Si Si3 0.608692 0.406846 0.684222
Si Si4 0.728551 0.716328 0.655274
Si Si5 0.112862 0.715811 0.845299
O O1 0.076908 0.319609 0.886242
O O2 0.000000 0.283183 0.989359
O O3 0.057071 0.500000 0.000000
O O4 0.087154 0.260091 0.058868
O O5 0.310492 0.500000 0.500000
O O6 0.334976 0.392938 0.655768
O O7 0.257578 0.558737 0.640196
O O8 0.254098 0.312623 0.581073
O O9 0.597020 0.335895 0.778631
O O10 0.595926 0.567492 0.691705
O O11 0.750000 0.765852 0.750000
O O12 0.670708 0.725718 0.643587
#
# Coordination Sequence:
#
# PCOD8263291 Si02
#       5
#    16  16  16  16  16
#     4   9  19  38  61  83 109 146 192 238 286 343
#     4  11  22  35  54  81 114 154 195 230 277 338
#     4  10  20  37  58  84 114 149 189 237 281 342
#     4  11  21  35  54  79 116 151 187 230 278 335
#     4  10  21  36  59  84 115 150 190 234 286 341
#
# _framework density 19.905436000000002
#
# number of rings (size 3 to 8) (size 9 to 14) (size 15 to 20)
#    0.000    1.800    2.000    4.200    2.800    0.800 
#    0.000    1.000    0.000    1.200    0.000    0.000 
#    0.000    0.000    0.000    0.000    0.000    0.000 
#
# Total GULP energy -495848.420984 kJ/mol
# GULP energy per Si atom -12396.210525 kJ/mol
# Density = 1.986013 g / cm^3
# Si number density = 19.905436 Si / 1000 Ang^3
#
#
#
# Elastic Constant Matrix: (Units=GPa)
#
#
# Indices 1 2 3 4 5 6 
#
# 1 90.2394 31.8170 19.1117 0.0000 0.0000 0.0000
# 2 31.8170 60.5986 19.4909 0.0000 0.0000 0.0000
# 3 19.1117 19.4909 56.2787 0.0000 0.0000 0.0000
# 4 0.0000 0.0000 0.0000 37.8938 0.0000 0.0000
# 5 0.0000 0.0000 0.0000 0.0000 21.7559 0.0000
# 6 0.0000 0.0000 0.0000 0.0000 0.0000 13.6006
#
#
#
# Elastic Compliance Matrix: (Units=1/GPa)
#
#
# Indices 1 2 3 4 5 6 
#
# 1 0.013897 -0.006503 -0.002467 0.000000 0.000000 0.000000
# 2 -0.006503 0.021614 -0.005277 0.000000 0.000000 0.000000
# 3 -0.002467 -0.005277 0.020434 0.000000 0.000000 0.000000
# 4 0.000000 0.000000 0.000000 0.026390 0.000000 0.000000
# 5 0.000000 0.000000 0.000000 0.000000 0.045965 0.000000
# 6 0.000000 0.000000 0.000000 0.000000 0.000000 0.073526
#
#
# Mechanical properties :
#
#
# Convention : Reuss Voigt Hill
#
# Bulk Modulus (GPa) = 36.42933 38.66179 37.54556
# Shear Modulus (GPa) = 20.87948 23.76320 22.32134
#
# Velocity S-wave (km/s) = 3.24224 3.45890 3.35232
# Velocity P-wave (km/s) = 5.68833 5.95121 5.82125
#
# Compressibility (1/GPa) = 0.02745041
#
# Stress axis : x y z
#
# Youngs Moduli (GPa) = 71.95794 46.26687 48.93774
#
# Poissons Ratio (x) = 0.30088 0.12073
# Poissons Ratio (y) = 0.46795 0.25825
# Poissons Ratio (z) = 0.17753 0.24415
#
# Static dielectric constant tensor:
#      x y z
#    x 3.519980 0.000000 0.000000 
#    y 0.000000 3.684960 0.000000 
#    z 0.000000 0.000000 3.715930 
# 
# 
# High freq. dielectric constant tensor:
#      x y z
#    x 1.763020 0.000000 0.000000 
#    y 0.000000 1.758070 0.000000 
#    z 0.000000 0.000000 1.779240 
# 
# From -- ./inp_files/27061.got.cif
#   From: 2010.03.12/outbox.cif.g09.slc.cpg/sg64_14_cif.got.tgz:27061.got - 2010.04.10 20:19:32.
