data_PCOD8263279
_publ_section_title
;
Structure prediction by ZEFSAII (Michael W. Deem and Ramdas Pophale) SiO2 
 PCOD8263279
Probable space group: C M C A
;
_chemical_formula_sum "Si O2"
_cell_formula_units_Z 112
_cell_length_a 19.886185
_cell_length_b 17.274570
_cell_length_c 18.437513
_cell_angle_alpha 90.000000
_cell_angle_beta 90.000000
_cell_angle_gamma 90.000000
_cell_volume 6333.752089
_symmetry_space_group_name_H-M "C M C A"
_symmetry_group_IT_number 64
_symmetry_cell_setting 'orthorhombic'
loop_
_space_group_symop_operation_xyz
x,y,z
-x,1/2-y,1/2+z
x,-y,-z
-x,1/2+y,1/2-z
-x,-y,-z
x,1/2+y,1/2-z
-x,y,z
x,1/2-y,1/2+z
1/2+x,1/2+y,z
1/2-x,-y,1/2+z
1/2+x,1/2-y,-z
1/2-x,y,1/2-z
1/2-x,1/2-y,-z
1/2+x,y,1/2-z
1/2-x,1/2+y,z
1/2+x,-y,1/2+z
loop_
_atom_site_type_symbol
_atom_site_label
_atom_site_fract_x
_atom_site_fract_y
_atom_site_fract_z
Si Si1 0.294984 0.795181 0.443869
Si Si2 0.264684 0.037457 0.928237
Si Si3 0.680530 0.108991 0.791373
Si Si4 0.782477 0.225086 0.177820
Si Si5 0.648854 0.919701 0.609118
Si Si6 0.424028 0.542825 0.817917
Si Si7 0.576899 0.632618 0.968869
O O1 0.250000 0.750000 0.500000
O O2 0.276466 0.885753 0.449416
O O3 0.281941 0.757748 0.366009
O O4 0.374950 0.791311 0.460980
O O5 0.319230 0.059495 0.866506
O O6 0.213336 0.973857 0.898975
O O7 0.300087 0.000000 0.000000
O O8 0.750000 0.091924 0.750000
O O9 0.671131 0.200376 0.806126
O O10 0.617496 0.086296 0.743394
O O11 0.750000 0.187235 0.250000
O O12 0.826832 0.165201 0.132680
O O13 0.603153 0.916854 0.537142
O O14 0.602854 0.955174 0.673105
O O15 0.500000 0.541738 0.790371
O O16 0.416349 0.583001 0.895949
O O17 0.500000 0.658993 0.981900
#
# Coordination Sequence:
#
# PCOD8263279 Si02
#       7
#    16  16  16  16  16  16  16
#     4  11  19  36  55  81 117 146 186 233 280 336
#     4  11  19  32  57  88 112 142 191 238 282 334
#     4  10  20  37  57  80 114 149 195 231 282 345
#     4  10  22  34  56  83 111 149 190 241 281 334
#     4  12  20  34  55  89 117 145 182 237 294 343
#     4  11  22  37  58  84 116 149 185 233 290 349
#     4  11  21  34  56  85 117 147 180 228 290 349
#
# _framework density 17.683039999999998
#
# number of rings (size 3 to 8) (size 9 to 14) (size 15 to 20)
#    0.000    1.143    5.714    2.571    2.000    1.143 
#    0.000    1.429    0.000    2.143    0.000    0.000 
#    0.000    0.000    0.000    0.000    0.000    0.000 
#
# Total GULP energy -694166.901590 kJ/mol
# GULP energy per Si atom -12395.837528 kJ/mol
# Density = 1.764279 g / cm^3
# Si number density = 17.683040 Si / 1000 Ang^3
#
#
#
# Elastic Constant Matrix: (Units=GPa)
#
#
# Indices 1 2 3 4 5 6 
#
# 1 110.0274 58.0087 43.0956 0.0000 0.0000 0.0000
# 2 58.0087 92.4514 50.8632 0.0000 0.0000 0.0000
# 3 43.0956 50.8632 96.6932 0.0000 0.0000 0.0000
# 4 0.0000 0.0000 0.0000 29.9485 0.0000 0.0000
# 5 0.0000 0.0000 0.0000 0.0000 27.3645 0.0000
# 6 0.0000 0.0000 0.0000 0.0000 0.0000 14.5318
#
#
#
# Elastic Compliance Matrix: (Units=1/GPa)
#
#
# Indices 1 2 3 4 5 6 
#
# 1 0.013926 -0.007491 -0.002266 0.000000 0.000000 0.000000
# 2 -0.007491 0.019251 -0.006788 0.000000 0.000000 0.000000
# 3 -0.002266 -0.006788 0.014923 0.000000 0.000000 0.000000
# 4 0.000000 0.000000 0.000000 0.033391 0.000000 0.000000
# 5 0.000000 0.000000 0.000000 0.000000 0.036544 0.000000
# 6 0.000000 0.000000 0.000000 0.000000 0.000000 0.068815
#
#
# Mechanical properties :
#
#
# Convention : Reuss Voigt Hill
#
# Bulk Modulus (GPa) = 66.62501 67.01190 66.81845
# Shear Modulus (GPa) = 22.22799 24.18259 23.20529
#
# Velocity S-wave (km/s) = 3.54930 3.70206 3.62649
# Velocity P-wave (km/s) = 7.38619 7.50014 7.44338
#
# Compressibility (1/GPa) = 0.01500938
#
# Stress axis : x y z
#
# Youngs Moduli (GPa) = 71.81021 51.94507 67.01224
#
# Poissons Ratio (x) = 0.38911 0.15186
# Poissons Ratio (y) = 0.53792 0.45488
# Poissons Ratio (z) = 0.16273 0.35260
#
# Static dielectric constant tensor:
#      x y z
#    x 3.338850 0.000000 0.000000 
#    y 0.000000 3.454300 0.000000 
#    z 0.000000 0.000000 3.632200 
# 
# 
# High freq. dielectric constant tensor:
#      x y z
#    x 1.653490 0.000000 0.000000 
#    y 0.000000 1.675390 0.000000 
#    z 0.000000 0.000000 1.697980 
# 
# From -- ./inp_files/34469.got.cif
#   From: 2010.03.12/outbox.cif.g09.slc.cpg/sg64_18_cif.got.tgz:34469.got - 2010.04.10 20:19:32.
