data_PCOD8263581
_publ_section_title
;
Structure prediction by ZEFSAII (Michael W. Deem and Ramdas Pophale) SiO2 
 PCOD8263581
Probable space group: C M C A
;
_chemical_formula_sum "Si O2"
_cell_formula_units_Z 88
_cell_length_a 13.672226
_cell_length_b 17.989868
_cell_length_c 16.945470
_cell_angle_alpha 90.000000
_cell_angle_beta 90.000000
_cell_angle_gamma 90.000000
_cell_volume 4167.933914
_symmetry_space_group_name_H-M "C M C A"
_symmetry_group_IT_number 64
_symmetry_cell_setting 'orthorhombic'
loop_
_space_group_symop_operation_xyz
x,y,z
-x,1/2-y,1/2+z
x,-y,-z
-x,1/2+y,1/2-z
-x,-y,-z
x,1/2+y,1/2-z
-x,y,z
x,1/2-y,1/2+z
1/2+x,1/2+y,z
1/2-x,-y,1/2+z
1/2+x,1/2-y,-z
1/2-x,y,1/2-z
1/2-x,1/2-y,-z
1/2+x,y,1/2-z
1/2-x,1/2+y,z
1/2+x,-y,1/2+z
loop_
_atom_site_type_symbol
_atom_site_label
_atom_site_fract_x
_atom_site_fract_y
_atom_site_fract_z
Si Si1 0.250000 0.727974 0.250000
Si Si2 0.612085 0.197785 0.498234
Si Si3 0.390230 0.558901 0.112277
Si Si4 0.803528 0.514570 0.913053
Si Si5 0.111159 0.897078 0.708256
Si Si6 0.792900 0.181993 0.602681
O O1 0.173516 0.678052 0.200667
O O2 0.194608 0.779641 0.312619
O O3 0.500000 0.197584 0.526656
O O4 0.632525 0.136196 0.431351
O O5 0.680256 0.182627 0.573649
O O6 0.637987 0.277714 0.460979
O O7 0.500000 0.530645 0.093222
O O8 0.314347 0.496233 0.084639
O O9 0.375369 0.570545 0.204833
O O10 0.852308 0.457663 0.853255
O O11 0.829546 0.597782 0.887093
O O12 0.846444 0.500000 0.000000
O O13 0.000000 0.876321 0.689484
#
# Coordination Sequence:
#
# PCOD8263581 Si02
#       6
#     8  16  16  16  16  16
#     4  12  24  44  68  90 132 174 224 274 322 394
#     4  10  21  43  68  96 130 167 219 274 327 394
#     4  10  20  41  70  94 126 176 224 268 325 396
#     4  12  24  42  66  97 139 172 218 278 337 396
#     4  11  24  44  68  92 126 177 222 266 334 402
#     4  11  25  39  65 100 129 172 216 275 332 387
#
# _framework density 21.113578
#
# number of rings (size 3 to 8) (size 9 to 14) (size 15 to 20)
#    0.000    1.091    5.455    0.000    5.091    2.909 
#    0.000    0.000    0.000    0.000    0.000    0.000 
#    0.000    0.000    0.000    0.000    0.000    0.000 
#
# Total GULP energy -545823.455938 kJ/mol
# GULP energy per Si atom -12405.078544 kJ/mol
# Density = 2.106552 g / cm^3
# Si number density = 21.113578 Si / 1000 Ang^3
#
#
#
# Elastic Constant Matrix: (Units=GPa)
#
#
# Indices 1 2 3 4 5 6 
#
# 1 73.5081 22.1547 14.9191 0.0000 0.0000 0.0000
# 2 22.1547 144.0355 43.7932 0.0000 0.0000 0.0000
# 3 14.9191 43.7932 91.2022 0.0000 0.0000 0.0000
# 4 0.0000 0.0000 0.0000 36.7576 0.0000 0.0000
# 5 0.0000 0.0000 0.0000 0.0000 22.6363 0.0000
# 6 0.0000 0.0000 0.0000 0.0000 0.0000 14.0928
#
#
#
# Elastic Compliance Matrix: (Units=1/GPa)
#
#
# Indices 1 2 3 4 5 6 
#
# 1 0.014442 -0.001760 -0.001517 0.000000 0.000000 0.000000
# 2 -0.001760 0.008344 -0.003719 0.000000 0.000000 0.000000
# 3 -0.001517 -0.003719 0.012999 0.000000 0.000000 0.000000
# 4 0.000000 0.000000 0.000000 0.027205 0.000000 0.000000
# 5 0.000000 0.000000 0.000000 0.000000 0.044177 0.000000
# 6 0.000000 0.000000 0.000000 0.000000 0.000000 0.070958
#
#
# Mechanical properties :
#
#
# Convention : Reuss Voigt Hill
#
# Bulk Modulus (GPa) = 45.88705 52.27551 49.08128
# Shear Modulus (GPa) = 25.07753 29.88927 27.48340
#
# Velocity S-wave (km/s) = 3.45011 3.76658 3.61181
# Velocity P-wave (km/s) = 6.13609 6.61280 6.37890
#
# Compressibility (1/GPa) = 0.02179264
#
# Stress axis : x y z
#
# Youngs Moduli (GPa) = 69.24063 119.84486 76.93187
#
# Poissons Ratio (x) = 0.21094 0.11673
# Poissons Ratio (y) = 0.12187 0.28609
# Poissons Ratio (z) = 0.10506 0.44567
#
# Static dielectric constant tensor:
#      x y z
#    x 3.963310 0.000000 0.000000 
#    y 0.000000 3.763560 0.000000 
#    z 0.000000 0.000000 3.788250 
# 
# 
# High freq. dielectric constant tensor:
#      x y z
#    x 1.821890 0.000000 0.000000 
#    y 0.000000 1.827120 0.000000 
#    z 0.000000 0.000000 1.832920 
# 
# From -- ./inp_files/32158.got.cif
#   From: 2010.03.12/outbox.cif.g09.slc.cpg/sg64_17_cif.got.tgz:32158.got - 2010.04.10 20:19:32.
