data_PCOD8263080
_publ_section_title
;
Structure prediction by ZEFSAII (Michael W. Deem and Ramdas Pophale) SiO2 
 PCOD8263080
Probable space group: C M C A
;
_chemical_formula_sum "Si O2"
_cell_formula_units_Z 96
_cell_length_a 17.553166
_cell_length_b 25.230133
_cell_length_c 11.495063
_cell_angle_alpha 90.000000
_cell_angle_beta 90.000000
_cell_angle_gamma 90.000000
_cell_volume 5090.803754
_symmetry_space_group_name_H-M "C M C A"
_symmetry_group_IT_number 64
_symmetry_cell_setting 'orthorhombic'
loop_
_space_group_symop_operation_xyz
x,y,z
-x,1/2-y,1/2+z
x,-y,-z
-x,1/2+y,1/2-z
-x,-y,-z
x,1/2+y,1/2-z
-x,y,z
x,1/2-y,1/2+z
1/2+x,1/2+y,z
1/2-x,-y,1/2+z
1/2+x,1/2-y,-z
1/2-x,y,1/2-z
1/2-x,1/2-y,-z
1/2+x,y,1/2-z
1/2-x,1/2+y,z
1/2+x,-y,1/2+z
loop_
_atom_site_type_symbol
_atom_site_label
_atom_site_fract_x
_atom_site_fract_y
_atom_site_fract_z
Si Si1 0.330551 0.702467 0.106831
Si Si2 0.203804 0.123426 0.445367
Si Si3 0.411636 0.617369 0.246439
Si Si4 0.587750 0.156249 0.602297
Si Si5 0.675378 0.677077 0.679146
Si Si6 0.350925 0.560569 0.030067
O O1 0.248975 0.672893 0.112601
O O2 0.389989 0.674995 0.194814
O O3 0.318650 0.762855 0.137229
O O4 0.362470 0.696965 0.975280
O O5 0.135455 0.105334 0.362777
O O6 0.167244 0.139107 0.568534
O O7 0.261395 0.074162 0.460387
O O8 0.500000 0.616615 0.279053
O O9 0.392588 0.572278 0.152055
O O10 0.500000 0.166056 0.574428
O O11 0.602838 0.167879 0.737968
O O12 0.610871 0.096092 0.570885
O O13 0.750000 0.660504 0.750000
O O14 0.363294 0.500000 0.000000
#
# Coordination Sequence:
#
# PCOD8263080 Si02
#       6
#    16  16  16  16  16  16
#     4  10  20  35  61  82 115 162 203 240 279 339
#     4  10  21  39  58  90 116 152 200 247 292 348
#     4  10  21  38  58  91 127 149 194 246 293 355
#     4  10  23  39  55  88 122 146 198 248 289 362
#     4  12  21  37  58  84 120 163 196 241 296 351
#     4  10  20  41  69  86 108 152 204 250 297 352
#
# _framework density 18.857533
#
# number of rings (size 3 to 8) (size 9 to 14) (size 15 to 20)
#    0.000    2.000    3.333    5.500    2.333    3.333 
#    6.000    0.000    0.000    0.500    0.000    0.000 
#    0.000    0.000    0.000    0.000    0.000    0.000 
#
# Total GULP energy -595293.613391 kJ/mol
# GULP energy per Si atom -12401.950279 kJ/mol
# Density = 1.881461 g / cm^3
# Si number density = 18.857533 Si / 1000 Ang^3
#
#
#
# Elastic Constant Matrix: (Units=GPa)
#
#
# Indices 1 2 3 4 5 6 
#
# 1 111.4130 14.6969 39.5309 0.0000 0.0000 0.0000
# 2 14.6969 65.8822 34.8859 0.0000 0.0000 0.0000
# 3 39.5309 34.8859 101.1220 0.0000 0.0000 0.0000
# 4 0.0000 0.0000 0.0000 10.7079 0.0000 0.0000
# 5 0.0000 0.0000 0.0000 0.0000 30.7615 0.0000
# 6 0.0000 0.0000 0.0000 0.0000 0.0000 9.1942
#
#
#
# Elastic Compliance Matrix: (Units=1/GPa)
#
#
# Indices 1 2 3 4 5 6 
#
# 1 0.010423 -0.000205 -0.004004 0.000000 0.000000 0.000000
# 2 -0.000205 0.018575 -0.006328 0.000000 0.000000 0.000000
# 3 -0.004004 -0.006328 0.013637 0.000000 0.000000 0.000000
# 4 0.000000 0.000000 0.000000 0.093389 0.000000 0.000000
# 5 0.000000 0.000000 0.000000 0.000000 0.032508 0.000000
# 6 0.000000 0.000000 0.000000 0.000000 0.000000 0.108765
#
#
# Mechanical properties :
#
#
# Convention : Reuss Voigt Hill
#
# Bulk Modulus (GPa) = 46.37845 50.73831 48.55838
# Shear Modulus (GPa) = 16.36345 22.75295 19.55820
#
# Velocity S-wave (km/s) = 2.94894 3.47734 3.22398
# Velocity P-wave (km/s) = 6.02017 6.56407 6.29800
#
# Compressibility (1/GPa) = 0.02156174
#
# Stress axis : x y z
#
# Youngs Moduli (GPa) = 95.93864 53.83529 73.32774
#
# Poissons Ratio (x) = 0.01104 0.29360
# Poissons Ratio (y) = 0.01967 0.46402
# Poissons Ratio (z) = 0.38414 0.34067
#
# Static dielectric constant tensor:
#      x y z
#    x 3.403290 0.000000 0.000000 
#    y 0.000000 3.120070 0.000000 
#    z 0.000000 0.000000 3.617490 
# 
# 
# High freq. dielectric constant tensor:
#      x y z
#    x 1.729570 0.000000 0.000000 
#    y 0.000000 1.701560 0.000000 
#    z 0.000000 0.000000 1.741300 
# 
# From -- ./inp_files/16328.got.cif
#   From: 2010.03.12/outbox.cif.g09.slc.cpg/sg64_9_cif.got.tgz:16328.got - 2010.04.10 20:19:32.
