data_PCOD8263911
_publ_section_title
;
Structure prediction by ZEFSAII (Michael W. Deem and Ramdas Pophale) SiO2 
 PCOD8263911
Probable space group: C M C A
;
_chemical_formula_sum "Si O2"
_cell_formula_units_Z 88
_cell_length_a 22.451406
_cell_length_b 16.833575
_cell_length_c 11.106545
_cell_angle_alpha 90.000000
_cell_angle_beta 90.000000
_cell_angle_gamma 90.000000
_cell_volume 4197.579037
_symmetry_space_group_name_H-M "C M C A"
_symmetry_group_IT_number 64
_symmetry_cell_setting 'orthorhombic'
loop_
_space_group_symop_operation_xyz
x,y,z
-x,1/2-y,1/2+z
x,-y,-z
-x,1/2+y,1/2-z
-x,-y,-z
x,1/2+y,1/2-z
-x,y,z
x,1/2-y,1/2+z
1/2+x,1/2+y,z
1/2-x,-y,1/2+z
1/2+x,1/2-y,-z
1/2-x,y,1/2-z
1/2-x,1/2-y,-z
1/2+x,y,1/2-z
1/2-x,1/2+y,z
1/2+x,-y,1/2+z
loop_
_atom_site_type_symbol
_atom_site_label
_atom_site_fract_x
_atom_site_fract_y
_atom_site_fract_z
Si Si1 0.348638 0.218177 0.862178
Si Si2 0.067965 0.346439 0.557701
Si Si3 0.068583 0.556482 0.207020
Si Si4 0.176809 0.086428 0.452677
Si Si5 0.250000 0.169413 0.250000
Si Si6 0.932483 0.882267 0.207203
O O1 0.391467 0.268347 0.949548
O O2 0.298578 0.274160 0.808723
O O3 0.387485 0.184775 0.751985
O O4 0.318534 0.148004 0.937796
O O5 0.087503 0.400667 0.669706
O O6 0.076998 0.396241 0.435238
O O7 0.000000 0.318892 0.572037
O O8 0.109223 0.586810 0.097925
O O9 0.080514 0.463325 0.222761
O O10 0.000000 0.573897 0.173496
O O11 0.222767 0.111470 0.349855
O O12 0.195859 0.000000 0.500000
O O13 0.000000 0.853590 0.231840
#
# Coordination Sequence:
#
# PCOD8263911 Si02
#       6
#    16  16  16  16   8  16
#     4  12  24  44  68  95 134 174 221 280 332 392
#     4  10  21  38  65  99 136 174 216 268 333 400
#     4  10  21  42  69 100 136 171 215 273 332 400
#     4  12  26  48  69  98 132 174 226 276 335 397
#     4  12  28  50  66  96 130 176 236 278 330 390
#     4  10  21  39  67 101 135 173 215 265 332 401
#
# _framework density 20.964464
#
# number of rings (size 3 to 8) (size 9 to 14) (size 15 to 20)
#    0.000    1.091    3.636    2.727    0.000    4.727 
#    3.273    0.000    0.000    0.000    0.000    0.000 
#    0.000    0.000    0.000    0.000    0.000    0.000 
#
# Total GULP energy -545836.978364 kJ/mol
# GULP energy per Si atom -12405.385872 kJ/mol
# Density = 2.091675 g / cm^3
# Si number density = 20.964464 Si / 1000 Ang^3
#
#
#
# Elastic Constant Matrix: (Units=GPa)
#
#
# Indices 1 2 3 4 5 6 
#
# 1 101.7014 64.0829 52.1708 0.0000 0.0000 0.0000
# 2 64.0829 113.0345 52.4382 0.0000 0.0000 0.0000
# 3 52.1708 52.4382 106.4559 0.0000 0.0000 0.0000
# 4 0.0000 0.0000 0.0000 44.8549 0.0000 0.0000
# 5 0.0000 0.0000 0.0000 0.0000 30.1469 0.0000
# 6 0.0000 0.0000 0.0000 0.0000 0.0000 38.6494
#
#
#
# Elastic Compliance Matrix: (Units=1/GPa)
#
#
# Indices 1 2 3 4 5 6 
#
# 1 0.016881 -0.007430 -0.004613 0.000000 0.000000 0.000000
# 2 -0.007430 0.014738 -0.003618 0.000000 0.000000 0.000000
# 3 -0.004613 -0.003618 0.013436 0.000000 0.000000 0.000000
# 4 0.000000 0.000000 0.000000 0.022294 0.000000 0.000000
# 5 0.000000 0.000000 0.000000 0.000000 0.033171 0.000000
# 6 0.000000 0.000000 0.000000 0.000000 0.000000 0.025874
#
#
# Mechanical properties :
#
#
# Convention : Reuss Voigt Hill
#
# Bulk Modulus (GPa) = 72.81992 73.17504 72.99748
# Shear Modulus (GPa) = 30.80827 32.89691 31.85259
#
# Velocity S-wave (km/s) = 3.83763 3.96558 3.90213
# Velocity P-wave (km/s) = 7.37881 7.47983 7.42949
#
# Compressibility (1/GPa) = 0.01373251
#
# Stress axis : x y z
#
# Youngs Moduli (GPa) = 59.23849 67.85211 74.42481
#
# Poissons Ratio (x) = 0.50417 0.34330
# Poissons Ratio (y) = 0.44017 0.26928
# Poissons Ratio (z) = 0.27325 0.24550
#
# Static dielectric constant tensor:
#      x y z
#    x 3.844180 0.000000 0.000000 
#    y 0.000000 3.831760 0.000000 
#    z 0.000000 0.000000 3.783750 
# 
# 
# High freq. dielectric constant tensor:
#      x y z
#    x 1.818120 0.000000 0.000000 
#    y 0.000000 1.827150 0.000000 
#    z 0.000000 0.000000 1.828910 
# 
# From -- ./inp_files/17154.got.cif
#   From: 2010.03.12/outbox.cif.g09.slc.cpg/sg64_9_cif.got.tgz:17154.got - 2010.04.10 20:19:32.
