data_PCOD8263793
_publ_section_title
;
Structure prediction by ZEFSAII (Michael W. Deem and Ramdas Pophale) SiO2 
 PCOD8263793
Probable space group: C M C A
;
_chemical_formula_sum "Si O2"
_cell_formula_units_Z 96
_cell_length_a 17.816416
_cell_length_b 13.682362
_cell_length_c 18.142071
_cell_angle_alpha 90.000000
_cell_angle_beta 90.000000
_cell_angle_gamma 90.000000
_cell_volume 4422.504499
_symmetry_space_group_name_H-M "C M C A"
_symmetry_group_IT_number 64
_symmetry_cell_setting 'orthorhombic'
loop_
_space_group_symop_operation_xyz
x,y,z
-x,1/2-y,1/2+z
x,-y,-z
-x,1/2+y,1/2-z
-x,-y,-z
x,1/2+y,1/2-z
-x,y,z
x,1/2-y,1/2+z
1/2+x,1/2+y,z
1/2-x,-y,1/2+z
1/2+x,1/2-y,-z
1/2-x,y,1/2-z
1/2-x,1/2-y,-z
1/2+x,y,1/2-z
1/2-x,1/2+y,z
1/2+x,-y,1/2+z
loop_
_atom_site_type_symbol
_atom_site_label
_atom_site_fract_x
_atom_site_fract_y
_atom_site_fract_z
Si Si1 0.085402 0.961308 0.616789
Si Si2 0.182127 0.636131 0.907094
Si Si3 0.648135 0.375273 0.125062
Si Si4 0.087262 0.945854 0.787217
Si Si5 0.167116 0.748401 0.264519
Si Si6 0.084510 0.771475 0.524902
O O1 0.104948 0.971060 0.702806
O O2 0.100164 0.852319 0.588173
O O3 0.000000 0.993599 0.601479
O O4 0.139667 0.035269 0.573634
O O5 0.271031 0.622976 0.914707
O O6 0.167121 0.664652 0.823034
O O7 0.147488 0.717535 0.961662
O O8 0.629215 0.482704 0.155545
O O9 0.637475 0.296409 0.189897
O O10 0.592376 0.336069 0.061460
O O11 0.114778 0.835418 0.798473
O O12 0.000000 0.952034 0.805440
O O13 0.250000 0.704552 0.250000
O O14 0.000000 0.781347 0.492791
#
# Coordination Sequence:
#
# PCOD8263793 Si02
#       6
#    16  16  16  16  16  16
#     4  10  21  37  63  95 125 162 210 264 316 368
#     4  11  23  39  63  92 126 170 210 261 316 373
#     4  11  23  41  64  93 127 165 211 258 319 374
#     4  11  23  38  63  95 125 160 206 261 319 373
#     4  10  23  39  63  89 123 163 212 261 308 373
#     4  11  23  42  64  93 131 169 212 264 314 374
#
# _framework density 21.707158
#
# number of rings (size 3 to 8) (size 9 to 14) (size 15 to 20)
#    0.000    1.333    3.333    2.000    2.333    3.333 
#    0.000    2.500    0.000    2.000    0.000    0.000 
#    0.000    0.000    0.000    0.000    0.000    0.000 
#
# Total GULP energy -595155.169145 kJ/mol
# GULP energy per Si atom -12399.066024 kJ/mol
# Density = 2.165775 g / cm^3
# Si number density = 21.707158 Si / 1000 Ang^3
#
#
#
# Elastic Constant Matrix: (Units=GPa)
#
#
# Indices 1 2 3 4 5 6 
#
# 1 99.3380 27.2376 40.6710 0.0000 0.0000 0.0000
# 2 27.2376 73.8803 0.8160 0.0000 0.0000 0.0000
# 3 40.6710 0.8160 50.2609 0.0000 0.0000 0.0000
# 4 0.0000 0.0000 0.0000 31.3301 0.0000 0.0000
# 5 0.0000 0.0000 0.0000 0.0000 35.0537 0.0000
# 6 0.0000 0.0000 0.0000 0.0000 0.0000 19.7653
#
#
#
# Elastic Compliance Matrix: (Units=1/GPa)
#
#
# Indices 1 2 3 4 5 6 
#
# 1 0.017586 -0.006327 -0.014128 0.000000 0.000000 0.000000
# 2 -0.006327 0.015814 0.004863 0.000000 0.000000 0.000000
# 3 -0.014128 0.004863 0.031249 0.000000 0.000000 0.000000
# 4 0.000000 0.000000 0.000000 0.031918 0.000000 0.000000
# 5 0.000000 0.000000 0.000000 0.000000 0.028528 0.000000
# 6 0.000000 0.000000 0.000000 0.000000 0.000000 0.050594
#
#
# Mechanical properties :
#
#
# Convention : Reuss Voigt Hill
#
# Bulk Modulus (GPa) = 29.88094 40.10314 34.99204
# Shear Modulus (GPa) = 22.93292 27.54679 25.23985
#
# Velocity S-wave (km/s) = 3.25386 3.56619 3.41360
# Velocity P-wave (km/s) = 5.28320 5.95581 5.62956
#
# Compressibility (1/GPa) = 0.03346615
#
# Stress axis : x y z
#
# Youngs Moduli (GPa) = 56.86464 63.23354 32.00084
#
# Poissons Ratio (x) = 0.40010 0.45209
# Poissons Ratio (y) = 0.35980 -0.15563
# Poissons Ratio (z) = 0.80336 -0.30752
#
# Static dielectric constant tensor:
#      x y z
#    x 3.940110 0.000000 0.000000 
#    y 0.000000 3.711030 0.000000 
#    z 0.000000 0.000000 3.809550 
# 
# 
# High freq. dielectric constant tensor:
#      x y z
#    x 1.852550 0.000000 0.000000 
#    y 0.000000 1.844690 0.000000 
#    z 0.000000 0.000000 1.848870 
# 
# From -- ./inp_files/40879.got.cif
#   From: 2010.03.12/outbox.cif.g09.slc.cpg/sg64_21_cif.got.tgz:40879.got - 2010.04.10 20:19:32.
