data_PCOD8263944
_publ_section_title
;
Structure prediction by ZEFSAII (Michael W. Deem and Ramdas Pophale) SiO2 
 PCOD8263944
Probable space group: C M C A
;
_chemical_formula_sum "Si O2"
_cell_formula_units_Z 80
_cell_length_a 8.828131
_cell_length_b 24.473443
_cell_length_c 18.672879
_cell_angle_alpha 90.000000
_cell_angle_beta 90.000000
_cell_angle_gamma 90.000000
_cell_volume 4034.364406
_symmetry_space_group_name_H-M "C M C A"
_symmetry_group_IT_number 64
_symmetry_cell_setting 'orthorhombic'
loop_
_space_group_symop_operation_xyz
x,y,z
-x,1/2-y,1/2+z
x,-y,-z
-x,1/2+y,1/2-z
-x,-y,-z
x,1/2+y,1/2-z
-x,y,z
x,1/2-y,1/2+z
1/2+x,1/2+y,z
1/2-x,-y,1/2+z
1/2+x,1/2-y,-z
1/2-x,y,1/2-z
1/2-x,1/2-y,-z
1/2+x,y,1/2-z
1/2-x,1/2+y,z
1/2+x,-y,1/2+z
loop_
_atom_site_type_symbol
_atom_site_label
_atom_site_fract_x
_atom_site_fract_y
_atom_site_fract_z
Si Si1 0.325886 0.940974 0.673465
Si Si2 0.819975 0.736969 0.825564
Si Si3 0.821163 0.839659 0.602654
Si Si4 0.172750 0.465226 0.434240
Si Si5 0.822026 0.649855 0.941143
O O1 0.500000 0.921988 0.680323
O O2 0.250000 0.943653 0.750000
O O3 0.235063 0.899543 0.623344
O O4 0.314149 0.000716 0.638760
O O5 0.750000 0.719387 0.750000
O O6 0.762147 0.796653 0.846820
O O7 0.760152 0.693812 0.884329
O O8 0.000000 0.737864 0.819939
O O9 0.773965 0.830009 0.520154
O O10 0.000000 0.834869 0.614571
O O11 0.243783 0.500000 0.500000
O O12 0.258885 0.409180 0.421858
O O13 0.000000 0.450934 0.453794
O O14 0.000000 0.645066 0.935681
#
# Coordination Sequence:
#
# PCOD8263944 Si02
#       5
#    16  16  16  16  16
#     4  11  23  39  60  89 123 159 199 246 300 357
#     4  11  24  42  61  87 122 160 200 246 300 358
#     4  11  22  39  63  91 119 155 200 249 302 355
#     4  10  21  39  62  88 119 157 199 244 295 350
#     4  10  23  40  63  91 120 156 201 248 299 356
#
# _framework density 19.829642
#
# number of rings (size 3 to 8) (size 9 to 14) (size 15 to 20)
#    0.000    1.400    2.000    3.000    0.000    5.200 
#    0.000    4.000    0.000    0.000    0.000    0.000 
#    0.000    0.000    0.000    0.000    0.000    0.000 
#
# Total GULP energy -496220.402185 kJ/mol
# GULP energy per Si atom -12405.510055 kJ/mol
# Density = 1.978451 g / cm^3
# Si number density = 19.829642 Si / 1000 Ang^3
#
#
#
# Elastic Constant Matrix: (Units=GPa)
#
#
# Indices 1 2 3 4 5 6 
#
# 1 51.8794 19.9665 53.0807 0.0000 0.0000 0.0000
# 2 19.9665 75.3174 28.8982 0.0000 0.0000 0.0000
# 3 53.0807 28.8982 130.9838 0.0000 0.0000 0.0000
# 4 0.0000 0.0000 0.0000 34.7254 0.0000 0.0000
# 5 0.0000 0.0000 0.0000 0.0000 31.2225 0.0000
# 6 0.0000 0.0000 0.0000 0.0000 0.0000 36.6784
#
#
#
# Elastic Compliance Matrix: (Units=1/GPa)
#
#
# Indices 1 2 3 4 5 6 
#
# 1 0.034037 -0.004076 -0.012894 0.000000 0.000000 0.000000
# 2 -0.004076 0.014993 -0.001656 0.000000 0.000000 0.000000
# 3 -0.012894 -0.001656 0.013225 0.000000 0.000000 0.000000
# 4 0.000000 0.000000 0.000000 0.028797 0.000000 0.000000
# 5 0.000000 0.000000 0.000000 0.000000 0.032028 0.000000
# 6 0.000000 0.000000 0.000000 0.000000 0.000000 0.027264
#
#
# Mechanical properties :
#
#
# Convention : Reuss Voigt Hill
#
# Bulk Modulus (GPa) = 39.99516 51.34126 45.66821
# Shear Modulus (GPa) = 25.51924 30.94096 28.23010
#
# Velocity S-wave (km/s) = 3.59126 3.95440 3.77720
# Velocity P-wave (km/s) = 6.11632 6.84084 6.48870
#
# Compressibility (1/GPa) = 0.02500302
#
# Stress axis : x y z
#
# Youngs Moduli (GPa) = 29.38007 66.69754 75.61349
#
# Poissons Ratio (x) = 0.27185 0.97496
# Poissons Ratio (y) = 0.11975 0.12523
# Poissons Ratio (z) = 0.37883 0.11046
#
# Static dielectric constant tensor:
#      x y z
#    x 3.623480 0.000000 0.000000 
#    y 0.000000 3.612310 0.000000 
#    z 0.000000 0.000000 3.766400 
# 
# 
# High freq. dielectric constant tensor:
#      x y z
#    x 1.775610 0.000000 0.000000 
#    y 0.000000 1.777240 0.000000 
#    z 0.000000 0.000000 1.786330 
# 
# From -- ./inp_files/29754.got.cif
#   From: 2010.03.12/outbox.cif.g09.slc.cpg/sg64_15_cif.got.tgz:29754.got - 2010.04.10 20:19:32.
