data_PCOD8263640
_publ_section_title
;
Structure prediction by ZEFSAII (Michael W. Deem and Ramdas Pophale) SiO2 
 PCOD8263640
Probable space group: C M C A
;
_chemical_formula_sum "Si O2"
_cell_formula_units_Z 88
_cell_length_a 15.093621
_cell_length_b 35.372774
_cell_length_c 7.552563
_cell_angle_alpha 90.000000
_cell_angle_beta 90.000000
_cell_angle_gamma 90.000000
_cell_volume 4032.337890
_symmetry_space_group_name_H-M "C M C A"
_symmetry_group_IT_number 64
_symmetry_cell_setting 'orthorhombic'
loop_
_space_group_symop_operation_xyz
x,y,z
-x,1/2-y,1/2+z
x,-y,-z
-x,1/2+y,1/2-z
-x,-y,-z
x,1/2+y,1/2-z
-x,y,z
x,1/2-y,1/2+z
1/2+x,1/2+y,z
1/2-x,-y,1/2+z
1/2+x,1/2-y,-z
1/2-x,y,1/2-z
1/2-x,1/2-y,-z
1/2+x,y,1/2-z
1/2-x,1/2+y,z
1/2+x,-y,1/2+z
loop_
_atom_site_type_symbol
_atom_site_label
_atom_site_fract_x
_atom_site_fract_y
_atom_site_fract_z
Si Si1 0.105502 0.707760 0.774647
Si Si2 0.397739 0.492872 0.709605
Si Si3 0.105720 0.710015 0.164805
Si Si4 0.896557 0.656499 0.466848
Si Si5 0.750000 0.549573 0.750000
Si Si6 0.688134 0.919628 0.602755
O O1 0.140765 0.698609 0.970781
O O2 0.142059 0.748503 0.713795
O O3 0.143025 0.674925 0.646126
O O4 0.000000 0.708662 0.772148
O O5 0.386255 0.500000 0.500000
O O6 0.500000 0.497280 0.765923
O O7 0.338899 0.525889 0.792299
O O8 0.360277 0.454238 0.794046
O O9 0.000000 0.710537 0.169031
O O10 0.144545 0.678859 0.299726
O O11 0.881472 0.611623 0.460324
O O12 0.000000 0.663714 0.466672
O O13 0.746959 0.572076 0.565260
O O14 0.750000 0.900544 0.750000
#
# Coordination Sequence:
#
# PCOD8263640 Si02
#       6
#    16  16  16  16   8  16
#     4   9  15  27  50  83 119 159 208 261 321 388
#     4  11  22  43  75 104 130 169 221 269 325 403
#     4   9  15  27  52  83 120 161 205 262 322 385
#     4  10  21  35  56  91 128 162 208 268 336 392
#     4  12  24  46  72  98 130 182 218 264 334 402
#     4  12  25  43  65  92 132 173 212 274 333 395
#
# _framework density 21.823567000000001
#
# number of rings (size 3 to 8) (size 9 to 14) (size 15 to 20)
#    0.000    1.636    4.545    1.091    0.000    3.636 
#    0.000    0.000    0.000    1.091    0.000    0.000 
#    0.000    0.000    0.000    0.000    0.000    0.000 
#
# Total GULP energy -545164.440612 kJ/mol
# GULP energy per Si atom -12390.100923 kJ/mol
# Density = 2.177390 g / cm^3
# Si number density = 21.823567 Si / 1000 Ang^3
#
#
#
# Elastic Constant Matrix: (Units=GPa)
#
#
# Indices 1 2 3 4 5 6 
#
# 1 46.0117 7.7488 20.4921 0.0000 0.0000 0.0000
# 2 7.7488 117.6782 65.7697 0.0000 0.0000 0.0000
# 3 20.4921 65.7697 181.2988 0.0000 0.0000 0.0000
# 4 0.0000 0.0000 0.0000 -30.0983 0.0000 0.0000
# 5 0.0000 0.0000 0.0000 0.0000 18.1128 0.0000
# 6 0.0000 0.0000 0.0000 0.0000 0.0000 -2.9123
#
#
#
# Elastic Compliance Matrix: (Units=1/GPa)
#
#
# Indices 1 2 3 4 5 6 
#
# 1 0.022886 -0.000077 -0.002559 0.000000 0.000000 0.000000
# 2 -0.000077 0.010659 -0.003858 0.000000 0.000000 0.000000
# 3 -0.002559 -0.003858 0.007205 0.000000 0.000000 0.000000
# 4 0.000000 0.000000 0.000000 -0.033224 0.000000 0.000000
# 5 0.000000 0.000000 0.000000 0.000000 0.055210 0.000000
# 6 0.000000 0.000000 0.000000 0.000000 0.000000 -0.343371
#
#
# Mechanical properties :
#
#
# Convention : Reuss Voigt Hill
#
# Bulk Modulus (GPa) = 36.02030 59.22336 47.62183
# Shear Modulus (GPa) = -19.35029 13.75229 -2.79900
#
# Velocity S-wave (km/s) = -2.98093 2.51302 -1.13373
# Velocity P-wave (km/s) = 2.16637 5.96796 4.48942
#
# Compressibility (1/GPa) = 0.02776213
#
# Stress axis : x y z
#
# Youngs Moduli (GPa) = 43.69443 93.81669 138.80025
#
# Poissons Ratio (x) = 0.00721 0.35518
# Poissons Ratio (y) = 0.00336 0.53551
# Poissons Ratio (z) = 0.11181 0.36196
#
# Static dielectric constant tensor:
#      x y z
#    x 3.558890 0.000000 0.000000 
#    y 0.000000 3.720320 0.000000 
#    z 0.000000 0.000000 4.399780 
# 
# 
# High freq. dielectric constant tensor:
#      x y z
#    x 1.829520 0.000000 0.000000 
#    y 0.000000 1.843490 0.000000 
#    z 0.000000 0.000000 1.883570 
# 
# From -- ./inp_files/7317.got.cif
#   From: 2010.03.12/outbox.cif.g09.slc.cpg/sg64_4_cif.got.tgz:7317.got - 2010.04.10 20:19:32.
