data_PCOD8263304
_publ_section_title
;
Structure prediction by ZEFSAII (Michael W. Deem and Ramdas Pophale) SiO2 
 PCOD8263304
Probable space group: C M C A
;
_chemical_formula_sum "Si O2"
_cell_formula_units_Z 80
_cell_length_a 14.917557
_cell_length_b 10.239715
_cell_length_c 26.178457
_cell_angle_alpha 90.000000
_cell_angle_beta 90.000000
_cell_angle_gamma 90.000000
_cell_volume 3998.799417
_symmetry_space_group_name_H-M "C M C A"
_symmetry_group_IT_number 64
_symmetry_cell_setting 'orthorhombic'
loop_
_space_group_symop_operation_xyz
x,y,z
-x,1/2-y,1/2+z
x,-y,-z
-x,1/2+y,1/2-z
-x,-y,-z
x,1/2+y,1/2-z
-x,y,z
x,1/2-y,1/2+z
1/2+x,1/2+y,z
1/2-x,-y,1/2+z
1/2+x,1/2-y,-z
1/2-x,y,1/2-z
1/2-x,1/2-y,-z
1/2+x,y,1/2-z
1/2-x,1/2+y,z
1/2+x,-y,1/2+z
loop_
_atom_site_type_symbol
_atom_site_label
_atom_site_fract_x
_atom_site_fract_y
_atom_site_fract_z
Si Si1 0.604183 0.973374 0.393157
Si Si2 0.839597 0.035531 0.777904
Si Si3 0.748889 0.124099 0.965293
Si Si4 0.401207 0.760116 0.717343
Si Si5 0.397519 0.726563 0.605732
O O1 0.500000 0.928024 0.389884
O O2 0.657491 0.885648 0.434087
O O3 0.655038 0.958630 0.338983
O O4 0.610002 0.122784 0.412064
O O5 0.750000 0.087853 0.750000
O O6 0.852765 0.886900 0.758499
O O7 0.910574 0.140982 0.756869
O O8 0.664500 0.132554 0.927468
O O9 0.750000 0.250000 0.000000
O O10 0.732212 0.000000 0.000000
O O11 0.500000 0.812809 0.702972
O O12 0.359239 0.713796 0.663566
O O13 0.500000 0.676825 0.600866
#
# Coordination Sequence:
#
# PCOD8263304 Si02
#       5
#    16  16  16  16  16
#     4  10  22  42  64  87 123 172 210 241 304 391
#     4  11  21  36  60  90 123 158 198 244 295 353
#     4  12  24  41  65  92 119 153 209 269 317 367
#     4  10  20  37  59  86 121 161 197 237 294 363
#     4   9  20  40  63  87 124 165 202 248 311 374
#
# _framework density 20.006004999999998
#
# number of rings (size 3 to 8) (size 9 to 14) (size 15 to 20)
#    0.000    1.600    2.000    4.800    0.000    3.200 
#    3.600    0.000    0.000    0.000    0.000    0.000 
#    0.000    0.000    0.000    0.000    0.000    0.000 
#
# Total GULP energy -495852.798997 kJ/mol
# GULP energy per Si atom -12396.319975 kJ/mol
# Density = 1.996047 g / cm^3
# Si number density = 20.006005 Si / 1000 Ang^3
#
#
#
# Elastic Constant Matrix: (Units=GPa)
#
#
# Indices 1 2 3 4 5 6 
#
# 1 101.7159 30.1544 44.2894 0.0000 0.0000 0.0000
# 2 30.1544 117.1596 68.3026 0.0000 0.0000 0.0000
# 3 44.2894 68.3026 100.5755 0.0000 0.0000 0.0000
# 4 0.0000 0.0000 0.0000 42.4200 0.0000 0.0000
# 5 0.0000 0.0000 0.0000 0.0000 31.4724 0.0000
# 6 0.0000 0.0000 0.0000 0.0000 0.0000 28.4380
#
#
#
# Elastic Compliance Matrix: (Units=1/GPa)
#
#
# Indices 1 2 3 4 5 6 
#
# 1 0.012164 -0.000013 -0.005347 0.000000 0.000000 0.000000
# 2 -0.000013 0.014129 -0.009590 0.000000 0.000000 0.000000
# 3 -0.005347 -0.009590 0.018810 0.000000 0.000000 0.000000
# 4 0.000000 0.000000 0.000000 0.023574 0.000000 0.000000
# 5 0.000000 0.000000 0.000000 0.000000 0.031774 0.000000
# 6 0.000000 0.000000 0.000000 0.000000 0.000000 0.035164
#
#
# Mechanical properties :
#
#
# Convention : Reuss Voigt Hill
#
# Bulk Modulus (GPa) = 65.77867 67.21598 66.49733
# Shear Modulus (GPa) = 29.31120 32.24638 30.77879
#
# Velocity S-wave (km/s) = 3.83184 4.01912 3.92660
# Velocity P-wave (km/s) = 7.24763 7.43025 7.33951
#
# Compressibility (1/GPa) = 0.01520250
#
# Stress axis : x y z
#
# Youngs Moduli (GPa) = 82.21263 70.77410 53.16289
#
# Poissons Ratio (x) = 0.00093 0.28428
# Poissons Ratio (y) = 0.00108 0.50982
# Poissons Ratio (z) = 0.43962 0.67871
#
# Static dielectric constant tensor:
#      x y z
#    x 3.606200 0.000000 0.000000 
#    y 0.000000 3.381200 0.000000 
#    z 0.000000 0.000000 3.628410 
# 
# 
# High freq. dielectric constant tensor:
#      x y z
#    x 1.784600 0.000000 0.000000 
#    y 0.000000 1.771290 0.000000 
#    z 0.000000 0.000000 1.782160 
# 
# From -- ./inp_files/44925.got.cif
#   From: 2010.03.12/outbox.cif.g09.slc.cpg/sg64_23_cif.got.tgz:44925.got - 2010.04.10 20:19:32.
