data_PCOD8263864
_publ_section_title
;
Structure prediction by ZEFSAII (Michael W. Deem and Ramdas Pophale) SiO2 
 PCOD8263864
Probable space group: C M C A
;
_chemical_formula_sum "Si O2"
_cell_formula_units_Z 72
_cell_length_a 14.079098
_cell_length_b 19.480437
_cell_length_c 10.680623
_cell_angle_alpha 90.000000
_cell_angle_beta 90.000000
_cell_angle_gamma 90.000000
_cell_volume 2929.342232
_symmetry_space_group_name_H-M "C M C A"
_symmetry_group_IT_number 64
_symmetry_cell_setting 'orthorhombic'
loop_
_space_group_symop_operation_xyz
x,y,z
-x,1/2-y,1/2+z
x,-y,-z
-x,1/2+y,1/2-z
-x,-y,-z
x,1/2+y,1/2-z
-x,y,z
x,1/2-y,1/2+z
1/2+x,1/2+y,z
1/2-x,-y,1/2+z
1/2+x,1/2-y,-z
1/2-x,y,1/2-z
1/2-x,1/2-y,-z
1/2+x,y,1/2-z
1/2-x,1/2+y,z
1/2+x,-y,1/2+z
loop_
_atom_site_type_symbol
_atom_site_label
_atom_site_fract_x
_atom_site_fract_y
_atom_site_fract_z
Si Si1 0.392248 0.575266 0.947531
Si Si2 0.886902 0.198063 0.365930
Si Si3 0.608036 0.210088 0.410751
Si Si4 0.750000 0.950543 0.250000
Si Si5 0.895143 0.044457 0.376554
O O1 0.500000 0.579618 0.889072
O O2 0.384765 0.629143 0.060425
O O3 0.305234 0.595497 0.852967
O O4 0.370207 0.500000 0.000000
O O5 0.843434 0.245826 0.476494
O O6 0.853842 0.120727 0.399936
O O7 0.000000 0.204468 0.361236
O O8 0.846400 0.220522 0.227948
O O9 0.500000 0.235269 0.404844
O O10 0.833990 0.001810 0.282134
O O11 0.000000 0.052013 0.317425
O O12 0.898209 0.000000 0.500000
#
# Coordination Sequence:
#
# PCOD8263864 Si02
#       5
#    16  16  16   8  16
#     4  10  21  38  61  88 120 160 206 256 311 372
#     4   9  18  35  60  89 122 160 204 253 308 370
#     4   9  18  34  58  88 121 160 204 252 307 369
#     4  12  22  36  60  90 120 158 210 262 310 364
#     4  10  22  39  60  89 125 164 206 255 312 373
#
# _framework density 24.578894999999999
#
# number of rings (size 3 to 8) (size 9 to 14) (size 15 to 20)
#    0.000    2.222    0.000    2.667    0.000    5.333 
#    0.000    7.778    0.000    8.000    0.000    0.000 
#    0.000    0.000    0.000    0.000    0.000    0.000 
#
# Total GULP energy -445979.445654 kJ/mol
# GULP energy per Si atom -12388.317935 kJ/mol
# Density = 2.452295 g / cm^3
# Si number density = 24.578895 Si / 1000 Ang^3
#
#
#
# Elastic Constant Matrix: (Units=GPa)
#
#
# Indices 1 2 3 4 5 6 
#
# 1 71.0854 -8.1033 42.2584 0.0000 0.0000 0.0000
# 2 -8.1033 104.5838 61.3091 0.0000 0.0000 0.0000
# 3 42.2584 61.3091 147.0901 0.0000 0.0000 0.0000
# 4 0.0000 0.0000 0.0000 38.3321 0.0000 0.0000
# 5 0.0000 0.0000 0.0000 0.0000 33.3202 0.0000
# 6 0.0000 0.0000 0.0000 0.0000 0.0000 -28.7814
#
#
#
# Elastic Compliance Matrix: (Units=1/GPa)
#
#
# Indices 1 2 3 4 5 6 
#
# 1 0.019772 0.006434 -0.008362 0.000000 0.000000 0.000000
# 2 0.006434 0.014747 -0.007995 0.000000 0.000000 0.000000
# 3 -0.008362 -0.007995 0.012534 0.000000 0.000000 0.000000
# 4 0.000000 0.000000 0.000000 0.026088 0.000000 0.000000
# 5 0.000000 0.000000 0.000000 0.000000 0.030012 0.000000
# 6 0.000000 0.000000 0.000000 0.000000 0.000000 -0.034745
#
#
# Mechanical properties :
#
#
# Convention : Reuss Voigt Hill
#
# Bulk Modulus (GPa) = 36.75665 57.07640 46.91652
# Shear Modulus (GPa) = 51.37494 23.72718 37.55106
#
# Velocity S-wave (km/s) = 4.57684 3.11038 3.91292
# Velocity P-wave (km/s) = 6.55110 6.01426 6.28841
#
# Compressibility (1/GPa) = 0.02720596
#
# Stress axis : x y z
#
# Youngs Moduli (GPa) = 50.57610 67.80926 79.78575
#
# Poissons Ratio (x) = -0.43629 0.66719
# Poissons Ratio (y) = -0.32541 0.63791
# Poissons Ratio (z) = 0.42293 0.54216
#
# Static dielectric constant tensor:
#      x y z
#    x 5.487210 0.000000 0.000000 
#    y 0.000000 4.333740 0.000000 
#    z 0.000000 0.000000 4.565520 
# 
# 
# High freq. dielectric constant tensor:
#      x y z
#    x 1.973320 0.000000 0.000000 
#    y 0.000000 1.967300 0.000000 
#    z 0.000000 0.000000 1.976080 
# 
# From -- ./inp_files/14332.got.cif
#   From: 2010.03.12/outbox.cif.g09.slc.cpg/sg64_8_cif.got.tgz:14332.got - 2010.04.10 20:19:32.
