data_PCOD8263087
_publ_section_title
;
Structure prediction by ZEFSAII (Michael W. Deem and Ramdas Pophale) SiO2 
 PCOD8263087
Probable space group: C M C A
;
_chemical_formula_sum "Si O2"
_cell_formula_units_Z 96
_cell_length_a 14.470481
_cell_length_b 22.195473
_cell_length_c 13.691644
_cell_angle_alpha 90.000000
_cell_angle_beta 90.000000
_cell_angle_gamma 90.000000
_cell_volume 4397.470860
_symmetry_space_group_name_H-M "C M C A"
_symmetry_group_IT_number 64
_symmetry_cell_setting 'orthorhombic'
loop_
_space_group_symop_operation_xyz
x,y,z
-x,1/2-y,1/2+z
x,-y,-z
-x,1/2+y,1/2-z
-x,-y,-z
x,1/2+y,1/2-z
-x,y,z
x,1/2-y,1/2+z
1/2+x,1/2+y,z
1/2-x,-y,1/2+z
1/2+x,1/2-y,-z
1/2-x,y,1/2-z
1/2-x,1/2-y,-z
1/2+x,y,1/2-z
1/2-x,1/2+y,z
1/2+x,-y,1/2+z
loop_
_atom_site_type_symbol
_atom_site_label
_atom_site_fract_x
_atom_site_fract_y
_atom_site_fract_z
Si Si1 0.105865 0.237359 0.216594
Si Si2 0.106408 0.128296 0.696547
Si Si3 0.896361 0.890866 0.085316
Si Si4 0.208175 0.431588 0.017347
Si Si5 0.355427 0.231697 0.495183
Si Si6 0.602286 0.340600 0.607737
O O1 0.149025 0.304370 0.208484
O O2 0.117310 0.206088 0.111202
O O3 0.150591 0.194503 0.300315
O O4 0.000000 0.243742 0.248563
O O5 0.115095 0.094260 0.800053
O O6 0.165468 0.091780 0.618225
O O7 0.000000 0.130639 0.661373
O O8 0.819660 0.926326 0.022385
O O9 0.000000 0.909114 0.050463
O O10 0.881583 0.819150 0.073316
O O11 0.178893 0.500000 0.000000
O O12 0.170312 0.393938 0.925024
O O13 0.250000 0.250000 0.500000
O O14 0.411067 0.292671 0.519668
O O15 0.500000 0.366809 0.632909
#
# Coordination Sequence:
#
# PCOD8263087 Si02
#       6
#    16  16  16  16  16  16
#     4  10  20  35  61  99 139 169 207 272 343 406
#     4  10  20  38  68  99 129 170 217 275 339 402
#     4  11  23  42  66  95 129 173 228 280 336 395
#     4  12  26  44  65  96 136 185 231 273 324 400
#     4  12  21  36  64  99 135 174 212 277 349 406
#     4  11  22  39  64 100 137 171 215 272 339 402
#
# _framework density 21.830731
#
# number of rings (size 3 to 8) (size 9 to 14) (size 15 to 20)
#    0.000    1.000    5.000    2.500    0.000    2.333 
#    0.000    3.333    0.000    2.000    0.000    0.000 
#    0.000    0.000    0.000    0.000    0.000    0.000 
#
# Total GULP energy -595179.295801 kJ/mol
# GULP energy per Si atom -12399.568663 kJ/mol
# Density = 2.178104 g / cm^3
# Si number density = 21.830731 Si / 1000 Ang^3
#
#
#
# Elastic Constant Matrix: (Units=GPa)
#
#
# Indices 1 2 3 4 5 6 
#
# 1 113.9615 34.8275 45.6591 0.0000 0.0000 0.0000
# 2 34.8275 127.2727 60.2121 0.0000 0.0000 0.0000
# 3 45.6591 60.2121 123.4780 0.0000 0.0000 0.0000
# 4 0.0000 0.0000 0.0000 25.1292 0.0000 0.0000
# 5 0.0000 0.0000 0.0000 0.0000 30.3014 0.0000
# 6 0.0000 0.0000 0.0000 0.0000 0.0000 12.5523
#
#
#
# Elastic Compliance Matrix: (Units=1/GPa)
#
#
# Indices 1 2 3 4 5 6 
#
# 1 0.010475 -0.001344 -0.003218 0.000000 0.000000 0.000000
# 2 -0.001344 0.010386 -0.004567 0.000000 0.000000 0.000000
# 3 -0.003218 -0.004567 0.011516 0.000000 0.000000 0.000000
# 4 0.000000 0.000000 0.000000 0.039794 0.000000 0.000000
# 5 0.000000 0.000000 0.000000 0.000000 0.033002 0.000000
# 6 0.000000 0.000000 0.000000 0.000000 0.000000 0.079667
#
#
# Mechanical properties :
#
#
# Convention : Reuss Voigt Hill
#
# Bulk Modulus (GPa) = 70.83373 71.78997 71.31185
# Shear Modulus (GPa) = 24.06113 28.53082 26.29597
#
# Velocity S-wave (km/s) = 3.32349 3.61904 3.47441
# Velocity P-wave (km/s) = 6.87348 7.10067 6.98800
#
# Compressibility (1/GPa) = 0.01411757
#
# Stress axis : x y z
#
# Youngs Moduli (GPa) = 95.46609 96.28548 86.83718
#
# Poissons Ratio (x) = 0.12941 0.27944
# Poissons Ratio (y) = 0.12831 0.39663
# Poissons Ratio (z) = 0.30721 0.43978
#
# Static dielectric constant tensor:
#      x y z
#    x 4.079630 0.000000 0.000000 
#    y 0.000000 3.566270 0.000000 
#    z 0.000000 0.000000 4.096710 
# 
# 
# High freq. dielectric constant tensor:
#      x y z
#    x 1.868750 0.000000 0.000000 
#    y 0.000000 1.807160 0.000000 
#    z 0.000000 0.000000 1.864590 
# 
# From -- ./inp_files/23849.got.cif
#   From: 2010.03.12/outbox.cif.g09.slc.cpg/sg64_12_cif.got.tgz:23849.got - 2010.04.10 20:19:32.
