data_PCOD8263963
_publ_section_title
;
Structure prediction by ZEFSAII (Michael W. Deem and Ramdas Pophale) SiO2 
 PCOD8263963
Probable space group: C M C A
;
_chemical_formula_sum "Si O2"
_cell_formula_units_Z 64
_cell_length_a 19.803279
_cell_length_b 8.442099
_cell_length_c 17.164332
_cell_angle_alpha 90.000000
_cell_angle_beta 90.000000
_cell_angle_gamma 90.000000
_cell_volume 2869.554339
_symmetry_space_group_name_H-M "C M C A"
_symmetry_group_IT_number 64
_symmetry_cell_setting 'orthorhombic'
loop_
_space_group_symop_operation_xyz
x,y,z
-x,1/2-y,1/2+z
x,-y,-z
-x,1/2+y,1/2-z
-x,-y,-z
x,1/2+y,1/2-z
-x,y,z
x,1/2-y,1/2+z
1/2+x,1/2+y,z
1/2-x,-y,1/2+z
1/2+x,1/2-y,-z
1/2-x,y,1/2-z
1/2-x,1/2-y,-z
1/2+x,y,1/2-z
1/2-x,1/2+y,z
1/2+x,-y,1/2+z
loop_
_atom_site_type_symbol
_atom_site_label
_atom_site_fract_x
_atom_site_fract_y
_atom_site_fract_z
Si Si1 0.197106 0.586172 0.080380
Si Si2 0.924648 0.916699 0.797875
Si Si3 0.426120 0.239152 0.140362
Si Si4 0.705219 0.717913 0.671817
O O1 0.127175 0.685761 0.075067
O O2 0.256650 0.708925 0.097374
O O3 0.195090 0.466796 0.154027
O O4 0.210950 0.500000 0.000000
O O5 0.928517 0.898577 0.704981
O O6 0.868141 0.797759 0.828692
O O7 0.000000 0.878458 0.832464
O O8 0.903084 0.096309 0.818750
O O9 0.500000 0.258440 0.101213
O O10 0.750000 0.740330 0.750000
#
# Coordination Sequence:
#
# PCOD8263963 Si02
#       4
#    16  16  16  16
#     4  12  26  42  63  94 135 174 212 266 323 378
#     4  10  21  39  67  98 126 159 212 273 317 372
#     4  10  21  39  63  95 129 165 210 261 322 383
#     4  12  24  41  67  96 126 167 221 264 317 379
#
# _framework density 22.303115999999999
#
# number of rings (size 3 to 8) (size 9 to 14) (size 15 to 20)
#    0.000    1.000    2.500    4.500    0.000    3.500 
#    0.000    0.000    0.000    3.750    0.000    0.000 
#    0.000    0.000    0.000    0.000    0.000    0.000 
#
# Total GULP energy -396711.594000 kJ/mol
# GULP energy per Si atom -12397.237313 kJ/mol
# Density = 2.225235 g / cm^3
# Si number density = 22.303116 Si / 1000 Ang^3
#
#
#
# Elastic Constant Matrix: (Units=GPa)
#
#
# Indices 1 2 3 4 5 6 
#
# 1 140.3533 33.1620 14.2537 0.0000 0.0000 0.0000
# 2 33.1620 87.2969 1.2578 0.0000 0.0000 0.0000
# 3 14.2537 1.2578 41.4245 0.0000 0.0000 0.0000
# 4 0.0000 0.0000 0.0000 26.5755 0.0000 0.0000
# 5 0.0000 0.0000 0.0000 0.0000 21.5910 0.0000
# 6 0.0000 0.0000 0.0000 0.0000 0.0000 37.6885
#
#
#
# Elastic Compliance Matrix: (Units=1/GPa)
#
#
# Indices 1 2 3 4 5 6 
#
# 1 0.008119 -0.003045 -0.002701 0.000000 0.000000 0.000000
# 2 -0.003045 0.012602 0.000665 0.000000 0.000000 0.000000
# 3 -0.002701 0.000665 0.025050 0.000000 0.000000 0.000000
# 4 0.000000 0.000000 0.000000 0.037629 0.000000 0.000000
# 5 0.000000 0.000000 0.000000 0.000000 0.046316 0.000000
# 6 0.000000 0.000000 0.000000 0.000000 0.000000 0.026533
#
#
# Mechanical properties :
#
#
# Convention : Reuss Voigt Hill
#
# Bulk Modulus (GPa) = 28.08329 40.71353 34.39841
# Shear Modulus (GPa) = 28.04581 31.86441 29.95511
#
# Velocity S-wave (km/s) = 3.54995 3.78391 3.66880
# Velocity P-wave (km/s) = 5.42419 6.11432 5.77957
#
# Compressibility (1/GPa) = 0.03560836
#
# Stress axis : x y z
#
# Youngs Moduli (GPa) = 123.17265 79.35016 39.92089
#
# Poissons Ratio (x) = 0.24164 0.10783
# Poissons Ratio (y) = 0.37508 -0.02655
# Poissons Ratio (z) = 0.33270 -0.05278
#
# Static dielectric constant tensor:
#      x y z
#    x 4.402970 0.000000 0.000000 
#    y 0.000000 4.161790 0.000000 
#    z 0.000000 0.000000 3.404390 
# 
# 
# High freq. dielectric constant tensor:
#      x y z
#    x 1.903410 0.000000 0.000000 
#    y 0.000000 1.892920 0.000000 
#    z 0.000000 0.000000 1.827510 
# 
# From -- ./inp_files/33884.got.cif
#   From: 2010.03.12/outbox.cif.g09.slc.cpg/sg64_17_cif.got.tgz:33884.got - 2010.04.10 20:19:32.
