data_PCOD8263758
_publ_section_title
;
Structure prediction by ZEFSAII (Michael W. Deem and Ramdas Pophale) SiO2 
 PCOD8263758
Probable space group: C M C A
;
_chemical_formula_sum "Si O2"
_cell_formula_units_Z 56
_cell_length_a 24.982152
_cell_length_b 17.598792
_cell_length_c 4.948289
_cell_angle_alpha 90.000000
_cell_angle_beta 90.000000
_cell_angle_gamma 90.000000
_cell_volume 2175.543448
_symmetry_space_group_name_H-M "C M C A"
_symmetry_group_IT_number 64
_symmetry_cell_setting 'orthorhombic'
loop_
_space_group_symop_operation_xyz
x,y,z
-x,1/2-y,1/2+z
x,-y,-z
-x,1/2+y,1/2-z
-x,-y,-z
x,1/2+y,1/2-z
-x,y,z
x,1/2-y,1/2+z
1/2+x,1/2+y,z
1/2-x,-y,1/2+z
1/2+x,1/2-y,-z
1/2-x,y,1/2-z
1/2-x,1/2-y,-z
1/2+x,y,1/2-z
1/2-x,1/2+y,z
1/2+x,-y,1/2+z
loop_
_atom_site_type_symbol
_atom_site_label
_atom_site_fract_x
_atom_site_fract_y
_atom_site_fract_z
Si Si1 0.312227 0.298984 0.269035
Si Si2 0.436812 0.700026 0.357953
Si Si3 0.893352 0.588824 0.541187
Si Si4 0.000000 0.554066 0.752116
O O1 0.327161 0.271496 0.570835
O O2 0.250000 0.319198 0.250000
O O3 0.342619 0.376080 0.192560
O O4 0.500000 0.680308 0.343160
O O5 0.420551 0.769958 0.155464
O O6 0.405075 0.625478 0.253896
O O7 0.882232 0.500000 0.500000
O O8 0.945862 0.604680 0.736436
O O9 0.000000 0.500000 0.500000
O O10 0.000000 0.500000 0.000000
#
# Coordination Sequence:
#
# PCOD8263758 Si02
#       4
#    16  16  16   8
#     4  10  23  46  72  97 130 173 224 280 336 393
#     4  10  21  37  58  86 121 167 217 259 305 375
#     4  11  23  42  65  98 134 176 216 273 330 399
#     4  10  24  40  56  88 136 176 205 256 329 388
#
# _framework density 25.740694999999999
#
# number of rings (size 3 to 8) (size 9 to 14) (size 15 to 20)
#    0.000    1.714    1.429    1.714    0.000    9.143 
#    0.000    5.714    0.000    0.000    0.000    0.000 
#    0.000    0.000    0.000    0.000    0.000    0.000 
#
# Total GULP energy -347381.590770 kJ/mol
# GULP energy per Si atom -12406.485385 kJ/mol
# Density = 2.568211 g / cm^3
# Si number density = 25.740695 Si / 1000 Ang^3
#
#
#
# Elastic Constant Matrix: (Units=GPa)
#
#
# Indices 1 2 3 4 5 6 
#
# 1 120.3007 61.9011 32.3492 0.0000 0.0000 0.0000
# 2 61.9011 172.3861 33.4868 0.0000 0.0000 0.0000
# 3 32.3492 33.4868 129.7581 0.0000 0.0000 0.0000
# 4 0.0000 0.0000 0.0000 19.8550 0.0000 0.0000
# 5 0.0000 0.0000 0.0000 0.0000 44.6685 0.0000
# 6 0.0000 0.0000 0.0000 0.0000 0.0000 34.4668
#
#
#
# Elastic Compliance Matrix: (Units=1/GPa)
#
#
# Indices 1 2 3 4 5 6 
#
# 1 0.010557 -0.003453 -0.001741 0.000000 0.000000 0.000000
# 2 -0.003453 0.007236 -0.001007 0.000000 0.000000 0.000000
# 3 -0.001741 -0.001007 0.008400 0.000000 0.000000 0.000000
# 4 0.000000 0.000000 0.000000 0.050365 0.000000 0.000000
# 5 0.000000 0.000000 0.000000 0.000000 0.022387 0.000000
# 6 0.000000 0.000000 0.000000 0.000000 0.000000 0.029013
#
#
# Mechanical properties :
#
#
# Convention : Reuss Voigt Hill
#
# Bulk Modulus (GPa) = 72.49893 75.32435 73.91164
# Shear Modulus (GPa) = 34.49271 39.44526 36.96898
#
# Velocity S-wave (km/s) = 3.66458 3.91885 3.79384
# Velocity P-wave (km/s) = 6.79204 7.05711 6.92584
#
# Compressibility (1/GPa) = 0.01379331
#
# Stress axis : x y z
#
# Youngs Moduli (GPa) = 94.72144 138.19175 119.04107
#
# Poissons Ratio (x) = 0.47714 0.20724
# Poissons Ratio (y) = 0.32705 0.11984
# Poissons Ratio (z) = 0.16490 0.13912
#
# Static dielectric constant tensor:
#      x y z
#    x 5.214050 0.000000 0.000000 
#    y 0.000000 4.596070 0.000000 
#    z 0.000000 0.000000 4.994530 
# 
# 
# High freq. dielectric constant tensor:
#      x y z
#    x 2.040350 0.000000 0.000000 
#    y 0.000000 2.034830 0.000000 
#    z 0.000000 0.000000 2.053470 
# 
# From -- ./inp_files/2651.got.cif
#   From: 2010.03.12/outbox.cif.g09.slc.cpg/sg64_2_cif.got.tgz:2651.got - 2010.04.10 20:19:32.
