data_PCOD8263845
_publ_section_title
;
Structure prediction by ZEFSAII (Michael W. Deem and Ramdas Pophale) SiO2 
 PCOD8263845
Probable space group: C M C A
;
_chemical_formula_sum "Si O2"
_cell_formula_units_Z 96
_cell_length_a 8.935330
_cell_length_b 24.211799
_cell_length_c 21.722389
_cell_angle_alpha 90.000000
_cell_angle_beta 90.000000
_cell_angle_gamma 90.000000
_cell_volume 4699.430628
_symmetry_space_group_name_H-M "C M C A"
_symmetry_group_IT_number 64
_symmetry_cell_setting 'orthorhombic'
loop_
_space_group_symop_operation_xyz
x,y,z
-x,1/2-y,1/2+z
x,-y,-z
-x,1/2+y,1/2-z
-x,-y,-z
x,1/2+y,1/2-z
-x,y,z
x,1/2-y,1/2+z
1/2+x,1/2+y,z
1/2-x,-y,1/2+z
1/2+x,1/2-y,-z
1/2-x,y,1/2-z
1/2-x,1/2-y,-z
1/2+x,y,1/2-z
1/2-x,1/2+y,z
1/2+x,-y,1/2+z
loop_
_atom_site_type_symbol
_atom_site_label
_atom_site_fract_x
_atom_site_fract_y
_atom_site_fract_z
Si Si1 0.827079 0.682352 0.648484
Si Si2 0.327434 0.439745 0.187326
Si Si3 0.828097 0.504757 0.430638
Si Si4 0.330113 0.130257 0.422144
Si Si5 0.825114 0.708504 0.308908
Si Si6 0.824789 0.193797 0.521710
O O1 0.808616 0.626208 0.686650
O O2 0.753319 0.732352 0.685042
O O3 0.739437 0.673941 0.585702
O O4 0.000000 0.695964 0.635135
O O5 0.500000 0.457668 0.191238
O O6 0.250000 0.462124 0.250000
O O7 0.257756 0.466052 0.123685
O O8 0.754784 0.500000 0.500000
O O9 0.809613 0.566579 0.404899
O O10 0.000000 0.486536 0.438317
O O11 0.500000 0.141795 0.444589
O O12 0.289601 0.168500 0.364949
O O13 0.212877 0.144682 0.475117
O O14 0.750000 0.679335 0.250000
O O15 0.000000 0.717926 0.299222
O O16 0.750000 0.250000 0.500000
O O17 0.000000 0.203900 0.527338
#
# Coordination Sequence:
#
# PCOD8263845 Si02
#       6
#    16  16  16  16  16  16
#     4  11  22  38  61  87 119 158 202 249 300 361
#     4  10  22  39  62  91 121 161 209 258 311 369
#     4   9  18  37  64  89 116 155 206 257 304 360
#     4  10  21  38  60  86 116 154 199 244 294 357
#     4  11  23  37  55  81 116 155 197 243 294 356
#     4  12  23  36  58  88 122 156 193 241 300 363
#
# _framework density 20.428007000000001
#
# number of rings (size 3 to 8) (size 9 to 14) (size 15 to 20)
#    0.000    1.500    1.667    4.000    0.000    6.667 
#    0.000    0.833    0.000    2.000    0.000    0.000 
#    0.000    0.000    0.000    0.000    0.000    0.000 
#
# Total GULP energy -595133.814410 kJ/mol
# GULP energy per Si atom -12398.621134 kJ/mol
# Density = 2.038151 g / cm^3
# Si number density = 20.428007 Si / 1000 Ang^3
#
#
#
# Elastic Constant Matrix: (Units=GPa)
#
#
# Indices 1 2 3 4 5 6 
#
# 1 92.5559 15.5935 51.3127 0.0000 0.0000 0.0000
# 2 15.5935 76.1334 31.1664 0.0000 0.0000 0.0000
# 3 51.3127 31.1664 145.2703 0.0000 0.0000 0.0000
# 4 0.0000 0.0000 0.0000 20.5004 0.0000 0.0000
# 5 0.0000 0.0000 0.0000 0.0000 36.7228 0.0000
# 6 0.0000 0.0000 0.0000 0.0000 0.0000 20.5732
#
#
#
# Elastic Compliance Matrix: (Units=1/GPa)
#
#
# Indices 1 2 3 4 5 6 
#
# 1 0.013490 -0.000891 -0.004574 0.000000 0.000000 0.000000
# 2 -0.000891 0.014458 -0.002787 0.000000 0.000000 0.000000
# 3 -0.004574 -0.002787 0.009097 0.000000 0.000000 0.000000
# 4 0.000000 0.000000 0.000000 0.048779 0.000000 0.000000
# 5 0.000000 0.000000 0.000000 0.000000 0.027231 0.000000
# 6 0.000000 0.000000 0.000000 0.000000 0.000000 0.048607
#
#
# Mechanical properties :
#
#
# Convention : Reuss Voigt Hill
#
# Bulk Modulus (GPa) = 48.68071 56.67829 52.67950
# Shear Modulus (GPa) = 27.02498 29.95177 28.48837
#
# Velocity S-wave (km/s) = 3.64117 3.83327 3.73845
# Velocity P-wave (km/s) = 6.44667 6.88459 6.66922
#
# Compressibility (1/GPa) = 0.02054202
#
# Stress axis : x y z
#
# Youngs Moduli (GPa) = 74.12849 69.16450 109.92251
#
# Poissons Ratio (x) = 0.06160 0.50278
# Poissons Ratio (y) = 0.06602 0.30639
# Poissons Ratio (z) = 0.33906 0.19278
#
# Static dielectric constant tensor:
#      x y z
#    x 3.624400 0.000000 0.000000 
#    y 0.000000 3.628720 0.000000 
#    z 0.000000 0.000000 3.902490 
# 
# 
# High freq. dielectric constant tensor:
#      x y z
#    x 1.775710 0.000000 0.000000 
#    y 0.000000 1.796940 0.000000 
#    z 0.000000 0.000000 1.814930 
# 
# From -- ./inp_files/37077.got.cif
#   From: 2010.03.12/outbox.cif.g09.slc.cpg/sg64_19_cif.got.tgz:37077.got - 2010.04.10 20:19:32.
