data_PCOD8263965
_publ_section_title
;
Structure prediction by ZEFSAII (Michael W. Deem and Ramdas Pophale) SiO2 
 PCOD8263965
Probable space group: C M C A
;
_chemical_formula_sum "Si O2"
_cell_formula_units_Z 88
_cell_length_a 29.274418
_cell_length_b 26.896336
_cell_length_c 5.196253
_cell_angle_alpha 90.000000
_cell_angle_beta 90.000000
_cell_angle_gamma 90.000000
_cell_volume 4091.397538
_symmetry_space_group_name_H-M "C M C A"
_symmetry_group_IT_number 64
_symmetry_cell_setting 'orthorhombic'
loop_
_space_group_symop_operation_xyz
x,y,z
-x,1/2-y,1/2+z
x,-y,-z
-x,1/2+y,1/2-z
-x,-y,-z
x,1/2+y,1/2-z
-x,y,z
x,1/2-y,1/2+z
1/2+x,1/2+y,z
1/2-x,-y,1/2+z
1/2+x,1/2-y,-z
1/2-x,y,1/2-z
1/2-x,1/2-y,-z
1/2+x,y,1/2-z
1/2-x,1/2+y,z
1/2+x,-y,1/2+z
loop_
_atom_site_type_symbol
_atom_site_label
_atom_site_fract_x
_atom_site_fract_y
_atom_site_fract_z
Si Si1 0.052172 0.774366 0.752095
Si Si2 0.359583 0.878541 0.247343
Si Si3 0.000000 0.534571 0.250751
Si Si4 0.301704 0.781616 0.274910
Si Si5 0.920197 0.885704 0.749953
Si Si6 0.803937 0.472968 0.250175
O O1 0.076670 0.748814 0.505084
O O2 0.053461 0.833533 0.742374
O O3 0.000000 0.756182 0.756238
O O4 0.338849 0.823922 0.229111
O O5 0.389305 0.887137 0.499165
O O6 0.316984 0.915566 0.252901
O O7 0.389942 0.890813 0.002149
O O8 0.000000 0.500000 0.500000
O O9 0.044543 0.569079 0.254711
O O10 0.000000 0.500000 0.000000
O O11 0.309620 0.760679 0.561170
O O12 0.250000 0.802602 0.250000
O O13 0.824878 0.500000 0.500000
O O14 0.750000 0.477169 0.250000
O O15 0.824800 0.500000 0.000000
#
# Coordination Sequence:
#
# PCOD8263965 Si02
#       6
#    16  16   8  16  16  16
#     4  10  21  39  64  88 119 158 196 249 306 359
#     4  12  25  39  66  96 129 164 208 269 312 369
#     4  12  28  50  70  88 124 172 216 266 330 394
#     4  10  22  41  64  94 136 181 217 250 304 379
#     4  12  26  43  64  96 127 162 215 264 315 383
#     4  10  22  41  64  90 123 160 203 257 316 376
#
# _framework density 21.508545000000002
#
# number of rings (size 3 to 8) (size 9 to 14) (size 15 to 20)
#    0.000    1.091    0.909    4.909    0.000    8.727 
#    0.000    7.273    0.000    0.000    0.000    0.000 
#    0.000    0.000    0.000    0.000    0.000    0.000 
#
# Total GULP energy -545736.066548 kJ/mol
# GULP energy per Si atom -12403.092422 kJ/mol
# Density = 2.145959 g / cm^3
# Si number density = 21.508545 Si / 1000 Ang^3
#
#
#
# Elastic Constant Matrix: (Units=GPa)
#
#
# Indices 1 2 3 4 5 6 
#
# 1 73.9234 43.2383 41.6876 0.0000 0.0000 0.0000
# 2 43.2383 135.0572 55.0324 0.0000 0.0000 0.0000
# 3 41.6876 55.0324 197.0507 0.0000 0.0000 0.0000
# 4 0.0000 0.0000 0.0000 39.7680 0.0000 0.0000
# 5 0.0000 0.0000 0.0000 0.0000 6.8625 0.0000
# 6 0.0000 0.0000 0.0000 0.0000 0.0000 32.1730
#
#
#
# Elastic Compliance Matrix: (Units=1/GPa)
#
#
# Indices 1 2 3 4 5 6 
#
# 1 0.017617 -0.004651 -0.002428 0.000000 0.000000 0.000000
# 2 -0.004651 0.009583 -0.001692 0.000000 0.000000 0.000000
# 3 -0.002428 -0.001692 0.006061 0.000000 0.000000 0.000000
# 4 0.000000 0.000000 0.000000 0.025146 0.000000 0.000000
# 5 0.000000 0.000000 0.000000 0.000000 0.145720 0.000000
# 6 0.000000 0.000000 0.000000 0.000000 0.000000 0.031082
#
#
# Mechanical properties :
#
#
# Convention : Reuss Voigt Hill
#
# Bulk Modulus (GPa) = 63.61912 76.21645 69.91778
# Shear Modulus (GPa) = 19.38050 33.49889 26.43969
#
# Velocity S-wave (km/s) = 3.00502 3.95076 3.50989
# Velocity P-wave (km/s) = 6.45623 7.50491 7.00024
#
# Compressibility (1/GPa) = 0.01571855
#
# Stress axis : x y z
#
# Youngs Moduli (GPa) = 56.76323 104.35396 164.98406
#
# Poissons Ratio (x) = 0.48531 0.40061
# Poissons Ratio (y) = 0.26399 0.27922
# Poissons Ratio (z) = 0.13783 0.17661
#
# Static dielectric constant tensor:
#      x y z
#    x 3.810260 0.000000 0.000000 
#    y 0.000000 3.862440 0.000000 
#    z 0.000000 0.000000 4.363620 
# 
# 
# High freq. dielectric constant tensor:
#      x y z
#    x 1.843980 0.000000 0.000000 
#    y 0.000000 1.848860 0.000000 
#    z 0.000000 0.000000 1.870500 
# 
# From -- ./inp_files/3300.got.cif
#   From: 2010.03.12/outbox.cif.g09.slc.cpg/sg64_2_cif.got.tgz:3300.got - 2010.04.10 20:19:32.
