data_PCOD8263545
_publ_section_title
;
Structure prediction by ZEFSAII (Michael W. Deem and Ramdas Pophale) SiO2 
 PCOD8263545
Probable space group: C M C A
;
_chemical_formula_sum "Si O2"
_cell_formula_units_Z 96
_cell_length_a 23.437672
_cell_length_b 11.350796
_cell_length_c 17.020473
_cell_angle_alpha 90.000000
_cell_angle_beta 90.000000
_cell_angle_gamma 90.000000
_cell_volume 4528.062531
_symmetry_space_group_name_H-M "C M C A"
_symmetry_group_IT_number 64
_symmetry_cell_setting 'orthorhombic'
loop_
_space_group_symop_operation_xyz
x,y,z
-x,1/2-y,1/2+z
x,-y,-z
-x,1/2+y,1/2-z
-x,-y,-z
x,1/2+y,1/2-z
-x,y,z
x,1/2-y,1/2+z
1/2+x,1/2+y,z
1/2-x,-y,1/2+z
1/2+x,1/2-y,-z
1/2-x,y,1/2-z
1/2-x,1/2-y,-z
1/2+x,y,1/2-z
1/2-x,1/2+y,z
1/2+x,-y,1/2+z
loop_
_atom_site_type_symbol
_atom_site_label
_atom_site_fract_x
_atom_site_fract_y
_atom_site_fract_z
Si Si1 0.346296 0.780713 0.151921
Si Si2 0.859876 0.657922 0.184873
Si Si3 0.937080 0.149180 0.863815
Si Si4 0.151924 0.465412 0.586244
Si Si5 0.224846 0.988045 0.405390
Si Si6 0.937901 0.554746 0.802774
O O1 0.336398 0.735211 0.241713
O O2 0.358080 0.673427 0.093511
O O3 0.292514 0.857468 0.123339
O O4 0.400561 0.866573 0.138291
O O5 0.895449 0.738906 0.123014
O O6 0.810319 0.593397 0.136407
O O7 0.903859 0.563032 0.221105
O O8 0.947458 0.137034 0.771796
O O9 0.000000 0.163489 0.904566
O O10 0.905923 0.031065 0.891336
O O11 0.168479 0.500000 0.500000
O O12 0.210887 0.499587 0.630436
O O13 0.218628 0.000000 0.500000
O O14 0.000000 0.522970 0.839514
#
# Coordination Sequence:
#
# PCOD8263545 Si02
#       6
#    16  16  16  16  16  16
#     4  10  22  41  60  97 122 162 217 267 318 375
#     4  10  20  40  64  94 123 162 213 264 310 376
#     4  10  21  37  60  89 122 159 205 261 313 372
#     4  11  25  41  62  89 126 170 210 257 326 383
#     4  10  25  43  65  90 130 176 209 259 328 394
#     4   9  18  37  63  89 122 162 206 258 319 376
#
# _framework density 21.20112
#
# number of rings (size 3 to 8) (size 9 to 14) (size 15 to 20)
#    0.000    2.000    1.667    0.500    4.667    3.667 
#    3.000    0.000    0.000    2.500    0.000    0.000 
#    0.000    0.000    0.000    0.000    0.000    0.000 
#
# Total GULP energy -594748.467885 kJ/mol
# GULP energy per Si atom -12390.593081 kJ/mol
# Density = 2.115287 g / cm^3
# Si number density = 21.201120 Si / 1000 Ang^3
#
#
#
# Elastic Constant Matrix: (Units=GPa)
#
#
# Indices 1 2 3 4 5 6 
#
# 1 116.8157 33.1607 24.6297 0.0000 0.0000 0.0000
# 2 33.1607 122.8963 27.1037 0.0000 0.0000 0.0000
# 3 24.6297 27.1037 52.7942 0.0000 0.0000 0.0000
# 4 0.0000 0.0000 0.0000 30.9184 0.0000 0.0000
# 5 0.0000 0.0000 0.0000 0.0000 14.0153 0.0000
# 6 0.0000 0.0000 0.0000 0.0000 0.0000 23.7613
#
#
#
# Elastic Compliance Matrix: (Units=1/GPa)
#
#
# Indices 1 2 3 4 5 6 
#
# 1 0.009856 -0.001855 -0.003645 0.000000 0.000000 0.000000
# 2 -0.001855 0.009525 -0.004024 0.000000 0.000000 0.000000
# 3 -0.003645 -0.004024 0.022708 0.000000 0.000000 0.000000
# 4 0.000000 0.000000 0.000000 0.032343 0.000000 0.000000
# 5 0.000000 0.000000 0.000000 0.000000 0.071351 0.000000
# 6 0.000000 0.000000 0.000000 0.000000 0.000000 0.042085
#
#
# Mechanical properties :
#
#
# Convention : Reuss Voigt Hill
#
# Bulk Modulus (GPa) = 43.40538 51.36602 47.38570
# Shear Modulus (GPa) = 23.29932 27.57980 25.43956
#
# Velocity S-wave (km/s) = 3.31866 3.61066 3.46774
# Velocity P-wave (km/s) = 5.93315 6.45470 6.19941
#
# Compressibility (1/GPa) = 0.02303862
#
# Stress axis : x y z
#
# Youngs Moduli (GPa) = 101.46315 104.98545 44.03688
#
# Poissons Ratio (x) = 0.19479 0.16053
# Poissons Ratio (y) = 0.18825 0.17722
# Poissons Ratio (z) = 0.36988 0.42251
#
# Static dielectric constant tensor:
#      x y z
#    x 4.265030 0.000000 0.000000 
#    y 0.000000 3.923770 0.000000 
#    z 0.000000 0.000000 3.656220 
# 
# 
# High freq. dielectric constant tensor:
#      x y z
#    x 1.846080 0.000000 0.000000 
#    y 0.000000 1.844120 0.000000 
#    z 0.000000 0.000000 1.791270 
# 
# From -- ./inp_files/34946.got.cif
#   From: 2010.03.12/outbox.cif.g09.slc.cpg/sg64_18_cif.got.tgz:34946.got - 2010.04.10 20:19:32.
