data_PCOD8263992
_publ_section_title
;
Structure prediction by ZEFSAII (Michael W. Deem and Ramdas Pophale) SiO2 
 PCOD8263992
Probable space group: C M C A
;
_chemical_formula_sum "Si O2"
_cell_formula_units_Z 96
_cell_length_a 20.333586
_cell_length_b 14.024043
_cell_length_c 14.968822
_cell_angle_alpha 90.000000
_cell_angle_beta 90.000000
_cell_angle_gamma 90.000000
_cell_volume 4268.495576
_symmetry_space_group_name_H-M "C M C A"
_symmetry_group_IT_number 64
_symmetry_cell_setting 'orthorhombic'
loop_
_space_group_symop_operation_xyz
x,y,z
-x,1/2-y,1/2+z
x,-y,-z
-x,1/2+y,1/2-z
-x,-y,-z
x,1/2+y,1/2-z
-x,y,z
x,1/2-y,1/2+z
1/2+x,1/2+y,z
1/2-x,-y,1/2+z
1/2+x,1/2-y,-z
1/2-x,y,1/2-z
1/2-x,1/2-y,-z
1/2+x,y,1/2-z
1/2-x,1/2+y,z
1/2+x,-y,1/2+z
loop_
_atom_site_type_symbol
_atom_site_label
_atom_site_fract_x
_atom_site_fract_y
_atom_site_fract_z
Si Si1 0.928537 0.974157 0.899687
Si Si2 0.179498 0.045557 0.348586
Si Si3 0.578265 0.339322 0.547134
Si Si4 0.577283 0.669431 0.825718
Si Si5 0.355783 0.831729 0.143143
Si Si6 0.689974 0.634163 0.153255
O O1 0.895564 0.063924 0.848387
O O2 0.000000 0.945152 0.857349
O O3 0.877899 0.887284 0.897842
O O4 0.942592 0.000000 0.000000
O O5 0.115983 0.071313 0.408030
O O6 0.247898 0.081621 0.393662
O O7 0.178748 0.099189 0.254231
O O8 0.181355 0.931395 0.340864
O O9 0.500000 0.357310 0.553631
O O10 0.602364 0.246678 0.602286
O O11 0.599631 0.330588 0.444926
O O12 0.500000 0.665063 0.834569
O O13 0.597278 0.695565 0.725720
O O14 0.300290 0.748415 0.143240
#
# Coordination Sequence:
#
# PCOD8263992 Si02
#       6
#    16  16  16  16  16  16
#     4  10  21  39  65  98 134 174 225 283 339 400
#     4  11  26  45  68 103 136 184 228 284 348 409
#     4  11  25  45  70 105 144 181 234 288 345 420
#     4  10  21  39  66 100 136 179 226 283 344 405
#     4  12  24  44  72  98 135 185 231 283 353 414
#     4  11  25  44  70 100 135 182 231 279 343 418
#
# _framework density 22.490359999999999
#
# number of rings (size 3 to 8) (size 9 to 14) (size 15 to 20)
#    0.000    1.167    3.333    2.000    0.000   11.333 
#    0.000    0.000    0.000    0.000    0.000    0.000 
#    0.000    0.000    0.000    0.000    0.000    0.000 
#
# Total GULP energy -595089.143603 kJ/mol
# GULP energy per Si atom -12397.690492 kJ/mol
# Density = 2.243917 g / cm^3
# Si number density = 22.490360 Si / 1000 Ang^3
#
#
#
# Elastic Constant Matrix: (Units=GPa)
#
#
# Indices 1 2 3 4 5 6 
#
# 1 116.3562 62.9657 37.7354 0.0000 0.0000 0.0000
# 2 62.9657 167.2650 29.1619 0.0000 0.0000 0.0000
# 3 37.7354 29.1619 104.8728 0.0000 0.0000 0.0000
# 4 0.0000 0.0000 0.0000 28.6283 0.0000 0.0000
# 5 0.0000 0.0000 0.0000 0.0000 23.8240 0.0000
# 6 0.0000 0.0000 0.0000 0.0000 0.0000 37.4588
#
#
#
# Elastic Compliance Matrix: (Units=1/GPa)
#
#
# Indices 1 2 3 4 5 6 
#
# 1 0.011699 -0.003857 -0.003137 0.000000 0.000000 0.000000
# 2 -0.003857 0.007555 -0.000713 0.000000 0.000000 0.000000
# 3 -0.003137 -0.000713 0.010862 0.000000 0.000000 0.000000
# 4 0.000000 0.000000 0.000000 0.034930 0.000000 0.000000
# 5 0.000000 0.000000 0.000000 0.000000 0.041974 0.000000
# 6 0.000000 0.000000 0.000000 0.000000 0.000000 0.026696
#
#
# Mechanical properties :
#
#
# Convention : Reuss Voigt Hill
#
# Bulk Modulus (GPa) = 68.01721 72.02445 70.02083
# Shear Modulus (GPa) = 32.46091 35.22430 33.84261
#
# Velocity S-wave (km/s) = 3.80323 3.96181 3.88333
# Velocity P-wave (km/s) = 7.04234 7.28162 7.16298
#
# Compressibility (1/GPa) = 0.01470216
#
# Stress axis : x y z
#
# Youngs Moduli (GPa) = 85.47841 132.36650 92.06115
#
# Poissons Ratio (x) = 0.51054 0.28879
# Poissons Ratio (y) = 0.32969 0.06563
# Poissons Ratio (z) = 0.26814 0.09437
#
# Static dielectric constant tensor:
#      x y z
#    x 4.355160 0.000000 0.000000 
#    y 0.000000 4.669360 0.000000 
#    z 0.000000 0.000000 3.979720 
# 
# 
# High freq. dielectric constant tensor:
#      x y z
#    x 1.880070 0.000000 0.000000 
#    y 0.000000 1.897800 0.000000 
#    z 0.000000 0.000000 1.885060 
# 
# From -- ./inp_files/26348.got.cif
#   From: 2010.03.12/outbox.cif.g09.slc.cpg/sg64_14_cif.got.tgz:26348.got - 2010.04.10 20:19:32.
