data_PCOD8263856
_publ_section_title
;
Structure prediction by ZEFSAII (Michael W. Deem and Ramdas Pophale) SiO2 
 PCOD8263856
Probable space group: C M C A
;
_chemical_formula_sum "Si O2"
_cell_formula_units_Z 96
_cell_length_a 8.906407
_cell_length_b 23.025709
_cell_length_c 25.299444
_cell_angle_alpha 90.000000
_cell_angle_beta 90.000000
_cell_angle_gamma 90.000000
_cell_volume 5188.317274
_symmetry_space_group_name_H-M "C M C A"
_symmetry_group_IT_number 64
_symmetry_cell_setting 'orthorhombic'
loop_
_space_group_symop_operation_xyz
x,y,z
-x,1/2-y,1/2+z
x,-y,-z
-x,1/2+y,1/2-z
-x,-y,-z
x,1/2+y,1/2-z
-x,y,z
x,1/2-y,1/2+z
1/2+x,1/2+y,z
1/2-x,-y,1/2+z
1/2+x,1/2-y,-z
1/2-x,y,1/2-z
1/2-x,1/2-y,-z
1/2+x,y,1/2-z
1/2-x,1/2+y,z
1/2+x,-y,1/2+z
loop_
_atom_site_type_symbol
_atom_site_label
_atom_site_fract_x
_atom_site_fract_y
_atom_site_fract_z
Si Si1 0.828253 0.506982 0.940148
Si Si2 0.326142 0.811737 0.503323
Si Si3 0.327305 0.117442 0.602639
Si Si4 0.675920 0.814019 0.195217
Si Si5 0.823088 0.681213 0.305186
Si Si6 0.327616 0.378685 0.597731
O O1 0.726907 0.552674 0.909250
O O2 0.814050 0.447558 0.908012
O O3 0.000000 0.529213 0.942053
O O4 0.767638 0.500000 0.000000
O O5 0.500000 0.804541 0.518200
O O6 0.250000 0.750000 0.500000
O O7 0.301891 0.842728 0.447928
O O8 0.246799 0.849444 0.547474
O O9 0.500000 0.115443 0.619707
O O10 0.232001 0.143460 0.650055
O O11 0.500000 0.821290 0.201653
O O12 0.750000 0.833082 0.250000
O O13 0.719194 0.747712 0.180796
O O14 0.750000 0.662606 0.250000
O O15 0.757682 0.639400 0.349560
O O16 0.000000 0.672286 0.301182
O O17 0.500000 0.358502 0.601108
#
# Coordination Sequence:
#
# PCOD8263856 Si02
#       6
#    16  16  16  16  16  16
#     4  10  21  39  60  82 112 155 198 238 288 343
#     4  11  23  36  54  83 117 151 188 235 289 345
#     4  11  23  37  57  85 116 150 192 239 286 340
#     4  10  21  38  61  86 116 152 190 234 286 344
#     4  10  21  38  61  88 118 154 192 236 289 345
#     4  11  22  37  59  85 115 151 193 239 287 343
#
# _framework density 18.503108999999998
#
# number of rings (size 3 to 8) (size 9 to 14) (size 15 to 20)
#    0.000    1.500    1.667    3.500    0.000    8.333 
#    0.000    0.833    0.000    4.000    0.000    0.000 
#    0.000    0.000    0.000    0.000    0.000    0.000 
#
# Total GULP energy -595490.809907 kJ/mol
# GULP energy per Si atom -12406.058540 kJ/mol
# Density = 1.846099 g / cm^3
# Si number density = 18.503109 Si / 1000 Ang^3
#
#
#
# Elastic Constant Matrix: (Units=GPa)
#
#
# Indices 1 2 3 4 5 6 
#
# 1 97.7732 40.5655 47.7016 0.0000 0.0000 0.0000
# 2 40.5655 79.5552 28.7722 0.0000 0.0000 0.0000
# 3 47.7016 28.7722 92.3837 0.0000 0.0000 0.0000
# 4 0.0000 0.0000 0.0000 35.0852 0.0000 0.0000
# 5 0.0000 0.0000 0.0000 0.0000 38.4286 0.0000
# 6 0.0000 0.0000 0.0000 0.0000 0.0000 -6.8879
#
#
#
# Elastic Compliance Matrix: (Units=1/GPa)
#
#
# Indices 1 2 3 4 5 6 
#
# 1 0.015679 -0.005710 -0.006317 0.000000 0.000000 0.000000
# 2 -0.005710 0.016245 -0.002111 0.000000 0.000000 0.000000
# 3 -0.006317 -0.002111 0.014744 0.000000 0.000000 0.000000
# 4 0.000000 0.000000 0.000000 0.028502 0.000000 0.000000
# 5 0.000000 0.000000 0.000000 0.000000 0.026022 0.000000
# 6 0.000000 0.000000 0.000000 0.000000 0.000000 -0.145183
#
#
# Mechanical properties :
#
#
# Convention : Reuss Voigt Hill
#
# Bulk Modulus (GPa) = 54.37485 55.97676 55.17581
# Shear Modulus (GPa) = -521.69680 23.50336 -249.09672
#
# Velocity S-wave (km/s) = -16.80961 3.56791 -11.61536
# Velocity P-wave (km/s) = 18.63599 6.87689 12.24762
#
# Compressibility (1/GPa) = 0.01839086
#
# Stress axis : x y z
#
# Youngs Moduli (GPa) = 63.78000 61.55773 67.82511
#
# Poissons Ratio (x) = 0.35149 0.42847
# Poissons Ratio (y) = 0.36418 0.14318
# Poissons Ratio (z) = 0.40292 0.12995
#
# Static dielectric constant tensor:
#      x y z
#    x 3.606680 0.000000 0.000000 
#    y 0.000000 3.343260 0.000000 
#    z 0.000000 0.000000 3.389060 
# 
# 
# High freq. dielectric constant tensor:
#      x y z
#    x 1.734590 0.000000 0.000000 
#    y 0.000000 1.716690 0.000000 
#    z 0.000000 0.000000 1.722940 
# 
# From -- ./inp_files/43028.got.cif
#   From: 2010.03.12/outbox.cif.g09.slc.cpg/sg64_22_cif.got.tgz:43028.got - 2010.04.10 20:19:32.
