data_PCOD8263821
_publ_section_title
;
Structure prediction by ZEFSAII (Michael W. Deem and Ramdas Pophale) SiO2 
 PCOD8263821
Probable space group: C M C A
;
_chemical_formula_sum "Si O2"
_cell_formula_units_Z 96
_cell_length_a 18.126785
_cell_length_b 11.630226
_cell_length_c 22.739575
_cell_angle_alpha 90.000000
_cell_angle_beta 90.000000
_cell_angle_gamma 90.000000
_cell_volume 4793.925507
_symmetry_space_group_name_H-M "C M C A"
_symmetry_group_IT_number 64
_symmetry_cell_setting 'orthorhombic'
loop_
_space_group_symop_operation_xyz
x,y,z
-x,1/2-y,1/2+z
x,-y,-z
-x,1/2+y,1/2-z
-x,-y,-z
x,1/2+y,1/2-z
-x,y,z
x,1/2-y,1/2+z
1/2+x,1/2+y,z
1/2-x,-y,1/2+z
1/2+x,1/2-y,-z
1/2-x,y,1/2-z
1/2-x,1/2-y,-z
1/2+x,y,1/2-z
1/2-x,1/2+y,z
1/2+x,-y,1/2+z
loop_
_atom_site_type_symbol
_atom_site_label
_atom_site_fract_x
_atom_site_fract_y
_atom_site_fract_z
Si Si1 0.674556 0.196271 0.655560
Si Si2 0.918932 0.084031 0.340232
Si Si3 0.414158 0.130876 0.769171
Si Si4 0.852470 0.958727 0.438556
Si Si5 0.185562 0.006226 0.068843
Si Si6 0.837447 0.744261 0.371342
O O1 0.637125 0.317245 0.643734
O O2 0.641515 0.148993 0.715834
O O3 0.760781 0.223975 0.660924
O O4 0.657780 0.108456 0.602065
O O5 0.000000 0.137197 0.332308
O O6 0.898673 0.003078 0.284894
O O7 0.915995 0.996848 0.394296
O O8 0.500000 0.148832 0.751590
O O9 0.397775 0.221893 0.821928
O O10 0.844011 0.821401 0.430753
O O11 0.883877 0.000000 0.500000
O O12 0.773609 0.019643 0.427247
O O13 0.152683 0.114698 0.105045
O O14 0.160262 0.000000 0.000000
#
# Coordination Sequence:
#
# PCOD8263821 Si02
#       6
#    16  16  16  16  16  16
#     4  11  22  38  63  90 122 158 203 251 305 366
#     4  10  21  38  58  86 121 158 204 247 299 365
#     4  10  23  42  62  87 119 159 202 251 308 363
#     4   9  19  34  60  87 117 156 200 248 301 355
#     4  10  22  37  62  93 124 160 199 253 311 359
#     4  10  21  39  61  93 123 155 201 256 301 360
#
# _framework density 20.025342999999999
#
# number of rings (size 3 to 8) (size 9 to 14) (size 15 to 20)
#    0.000    2.000    1.667    1.000    4.667    2.333 
#    0.000    0.833    0.000    2.500    0.000    0.000 
#    0.000    0.000    0.000    0.000    0.000    0.000 
#
# Total GULP energy -594736.934769 kJ/mol
# GULP energy per Si atom -12390.352808 kJ/mol
# Density = 1.997976 g / cm^3
# Si number density = 20.025343 Si / 1000 Ang^3
#
#
#
# Elastic Constant Matrix: (Units=GPa)
#
#
# Indices 1 2 3 4 5 6 
#
# 1 54.3331 32.4547 30.2973 0.0000 0.0000 0.0000
# 2 32.4547 111.9781 37.4452 0.0000 0.0000 0.0000
# 3 30.2973 37.4452 108.2576 0.0000 0.0000 0.0000
# 4 0.0000 0.0000 0.0000 31.5272 0.0000 0.0000
# 5 0.0000 0.0000 0.0000 0.0000 9.5254 0.0000
# 6 0.0000 0.0000 0.0000 0.0000 0.0000 16.0201
#
#
#
# Elastic Compliance Matrix: (Units=1/GPa)
#
#
# Indices 1 2 3 4 5 6 
#
# 1 0.024404 -0.005416 -0.004957 0.000000 0.000000 0.000000
# 2 -0.005416 0.011300 -0.002393 0.000000 0.000000 0.000000
# 3 -0.004957 -0.002393 0.011452 0.000000 0.000000 0.000000
# 4 0.000000 0.000000 0.000000 0.031719 0.000000 0.000000
# 5 0.000000 0.000000 0.000000 0.000000 0.104983 0.000000
# 6 0.000000 0.000000 0.000000 0.000000 0.000000 0.062422
#
#
# Mechanical properties :
#
#
# Convention : Reuss Voigt Hill
#
# Bulk Modulus (GPa) = 46.24095 52.77370 49.50733
# Shear Modulus (GPa) = 17.92000 23.03929 20.47965
#
# Velocity S-wave (km/s) = 2.99468 3.39559 3.20142
# Velocity P-wave (km/s) = 5.92442 6.46406 6.20012
#
# Compressibility (1/GPa) = 0.02162585
#
# Stress axis : x y z
#
# Youngs Moduli (GPa) = 40.97737 88.49471 87.32028
#
# Poissons Ratio (x) = 0.47924 0.43281
# Poissons Ratio (y) = 0.22191 0.20896
# Poissons Ratio (z) = 0.20311 0.21177
#
# Static dielectric constant tensor:
#      x y z
#    x 3.419960 0.000000 0.000000 
#    y 0.000000 3.729890 0.000000 
#    z 0.000000 0.000000 3.678880 
# 
# 
# High freq. dielectric constant tensor:
#      x y z
#    x 1.763210 0.000000 0.000000 
#    y 0.000000 1.789720 0.000000 
#    z 0.000000 0.000000 1.780510 
# 
# From -- ./inp_files/40853.got.cif
#   From: 2010.03.12/outbox.cif.g09.slc.cpg/sg64_21_cif.got.tgz:40853.got - 2010.04.10 20:19:32.
