data_PCOD8263922
_publ_section_title
;
Structure prediction by ZEFSAII (Michael W. Deem and Ramdas Pophale) SiO2 
 PCOD8263922
Probable space group: C M C A
;
_chemical_formula_sum "Si O2"
_cell_formula_units_Z 96
_cell_length_a 10.910122
_cell_length_b 22.723653
_cell_length_c 20.658686
_cell_angle_alpha 90.000000
_cell_angle_beta 90.000000
_cell_angle_gamma 90.000000
_cell_volume 5121.656532
_symmetry_space_group_name_H-M "C M C A"
_symmetry_group_IT_number 64
_symmetry_cell_setting 'orthorhombic'
loop_
_space_group_symop_operation_xyz
x,y,z
-x,1/2-y,1/2+z
x,-y,-z
-x,1/2+y,1/2-z
-x,-y,-z
x,1/2+y,1/2-z
-x,y,z
x,1/2-y,1/2+z
1/2+x,1/2+y,z
1/2-x,-y,1/2+z
1/2+x,1/2-y,-z
1/2-x,y,1/2-z
1/2-x,1/2-y,-z
1/2+x,y,1/2-z
1/2-x,1/2+y,z
1/2+x,-y,1/2+z
loop_
_atom_site_type_symbol
_atom_site_label
_atom_site_fract_x
_atom_site_fract_y
_atom_site_fract_z
Si Si1 0.000000 0.517337 0.609164
Si Si2 0.245854 0.657051 0.470847
Si Si3 0.360510 0.850574 0.200276
Si Si4 0.749080 0.970792 0.174900
Si Si5 0.359943 0.268628 0.417591
Si Si6 0.000000 0.412047 0.520831
Si Si7 0.140985 0.462085 0.940000
O O1 0.112267 0.538890 0.652730
O O2 0.000000 0.447404 0.589999
O O3 0.000000 0.545928 0.539768
O O4 0.304652 0.682782 0.535242
O O5 0.222586 0.709499 0.419225
O O6 0.117163 0.628347 0.486499
O O7 0.338345 0.607567 0.445225
O O8 0.500000 0.853886 0.229741
O O9 0.250000 0.840913 0.250000
O O10 0.331802 0.912023 0.164079
O O11 0.354645 0.794792 0.153740
O O12 0.750000 0.990760 0.250000
O O13 0.694863 0.021056 0.129382
O O14 0.500000 0.254386 0.437784
O O15 0.000000 0.477289 0.939616
O O16 0.201567 0.500000 0.000000
#
# Coordination Sequence:
#
# PCOD8263922 Si02
#       7
#     8  16  16  16  16   8  16
#     4  11  22  36  60  89 124 157 199 240 309 370
#     4  11  21  36  58  90 115 151 195 244 301 357
#     4  10  22  40  61  85 116 156 202 248 298 360
#     4  11  24  37  60  88 123 159 196 250 305 368
#     4  10  21  39  59  83 118 153 193 248 304 352
#     4  11  20  36  60  91 117 153 196 254 296 360
#     4  11  22  38  61  86 118 157 198 244 299 364
#
# _framework density 18.743936000000001
#
# number of rings (size 3 to 8) (size 9 to 14) (size 15 to 20)
#    0.000    1.333    2.500    4.000    5.833    2.667 
#    1.500    0.833    0.000    2.000    0.000    0.000 
#    0.000    0.000    0.000    0.000    0.000    0.000 
#
# Total GULP energy -594968.521358 kJ/mol
# GULP energy per Si atom -12395.177528 kJ/mol
# Density = 1.870127 g / cm^3
# Si number density = 18.743936 Si / 1000 Ang^3
#
#
#
# Elastic Constant Matrix: (Units=GPa)
#
#
# Indices 1 2 3 4 5 6 
#
# 1 117.8678 24.5277 40.8415 0.0000 0.0000 0.0000
# 2 24.5277 100.3584 42.3882 0.0000 0.0000 0.0000
# 3 40.8415 42.3882 90.0400 0.0000 0.0000 0.0000
# 4 0.0000 0.0000 0.0000 24.4662 0.0000 0.0000
# 5 0.0000 0.0000 0.0000 0.0000 37.8781 0.0000
# 6 0.0000 0.0000 0.0000 0.0000 0.0000 38.1472
#
#
#
# Elastic Compliance Matrix: (Units=1/GPa)
#
#
# Indices 1 2 3 4 5 6 
#
# 1 0.010102 -0.000666 -0.004269 0.000000 0.000000 0.000000
# 2 -0.000666 0.012481 -0.005574 0.000000 0.000000 0.000000
# 3 -0.004269 -0.005574 0.015666 0.000000 0.000000 0.000000
# 4 0.000000 0.000000 0.000000 0.040873 0.000000 0.000000
# 5 0.000000 0.000000 0.000000 0.000000 0.026401 0.000000
# 6 0.000000 0.000000 0.000000 0.000000 0.000000 0.026214
#
#
# Mechanical properties :
#
#
# Convention : Reuss Voigt Hill
#
# Bulk Modulus (GPa) = 58.02895 58.19787 58.11341
# Shear Modulus (GPa) = 31.54626 33.46555 32.50591
#
# Velocity S-wave (km/s) = 4.10690 4.22999 4.16890
# Velocity P-wave (km/s) = 7.31539 7.41441 7.36506
#
# Compressibility (1/GPa) = 0.01723278
#
# Stress axis : x y z
#
# Youngs Moduli (GPa) = 98.99287 80.12045 63.83128
#
# Poissons Ratio (x) = 0.05336 0.27247
# Poissons Ratio (y) = 0.06593 0.35578
# Poissons Ratio (z) = 0.42256 0.44657
#
# Static dielectric constant tensor:
#      x y z
#    x 3.719070 0.000000 0.000000 
#    y 0.000000 3.663760 0.000000 
#    z 0.000000 0.000000 3.501160 
# 
# 
# High freq. dielectric constant tensor:
#      x y z
#    x 1.750160 0.000000 0.000000 
#    y 0.000000 1.728490 0.000000 
#    z 0.000000 0.000000 1.710480 
# 
# From -- ./inp_files/38319.got.cif
#   From: 2010.03.12/outbox.cif.g09.slc.cpg/sg64_20_cif.got.tgz:38319.got - 2010.04.10 20:19:32.
