data_PCOD8263542
_publ_section_title
;
Structure prediction by ZEFSAII (Michael W. Deem and Ramdas Pophale) SiO2 
 PCOD8263542
Probable space group: C M C A
;
_chemical_formula_sum "Si O2"
_cell_formula_units_Z 88
_cell_length_a 27.885441
_cell_length_b 17.265365
_cell_length_c 8.811492
_cell_angle_alpha 90.000000
_cell_angle_beta 90.000000
_cell_angle_gamma 90.000000
_cell_volume 4242.313240
_symmetry_space_group_name_H-M "C M C A"
_symmetry_group_IT_number 64
_symmetry_cell_setting 'orthorhombic'
loop_
_space_group_symop_operation_xyz
x,y,z
-x,1/2-y,1/2+z
x,-y,-z
-x,1/2+y,1/2-z
-x,-y,-z
x,1/2+y,1/2-z
-x,y,z
x,1/2-y,1/2+z
1/2+x,1/2+y,z
1/2-x,-y,1/2+z
1/2+x,1/2-y,-z
1/2-x,y,1/2-z
1/2-x,1/2-y,-z
1/2+x,y,1/2-z
1/2-x,1/2+y,z
1/2+x,-y,1/2+z
loop_
_atom_site_type_symbol
_atom_site_label
_atom_site_fract_x
_atom_site_fract_y
_atom_site_fract_z
Si Si1 0.579930 0.371133 0.288352
Si Si2 0.683858 0.664171 0.752441
Si Si3 0.924913 0.000000 0.500000
Si Si4 0.500000 0.580005 0.292904
Si Si5 0.251939 0.090294 0.973360
Si Si6 0.500000 0.708903 0.518260
Si Si7 0.500000 0.387529 0.053167
Si Si8 0.250000 0.195596 0.250000
O O1 0.626682 0.328144 0.223665
O O2 0.603201 0.435287 0.403791
O O3 0.546978 0.313632 0.385815
O O4 0.547741 0.407142 0.151496
O O5 0.700286 0.634851 0.586018
O O6 0.706737 0.598420 0.860670
O O7 0.704868 0.749205 0.789885
O O8 0.954707 0.038546 0.364997
O O9 0.500000 0.669025 0.351145
O O10 0.500000 0.568010 0.109326
O O11 0.235033 0.137258 0.118924
O O12 0.262825 0.000000 0.000000
O O13 0.500000 0.798167 0.487044
#
# Coordination Sequence:
#
# PCOD8263542 Si02
#       8
#    16  16   8   8  16   8   8   8
#     4  10  22  38  58  85 121 159 203 251 300 368
#     4  10  21  38  61  88 121 159 202 249 305 367
#     4   9  20  38  56  78 116 156 206 240 312 365
#     4   9  17  36  59  78 105 167 200 249 307 344
#     4  10  21  40  63  88 121 157 199 252 305 365
#     4   9  20  38  57  81 123 162 197 247 309 363
#     4  11  21  35  58  87 120 152 207 261 290 348
#     4  10  20  40  64  90 118 158 198 246 308 366
#
# _framework density 20.743400999999999
#
# number of rings (size 3 to 8) (size 9 to 14) (size 15 to 20)
#    0.000    2.364    0.000    6.000    1.273    4.364 
#    3.273    1.818    0.000    0.000    0.000    0.000 
#    0.000    0.000    0.000    0.000    0.000    0.000 
#
# Total GULP energy -545083.337423 kJ/mol
# GULP energy per Si atom -12388.257669 kJ/mol
# Density = 2.069619 g / cm^3
# Si number density = 20.743401 Si / 1000 Ang^3
#
#
#
# Elastic Constant Matrix: (Units=GPa)
#
#
# Indices 1 2 3 4 5 6 
#
# 1 130.5369 10.7934 24.8160 0.0000 0.0000 0.0000
# 2 10.7934 96.2123 23.3134 0.0000 0.0000 0.0000
# 3 24.8160 23.3134 114.1695 0.0000 0.0000 0.0000
# 4 0.0000 0.0000 0.0000 35.2836 0.0000 0.0000
# 5 0.0000 0.0000 0.0000 0.0000 14.3369 0.0000
# 6 0.0000 0.0000 0.0000 0.0000 0.0000 -10.8195
#
#
#
# Elastic Compliance Matrix: (Units=1/GPa)
#
#
# Indices 1 2 3 4 5 6 
#
# 1 0.008014 -0.000502 -0.001639 0.000000 0.000000 0.000000
# 2 -0.000502 0.010966 -0.002130 0.000000 0.000000 0.000000
# 3 -0.001639 -0.002130 0.009550 0.000000 0.000000 0.000000
# 4 0.000000 0.000000 0.000000 0.028342 0.000000 0.000000
# 5 0.000000 0.000000 0.000000 0.000000 0.069750 0.000000
# 6 0.000000 0.000000 0.000000 0.000000 0.000000 -0.092425
#
#
# Mechanical properties :
#
#
# Convention : Reuss Voigt Hill
#
# Bulk Modulus (GPa) = 50.03155 50.97381 50.50268
# Shear Modulus (GPa) = 101.21078 26.55992 63.88535
#
# Velocity S-wave (km/s) = 6.99269 3.58215 5.55561
# Velocity P-wave (km/s) = 9.45350 6.46034 8.09644
#
# Compressibility (1/GPa) = 0.01998739
#
# Stress axis : x y z
#
# Youngs Moduli (GPa) = 124.78435 91.18974 104.70939
#
# Poissons Ratio (x) = 0.04576 0.17166
# Poissons Ratio (y) = 0.06261 0.22305
# Poissons Ratio (z) = 0.20458 0.19425
#
# Static dielectric constant tensor:
#      x y z
#    x 3.517540 0.000000 0.000000 
#    y 0.000000 3.812640 0.000000 
#    z 0.000000 0.000000 4.231490 
# 
# 
# High freq. dielectric constant tensor:
#      x y z
#    x 1.778040 0.000000 0.000000 
#    y 0.000000 1.817490 0.000000 
#    z 0.000000 0.000000 1.822850 
# 
# From -- ./inp_files/11135.got.cif
#   From: 2010.03.12/outbox.cif.g09.slc.cpg/sg64_6_cif.got.tgz:11135.got - 2010.04.10 20:19:32.
