data_PCOD8263609
_publ_section_title
;
Structure prediction by ZEFSAII (Michael W. Deem and Ramdas Pophale) SiO2 
 PCOD8263609
Probable space group: C M C A
;
_chemical_formula_sum "Si O2"
_cell_formula_units_Z 80
_cell_length_a 23.078083
_cell_length_b 14.789802
_cell_length_c 11.016979
_cell_angle_alpha 90.000000
_cell_angle_beta 90.000000
_cell_angle_gamma 90.000000
_cell_volume 3760.318336
_symmetry_space_group_name_H-M "C M C A"
_symmetry_group_IT_number 64
_symmetry_cell_setting 'orthorhombic'
loop_
_space_group_symop_operation_xyz
x,y,z
-x,1/2-y,1/2+z
x,-y,-z
-x,1/2+y,1/2-z
-x,-y,-z
x,1/2+y,1/2-z
-x,y,z
x,1/2-y,1/2+z
1/2+x,1/2+y,z
1/2-x,-y,1/2+z
1/2+x,1/2-y,-z
1/2-x,y,1/2-z
1/2-x,1/2-y,-z
1/2+x,y,1/2-z
1/2-x,1/2+y,z
1/2+x,-y,1/2+z
loop_
_atom_site_type_symbol
_atom_site_label
_atom_site_fract_x
_atom_site_fract_y
_atom_site_fract_z
Si Si1 0.159892 0.872128 0.267326
Si Si2 0.361784 0.818005 0.839456
Si Si3 0.692867 0.055694 0.331035
Si Si4 0.433667 0.896478 0.030037
Si Si5 0.735575 0.646688 0.513577
O O1 0.156444 0.786361 0.177340
O O2 0.103926 0.867097 0.353365
O O3 0.219659 0.874828 0.346738
O O4 0.161994 0.958584 0.179323
O O5 0.355276 0.869778 0.711054
O O6 0.422770 0.833439 0.909453
O O7 0.320307 0.872662 0.932040
O O8 0.750000 0.067119 0.250000
O O9 0.711822 0.081557 0.469301
O O10 0.500000 0.882711 0.068148
O O11 0.419523 0.000000 0.000000
O O12 0.750000 0.750000 0.500000
#
# Coordination Sequence:
#
# PCOD8263609 Si02
#       5
#    16  16  16  16  16
#     4  11  22  38  59  86 124 158 202 250 302 367
#     4  10  21  37  56  87 114 153 205 246 296 372
#     4  10  21  34  54  85 121 159 201 234 292 354
#     4  10  21  40  64  86 112 152 204 265 316 363
#     4  10  21  36  55  82 122 162 195 238 293 362
#
# _framework density 21.274795000000001
#
# number of rings (size 3 to 8) (size 9 to 14) (size 15 to 20)
#    0.000    1.800    4.000    0.000    2.800    0.800 
#    0.000    0.000    0.000    0.000    0.000    1.400 
#    0.000    0.000    0.000    0.000    0.000    0.000 
#
# Total GULP energy -495769.519849 kJ/mol
# GULP energy per Si atom -12394.237996 kJ/mol
# Density = 2.122637 g / cm^3
# Si number density = 21.274795 Si / 1000 Ang^3
#
#
#
# Elastic Constant Matrix: (Units=GPa)
#
#
# Indices 1 2 3 4 5 6 
#
# 1 62.4413 26.8765 48.0990 0.0000 0.0000 0.0000
# 2 26.8765 155.5148 42.2655 0.0000 0.0000 0.0000
# 3 48.0990 42.2655 89.3712 0.0000 0.0000 0.0000
# 4 0.0000 0.0000 0.0000 39.0314 0.0000 0.0000
# 5 0.0000 0.0000 0.0000 0.0000 22.1367 0.0000
# 6 0.0000 0.0000 0.0000 0.0000 0.0000 25.0197
#
#
#
# Elastic Compliance Matrix: (Units=1/GPa)
#
#
# Indices 1 2 3 4 5 6 
#
# 1 0.027451 -0.000836 -0.014378 0.000000 0.000000 0.000000
# 2 -0.000836 0.007404 -0.003051 0.000000 0.000000 0.000000
# 3 -0.014378 -0.003051 0.020371 0.000000 0.000000 0.000000
# 4 0.000000 0.000000 0.000000 0.025620 0.000000 0.000000
# 5 0.000000 0.000000 0.000000 0.000000 0.045174 0.000000
# 6 0.000000 0.000000 0.000000 0.000000 0.000000 0.039968
#
#
# Mechanical properties :
#
#
# Convention : Reuss Voigt Hill
#
# Bulk Modulus (GPa) = 53.49498 60.20104 56.84801
# Shear Modulus (GPa) = 23.95193 29.90999 26.93096
#
# Velocity S-wave (km/s) = 3.35899 3.75359 3.56176
# Velocity P-wave (km/s) = 6.34374 6.86616 6.61012
#
# Compressibility (1/GPa) = 0.01869334
#
# Stress axis : x y z
#
# Youngs Moduli (GPa) = 36.42887 135.06012 49.09026
#
# Poissons Ratio (x) = 0.11297 0.70583
# Poissons Ratio (y) = 0.03047 0.14979
# Poissons Ratio (z) = 0.52378 0.41212
#
# Static dielectric constant tensor:
#      x y z
#    x 3.788020 0.000000 0.000000 
#    y 0.000000 3.815400 0.000000 
#    z 0.000000 0.000000 4.304930 
# 
# 
# High freq. dielectric constant tensor:
#      x y z
#    x 1.789700 0.000000 0.000000 
#    y 0.000000 1.847500 0.000000 
#    z 0.000000 0.000000 1.839480 
# 
# From -- ./inp_files/18058.got.cif
#   From: 2010.03.12/outbox.cif.g09.slc.cpg/sg64_10_cif.got.tgz:18058.got - 2010.04.10 20:19:32.
