data_PCOD8263007
_publ_section_title
;
Structure prediction by ZEFSAII (Michael W. Deem and Ramdas Pophale) SiO2 
 PCOD8263007
Probable space group: C M C A
;
_chemical_formula_sum "Si O2"
_cell_formula_units_Z 112
_cell_length_a 17.846373
_cell_length_b 29.896890
_cell_length_c 11.232846
_cell_angle_alpha 90.000000
_cell_angle_beta 90.000000
_cell_angle_gamma 90.000000
_cell_volume 5993.296783
_symmetry_space_group_name_H-M "C M C A"
_symmetry_group_IT_number 64
_symmetry_cell_setting 'orthorhombic'
loop_
_space_group_symop_operation_xyz
x,y,z
-x,1/2-y,1/2+z
x,-y,-z
-x,1/2+y,1/2-z
-x,-y,-z
x,1/2+y,1/2-z
-x,y,z
x,1/2-y,1/2+z
1/2+x,1/2+y,z
1/2-x,-y,1/2+z
1/2+x,1/2-y,-z
1/2-x,y,1/2-z
1/2-x,1/2-y,-z
1/2+x,y,1/2-z
1/2-x,1/2+y,z
1/2+x,-y,1/2+z
loop_
_atom_site_type_symbol
_atom_site_label
_atom_site_fract_x
_atom_site_fract_y
_atom_site_fract_z
Si Si1 0.342190 0.331486 0.062080
Si Si2 0.412891 0.456409 0.434428
Si Si3 0.662864 0.671769 0.217412
Si Si4 0.669213 0.820612 0.091016
Si Si5 0.912470 0.128106 0.405987
Si Si6 0.588253 0.261880 0.234983
Si Si7 0.835374 0.403053 0.255191
O O1 0.258209 0.315107 0.090065
O O2 0.395311 0.294500 0.122957
O O3 0.355768 0.382728 0.113151
O O4 0.354684 0.331552 0.921891
O O5 0.377748 0.500000 0.500000
O O6 0.500000 0.463996 0.413426
O O7 0.394189 0.417578 0.527410
O O8 0.380838 0.445176 0.301267
O O9 0.750000 0.673863 0.250000
O O10 0.623489 0.627208 0.273600
O O11 0.619602 0.712318 0.282849
O O12 0.631474 0.776734 0.145091
O O13 0.645093 0.861266 0.173972
O O14 0.633011 0.830442 0.963985
O O15 0.000000 0.138594 0.405341
O O16 0.500000 0.261418 0.257855
O O17 0.750000 0.418612 0.250000
#
# Coordination Sequence:
#
# PCOD8263007 Si02
#       7
#    16  16  16  16  16  16  16
#     4  10  21  38  56  78 108 150 194 240 285 342
#     4   9  18  35  62  90 114 143 181 227 279 342
#     4  12  24  37  54  77 109 155 192 233 285 343
#     4   9  17  36  58  78 100 145 189 235 280 335
#     4  10  20  35  56  82 110 141 185 235 282 333
#     4  11  24  36  51  78 112 146 194 247 286 326
#     4   8  16  32  58  83 111 138 179 229 279 329
#
# _framework density 18.687543999999999
#
# number of rings (size 3 to 8) (size 9 to 14) (size 15 to 20)
#    0.000    2.143    1.429    3.000    2.000    5.714 
#    0.000    0.714    0.000    0.000    0.000    3.000 
#    0.000    0.000    0.000    0.000    0.000    0.000 
#
# Total GULP energy -693789.499650 kJ/mol
# GULP energy per Si atom -12389.098208 kJ/mol
# Density = 1.864501 g / cm^3
# Si number density = 18.687544 Si / 1000 Ang^3
#
#
#
# Elastic Constant Matrix: (Units=GPa)
#
#
# Indices 1 2 3 4 5 6 
#
# 1 89.2328 40.4150 27.3326 0.0000 0.0000 0.0000
# 2 40.4150 60.1258 43.7268 0.0000 0.0000 0.0000
# 3 27.3326 43.7268 107.1216 0.0000 0.0000 0.0000
# 4 0.0000 0.0000 0.0000 21.5423 0.0000 0.0000
# 5 0.0000 0.0000 0.0000 0.0000 27.4865 0.0000
# 6 0.0000 0.0000 0.0000 0.0000 0.0000 21.5127
#
#
#
# Elastic Compliance Matrix: (Units=1/GPa)
#
#
# Indices 1 2 3 4 5 6 
#
# 1 0.016126 -0.011160 0.000441 0.000000 0.000000 0.000000
# 2 -0.011160 0.031377 -0.009961 0.000000 0.000000 0.000000
# 3 0.000441 -0.009961 0.013289 0.000000 0.000000 0.000000
# 4 0.000000 0.000000 0.000000 0.046420 0.000000 0.000000
# 5 0.000000 0.000000 0.000000 0.000000 0.036382 0.000000
# 6 0.000000 0.000000 0.000000 0.000000 0.000000 0.046484
#
#
# Mechanical properties :
#
#
# Convention : Reuss Voigt Hill
#
# Bulk Modulus (GPa) = 51.46078 53.26986 52.36532
# Shear Modulus (GPa) = 21.01587 23.77536 22.39562
#
# Velocity S-wave (km/s) = 3.35713 3.57074 3.46558
# Velocity P-wave (km/s) = 6.52873 6.75038 6.64048
#
# Compressibility (1/GPa) = 0.01943228
#
# Stress axis : x y z
#
# Youngs Moduli (GPa) = 62.01063 31.87011 75.25272
#
# Poissons Ratio (x) = 0.35568 -0.03318
# Poissons Ratio (y) = 0.69206 0.74956
# Poissons Ratio (z) = -0.02734 0.31744
#
# Static dielectric constant tensor:
#      x y z
#    x 3.381040 0.000000 0.000000 
#    y 0.000000 3.389280 0.000000 
#    z 0.000000 0.000000 3.802120 
# 
# 
# High freq. dielectric constant tensor:
#      x y z
#    x 1.724890 0.000000 0.000000 
#    y 0.000000 1.695010 0.000000 
#    z 0.000000 0.000000 1.731630 
# 
# From -- ./inp_files/14981.got.cif
#   From: 2010.03.12/outbox.cif.g09.slc.cpg/sg64_8_cif.got.tgz:14981.got - 2010.04.10 20:19:32.
