data_PCOD8263543
_publ_section_title
;
Structure prediction by ZEFSAII (Michael W. Deem and Ramdas Pophale) SiO2 
 PCOD8263543
Probable space group: C M C A
;
_chemical_formula_sum "Si O2"
_cell_formula_units_Z 88
_cell_length_a 17.610759
_cell_length_b 19.745336
_cell_length_c 12.641394
_cell_angle_alpha 90.000000
_cell_angle_beta 90.000000
_cell_angle_gamma 90.000000
_cell_volume 4395.796407
_symmetry_space_group_name_H-M "C M C A"
_symmetry_group_IT_number 64
_symmetry_cell_setting 'orthorhombic'
loop_
_space_group_symop_operation_xyz
x,y,z
-x,1/2-y,1/2+z
x,-y,-z
-x,1/2+y,1/2-z
-x,-y,-z
x,1/2+y,1/2-z
-x,y,z
x,1/2-y,1/2+z
1/2+x,1/2+y,z
1/2-x,-y,1/2+z
1/2+x,1/2-y,-z
1/2-x,y,1/2-z
1/2-x,1/2-y,-z
1/2+x,y,1/2-z
1/2-x,1/2+y,z
1/2+x,-y,1/2+z
loop_
_atom_site_type_symbol
_atom_site_label
_atom_site_fract_x
_atom_site_fract_y
_atom_site_fract_z
Si Si1 0.414613 0.076650 0.314730
Si Si2 0.410335 0.834532 0.269933
Si Si3 0.343410 0.626170 0.994581
Si Si4 0.768026 0.000000 0.500000
Si Si5 0.331283 0.539488 0.708100
Si Si6 0.828814 0.204065 0.193854
O O1 0.500000 0.071096 0.272057
O O2 0.413498 0.091070 0.441576
O O3 0.369788 0.137719 0.255300
O O4 0.369798 0.007196 0.297072
O O5 0.500000 0.833852 0.286763
O O6 0.368812 0.844828 0.382452
O O7 0.385079 0.895392 0.192379
O O8 0.385143 0.766436 0.211854
O O9 0.314762 0.689428 0.068181
O O10 0.278243 0.569503 0.984972
O O11 0.823348 0.995833 0.601310
O O12 0.250000 0.564267 0.750000
O O13 0.750000 0.219744 0.250000
#
# Coordination Sequence:
#
# PCOD8263543 Si02
#       6
#    16  16  16   8  16  16
#     4  10  20  40  64  92 129 167 213 263 320 382
#     4  12  25  42  64  95 135 173 217 272 323 383
#     4  10  22  39  71  94 128 167 220 268 323 380
#     4  12  22  42  70 100 126 162 220 278 320 388
#     4  12  22  41  64  96 128 167 213 269 323 386
#     4  10  23  42  64  95 130 172 219 263 324 390
#
# _framework density 20.019127000000001
#
# number of rings (size 3 to 8) (size 9 to 14) (size 15 to 20)
#    1.091    0.000    3.636    3.818    0.000    0.727 
#    3.273    4.545    0.000    0.000    0.000    0.000 
#    0.000    0.000    0.000    0.000    0.000    0.000 
#
# Total GULP energy -545286.945767 kJ/mol
# GULP energy per Si atom -12392.885131 kJ/mol
# Density = 1.997356 g / cm^3
# Si number density = 20.019127 Si / 1000 Ang^3
#
#
#
# Elastic Constant Matrix: (Units=GPa)
#
#
# Indices 1 2 3 4 5 6 
#
# 1 91.3795 33.7839 22.7435 0.0000 0.0000 0.0000
# 2 33.7839 115.4592 23.0945 0.0000 0.0000 0.0000
# 3 22.7435 23.0945 90.3722 0.0000 0.0000 0.0000
# 4 0.0000 0.0000 0.0000 33.9967 0.0000 0.0000
# 5 0.0000 0.0000 0.0000 0.0000 22.9340 0.0000
# 6 0.0000 0.0000 0.0000 0.0000 0.0000 27.3962
#
#
#
# Elastic Compliance Matrix: (Units=1/GPa)
#
#
# Indices 1 2 3 4 5 6 
#
# 1 0.012737 -0.003252 -0.002374 0.000000 0.000000 0.000000
# 2 -0.003252 0.009958 -0.001726 0.000000 0.000000 0.000000
# 3 -0.002374 -0.001726 0.012104 0.000000 0.000000 0.000000
# 4 0.000000 0.000000 0.000000 0.029415 0.000000 0.000000
# 5 0.000000 0.000000 0.000000 0.000000 0.043603 0.000000
# 6 0.000000 0.000000 0.000000 0.000000 0.000000 0.036501
#
#
# Mechanical properties :
#
#
# Convention : Reuss Voigt Hill
#
# Bulk Modulus (GPa) = 49.76755 50.71721 50.24238
# Shear Modulus (GPa) = 30.17122 31.37131 30.77126
#
# Velocity S-wave (km/s) = 3.88638 3.96291 3.92483
# Velocity P-wave (km/s) = 6.71212 6.80654 6.75949
#
# Compressibility (1/GPa) = 0.02009342
#
# Stress axis : x y z
#
# Youngs Moduli (GPa) = 78.51411 100.42293 82.61691
#
# Poissons Ratio (x) = 0.32656 0.19616
# Poissons Ratio (y) = 0.25532 0.14263
# Poissons Ratio (z) = 0.18642 0.17337
#
# Static dielectric constant tensor:
#      x y z
#    x 3.556280 0.000000 0.000000 
#    y 0.000000 3.649640 0.000000 
#    z 0.000000 0.000000 3.619920 
# 
# 
# High freq. dielectric constant tensor:
#      x y z
#    x 1.773270 0.000000 0.000000 
#    y 0.000000 1.787510 0.000000 
#    z 0.000000 0.000000 1.767310 
# 
# From -- ./inp_files/25407.got.cif
#   From: 2010.03.12/outbox.cif.g09.slc.cpg/sg64_13_cif.got.tgz:25407.got - 2010.04.10 20:19:32.
