data_PCOD8263761
_publ_section_title
;
Structure prediction by ZEFSAII (Michael W. Deem and Ramdas Pophale) SiO2 
 PCOD8263761
Probable space group: C M C A
;
_chemical_formula_sum "Si O2"
_cell_formula_units_Z 56
_cell_length_a 15.091249
_cell_length_b 34.223019
_cell_length_c 4.972238
_cell_angle_alpha 90.000000
_cell_angle_beta 90.000000
_cell_angle_gamma 90.000000
_cell_volume 2568.002319
_symmetry_space_group_name_H-M "C M C A"
_symmetry_group_IT_number 64
_symmetry_cell_setting 'orthorhombic'
loop_
_space_group_symop_operation_xyz
x,y,z
-x,1/2-y,1/2+z
x,-y,-z
-x,1/2+y,1/2-z
-x,-y,-z
x,1/2+y,1/2-z
-x,y,z
x,1/2-y,1/2+z
1/2+x,1/2+y,z
1/2-x,-y,1/2+z
1/2+x,1/2-y,-z
1/2-x,y,1/2-z
1/2-x,1/2-y,-z
1/2+x,y,1/2-z
1/2-x,1/2+y,z
1/2+x,-y,1/2+z
loop_
_atom_site_type_symbol
_atom_site_label
_atom_site_fract_x
_atom_site_fract_y
_atom_site_fract_z
Si Si1 0.652043 0.664962 0.669129
Si Si2 0.000000 0.276077 0.117233
Si Si3 0.099242 0.619214 0.321165
Si Si4 0.812425 0.457627 0.502132
O O1 0.750000 0.679874 0.750000
O O2 0.589842 0.699576 0.558782
O O3 0.661211 0.632141 0.431560
O O4 0.605502 0.649162 0.934865
O O5 0.000000 0.260993 0.421651
O O6 0.118663 0.576739 0.443760
O O7 0.000000 0.619253 0.205977
O O8 0.862219 0.500000 0.500000
O O9 0.750000 0.461319 0.750000
O O10 0.750000 0.447716 0.250000
#
# Coordination Sequence:
#
# PCOD8263761 Si02
#       4
#    16   8  16  16
#     4  12  25  44  69  98 130 172 217 261 322 388
#     4  12  26  46  70  98 135 162 207 268 326 388
#     4  12  22  40  65  95 132 170 222 273 316 375
#     4  10  21  37  58  89 129 173 221 270 321 376
#
# _framework density 21.806835
#
# number of rings (size 3 to 8) (size 9 to 14) (size 15 to 20)
#    0.000    0.571    2.857    6.857    0.000    1.714 
#    0.000    0.000    0.000    8.571    0.000    0.000 
#    0.000    0.000    0.000    0.000    0.000    0.000 
#
# Total GULP energy -347166.918493 kJ/mol
# GULP energy per Si atom -12398.818518 kJ/mol
# Density = 2.175720 g / cm^3
# Si number density = 21.806835 Si / 1000 Ang^3
#
#
#
# Elastic Constant Matrix: (Units=GPa)
#
#
# Indices 1 2 3 4 5 6 
#
# 1 115.2621 54.5863 21.8564 0.0000 0.0000 0.0000
# 2 54.5863 104.1614 26.5116 0.0000 0.0000 0.0000
# 3 21.8564 26.5116 124.4298 0.0000 0.0000 0.0000
# 4 0.0000 0.0000 0.0000 41.2396 0.0000 0.0000
# 5 0.0000 0.0000 0.0000 0.0000 11.7181 0.0000
# 6 0.0000 0.0000 0.0000 0.0000 0.0000 22.2884
#
#
#
# Elastic Compliance Matrix: (Units=1/GPa)
#
#
# Indices 1 2 3 4 5 6 
#
# 1 0.011612 -0.005885 -0.000786 0.000000 0.000000 0.000000
# 2 -0.005885 0.013134 -0.001765 0.000000 0.000000 0.000000
# 3 -0.000786 -0.001765 0.008551 0.000000 0.000000 0.000000
# 4 0.000000 0.000000 0.000000 0.024249 0.000000 0.000000
# 5 0.000000 0.000000 0.000000 0.000000 0.085338 0.000000
# 6 0.000000 0.000000 0.000000 0.000000 0.000000 0.044866
#
#
# Mechanical properties :
#
#
# Convention : Reuss Voigt Hill
#
# Bulk Modulus (GPa) = 60.88194 61.08464 60.98329
# Shear Modulus (GPa) = 23.79861 31.10916 27.45388
#
# Velocity S-wave (km/s) = 3.30712 3.78110 3.55203
# Velocity P-wave (km/s) = 6.52396 6.86548 6.69690
#
# Compressibility (1/GPa) = 0.01642523
#
# Stress axis : x y z
#
# Youngs Moduli (GPa) = 86.11708 76.13895 116.95027
#
# Poissons Ratio (x) = 0.44811 0.09189
# Poissons Ratio (y) = 0.50683 0.20637
# Poissons Ratio (z) = 0.06766 0.13435
#
# Static dielectric constant tensor:
#      x y z
#    x 3.713270 0.000000 0.000000 
#    y 0.000000 5.976430 0.000000 
#    z 0.000000 0.000000 4.065650 
# 
# 
# High freq. dielectric constant tensor:
#      x y z
#    x 1.841680 0.000000 0.000000 
#    y 0.000000 1.860480 0.000000 
#    z 0.000000 0.000000 1.879910 
# 
# From -- ./inp_files/876.got.cif
#   From: 2010.03.12/outbox.cif.g09.slc.cpg/sg64_1_cif.got.tgz:876.got - 2010.04.10 20:19:32.
