data_PCOD8263522
_publ_section_title
;
Structure prediction by ZEFSAII (Michael W. Deem and Ramdas Pophale) SiO2 
 PCOD8263522
Probable space group: C M C A
;
_chemical_formula_sum "Si O2"
_cell_formula_units_Z 64
_cell_length_a 20.438922
_cell_length_b 12.608414
_cell_length_c 10.359306
_cell_angle_alpha 90.000000
_cell_angle_beta 90.000000
_cell_angle_gamma 90.000000
_cell_volume 2669.617918
_symmetry_space_group_name_H-M "C M C A"
_symmetry_group_IT_number 64
_symmetry_cell_setting 'orthorhombic'
loop_
_space_group_symop_operation_xyz
x,y,z
-x,1/2-y,1/2+z
x,-y,-z
-x,1/2+y,1/2-z
-x,-y,-z
x,1/2+y,1/2-z
-x,y,z
x,1/2-y,1/2+z
1/2+x,1/2+y,z
1/2-x,-y,1/2+z
1/2+x,1/2-y,-z
1/2-x,y,1/2-z
1/2-x,1/2-y,-z
1/2+x,y,1/2-z
1/2-x,1/2+y,z
1/2+x,-y,1/2+z
loop_
_atom_site_type_symbol
_atom_site_label
_atom_site_fract_x
_atom_site_fract_y
_atom_site_fract_z
Si Si1 0.147522 0.203123 0.560975
Si Si2 0.925156 0.020590 0.680181
Si Si3 0.683286 0.653458 0.292212
Si Si4 0.072420 0.604975 0.548985
O O1 0.109711 0.089410 0.568401
O O2 0.197446 0.189086 0.440478
O O3 0.178555 0.243669 0.695829
O O4 0.097086 0.287484 0.508549
O O5 0.926685 0.105423 0.796605
O O6 0.000000 0.986365 0.644245
O O7 0.881953 0.917865 0.718710
O O8 0.750000 0.591620 0.250000
O O9 0.111849 0.500000 0.500000
O O10 0.000000 0.596370 0.490877
#
# Coordination Sequence:
#
# PCOD8263522 Si02
#       4
#    16  16  16  16
#     4  12  24  47  72 106 141 189 243 297 357 430
#     4  11  25  46  74 108 145 187 240 302 366 433
#     4  12  28  48  71 104 144 192 240 298 361 435
#     4  10  20  39  70 105 141 185 232 289 362 432
#
# _framework density 23.973468
#
# number of rings (size 3 to 8) (size 9 to 14) (size 15 to 20)
#    0.000    0.750    5.000    2.250    0.000    5.000 
#    9.000    0.000    0.000    0.000    0.000    0.000 
#    0.000    0.000    0.000    0.000    0.000    0.000 
#
# Total GULP energy -396465.505298 kJ/mol
# GULP energy per Si atom -12389.547041 kJ/mol
# Density = 2.391890 g / cm^3
# Si number density = 23.973468 Si / 1000 Ang^3
#
#
#
# Elastic Constant Matrix: (Units=GPa)
#
#
# Indices 1 2 3 4 5 6 
#
# 1 125.8999 40.8227 42.5294 0.0000 0.0000 0.0000
# 2 40.8227 108.1690 28.5603 0.0000 0.0000 0.0000
# 3 42.5294 28.5603 136.6867 0.0000 0.0000 0.0000
# 4 0.0000 0.0000 0.0000 43.1375 0.0000 0.0000
# 5 0.0000 0.0000 0.0000 0.0000 23.1278 0.0000
# 6 0.0000 0.0000 0.0000 0.0000 0.0000 25.6182
#
#
#
# Elastic Compliance Matrix: (Units=1/GPa)
#
#
# Indices 1 2 3 4 5 6 
#
# 1 0.009738 -0.003043 -0.002394 0.000000 0.000000 0.000000
# 2 -0.003043 0.010736 -0.001296 0.000000 0.000000 0.000000
# 3 -0.002394 -0.001296 0.008332 0.000000 0.000000 0.000000
# 4 0.000000 0.000000 0.000000 0.023182 0.000000 0.000000
# 5 0.000000 0.000000 0.000000 0.000000 0.043238 0.000000
# 6 0.000000 0.000000 0.000000 0.000000 0.000000 0.039035
#
#
# Mechanical properties :
#
#
# Convention : Reuss Voigt Hill
#
# Bulk Modulus (GPa) = 65.19554 66.06448 65.63001
# Shear Modulus (GPa) = 32.71396 35.63292 34.17344
#
# Velocity S-wave (km/s) = 3.69804 3.85950 3.77963
# Velocity P-wave (km/s) = 6.74448 6.89044 6.81785
#
# Compressibility (1/GPa) = 0.01533847
#
# Stress axis : x y z
#
# Youngs Moduli (GPa) = 102.68755 93.14887 120.02208
#
# Poissons Ratio (x) = 0.28346 0.28735
# Poissons Ratio (y) = 0.31248 0.15559
# Poissons Ratio (z) = 0.24585 0.12075
#
# Static dielectric constant tensor:
#      x y z
#    x 4.136720 0.000000 0.000000 
#    y 0.000000 4.443930 0.000000 
#    z 0.000000 0.000000 5.166700 
# 
# 
# High freq. dielectric constant tensor:
#      x y z
#    x 1.932770 0.000000 0.000000 
#    y 0.000000 1.941330 0.000000 
#    z 0.000000 0.000000 1.980460 
# 
# From -- ./inp_files/16773.got.cif
#   From: 2010.03.12/outbox.cif.g09.slc.cpg/sg64_9_cif.got.tgz:16773.got - 2010.04.10 20:19:32.
