data_PCOD8263737
_publ_section_title
;
Structure prediction by ZEFSAII (Michael W. Deem and Ramdas Pophale) SiO2 
 PCOD8263737
Probable space group: C M C A
;
_chemical_formula_sum "Si O2"
_cell_formula_units_Z 80
_cell_length_a 24.717468
_cell_length_b 9.553706
_cell_length_c 16.739852
_cell_angle_alpha 90.000000
_cell_angle_beta 90.000000
_cell_angle_gamma 90.000000
_cell_volume 3953.005941
_symmetry_space_group_name_H-M "C M C A"
_symmetry_group_IT_number 64
_symmetry_cell_setting 'orthorhombic'
loop_
_space_group_symop_operation_xyz
x,y,z
-x,1/2-y,1/2+z
x,-y,-z
-x,1/2+y,1/2-z
-x,-y,-z
x,1/2+y,1/2-z
-x,y,z
x,1/2-y,1/2+z
1/2+x,1/2+y,z
1/2-x,-y,1/2+z
1/2+x,1/2-y,-z
1/2-x,y,1/2-z
1/2-x,1/2-y,-z
1/2+x,y,1/2-z
1/2-x,1/2+y,z
1/2+x,-y,1/2+z
loop_
_atom_site_type_symbol
_atom_site_label
_atom_site_fract_x
_atom_site_fract_y
_atom_site_fract_z
Si Si1 0.219070 0.773674 0.080904
Si Si2 0.279605 0.050450 0.328424
Si Si3 0.398570 0.709878 0.956484
Si Si4 0.000000 0.528359 0.286134
Si Si5 0.603553 0.589702 0.121587
Si Si6 0.000000 0.282423 0.859015
O O1 0.245349 0.687112 0.151723
O O2 0.157420 0.721349 0.072510
O O3 0.223277 0.937480 0.100989
O O4 0.250000 0.750000 0.000000
O O5 0.250000 0.988299 0.250000
O O6 0.342789 0.096033 0.322086
O O7 0.401358 0.553307 0.925529
O O8 0.448489 0.792507 0.917814
O O9 0.398487 0.711272 0.053741
O O10 0.052360 0.605685 0.321476
O O11 0.000000 0.574968 0.193251
O O12 0.000000 0.360179 0.303607
#
# Coordination Sequence:
#
# PCOD8263737 Si02
#       6
#    16  16  16   8  16   8
#     4  11  21  39  60  86 118 154 200 240 289 352
#     4  11  23  37  58  88 121 155 192 245 297 352
#     4   9  18  35  60  83 106 150 198 239 269 346
#     4  10  21  37  57  85 111 148 182 246 290 340
#     4   9  18  36  58  81 112 149 196 230 285 347
#     4  10  21  37  61  85 115 146 194 238 293 341
#
# _framework density 20.237765
#
# number of rings (size 3 to 8) (size 9 to 14) (size 15 to 20)
#    0.000    2.000    2.000    1.800    2.800    2.400 
#    3.600    0.000    0.000    1.200    0.000    0.000 
#    0.000    0.000    0.000    0.000    0.000    0.000 
#
# Total GULP energy -495769.576165 kJ/mol
# GULP energy per Si atom -12394.239404 kJ/mol
# Density = 2.019170 g / cm^3
# Si number density = 20.237765 Si / 1000 Ang^3
#
#
#
# Elastic Constant Matrix: (Units=GPa)
#
#
# Indices 1 2 3 4 5 6 
#
# 1 191.1056 21.8009 58.6928 0.0000 0.0000 0.0000
# 2 21.8009 35.4512 6.1121 0.0000 0.0000 0.0000
# 3 58.6928 6.1121 92.7699 0.0000 0.0000 0.0000
# 4 0.0000 0.0000 0.0000 31.0792 0.0000 0.0000
# 5 0.0000 0.0000 0.0000 0.0000 39.9012 0.0000
# 6 0.0000 0.0000 0.0000 0.0000 0.0000 20.5832
#
#
#
# Elastic Compliance Matrix: (Units=1/GPa)
#
#
# Indices 1 2 3 4 5 6 
#
# 1 0.006906 -0.003534 -0.004137 0.000000 0.000000 0.000000
# 2 -0.003534 0.030340 0.000237 0.000000 0.000000 0.000000
# 3 -0.004137 0.000237 0.013381 0.000000 0.000000 0.000000
# 4 0.000000 0.000000 0.000000 0.032176 0.000000 0.000000
# 5 0.000000 0.000000 0.000000 0.000000 0.025062 0.000000
# 6 0.000000 0.000000 0.000000 0.000000 0.000000 0.048583
#
#
# Mechanical properties :
#
#
# Convention : Reuss Voigt Hill
#
# Bulk Modulus (GPa) = 27.96417 54.72648 41.34532
# Shear Modulus (GPa) = 27.28726 33.82744 30.55735
#
# Velocity S-wave (km/s) = 3.67595 4.09283 3.88998
# Velocity P-wave (km/s) = 5.64488 7.03104 6.37574
#
# Compressibility (1/GPa) = 0.03576005
#
# Stress axis : x y z
#
# Youngs Moduli (GPa) = 144.79572 32.95964 74.73365
#
# Poissons Ratio (x) = 0.11648 0.30914
# Poissons Ratio (y) = 0.51169 -0.01770
# Poissons Ratio (z) = 0.59896 -0.00781
#
# Static dielectric constant tensor:
#      x y z
#    x 4.125980 0.000000 0.000000 
#    y 0.000000 3.719020 0.000000 
#    z 0.000000 0.000000 3.687150 
# 
# 
# High freq. dielectric constant tensor:
#      x y z
#    x 1.811670 0.000000 0.000000 
#    y 0.000000 1.749820 0.000000 
#    z 0.000000 0.000000 1.786550 
# 
# From -- ./inp_files/34050.got.cif
#   From: 2010.03.12/outbox.cif.g09.slc.cpg/sg64_18_cif.got.tgz:34050.got - 2010.04.10 20:19:32.
