data_PCOD8263995
_publ_section_title
;
Structure prediction by ZEFSAII (Michael W. Deem and Ramdas Pophale) SiO2 
 PCOD8263995
Probable space group: C M C A
;
_chemical_formula_sum "Si O2"
_cell_formula_units_Z 112
_cell_length_a 22.697142
_cell_length_b 14.282355
_cell_length_c 16.694538
_cell_angle_alpha 90.000000
_cell_angle_beta 90.000000
_cell_angle_gamma 90.000000
_cell_volume 5411.845671
_symmetry_space_group_name_H-M "C M C A"
_symmetry_group_IT_number 64
_symmetry_cell_setting 'orthorhombic'
loop_
_space_group_symop_operation_xyz
x,y,z
-x,1/2-y,1/2+z
x,-y,-z
-x,1/2+y,1/2-z
-x,-y,-z
x,1/2+y,1/2-z
-x,y,z
x,1/2-y,1/2+z
1/2+x,1/2+y,z
1/2-x,-y,1/2+z
1/2+x,1/2-y,-z
1/2-x,y,1/2-z
1/2-x,1/2-y,-z
1/2+x,y,1/2-z
1/2-x,1/2+y,z
1/2+x,-y,1/2+z
loop_
_atom_site_type_symbol
_atom_site_label
_atom_site_fract_x
_atom_site_fract_y
_atom_site_fract_z
Si Si1 0.132937 0.342075 0.194934
Si Si2 0.566907 0.325046 0.061742
Si Si3 0.567488 0.519629 0.808719
Si Si4 0.761454 0.601265 0.912611
Si Si5 0.245148 0.103473 0.094327
Si Si6 0.385545 0.838580 0.613127
Si Si7 0.827361 0.250242 0.851834
O O1 0.094041 0.424876 0.232683
O O2 0.177329 0.387258 0.132503
O O3 0.094720 0.262124 0.149467
O O4 0.168716 0.285335 0.261844
O O5 0.500000 0.287706 0.068989
O O6 0.575587 0.420573 0.110857
O O7 0.609850 0.246893 0.101159
O O8 0.580965 0.351304 0.970477
O O9 0.500000 0.500708 0.787996
O O10 0.598130 0.419753 0.823674
O O11 0.732926 0.503871 0.880822
O O12 0.714364 0.681406 0.900371
O O13 0.774042 0.602247 0.006601
O O14 0.184743 0.161924 0.098663
O O15 0.295746 0.148675 0.150572
#
# Coordination Sequence:
#
# PCOD8263995 Si02
#       7
#    16  16  16  16  16  16  16
#     4  11  25  39  60  90 129 165 201 253 320 379
#     4  10  21  39  66  93 122 159 208 264 311 364
#     4  10  24  43  63  91 127 163 209 266 311 366
#     4  11  22  39  59  90 123 165 199 256 313 370
#     4  11  23  36  64  89 125 164 206 255 313 376
#     4  12  22  38  65  95 121 164 214 259 316 373
#     4  11  21  41  59  90 129 159 201 253 312 380
#
# _framework density 20.695343000000001
#
# number of rings (size 3 to 8) (size 9 to 14) (size 15 to 20)
#    0.000    1.143    2.857    4.286    4.000    2.286 
#    0.000    0.000    0.000    0.000    0.000    3.000 
#    0.000    0.000    0.000    0.000    0.000    0.000 
#
# Total GULP energy -694462.357337 kJ/mol
# GULP energy per Si atom -12401.113524 kJ/mol
# Density = 2.064824 g / cm^3
# Si number density = 20.695343 Si / 1000 Ang^3
#
#
#
# Elastic Constant Matrix: (Units=GPa)
#
#
# Indices 1 2 3 4 5 6 
#
# 1 118.4962 29.4143 33.1070 0.0000 0.0000 0.0000
# 2 29.4143 65.8226 29.9802 0.0000 0.0000 0.0000
# 3 33.1070 29.9802 71.8248 0.0000 0.0000 0.0000
# 4 0.0000 0.0000 0.0000 23.6395 0.0000 0.0000
# 5 0.0000 0.0000 0.0000 0.0000 28.0887 0.0000
# 6 0.0000 0.0000 0.0000 0.0000 0.0000 27.0799
#
#
#
# Elastic Compliance Matrix: (Units=1/GPa)
#
#
# Indices 1 2 3 4 5 6 
#
# 1 0.010134 -0.002965 -0.003434 0.000000 0.000000 0.000000
# 2 -0.002965 0.019626 -0.006825 0.000000 0.000000 0.000000
# 3 -0.003434 -0.006825 0.018355 0.000000 0.000000 0.000000
# 4 0.000000 0.000000 0.000000 0.042302 0.000000 0.000000
# 5 0.000000 0.000000 0.000000 0.000000 0.035602 0.000000
# 6 0.000000 0.000000 0.000000 0.000000 0.000000 0.036928
#
#
# Mechanical properties :
#
#
# Convention : Reuss Voigt Hill
#
# Bulk Modulus (GPa) = 46.15349 49.01629 47.58489
# Shear Modulus (GPa) = 25.43017 26.67108 26.05062
#
# Velocity S-wave (km/s) = 3.50921 3.59381 3.55176
# Velocity P-wave (km/s) = 6.22649 6.39974 6.31371
#
# Compressibility (1/GPa) = 0.02166684
#
# Stress axis : x y z
#
# Youngs Moduli (GPa) = 98.67348 50.95277 54.48231
#
# Poissons Ratio (x) = 0.15106 0.18708
# Poissons Ratio (y) = 0.29254 0.37187
# Poissons Ratio (z) = 0.33883 0.34778
#
# Static dielectric constant tensor:
#      x y z
#    x 3.804710 0.000000 0.000000 
#    y 0.000000 3.887100 0.000000 
#    z 0.000000 0.000000 3.769330 
# 
# 
# High freq. dielectric constant tensor:
#      x y z
#    x 1.801830 0.000000 0.000000 
#    y 0.000000 1.805750 0.000000 
#    z 0.000000 0.000000 1.811790 
# 
# From -- ./inp_files/27414.got.cif
#   From: 2010.03.12/outbox.cif.g09.slc.cpg/sg64_14_cif.got.tgz:27414.got - 2010.04.10 20:19:32.
