data_PCOD8263968
_publ_section_title
;
Structure prediction by ZEFSAII (Michael W. Deem and Ramdas Pophale) SiO2 
 PCOD8263968
Probable space group: C M C A
;
_chemical_formula_sum "Si O2"
_cell_formula_units_Z 112
_cell_length_a 16.555107
_cell_length_b 23.401111
_cell_length_c 14.516259
_cell_angle_alpha 90.000000
_cell_angle_beta 90.000000
_cell_angle_gamma 90.000000
_cell_volume 5623.713365
_symmetry_space_group_name_H-M "C M C A"
_symmetry_group_IT_number 64
_symmetry_cell_setting 'orthorhombic'
loop_
_space_group_symop_operation_xyz
x,y,z
-x,1/2-y,1/2+z
x,-y,-z
-x,1/2+y,1/2-z
-x,-y,-z
x,1/2+y,1/2-z
-x,y,z
x,1/2-y,1/2+z
1/2+x,1/2+y,z
1/2-x,-y,1/2+z
1/2+x,1/2-y,-z
1/2-x,y,1/2-z
1/2-x,1/2-y,-z
1/2+x,y,1/2-z
1/2-x,1/2+y,z
1/2+x,-y,1/2+z
loop_
_atom_site_type_symbol
_atom_site_label
_atom_site_fract_x
_atom_site_fract_y
_atom_site_fract_z
Si Si1 0.592426 0.761105 0.091060
Si Si2 0.192324 0.886595 0.169995
Si Si3 0.092074 0.963728 0.292543
Si Si4 0.656859 0.807205 0.764108
Si Si5 0.341720 0.884195 0.057600
Si Si6 0.592719 0.282796 0.105300
Si Si7 0.906189 0.412530 0.860660
O O1 0.500000 0.781116 0.101389
O O2 0.618798 0.724966 0.178192
O O3 0.646337 0.817394 0.079455
O O4 0.603070 0.719126 0.004306
O O5 0.250000 0.860112 0.250000
O O6 0.149329 0.943703 0.208551
O O7 0.248748 0.900535 0.082155
O O8 0.122111 0.842974 0.144135
O O9 0.098129 0.921364 0.379660
O O10 0.000000 0.965247 0.257908
O O11 0.121307 0.026183 0.323235
O O12 0.750000 0.820817 0.750000
O O13 0.646209 0.768218 0.854076
O O14 0.610709 0.866774 0.780442
O O15 0.354686 0.897428 0.950902
O O16 0.500000 0.274381 0.135548
O O17 0.000000 0.411877 0.888277
#
# Coordination Sequence:
#
# PCOD8263968 Si02
#       7
#    16  16  16  16  16  16  16
#     4  11  23  38  62  92 126 165 208 255 307 376
#     4  10  22  37  60  91 125 160 202 259 314 374
#     4  10  21  39  64  90 121 161 211 259 310 375
#     4  12  25  38  59  91 129 168 202 259 321 375
#     4  11  21  37  64  93 126 157 206 267 316 371
#     4  11  22  39  63  87 124 168 211 255 304 379
#     4  11  23  41  64  91 125 166 214 262 312 371
#
# _framework density 19.915666999999999
#
# number of rings (size 3 to 8) (size 9 to 14) (size 15 to 20)
#    0.000    1.143    1.429    6.429    2.000    4.000 
#    0.000    0.000    0.000    0.000    0.000    4.000 
#    0.000    0.000    0.000    0.000    0.000    0.000 
#
# Total GULP energy -694652.773228 kJ/mol
# GULP energy per Si atom -12404.513808 kJ/mol
# Density = 1.987034 g / cm^3
# Si number density = 19.915667 Si / 1000 Ang^3
#
#
#
# Elastic Constant Matrix: (Units=GPa)
#
#
# Indices 1 2 3 4 5 6 
#
# 1 83.3641 40.4897 48.4022 0.0000 0.0000 0.0000
# 2 40.4897 138.4418 66.8996 0.0000 0.0000 0.0000
# 3 48.4022 66.8996 98.6168 0.0000 0.0000 0.0000
# 4 0.0000 0.0000 0.0000 25.5687 0.0000 0.0000
# 5 0.0000 0.0000 0.0000 0.0000 34.6174 0.0000
# 6 0.0000 0.0000 0.0000 0.0000 0.0000 25.6168
#
#
#
# Elastic Compliance Matrix: (Units=1/GPa)
#
#
# Indices 1 2 3 4 5 6 
#
# 1 0.016955 -0.001395 -0.007376 0.000000 0.000000 0.000000
# 2 -0.001395 0.010861 -0.006683 0.000000 0.000000 0.000000
# 3 -0.007376 -0.006683 0.018294 0.000000 0.000000 0.000000
# 4 0.000000 0.000000 0.000000 0.039110 0.000000 0.000000
# 5 0.000000 0.000000 0.000000 0.000000 0.028887 0.000000
# 6 0.000000 0.000000 0.000000 0.000000 0.000000 0.039037
#
#
# Mechanical properties :
#
#
# Convention : Reuss Voigt Hill
#
# Bulk Modulus (GPa) = 65.77659 70.22285 67.99972
# Shear Modulus (GPa) = 26.43834 28.13601 27.28718
#
# Velocity S-wave (km/s) = 3.64746 3.76274 3.70555
# Velocity P-wave (km/s) = 7.13007 7.36304 7.24749
#
# Compressibility (1/GPa) = 0.01520298
#
# Stress axis : x y z
#
# Youngs Moduli (GPa) = 58.97819 92.07558 54.66265
#
# Poissons Ratio (x) = 0.12842 0.40318
# Poissons Ratio (y) = 0.08226 0.36532
# Poissons Ratio (z) = 0.43501 0.61535
#
# Static dielectric constant tensor:
#      x y z
#    x 3.761210 0.000000 0.000000 
#    y 0.000000 3.624760 0.000000 
#    z 0.000000 0.000000 3.637800 
# 
# 
# High freq. dielectric constant tensor:
#      x y z
#    x 1.784710 0.000000 0.000000 
#    y 0.000000 1.773030 0.000000 
#    z 0.000000 0.000000 1.774010 
# 
# From -- ./inp_files/24248.got.cif
#   From: 2010.03.12/outbox.cif.g09.slc.cpg/sg64_13_cif.got.tgz:24248.got - 2010.04.10 20:19:32.
