data_PCOD8263534
_publ_section_title
;
Structure prediction by ZEFSAII (Michael W. Deem and Ramdas Pophale) SiO2 
 PCOD8263534
Probable space group: C M C A
;
_chemical_formula_sum "Si O2"
_cell_formula_units_Z 72
_cell_length_a 9.449797
_cell_length_b 14.299479
_cell_length_c 25.895811
_cell_angle_alpha 90.000000
_cell_angle_beta 90.000000
_cell_angle_gamma 90.000000
_cell_volume 3499.227753
_symmetry_space_group_name_H-M "C M C A"
_symmetry_group_IT_number 64
_symmetry_cell_setting 'orthorhombic'
loop_
_space_group_symop_operation_xyz
x,y,z
-x,1/2-y,1/2+z
x,-y,-z
-x,1/2+y,1/2-z
-x,-y,-z
x,1/2+y,1/2-z
-x,y,z
x,1/2-y,1/2+z
1/2+x,1/2+y,z
1/2-x,-y,1/2+z
1/2+x,1/2-y,-z
1/2-x,y,1/2-z
1/2-x,1/2-y,-z
1/2+x,y,1/2-z
1/2-x,1/2+y,z
1/2+x,-y,1/2+z
loop_
_atom_site_type_symbol
_atom_site_label
_atom_site_fract_x
_atom_site_fract_y
_atom_site_fract_z
Si Si1 0.500000 0.179197 0.373831
Si Si2 0.500000 0.714309 0.840317
Si Si3 0.220325 0.259192 0.922386
Si Si4 0.341337 0.895533 0.011391
Si Si5 0.500000 0.505282 0.817748
Si Si6 0.250000 0.061450 0.750000
Si Si7 0.000000 0.810933 0.276896
O O1 0.627731 0.201200 0.410685
O O2 0.500000 0.233063 0.319924
O O3 0.500000 0.070267 0.361965
O O4 0.637312 0.754373 0.868591
O O5 0.500000 0.603446 0.846435
O O6 0.500000 0.739812 0.779465
O O7 0.236039 0.156339 0.948469
O O8 0.145280 0.332624 0.960063
O O9 0.500000 0.904745 0.034925
O O10 0.281892 0.000000 0.000000
O O11 0.646555 0.496842 0.784682
O O12 0.142716 0.126903 0.716692
#
# Coordination Sequence:
#
# PCOD8263534 Si02
#       7
#     8   8  16  16   8   8   8
#     4  12  24  37  61  95 126 160 212 253 307 360
#     4  10  22  41  63  87 130 170 202 251 307 366
#     4  11  23  41  63  96 124 162 204 262 308 377
#     4  10  22  43  66  91 123 161 205 259 318 377
#     4  10  22  36  60  89 122 158 214 251 300 356
#     4   8  18  40  58  80 116 170 206 248 296 350
#     4  10  20  40  62  84 126 170 204 250 297 358
#
# _framework density 20.575968
#
# number of rings (size 3 to 8) (size 9 to 14) (size 15 to 20)
#    0.000    2.000    2.222    2.667    3.111    2.667 
#    0.000    2.222    0.000    0.000    0.000    0.000 
#    0.000    0.000    0.000    0.000    0.000    0.000 
#
# Total GULP energy -446222.767346 kJ/mol
# GULP energy per Si atom -12395.076871 kJ/mol
# Density = 2.052914 g / cm^3
# Si number density = 20.575968 Si / 1000 Ang^3
#
#
#
# Elastic Constant Matrix: (Units=GPa)
#
#
# Indices 1 2 3 4 5 6 
#
# 1 117.1824 2.8865 8.5010 0.0000 0.0000 0.0000
# 2 2.8865 78.9680 -3.7021 0.0000 0.0000 0.0000
# 3 8.5010 -3.7021 60.1544 0.0000 0.0000 0.0000
# 4 0.0000 0.0000 0.0000 29.4322 0.0000 0.0000
# 5 0.0000 0.0000 0.0000 0.0000 37.8788 0.0000
# 6 0.0000 0.0000 0.0000 0.0000 0.0000 17.4065
#
#
#
# Elastic Compliance Matrix: (Units=1/GPa)
#
#
# Indices 1 2 3 4 5 6 
#
# 1 0.008633 -0.000374 -0.001243 0.000000 0.000000 0.000000
# 2 -0.000374 0.012716 0.000835 0.000000 0.000000 0.000000
# 3 -0.001243 0.000835 0.016851 0.000000 0.000000 0.000000
# 4 0.000000 0.000000 0.000000 0.033976 0.000000 0.000000
# 5 0.000000 0.000000 0.000000 0.000000 0.026400 0.000000
# 6 0.000000 0.000000 0.000000 0.000000 0.000000 0.057450
#
#
# Mechanical properties :
#
#
# Convention : Reuss Voigt Hill
#
# Bulk Modulus (GPa) = 27.29455 30.18618 28.74037
# Shear Modulus (GPa) = 29.44612 33.51814 31.48213
#
# Velocity S-wave (km/s) = 3.78708 4.04046 3.91582
# Velocity P-wave (km/s) = 5.69357 6.03900 5.86883
#
# Compressibility (1/GPa) = 0.03663735
#
# Stress axis : x y z
#
# Youngs Moduli (GPa) = 115.83340 78.63994 59.34378
#
# Poissons Ratio (x) = 0.02940 0.07377
# Poissons Ratio (y) = 0.04330 -0.04958
# Poissons Ratio (z) = 0.14398 -0.06570
#
# Static dielectric constant tensor:
#      x y z
#    x 3.965280 0.000000 0.000000 
#    y 0.000000 3.593420 0.000000 
#    z 0.000000 0.000000 3.620470 
# 
# 
# High freq. dielectric constant tensor:
#      x y z
#    x 1.820200 0.000000 0.000000 
#    y 0.000000 1.793110 0.000000 
#    z 0.000000 0.000000 1.794610 
# 
# From -- ./inp_files/47671.got.cif
#   From: 2010.03.12/outbox.cif.g09.slc.cpg/sg64_24_cif.got.tgz:47671.got - 2010.04.10 20:19:32.
