data_PCOD8263386
_publ_section_title
;
Structure prediction by ZEFSAII (Michael W. Deem and Ramdas Pophale) SiO2 
 PCOD8263386
Probable space group: C M C A
;
_chemical_formula_sum "Si O2"
_cell_formula_units_Z 96
_cell_length_a 9.155781
_cell_length_b 24.314634
_cell_length_c 21.492271
_cell_angle_alpha 90.000000
_cell_angle_beta 90.000000
_cell_angle_gamma 90.000000
_cell_volume 4784.597850
_symmetry_space_group_name_H-M "C M C A"
_symmetry_group_IT_number 64
_symmetry_cell_setting 'orthorhombic'
loop_
_space_group_symop_operation_xyz
x,y,z
-x,1/2-y,1/2+z
x,-y,-z
-x,1/2+y,1/2-z
-x,-y,-z
x,1/2+y,1/2-z
-x,y,z
x,1/2-y,1/2+z
1/2+x,1/2+y,z
1/2-x,-y,1/2+z
1/2+x,1/2-y,-z
1/2-x,y,1/2-z
1/2-x,1/2-y,-z
1/2+x,y,1/2-z
1/2-x,1/2+y,z
1/2+x,-y,1/2+z
loop_
_atom_site_type_symbol
_atom_site_label
_atom_site_fract_x
_atom_site_fract_y
_atom_site_fract_z
Si Si1 0.664608 0.675112 0.659196
Si Si2 0.325514 0.433723 0.187273
Si Si3 0.831770 0.504167 0.429972
Si Si4 0.332065 0.128851 0.422106
Si Si5 0.828722 0.702726 0.309423
Si Si6 0.835678 0.194733 0.514635
O O1 0.500000 0.660191 0.681812
O O2 0.778811 0.629979 0.682822
O O3 0.716504 0.733683 0.685369
O O4 0.666822 0.679970 0.585939
O O5 0.500000 0.439055 0.193448
O O6 0.250000 0.458642 0.250000
O O7 0.266492 0.464704 0.124451
O O8 0.760069 0.500000 0.500000
O O9 0.810765 0.565527 0.403917
O O10 0.000000 0.487492 0.437699
O O11 0.500000 0.142298 0.437142
O O12 0.271918 0.168035 0.367893
O O13 0.238448 0.142185 0.482774
O O14 0.750000 0.676782 0.250000
O O15 0.000000 0.694948 0.302378
O O16 0.750000 0.250000 0.500000
O O17 0.000000 0.202765 0.490307
#
# Coordination Sequence:
#
# PCOD8263386 Si02
#       6
#    16  16  16  16  16  16
#     4  10  21  38  57  83 117 152 192 240 292 350
#     4  11  23  39  61  90 119 159 206 252 305 361
#     4   9  19  37  62  88 114 150 201 248 293 353
#     4  10  20  38  59  82 115 151 188 238 290 344
#     4  10  21  36  53  77 110 148 187 230 282 339
#     4  11  21  35  57  87 120 151 188 234 291 355
#
# _framework density 20.064381999999998
#
# number of rings (size 3 to 8) (size 9 to 14) (size 15 to 20)
#    0.000    1.833    1.667    2.500    0.000    6.000 
#    0.000    1.667    0.000    4.500    0.000    0.000 
#    0.000    0.000    0.000    0.000    0.000    0.000 
#
# Total GULP energy -595106.866319 kJ/mol
# GULP energy per Si atom -12398.059715 kJ/mol
# Density = 2.001871 g / cm^3
# Si number density = 20.064382 Si / 1000 Ang^3
#
#
#
# Elastic Constant Matrix: (Units=GPa)
#
#
# Indices 1 2 3 4 5 6 
#
# 1 64.4735 27.2429 35.9558 0.0000 0.0000 0.0000
# 2 27.2429 73.6378 37.4826 0.0000 0.0000 0.0000
# 3 35.9558 37.4826 119.8176 0.0000 0.0000 0.0000
# 4 0.0000 0.0000 0.0000 16.6464 0.0000 0.0000
# 5 0.0000 0.0000 0.0000 0.0000 34.5252 0.0000
# 6 0.0000 0.0000 0.0000 0.0000 0.0000 20.6719
#
#
#
# Elastic Compliance Matrix: (Units=1/GPa)
#
#
# Indices 1 2 3 4 5 6 
#
# 1 0.020181 -0.005214 -0.004425 0.000000 0.000000 0.000000
# 2 -0.005214 0.017499 -0.003910 0.000000 0.000000 0.000000
# 3 -0.004425 -0.003910 0.010897 0.000000 0.000000 0.000000
# 4 0.000000 0.000000 0.000000 0.060073 0.000000 0.000000
# 5 0.000000 0.000000 0.000000 0.000000 0.028964 0.000000
# 6 0.000000 0.000000 0.000000 0.000000 0.000000 0.048375
#
#
# Mechanical properties :
#
#
# Convention : Reuss Voigt Hill
#
# Bulk Modulus (GPa) = 46.55473 51.03239 48.79356
# Shear Modulus (GPa) = 22.70187 24.85187 23.77687
#
# Velocity S-wave (km/s) = 3.36735 3.52320 3.44616
# Velocity P-wave (km/s) = 6.19450 6.48384 6.34082
#
# Compressibility (1/GPa) = 0.02148009
#
# Stress axis : x y z
#
# Youngs Moduli (GPa) = 49.55138 57.14652 91.76860
#
# Poissons Ratio (x) = 0.29795 0.40608
# Poissons Ratio (y) = 0.25835 0.35878
# Poissons Ratio (z) = 0.21927 0.22342
#
# Static dielectric constant tensor:
#      x y z
#    x 3.592650 0.000000 0.000000 
#    y 0.000000 2.096800 0.000000 
#    z 0.000000 0.000000 3.910990 
# 
# 
# High freq. dielectric constant tensor:
#      x y z
#    x 1.759620 0.000000 0.000000 
#    y 0.000000 1.780250 0.000000 
#    z 0.000000 0.000000 1.800160 
# 
# From -- ./inp_files/37076.got.cif
#   From: 2010.03.12/outbox.cif.g09.slc.cpg/sg64_19_cif.got.tgz:37076.got - 2010.04.10 20:19:32.
