data_PCOD8263514
_publ_section_title
;
Structure prediction by ZEFSAII (Michael W. Deem and Ramdas Pophale) SiO2 
 PCOD8263514
Probable space group: C M C A
;
_chemical_formula_sum "Si O2"
_cell_formula_units_Z 88
_cell_length_a 23.152682
_cell_length_b 10.108115
_cell_length_c 17.634753
_cell_angle_alpha 90.000000
_cell_angle_beta 90.000000
_cell_angle_gamma 90.000000
_cell_volume 4127.060755
_symmetry_space_group_name_H-M "C M C A"
_symmetry_group_IT_number 64
_symmetry_cell_setting 'orthorhombic'
loop_
_space_group_symop_operation_xyz
x,y,z
-x,1/2-y,1/2+z
x,-y,-z
-x,1/2+y,1/2-z
-x,-y,-z
x,1/2+y,1/2-z
-x,y,z
x,1/2-y,1/2+z
1/2+x,1/2+y,z
1/2-x,-y,1/2+z
1/2+x,1/2-y,-z
1/2-x,y,1/2-z
1/2-x,1/2-y,-z
1/2+x,y,1/2-z
1/2-x,1/2+y,z
1/2+x,-y,1/2+z
loop_
_atom_site_type_symbol
_atom_site_label
_atom_site_fract_x
_atom_site_fract_y
_atom_site_fract_z
Si Si1 0.500000 0.053550 0.304319
Si Si2 0.233813 0.939487 0.421327
Si Si3 0.500000 0.703913 0.882854
Si Si4 0.408971 0.376626 0.685246
Si Si5 0.283135 0.797172 0.827321
Si Si6 0.000000 0.709015 0.448969
Si Si7 0.896991 0.407758 0.068959
O O1 0.557170 0.108861 0.264060
O O2 0.500000 0.088758 0.391954
O O3 0.500000 0.895275 0.310946
O O4 0.273347 0.821641 0.387734
O O5 0.171144 0.873124 0.439377
O O6 0.259268 0.000000 0.500000
O O7 0.232987 0.060477 0.361936
O O8 0.556480 0.793478 0.876808
O O9 0.500000 0.645687 0.967517
O O10 0.349565 0.299899 0.698163
O O11 0.402205 0.522175 0.650437
O O12 0.250000 0.767080 0.750000
O O13 0.940605 0.786290 0.432029
O O14 0.916497 0.500000 0.000000
#
# Coordination Sequence:
#
# PCOD8263514 Si02
#       7
#     8  16   8  16  16   8  16
#     4  11  27  38  60  96 138 167 204 272 332 397
#     4  10  23  43  68  97 132 173 233 281 334 398
#     4  11  23  44  63  94 132 160 221 267 326 386
#     4  10  24  42  64  93 128 174 215 268 327 394
#     4  11  24  43  68  98 135 179 222 281 338 410
#     4  12  22  39  67  95 123 175 212 271 330 392
#     4  10  20  39  67  92 122 167 224 267 320 391
#
# _framework density 21.322680999999999
#
# number of rings (size 3 to 8) (size 9 to 14) (size 15 to 20)
#    0.000    1.455    1.818    2.727    7.636    2.909 
#    0.000    0.000    0.000    0.000    0.000    0.000 
#    0.000    0.000    0.000    0.000    0.000    0.000 
#
# Total GULP energy -545450.959267 kJ/mol
# GULP energy per Si atom -12396.612711 kJ/mol
# Density = 2.127415 g / cm^3
# Si number density = 21.322681 Si / 1000 Ang^3
#
#
#
# Elastic Constant Matrix: (Units=GPa)
#
#
# Indices 1 2 3 4 5 6 
#
# 1 124.5856 41.2480 44.7568 0.0000 0.0000 0.0000
# 2 41.2480 77.4060 24.0797 0.0000 0.0000 0.0000
# 3 44.7568 24.0797 121.2141 0.0000 0.0000 0.0000
# 4 0.0000 0.0000 0.0000 37.8653 0.0000 0.0000
# 5 0.0000 0.0000 0.0000 0.0000 27.0513 0.0000
# 6 0.0000 0.0000 0.0000 0.0000 0.0000 70.7752
#
#
#
# Elastic Compliance Matrix: (Units=1/GPa)
#
#
# Indices 1 2 3 4 5 6 
#
# 1 0.010679 -0.004758 -0.002998 0.000000 0.000000 0.000000
# 2 -0.004758 0.015890 -0.001400 0.000000 0.000000 0.000000
# 3 -0.002998 -0.001400 0.009635 0.000000 0.000000 0.000000
# 4 0.000000 0.000000 0.000000 0.026409 0.000000 0.000000
# 5 0.000000 0.000000 0.000000 0.000000 0.036967 0.000000
# 6 0.000000 0.000000 0.000000 0.000000 0.000000 0.014129
#
#
# Mechanical properties :
#
#
# Convention : Reuss Voigt Hill
#
# Bulk Modulus (GPa) = 55.88982 60.37497 58.13240
# Shear Modulus (GPa) = 36.23607 41.34643 38.79125
#
# Velocity S-wave (km/s) = 4.12687 4.40828 4.26989
# Velocity P-wave (km/s) = 6.99831 7.36797 7.18552
#
# Compressibility (1/GPa) = 0.01789235
#
# Stress axis : x y z
#
# Youngs Moduli (GPa) = 93.64314 62.93367 103.78989
#
# Poissons Ratio (x) = 0.29944 0.31115
# Poissons Ratio (y) = 0.44555 0.14528
# Poissons Ratio (z) = 0.28073 0.08809
#
# Static dielectric constant tensor:
#      x y z
#    x 3.558880 0.000000 0.000000 
#    y 0.000000 3.651420 0.000000 
#    z 0.000000 0.000000 3.857480 
# 
# 
# High freq. dielectric constant tensor:
#      x y z
#    x 1.832540 0.000000 0.000000 
#    y 0.000000 1.826520 0.000000 
#    z 0.000000 0.000000 1.849710 
# 
# From -- ./inp_files/27219.got.cif
#   From: 2010.03.12/outbox.cif.g09.slc.cpg/sg64_14_cif.got.tgz:27219.got - 2010.04.10 20:19:32.
