data_PCOD8263424
_publ_section_title
;
Structure prediction by ZEFSAII (Michael W. Deem and Ramdas Pophale) SiO2 
 PCOD8263424
Probable space group: C M C A
;
_chemical_formula_sum "Si O2"
_cell_formula_units_Z 96
_cell_length_a 8.729682
_cell_length_b 19.880910
_cell_length_c 28.030060
_cell_angle_alpha 90.000000
_cell_angle_beta 90.000000
_cell_angle_gamma 90.000000
_cell_volume 4864.729655
_symmetry_space_group_name_H-M "C M C A"
_symmetry_group_IT_number 64
_symmetry_cell_setting 'orthorhombic'
loop_
_space_group_symop_operation_xyz
x,y,z
-x,1/2-y,1/2+z
x,-y,-z
-x,1/2+y,1/2-z
-x,-y,-z
x,1/2+y,1/2-z
-x,y,z
x,1/2-y,1/2+z
1/2+x,1/2+y,z
1/2-x,-y,1/2+z
1/2+x,1/2-y,-z
1/2-x,y,1/2-z
1/2-x,1/2-y,-z
1/2+x,y,1/2-z
1/2-x,1/2+y,z
1/2+x,-y,1/2+z
loop_
_atom_site_type_symbol
_atom_site_label
_atom_site_fract_x
_atom_site_fract_y
_atom_site_fract_z
Si Si1 0.680757 0.076177 0.054332
Si Si2 0.819525 0.424100 0.051332
Si Si3 0.322552 0.013456 0.801283
Si Si4 0.680139 0.732865 0.300618
Si Si5 0.822661 0.148875 0.643962
Si Si6 0.180073 0.608502 0.351882
O O1 0.500000 0.080280 0.064112
O O2 0.768385 0.121499 0.093364
O O3 0.743432 0.999710 0.057789
O O4 0.721167 0.104146 0.001349
O O5 0.756402 0.374724 0.092432
O O6 0.000000 0.430045 0.057807
O O7 0.500000 0.992906 0.799933
O O8 0.250000 0.003643 0.750000
O O9 0.300754 0.089794 0.817780
O O10 0.235441 0.965921 0.838365
O O11 0.500000 0.729110 0.295148
O O12 0.750000 0.754215 0.250000
O O13 0.724228 0.787541 0.340240
O O14 0.742166 0.660610 0.316073
O O15 0.000000 0.170474 0.640443
O O16 0.000000 0.615979 0.346927
#
# Coordination Sequence:
#
# PCOD8263424 Si02
#       6
#    16  16  16  16  16  16
#     4   9  16  33  60  90 120 156 196 237 292 348
#     4   8  15  31  60  91 121 155 193 236 289 350
#     4  11  22  37  59  86 118 151 192 243 295 350
#     4  12  26  44  63  84 115 157 200 245 298 357
#     4  10  20  38  62  90 120 154 194 239 291 349
#     4  12  24  39  59  86 119 155 198 246 295 349
#
# _framework density 19.733881
#
# number of rings (size 3 to 8) (size 9 to 14) (size 15 to 20)
#    0.000    1.667    1.667    5.500    0.000    2.667 
#    0.000    3.333    0.000    0.000    0.000    0.000 
#    0.000    0.000    0.000    0.000    0.000    0.000 
#
# Total GULP energy -595271.840848 kJ/mol
# GULP energy per Si atom -12401.496684 kJ/mol
# Density = 1.968897 g / cm^3
# Si number density = 19.733881 Si / 1000 Ang^3
#
#
#
# Elastic Constant Matrix: (Units=GPa)
#
#
# Indices 1 2 3 4 5 6 
#
# 1 112.2969 28.2384 37.2531 0.0000 0.0000 0.0000
# 2 28.2384 50.2381 12.5289 0.0000 0.0000 0.0000
# 3 37.2531 12.5289 120.6578 0.0000 0.0000 0.0000
# 4 0.0000 0.0000 0.0000 33.6882 0.0000 0.0000
# 5 0.0000 0.0000 0.0000 0.0000 25.0675 0.0000
# 6 0.0000 0.0000 0.0000 0.0000 0.0000 26.3660
#
#
#
# Elastic Compliance Matrix: (Units=1/GPa)
#
#
# Indices 1 2 3 4 5 6 
#
# 1 0.011279 -0.005617 -0.002899 0.000000 0.000000 0.000000
# 2 -0.005617 0.023232 -0.000678 0.000000 0.000000 0.000000
# 3 -0.002899 -0.000678 0.009253 0.000000 0.000000 0.000000
# 4 0.000000 0.000000 0.000000 0.029684 0.000000 0.000000
# 5 0.000000 0.000000 0.000000 0.000000 0.039892 0.000000
# 6 0.000000 0.000000 0.000000 0.000000 0.000000 0.037928
#
#
# Mechanical properties :
#
#
# Convention : Reuss Voigt Hill
#
# Bulk Modulus (GPa) = 39.40770 48.80372 44.10571
# Shear Modulus (GPa) = 28.07174 30.70249 29.38712
#
# Velocity S-wave (km/s) = 3.77572 3.94868 3.86316
# Velocity P-wave (km/s) = 6.24668 6.75085 6.50365
#
# Compressibility (1/GPa) = 0.02537575
#
# Stress axis : x y z
#
# Youngs Moduli (GPa) = 88.65897 43.04494 108.06788
#
# Poissons Ratio (x) = 0.24178 0.31331
# Poissons Ratio (y) = 0.49799 0.07328
# Poissons Ratio (z) = 0.25704 0.02919
#
# Static dielectric constant tensor:
#      x y z
#    x 3.386170 0.000000 0.000000 
#    y 0.000000 3.402670 0.000000 
#    z 0.000000 0.000000 3.963460 
# 
# 
# High freq. dielectric constant tensor:
#      x y z
#    x 1.751690 0.000000 0.000000 
#    y 0.000000 1.748120 0.000000 
#    z 0.000000 0.000000 1.790180 
# 
# From -- ./inp_files/48094.got.cif
#   From: 2010.03.12/outbox.cif.g09.slc.cpg/sg64_25_cif.got.tgz:48094.got - 2010.04.10 20:19:32.
