data_PCOD8263915
_publ_section_title
;
Structure prediction by ZEFSAII (Michael W. Deem and Ramdas Pophale) SiO2 
 PCOD8263915
Probable space group: C M C A
;
_chemical_formula_sum "Si O2"
_cell_formula_units_Z 88
_cell_length_a 20.194233
_cell_length_b 14.020587
_cell_length_c 14.147723
_cell_angle_alpha 90.000000
_cell_angle_beta 90.000000
_cell_angle_gamma 90.000000
_cell_volume 4005.715561
_symmetry_space_group_name_H-M "C M C A"
_symmetry_group_IT_number 64
_symmetry_cell_setting 'orthorhombic'
loop_
_space_group_symop_operation_xyz
x,y,z
-x,1/2-y,1/2+z
x,-y,-z
-x,1/2+y,1/2-z
-x,-y,-z
x,1/2+y,1/2-z
-x,y,z
x,1/2-y,1/2+z
1/2+x,1/2+y,z
1/2-x,-y,1/2+z
1/2+x,1/2-y,-z
1/2-x,y,1/2-z
1/2-x,1/2-y,-z
1/2+x,y,1/2-z
1/2-x,1/2+y,z
1/2+x,-y,1/2+z
loop_
_atom_site_type_symbol
_atom_site_label
_atom_site_fract_x
_atom_site_fract_y
_atom_site_fract_z
Si Si1 0.424165 0.624032 0.234745
Si Si2 0.708119 0.870279 0.153892
Si Si3 0.834321 0.808995 0.929682
Si Si4 0.233636 0.500000 0.500000
Si Si5 0.574435 0.253181 0.096612
Si Si6 0.925510 0.094136 0.745213
O O1 0.500000 0.648937 0.211117
O O2 0.380528 0.680144 0.160698
O O3 0.407010 0.661580 0.339652
O O4 0.408997 0.513396 0.227281
O O5 0.750000 0.878217 0.250000
O O6 0.722773 0.768326 0.101242
O O7 0.629143 0.871320 0.170960
O O8 0.723517 0.960123 0.086986
O O9 0.809149 0.912228 0.960788
O O10 0.874336 0.757909 0.012402
O O11 0.500000 0.243986 0.056398
O O12 0.580866 0.348870 0.157833
O O13 0.000000 0.104268 0.702159
#
# Coordination Sequence:
#
# PCOD8263915 Si02
#       6
#    16  16  16   8  16  16
#     4  10  21  38  67 101 135 179 222 281 353 414
#     4  12  27  47  71 101 141 184 236 292 359 418
#     4  12  24  43  71  94 138 183 234 282 361 414
#     4  12  30  46  64 102 132 184 244 294 346 428
#     4  10  21  39  66 104 137 169 228 288 344 423
#     4  10  22  43  70  99 139 182 228 282 348 418
#
# _framework density 21.968609000000001
#
# number of rings (size 3 to 8) (size 9 to 14) (size 15 to 20)
#    0.000    1.091    1.818    4.364    2.545    2.909 
#    0.000    4.091    0.000    0.000    0.000    0.000 
#    0.000    0.000    0.000    0.000    0.000    0.000 
#
# Total GULP energy -545587.126258 kJ/mol
# GULP energy per Si atom -12399.707415 kJ/mol
# Density = 2.191861 g / cm^3
# Si number density = 21.968609 Si / 1000 Ang^3
#
#
#
# Elastic Constant Matrix: (Units=GPa)
#
#
# Indices 1 2 3 4 5 6 
#
# 1 86.6328 15.7102 50.6651 0.0000 0.0000 0.0000
# 2 15.7102 85.0474 32.7901 0.0000 0.0000 0.0000
# 3 50.6651 32.7901 107.6514 0.0000 0.0000 0.0000
# 4 0.0000 0.0000 0.0000 20.0381 0.0000 0.0000
# 5 0.0000 0.0000 0.0000 0.0000 29.0592 0.0000
# 6 0.0000 0.0000 0.0000 0.0000 0.0000 20.2504
#
#
#
# Elastic Compliance Matrix: (Units=1/GPa)
#
#
# Indices 1 2 3 4 5 6 
#
# 1 0.015927 -0.000059 -0.007478 0.000000 0.000000 0.000000
# 2 -0.000059 0.013323 -0.004030 0.000000 0.000000 0.000000
# 3 -0.007478 -0.004030 0.014036 0.000000 0.000000 0.000000
# 4 0.000000 0.000000 0.000000 0.049905 0.000000 0.000000
# 5 0.000000 0.000000 0.000000 0.000000 0.034412 0.000000
# 6 0.000000 0.000000 0.000000 0.000000 0.000000 0.049382
#
#
# Mechanical properties :
#
#
# Convention : Reuss Voigt Hill
#
# Bulk Modulus (GPa) = 49.62353 53.07358 51.34855
# Shear Modulus (GPa) = 24.17363 25.88063 25.02713
#
# Velocity S-wave (km/s) = 3.32078 3.43603 3.37890
# Velocity P-wave (km/s) = 6.11072 6.32084 6.21667
#
# Compressibility (1/GPa) = 0.02015173
#
# Stress axis : x y z
#
# Youngs Moduli (GPa) = 62.78669 75.05848 71.24400
#
# Poissons Ratio (x) = 0.00443 0.53276
# Poissons Ratio (y) = 0.00370 0.28714
# Poissons Ratio (z) = 0.46951 0.30251
#
# Static dielectric constant tensor:
#      x y z
#    x 4.045200 0.000000 0.000000 
#    y 0.000000 4.264780 0.000000 
#    z 0.000000 0.000000 3.858270 
# 
# 
# High freq. dielectric constant tensor:
#      x y z
#    x 1.864530 0.000000 0.000000 
#    y 0.000000 1.887180 0.000000 
#    z 0.000000 0.000000 1.860290 
# 
# From -- ./inp_files/18225.got.cif
#   From: 2010.03.12/outbox.cif.g09.slc.cpg/sg64_10_cif.got.tgz:18225.got - 2010.04.10 20:19:32.
