data_PCOD8263078
_publ_section_title
;
Structure prediction by ZEFSAII (Michael W. Deem and Ramdas Pophale) SiO2 
 PCOD8263078
Probable space group: C M C A
;
_chemical_formula_sum "Si O2"
_cell_formula_units_Z 88
_cell_length_a 20.906203
_cell_length_b 8.875925
_cell_length_c 21.263451
_cell_angle_alpha 90.000000
_cell_angle_beta 90.000000
_cell_angle_gamma 90.000000
_cell_volume 3945.686153
_symmetry_space_group_name_H-M "C M C A"
_symmetry_group_IT_number 64
_symmetry_cell_setting 'orthorhombic'
loop_
_space_group_symop_operation_xyz
x,y,z
-x,1/2-y,1/2+z
x,-y,-z
-x,1/2+y,1/2-z
-x,-y,-z
x,1/2+y,1/2-z
-x,y,z
x,1/2-y,1/2+z
1/2+x,1/2+y,z
1/2-x,-y,1/2+z
1/2+x,1/2-y,-z
1/2-x,y,1/2-z
1/2-x,1/2-y,-z
1/2+x,y,1/2-z
1/2-x,1/2+y,z
1/2+x,-y,1/2+z
loop_
_atom_site_type_symbol
_atom_site_label
_atom_site_fract_x
_atom_site_fract_y
_atom_site_fract_z
Si Si1 0.682449 0.327223 0.827104
Si Si2 0.074734 0.160676 0.334547
Si Si3 0.574834 0.345048 0.281799
Si Si4 0.750000 0.074321 0.750000
Si Si5 0.809113 0.837962 0.970709
Si Si6 0.426864 0.669324 0.476194
O O1 0.606933 0.286575 0.824063
O O2 0.697773 0.471449 0.784761
O O3 0.705050 0.356641 0.897358
O O4 0.716275 0.176794 0.801638
O O5 0.092164 0.305992 0.291611
O O6 0.101574 0.180345 0.405003
O O7 0.000000 0.137683 0.341306
O O8 0.101621 0.009482 0.300881
O O9 0.500000 0.328817 0.293776
O O10 0.750000 0.750000 0.000000
O O11 0.878040 0.760302 0.980378
O O12 0.812812 0.000000 0.000000
O O13 0.426613 0.500000 0.500000
O O14 0.500000 0.733297 0.480783
#
# Coordination Sequence:
#
# PCOD8263078 Si02
#       6
#    16  16  16   8  16  16
#     4  11  23  42  64  91 122 161 204 255 310 367
#     4   9  19  35  57  89 125 161 202 250 309 371
#     4  10  20  35  60  92 123 157 200 256 315 367
#     4  10  24  42  64  88 120 160 208 254 306 368
#     4  12  27  44  66  95 130 171 214 261 314 377
#     4  10  22  42  67  93 127 172 215 258 313 379
#
# _framework density 22.302838999999999
#
# number of rings (size 3 to 8) (size 9 to 14) (size 15 to 20)
#    0.000    1.636    0.000    3.818    0.000    9.818 
#    0.000    1.818    0.000    0.000    0.000    0.000 
#    0.000    0.000    0.000    0.000    0.000    0.000 
#
# Total GULP energy -545486.935807 kJ/mol
# GULP energy per Si atom -12397.430359 kJ/mol
# Density = 2.225208 g / cm^3
# Si number density = 22.302839 Si / 1000 Ang^3
#
#
#
# Elastic Constant Matrix: (Units=GPa)
#
#
# Indices 1 2 3 4 5 6 
#
# 1 96.6869 37.7042 24.8899 0.0000 0.0000 0.0000
# 2 37.7042 102.7935 27.5473 0.0000 0.0000 0.0000
# 3 24.8899 27.5473 129.5540 0.0000 0.0000 0.0000
# 4 0.0000 0.0000 0.0000 33.9051 0.0000 0.0000
# 5 0.0000 0.0000 0.0000 0.0000 31.4684 0.0000
# 6 0.0000 0.0000 0.0000 0.0000 0.0000 18.7425
#
#
#
# Elastic Compliance Matrix: (Units=1/GPa)
#
#
# Indices 1 2 3 4 5 6 
#
# 1 0.012335 -0.004124 -0.001493 0.000000 0.000000 0.000000
# 2 -0.004124 0.011695 -0.001694 0.000000 0.000000 0.000000
# 3 -0.001493 -0.001694 0.008366 0.000000 0.000000 0.000000
# 4 0.000000 0.000000 0.000000 0.029494 0.000000 0.000000
# 5 0.000000 0.000000 0.000000 0.000000 0.031778 0.000000
# 6 0.000000 0.000000 0.000000 0.000000 0.000000 0.053355
#
#
# Mechanical properties :
#
#
# Convention : Reuss Voigt Hill
#
# Bulk Modulus (GPa) = 56.26531 56.59081 56.42806
# Shear Modulus (GPa) = 29.83815 32.74941 31.29378
#
# Velocity S-wave (km/s) = 3.66165 3.83612 3.74990
# Velocity P-wave (km/s) = 6.56959 6.71193 6.64114
#
# Compressibility (1/GPa) = 0.01777294
#
# Stress axis : x y z
#
# Youngs Moduli (GPa) = 81.06773 85.50553 119.53318
#
# Poissons Ratio (x) = 0.35267 0.17845
# Poissons Ratio (y) = 0.33436 0.20253
# Poissons Ratio (z) = 0.12102 0.14488
#
# Static dielectric constant tensor:
#      x y z
#    x 3.500230 0.000000 0.000000 
#    y 0.000000 4.041320 0.000000 
#    z 0.000000 0.000000 4.278430 
# 
# 
# High freq. dielectric constant tensor:
#      x y z
#    x 1.885340 0.000000 0.000000 
#    y 0.000000 1.877780 0.000000 
#    z 0.000000 0.000000 1.882170 
# 
# From -- ./inp_files/41381.got.cif
#   From: 2010.03.12/outbox.cif.g09.slc.cpg/sg64_21_cif.got.tgz:41381.got - 2010.04.10 20:19:32.
