data_PCOD8263173
_publ_section_title
;
Structure prediction by ZEFSAII (Michael W. Deem and Ramdas Pophale) SiO2 
 PCOD8263173
Probable space group: C M C A
;
_chemical_formula_sum "Si O2"
_cell_formula_units_Z 96
_cell_length_a 8.740003
_cell_length_b 23.387251
_cell_length_c 25.200783
_cell_angle_alpha 90.000000
_cell_angle_beta 90.000000
_cell_angle_gamma 90.000000
_cell_volume 5151.157075
_symmetry_space_group_name_H-M "C M C A"
_symmetry_group_IT_number 64
_symmetry_cell_setting 'orthorhombic'
loop_
_space_group_symop_operation_xyz
x,y,z
-x,1/2-y,1/2+z
x,-y,-z
-x,1/2+y,1/2-z
-x,-y,-z
x,1/2+y,1/2-z
-x,y,z
x,1/2-y,1/2+z
1/2+x,1/2+y,z
1/2-x,-y,1/2+z
1/2+x,1/2-y,-z
1/2-x,y,1/2-z
1/2-x,1/2-y,-z
1/2+x,y,1/2-z
1/2-x,1/2+y,z
1/2+x,-y,1/2+z
loop_
_atom_site_type_symbol
_atom_site_label
_atom_site_fract_x
_atom_site_fract_y
_atom_site_fract_z
Si Si1 0.321382 0.311843 0.000476
Si Si2 0.181286 0.686483 0.806885
Si Si3 0.678690 0.806403 0.805524
Si Si4 0.680154 0.616460 0.899191
Si Si5 0.322818 0.004501 0.939030
Si Si6 0.174919 0.377926 0.906866
O O1 0.500000 0.304129 0.005348
O O2 0.283907 0.345252 0.947053
O O3 0.250000 0.250000 0.000000
O O4 0.259043 0.347239 0.050689
O O5 0.250000 0.670398 0.750000
O O6 0.244228 0.747936 0.826104
O O7 0.231782 0.637697 0.847428
O O8 0.000000 0.689134 0.803082
O O9 0.500000 0.794362 0.797579
O O10 0.750000 0.826735 0.750000
O O11 0.710313 0.856404 0.847634
O O12 0.500000 0.623338 0.890547
O O13 0.720394 0.550487 0.908661
O O14 0.500000 0.022877 0.936542
O O15 0.292290 0.945178 0.908923
O O16 0.268900 0.000000 0.000000
O O17 0.000000 0.364582 0.923012
#
# Coordination Sequence:
#
# PCOD8263173 Si02
#       6
#    16  16  16  16  16  16
#     4  11  23  35  53  81 114 147 183 230 284 340
#     4  11  22  38  61  86 114 149 189 232 283 339
#     4  10  20  36  58  84 115 148 185 230 281 337
#     4  11  23  38  56  83 116 149 189 235 283 338
#     4  10  20  37  60  82 110 153 196 235 284 340
#     4  10  21  37  57  82 112 146 189 236 282 335
#
# _framework density 18.636589000000001
#
# number of rings (size 3 to 8) (size 9 to 14) (size 15 to 20)
#    0.000    1.500    1.667    5.000    0.000    8.333 
#    0.000    0.833    0.000    2.000    0.000    0.000 
#    0.000    0.000    0.000    0.000    0.000    0.000 
#
# Total GULP energy -595466.625789 kJ/mol
# GULP energy per Si atom -12405.554704 kJ/mol
# Density = 1.859417 g / cm^3
# Si number density = 18.636589 Si / 1000 Ang^3
#
#
#
# Elastic Constant Matrix: (Units=GPa)
#
#
# Indices 1 2 3 4 5 6 
#
# 1 96.6191 45.3814 50.0583 0.0000 0.0000 0.0000
# 2 45.3814 124.2668 71.6102 0.0000 0.0000 0.0000
# 3 50.0583 71.6102 117.6172 0.0000 0.0000 0.0000
# 4 0.0000 0.0000 0.0000 46.5203 0.0000 0.0000
# 5 0.0000 0.0000 0.0000 0.0000 29.2675 0.0000
# 6 0.0000 0.0000 0.0000 0.0000 0.0000 31.8632
#
#
#
# Elastic Compliance Matrix: (Units=1/GPa)
#
#
# Indices 1 2 3 4 5 6 
#
# 1 0.013782 -0.002546 -0.004315 0.000000 0.000000 0.000000
# 2 -0.002546 0.012867 -0.006750 0.000000 0.000000 0.000000
# 3 -0.004315 -0.006750 0.014449 0.000000 0.000000 0.000000
# 4 0.000000 0.000000 0.000000 0.021496 0.000000 0.000000
# 5 0.000000 0.000000 0.000000 0.000000 0.034168 0.000000
# 6 0.000000 0.000000 0.000000 0.000000 0.000000 0.031384
#
#
# Mechanical properties :
#
#
# Convention : Reuss Voigt Hill
#
# Bulk Modulus (GPa) = 72.07896 74.73367 73.40632
# Shear Modulus (GPa) = 31.25138 32.96043 32.10591
#
# Velocity S-wave (km/s) = 4.09942 4.21002 4.15509
# Velocity P-wave (km/s) = 7.82093 7.98874 7.90528
#
# Compressibility (1/GPa) = 0.01387367
#
# Stress axis : x y z
#
# Youngs Moduli (GPa) = 72.56054 77.71826 69.21091
#
# Poissons Ratio (x) = 0.19789 0.29866
# Poissons Ratio (y) = 0.18476 0.46719
# Poissons Ratio (z) = 0.31312 0.52462
#
# Static dielectric constant tensor:
#      x y z
#    x 3.484230 0.000000 0.000000 
#    y 0.000000 3.409610 0.000000 
#    z 0.000000 0.000000 3.375660 
# 
# 
# High freq. dielectric constant tensor:
#      x y z
#    x 1.731700 0.000000 0.000000 
#    y 0.000000 1.723440 0.000000 
#    z 0.000000 0.000000 1.725010 
# 
# From -- ./inp_files/42975.got.cif
#   From: 2010.03.12/outbox.cif.g09.slc.cpg/sg64_22_cif.got.tgz:42975.got - 2010.04.10 20:19:32.
