data_PCOD8263211
_publ_section_title
;
Structure prediction by ZEFSAII (Michael W. Deem and Ramdas Pophale) SiO2 
 PCOD8263211
Probable space group: C M C A
;
_chemical_formula_sum "Si O2"
_cell_formula_units_Z 80
_cell_length_a 16.090017
_cell_length_b 26.190742
_cell_length_c 8.630208
_cell_angle_alpha 90.000000
_cell_angle_beta 90.000000
_cell_angle_gamma 90.000000
_cell_volume 3636.851500
_symmetry_space_group_name_H-M "C M C A"
_symmetry_group_IT_number 64
_symmetry_cell_setting 'orthorhombic'
loop_
_space_group_symop_operation_xyz
x,y,z
-x,1/2-y,1/2+z
x,-y,-z
-x,1/2+y,1/2-z
-x,-y,-z
x,1/2+y,1/2-z
-x,y,z
x,1/2-y,1/2+z
1/2+x,1/2+y,z
1/2-x,-y,1/2+z
1/2+x,1/2-y,-z
1/2-x,y,1/2-z
1/2-x,1/2-y,-z
1/2+x,y,1/2-z
1/2-x,1/2+y,z
1/2+x,-y,1/2+z
loop_
_atom_site_type_symbol
_atom_site_label
_atom_site_fract_x
_atom_site_fract_y
_atom_site_fract_z
Si Si1 0.403895 0.099045 0.644885
Si Si2 0.095777 0.997079 0.330039
Si Si3 0.656417 0.598994 0.190746
Si Si4 0.657283 0.304475 0.308965
Si Si5 0.841067 0.201250 0.324824
O O1 0.500000 0.091070 0.596335
O O2 0.365839 0.049685 0.732571
O O3 0.346837 0.106463 0.493814
O O4 0.398013 0.147658 0.757960
O O5 0.000000 0.983577 0.353715
O O6 0.138928 0.000000 0.500000
O O7 0.104367 0.049589 0.237665
O O8 0.750000 0.591559 0.250000
O O9 0.614005 0.649385 0.267297
O O10 0.750000 0.313149 0.250000
O O11 0.615715 0.253165 0.236093
O O12 0.660019 0.298327 0.491790
O O13 0.750000 0.200295 0.250000
#
# Coordination Sequence:
#
# PCOD8263211 Si02
#       5
#    16  16  16  16  16
#     4  11  24  42  63  91 129 169 207 256 319 374
#     4  10  22  40  60  85 121 161 199 249 316 376
#     4  11  22  38  61  91 122 160 211 256 304 367
#     4  11  20  37  63  88 121 161 207 254 304 371
#     4  10  20  36  59  90 123 158 200 254 316 364
#
# _framework density 21.997050000000002
#
# number of rings (size 3 to 8) (size 9 to 14) (size 15 to 20)
#    0.000    1.400    0.000    8.400    0.000    4.000 
#    0.000    6.000    0.000    0.000    0.000    0.000 
#    0.000    0.000    0.000    0.000    0.000    0.000 
#
# Total GULP energy -496007.295079 kJ/mol
# GULP energy per Si atom -12400.182377 kJ/mol
# Density = 2.194698 g / cm^3
# Si number density = 21.997050 Si / 1000 Ang^3
#
#
#
# Elastic Constant Matrix: (Units=GPa)
#
#
# Indices 1 2 3 4 5 6 
#
# 1 39.4741 10.1985 23.8369 0.0000 0.0000 0.0000
# 2 10.1985 211.0784 81.3771 0.0000 0.0000 0.0000
# 3 23.8369 81.3771 220.7302 0.0000 0.0000 0.0000
# 4 0.0000 0.0000 0.0000 49.2639 0.0000 0.0000
# 5 0.0000 0.0000 0.0000 0.0000 26.7325 0.0000
# 6 0.0000 0.0000 0.0000 0.0000 0.0000 -3.2527
#
#
#
# Elastic Compliance Matrix: (Units=1/GPa)
#
#
# Indices 1 2 3 4 5 6 
#
# 1 0.027108 -0.000211 -0.002850 0.000000 0.000000 0.000000
# 2 -0.000211 0.005524 -0.002014 0.000000 0.000000 0.000000
# 3 -0.002850 -0.002014 0.005581 0.000000 0.000000 0.000000
# 4 0.000000 0.000000 0.000000 0.020299 0.000000 0.000000
# 5 0.000000 0.000000 0.000000 0.000000 0.037408 0.000000
# 6 0.000000 0.000000 0.000000 0.000000 0.000000 -0.307441
#
#
# Mechanical properties :
#
#
# Convention : Reuss Voigt Hill
#
# Bulk Modulus (GPa) = 35.63289 78.01199 56.82244
# Shear Modulus (GPa) = -26.03929 38.27343 6.11707
#
# Velocity S-wave (km/s) = -3.44432 4.17578 1.66940
# Velocity P-wave (km/s) = 0.64524 7.66754 5.44094
#
# Compressibility (1/GPa) = 0.02806396
#
# Stress axis : x y z
#
# Youngs Moduli (GPa) = 36.88896 181.02297 179.19274
#
# Poissons Ratio (x) = 0.03822 0.51063
# Poissons Ratio (y) = 0.00779 0.36086
# Poissons Ratio (z) = 0.10512 0.36454
#
# Static dielectric constant tensor:
#      x y z
#    x 3.489480 0.000000 0.000000 
#    y 0.000000 4.736990 0.000000 
#    z 0.000000 0.000000 4.114740 
# 
# 
# High freq. dielectric constant tensor:
#      x y z
#    x 1.818420 0.000000 0.000000 
#    y 0.000000 1.894750 0.000000 
#    z 0.000000 0.000000 1.883800 
# 
# From -- ./inp_files/7097.got.cif
#   From: 2010.03.12/outbox.cif.g09.slc.cpg/sg64_4_cif.got.tgz:7097.got - 2010.04.10 20:19:32.
