data_PCOD8263465
_publ_section_title
;
Structure prediction by ZEFSAII (Michael W. Deem and Ramdas Pophale) SiO2 
 PCOD8263465
Probable space group: C M C A
;
_chemical_formula_sum "Si O2"
_cell_formula_units_Z 112
_cell_length_a 17.091271
_cell_length_b 13.766136
_cell_length_c 23.739868
_cell_angle_alpha 90.000000
_cell_angle_beta 90.000000
_cell_angle_gamma 90.000000
_cell_volume 5585.534209
_symmetry_space_group_name_H-M "C M C A"
_symmetry_group_IT_number 64
_symmetry_cell_setting 'orthorhombic'
loop_
_space_group_symop_operation_xyz
x,y,z
-x,1/2-y,1/2+z
x,-y,-z
-x,1/2+y,1/2-z
-x,-y,-z
x,1/2+y,1/2-z
-x,y,z
x,1/2-y,1/2+z
1/2+x,1/2+y,z
1/2-x,-y,1/2+z
1/2+x,1/2-y,-z
1/2-x,y,1/2-z
1/2-x,1/2-y,-z
1/2+x,y,1/2-z
1/2-x,1/2+y,z
1/2+x,-y,1/2+z
loop_
_atom_site_type_symbol
_atom_site_label
_atom_site_fract_x
_atom_site_fract_y
_atom_site_fract_z
Si Si1 0.907087 0.887677 0.988747
Si Si2 0.589108 0.738864 0.906415
Si Si3 0.843758 0.122339 0.128264
Si Si4 0.090279 0.225480 0.227411
Si Si5 0.411988 0.558619 0.837509
Si Si6 0.336394 0.572736 0.724510
Si Si7 0.671773 0.376356 0.666754
O O1 0.860745 0.842189 0.935154
O O2 0.000000 0.879009 0.979562
O O3 0.877339 0.819207 0.039883
O O4 0.884543 0.000000 0.000000
O O5 0.500000 0.762903 0.918337
O O6 0.602808 0.671782 0.851002
O O7 0.628868 0.841510 0.890664
O O8 0.909869 0.157822 0.172276
O O9 0.853495 0.005508 0.124813
O O10 0.761299 0.152717 0.155056
O O11 0.132281 0.323381 0.204399
O O12 0.139942 0.177927 0.277949
O O13 0.000000 0.243091 0.246622
O O14 0.500000 0.531200 0.855044
O O15 0.396830 0.537507 0.772196
O O16 0.250000 0.580665 0.750000
O O17 0.338213 0.492706 0.674540
#
# Coordination Sequence:
#
# PCOD8263465 Si02
#       7
#    16  16  16  16  16  16  16
#     4  10  20  38  66  95 120 154 205 260 307 353
#     4  10  22  39  63  92 121 156 203 259 307 359
#     4  12  23  38  60  93 128 159 199 255 311 367
#     4  12  25  39  61  90 122 165 209 252 303 367
#     4  11  20  35  62  91 120 157 203 253 300 359
#     4  12  23  39  58  87 125 164 201 244 304 368
#     4  12  24  39  59  89 127 164 197 246 316 371
#
# _framework density 20.051797000000001
#
# number of rings (size 3 to 8) (size 9 to 14) (size 15 to 20)
#    0.000    0.714    5.714    3.429    0.000    2.286 
#    0.000    0.000    0.000    0.000    0.000    3.000 
#    0.000    0.000    0.000    0.000    0.000    0.000 
#
# Total GULP energy -694063.173863 kJ/mol
# GULP energy per Si atom -12393.985248 kJ/mol
# Density = 2.000616 g / cm^3
# Si number density = 20.051797 Si / 1000 Ang^3
#
#
#
# Elastic Constant Matrix: (Units=GPa)
#
#
# Indices 1 2 3 4 5 6 
#
# 1 94.9177 41.5434 40.6581 0.0000 0.0000 0.0000
# 2 41.5434 73.3339 25.1203 0.0000 0.0000 0.0000
# 3 40.6581 25.1203 100.8258 0.0000 0.0000 0.0000
# 4 0.0000 0.0000 0.0000 31.6995 0.0000 0.0000
# 5 0.0000 0.0000 0.0000 0.0000 25.0710 0.0000
# 6 0.0000 0.0000 0.0000 0.0000 0.0000 29.3491
#
#
#
# Elastic Compliance Matrix: (Units=1/GPa)
#
#
# Indices 1 2 3 4 5 6 
#
# 1 0.015671 -0.007339 -0.004491 0.000000 0.000000 0.000000
# 2 -0.007339 0.018346 -0.001611 0.000000 0.000000 0.000000
# 3 -0.004491 -0.001611 0.012130 0.000000 0.000000 0.000000
# 4 0.000000 0.000000 0.000000 0.031546 0.000000 0.000000
# 5 0.000000 0.000000 0.000000 0.000000 0.039887 0.000000
# 6 0.000000 0.000000 0.000000 0.000000 0.000000 0.034073
#
#
# Mechanical properties :
#
#
# Convention : Reuss Voigt Hill
#
# Bulk Modulus (GPa) = 51.90827 53.74678 52.82753
# Shear Modulus (GPa) = 27.03313 28.00761 27.52037
#
# Velocity S-wave (km/s) = 3.67572 3.74138 3.70870
# Velocity P-wave (km/s) = 6.63007 6.74730 6.68894
#
# Compressibility (1/GPa) = 0.01926475
#
# Stress axis : x y z
#
# Youngs Moduli (GPa) = 63.81019 54.50793 82.43686
#
# Poissons Ratio (x) = 0.40006 0.37022
# Poissons Ratio (y) = 0.46833 0.13282
# Poissons Ratio (z) = 0.28657 0.08782
#
# Static dielectric constant tensor:
#      x y z
#    x 3.560530 0.000000 0.000000 
#    y 0.000000 3.744530 0.000000 
#    z 0.000000 0.000000 3.625120 
# 
# 
# High freq. dielectric constant tensor:
#      x y z
#    x 1.775790 0.000000 0.000000 
#    y 0.000000 1.779060 0.000000 
#    z 0.000000 0.000000 1.767320 
# 
# From -- ./inp_files/50087.got.cif
#   From: 2010.03.12/outbox.cif.g09.slc.cpg/sg64_26_cif.got.tgz:50087.got - 2010.04.10 20:19:32.
