data_PCOD8263284
_publ_section_title
;
Structure prediction by ZEFSAII (Michael W. Deem and Ramdas Pophale) SiO2 
 PCOD8263284
Probable space group: C M C A
;
_chemical_formula_sum "Si O2"
_cell_formula_units_Z 72
_cell_length_a 12.990417
_cell_length_b 29.289025
_cell_length_c 8.832405
_cell_angle_alpha 90.000000
_cell_angle_beta 90.000000
_cell_angle_gamma 90.000000
_cell_volume 3360.523851
_symmetry_space_group_name_H-M "C M C A"
_symmetry_group_IT_number 64
_symmetry_cell_setting 'orthorhombic'
loop_
_space_group_symop_operation_xyz
x,y,z
-x,1/2-y,1/2+z
x,-y,-z
-x,1/2+y,1/2-z
-x,-y,-z
x,1/2+y,1/2-z
-x,y,z
x,1/2-y,1/2+z
1/2+x,1/2+y,z
1/2-x,-y,1/2+z
1/2+x,1/2-y,-z
1/2-x,y,1/2-z
1/2-x,1/2-y,-z
1/2+x,y,1/2-z
1/2-x,1/2+y,z
1/2+x,-y,1/2+z
loop_
_atom_site_type_symbol
_atom_site_label
_atom_site_fract_x
_atom_site_fract_y
_atom_site_fract_z
Si Si1 0.116144 0.773057 0.349544
Si Si2 0.750000 0.532705 0.250000
Si Si3 0.116937 0.048670 0.678244
Si Si4 0.303818 0.411854 0.027374
Si Si5 0.815624 0.807376 0.028389
O O1 0.143497 0.719586 0.380626
O O2 0.130307 0.784295 0.173491
O O3 0.192103 0.803289 0.453605
O O4 0.000000 0.784231 0.398463
O O5 0.832697 0.501623 0.159082
O O6 0.813602 0.564078 0.365453
O O7 0.184765 0.085407 0.584627
O O8 0.121617 0.062202 0.855388
O O9 0.000000 0.048740 0.619543
O O10 0.343342 0.360234 0.011975
#
# Coordination Sequence:
#
# PCOD8263284 Si02
#       5
#    16   8  16  16  16
#     4  10  20  37  58  80 112 148 187 236 289 341
#     4  10  22  38  56  84 120 152 188 240 292 338
#     4  10  20  38  62  85 115 155 192 231 289 351
#     4  10  22  38  58  86 118 151 193 242 285 340
#     4  10  22  37  57  85 112 149 194 235 284 340
#
# _framework density 21.425232000000001
#
# number of rings (size 3 to 8) (size 9 to 14) (size 15 to 20)
#    0.000    2.222    0.000    6.000    0.000   11.556 
#    0.000    0.000    0.000    2.667    0.000    0.000 
#    0.000    0.000    0.000    0.000    0.000    0.000 
#
# Total GULP energy -446353.395455 kJ/mol
# GULP energy per Si atom -12398.705429 kJ/mol
# Density = 2.137647 g / cm^3
# Si number density = 21.425232 Si / 1000 Ang^3
#
#
#
# Elastic Constant Matrix: (Units=GPa)
#
#
# Indices 1 2 3 4 5 6 
#
# 1 126.6805 -1.4174 -6.0959 0.0000 0.0000 0.0000
# 2 -1.4174 136.8243 47.5463 0.0000 0.0000 0.0000
# 3 -6.0959 47.5463 60.3427 0.0000 0.0000 0.0000
# 4 0.0000 0.0000 0.0000 34.9245 0.0000 0.0000
# 5 0.0000 0.0000 0.0000 0.0000 14.7839 0.0000
# 6 0.0000 0.0000 0.0000 0.0000 0.0000 9.5482
#
#
#
# Elastic Compliance Matrix: (Units=1/GPa)
#
#
# Indices 1 2 3 4 5 6 
#
# 1 0.007940 -0.000271 0.001015 0.000000 0.000000 0.000000
# 2 -0.000271 0.010074 -0.007965 0.000000 0.000000 0.000000
# 3 0.001015 -0.007965 0.022950 0.000000 0.000000 0.000000
# 4 0.000000 0.000000 0.000000 0.028633 0.000000 0.000000
# 5 0.000000 0.000000 0.000000 0.000000 0.067641 0.000000
# 6 0.000000 0.000000 0.000000 0.000000 0.000000 0.104732
#
#
# Mechanical properties :
#
#
# Convention : Reuss Voigt Hill
#
# Bulk Modulus (GPa) = 37.70231 44.87928 41.29080
# Shear Modulus (GPa) = 18.85006 30.77228 24.81117
#
# Velocity S-wave (km/s) = 2.96937 3.79392 3.40668
# Velocity P-wave (km/s) = 5.42140 6.33910 5.89812
#
# Compressibility (1/GPa) = 0.02652358
#
# Stress axis : x y z
#
# Youngs Moduli (GPa) = 125.94929 99.26987 43.57251
#
# Poissons Ratio (x) = 0.02686 -0.04424
# Poissons Ratio (y) = 0.03408 0.34704
# Poissons Ratio (z) = -0.12787 0.79065
#
# Static dielectric constant tensor:
#      x y z
#    x 3.772780 0.000000 0.000000 
#    y 0.000000 3.800930 0.000000 
#    z 0.000000 0.000000 3.718810 
# 
# 
# High freq. dielectric constant tensor:
#      x y z
#    x 1.825530 0.000000 0.000000 
#    y 0.000000 1.833780 0.000000 
#    z 0.000000 0.000000 1.830740 
# 
# From -- ./inp_files/5961.got.cif
#   From: 2010.03.12/outbox.cif.g09.slc.cpg/sg64_3_cif.got.tgz:5961.got - 2010.04.10 20:19:32.
