data_PCOD8263933
_publ_section_title
;
Structure prediction by ZEFSAII (Michael W. Deem and Ramdas Pophale) SiO2 
 PCOD8263933
Probable space group: C M C A
;
_chemical_formula_sum "Si O2"
_cell_formula_units_Z 80
_cell_length_a 26.453171
_cell_length_b 16.486570
_cell_length_c 8.750054
_cell_angle_alpha 90.000000
_cell_angle_beta 90.000000
_cell_angle_gamma 90.000000
_cell_volume 3816.091535
_symmetry_space_group_name_H-M "C M C A"
_symmetry_group_IT_number 64
_symmetry_cell_setting 'orthorhombic'
loop_
_space_group_symop_operation_xyz
x,y,z
-x,1/2-y,1/2+z
x,-y,-z
-x,1/2+y,1/2-z
-x,-y,-z
x,1/2+y,1/2-z
-x,y,z
x,1/2-y,1/2+z
1/2+x,1/2+y,z
1/2-x,-y,1/2+z
1/2+x,1/2-y,-z
1/2-x,y,1/2-z
1/2-x,1/2-y,-z
1/2+x,y,1/2-z
1/2-x,1/2+y,z
1/2+x,-y,1/2+z
loop_
_atom_site_type_symbol
_atom_site_label
_atom_site_fract_x
_atom_site_fract_y
_atom_site_fract_z
Si Si1 0.103797 0.842287 0.788594
Si Si2 0.500000 0.447981 0.221262
Si Si3 0.000000 0.372264 0.591786
Si Si4 0.196108 0.137968 0.717852
Si Si5 0.839531 0.744280 0.038218
Si Si6 0.892751 0.480986 0.173624
O O1 0.113690 0.799046 0.626022
O O2 0.047440 0.822206 0.844592
O O3 0.110439 0.938857 0.776280
O O4 0.141505 0.809682 0.916564
O O5 0.500000 0.536832 0.152040
O O6 0.551495 0.439075 0.320812
O O7 0.500000 0.377923 0.092500
O O8 0.250000 0.093518 0.750000
O O9 0.192828 0.174483 0.546639
O O10 0.195422 0.211288 0.839225
O O11 0.148933 0.078656 0.745694
O O12 0.878679 0.500000 0.000000
#
# Coordination Sequence:
#
# PCOD8263933 Si02
#       6
#    16   8   8  16  16  16
#     4  10  21  39  61  88 125 161 205 258 304 378
#     4   9  19  34  62  89 125 164 196 249 312 372
#     4   9  18  34  58  91 120 159 208 244 304 365
#     4  11  23  42  64  90 121 161 208 259 317 378
#     4  10  22  41  61  86 123 163 202 252 323 379
#     4  11  21  40  62  93 127 161 215 259 311 369
#
# _framework density 20.963857999999998
#
# number of rings (size 3 to 8) (size 9 to 14) (size 15 to 20)
#    0.000    1.800    2.000    2.100    0.000    3.200 
#    3.600    5.000    0.000    0.000    0.000    0.000 
#    0.000    0.000    0.000    0.000    0.000    0.000 
#
# Total GULP energy -495946.845559 kJ/mol
# GULP energy per Si atom -12398.671139 kJ/mol
# Density = 2.091614 g / cm^3
# Si number density = 20.963858 Si / 1000 Ang^3
#
#
#
# Elastic Constant Matrix: (Units=GPa)
#
#
# Indices 1 2 3 4 5 6 
#
# 1 144.8481 38.9326 29.6529 0.0000 0.0000 0.0000
# 2 38.9326 61.8604 22.4495 0.0000 0.0000 0.0000
# 3 29.6529 22.4495 96.3072 0.0000 0.0000 0.0000
# 4 0.0000 0.0000 0.0000 36.1987 0.0000 0.0000
# 5 0.0000 0.0000 0.0000 0.0000 27.4461 0.0000
# 6 0.0000 0.0000 0.0000 0.0000 0.0000 25.8301
#
#
#
# Elastic Compliance Matrix: (Units=1/GPa)
#
#
# Indices 1 2 3 4 5 6 
#
# 1 0.008503 -0.004808 -0.001497 0.000000 0.000000 0.000000
# 2 -0.004808 0.020378 -0.003270 0.000000 0.000000 0.000000
# 3 -0.001497 -0.003270 0.011607 0.000000 0.000000 0.000000
# 4 0.000000 0.000000 0.000000 0.027625 0.000000 0.000000
# 5 0.000000 0.000000 0.000000 0.000000 0.036435 0.000000
# 6 0.000000 0.000000 0.000000 0.000000 0.000000 0.038715
#
#
# Mechanical properties :
#
#
# Convention : Reuss Voigt Hill
#
# Bulk Modulus (GPa) = 46.86612 53.89841 50.38226
# Shear Modulus (GPa) = 29.49430 32.02702 30.76066
#
# Velocity S-wave (km/s) = 3.75495 3.91285 3.83472
# Velocity P-wave (km/s) = 6.41902 6.79558 6.60998
#
# Compressibility (1/GPa) = 0.02133737
#
# Stress axis : x y z
#
# Youngs Moduli (GPa) = 117.61177 49.07265 86.15756
#
# Poissons Ratio (x) = 0.23593 0.12900
# Poissons Ratio (y) = 0.56546 0.28172
# Poissons Ratio (z) = 0.17609 0.16046
#
# Static dielectric constant tensor:
#      x y z
#    x 3.831200 0.000000 0.000000 
#    y 0.000000 3.631020 0.000000 
#    z 0.000000 0.000000 3.889960 
# 
# 
# High freq. dielectric constant tensor:
#      x y z
#    x 1.817230 0.000000 0.000000 
#    y 0.000000 1.803700 0.000000 
#    z 0.000000 0.000000 1.828140 
# 
# From -- ./inp_files/10263.got.cif
#   From: 2010.03.12/outbox.cif.g09.slc.cpg/sg64_6_cif.got.tgz:10263.got - 2010.04.10 20:19:32.
