data_PCOD8263897
_publ_section_title
;
Structure prediction by ZEFSAII (Michael W. Deem and Ramdas Pophale) SiO2 
 PCOD8263897
Probable space group: C M C A
;
_chemical_formula_sum "Si O2"
_cell_formula_units_Z 104
_cell_length_a 20.128742
_cell_length_b 8.882220
_cell_length_c 28.615221
_cell_angle_alpha 90.000000
_cell_angle_beta 90.000000
_cell_angle_gamma 90.000000
_cell_volume 5116.055693
_symmetry_space_group_name_H-M "C M C A"
_symmetry_group_IT_number 64
_symmetry_cell_setting 'orthorhombic'
loop_
_space_group_symop_operation_xyz
x,y,z
-x,1/2-y,1/2+z
x,-y,-z
-x,1/2+y,1/2-z
-x,-y,-z
x,1/2+y,1/2-z
-x,y,z
x,1/2-y,1/2+z
1/2+x,1/2+y,z
1/2-x,-y,1/2+z
1/2+x,1/2-y,-z
1/2-x,y,1/2-z
1/2-x,1/2-y,-z
1/2+x,y,1/2-z
1/2-x,1/2+y,z
1/2+x,-y,1/2+z
loop_
_atom_site_type_symbol
_atom_site_label
_atom_site_fract_x
_atom_site_fract_y
_atom_site_fract_z
Si Si1 0.078504 0.625830 0.808544
Si Si2 0.500000 0.195907 0.456927
Si Si3 0.226709 0.251853 0.935735
Si Si4 0.626450 0.781740 0.602060
Si Si5 0.380060 0.130553 0.625122
Si Si6 0.000000 0.343958 0.439232
Si Si7 0.256551 0.000000 0.000000
Si Si8 0.422199 0.286934 0.715251
O O1 0.120723 0.670938 0.853827
O O2 0.099750 0.457524 0.794353
O O3 0.099842 0.738320 0.767008
O O4 0.000000 0.638900 0.819154
O O5 0.566458 0.259852 0.432871
O O6 0.500000 0.245063 0.511497
O O7 0.500000 0.018296 0.450978
O O8 0.305052 0.256072 0.925090
O O9 0.187820 0.215170 0.888733
O O10 0.202209 0.408233 0.960212
O O11 0.210155 0.120303 0.973254
O O12 0.622767 0.951717 0.620753
O O13 0.436275 0.200641 0.591515
O O14 0.390317 0.170829 0.678865
O O15 0.500000 0.267519 0.709959
#
# Coordination Sequence:
#
# PCOD8263897 Si02
#       8
#    16   8  16  16  16   8   8  16
#     4  10  21  38  63  92 125 161 202 251 309 372
#     4   9  20  34  56  85 120 155 200 251 302 357
#     4  11  24  40  63  88 124 166 217 256 303 366
#     4  11  22  39  61  91 123 164 205 255 308 370
#     4  11  22  39  61  91 123 164 205 255 308 370
#     4   9  20  34  56  85 120 155 200 251 302 357
#     4  10  24  42  60  84 120 176 216 254 294 372
#     4  10  21  38  63  92 125 161 202 251 309 372
#
# _framework density 20.32816
#
# number of rings (size 3 to 8) (size 9 to 14) (size 15 to 20)
#    0.000    1.692    3.077    0.923    6.462    1.231 
#    0.000    0.769    0.000    5.538    0.000    0.000 
#    0.000    0.000    0.000    0.000    0.000    0.000 
#
# Total GULP energy -644723.550629 kJ/mol
# GULP energy per Si atom -12398.529820 kJ/mol
# Density = 2.028189 g / cm^3
# Si number density = 20.328160 Si / 1000 Ang^3
#
#
#
# Elastic Constant Matrix: (Units=GPa)
#
#
# Indices 1 2 3 4 5 6 
#
# 1 87.5549 16.7271 32.0188 0.0000 0.0000 0.0000
# 2 16.7271 85.6600 25.5518 0.0000 0.0000 0.0000
# 3 32.0188 25.5518 109.7042 0.0000 0.0000 0.0000
# 4 0.0000 0.0000 0.0000 39.1792 0.0000 0.0000
# 5 0.0000 0.0000 0.0000 0.0000 21.1067 0.0000
# 6 0.0000 0.0000 0.0000 0.0000 0.0000 18.3716
#
#
#
# Elastic Compliance Matrix: (Units=1/GPa)
#
#
# Indices 1 2 3 4 5 6 
#
# 1 0.012965 -0.001508 -0.003433 0.000000 0.000000 0.000000
# 2 -0.001508 0.012721 -0.002523 0.000000 0.000000 0.000000
# 3 -0.003433 -0.002523 0.010705 0.000000 0.000000 0.000000
# 4 0.000000 0.000000 0.000000 0.025524 0.000000 0.000000
# 5 0.000000 0.000000 0.000000 0.000000 0.047378 0.000000
# 6 0.000000 0.000000 0.000000 0.000000 0.000000 0.054432
#
#
# Mechanical properties :
#
#
# Convention : Reuss Voigt Hill
#
# Bulk Modulus (GPa) = 46.58958 47.94607 47.26782
# Shear Modulus (GPa) = 26.90976 29.63959 28.27467
#
# Velocity S-wave (km/s) = 3.64231 3.82259 3.73354
# Velocity P-wave (km/s) = 6.37629 6.56660 6.47214
#
# Compressibility (1/GPa) = 0.02146403
#
# Stress axis : x y z
#
# Youngs Moduli (GPa) = 77.13180 78.60998 93.41472
#
# Poissons Ratio (x) = 0.11852 0.32068
# Poissons Ratio (y) = 0.11629 0.23567
# Poissons Ratio (z) = 0.26478 0.19832
#
# Static dielectric constant tensor:
#      x y z
#    x 3.403650 0.000000 0.000000 
#    y 0.000000 3.770240 0.000000 
#    z 0.000000 0.000000 3.807960 
# 
# 
# High freq. dielectric constant tensor:
#      x y z
#    x 1.761930 0.000000 0.000000 
#    y 0.000000 1.793900 0.000000 
#    z 0.000000 0.000000 1.807230 
# 
# From -- ./inp_files/50814.got.cif
#   From: 2010.03.12/outbox.cif.g09.slc.cpg/sg64_26_cif.got.tgz:50814.got - 2010.04.10 20:19:32.
