data_PCOD8263501
_publ_section_title
;
Structure prediction by ZEFSAII (Michael W. Deem and Ramdas Pophale) SiO2 
 PCOD8263501
Probable space group: C M C A
;
_chemical_formula_sum "Si O2"
_cell_formula_units_Z 96
_cell_length_a 16.812903
_cell_length_b 26.435793
_cell_length_c 9.724179
_cell_angle_alpha 90.000000
_cell_angle_beta 90.000000
_cell_angle_gamma 90.000000
_cell_volume 4322.032164
_symmetry_space_group_name_H-M "C M C A"
_symmetry_group_IT_number 64
_symmetry_cell_setting 'orthorhombic'
loop_
_space_group_symop_operation_xyz
x,y,z
-x,1/2-y,1/2+z
x,-y,-z
-x,1/2+y,1/2-z
-x,-y,-z
x,1/2+y,1/2-z
-x,y,z
x,1/2-y,1/2+z
1/2+x,1/2+y,z
1/2-x,-y,1/2+z
1/2+x,1/2-y,-z
1/2-x,y,1/2-z
1/2-x,1/2-y,-z
1/2+x,y,1/2-z
1/2-x,1/2+y,z
1/2+x,-y,1/2+z
loop_
_atom_site_type_symbol
_atom_site_label
_atom_site_fract_x
_atom_site_fract_y
_atom_site_fract_z
Si Si1 0.152068 0.957065 0.906768
Si Si2 0.407726 0.301556 0.326297
Si Si3 0.665976 0.958342 0.897473
Si Si4 0.169204 0.344325 0.919717
Si Si5 0.410709 0.364656 0.071962
Si Si6 0.159900 0.696768 0.362815
O O1 0.242450 0.973371 0.880437
O O2 0.118194 0.956469 0.749612
O O3 0.145090 0.905093 0.993884
O O4 0.109308 0.000000 0.000000
O O5 0.500000 0.288150 0.299746
O O6 0.395028 0.317999 0.482883
O O7 0.381569 0.347547 0.223972
O O8 0.351191 0.252999 0.301466
O O9 0.668663 0.902745 0.965035
O O10 0.625413 0.000000 0.000000
O O11 0.142947 0.342325 0.761029
O O12 0.253295 0.314262 0.928945
O O13 0.500000 0.385954 0.077103
O O14 0.405803 0.313528 0.980161
#
# Coordination Sequence:
#
# PCOD8263501 Si02
#       6
#    16  16  16  16  16  16
#     4  10  20  39  63  90 125 160 207 265 327 382
#     4  11  26  41  60  94 133 171 215 258 313 387
#     4  10  20  39  65  97 125 158 209 266 328 383
#     4  11  22  41  67  93 127 161 210 270 317 376
#     4  11  23  40  61  89 128 172 215 259 320 387
#     4  11  21  42  65  92 124 166 215 263 313 378
#
# _framework density 22.211772
#
# number of rings (size 3 to 8) (size 9 to 14) (size 15 to 20)
#    0.000    1.333    3.333    3.000    2.333    5.000 
#    0.000    0.000    0.000    1.000    0.000    0.000 
#    0.000    0.000    0.000    0.000    0.000    0.000 
#
# Total GULP energy -594688.698682 kJ/mol
# GULP energy per Si atom -12389.347889 kJ/mol
# Density = 2.216122 g / cm^3
# Si number density = 22.211772 Si / 1000 Ang^3
#
#
#
# Elastic Constant Matrix: (Units=GPa)
#
#
# Indices 1 2 3 4 5 6 
#
# 1 45.1175 33.6434 37.9045 0.0000 0.0000 0.0000
# 2 33.6434 124.0014 45.5776 0.0000 0.0000 0.0000
# 3 37.9045 45.5776 109.8600 0.0000 0.0000 0.0000
# 4 0.0000 0.0000 0.0000 35.4013 0.0000 0.0000
# 5 0.0000 0.0000 0.0000 0.0000 23.4580 0.0000
# 6 0.0000 0.0000 0.0000 0.0000 0.0000 9.5474
#
#
#
# Elastic Compliance Matrix: (Units=1/GPa)
#
#
# Indices 1 2 3 4 5 6 
#
# 1 0.034501 -0.005882 -0.009463 0.000000 0.000000 0.000000
# 2 -0.005882 0.010518 -0.002334 0.000000 0.000000 0.000000
# 3 -0.009463 -0.002334 0.013336 0.000000 0.000000 0.000000
# 4 0.000000 0.000000 0.000000 0.028248 0.000000 0.000000
# 5 0.000000 0.000000 0.000000 0.000000 0.042629 0.000000
# 6 0.000000 0.000000 0.000000 0.000000 0.000000 0.104741
#
#
# Mechanical properties :
#
#
# Convention : Reuss Voigt Hill
#
# Bulk Modulus (GPa) = 43.48642 57.02556 50.25599
# Shear Modulus (GPa) = 18.05066 24.47155 21.26111
#
# Velocity S-wave (km/s) = 2.85382 3.32284 3.09722
# Velocity P-wave (km/s) = 5.52083 6.36011 5.95528
#
# Compressibility (1/GPa) = 0.02299568
#
# Stress axis : x y z
#
# Youngs Moduli (GPa) = 28.98449 95.07208 74.98510
#
# Poissons Ratio (x) = 0.55925 0.70961
# Poissons Ratio (y) = 0.17050 0.17503
# Poissons Ratio (z) = 0.27429 0.22191
#
# Static dielectric constant tensor:
#      x y z
#    x 3.481460 0.000000 0.000000 
#    y 0.000000 4.003990 0.000000 
#    z 0.000000 0.000000 4.380700 
# 
# 
# High freq. dielectric constant tensor:
#      x y z
#    x 1.827860 0.000000 0.000000 
#    y 0.000000 1.877270 0.000000 
#    z 0.000000 0.000000 1.888250 
# 
# From -- ./inp_files/8450.got.cif
#   From: 2010.03.12/outbox.cif.g09.slc.cpg/sg64_5_cif.got.tgz:8450.got - 2010.04.10 20:19:32.
