data_PCOD8263923
_publ_section_title
;
Structure prediction by ZEFSAII (Michael W. Deem and Ramdas Pophale) SiO2 
 PCOD8263923
Probable space group: C M C A
;
_chemical_formula_sum "Si O2"
_cell_formula_units_Z 96
_cell_length_a 8.667574
_cell_length_b 20.570051
_cell_length_c 27.891165
_cell_angle_alpha 90.000000
_cell_angle_beta 90.000000
_cell_angle_gamma 90.000000
_cell_volume 4972.783841
_symmetry_space_group_name_H-M "C M C A"
_symmetry_group_IT_number 64
_symmetry_cell_setting 'orthorhombic'
loop_
_space_group_symop_operation_xyz
x,y,z
-x,1/2-y,1/2+z
x,-y,-z
-x,1/2+y,1/2-z
-x,-y,-z
x,1/2+y,1/2-z
-x,y,z
x,1/2-y,1/2+z
1/2+x,1/2+y,z
1/2-x,-y,1/2+z
1/2+x,1/2-y,-z
1/2-x,y,1/2-z
1/2-x,1/2-y,-z
1/2+x,y,1/2-z
1/2-x,1/2+y,z
1/2+x,-y,1/2+z
loop_
_atom_site_type_symbol
_atom_site_label
_atom_site_fract_x
_atom_site_fract_y
_atom_site_fract_z
Si Si1 0.819386 0.258435 0.107275
Si Si2 0.177998 0.999911 0.109068
Si Si3 0.679821 0.113629 0.950176
Si Si4 0.321314 0.370848 0.948127
Si Si5 0.818686 0.446280 0.200395
Si Si6 0.818293 0.694498 0.700114
O O1 0.768680 0.320855 0.076586
O O2 0.770505 0.195084 0.077874
O O3 0.728412 0.256975 0.157515
O O4 0.000000 0.258810 0.118640
O O5 0.224519 0.946526 0.070041
O O6 0.277221 0.994857 0.157518
O O7 0.000000 0.990126 0.122233
O O8 0.210881 0.070639 0.088079
O O9 0.500000 0.099622 0.942255
O O10 0.714116 0.120794 0.006021
O O11 0.500000 0.368778 0.964094
O O12 0.750000 0.473789 0.250000
O O13 0.749850 0.376064 0.187811
O O14 0.000000 0.439270 0.205764
O O15 0.750000 0.721364 0.750000
O O16 0.000000 0.689089 0.705019
#
# Coordination Sequence:
#
# PCOD8263923 Si02
#       6
#    16  16  16  16  16  16
#     4  10  21  39  59  84 117 153 193 237 287 338
#     4  11  22  38  59  85 116 153 195 237 286 339
#     4  11  22  36  59  86 114 151 197 244 286 337
#     4  10  23  40  58  81 117 158 194 237 285 340
#     4  11  21  36  59  87 116 147 187 236 286 339
#     4  11  21  35  59  88 116 149 188 235 284 338
#
# _framework density 19.305081999999999
#
# number of rings (size 3 to 8) (size 9 to 14) (size 15 to 20)
#    0.000    1.333    1.667    6.000    0.000    4.667 
#    0.000    0.833    0.000    0.000    0.000    0.000 
#    0.000    0.000    0.000    0.000    0.000    0.000 
#
# Total GULP energy -595509.394769 kJ/mol
# GULP energy per Si atom -12406.445724 kJ/mol
# Density = 1.926114 g / cm^3
# Si number density = 19.305082 Si / 1000 Ang^3
#
#
#
# Elastic Constant Matrix: (Units=GPa)
#
#
# Indices 1 2 3 4 5 6 
#
# 1 100.9418 21.1992 36.8786 0.0000 0.0000 0.0000
# 2 21.1992 55.3836 6.9368 0.0000 0.0000 0.0000
# 3 36.8786 6.9368 107.8792 0.0000 0.0000 0.0000
# 4 0.0000 0.0000 0.0000 0.4804 0.0000 0.0000
# 5 0.0000 0.0000 0.0000 0.0000 39.4434 0.0000
# 6 0.0000 0.0000 0.0000 0.0000 0.0000 16.8672
#
#
#
# Elastic Compliance Matrix: (Units=1/GPa)
#
#
# Indices 1 2 3 4 5 6 
#
# 1 0.012213 -0.004185 -0.003906 0.000000 0.000000 0.000000
# 2 -0.004185 0.019637 0.000168 0.000000 0.000000 0.000000
# 3 -0.003906 0.000168 0.010594 0.000000 0.000000 0.000000
# 4 0.000000 0.000000 0.000000 2.081448 0.000000 0.000000
# 5 0.000000 0.000000 0.000000 0.000000 0.025353 0.000000
# 6 0.000000 0.000000 0.000000 0.000000 0.000000 0.059287
#
#
# Mechanical properties :
#
#
# Convention : Reuss Voigt Hill
#
# Bulk Modulus (GPa) = 37.59773 43.80375 40.70074
# Shear Modulus (GPa) = 2.23890 24.63754 13.43822
#
# Velocity S-wave (km/s) = 1.07808 3.57630 2.64123
# Velocity P-wave (km/s) = 4.58994 6.30815 5.51635
#
# Compressibility (1/GPa) = 0.02659735
#
# Stress axis : x y z
#
# Youngs Moduli (GPa) = 81.88234 50.92458 94.39300
#
# Poissons Ratio (x) = 0.21314 0.36868
# Poissons Ratio (y) = 0.34271 -0.01587
# Poissons Ratio (z) = 0.31981 -0.00856
#
# Static dielectric constant tensor:
#      x y z
#    x 3.565640 0.000000 0.000000 
#    y 0.000000 3.440530 0.000000 
#    z 0.000000 0.000000 3.662560 
# 
# 
# High freq. dielectric constant tensor:
#      x y z
#    x 1.759280 0.000000 0.000000 
#    y 0.000000 1.733950 0.000000 
#    z 0.000000 0.000000 1.767380 
# 
# From -- ./inp_files/48067.got.cif
#   From: 2010.03.12/outbox.cif.g09.slc.cpg/sg64_25_cif.got.tgz:48067.got - 2010.04.10 20:19:32.
