data_PCOD8263568
_publ_section_title
;
Structure prediction by ZEFSAII (Michael W. Deem and Ramdas Pophale) SiO2 
 PCOD8263568
Probable space group: C M C A
;
_chemical_formula_sum "Si O2"
_cell_formula_units_Z 112
_cell_length_a 13.881304
_cell_length_b 26.242999
_cell_length_c 14.580673
_cell_angle_alpha 90.000000
_cell_angle_beta 90.000000
_cell_angle_gamma 90.000000
_cell_volume 5311.550310
_symmetry_space_group_name_H-M "C M C A"
_symmetry_group_IT_number 64
_symmetry_cell_setting 'orthorhombic'
loop_
_space_group_symop_operation_xyz
x,y,z
-x,1/2-y,1/2+z
x,-y,-z
-x,1/2+y,1/2-z
-x,-y,-z
x,1/2+y,1/2-z
-x,y,z
x,1/2-y,1/2+z
1/2+x,1/2+y,z
1/2-x,-y,1/2+z
1/2+x,1/2-y,-z
1/2-x,y,1/2-z
1/2-x,1/2-y,-z
1/2+x,y,1/2-z
1/2-x,1/2+y,z
1/2+x,-y,1/2+z
loop_
_atom_site_type_symbol
_atom_site_label
_atom_site_fract_x
_atom_site_fract_y
_atom_site_fract_z
Si Si1 0.258114 0.480417 0.396764
Si Si2 0.886792 0.767427 0.795691
Si Si3 0.730911 0.127191 0.538361
Si Si4 0.110931 0.021349 0.237589
Si Si5 0.389103 0.713055 0.880547
Si Si6 0.387971 0.376024 0.860218
Si Si7 0.391085 0.204628 0.968891
O O1 0.264699 0.500000 0.500000
O O2 0.270684 0.419604 0.401579
O O3 0.155479 0.491619 0.349293
O O4 0.340207 0.506338 0.333904
O O5 0.842142 0.747582 0.699986
O O6 0.844435 0.822518 0.823677
O O7 0.864253 0.722567 0.867097
O O8 0.000000 0.775858 0.783635
O O9 0.665753 0.160177 0.607205
O O10 0.670255 0.107341 0.451056
O O11 0.821912 0.159104 0.500882
O O12 0.125180 0.081786 0.219355
O O13 0.000000 0.005945 0.243801
O O14 0.500000 0.700483 0.858228
O O15 0.376285 0.744423 0.973127
O O16 0.500000 0.370809 0.888660
O O17 0.500000 0.184288 0.977993
#
# Coordination Sequence:
#
# PCOD8263568 Si02
#       7
#    16  16  16  16  16  16  16
#     4  11  25  45  66 100 137 166 227 293 341 402
#     4   9  19  36  59  90 130 164 203 261 314 384
#     4  12  23  39  66  95 124 176 218 272 333 395
#     4  10  24  46  71  97 132 176 224 283 350 403
#     4  10  21  38  61  95 132 167 211 263 322 394
#     4  10  20  40  70  97 123 169 230 280 325 390
#     4  10  22  40  57  87 134 168 208 260 318 397
#
# _framework density 21.086122
#
# number of rings (size 3 to 8) (size 9 to 14) (size 15 to 20)
#    0.000    1.714    2.857    0.857    0.000    6.286 
#    0.000    2.857    0.000    0.000    0.000    0.000 
#    0.000    0.000    0.000    0.000    0.000    0.000 
#
# Total GULP energy -694494.383713 kJ/mol
# GULP energy per Si atom -12401.685423 kJ/mol
# Density = 2.103813 g / cm^3
# Si number density = 21.086122 Si / 1000 Ang^3
#
#
#
# Elastic Constant Matrix: (Units=GPa)
#
#
# Indices 1 2 3 4 5 6 
#
# 1 100.5212 52.3174 45.8184 0.0000 0.0000 0.0000
# 2 52.3174 117.2154 37.0051 0.0000 0.0000 0.0000
# 3 45.8184 37.0051 119.3214 0.0000 0.0000 0.0000
# 4 0.0000 0.0000 0.0000 30.6639 0.0000 0.0000
# 5 0.0000 0.0000 0.0000 0.0000 29.3835 0.0000
# 6 0.0000 0.0000 0.0000 0.0000 0.0000 31.3174
#
#
#
# Elastic Compliance Matrix: (Units=1/GPa)
#
#
# Indices 1 2 3 4 5 6 
#
# 1 0.014452 -0.005208 -0.003934 0.000000 0.000000 0.000000
# 2 -0.005208 0.011334 -0.001515 0.000000 0.000000 0.000000
# 3 -0.003934 -0.001515 0.010361 0.000000 0.000000 0.000000
# 4 0.000000 0.000000 0.000000 0.032612 0.000000 0.000000
# 5 0.000000 0.000000 0.000000 0.000000 0.034033 0.000000
# 6 0.000000 0.000000 0.000000 0.000000 0.000000 0.031931
#
#
# Mechanical properties :
#
#
# Convention : Reuss Voigt Hill
#
# Bulk Modulus (GPa) = 67.42064 67.48219 67.45142
# Shear Modulus (GPa) = 31.05916 31.73410 31.39663
#
# Velocity S-wave (km/s) = 3.84209 3.88361 3.86291
# Velocity P-wave (km/s) = 7.19205 7.22375 7.20791
#
# Compressibility (1/GPa) = 0.01483225
#
# Stress axis : x y z
#
# Youngs Moduli (GPa) = 69.19358 88.22731 96.51290
#
# Poissons Ratio (x) = 0.45953 0.37970
# Poissons Ratio (y) = 0.36039 0.14623
# Poissons Ratio (z) = 0.27222 0.13367
#
# Static dielectric constant tensor:
#      x y z
#    x 3.848450 0.000000 0.000000 
#    y 0.000000 3.818950 0.000000 
#    z 0.000000 0.000000 3.770640 
# 
# 
# High freq. dielectric constant tensor:
#      x y z
#    x 1.828880 0.000000 0.000000 
#    y 0.000000 1.822060 0.000000 
#    z 0.000000 0.000000 1.826990 
# 
# From -- ./inp_files/24257.got.cif
#   From: 2010.03.12/outbox.cif.g09.slc.cpg/sg64_13_cif.got.tgz:24257.got - 2010.04.10 20:19:32.
