data_PCOD8263431
_publ_section_title
;
Structure prediction by ZEFSAII (Michael W. Deem and Ramdas Pophale) SiO2 
 PCOD8263431
Probable space group: C M C A
;
_chemical_formula_sum "Si O2"
_cell_formula_units_Z 96
_cell_length_a 18.200465
_cell_length_b 9.820267
_cell_length_c 28.850485
_cell_angle_alpha 90.000000
_cell_angle_beta 90.000000
_cell_angle_gamma 90.000000
_cell_volume 5156.546021
_symmetry_space_group_name_H-M "C M C A"
_symmetry_group_IT_number 64
_symmetry_cell_setting 'orthorhombic'
loop_
_space_group_symop_operation_xyz
x,y,z
-x,1/2-y,1/2+z
x,-y,-z
-x,1/2+y,1/2-z
-x,-y,-z
x,1/2+y,1/2-z
-x,y,z
x,1/2-y,1/2+z
1/2+x,1/2+y,z
1/2-x,-y,1/2+z
1/2+x,1/2-y,-z
1/2-x,y,1/2-z
1/2-x,1/2-y,-z
1/2+x,y,1/2-z
1/2-x,1/2+y,z
1/2+x,-y,1/2+z
loop_
_atom_site_type_symbol
_atom_site_label
_atom_site_fract_x
_atom_site_fract_y
_atom_site_fract_z
Si Si1 0.176038 0.303710 0.116132
Si Si2 0.585203 0.006571 0.710040
Si Si3 0.818642 0.486374 0.379365
Si Si4 0.414322 0.857384 0.023724
Si Si5 0.415585 0.805008 0.207146
Si Si6 0.081122 0.112998 0.961508
O O1 0.245064 0.400513 0.122453
O O2 0.132785 0.342112 0.069870
O O3 0.124688 0.335584 0.159486
O O4 0.200072 0.145886 0.115396
O O5 0.500000 0.038574 0.698600
O O6 0.595938 0.849516 0.723934
O O7 0.633625 0.044574 0.665896
O O8 0.614798 0.096854 0.752604
O O9 0.864016 0.435375 0.422764
O O10 0.500000 0.836238 0.036478
O O11 0.388068 0.748758 0.985581
O O12 0.398321 0.000000 0.000000
O O13 0.500000 0.838202 0.197535
O O14 0.000000 0.138954 0.939904
O O15 0.074798 0.000000 0.000000
#
# Coordination Sequence:
#
# PCOD8263431 Si02
#       6
#    16  16  16  16  16  16
#     4  11  24  39  57  83 119 156 188 230 285 342
#     4   9  19  38  62  86 111 143 189 237 281 334
#     4  11  24  38  57  85 117 154 190 231 284 340
#     4  10  22  40  61  86 114 147 191 240 285 333
#     4   9  19  38  63  86 110 145 188 236 284 333
#     4  10  20  38  63  85 109 147 194 237 278 331
#
# _framework density 18.617113
#
# number of rings (size 3 to 8) (size 9 to 14) (size 15 to 20)
#    0.000    2.000    1.667    1.000    2.333    4.667 
#    0.000    3.333    0.000    0.000    0.000    0.000 
#    0.000    0.000    0.000    0.000    0.000    0.000 
#
# Total GULP energy -595269.043670 kJ/mol
# GULP energy per Si atom -12401.438410 kJ/mol
# Density = 1.857474 g / cm^3
# Si number density = 18.617113 Si / 1000 Ang^3
#
#
#
# Elastic Constant Matrix: (Units=GPa)
#
#
# Indices 1 2 3 4 5 6 
#
# 1 87.6225 59.9726 64.2564 0.0000 0.0000 0.0000
# 2 59.9726 125.6971 76.0301 0.0000 0.0000 0.0000
# 3 64.2564 76.0301 126.5366 0.0000 0.0000 0.0000
# 4 0.0000 0.0000 0.0000 35.1575 0.0000 0.0000
# 5 0.0000 0.0000 0.0000 0.0000 2.6339 0.0000
# 6 0.0000 0.0000 0.0000 0.0000 0.0000 35.4240
#
#
#
# Elastic Compliance Matrix: (Units=1/GPa)
#
#
# Indices 1 2 3 4 5 6 
#
# 1 0.020289 -0.005417 -0.007048 0.000000 0.000000 0.000000
# 2 -0.005417 0.013944 -0.005628 0.000000 0.000000 0.000000
# 3 -0.007048 -0.005628 0.014863 0.000000 0.000000 0.000000
# 4 0.000000 0.000000 0.000000 0.028443 0.000000 0.000000
# 5 0.000000 0.000000 0.000000 0.000000 0.379668 0.000000
# 6 0.000000 0.000000 0.000000 0.000000 0.000000 0.028229
#
#
# Mechanical properties :
#
#
# Convention : Reuss Voigt Hill
#
# Bulk Modulus (GPa) = 77.45368 82.26383 79.85875
# Shear Modulus (GPa) = 9.50705 23.94956 16.72830
#
# Velocity S-wave (km/s) = 2.26223 3.59057 3.00083
# Velocity P-wave (km/s) = 6.96544 7.84046 7.41587
#
# Compressibility (1/GPa) = 0.01291094
#
# Stress axis : x y z
#
# Youngs Moduli (GPa) = 49.28845 71.71455 67.28034
#
# Poissons Ratio (x) = 0.38849 0.47419
# Poissons Ratio (y) = 0.26700 0.37862
# Poissons Ratio (z) = 0.34738 0.40358
#
# Static dielectric constant tensor:
#      x y z
#    x 3.437360 0.000000 0.000000 
#    y 0.000000 3.632350 0.000000 
#    z 0.000000 0.000000 3.426110 
# 
# 
# High freq. dielectric constant tensor:
#      x y z
#    x 1.719170 0.000000 0.000000 
#    y 0.000000 1.735640 0.000000 
#    z 0.000000 0.000000 1.729340 
# 
# From -- ./inp_files/50684.got.cif
#   From: 2010.03.12/outbox.cif.g09.slc.cpg/sg64_26_cif.got.tgz:50684.got - 2010.04.10 20:19:32.
