data_PCOD8263549
_publ_section_title
;
Structure prediction by ZEFSAII (Michael W. Deem and Ramdas Pophale) SiO2 
 PCOD8263549
Probable space group: C M C A
;
_chemical_formula_sum "Si O2"
_cell_formula_units_Z 80
_cell_length_a 18.465900
_cell_length_b 22.371101
_cell_length_c 9.949694
_cell_angle_alpha 90.000000
_cell_angle_beta 90.000000
_cell_angle_gamma 90.000000
_cell_volume 4110.243604
_symmetry_space_group_name_H-M "C M C A"
_symmetry_group_IT_number 64
_symmetry_cell_setting 'orthorhombic'
loop_
_space_group_symop_operation_xyz
x,y,z
-x,1/2-y,1/2+z
x,-y,-z
-x,1/2+y,1/2-z
-x,-y,-z
x,1/2+y,1/2-z
-x,y,z
x,1/2-y,1/2+z
1/2+x,1/2+y,z
1/2-x,-y,1/2+z
1/2+x,1/2-y,-z
1/2-x,y,1/2-z
1/2-x,1/2-y,-z
1/2+x,y,1/2-z
1/2-x,1/2+y,z
1/2+x,-y,1/2+z
loop_
_atom_site_type_symbol
_atom_site_label
_atom_site_fract_x
_atom_site_fract_y
_atom_site_fract_z
Si Si1 0.584753 0.388265 0.706147
Si Si2 0.816355 0.499250 0.847145
Si Si3 0.915372 0.162293 0.005527
Si Si4 0.665063 0.871998 0.247310
Si Si5 0.415558 0.699846 0.529341
O O1 0.500000 0.400084 0.697559
O O2 0.622244 0.450273 0.672112
O O3 0.607684 0.364845 0.851872
O O4 0.608803 0.338051 0.599735
O O5 0.750000 0.484284 0.750000
O O6 0.851725 0.563128 0.814105
O O7 0.787804 0.500000 0.000000
O O8 0.000000 0.151840 0.975640
O O9 0.867201 0.128194 0.896675
O O10 0.895689 0.231931 0.000828
O O11 0.750000 0.858914 0.250000
O O12 0.627182 0.820942 0.160404
O O13 0.500000 0.692485 0.561703
#
# Coordination Sequence:
#
# PCOD8263549 Si02
#       5
#    16  16  16  16  16
#     4  10  22  38  63  93 119 156 204 253 299 350
#     4  11  25  43  64  86 121 165 201 247 305 362
#     4  10  22  40  63  91 124 159 198 247 304 357
#     4  11  24  39  60  91 122 159 205 246 299 358
#     4  10  20  40  65  89 122 162 200 246 302 359
#
# _framework density 19.463566
#
# number of rings (size 3 to 8) (size 9 to 14) (size 15 to 20)
#    0.000    1.600    2.000    1.800    5.600    6.000 
#    0.000    4.000    0.000    0.000    0.000    0.000 
#    0.000    0.000    0.000    0.000    0.000    0.000 
#
# Total GULP energy -496242.947653 kJ/mol
# GULP energy per Si atom -12406.073691 kJ/mol
# Density = 1.941927 g / cm^3
# Si number density = 19.463566 Si / 1000 Ang^3
#
#
#
# Elastic Constant Matrix: (Units=GPa)
#
#
# Indices 1 2 3 4 5 6 
#
# 1 52.1684 33.0699 46.5589 0.0000 0.0000 0.0000
# 2 33.0699 97.2495 41.1271 0.0000 0.0000 0.0000
# 3 46.5589 41.1271 151.7722 0.0000 0.0000 0.0000
# 4 0.0000 0.0000 0.0000 36.2011 0.0000 0.0000
# 5 0.0000 0.0000 0.0000 0.0000 31.3170 0.0000
# 6 0.0000 0.0000 0.0000 0.0000 0.0000 18.5787
#
#
#
# Elastic Compliance Matrix: (Units=1/GPa)
#
#
# Indices 1 2 3 4 5 6 
#
# 1 0.030278 -0.007192 -0.007339 0.000000 0.000000 0.000000
# 2 -0.007192 0.013322 -0.001404 0.000000 0.000000 0.000000
# 3 -0.007339 -0.001404 0.009221 0.000000 0.000000 0.000000
# 4 0.000000 0.000000 0.000000 0.027623 0.000000 0.000000
# 5 0.000000 0.000000 0.000000 0.000000 0.031932 0.000000
# 6 0.000000 0.000000 0.000000 0.000000 0.000000 0.053825
#
#
# Mechanical properties :
#
#
# Convention : Reuss Voigt Hill
#
# Bulk Modulus (GPa) = 47.73202 60.30022 54.01612
# Shear Modulus (GPa) = 24.38365 29.24830 26.81597
#
# Velocity S-wave (km/s) = 3.54331 3.88070 3.71584
# Velocity P-wave (km/s) = 6.42784 7.15039 6.79872
#
# Compressibility (1/GPa) = 0.02095030
#
# Stress axis : x y z
#
# Youngs Moduli (GPa) = 33.02704 75.06259 108.45167
#
# Poissons Ratio (x) = 0.53987 0.79597
# Poissons Ratio (y) = 0.23754 0.15223
# Poissons Ratio (z) = 0.24240 0.10536
#
# Static dielectric constant tensor:
#      x y z
#    x 3.379860 0.000000 0.000000 
#    y 0.000000 3.606190 0.000000 
#    z 0.000000 0.000000 3.752820 
# 
# 
# High freq. dielectric constant tensor:
#      x y z
#    x 1.748420 0.000000 0.000000 
#    y 0.000000 1.767530 0.000000 
#    z 0.000000 0.000000 1.778130 
# 
# From -- ./inp_files/7044.got.cif
#   From: 2010.03.12/outbox.cif.g09.slc.cpg/sg64_4_cif.got.tgz:7044.got - 2010.04.10 20:19:32.
