data_PCOD8263371
_publ_section_title
;
Structure prediction by ZEFSAII (Michael W. Deem and Ramdas Pophale) SiO2 
 PCOD8263371
Probable space group: C M C A
;
_chemical_formula_sum "Si O2"
_cell_formula_units_Z 112
_cell_length_a 26.209505
_cell_length_b 16.497602
_cell_length_c 11.568487
_cell_angle_alpha 90.000000
_cell_angle_beta 90.000000
_cell_angle_gamma 90.000000
_cell_volume 5002.144161
_symmetry_space_group_name_H-M "C M C A"
_symmetry_group_IT_number 64
_symmetry_cell_setting 'orthorhombic'
loop_
_space_group_symop_operation_xyz
x,y,z
-x,1/2-y,1/2+z
x,-y,-z
-x,1/2+y,1/2-z
-x,-y,-z
x,1/2+y,1/2-z
-x,y,z
x,1/2-y,1/2+z
1/2+x,1/2+y,z
1/2-x,-y,1/2+z
1/2+x,1/2-y,-z
1/2-x,y,1/2-z
1/2-x,1/2-y,-z
1/2+x,y,1/2-z
1/2-x,1/2+y,z
1/2+x,-y,1/2+z
loop_
_atom_site_type_symbol
_atom_site_label
_atom_site_fract_x
_atom_site_fract_y
_atom_site_fract_z
Si Si1 0.305064 0.664070 0.065165
Si Si2 0.202415 0.926759 0.575550
Si Si3 0.057053 0.557798 0.102961
Si Si4 0.057911 0.756934 0.530637
Si Si5 0.146586 0.680759 0.899926
Si Si6 0.862609 0.038618 0.208554
Si Si7 0.632819 0.365289 0.144081
O O1 0.249309 0.633113 0.096127
O O2 0.306448 0.756401 0.109969
O O3 0.350820 0.613763 0.125082
O O4 0.318510 0.667026 0.928174
O O5 0.156314 0.881348 0.507157
O O6 0.183144 0.962181 0.696836
O O7 0.224522 0.000000 0.500000
O O8 0.057408 0.653833 0.084242
O O9 0.084628 0.545194 0.224063
O O10 0.000000 0.525435 0.121139
O O11 0.080821 0.500000 0.000000
O O12 0.094750 0.766823 0.419646
O O13 0.082198 0.687384 0.613868
O O14 0.000000 0.730632 0.497434
O O15 0.142951 0.634684 0.780658
O O16 0.869198 0.961693 0.123500
#
# Coordination Sequence:
#
# PCOD8263371 Si02
#       7
#    16  16  16  16  16  16  16
#     4  11  27  42  64  95 138 179 227 286 356 423
#     4  12  23  43  68  98 131 178 237 290 346 412
#     4  10  20  37  67 101 131 172 231 291 346 409
#     4  10  22  41  65  98 137 174 224 288 352 413
#     4  11  23  43  68  96 131 180 229 293 349 421
#     4  12  22  42  67  95 137 180 225 287 348 418
#     4  11  24  43  66  96 138 182 230 288 354 425
#
# _framework density 22.390398999999999
#
# number of rings (size 3 to 8) (size 9 to 14) (size 15 to 20)
#    0.000    1.000    2.857    4.286    2.000    1.714 
#    2.571    4.286    0.000    4.286    0.000    0.000 
#    0.000    0.000    0.000    0.000    0.000    0.000 
#
# Total GULP energy -694048.061189 kJ/mol
# GULP energy per Si atom -12393.715378 kJ/mol
# Density = 2.233944 g / cm^3
# Si number density = 22.390399 Si / 1000 Ang^3
#
#
#
# Elastic Constant Matrix: (Units=GPa)
#
#
# Indices 1 2 3 4 5 6 
#
# 1 113.5963 16.2409 16.6824 0.0000 0.0000 0.0000
# 2 16.2409 96.0004 6.9154 0.0000 0.0000 0.0000
# 3 16.6824 6.9154 69.5603 0.0000 0.0000 0.0000
# 4 0.0000 0.0000 0.0000 34.0798 0.0000 0.0000
# 5 0.0000 0.0000 0.0000 0.0000 21.3805 0.0000
# 6 0.0000 0.0000 0.0000 0.0000 0.0000 34.3196
#
#
#
# Elastic Compliance Matrix: (Units=1/GPa)
#
#
# Indices 1 2 3 4 5 6 
#
# 1 0.009314 -0.001425 -0.002092 0.000000 0.000000 0.000000
# 2 -0.001425 0.010710 -0.000723 0.000000 0.000000 0.000000
# 3 -0.002092 -0.000723 0.014950 0.000000 0.000000 0.000000
# 4 0.000000 0.000000 0.000000 0.029343 0.000000 0.000000
# 5 0.000000 0.000000 0.000000 0.000000 0.046772 0.000000
# 6 0.000000 0.000000 0.000000 0.000000 0.000000 0.029138
#
#
# Mechanical properties :
#
#
# Convention : Reuss Voigt Hill
#
# Bulk Modulus (GPa) = 37.74530 39.87047 38.80789
# Shear Modulus (GPa) = 31.73856 33.91055 32.82456
#
# Velocity S-wave (km/s) = 3.76906 3.89590 3.83301
# Velocity P-wave (km/s) = 5.98628 6.17114 6.07941
#
# Compressibility (1/GPa) = 0.02649336
#
# Stress axis : x y z
#
# Youngs Moduli (GPa) = 107.36439 93.37262 66.89126
#
# Poissons Ratio (x) = 0.13306 0.13994
# Poissons Ratio (y) = 0.15300 0.04836
# Poissons Ratio (z) = 0.22462 0.06750
#
# Static dielectric constant tensor:
#      x y z
#    x 4.072840 0.000000 0.000000 
#    y 0.000000 4.231490 0.000000 
#    z 0.000000 0.000000 3.885490 
# 
# 
# High freq. dielectric constant tensor:
#      x y z
#    x 1.876390 0.000000 0.000000 
#    y 0.000000 1.899910 0.000000 
#    z 0.000000 0.000000 1.869690 
# 
# From -- ./inp_files/19847.got.cif
#   From: 2010.03.12/outbox.cif.g09.slc.cpg/sg64_10_cif.got.tgz:19847.got - 2010.04.10 20:19:32.
