data_PCOD8263204
_publ_section_title
;
Structure prediction by ZEFSAII (Michael W. Deem and Ramdas Pophale) SiO2 
 PCOD8263204
Probable space group: C M C A
;
_chemical_formula_sum "Si O2"
_cell_formula_units_Z 80
_cell_length_a 8.812374
_cell_length_b 17.989867
_cell_length_c 25.693224
_cell_angle_alpha 90.000000
_cell_angle_beta 90.000000
_cell_angle_gamma 90.000000
_cell_volume 4073.235088
_symmetry_space_group_name_H-M "C M C A"
_symmetry_group_IT_number 64
_symmetry_cell_setting 'orthorhombic'
loop_
_space_group_symop_operation_xyz
x,y,z
-x,1/2-y,1/2+z
x,-y,-z
-x,1/2+y,1/2-z
-x,-y,-z
x,1/2+y,1/2-z
-x,y,z
x,1/2-y,1/2+z
1/2+x,1/2+y,z
1/2-x,-y,1/2+z
1/2+x,1/2-y,-z
1/2-x,y,1/2-z
1/2-x,1/2-y,-z
1/2+x,y,1/2-z
1/2-x,1/2+y,z
1/2+x,-y,1/2+z
loop_
_atom_site_type_symbol
_atom_site_label
_atom_site_fract_x
_atom_site_fract_y
_atom_site_fract_z
Si Si1 0.678793 0.169335 0.501734
Si Si2 0.820559 0.660100 0.695741
Si Si3 0.675569 0.413660 0.402225
Si Si4 0.824847 0.411589 0.906574
Si Si5 0.322690 0.169637 0.196645
O O1 0.500000 0.177249 0.505819
O O2 0.750000 0.250000 0.500000
O O3 0.737283 0.126779 0.551966
O O4 0.721582 0.124286 0.450465
O O5 0.750000 0.633302 0.750000
O O6 0.747499 0.608904 0.652206
O O7 0.774926 0.745554 0.684808
O O8 0.000000 0.648806 0.696720
O O9 0.500000 0.390501 0.403745
O O10 0.696684 0.500939 0.409224
O O11 0.766840 0.381307 0.850967
O O12 0.000000 0.388675 0.915928
O O13 0.500000 0.162682 0.204482
O O14 0.250000 0.140097 0.250000
#
# Coordination Sequence:
#
# PCOD8263204 Si02
#       5
#    16  16  16  16  16
#     4  12  25  41  63  88 115 151 196 243 292 351
#     4  10  20  36  59  85 116 155 201 249 295 347
#     4  11  23  39  60  87 121 157 193 240 297 352
#     4  10  22  40  60  86 121 156 191 238 295 350
#     4   9  19  36  58  83 112 149 192 238 287 339
#
# _framework density 19.640408999999998
#
# number of rings (size 3 to 8) (size 9 to 14) (size 15 to 20)
#    0.000    1.600    0.000    4.800    0.000    8.000 
#    0.000    2.000    0.000    0.000    0.000    0.000 
#    0.000    0.000    0.000    0.000    0.000    0.000 
#
# Total GULP energy -496215.463590 kJ/mol
# GULP energy per Si atom -12405.386590 kJ/mol
# Density = 1.959571 g / cm^3
# Si number density = 19.640409 Si / 1000 Ang^3
#
#
#
# Elastic Constant Matrix: (Units=GPa)
#
#
# Indices 1 2 3 4 5 6 
#
# 1 130.0696 62.5674 77.2708 0.0000 0.0000 0.0000
# 2 62.5674 91.7493 66.4444 0.0000 0.0000 0.0000
# 3 77.2708 66.4444 164.1825 0.0000 0.0000 0.0000
# 4 0.0000 0.0000 0.0000 88.5313 0.0000 0.0000
# 5 0.0000 0.0000 0.0000 0.0000 39.3760 0.0000
# 6 0.0000 0.0000 0.0000 0.0000 0.0000 27.4608
#
#
#
# Elastic Compliance Matrix: (Units=1/GPa)
#
#
# Indices 1 2 3 4 5 6 
#
# 1 0.012722 -0.006139 -0.003503 0.000000 0.000000 0.000000
# 2 -0.006139 0.018380 -0.004549 0.000000 0.000000 0.000000
# 3 -0.003503 -0.004549 0.009581 0.000000 0.000000 0.000000
# 4 0.000000 0.000000 0.000000 0.011295 0.000000 0.000000
# 5 0.000000 0.000000 0.000000 0.000000 0.025396 0.000000
# 6 0.000000 0.000000 0.000000 0.000000 0.000000 0.036416
#
#
# Mechanical properties :
#
#
# Convention : Reuss Voigt Hill
#
# Bulk Modulus (GPa) = 81.29788 88.72962 85.01375
# Shear Modulus (GPa) = 34.18265 43.05487 38.61876
#
# Velocity S-wave (km/s) = 4.17637 4.68713 4.43910
# Velocity P-wave (km/s) = 8.04606 8.63524 8.34585
#
# Compressibility (1/GPa) = 0.01230044
#
# Stress axis : x y z
#
# Youngs Moduli (GPa) = 78.60184 54.40674 104.37730
#
# Poissons Ratio (x) = 0.33399 0.36566
# Poissons Ratio (y) = 0.48252 0.47484
# Poissons Ratio (z) = 0.27536 0.24751
#
# Static dielectric constant tensor:
#      x y z
#    x 3.674420 0.000000 0.000000 
#    y 0.000000 3.604630 0.000000 
#    z 0.000000 0.000000 3.775800 
# 
# 
# High freq. dielectric constant tensor:
#      x y z
#    x 1.770970 0.000000 0.000000 
#    y 0.000000 1.769090 0.000000 
#    z 0.000000 0.000000 1.784140 
# 
# From -- ./inp_files/47899.got.cif
#   From: 2010.03.12/outbox.cif.g09.slc.cpg/sg64_24_cif.got.tgz:47899.got - 2010.04.10 20:19:32.
