data_PCOD8263430
_publ_section_title
;
Structure prediction by ZEFSAII (Michael W. Deem and Ramdas Pophale) SiO2 
 PCOD8263430
Probable space group: C M C A
;
_chemical_formula_sum "Si O2"
_cell_formula_units_Z 104
_cell_length_a 30.270402
_cell_length_b 18.415310
_cell_length_c 9.090567
_cell_angle_alpha 90.000000
_cell_angle_beta 90.000000
_cell_angle_gamma 90.000000
_cell_volume 5067.435093
_symmetry_space_group_name_H-M "C M C A"
_symmetry_group_IT_number 64
_symmetry_cell_setting 'orthorhombic'
loop_
_space_group_symop_operation_xyz
x,y,z
-x,1/2-y,1/2+z
x,-y,-z
-x,1/2+y,1/2-z
-x,-y,-z
x,1/2+y,1/2-z
-x,y,z
x,1/2-y,1/2+z
1/2+x,1/2+y,z
1/2-x,-y,1/2+z
1/2+x,1/2-y,-z
1/2-x,y,1/2-z
1/2-x,1/2-y,-z
1/2+x,y,1/2-z
1/2-x,1/2+y,z
1/2+x,-y,1/2+z
loop_
_atom_site_type_symbol
_atom_site_label
_atom_site_fract_x
_atom_site_fract_y
_atom_site_fract_z
Si Si1 0.589173 0.765374 0.995332
Si Si2 0.835654 0.919192 0.019974
Si Si3 0.500000 0.163446 0.995529
Si Si4 0.069962 0.386582 0.564714
Si Si5 0.854965 0.811233 0.256905
Si Si6 0.720194 0.289888 0.879868
Si Si7 0.500000 0.950087 0.777932
Si Si8 0.000000 0.607832 0.688535
O O1 0.543085 0.797330 0.936857
O O2 0.621077 0.738523 0.865772
O O3 0.578354 0.697366 0.102079
O O4 0.613653 0.823858 0.100909
O O5 0.842273 0.890143 0.188267
O O6 0.883465 0.927256 0.944618
O O7 0.805619 0.858825 0.942777
O O8 0.814127 0.000000 0.000000
O O9 0.500000 0.081544 0.057892
O O10 0.500000 0.168568 0.817206
O O11 0.043965 0.388365 0.408991
O O12 0.043406 0.424421 0.692683
O O13 0.811693 0.770266 0.310961
O O14 0.750000 0.321905 0.750000
O O15 0.750000 0.250000 0.000000
O O16 0.500000 0.035594 0.785177
#
# Coordination Sequence:
#
# PCOD8263430 Si02
#       8
#    16  16   8  16  16  16   8   8
#     4  11  22  36  61  93 121 165 212 271 308 370
#     4  11  23  41  68 101 130 165 211 267 317 384
#     4  12  23  32  52  88 129 156 216 265 313 346
#     4  10  20  38  63  83 118 167 221 253 305 373
#     4  11  21  42  67  92 127 166 215 257 322 391
#     4  12  23  44  72  95 123 165 209 258 329 403
#     4  11  22  35  54  81 122 175 214 255 313 370
#     4  11  22  37  52  83 126 175 209 258 313 372
#
# _framework density 20.523202000000001
#
# number of rings (size 3 to 8) (size 9 to 14) (size 15 to 20)
#    0.000    0.923    4.615    5.769    0.000    1.846 
#    2.769    0.000    0.000    0.000    0.000    0.000 
#    0.000    0.000    0.000    0.000    0.000    0.000 
#
# Total GULP energy -644548.999057 kJ/mol
# GULP energy per Si atom -12395.173059 kJ/mol
# Density = 2.047649 g / cm^3
# Si number density = 20.523202 Si / 1000 Ang^3
#
#
#
# Elastic Constant Matrix: (Units=GPa)
#
#
# Indices 1 2 3 4 5 6 
#
# 1 124.2960 37.6575 41.3399 0.0000 0.0000 0.0000
# 2 37.6575 107.7262 27.1564 0.0000 0.0000 0.0000
# 3 41.3399 27.1564 94.1549 0.0000 0.0000 0.0000
# 4 0.0000 0.0000 0.0000 30.5915 0.0000 0.0000
# 5 0.0000 0.0000 0.0000 0.0000 7.3034 0.0000
# 6 0.0000 0.0000 0.0000 0.0000 0.0000 11.2884
#
#
#
# Elastic Compliance Matrix: (Units=1/GPa)
#
#
# Indices 1 2 3 4 5 6 
#
# 1 0.010049 -0.002589 -0.003665 0.000000 0.000000 0.000000
# 2 -0.002589 0.010678 -0.001943 0.000000 0.000000 0.000000
# 3 -0.003665 -0.001943 0.012791 0.000000 0.000000 0.000000
# 4 0.000000 0.000000 0.000000 0.032689 0.000000 0.000000
# 5 0.000000 0.000000 0.000000 0.000000 0.136923 0.000000
# 6 0.000000 0.000000 0.000000 0.000000 0.000000 0.088587
#
#
# Mechanical properties :
#
#
# Convention : Reuss Voigt Hill
#
# Bulk Modulus (GPa) = 58.40251 59.83163 59.11707
# Shear Modulus (GPa) = 15.93287 24.50487 20.21887
#
# Velocity S-wave (km/s) = 2.78930 3.45919 3.14215
# Velocity P-wave (km/s) = 6.23636 6.72095 6.48318
#
# Compressibility (1/GPa) = 0.01712255
#
# Stress axis : x y z
#
# Youngs Moduli (GPa) = 99.51567 93.65465 78.18279
#
# Poissons Ratio (x) = 0.24244 0.28657
# Poissons Ratio (y) = 0.25762 0.15191
# Poissons Ratio (z) = 0.36476 0.18197
#
# Static dielectric constant tensor:
#      x y z
#    x 4.032930 0.000000 0.000000 
#    y 0.000000 3.723550 0.000000 
#    z 0.000000 0.000000 3.735070 
# 
# 
# High freq. dielectric constant tensor:
#      x y z
#    x 1.810870 0.000000 0.000000 
#    y 0.000000 1.785400 0.000000 
#    z 0.000000 0.000000 1.803660 
# 
# From -- ./inp_files/11236.got.cif
#   From: 2010.03.12/outbox.cif.g09.slc.cpg/sg64_6_cif.got.tgz:11236.got - 2010.04.10 20:19:32.
