data_PCOD8263130
_publ_section_title
;
Structure prediction by ZEFSAII (Michael W. Deem and Ramdas Pophale) SiO2 
 PCOD8263130
Probable space group: C M C A
;
_chemical_formula_sum "Si O2"
_cell_formula_units_Z 96
_cell_length_a 20.622957
_cell_length_b 17.358206
_cell_length_c 14.019337
_cell_angle_alpha 90.000000
_cell_angle_beta 90.000000
_cell_angle_gamma 90.000000
_cell_volume 5018.607715
_symmetry_space_group_name_H-M "C M C A"
_symmetry_group_IT_number 64
_symmetry_cell_setting 'orthorhombic'
loop_
_space_group_symop_operation_xyz
x,y,z
-x,1/2-y,1/2+z
x,-y,-z
-x,1/2+y,1/2-z
-x,-y,-z
x,1/2+y,1/2-z
-x,y,z
x,1/2-y,1/2+z
1/2+x,1/2+y,z
1/2-x,-y,1/2+z
1/2+x,1/2-y,-z
1/2-x,y,1/2-z
1/2-x,1/2-y,-z
1/2+x,y,1/2-z
1/2-x,1/2+y,z
1/2+x,-y,1/2+z
loop_
_atom_site_type_symbol
_atom_site_label
_atom_site_fract_x
_atom_site_fract_y
_atom_site_fract_z
Si Si1 0.571791 0.327630 0.192669
Si Si2 0.814950 0.095846 0.294073
Si Si3 0.857800 0.087545 0.502303
Si Si4 0.816320 0.919579 0.288122
Si Si5 0.923848 0.752441 0.504185
Si Si6 0.928023 0.318974 0.686108
O O1 0.500000 0.364129 0.171265
O O2 0.620794 0.390553 0.232291
O O3 0.562335 0.265476 0.273695
O O4 0.603601 0.285930 0.100496
O O5 0.750000 0.135503 0.250000
O O6 0.812976 0.101081 0.409215
O O7 0.879848 0.132749 0.251516
O O8 0.816181 0.008470 0.260515
O O9 0.816250 0.095417 0.598549
O O10 0.909628 0.156320 0.503649
O O11 0.888706 0.000000 0.500000
O O12 0.750000 0.880262 0.250000
O O13 0.897714 0.697915 0.418553
O O14 0.000000 0.746645 0.505814
O O15 0.000000 0.358908 0.682943
#
# Coordination Sequence:
#
# PCOD8263130 Si02
#       6
#    16  16  16  16  16  16
#     4  10  20  36  57  82 116 150 183 230 282 335
#     4  10  22  39  58  83 115 150 189 234 283 334
#     4  10  20  36  57  82 111 147 191 238 285 332
#     4  10  22  39  58  83 115 150 189 234 283 334
#     4  10  20  36  56  85 117 147 189 236 280 334
#     4  10  20  36  57  82 116 150 183 230 282 335
#
# _framework density 19.128810999999999
#
# number of rings (size 3 to 8) (size 9 to 14) (size 15 to 20)
#    0.000    2.000    3.333    0.000    0.000    3.000 
#    0.000    7.500    0.000    3.000    0.000    0.000 
#    0.000    0.000    0.000    0.000    0.000    0.000 
#
# Total GULP energy -594710.911104 kJ/mol
# GULP energy per Si atom -12389.810648 kJ/mol
# Density = 1.908527 g / cm^3
# Si number density = 19.128811 Si / 1000 Ang^3
#
#
#
# Elastic Constant Matrix: (Units=GPa)
#
#
# Indices 1 2 3 4 5 6 
#
# 1 102.4261 43.2379 45.8186 0.0000 0.0000 0.0000
# 2 43.2379 60.5165 39.7729 0.0000 0.0000 0.0000
# 3 45.8186 39.7729 128.5040 0.0000 0.0000 0.0000
# 4 0.0000 0.0000 0.0000 30.6053 0.0000 0.0000
# 5 0.0000 0.0000 0.0000 0.0000 25.6801 0.0000
# 6 0.0000 0.0000 0.0000 0.0000 0.0000 16.2648
#
#
#
# Elastic Compliance Matrix: (Units=1/GPa)
#
#
# Indices 1 2 3 4 5 6 
#
# 1 0.014583 -0.008790 -0.002479 0.000000 0.000000 0.000000
# 2 -0.008790 0.026042 -0.004926 0.000000 0.000000 0.000000
# 3 -0.002479 -0.004926 0.010190 0.000000 0.000000 0.000000
# 4 0.000000 0.000000 0.000000 0.032674 0.000000 0.000000
# 5 0.000000 0.000000 0.000000 0.000000 0.038941 0.000000
# 6 0.000000 0.000000 0.000000 0.000000 0.000000 0.061482
#
#
# Mechanical properties :
#
#
# Convention : Reuss Voigt Hill
#
# Bulk Modulus (GPa) = 54.27318 61.01171 57.64245
# Shear Modulus (GPa) = 22.47759 25.35120 23.91440
#
# Velocity S-wave (km/s) = 3.43164 3.64440 3.53962
# Velocity P-wave (km/s) = 6.64346 7.04793 6.84868
#
# Compressibility (1/GPa) = 0.01842531
#
# Stress axis : x y z
#
# Youngs Moduli (GPa) = 68.57522 38.39928 98.13110
#
# Poissons Ratio (x) = 0.33752 0.24326
# Poissons Ratio (y) = 0.60276 0.48342
# Poissons Ratio (z) = 0.17000 0.18916
#
# Static dielectric constant tensor:
#      x y z
#    x 3.781610 0.000000 0.000000 
#    y 0.000000 3.360860 0.000000 
#    z 0.000000 0.000000 4.090140 
# 
# 
# High freq. dielectric constant tensor:
#      x y z
#    x 1.726510 0.000000 0.000000 
#    y 0.000000 1.726720 0.000000 
#    z 0.000000 0.000000 1.765590 
# 
# From -- ./inp_files/23911.got.cif
#   From: 2010.03.12/outbox.cif.g09.slc.cpg/sg64_12_cif.got.tgz:23911.got - 2010.04.10 20:19:32.
