data_PCOD8263967
_publ_section_title
;
Structure prediction by ZEFSAII (Michael W. Deem and Ramdas Pophale) SiO2 
 PCOD8263967
Probable space group: C M C A
;
_chemical_formula_sum "Si O2"
_cell_formula_units_Z 112
_cell_length_a 15.163748
_cell_length_b 14.192185
_cell_length_c 24.684544
_cell_angle_alpha 90.000000
_cell_angle_beta 90.000000
_cell_angle_gamma 90.000000
_cell_volume 5312.279673
_symmetry_space_group_name_H-M "C M C A"
_symmetry_group_IT_number 64
_symmetry_cell_setting 'orthorhombic'
loop_
_space_group_symop_operation_xyz
x,y,z
-x,1/2-y,1/2+z
x,-y,-z
-x,1/2+y,1/2-z
-x,-y,-z
x,1/2+y,1/2-z
-x,y,z
x,1/2-y,1/2+z
1/2+x,1/2+y,z
1/2-x,-y,1/2+z
1/2+x,1/2-y,-z
1/2-x,y,1/2-z
1/2-x,1/2-y,-z
1/2+x,y,1/2-z
1/2-x,1/2+y,z
1/2+x,-y,1/2+z
loop_
_atom_site_type_symbol
_atom_site_label
_atom_site_fract_x
_atom_site_fract_y
_atom_site_fract_z
Si Si1 0.197692 0.136946 0.695690
Si Si2 0.100265 0.564300 0.410038
Si Si3 0.101768 0.667464 0.092237
Si Si4 0.895803 0.557992 0.197773
Si Si5 0.247530 0.607689 0.012530
Si Si6 0.175431 0.363115 0.402991
Si Si7 0.602176 0.669514 0.199113
O O1 0.250000 0.154815 0.750000
O O2 0.261752 0.112273 0.646611
O O3 0.145455 0.231995 0.682795
O O4 0.132667 0.049540 0.703780
O O5 0.166778 0.619709 0.449288
O O6 0.113940 0.452446 0.415286
O O7 0.118885 0.595521 0.348797
O O8 0.000000 0.588292 0.427507
O O9 0.136699 0.600804 0.140721
O O10 0.159742 0.649245 0.039252
O O11 0.113193 0.775203 0.111555
O O12 0.000000 0.647236 0.078339
O O13 0.856752 0.621894 0.246714
O O14 0.000000 0.561184 0.201247
O O15 0.227043 0.500000 0.000000
O O16 0.265906 0.661923 0.956177
O O17 0.500000 0.690534 0.208211
#
# Coordination Sequence:
#
# PCOD8263967 Si02
#       7
#    16  16  16  16  16  16  16
#     4  12  24  38  62  88 116 157 197 241 300 362
#     4  10  21  39  64  90 120 158 197 244 301 356
#     4  11  23  40  62  87 121 163 202 244 298 356
#     4  10  22  40  60  85 118 154 197 250 300 352
#     4  10  22  40  60  86 122 157 200 253 296 347
#     4  11  23  38  59  90 124 154 195 248 296 351
#     4  10  22  40  61  87 119 154 198 249 297 353
#
# _framework density 21.083227000000001
#
# number of rings (size 3 to 8) (size 9 to 14) (size 15 to 20)
#    0.000    1.429    0.000    5.571    0.000    6.286 
#    0.000    8.571    0.000    0.000    0.000    0.000 
#    0.000    0.000    0.000    0.000    0.000    0.000 
#
# Total GULP energy -694678.667077 kJ/mol
# GULP energy per Si atom -12404.976198 kJ/mol
# Density = 2.103524 g / cm^3
# Si number density = 21.083227 Si / 1000 Ang^3
#
#
#
# Elastic Constant Matrix: (Units=GPa)
#
#
# Indices 1 2 3 4 5 6 
#
# 1 75.1119 27.3045 45.6999 0.0000 0.0000 0.0000
# 2 27.3045 86.3109 7.3676 0.0000 0.0000 0.0000
# 3 45.6999 7.3676 110.2534 0.0000 0.0000 0.0000
# 4 0.0000 0.0000 0.0000 32.8481 0.0000 0.0000
# 5 0.0000 0.0000 0.0000 0.0000 30.0650 0.0000
# 6 0.0000 0.0000 0.0000 0.0000 0.0000 27.7701
#
#
#
# Elastic Compliance Matrix: (Units=1/GPa)
#
#
# Indices 1 2 3 4 5 6 
#
# 1 0.020277 -0.005730 -0.008022 0.000000 0.000000 0.000000
# 2 -0.005730 0.013272 0.001488 0.000000 0.000000 0.000000
# 3 -0.008022 0.001488 0.012296 0.000000 0.000000 0.000000
# 4 0.000000 0.000000 0.000000 0.030443 0.000000 0.000000
# 5 0.000000 0.000000 0.000000 0.000000 0.033261 0.000000
# 6 0.000000 0.000000 0.000000 0.000000 0.000000 0.036010
#
#
# Mechanical properties :
#
#
# Convention : Reuss Voigt Hill
#
# Bulk Modulus (GPa) = 46.91079 48.04670 47.47875
# Shear Modulus (GPa) = 28.21799 30.89026 29.55413
#
# Velocity S-wave (km/s) = 3.66240 3.83189 3.74810
# Velocity P-wave (km/s) = 6.33899 6.51279 6.42648
#
# Compressibility (1/GPa) = 0.02131706
#
# Stress axis : x y z
#
# Youngs Moduli (GPa) = 49.31659 75.34856 81.32950
#
# Poissons Ratio (x) = 0.43174 0.65242
# Poissons Ratio (y) = 0.28258 -0.12103
# Poissons Ratio (z) = 0.39562 -0.11213
#
# Static dielectric constant tensor:
#      x y z
#    x 3.689320 0.000000 0.000000 
#    y 0.000000 3.833790 0.000000 
#    z 0.000000 0.000000 4.020700 
# 
# 
# High freq. dielectric constant tensor:
#      x y z
#    x 1.823860 0.000000 0.000000 
#    y 0.000000 1.835580 0.000000 
#    z 0.000000 0.000000 1.836070 
# 
# From -- ./inp_files/45217.got.cif
#   From: 2010.03.12/outbox.cif.g09.slc.cpg/sg64_23_cif.got.tgz:45217.got - 2010.04.10 20:19:32.
