data_PCOD8263432
_publ_section_title
;
Structure prediction by ZEFSAII (Michael W. Deem and Ramdas Pophale) SiO2 
 PCOD8263432
Probable space group: C M C A
;
_chemical_formula_sum "Si O2"
_cell_formula_units_Z 112
_cell_length_a 31.156211
_cell_length_b 15.776640
_cell_length_c 10.852039
_cell_angle_alpha 90.000000
_cell_angle_beta 90.000000
_cell_angle_gamma 90.000000
_cell_volume 5334.214774
_symmetry_space_group_name_H-M "C M C A"
_symmetry_group_IT_number 64
_symmetry_cell_setting 'orthorhombic'
loop_
_space_group_symop_operation_xyz
x,y,z
-x,1/2-y,1/2+z
x,-y,-z
-x,1/2+y,1/2-z
-x,-y,-z
x,1/2+y,1/2-z
-x,y,z
x,1/2-y,1/2+z
1/2+x,1/2+y,z
1/2-x,-y,1/2+z
1/2+x,1/2-y,-z
1/2-x,y,1/2-z
1/2-x,1/2-y,-z
1/2+x,y,1/2-z
1/2-x,1/2+y,z
1/2+x,-y,1/2+z
loop_
_atom_site_type_symbol
_atom_site_label
_atom_site_fract_x
_atom_site_fract_y
_atom_site_fract_z
Si Si1 0.580542 0.274999 0.974724
Si Si2 0.158310 0.899546 0.016052
Si Si3 0.875834 0.554295 0.177655
Si Si4 0.295711 0.133983 0.290896
Si Si5 0.298157 0.325098 0.246194
Si Si6 0.864174 0.882113 0.417543
Si Si7 0.548242 0.182017 0.214763
O O1 0.602648 0.192816 0.920513
O O2 0.548210 0.291105 0.859605
O O3 0.613207 0.353558 0.985927
O O4 0.560248 0.254147 0.110626
O O5 0.171797 0.876090 0.153436
O O6 0.199143 0.860992 0.938675
O O7 0.151458 0.000000 0.000000
O O8 0.837628 0.575007 0.271513
O O9 0.884214 0.453589 0.174155
O O10 0.920151 0.602074 0.203336
O O11 0.854751 0.581280 0.050293
O O12 0.250000 0.092613 0.250000
O O13 0.299902 0.224019 0.221585
O O14 0.250000 0.359439 0.250000
O O15 0.318114 0.346013 0.378158
O O16 0.500000 0.152372 0.183986
#
# Coordination Sequence:
#
# PCOD8263432 Si02
#       7
#    16  16  16  16  16  16  16
#     4  11  22  44  68  94 130 173 216 268 332 404
#     4  12  25  41  65  95 130 177 221 275 331 392
#     4  10  21  38  62  91 122 166 205 268 322 387
#     4  11  24  40  63  92 132 170 219 268 323 389
#     4  11  24  38  60  90 129 172 222 269 323 387
#     4  10  20  38  63  86 122 166 210 257 328 385
#     4  11  23  42  69  98 131 167 217 271 333 400
#
# _framework density 20.996531000000001
#
# number of rings (size 3 to 8) (size 9 to 14) (size 15 to 20)
#    0.000    1.143    2.857    3.857    2.000    3.429 
#    0.000    6.429    0.000    0.857    0.000    0.000 
#    0.000    0.000    0.000    0.000    0.000    0.000 
#
# Total GULP energy -693787.546518 kJ/mol
# GULP energy per Si atom -12389.063331 kJ/mol
# Density = 2.094874 g / cm^3
# Si number density = 20.996531 Si / 1000 Ang^3
#
#
#
# Elastic Constant Matrix: (Units=GPa)
#
#
# Indices 1 2 3 4 5 6 
#
# 1 140.6550 35.9344 37.1787 0.0000 0.0000 0.0000
# 2 35.9344 115.9160 17.6015 0.0000 0.0000 0.0000
# 3 37.1787 17.6015 87.0940 0.0000 0.0000 0.0000
# 4 0.0000 0.0000 0.0000 79.8989 0.0000 0.0000
# 5 0.0000 0.0000 0.0000 0.0000 27.6668 0.0000
# 6 0.0000 0.0000 0.0000 0.0000 0.0000 7.3040
#
#
#
# Elastic Compliance Matrix: (Units=1/GPa)
#
#
# Indices 1 2 3 4 5 6 
#
# 1 0.008504 -0.002151 -0.003195 0.000000 0.000000 0.000000
# 2 -0.002151 0.009444 -0.000990 0.000000 0.000000 0.000000
# 3 -0.003195 -0.000990 0.013046 0.000000 0.000000 0.000000
# 4 0.000000 0.000000 0.000000 0.012516 0.000000 0.000000
# 5 0.000000 0.000000 0.000000 0.000000 0.036144 0.000000
# 6 0.000000 0.000000 0.000000 0.000000 0.000000 0.136910
#
#
# Mechanical properties :
#
#
# Convention : Reuss Voigt Hill
#
# Bulk Modulus (GPa) = 54.58405 58.34381 56.46393
# Shear Modulus (GPa) = 21.24541 39.83732 30.54136
#
# Velocity S-wave (km/s) = 3.18442 4.36056 3.81805
# Velocity P-wave (km/s) = 6.29077 7.29385 6.81080
#
# Compressibility (1/GPa) = 0.01832037
#
# Stress axis : x y z
#
# Youngs Moduli (GPa) = 117.59525 105.88571 76.65161
#
# Poissons Ratio (x) = 0.22776 0.24493
# Poissons Ratio (y) = 0.25295 0.07592
# Poissons Ratio (z) = 0.37576 0.10487
#
# Static dielectric constant tensor:
#      x y z
#    x 3.621440 0.000000 0.000000 
#    y 0.000000 4.002040 0.000000 
#    z 0.000000 0.000000 4.285600 
# 
# 
# High freq. dielectric constant tensor:
#      x y z
#    x 1.801630 0.000000 0.000000 
#    y 0.000000 1.820870 0.000000 
#    z 0.000000 0.000000 1.844140 
# 
# From -- ./inp_files/19873.got.cif
#   From: 2010.03.12/outbox.cif.g09.slc.cpg/sg64_10_cif.got.tgz:19873.got - 2010.04.10 20:19:32.
