data_PCOD8263562
_publ_section_title
;
Structure prediction by ZEFSAII (Michael W. Deem and Ramdas Pophale) SiO2 
 PCOD8263562
Probable space group: C M C A
;
_chemical_formula_sum "Si O2"
_cell_formula_units_Z 64
_cell_length_a 19.223727
_cell_length_b 7.329733
_cell_length_c 16.633277
_cell_angle_alpha 90.000000
_cell_angle_beta 90.000000
_cell_angle_gamma 90.000000
_cell_volume 2343.708339
_symmetry_space_group_name_H-M "C M C A"
_symmetry_group_IT_number 64
_symmetry_cell_setting 'orthorhombic'
loop_
_space_group_symop_operation_xyz
x,y,z
-x,1/2-y,1/2+z
x,-y,-z
-x,1/2+y,1/2-z
-x,-y,-z
x,1/2+y,1/2-z
-x,y,z
x,1/2-y,1/2+z
1/2+x,1/2+y,z
1/2-x,-y,1/2+z
1/2+x,1/2-y,-z
1/2-x,y,1/2-z
1/2-x,1/2-y,-z
1/2+x,y,1/2-z
1/2-x,1/2+y,z
1/2+x,-y,1/2+z
loop_
_atom_site_type_symbol
_atom_site_label
_atom_site_fract_x
_atom_site_fract_y
_atom_site_fract_z
Si Si1 0.355658 0.892483 0.411596
Si Si2 0.363403 0.336722 0.437043
Si Si3 0.236053 0.574072 0.156816
Si Si4 0.000000 0.897787 0.346411
Si Si5 0.000000 0.676567 0.659003
O O1 0.353525 0.845780 0.506868
O O2 0.311815 0.079126 0.388257
O O3 0.318398 0.733482 0.359848
O O4 0.433249 0.919364 0.379877
O O5 0.373893 0.500000 0.500000
O O6 0.297821 0.384887 0.378801
O O7 0.432334 0.307566 0.385242
O O8 0.250000 0.546692 0.250000
O O9 0.000000 0.852563 0.253287
O O10 0.000000 0.112057 0.363501
#
# Coordination Sequence:
#
# PCOD8263562 Si02
#       5
#    16  16  16   8   8
#     4  11  24  42  69  97 134 178 225 271 333 400
#     4  10  20  40  68  95 130 182 222 262 330 411
#     4  11  22  39  64 100 136 173 222 278 330 392
#     4  12  22  43  74  97 133 171 231 275 337 398
#     4  12  25  44  69 100 131 173 225 279 330 396
#
# _framework density 27.307151999999999
#
# number of rings (size 3 to 8) (size 9 to 14) (size 15 to 20)
#    0.000    1.000    5.000    4.125    0.000    0.000 
#    0.000    0.000    0.000    1.500    0.000    0.000 
#    0.000    0.000    0.000    0.000    0.000    0.000 
#
# Total GULP energy -397040.590892 kJ/mol
# GULP energy per Si atom -12407.518465 kJ/mol
# Density = 2.724500 g / cm^3
# Si number density = 27.307152 Si / 1000 Ang^3
#
#
#
# Elastic Constant Matrix: (Units=GPa)
#
#
# Indices 1 2 3 4 5 6 
#
# 1 237.5146 24.2038 104.8918 0.0000 0.0000 0.0000
# 2 24.2038 125.1491 23.7370 0.0000 0.0000 0.0000
# 3 104.8918 23.7370 260.5996 0.0000 0.0000 0.0000
# 4 0.0000 0.0000 0.0000 27.6813 0.0000 0.0000
# 5 0.0000 0.0000 0.0000 0.0000 72.9462 0.0000
# 6 0.0000 0.0000 0.0000 0.0000 0.0000 29.2545
#
#
#
# Elastic Compliance Matrix: (Units=1/GPa)
#
#
# Indices 1 2 3 4 5 6 
#
# 1 0.005167 -0.000615 -0.002024 0.000000 0.000000 0.000000
# 2 -0.000615 0.008204 -0.000500 0.000000 0.000000 0.000000
# 3 -0.002024 -0.000500 0.004697 0.000000 0.000000 0.000000
# 4 0.000000 0.000000 0.000000 0.036125 0.000000 0.000000
# 5 0.000000 0.000000 0.000000 0.000000 0.013709 0.000000
# 6 0.000000 0.000000 0.000000 0.000000 0.000000 0.034183
#
#
# Mechanical properties :
#
#
# Convention : Reuss Voigt Hill
#
# Bulk Modulus (GPa) = 84.80976 103.21428 94.01202
# Shear Modulus (GPa) = 44.52657 57.33846 50.93252
#
# Velocity S-wave (km/s) = 4.04243 4.58728 4.32345
# Velocity P-wave (km/s) = 7.27416 8.12017 7.70878
#
# Compressibility (1/GPa) = 0.01179110
#
# Stress axis : x y z
#
# Youngs Moduli (GPa) = 193.55052 121.88808 212.88927
#
# Poissons Ratio (x) = 0.07501 0.43078
# Poissons Ratio (y) = 0.11912 0.10636
# Poissons Ratio (z) = 0.39165 0.06089
#
# Static dielectric constant tensor:
#      x y z
#    x 5.188480 0.000000 0.000000 
#    y 0.000000 5.903490 0.000000 
#    z 0.000000 0.000000 4.987730 
# 
# 
# High freq. dielectric constant tensor:
#      x y z
#    x 2.115090 0.000000 0.000000 
#    y 0.000000 2.163070 0.000000 
#    z 0.000000 0.000000 2.127230 
# 
# From -- ./inp_files/24900.got.cif
#   From: 2010.03.12/outbox.cif.g09.slc.cpg/sg64_13_cif.got.tgz:24900.got - 2010.04.10 20:19:32.
