data_PCOD8263362
_publ_section_title
;
Structure prediction by ZEFSAII (Michael W. Deem and Ramdas Pophale) SiO2 
 PCOD8263362
Probable space group: C M C A
;
_chemical_formula_sum "Si O2"
_cell_formula_units_Z 88
_cell_length_a 23.684471
_cell_length_b 13.358026
_cell_length_c 13.138462
_cell_angle_alpha 90.000000
_cell_angle_beta 90.000000
_cell_angle_gamma 90.000000
_cell_volume 4156.717432
_symmetry_space_group_name_H-M "C M C A"
_symmetry_group_IT_number 64
_symmetry_cell_setting 'orthorhombic'
loop_
_space_group_symop_operation_xyz
x,y,z
-x,1/2-y,1/2+z
x,-y,-z
-x,1/2+y,1/2-z
-x,-y,-z
x,1/2+y,1/2-z
-x,y,z
x,1/2-y,1/2+z
1/2+x,1/2+y,z
1/2-x,-y,1/2+z
1/2+x,1/2-y,-z
1/2-x,y,1/2-z
1/2-x,1/2-y,-z
1/2+x,y,1/2-z
1/2-x,1/2+y,z
1/2+x,-y,1/2+z
loop_
_atom_site_type_symbol
_atom_site_label
_atom_site_fract_x
_atom_site_fract_y
_atom_site_fract_z
Si Si1 0.437447 0.628398 0.283193
Si Si2 0.713368 0.857686 0.148871
Si Si3 0.847716 0.843181 0.892291
Si Si4 0.221259 0.500000 0.500000
Si Si5 0.562281 0.242059 0.012257
Si Si6 0.899543 0.055007 0.602037
O O1 0.500000 0.645251 0.234813
O O2 0.387115 0.646823 0.205855
O O3 0.426609 0.705747 0.373873
O O4 0.437462 0.516128 0.327951
O O5 0.750000 0.862989 0.250000
O O6 0.699760 0.742544 0.120880
O O7 0.654584 0.914218 0.168700
O O8 0.743445 0.912159 0.054073
O O9 0.888653 0.821136 0.988157
O O10 0.816581 0.947401 0.913275
O O11 0.500000 0.290755 0.003791
O O12 0.564610 0.151972 0.930002
O O13 0.878234 0.000000 0.500000
#
# Coordination Sequence:
#
# PCOD8263362 Si02
#       6
#    16  16  16   8  16  16
#     4  10  20  37  64  96 128 165 208 258 318 384
#     4  11  24  41  66  94 124 170 215 264 318 376
#     4  11  25  41  65  89 131 166 212 265 323 387
#     4  12  26  46  63  94 127 172 216 270 324 374
#     4   9  19  37  63  91 126 165 208 257 315 381
#     4   9  17  35  61  91 123 162 209 262 306 369
#
# _framework density 21.170551
#
# number of rings (size 3 to 8) (size 9 to 14) (size 15 to 20)
#    0.000    1.818    0.909    2.727    2.545    4.364 
#    0.000    1.818    0.000    0.000    0.000    0.000 
#    0.000    0.000    0.000    0.000    0.000    0.000 
#
# Total GULP energy -545514.633652 kJ/mol
# GULP energy per Si atom -12398.059856 kJ/mol
# Density = 2.112237 g / cm^3
# Si number density = 21.170551 Si / 1000 Ang^3
#
#
#
# Elastic Constant Matrix: (Units=GPa)
#
#
# Indices 1 2 3 4 5 6 
#
# 1 109.3705 34.2928 58.8472 0.0000 0.0000 0.0000
# 2 34.2928 81.7908 29.8981 0.0000 0.0000 0.0000
# 3 58.8472 29.8981 95.8729 0.0000 0.0000 0.0000
# 4 0.0000 0.0000 0.0000 22.6102 0.0000 0.0000
# 5 0.0000 0.0000 0.0000 0.0000 34.9366 0.0000
# 6 0.0000 0.0000 0.0000 0.0000 0.0000 17.5761
#
#
#
# Elastic Compliance Matrix: (Units=1/GPa)
#
#
# Indices 1 2 3 4 5 6 
#
# 1 0.014338 -0.003154 -0.007817 0.000000 0.000000 0.000000
# 2 -0.003154 0.014493 -0.002584 0.000000 0.000000 0.000000
# 3 -0.007817 -0.002584 0.016035 0.000000 0.000000 0.000000
# 4 0.000000 0.000000 0.000000 0.044228 0.000000 0.000000
# 5 0.000000 0.000000 0.000000 0.000000 0.028623 0.000000
# 6 0.000000 0.000000 0.000000 0.000000 0.000000 0.056896
#
#
# Mechanical properties :
#
#
# Convention : Reuss Voigt Hill
#
# Bulk Modulus (GPa) = 56.31976 59.23448 57.77712
# Shear Modulus (GPa) = 24.07994 25.95763 25.01879
#
# Velocity S-wave (km/s) = 3.37623 3.50540 3.44142
# Velocity P-wave (km/s) = 6.46987 6.66514 6.56823
#
# Compressibility (1/GPa) = 0.01775576
#
# Stress axis : x y z
#
# Youngs Moduli (GPa) = 69.74317 68.99772 62.36552
#
# Poissons Ratio (x) = 0.21763 0.48753
# Poissons Ratio (y) = 0.21998 0.16114
# Poissons Ratio (z) = 0.54520 0.17827
#
# Static dielectric constant tensor:
#      x y z
#    x 3.992160 0.000000 0.000000 
#    y 0.000000 3.804530 0.000000 
#    z 0.000000 0.000000 3.618370 
# 
# 
# High freq. dielectric constant tensor:
#      x y z
#    x 1.842690 0.000000 0.000000 
#    y 0.000000 1.819900 0.000000 
#    z 0.000000 0.000000 1.819430 
# 
# From -- ./inp_files/18224.got.cif
#   From: 2010.03.12/outbox.cif.g09.slc.cpg/sg64_10_cif.got.tgz:18224.got - 2010.04.10 20:19:32.
