data_PCOD8263348
_publ_section_title
;
Structure prediction by ZEFSAII (Michael W. Deem and Ramdas Pophale) SiO2 
 PCOD8263348
Probable space group: C M C A
;
_chemical_formula_sum "Si O2"
_cell_formula_units_Z 96
_cell_length_a 20.061355
_cell_length_b 26.566876
_cell_length_c 8.637912
_cell_angle_alpha 90.000000
_cell_angle_beta 90.000000
_cell_angle_gamma 90.000000
_cell_volume 4603.726629
_symmetry_space_group_name_H-M "C M C A"
_symmetry_group_IT_number 64
_symmetry_cell_setting 'orthorhombic'
loop_
_space_group_symop_operation_xyz
x,y,z
-x,1/2-y,1/2+z
x,-y,-z
-x,1/2+y,1/2-z
-x,-y,-z
x,1/2+y,1/2-z
-x,y,z
x,1/2-y,1/2+z
1/2+x,1/2+y,z
1/2-x,-y,1/2+z
1/2+x,1/2-y,-z
1/2-x,y,1/2-z
1/2-x,1/2-y,-z
1/2+x,y,1/2-z
1/2-x,1/2+y,z
1/2+x,-y,1/2+z
loop_
_atom_site_type_symbol
_atom_site_label
_atom_site_fract_x
_atom_site_fract_y
_atom_site_fract_z
Si Si1 0.144510 0.742718 0.000222
Si Si2 0.345025 0.396935 0.129105
Si Si3 0.925687 0.453286 0.613450
Si Si4 0.318973 0.501180 0.685420
Si Si5 0.263590 0.170893 0.419688
Si Si6 0.924010 0.306990 0.251488
O O1 0.198926 0.699724 0.022326
O O2 0.116237 0.764888 0.156481
O O3 0.175867 0.789245 0.903088
O O4 0.081626 0.715223 0.920415
O O5 0.324645 0.443729 0.236250
O O6 0.386802 0.360152 0.238420
O O7 0.392305 0.408646 0.982538
O O8 0.279657 0.371428 0.050645
O O9 0.930050 0.500000 0.500000
O O10 0.880972 0.466620 0.762900
O O11 0.000000 0.437866 0.670095
O O12 0.317460 0.500000 0.500000
O O13 0.250000 0.477585 0.750000
O O14 0.250000 0.146656 0.250000
O O15 0.000000 0.313351 0.304114
#
# Coordination Sequence:
#
# PCOD8263348 Si02
#       6
#    16  16  16  16  16  16
#     4  10  21  37  60  88 118 171 206 254 320 363
#     4  10  23  37  65  93 120 169 207 269 319 380
#     4   9  19  41  66  90 124 164 206 254 325 399
#     4  11  24  43  66  94 127 165 212 265 330 393
#     4  10  20  37  62  90 126 156 213 263 312 374
#     4  11  22  39  60  87 127 167 213 255 301 375
#
# _framework density 20.852671999999998
#
# number of rings (size 3 to 8) (size 9 to 14) (size 15 to 20)
#    0.000    1.833    1.667    2.500    2.333    3.000 
#    0.000    0.000    0.000    0.000    0.000    0.000 
#    0.000    0.000    0.000    0.000    0.000    0.000 
#
# Total GULP energy -594974.730414 kJ/mol
# GULP energy per Si atom -12395.306884 kJ/mol
# Density = 2.080521 g / cm^3
# Si number density = 20.852672 Si / 1000 Ang^3
#
#
#
# Elastic Constant Matrix: (Units=GPa)
#
#
# Indices 1 2 3 4 5 6 
#
# 1 112.6462 20.7045 32.5128 0.0000 0.0000 0.0000
# 2 20.7045 72.7761 29.7709 0.0000 0.0000 0.0000
# 3 32.5128 29.7709 103.9029 0.0000 0.0000 0.0000
# 4 0.0000 0.0000 0.0000 26.2063 0.0000 0.0000
# 5 0.0000 0.0000 0.0000 0.0000 31.5024 0.0000
# 6 0.0000 0.0000 0.0000 0.0000 0.0000 23.2573
#
#
#
# Elastic Compliance Matrix: (Units=1/GPa)
#
#
# Indices 1 2 3 4 5 6 
#
# 1 0.009955 -0.001765 -0.002609 0.000000 0.000000 0.000000
# 2 -0.001765 0.015878 -0.003997 0.000000 0.000000 0.000000
# 3 -0.002609 -0.003997 0.011586 0.000000 0.000000 0.000000
# 4 0.000000 0.000000 0.000000 0.038159 0.000000 0.000000
# 5 0.000000 0.000000 0.000000 0.000000 0.031744 0.000000
# 6 0.000000 0.000000 0.000000 0.000000 0.000000 0.042997
#
#
# Mechanical properties :
#
#
# Convention : Reuss Voigt Hill
#
# Bulk Modulus (GPa) = 48.36437 50.58908 49.47672
# Shear Modulus (GPa) = 28.74331 29.94900 29.34615
#
# Velocity S-wave (km/s) = 3.71671 3.79386 3.75548
# Velocity P-wave (km/s) = 6.45463 6.59576 6.52558
#
# Compressibility (1/GPa) = 0.02067638
#
# Stress axis : x y z
#
# Youngs Moduli (GPa) = 100.45361 62.98022 86.30952
#
# Poissons Ratio (x) = 0.11114 0.22522
# Poissons Ratio (y) = 0.17727 0.34500
# Poissons Ratio (z) = 0.26212 0.25175
#
# Static dielectric constant tensor:
#      x y z
#    x 3.965020 0.000000 0.000000 
#    y 0.000000 3.724880 0.000000 
#    z 0.000000 0.000000 3.607160 
# 
# 
# High freq. dielectric constant tensor:
#      x y z
#    x 1.819200 0.000000 0.000000 
#    y 0.000000 1.811900 0.000000 
#    z 0.000000 0.000000 1.809400 
# 
# From -- ./inp_files/8414.got.cif
#   From: 2010.03.12/outbox.cif.g09.slc.cpg/sg64_5_cif.got.tgz:8414.got - 2010.04.10 20:19:32.
