data_PCOD8263672
_publ_section_title
;
Structure prediction by ZEFSAII (Michael W. Deem and Ramdas Pophale) SiO2 
 PCOD8263672
Probable space group: C M C A
;
_chemical_formula_sum "Si O2"
_cell_formula_units_Z 104
_cell_length_a 11.708026
_cell_length_b 18.776610
_cell_length_c 24.435519
_cell_angle_alpha 90.000000
_cell_angle_beta 90.000000
_cell_angle_gamma 90.000000
_cell_volume 5371.832121
_symmetry_space_group_name_H-M "C M C A"
_symmetry_group_IT_number 64
_symmetry_cell_setting 'orthorhombic'
loop_
_space_group_symop_operation_xyz
x,y,z
-x,1/2-y,1/2+z
x,-y,-z
-x,1/2+y,1/2-z
-x,-y,-z
x,1/2+y,1/2-z
-x,y,z
x,1/2-y,1/2+z
1/2+x,1/2+y,z
1/2-x,-y,1/2+z
1/2+x,1/2-y,-z
1/2-x,y,1/2-z
1/2-x,1/2-y,-z
1/2+x,y,1/2-z
1/2-x,1/2+y,z
1/2+x,-y,1/2+z
loop_
_atom_site_type_symbol
_atom_site_label
_atom_site_fract_x
_atom_site_fract_y
_atom_site_fract_z
Si Si1 0.793630 0.202778 0.403107
Si Si2 0.747483 0.360345 0.083513
Si Si3 0.868347 0.383229 0.530602
Si Si4 0.779810 0.406825 0.811415
Si Si5 0.500000 0.973330 0.852824
Si Si6 0.500000 0.629359 0.454329
Si Si7 0.631690 0.998592 0.383102
Si Si8 0.000000 0.611003 0.922663
O O1 0.807968 0.287188 0.395290
O O2 0.671674 0.179993 0.428767
O O3 0.808210 0.165807 0.344068
O O4 0.888564 0.178226 0.446887
O O5 0.706771 0.426736 0.120492
O O6 0.883153 0.345962 0.087075
O O7 0.708036 0.380975 0.023010
O O8 0.850495 0.460347 0.559167
O O9 0.000000 0.370442 0.515409
O O10 0.750000 0.385011 0.750000
O O11 0.889651 0.458180 0.815556
O O12 0.670958 0.448459 0.835284
O O13 0.500000 0.929590 0.908370
O O14 0.500000 0.052162 0.875719
O O15 0.500000 0.589196 0.512970
O O16 0.500000 0.978464 0.374304
#
# Coordination Sequence:
#
# PCOD8263672 Si02
#       8
#    16  16  16  16   8   8  16   8
#     4  10  23  37  56  88 117 154 200 237 284 357
#     4  12  23  35  56  85 127 156 190 235 290 348
#     4  10  21  36  57  81 119 163 201 229 270 347
#     4  10  22  43  66  82 108 148 199 252 299 346
#     4  10  21  40  61  92 115 142 205 251 284 356
#     4  10  21  36  58  85 123 164 192 226 293 351
#     4  10  22  39  58  86 114 154 197 238 288 345
#     4  12  23  34  59  87 125 159 185 234 303 344
#
# _framework density 19.360247999999999
#
# number of rings (size 3 to 8) (size 9 to 14) (size 15 to 20)
#    0.000    1.538    3.077    1.615    4.308    2.462 
#    0.000    0.769    0.000    0.000    0.000    0.000 
#    0.000    0.000    0.000    0.000    0.000    0.000 
#
# Total GULP energy -644637.849813 kJ/mol
# GULP energy per Si atom -12396.881727 kJ/mol
# Density = 1.931618 g / cm^3
# Si number density = 19.360248 Si / 1000 Ang^3
#
#
#
# Elastic Constant Matrix: (Units=GPa)
#
#
# Indices 1 2 3 4 5 6 
#
# 1 112.8444 20.1403 28.1784 0.0000 0.0000 0.0000
# 2 20.1403 91.1281 26.0531 0.0000 0.0000 0.0000
# 3 28.1784 26.0531 83.9791 0.0000 0.0000 0.0000
# 4 0.0000 0.0000 0.0000 10.8714 0.0000 0.0000
# 5 0.0000 0.0000 0.0000 0.0000 23.4578 0.0000
# 6 0.0000 0.0000 0.0000 0.0000 0.0000 15.3459
#
#
#
# Elastic Compliance Matrix: (Units=1/GPa)
#
#
# Indices 1 2 3 4 5 6 
#
# 1 0.009821 -0.001348 -0.002877 0.000000 0.000000 0.000000
# 2 -0.001348 0.012227 -0.003341 0.000000 0.000000 0.000000
# 3 -0.002877 -0.003341 0.013910 0.000000 0.000000 0.000000
# 4 0.000000 0.000000 0.000000 0.091985 0.000000 0.000000
# 5 0.000000 0.000000 0.000000 0.000000 0.042630 0.000000
# 6 0.000000 0.000000 0.000000 0.000000 0.000000 0.065164
#
#
# Mechanical properties :
#
#
# Convention : Reuss Voigt Hill
#
# Bulk Modulus (GPa) = 48.01873 48.52171 48.27022
# Shear Modulus (GPa) = 19.39421 24.17365 21.78393
#
# Velocity S-wave (km/s) = 3.16848 3.53742 3.35802
# Velocity P-wave (km/s) = 6.18404 6.46540 6.32628
#
# Compressibility (1/GPa) = 0.02082521
#
# Stress axis : x y z
#
# Youngs Moduli (GPa) = 101.82484 81.78886 71.89316
#
# Poissons Ratio (x) = 0.11025 0.20684
# Poissons Ratio (y) = 0.13726 0.24018
# Poissons Ratio (z) = 0.29296 0.27324
#
# Static dielectric constant tensor:
#      x y z
#    x 3.871270 0.000000 0.000000 
#    y 0.000000 3.408590 0.000000 
#    z 0.000000 0.000000 3.180020 
# 
# 
# High freq. dielectric constant tensor:
#      x y z
#    x 1.772410 0.000000 0.000000 
#    y 0.000000 1.743000 0.000000 
#    z 0.000000 0.000000 1.716510 
# 
# From -- ./inp_files/49408.got.cif
#   From: 2010.03.12/outbox.cif.g09.slc.cpg/sg64_25_cif.got.tgz:49408.got - 2010.04.10 20:19:32.
