data_PCOD8263727
_publ_section_title
;
Structure prediction by ZEFSAII (Michael W. Deem and Ramdas Pophale) SiO2 
 PCOD8263727
Probable space group: C M C A
;
_chemical_formula_sum "Si O2"
_cell_formula_units_Z 96
_cell_length_a 8.830794
_cell_length_b 25.178076
_cell_length_c 23.386645
_cell_angle_alpha 90.000000
_cell_angle_beta 90.000000
_cell_angle_gamma 90.000000
_cell_volume 5199.842835
_symmetry_space_group_name_H-M "C M C A"
_symmetry_group_IT_number 64
_symmetry_cell_setting 'orthorhombic'
loop_
_space_group_symop_operation_xyz
x,y,z
-x,1/2-y,1/2+z
x,-y,-z
-x,1/2+y,1/2-z
-x,-y,-z
x,1/2+y,1/2-z
-x,y,z
x,1/2-y,1/2+z
1/2+x,1/2+y,z
1/2-x,-y,1/2+z
1/2+x,1/2-y,-z
1/2-x,y,1/2-z
1/2-x,1/2-y,-z
1/2+x,y,1/2-z
1/2-x,1/2+y,z
1/2+x,-y,1/2+z
loop_
_atom_site_type_symbol
_atom_site_label
_atom_site_fract_x
_atom_site_fract_y
_atom_site_fract_z
Si Si1 0.676979 0.252607 0.309939
Si Si2 0.675959 0.056358 0.691680
Si Si3 0.324263 0.654111 0.107383
Si Si4 0.322107 0.155726 0.619137
Si Si5 0.321460 0.562707 0.190664
Si Si6 0.821438 0.192226 0.503972
O O1 0.500000 0.264520 0.301887
O O2 0.750000 0.235911 0.250000
O O3 0.705380 0.205319 0.354006
O O4 0.760041 0.304535 0.333144
O O5 0.500000 0.054984 0.704462
O O6 0.750000 0.077122 0.750000
O O7 0.713922 0.096031 0.640033
O O8 0.733010 0.997086 0.675412
O O9 0.500000 0.649972 0.090083
O O10 0.267358 0.601690 0.140376
O O11 0.224320 0.657463 0.050581
O O12 0.500000 0.165754 0.610568
O O13 0.236442 0.162214 0.559784
O O14 0.500000 0.567067 0.197832
O O15 0.250000 0.582060 0.250000
O O16 0.750000 0.250000 0.500000
O O17 0.000000 0.198848 0.507788
#
# Coordination Sequence:
#
# PCOD8263727 Si02
#       6
#    16  16  16  16  16  16
#     4  11  22  34  52  80 113 145 181 227 279 335
#     4   9  19  35  57  84 113 148 187 227 276 328
#     4  10  21  37  57  81 111 147 187 229 275 330
#     4  11  22  37  57  81 111 147 188 232 278 331
#     4   9  18  35  58  84 114 148 186 228 275 328
#     4  12  24  39  59  81 109 147 188 230 280 335
#
# _framework density 18.462095999999999
#
# number of rings (size 3 to 8) (size 9 to 14) (size 15 to 20)
#    0.000    1.667    1.667    3.500    0.000    4.000 
#    0.000    0.833    0.000    5.000    0.000    0.000 
#    0.000    0.000    0.000    0.000    0.000    0.000 
#
# Total GULP energy -595373.222754 kJ/mol
# GULP energy per Si atom -12403.608807 kJ/mol
# Density = 1.842008 g / cm^3
# Si number density = 18.462096 Si / 1000 Ang^3
#
#
#
# Elastic Constant Matrix: (Units=GPa)
#
#
# Indices 1 2 3 4 5 6 
#
# 1 91.9223 44.5177 54.9047 0.0000 0.0000 0.0000
# 2 44.5177 100.6396 52.4944 0.0000 0.0000 0.0000
# 3 54.9047 52.4944 123.2740 0.0000 0.0000 0.0000
# 4 0.0000 0.0000 0.0000 27.5265 0.0000 0.0000
# 5 0.0000 0.0000 0.0000 0.0000 37.0311 0.0000
# 6 0.0000 0.0000 0.0000 0.0000 0.0000 23.8394
#
#
#
# Elastic Compliance Matrix: (Units=1/GPa)
#
#
# Indices 1 2 3 4 5 6 
#
# 1 0.016191 -0.004372 -0.005350 0.000000 0.000000 0.000000
# 2 -0.004372 0.013954 -0.003995 0.000000 0.000000 0.000000
# 3 -0.005350 -0.003995 0.012196 0.000000 0.000000 0.000000
# 4 0.000000 0.000000 0.000000 0.036329 0.000000 0.000000
# 5 0.000000 0.000000 0.000000 0.000000 0.027004 0.000000
# 6 0.000000 0.000000 0.000000 0.000000 0.000000 0.041947
#
#
# Mechanical properties :
#
#
# Convention : Reuss Voigt Hill
#
# Bulk Modulus (GPa) = 67.07661 68.85218 67.96440
# Shear Modulus (GPa) = 27.77402 28.60734 28.19068
#
# Velocity S-wave (km/s) = 3.88284 3.94066 3.91186
# Velocity P-wave (km/s) = 7.51751 7.62101 7.56944
#
# Compressibility (1/GPa) = 0.01490833
#
# Stress axis : x y z
#
# Youngs Moduli (GPa) = 61.76130 71.66347 81.99434
#
# Poissons Ratio (x) = 0.31329 0.43865
# Poissons Ratio (y) = 0.27000 0.32757
# Poissons Ratio (z) = 0.33041 0.28630
#
# Static dielectric constant tensor:
#      x y z
#    x 3.461140 0.000000 0.000000 
#    y 0.000000 3.660320 0.000000 
#    z 0.000000 0.000000 3.504630 
# 
# 
# High freq. dielectric constant tensor:
#      x y z
#    x 1.720510 0.000000 0.000000 
#    y 0.000000 1.718490 0.000000 
#    z 0.000000 0.000000 1.717640 
# 
# From -- ./inp_files/37004.got.cif
#   From: 2010.03.12/outbox.cif.g09.slc.cpg/sg64_19_cif.got.tgz:37004.got - 2010.04.10 20:19:32.
