data_PCOD8263966
_publ_section_title
;
Structure prediction by ZEFSAII (Michael W. Deem and Ramdas Pophale) SiO2 
 PCOD8263966
Probable space group: C M C A
;
_chemical_formula_sum "Si O2"
_cell_formula_units_Z 112
_cell_length_a 16.230631
_cell_length_b 11.190145
_cell_length_c 30.145988
_cell_angle_alpha 90.000000
_cell_angle_beta 90.000000
_cell_angle_gamma 90.000000
_cell_volume 5475.208225
_symmetry_space_group_name_H-M "C M C A"
_symmetry_group_IT_number 64
_symmetry_cell_setting 'orthorhombic'
loop_
_space_group_symop_operation_xyz
x,y,z
-x,1/2-y,1/2+z
x,-y,-z
-x,1/2+y,1/2-z
-x,-y,-z
x,1/2+y,1/2-z
-x,y,z
x,1/2-y,1/2+z
1/2+x,1/2+y,z
1/2-x,-y,1/2+z
1/2+x,1/2-y,-z
1/2-x,y,1/2-z
1/2-x,1/2-y,-z
1/2+x,y,1/2-z
1/2-x,1/2+y,z
1/2+x,-y,1/2+z
loop_
_atom_site_type_symbol
_atom_site_label
_atom_site_fract_x
_atom_site_fract_y
_atom_site_fract_z
Si Si1 0.839308 0.065480 0.940121
Si Si2 0.347690 0.578470 0.543504
Si Si3 0.908142 0.663113 0.475109
Si Si4 0.406262 0.314860 0.141838
Si Si5 0.660190 0.480977 0.726506
Si Si6 0.656293 0.780278 0.264121
Si Si7 0.406476 0.452629 0.632151
O O1 0.747490 0.107607 0.949972
O O2 0.866669 0.086940 0.890031
O O3 0.845318 0.923457 0.948968
O O4 0.898175 0.141967 0.972300
O O5 0.365130 0.500000 0.500000
O O6 0.394517 0.701407 0.537343
O O7 0.382044 0.521100 0.588066
O O8 0.000000 0.626521 0.461161
O O9 0.500000 0.349635 0.154422
O O10 0.348819 0.314484 0.184684
O O11 0.402506 0.186000 0.118701
O O12 0.750000 0.490556 0.750000
O O13 0.617354 0.354684 0.743118
O O14 0.613543 0.606398 0.738922
O O15 0.657389 0.479104 0.672682
O O16 0.750000 0.766559 0.250000
O O17 0.500000 0.486540 0.646859
#
# Coordination Sequence:
#
# PCOD8263966 Si02
#       7
#    16  16  16  16  16  16  16
#     4  11  23  39  63  90 126 166 211 260 316 377
#     4  12  25  40  64  95 128 168 219 263 316 387
#     4  11  23  42  64  90 129 167 210 266 321 370
#     4  10  21  39  64  89 120 164 210 248 311 391
#     4   9  19  38  61  87 121 159 208 252 313 378
#     4   9  19  36  59  88 118 155 202 251 310 375
#     4  10  23  41  63  92 128 166 206 261 322 377
#
# _framework density 20.455840999999999
#
# number of rings (size 3 to 8) (size 9 to 14) (size 15 to 20)
#    0.000    1.714    1.429    3.429    6.000    2.857 
#    2.571    0.000    0.000    0.000    0.000    0.000 
#    0.000    0.000    0.000    0.000    0.000    0.000 
#
# Total GULP energy -693858.120827 kJ/mol
# GULP energy per Si atom -12390.323586 kJ/mol
# Density = 2.040928 g / cm^3
# Si number density = 20.455841 Si / 1000 Ang^3
#
#
#
# Elastic Constant Matrix: (Units=GPa)
#
#
# Indices 1 2 3 4 5 6 
#
# 1 74.9649 8.9306 34.4457 0.0000 0.0000 0.0000
# 2 8.9306 126.6004 60.2237 0.0000 0.0000 0.0000
# 3 34.4457 60.2237 127.4256 0.0000 0.0000 0.0000
# 4 0.0000 0.0000 0.0000 33.9218 0.0000 0.0000
# 5 0.0000 0.0000 0.0000 0.0000 13.5905 0.0000
# 6 0.0000 0.0000 0.0000 0.0000 0.0000 21.3572
#
#
#
# Elastic Compliance Matrix: (Units=1/GPa)
#
#
# Indices 1 2 3 4 5 6 
#
# 1 0.015360 0.001150 -0.004696 0.000000 0.000000 0.000000
# 2 0.001150 0.010276 -0.005168 0.000000 0.000000 0.000000
# 3 -0.004696 -0.005168 0.011559 0.000000 0.000000 0.000000
# 4 0.000000 0.000000 0.000000 0.029480 0.000000 0.000000
# 5 0.000000 0.000000 0.000000 0.000000 0.073581 0.000000
# 6 0.000000 0.000000 0.000000 0.000000 0.000000 0.046823
#
#
# Mechanical properties :
#
#
# Convention : Reuss Voigt Hill
#
# Bulk Modulus (GPa) = 50.58339 59.57679 55.08009
# Shear Modulus (GPa) = 23.68610 28.79996 26.24303
#
# Velocity S-wave (km/s) = 3.40650 3.75628 3.58566
# Velocity P-wave (km/s) = 6.34462 6.92825 6.64285
#
# Compressibility (1/GPa) = 0.01976933
#
# Stress axis : x y z
#
# Youngs Moduli (GPa) = 65.10316 97.31499 86.51002
#
# Poissons Ratio (x) = -0.11194 0.40624
# Poissons Ratio (y) = -0.07489 0.44704
# Poissons Ratio (z) = 0.30571 0.50288
#
# Static dielectric constant tensor:
#      x y z
#    x 3.537350 0.000000 0.000000 
#    y 0.000000 4.253210 0.000000 
#    z 0.000000 0.000000 3.616710 
# 
# 
# High freq. dielectric constant tensor:
#      x y z
#    x 1.783610 0.000000 0.000000 
#    y 0.000000 1.816180 0.000000 
#    z 0.000000 0.000000 1.794190 
# 
# From -- ./inp_files/53276.got.cif
#   From: 2010.03.12/outbox.cif.g09.slc.cpg/sg64_27_cif.got.tgz:53276.got - 2010.04.10 20:19:32.
