data_PCOD8263909
_publ_section_title
;
Structure prediction by ZEFSAII (Michael W. Deem and Ramdas Pophale) SiO2 
 PCOD8263909
Probable space group: C M C A
;
_chemical_formula_sum "Si O2"
_cell_formula_units_Z 96
_cell_length_a 22.915637
_cell_length_b 11.584184
_cell_length_c 17.907519
_cell_angle_alpha 90.000000
_cell_angle_beta 90.000000
_cell_angle_gamma 90.000000
_cell_volume 4753.711289
_symmetry_space_group_name_H-M "C M C A"
_symmetry_group_IT_number 64
_symmetry_cell_setting 'orthorhombic'
loop_
_space_group_symop_operation_xyz
x,y,z
-x,1/2-y,1/2+z
x,-y,-z
-x,1/2+y,1/2-z
-x,-y,-z
x,1/2+y,1/2-z
-x,y,z
x,1/2-y,1/2+z
1/2+x,1/2+y,z
1/2-x,-y,1/2+z
1/2+x,1/2-y,-z
1/2-x,y,1/2-z
1/2-x,1/2-y,-z
1/2+x,y,1/2-z
1/2-x,1/2+y,z
1/2+x,-y,1/2+z
loop_
_atom_site_type_symbol
_atom_site_label
_atom_site_fract_x
_atom_site_fract_y
_atom_site_fract_z
Si Si1 0.765013 0.752377 0.587407
Si Si2 0.159509 0.457480 0.420668
Si Si3 0.064447 0.322100 0.361579
Si Si4 0.861466 0.111233 0.337050
Si Si5 0.652817 0.318673 0.826736
Si Si6 0.068460 0.383705 0.193324
O O1 0.750000 0.750000 0.500000
O O2 0.793014 0.630553 0.613319
O O3 0.808867 0.861417 0.603922
O O4 0.707861 0.755421 0.637567
O O5 0.182441 0.500000 0.500000
O O6 0.100447 0.383711 0.427304
O O7 0.143243 0.562710 0.368810
O O8 0.082728 0.189869 0.353443
O O9 0.071576 0.389823 0.283045
O O10 0.000000 0.323445 0.392041
O O11 0.833679 0.147891 0.258188
O O12 0.888408 0.982484 0.339831
O O13 0.595240 0.238196 0.834662
O O14 0.000000 0.394303 0.167706
#
# Coordination Sequence:
#
# PCOD8263909 Si02
#       6
#    16  16  16  16  16  16
#     4  11  24  41  63  90 127 170 210 261 319 380
#     4  11  22  39  62  89 124 164 211 256 320 381
#     4   9  19  36  60  89 121 159 205 258 316 375
#     4  10  21  40  63  94 125 163 211 262 315 380
#     4  11  23  40  62  96 124 163 215 262 315 379
#     4  10  21  38  65  94 125 162 206 265 319 372
#
# _framework density 20.194748000000001
#
# number of rings (size 3 to 8) (size 9 to 14) (size 15 to 20)
#    0.000    1.667    3.333    1.000    2.333    1.667 
#    0.000    0.000    0.000    1.000    0.000    0.000 
#    0.000    0.000    0.000    0.000    0.000    0.000 
#
# Total GULP energy -594829.344374 kJ/mol
# GULP energy per Si atom -12392.278008 kJ/mol
# Density = 2.014878 g / cm^3
# Si number density = 20.194748 Si / 1000 Ang^3
#
#
#
# Elastic Constant Matrix: (Units=GPa)
#
#
# Indices 1 2 3 4 5 6 
#
# 1 124.7176 37.5199 30.9012 0.0000 0.0000 0.0000
# 2 37.5199 109.2708 26.2356 0.0000 0.0000 0.0000
# 3 30.9012 26.2356 53.8830 0.0000 0.0000 0.0000
# 4 0.0000 0.0000 0.0000 28.9510 0.0000 0.0000
# 5 0.0000 0.0000 0.0000 0.0000 24.4487 0.0000
# 6 0.0000 0.0000 0.0000 0.0000 0.0000 -34.9799
#
#
#
# Elastic Compliance Matrix: (Units=1/GPa)
#
#
# Indices 1 2 3 4 5 6 
#
# 1 0.009827 -0.002289 -0.004521 0.000000 0.000000 0.000000
# 2 -0.002289 0.010896 -0.003993 0.000000 0.000000 0.000000
# 3 -0.004521 -0.003993 0.023096 0.000000 0.000000 0.000000
# 4 0.000000 0.000000 0.000000 0.034541 0.000000 0.000000
# 5 0.000000 0.000000 0.000000 0.000000 0.040902 0.000000
# 6 0.000000 0.000000 0.000000 0.000000 0.000000 -0.028588
#
#
# Mechanical properties :
#
#
# Convention : Reuss Voigt Hill
#
# Bulk Modulus (GPa) = 45.01812 53.02053 49.01932
# Shear Modulus (GPa) = 41.77678 16.56494 29.17086
#
# Velocity S-wave (km/s) = 4.55323 2.86712 3.80475
# Velocity P-wave (km/s) = 7.06986 6.10509 6.60511
#
# Compressibility (1/GPa) = 0.02221328
#
# Stress axis : x y z
#
# Youngs Moduli (GPa) = 101.76202 91.77609 43.29814
#
# Poissons Ratio (x) = 0.21005 0.19576
# Poissons Ratio (y) = 0.23290 0.17288
# Poissons Ratio (z) = 0.46009 0.36644
#
# Static dielectric constant tensor:
#      x y z
#    x 3.769990 0.000000 0.000000 
#    y 0.000000 3.774640 0.000000 
#    z 0.000000 0.000000 3.340240 
# 
# 
# High freq. dielectric constant tensor:
#      x y z
#    x 1.796700 0.000000 0.000000 
#    y 0.000000 1.799260 0.000000 
#    z 0.000000 0.000000 1.763210 
# 
# From -- ./inp_files/34945.got.cif
#   From: 2010.03.12/outbox.cif.g09.slc.cpg/sg64_18_cif.got.tgz:34945.got - 2010.04.10 20:19:32.
