data_PCOD8263655
_publ_section_title
;
Structure prediction by ZEFSAII (Michael W. Deem and Ramdas Pophale) SiO2 
 PCOD8263655
Probable space group: C M C A
;
_chemical_formula_sum "Si O2"
_cell_formula_units_Z 64
_cell_length_a 13.578439
_cell_length_b 18.531664
_cell_length_c 14.032848
_cell_angle_alpha 90.000000
_cell_angle_beta 90.000000
_cell_angle_gamma 90.000000
_cell_volume 3531.100546
_symmetry_space_group_name_H-M "C M C A"
_symmetry_group_IT_number 64
_symmetry_cell_setting 'orthorhombic'
loop_
_space_group_symop_operation_xyz
x,y,z
-x,1/2-y,1/2+z
x,-y,-z
-x,1/2+y,1/2-z
-x,-y,-z
x,1/2+y,1/2-z
-x,y,z
x,1/2-y,1/2+z
1/2+x,1/2+y,z
1/2-x,-y,1/2+z
1/2+x,1/2-y,-z
1/2-x,y,1/2-z
1/2-x,1/2-y,-z
1/2+x,y,1/2-z
1/2-x,1/2+y,z
1/2+x,-y,1/2+z
loop_
_atom_site_type_symbol
_atom_site_label
_atom_site_fract_x
_atom_site_fract_y
_atom_site_fract_z
Si Si1 0.767672 0.237771 0.389298
Si Si2 0.114848 0.805562 0.261367
Si Si3 0.617262 0.902437 0.912095
Si Si4 0.885029 0.059274 0.621211
O O1 0.750000 0.250000 0.500000
O O2 0.843596 0.297288 0.345806
O O3 0.665184 0.246634 0.331949
O O4 0.817741 0.160916 0.366546
O O5 0.142942 0.887070 0.293101
O O6 0.000000 0.790547 0.265808
O O7 0.500000 0.885775 0.901784
O O8 0.649959 0.977076 0.859627
O O9 0.653393 0.908061 0.021736
O O10 0.000000 0.053532 0.606123
#
# Coordination Sequence:
#
# PCOD8263655 Si02
#       4
#    16  16  16  16
#     4  11  21  33  54  83 113 146 185 230 287 340
#     4  10  21  36  53  80 114 146 185 233 281 333
#     4   9  16  30  55  83 108 143 185 226 271 328
#     4   8  15  30  54  79 106 142 185 229 273 323
#
# _framework density 18.124661
#
# number of rings (size 3 to 8) (size 9 to 14) (size 15 to 20)
#    0.000    2.500    2.500    2.250    0.000    1.000 
#    0.000    5.000    0.000    0.000    0.000    5.250 
#    0.000    0.750    0.000    0.000    0.000    0.000 
#
# Total GULP energy -396442.387150 kJ/mol
# GULP energy per Si atom -12388.824598 kJ/mol
# Density = 1.808341 g / cm^3
# Si number density = 18.124661 Si / 1000 Ang^3
#
#
#
# Elastic Constant Matrix: (Units=GPa)
#
#
# Indices 1 2 3 4 5 6 
#
# 1 105.7327 54.2350 42.4972 0.0000 0.0000 0.0000
# 2 54.2350 131.8008 61.8725 0.0000 0.0000 0.0000
# 3 42.4972 61.8725 106.9306 0.0000 0.0000 0.0000
# 4 0.0000 0.0000 0.0000 29.6335 0.0000 0.0000
# 5 0.0000 0.0000 0.0000 0.0000 27.2898 0.0000
# 6 0.0000 0.0000 0.0000 0.0000 0.0000 25.7244
#
#
#
# Elastic Compliance Matrix: (Units=1/GPa)
#
#
# Indices 1 2 3 4 5 6 
#
# 1 0.012549 -0.003875 -0.002745 0.000000 0.000000 0.000000
# 2 -0.003875 0.011613 -0.005180 0.000000 0.000000 0.000000
# 3 -0.002745 -0.005180 0.013440 0.000000 0.000000 0.000000
# 4 0.000000 0.000000 0.000000 0.033746 0.000000 0.000000
# 5 0.000000 0.000000 0.000000 0.000000 0.036644 0.000000
# 6 0.000000 0.000000 0.000000 0.000000 0.000000 0.038874
#
#
# Mechanical properties :
#
#
# Convention : Reuss Voigt Hill
#
# Bulk Modulus (GPa) = 71.41613 73.51927 72.46770
# Shear Modulus (GPa) = 28.54991 28.92019 28.73505
#
# Velocity S-wave (km/s) = 3.97318 3.99886 3.98604
# Velocity P-wave (km/s) = 7.78052 7.87225 7.82652
#
# Compressibility (1/GPa) = 0.01400244
#
# Stress axis : x y z
#
# Youngs Moduli (GPa) = 79.68862 86.10797 74.40548
#
# Poissons Ratio (x) = 0.33368 0.20424
# Poissons Ratio (y) = 0.30880 0.38539
# Poissons Ratio (z) = 0.21875 0.44601
#
# Static dielectric constant tensor:
#      x y z
#    x 3.226180 0.000000 0.000000 
#    y 0.000000 3.709470 0.000000 
#    z 0.000000 0.000000 3.346720 
# 
# 
# High freq. dielectric constant tensor:
#      x y z
#    x 1.685730 0.000000 0.000000 
#    y 0.000000 1.707290 0.000000 
#    z 0.000000 0.000000 1.685450 
# 
# From -- ./inp_files/23373.got.cif
#   From: 2010.03.12/outbox.cif.g09.slc.cpg/sg64_12_cif.got.tgz:23373.got - 2010.04.10 20:19:32.
