data_PCOD8263505
_publ_section_title
;
Structure prediction by ZEFSAII (Michael W. Deem and Ramdas Pophale) SiO2 
 PCOD8263505
Probable space group: C M C A
;
_chemical_formula_sum "Si O2"
_cell_formula_units_Z 80
_cell_length_a 26.139586
_cell_length_b 13.446595
_cell_length_c 12.588159
_cell_angle_alpha 90.000000
_cell_angle_beta 90.000000
_cell_angle_gamma 90.000000
_cell_volume 4424.592198
_symmetry_space_group_name_H-M "C M C A"
_symmetry_group_IT_number 64
_symmetry_cell_setting 'orthorhombic'
loop_
_space_group_symop_operation_xyz
x,y,z
-x,1/2-y,1/2+z
x,-y,-z
-x,1/2+y,1/2-z
-x,-y,-z
x,1/2+y,1/2-z
-x,y,z
x,1/2-y,1/2+z
1/2+x,1/2+y,z
1/2-x,-y,1/2+z
1/2+x,1/2-y,-z
1/2-x,y,1/2-z
1/2-x,1/2-y,-z
1/2+x,y,1/2-z
1/2-x,1/2+y,z
1/2+x,-y,1/2+z
loop_
_atom_site_type_symbol
_atom_site_label
_atom_site_fract_x
_atom_site_fract_y
_atom_site_fract_z
Si Si1 0.807900 0.433417 0.765197
Si Si2 0.861094 0.130709 0.795510
Si Si3 0.302387 0.230584 0.061702
Si Si4 0.055700 0.612352 0.523950
Si Si5 0.630861 0.286471 0.876558
O O1 0.750000 0.468691 0.750000
O O2 0.843801 0.530868 0.765846
O O3 0.807740 0.373800 0.876395
O O4 0.827165 0.364528 0.668142
O O5 0.811988 0.177804 0.856635
O O6 0.906858 0.114679 0.876424
O O7 0.884612 0.208055 0.712474
O O8 0.250000 0.250000 0.000000
O O9 0.346252 0.225532 0.974434
O O10 0.044880 0.500000 0.500000
O O11 0.079879 0.660296 0.417912
O O12 0.000000 0.662833 0.547729
#
# Coordination Sequence:
#
# PCOD8263505 Si02
#       5
#    16  16  16  16  16
#     4  11  21  34  55  81 119 159 193 232 283 337
#     4  10  23  36  57  85 118 147 195 239 289 352
#     4  10  21  36  53  79 116 157 197 231 281 346
#     4  10  20  39  65  85 108 149 195 245 297 343
#     4  10  21  39  55  84 116 148 194 242 279 353
#
# _framework density 18.080760999999999
#
# number of rings (size 3 to 8) (size 9 to 14) (size 15 to 20)
#    0.000    1.800    4.000    0.000    2.800    1.600 
#    0.000    0.000    0.000    0.000    0.000    5.600 
#    0.000    0.000    0.000    0.000    0.000    0.000 
#
# Total GULP energy -495757.877858 kJ/mol
# GULP energy per Si atom -12393.946946 kJ/mol
# Density = 1.803961 g / cm^3
# Si number density = 18.080761 Si / 1000 Ang^3
#
#
#
# Elastic Constant Matrix: (Units=GPa)
#
#
# Indices 1 2 3 4 5 6 
#
# 1 122.1937 54.3193 51.5715 0.0000 0.0000 0.0000
# 2 54.3193 97.6972 54.9423 0.0000 0.0000 0.0000
# 3 51.5715 54.9423 95.3804 0.0000 0.0000 0.0000
# 4 0.0000 0.0000 0.0000 32.2029 0.0000 0.0000
# 5 0.0000 0.0000 0.0000 0.0000 28.4275 0.0000
# 6 0.0000 0.0000 0.0000 0.0000 0.0000 11.7609
#
#
#
# Elastic Compliance Matrix: (Units=1/GPa)
#
#
# Indices 1 2 3 4 5 6 
#
# 1 0.011746 -0.004377 -0.003830 0.000000 0.000000 0.000000
# 2 -0.004377 0.016771 -0.007294 0.000000 0.000000 0.000000
# 3 -0.003830 -0.007294 0.016757 0.000000 0.000000 0.000000
# 4 0.000000 0.000000 0.000000 0.031053 0.000000 0.000000
# 5 0.000000 0.000000 0.000000 0.000000 0.035177 0.000000
# 6 0.000000 0.000000 0.000000 0.000000 0.000000 0.085027
#
#
# Mechanical properties :
#
#
# Convention : Reuss Voigt Hill
#
# Bulk Modulus (GPa) = 70.06622 70.77083 70.41852
# Shear Modulus (GPa) = 21.52480 24.77415 23.14948
#
# Velocity S-wave (km/s) = 3.45408 3.70563 3.58206
# Velocity P-wave (km/s) = 7.39888 7.58521 7.49263
#
# Compressibility (1/GPa) = 0.01427221
#
# Stress axis : x y z
#
# Youngs Moduli (GPa) = 85.13781 59.62542 59.67764
#
# Poissons Ratio (x) = 0.26098 0.22854
# Poissons Ratio (y) = 0.37264 0.43531
# Poissons Ratio (z) = 0.32604 0.43493
#
# Static dielectric constant tensor:
#      x y z
#    x 3.394520 0.000000 0.000000 
#    y 0.000000 3.355150 0.000000 
#    z 0.000000 0.000000 3.627030 
# 
# 
# High freq. dielectric constant tensor:
#      x y z
#    x 1.690640 0.000000 0.000000 
#    y 0.000000 1.696710 0.000000 
#    z 0.000000 0.000000 1.708190 
# 
# From -- ./inp_files/18035.got.cif
#   From: 2010.03.12/outbox.cif.g09.slc.cpg/sg64_10_cif.got.tgz:18035.got - 2010.04.10 20:19:32.
