data_PCOD8263780
_publ_section_title
;
Structure prediction by ZEFSAII (Michael W. Deem and Ramdas Pophale) SiO2 
 PCOD8263780
Probable space group: C M C A
;
_chemical_formula_sum "Si O2"
_cell_formula_units_Z 80
_cell_length_a 26.816709
_cell_length_b 10.480165
_cell_length_c 12.602329
_cell_angle_alpha 90.000000
_cell_angle_beta 90.000000
_cell_angle_gamma 90.000000
_cell_volume 3541.803092
_symmetry_space_group_name_H-M "C M C A"
_symmetry_group_IT_number 64
_symmetry_cell_setting 'orthorhombic'
loop_
_space_group_symop_operation_xyz
x,y,z
-x,1/2-y,1/2+z
x,-y,-z
-x,1/2+y,1/2-z
-x,-y,-z
x,1/2+y,1/2-z
-x,y,z
x,1/2-y,1/2+z
1/2+x,1/2+y,z
1/2-x,-y,1/2+z
1/2+x,1/2-y,-z
1/2-x,y,1/2-z
1/2-x,1/2-y,-z
1/2+x,y,1/2-z
1/2-x,1/2+y,z
1/2+x,-y,1/2+z
loop_
_atom_site_type_symbol
_atom_site_label
_atom_site_fract_x
_atom_site_fract_y
_atom_site_fract_z
Si Si1 0.307529 0.146422 0.774902
Si Si2 0.443708 0.966174 0.217838
Si Si3 0.643786 0.111704 0.189086
Si Si4 0.055317 0.135390 0.946553
Si Si5 0.624687 0.155260 0.960065
O O1 0.250000 0.164143 0.750000
O O2 0.335486 0.246121 0.697861
O O3 0.322685 0.998813 0.753903
O O4 0.324800 0.187911 0.893762
O O5 0.500000 0.004878 0.189551
O O6 0.412195 0.097749 0.238199
O O7 0.440498 0.875415 0.319428
O O8 0.417768 0.899160 0.117728
O O9 0.640806 0.070900 0.063660
O O10 0.000000 0.190102 0.975087
O O11 0.100412 0.220494 0.987334
O O12 0.062034 0.000000 0.000000
#
# Coordination Sequence:
#
# PCOD8263780 Si02
#       5
#    16  16  16  16  16
#     4  11  24  44  67  92 125 166 216 274 334 391
#     4  10  21  38  62  93 131 172 211 257 316 386
#     4  11  24  43  66  95 130 167 215 270 326 392
#     4  10  21  37  60  94 136 179 219 262 321 393
#     4  11  22  39  64  94 130 169 219 273 324 385
#
# _framework density 22.587364000000001
#
# number of rings (size 3 to 8) (size 9 to 14) (size 15 to 20)
#    0.000    1.400    0.000    7.200    0.000    3.200 
#    0.000   10.000    0.000    0.000    0.000    0.000 
#    0.000    0.000    0.000    0.000    0.000    0.000 
#
# Total GULP energy -495560.978090 kJ/mol
# GULP energy per Si atom -12389.024452 kJ/mol
# Density = 2.253595 g / cm^3
# Si number density = 22.587364 Si / 1000 Ang^3
#
#
#
# Elastic Constant Matrix: (Units=GPa)
#
#
# Indices 1 2 3 4 5 6 
#
# 1 207.7720 55.4437 62.1098 0.0000 0.0000 0.0000
# 2 55.4437 89.1296 36.1174 0.0000 0.0000 0.0000
# 3 62.1098 36.1174 101.8187 0.0000 0.0000 0.0000
# 4 0.0000 0.0000 0.0000 33.8159 0.0000 0.0000
# 5 0.0000 0.0000 0.0000 0.0000 30.4536 0.0000
# 6 0.0000 0.0000 0.0000 0.0000 0.0000 21.4010
#
#
#
# Elastic Compliance Matrix: (Units=1/GPa)
#
#
# Indices 1 2 3 4 5 6 
#
# 1 0.006441 -0.002820 -0.002929 0.000000 0.000000 0.000000
# 2 -0.002820 0.014338 -0.003366 0.000000 0.000000 0.000000
# 3 -0.002929 -0.003366 0.012802 0.000000 0.000000 0.000000
# 4 0.000000 0.000000 0.000000 0.029572 0.000000 0.000000
# 5 0.000000 0.000000 0.000000 0.000000 0.032837 0.000000
# 6 0.000000 0.000000 0.000000 0.000000 0.000000 0.046727
#
#
# Mechanical properties :
#
#
# Convention : Reuss Voigt Hill
#
# Bulk Modulus (GPa) = 65.13938 78.45135 71.79536
# Shear Modulus (GPa) = 30.10928 33.47074 31.79001
#
# Velocity S-wave (km/s) = 3.65501 3.85364 3.75564
# Velocity P-wave (km/s) = 6.83473 7.38976 7.11766
#
# Compressibility (1/GPa) = 0.01535170
#
# Stress axis : x y z
#
# Youngs Moduli (GPa) = 155.25713 69.74673 78.11388
#
# Poissons Ratio (x) = 0.19667 0.22877
# Poissons Ratio (y) = 0.43780 0.26291
# Poissons Ratio (z) = 0.45471 0.23475
#
# Static dielectric constant tensor:
#      x y z
#    x 4.186140 0.000000 0.000000 
#    y 0.000000 4.122150 0.000000 
#    z 0.000000 0.000000 4.347240 
# 
# 
# High freq. dielectric constant tensor:
#      x y z
#    x 1.882570 0.000000 0.000000 
#    y 0.000000 1.899450 0.000000 
#    z 0.000000 0.000000 1.898270 
# 
# From -- ./inp_files/27910.got.cif
#   From: 2010.03.12/outbox.cif.g09.slc.cpg/sg64_14_cif.got.tgz:27910.got - 2010.04.10 20:19:32.
