data_PCOD8263193
_publ_section_title
;
Structure prediction by ZEFSAII (Michael W. Deem and Ramdas Pophale) SiO2 
 PCOD8263193
Probable space group: C M C A
;
_chemical_formula_sum "Si O2"
_cell_formula_units_Z 72
_cell_length_a 9.050934
_cell_length_b 16.272056
_cell_length_c 21.125321
_cell_angle_alpha 90.000000
_cell_angle_beta 90.000000
_cell_angle_gamma 90.000000
_cell_volume 3111.280342
_symmetry_space_group_name_H-M "C M C A"
_symmetry_group_IT_number 64
_symmetry_cell_setting 'orthorhombic'
loop_
_space_group_symop_operation_xyz
x,y,z
-x,1/2-y,1/2+z
x,-y,-z
-x,1/2+y,1/2-z
-x,-y,-z
x,1/2+y,1/2-z
-x,y,z
x,1/2-y,1/2+z
1/2+x,1/2+y,z
1/2-x,-y,1/2+z
1/2+x,1/2-y,-z
1/2-x,y,1/2-z
1/2-x,1/2-y,-z
1/2+x,y,1/2-z
1/2-x,1/2+y,z
1/2+x,-y,1/2+z
loop_
_atom_site_type_symbol
_atom_site_label
_atom_site_fract_x
_atom_site_fract_y
_atom_site_fract_z
Si Si1 0.500000 0.931287 0.332373
Si Si2 0.500000 0.601695 0.203423
Si Si3 0.747036 0.153275 0.125386
Si Si4 0.000000 0.838311 0.337458
Si Si5 0.000000 0.714333 0.450092
Si Si6 0.250000 0.360943 0.250000
Si Si7 0.500000 0.535046 0.345404
Si Si8 0.000000 0.227199 0.904373
O O1 0.646301 0.919717 0.290950
O O2 0.500000 0.870734 0.392681
O O3 0.500000 0.027437 0.349242
O O4 0.352805 0.653888 0.187608
O O5 0.500000 0.570435 0.274391
O O6 0.646523 0.071016 0.120197
O O7 0.642282 0.233386 0.129574
O O8 0.852398 0.160892 0.063382
O O9 0.000000 0.794716 0.405037
O O10 0.855998 0.809167 0.297229
O O11 0.000000 0.937020 0.347914
O O12 0.000000 0.746238 0.521440
#
# Coordination Sequence:
#
# PCOD8263193 Si02
#       8
#     8   8  16   8   8   8   8   8
#     4  11  22  40  68  93 127 170 224 250 334 388
#     4  11  21  41  62  94 136 167 199 270 335 403
#     4  10  24  41  61  96 128 163 219 258 339 375
#     4  11  22  40  68  93 127 170 224 250 334 388
#     4  11  24  48  66  90 133 179 225 274 308 375
#     4  10  20  36  58  96 126 150 216 266 308 396
#     4  11  21  41  62  94 136 167 199 270 335 403
#     4  11  24  48  66  90 133 179 225 274 308 375
#
# _framework density 23.141598999999999
#
# number of rings (size 3 to 8) (size 9 to 14) (size 15 to 20)
#    0.000    1.333    2.222    4.000    0.000    0.000 
#   40.000    6.667    0.000    0.000    0.000    0.000 
#    0.000    0.000    0.000    0.000    0.000    0.000 
#
# Total GULP energy -446167.609898 kJ/mol
# GULP energy per Si atom -12393.544719 kJ/mol
# Density = 2.308893 g / cm^3
# Si number density = 23.141599 Si / 1000 Ang^3
#
#
#
# Elastic Constant Matrix: (Units=GPa)
#
#
# Indices 1 2 3 4 5 6 
#
# 1 186.3387 44.8671 55.8586 0.0000 0.0000 0.0000
# 2 44.8671 122.8714 65.6106 0.0000 0.0000 0.0000
# 3 55.8586 65.6106 113.9475 0.0000 0.0000 0.0000
# 4 0.0000 0.0000 0.0000 24.8213 0.0000 0.0000
# 5 0.0000 0.0000 0.0000 0.0000 -34.4692 0.0000
# 6 0.0000 0.0000 0.0000 0.0000 0.0000 20.0933
#
#
#
# Elastic Compliance Matrix: (Units=1/GPa)
#
#
# Indices 1 2 3 4 5 6 
#
# 1 0.006367 -0.000951 -0.002574 0.000000 0.000000 0.000000
# 2 -0.000951 0.011894 -0.006382 0.000000 0.000000 0.000000
# 3 -0.002574 -0.006382 0.013713 0.000000 0.000000 0.000000
# 4 0.000000 0.000000 0.000000 0.040288 0.000000 0.000000
# 5 0.000000 0.000000 0.000000 0.000000 -0.029011 0.000000
# 6 0.000000 0.000000 0.000000 0.000000 0.000000 0.049768
#
#
# Mechanical properties :
#
#
# Convention : Reuss Voigt Hill
#
# Bulk Modulus (GPa) = 82.23830 83.98115 83.10972
# Shear Modulus (GPa) = 42.77718 19.21050 30.99384
#
# Velocity S-wave (km/s) = 4.30408 2.88432 3.66363
# Velocity P-wave (km/s) = 7.76623 6.88922 7.34083
#
# Compressibility (1/GPa) = 0.01215978
#
# Stress axis : x y z
#
# Youngs Moduli (GPa) = 157.05939 84.07779 72.92518
#
# Poissons Ratio (x) = 0.07992 0.18770
# Poissons Ratio (y) = 0.14929 0.46544
# Poissons Ratio (z) = 0.40425 0.53662
#
# Static dielectric constant tensor:
#      x y z
#    x 4.986990 0.000000 0.000000 
#    y 0.000000 4.108540 0.000000 
#    z 0.000000 0.000000 3.698720 
# 
# 
# High freq. dielectric constant tensor:
#      x y z
#    x 1.951060 0.000000 0.000000 
#    y 0.000000 1.912690 0.000000 
#    z 0.000000 0.000000 1.868670 
# 
# From -- ./inp_files/42693.got.cif
#   From: 2010.03.12/outbox.cif.g09.slc.cpg/sg64_22_cif.got.tgz:42693.got - 2010.04.10 20:19:32.
