data_PCOD8263154
_publ_section_title
;
Structure prediction by ZEFSAII (Michael W. Deem and Ramdas Pophale) SiO2 
 PCOD8263154
Probable space group: C M C A
;
_chemical_formula_sum "Si O2"
_cell_formula_units_Z 112
_cell_length_a 16.620635
_cell_length_b 30.420433
_cell_length_c 11.396239
_cell_angle_alpha 90.000000
_cell_angle_beta 90.000000
_cell_angle_gamma 90.000000
_cell_volume 5762.017226
_symmetry_space_group_name_H-M "C M C A"
_symmetry_group_IT_number 64
_symmetry_cell_setting 'orthorhombic'
loop_
_space_group_symop_operation_xyz
x,y,z
-x,1/2-y,1/2+z
x,-y,-z
-x,1/2+y,1/2-z
-x,-y,-z
x,1/2+y,1/2-z
-x,y,z
x,1/2-y,1/2+z
1/2+x,1/2+y,z
1/2-x,-y,1/2+z
1/2+x,1/2-y,-z
1/2-x,y,1/2-z
1/2-x,1/2-y,-z
1/2+x,y,1/2-z
1/2-x,1/2+y,z
1/2+x,-y,1/2+z
loop_
_atom_site_type_symbol
_atom_site_label
_atom_site_fract_x
_atom_site_fract_y
_atom_site_fract_z
Si Si1 0.410649 0.836780 0.827199
Si Si2 0.409116 0.782574 0.600184
Si Si3 0.784949 0.593415 0.137807
Si Si4 0.145925 0.187551 0.579690
Si Si5 0.910820 0.948996 0.470833
Si Si6 0.814361 0.145670 0.958853
Si Si7 0.409195 0.112146 0.758689
O O1 0.500000 0.858643 0.823385
O O2 0.406117 0.798506 0.733040
O O3 0.338915 0.869864 0.797969
O O4 0.394677 0.817036 0.954117
O O5 0.500000 0.771339 0.561072
O O6 0.355306 0.739000 0.607337
O O7 0.377052 0.818962 0.509174
O O8 0.750000 0.566273 0.250000
O O9 0.843925 0.565636 0.060136
O O10 0.712322 0.612090 0.060063
O O11 0.237683 0.171963 0.588539
O O12 0.095579 0.157554 0.669080
O O13 0.885701 0.930576 0.340947
O O14 0.000000 0.928966 0.495549
O O15 0.914805 0.000000 0.500000
O O16 0.851953 0.115939 0.854822
O O17 0.500000 0.105952 0.713085
#
# Coordination Sequence:
#
# PCOD8263154 Si02
#       7
#    16  16  16  16  16  16  16
#     4  10  20  36  58  78 110 159 207 255 297 353
#     4  11  23  37  54  83 122 167 216 262 305 356
#     4  11  21  40  61  89 122 156 199 248 308 370
#     4  11  23  37  58  82 118 163 217 261 303 359
#     4  10  22  43  71  96 118 155 204 251 306 383
#     4  11  23  39  58  87 124 161 203 258 316 365
#     4  11  22  40  63  89 122 160 205 257 315 377
#
# _framework density 19.437636999999999
#
# number of rings (size 3 to 8) (size 9 to 14) (size 15 to 20)
#    0.000    1.286    4.286    3.000    2.000    0.000 
#    7.714    0.000    0.000    0.000    0.000    3.000 
#    0.000    0.000    0.000    0.000    0.000    0.000 
#
# Total GULP energy -693918.071275 kJ/mol
# GULP energy per Si atom -12391.394130 kJ/mol
# Density = 1.939340 g / cm^3
# Si number density = 19.437637 Si / 1000 Ang^3
#
#
#
# Elastic Constant Matrix: (Units=GPa)
#
#
# Indices 1 2 3 4 5 6 
#
# 1 107.4667 24.8494 68.1806 0.0000 0.0000 0.0000
# 2 24.8494 69.6217 39.9752 0.0000 0.0000 0.0000
# 3 68.1806 39.9752 118.3158 0.0000 0.0000 0.0000
# 4 0.0000 0.0000 0.0000 1.5136 0.0000 0.0000
# 5 0.0000 0.0000 0.0000 0.0000 38.0050 0.0000
# 6 0.0000 0.0000 0.0000 0.0000 0.0000 42.5607
#
#
#
# Elastic Compliance Matrix: (Units=1/GPa)
#
#
# Indices 1 2 3 4 5 6 
#
# 1 0.014680 -0.000474 -0.008299 0.000000 0.000000 0.000000
# 2 -0.000474 0.017836 -0.005753 0.000000 0.000000 0.000000
# 3 -0.008299 -0.005753 0.015178 0.000000 0.000000 0.000000
# 4 0.000000 0.000000 0.000000 0.660674 0.000000 0.000000
# 5 0.000000 0.000000 0.000000 0.000000 0.026312 0.000000
# 6 0.000000 0.000000 0.000000 0.000000 0.000000 0.023496
#
#
# Mechanical properties :
#
#
# Convention : Reuss Voigt Hill
#
# Bulk Modulus (GPa) = 53.64453 62.37939 58.01196
# Shear Modulus (GPa) = 6.30165 27.24245 16.77205
#
# Velocity S-wave (km/s) = 1.80250 3.74776 2.94064
# Velocity P-wave (km/s) = 5.65599 7.13368 6.43738
#
# Compressibility (1/GPa) = 0.01864123
#
# Stress axis : x y z
#
# Youngs Moduli (GPa) = 68.11830 56.06710 65.88373
#
# Poissons Ratio (x) = 0.02660 0.54680
# Poissons Ratio (y) = 0.03231 0.37901
# Poissons Ratio (z) = 0.56534 0.32254
#
# Static dielectric constant tensor:
#      x y z
#    x 3.897190 0.000000 0.000000 
#    y 0.000000 3.508290 0.000000 
#    z 0.000000 0.000000 3.622120 
# 
# 
# High freq. dielectric constant tensor:
#      x y z
#    x 1.775500 0.000000 0.000000 
#    y 0.000000 1.726500 0.000000 
#    z 0.000000 0.000000 1.764520 
# 
# From -- ./inp_files/14947.got.cif
#   From: 2010.03.12/outbox.cif.g09.slc.cpg/sg64_8_cif.got.tgz:14947.got - 2010.04.10 20:19:32.
