data_PCOD8263308
_publ_section_title
;
Structure prediction by ZEFSAII (Michael W. Deem and Ramdas Pophale) SiO2 
 PCOD8263308
Probable space group: C M C A
;
_chemical_formula_sum "Si O2"
_cell_formula_units_Z 96
_cell_length_a 9.188608
_cell_length_b 19.281852
_cell_length_c 29.387503
_cell_angle_alpha 90.000000
_cell_angle_beta 90.000000
_cell_angle_gamma 90.000000
_cell_volume 5206.683223
_symmetry_space_group_name_H-M "C M C A"
_symmetry_group_IT_number 64
_symmetry_cell_setting 'orthorhombic'
loop_
_space_group_symop_operation_xyz
x,y,z
-x,1/2-y,1/2+z
x,-y,-z
-x,1/2+y,1/2-z
-x,-y,-z
x,1/2+y,1/2-z
-x,y,z
x,1/2-y,1/2+z
1/2+x,1/2+y,z
1/2-x,-y,1/2+z
1/2+x,1/2-y,-z
1/2-x,y,1/2-z
1/2-x,1/2-y,-z
1/2+x,y,1/2-z
1/2-x,1/2+y,z
1/2+x,-y,1/2+z
loop_
_atom_site_type_symbol
_atom_site_label
_atom_site_fract_x
_atom_site_fract_y
_atom_site_fract_z
Si Si1 0.338051 0.567814 0.029722
Si Si2 0.671383 0.005749 0.375729
Si Si3 0.670688 0.263637 0.295798
Si Si4 0.171344 0.860247 0.378904
Si Si5 0.171367 0.315769 0.020648
Si Si6 0.829825 0.605374 0.295011
O O1 0.500000 0.602340 0.032334
O O2 0.281111 0.546842 0.079305
O O3 0.220405 0.618339 0.008257
O O4 0.348400 0.500000 0.000000
O O5 0.500000 0.991076 0.375931
O O6 0.751201 0.933042 0.371822
O O7 0.721820 0.054750 0.334780
O O8 0.500000 0.271532 0.287382
O O9 0.750000 0.289569 0.250000
O O10 0.722362 0.309432 0.338498
O O11 0.713926 0.184345 0.307109
O O12 0.217449 0.825662 0.426746
O O13 0.000000 0.873307 0.377759
O O14 0.000000 0.306178 0.015747
O O15 0.250000 0.250000 0.000000
O O16 0.750000 0.579443 0.250000
O O17 0.000000 0.599395 0.286375
#
# Coordination Sequence:
#
# PCOD8263308 Si02
#       6
#    16  16  16  16  16  16
#     4  10  20  37  60  83 113 150 187 228 276 329
#     4  10  21  36  58  84 111 148 185 226 277 332
#     4   9  19  37  58  80 107 143 183 226 277 328
#     4  10  22  38  57  81 113 148 183 229 278 328
#     4  11  24  39  58  84 115 151 189 232 280 332
#     4   9  19  36  58  81 108 142 183 227 276 331
#
# _framework density 18.437840999999999
#
# number of rings (size 3 to 8) (size 9 to 14) (size 15 to 20)
#    0.000    2.167    1.667    0.500    2.333    3.667 
#    0.000    3.333    0.000    0.000    0.000    0.000 
#    0.000    0.000    0.000    0.000    0.000    0.000 
#
# Total GULP energy -595297.722045 kJ/mol
# GULP energy per Si atom -12402.035876 kJ/mol
# Density = 1.839588 g / cm^3
# Si number density = 18.437841 Si / 1000 Ang^3
#
#
#
# Elastic Constant Matrix: (Units=GPa)
#
#
# Indices 1 2 3 4 5 6 
#
# 1 47.0147 52.6715 57.0367 0.0000 0.0000 0.0000
# 2 52.6715 117.9572 97.6008 0.0000 0.0000 0.0000
# 3 57.0367 97.6008 193.4572 0.0000 0.0000 0.0000
# 4 0.0000 0.0000 0.0000 36.1915 0.0000 0.0000
# 5 0.0000 0.0000 0.0000 0.0000 26.2370 0.0000
# 6 0.0000 0.0000 0.0000 0.0000 0.0000 36.9450
#
#
#
# Elastic Compliance Matrix: (Units=1/GPa)
#
#
# Indices 1 2 3 4 5 6 
#
# 1 0.045685 -0.015887 -0.005454 0.000000 0.000000 0.000000
# 2 -0.015887 0.020077 -0.005445 0.000000 0.000000 0.000000
# 3 -0.005454 -0.005445 0.009524 0.000000 0.000000 0.000000
# 4 0.000000 0.000000 0.000000 0.027631 0.000000 0.000000
# 5 0.000000 0.000000 0.000000 0.000000 0.038114 0.000000
# 6 0.000000 0.000000 0.000000 0.000000 0.000000 0.027067
#
#
# Mechanical properties :
#
#
# Convention : Reuss Voigt Hill
#
# Bulk Modulus (GPa) = 46.05308 85.89412 65.97360
# Shear Modulus (GPa) = 21.84271 29.94938 25.89604
#
# Velocity S-wave (km/s) = 3.44563 4.03469 3.75174
# Velocity P-wave (km/s) = 6.39230 8.26994 7.39099
#
# Compressibility (1/GPa) = 0.02171408
#
# Stress axis : x y z
#
# Youngs Moduli (GPa) = 21.88891 49.80805 104.99455
#
# Poissons Ratio (x) = 0.79129 0.57267
# Poissons Ratio (y) = 0.34775 0.57171
# Poissons Ratio (z) = 0.11939 0.27121
#
# Static dielectric constant tensor:
#      x y z
#    x 3.445380 0.000000 0.000000 
#    y 0.000000 3.360500 0.000000 
#    z 0.000000 0.000000 3.640010 
# 
# 
# High freq. dielectric constant tensor:
#      x y z
#    x 1.708580 0.000000 0.000000 
#    y 0.000000 1.717870 0.000000 
#    z 0.000000 0.000000 1.729530 
# 
# From -- ./inp_files/48127.got.cif
#   From: 2010.03.12/outbox.cif.g09.slc.cpg/sg64_25_cif.got.tgz:48127.got - 2010.04.10 20:19:32.
