data_PCOD8263344
_publ_section_title
;
Structure prediction by ZEFSAII (Michael W. Deem and Ramdas Pophale) SiO2 
 PCOD8263344
Probable space group: C M C A
;
_chemical_formula_sum "Si O2"
_cell_formula_units_Z 88
_cell_length_a 19.913961
_cell_length_b 15.225951
_cell_length_c 14.354003
_cell_angle_alpha 90.000000
_cell_angle_beta 90.000000
_cell_angle_gamma 90.000000
_cell_volume 4352.262815
_symmetry_space_group_name_H-M "C M C A"
_symmetry_group_IT_number 64
_symmetry_cell_setting 'orthorhombic'
loop_
_space_group_symop_operation_xyz
x,y,z
-x,1/2-y,1/2+z
x,-y,-z
-x,1/2+y,1/2-z
-x,-y,-z
x,1/2+y,1/2-z
-x,y,z
x,1/2-y,1/2+z
1/2+x,1/2+y,z
1/2-x,-y,1/2+z
1/2+x,1/2-y,-z
1/2-x,y,1/2-z
1/2-x,1/2-y,-z
1/2+x,y,1/2-z
1/2-x,1/2+y,z
1/2+x,-y,1/2+z
loop_
_atom_site_type_symbol
_atom_site_label
_atom_site_fract_x
_atom_site_fract_y
_atom_site_fract_z
Si Si1 0.576354 0.808415 0.131466
Si Si2 0.175395 0.269583 0.287127
Si Si3 0.859220 0.139726 0.450756
Si Si4 0.314321 0.966227 0.314652
Si Si5 0.753766 0.500000 0.000000
Si Si6 0.574632 0.489369 0.684783
O O1 0.500000 0.773620 0.138458
O O2 0.621782 0.752756 0.203717
O O3 0.581433 0.910962 0.152919
O O4 0.603479 0.798372 0.025895
O O5 0.250000 0.258656 0.250000
O O6 0.167844 0.200718 0.369188
O O7 0.161921 0.366251 0.328164
O O8 0.798861 0.088078 0.502685
O O9 0.909797 0.069653 0.405153
O O10 0.250000 0.970541 0.250000
O O11 0.295356 0.007189 0.412750
O O12 0.372947 0.026036 0.269082
O O13 0.500000 0.467731 0.721043
#
# Coordination Sequence:
#
# PCOD8263344 Si02
#       6
#    16  16  16  16   8  16
#     4  10  21  40  62  87 121 159 198 249 307 363
#     4  10  24  39  59  86 126 161 198 248 312 369
#     4  12  21  37  63  96 120 159 210 259 305 365
#     4  10  20  41  58  87 124 157 200 251 305 368
#     4  12  22  34  66  92 120 160 208 258 308 350
#     4  10  20  37  62  88 117 156 203 255 302 354
#
# _framework density 20.219366999999998
#
# number of rings (size 3 to 8) (size 9 to 14) (size 15 to 20)
#    0.000    1.455    3.636    2.727    2.545    5.818 
#    0.000    0.455    0.000    0.000    0.000    0.000 
#    0.000    0.000    0.000    0.000    0.000    0.000 
#
# Total GULP energy -545673.037203 kJ/mol
# GULP energy per Si atom -12401.659936 kJ/mol
# Density = 2.017335 g / cm^3
# Si number density = 20.219367 Si / 1000 Ang^3
#
#
#
# Elastic Constant Matrix: (Units=GPa)
#
#
# Indices 1 2 3 4 5 6 
#
# 1 131.3827 14.9743 54.7019 0.0000 0.0000 0.0000
# 2 14.9743 18.3466 14.7421 0.0000 0.0000 0.0000
# 3 54.7019 14.7421 117.1439 0.0000 0.0000 0.0000
# 4 0.0000 0.0000 0.0000 32.6759 0.0000 0.0000
# 5 0.0000 0.0000 0.0000 0.0000 35.6136 0.0000
# 6 0.0000 0.0000 0.0000 0.0000 0.0000 5.1396
#
#
#
# Elastic Compliance Matrix: (Units=1/GPa)
#
#
# Indices 1 2 3 4 5 6 
#
# 1 0.009816 -0.004816 -0.003978 0.000000 0.000000 0.000000
# 2 -0.004816 0.063000 -0.005680 0.000000 0.000000 0.000000
# 3 -0.003978 -0.005680 0.011109 0.000000 0.000000 0.000000
# 4 0.000000 0.000000 0.000000 0.030604 0.000000 0.000000
# 5 0.000000 0.000000 0.000000 0.000000 0.028079 0.000000
# 6 0.000000 0.000000 0.000000 0.000000 0.000000 0.194569
#
#
# Mechanical properties :
#
#
# Convention : Reuss Voigt Hill
#
# Bulk Modulus (GPa) = 18.18871 48.41221 33.30046
# Shear Modulus (GPa) = 13.00561 26.84949 19.92755
#
# Velocity S-wave (km/s) = 2.53894 3.64800 3.14278
# Velocity P-wave (km/s) = 4.19645 6.46060 5.44745
#
# Compressibility (1/GPa) = 0.05497917
#
# Stress axis : x y z
#
# Youngs Moduli (GPa) = 101.87010 15.87294 90.01883
#
# Poissons Ratio (x) = 0.07644 0.35808
# Poissons Ratio (y) = 0.49058 0.51127
# Poissons Ratio (z) = 0.40523 0.09015
#
# Static dielectric constant tensor:
#      x y z
#    x 3.907420 0.000000 0.000000 
#    y 0.000000 3.538410 0.000000 
#    z 0.000000 0.000000 3.616380 
# 
# 
# High freq. dielectric constant tensor:
#      x y z
#    x 1.792620 0.000000 0.000000 
#    y 0.000000 1.765920 0.000000 
#    z 0.000000 0.000000 1.791380 
# 
# From -- ./inp_files/26188.got.cif
#   From: 2010.03.12/outbox.cif.g09.slc.cpg/sg64_14_cif.got.tgz:26188.got - 2010.04.10 20:19:32.
