data_PCOD8263242
_publ_section_title
;
Structure prediction by ZEFSAII (Michael W. Deem and Ramdas Pophale) SiO2 
 PCOD8263242
Probable space group: C M C A
;
_chemical_formula_sum "Si O2"
_cell_formula_units_Z 72
_cell_length_a 19.190699
_cell_length_b 19.133406
_cell_length_c 9.043455
_cell_angle_alpha 90.000000
_cell_angle_beta 90.000000
_cell_angle_gamma 90.000000
_cell_volume 3320.606875
_symmetry_space_group_name_H-M "C M C A"
_symmetry_group_IT_number 64
_symmetry_cell_setting 'orthorhombic'
loop_
_space_group_symop_operation_xyz
x,y,z
-x,1/2-y,1/2+z
x,-y,-z
-x,1/2+y,1/2-z
-x,-y,-z
x,1/2+y,1/2-z
-x,y,z
x,1/2-y,1/2+z
1/2+x,1/2+y,z
1/2-x,-y,1/2+z
1/2+x,1/2-y,-z
1/2-x,y,1/2-z
1/2-x,1/2-y,-z
1/2+x,y,1/2-z
1/2-x,1/2+y,z
1/2+x,-y,1/2+z
loop_
_atom_site_type_symbol
_atom_site_label
_atom_site_fract_x
_atom_site_fract_y
_atom_site_fract_z
Si Si1 0.581350 0.126277 0.051510
Si Si2 0.821948 0.125333 0.189543
Si Si3 0.659590 0.500000 0.000000
Si Si4 0.920993 0.788038 0.011150
Si Si5 0.420817 0.090410 0.729767
O O1 0.500000 0.109424 0.079763
O O2 0.595319 0.208912 0.050840
O O3 0.608198 0.093251 0.897092
O O4 0.628903 0.093870 0.180829
O O5 0.750000 0.158217 0.250000
O O6 0.865764 0.185388 0.108935
O O7 0.797943 0.062690 0.077968
O O8 0.614444 0.468059 0.131300
O O9 0.000000 0.796049 0.947148
O O10 0.912681 0.832311 0.161069
O O11 0.500000 0.067353 0.737600
#
# Coordination Sequence:
#
# PCOD8263242 Si02
#       5
#    16  16   8  16  16
#     4  10  20  36  61  90 114 142 188 241 292 350
#     4  11  24  39  58  84 116 157 198 238 284 338
#     4  10  23  40  52  72 115 162 198 238 292 340
#     4   9  18  37  62  88 119 149 180 231 300 357
#     4   9  18  33  57  84 109 144 189 240 292 344
#
# _framework density 21.682784000000002
#
# number of rings (size 3 to 8) (size 9 to 14) (size 15 to 20)
#    0.000    2.222    0.000    2.333    0.000    9.778 
#    0.000    5.556    0.000    0.000    0.000    0.000 
#    0.000    0.000    0.000    0.000    0.000    0.000 
#
# Total GULP energy -446258.258257 kJ/mol
# GULP energy per Si atom -12396.062729 kJ/mol
# Density = 2.163343 g / cm^3
# Si number density = 21.682784 Si / 1000 Ang^3
#
#
#
# Elastic Constant Matrix: (Units=GPa)
#
#
# Indices 1 2 3 4 5 6 
#
# 1 90.4196 8.9889 43.6218 0.0000 0.0000 0.0000
# 2 8.9889 58.4308 7.6373 0.0000 0.0000 0.0000
# 3 43.6218 7.6373 110.3922 0.0000 0.0000 0.0000
# 4 0.0000 0.0000 0.0000 30.8614 0.0000 0.0000
# 5 0.0000 0.0000 0.0000 0.0000 24.8686 0.0000
# 6 0.0000 0.0000 0.0000 0.0000 0.0000 9.6285
#
#
#
# Elastic Compliance Matrix: (Units=1/GPa)
#
#
# Indices 1 2 3 4 5 6 
#
# 1 0.013780 -0.001421 -0.005347 0.000000 0.000000 0.000000
# 2 -0.001421 0.017417 -0.000643 0.000000 0.000000 0.000000
# 3 -0.005347 -0.000643 0.011216 0.000000 0.000000 0.000000
# 4 0.000000 0.000000 0.000000 0.032403 0.000000 0.000000
# 5 0.000000 0.000000 0.000000 0.000000 0.040211 0.000000
# 6 0.000000 0.000000 0.000000 0.000000 0.000000 0.103859
#
#
# Mechanical properties :
#
#
# Convention : Reuss Voigt Hill
#
# Bulk Modulus (GPa) = 36.24455 42.19317 39.21886
# Shear Modulus (GPa) = 20.58405 26.33800 23.46103
#
# Velocity S-wave (km/s) = 3.08446 3.48903 3.29296
# Velocity P-wave (km/s) = 5.42561 5.97768 5.70832
#
# Compressibility (1/GPa) = 0.02759036
#
# Stress axis : x y z
#
# Youngs Moduli (GPa) = 72.56663 57.41521 89.15810
#
# Poissons Ratio (x) = 0.08159 0.47673
# Poissons Ratio (y) = 0.10312 0.05737
# Poissons Ratio (z) = 0.38802 0.03694
#
# Static dielectric constant tensor:
#      x y z
#    x 3.543200 0.000000 0.000000 
#    y 0.000000 3.807440 0.000000 
#    z 0.000000 0.000000 4.247160 
# 
# 
# High freq. dielectric constant tensor:
#      x y z
#    x 1.819100 0.000000 0.000000 
#    y 0.000000 1.847370 0.000000 
#    z 0.000000 0.000000 1.869860 
# 
# From -- ./inp_files/6842.got.cif
#   From: 2010.03.12/outbox.cif.g09.slc.cpg/sg64_4_cif.got.tgz:6842.got - 2010.04.10 20:19:32.
