data_PCOD8263288
_publ_section_title
;
Structure prediction by ZEFSAII (Michael W. Deem and Ramdas Pophale) SiO2 
 PCOD8263288
Probable space group: C M C A
;
_chemical_formula_sum "Si O2"
_cell_formula_units_Z 64
_cell_length_a 9.340346
_cell_length_b 25.481443
_cell_length_c 14.648465
_cell_angle_alpha 90.000000
_cell_angle_beta 90.000000
_cell_angle_gamma 90.000000
_cell_volume 3486.415152
_symmetry_space_group_name_H-M "C M C A"
_symmetry_group_IT_number 64
_symmetry_cell_setting 'orthorhombic'
loop_
_space_group_symop_operation_xyz
x,y,z
-x,1/2-y,1/2+z
x,-y,-z
-x,1/2+y,1/2-z
-x,-y,-z
x,1/2+y,1/2-z
-x,y,z
x,1/2-y,1/2+z
1/2+x,1/2+y,z
1/2-x,-y,1/2+z
1/2+x,1/2-y,-z
1/2-x,y,1/2-z
1/2-x,1/2-y,-z
1/2+x,y,1/2-z
1/2-x,1/2+y,z
1/2+x,-y,1/2+z
loop_
_atom_site_type_symbol
_atom_site_label
_atom_site_fract_x
_atom_site_fract_y
_atom_site_fract_z
Si Si1 0.500000 0.246994 0.876261
Si Si2 0.500000 0.861217 0.654899
Si Si3 0.750000 0.422200 0.750000
Si Si4 0.721603 0.158797 0.852786
Si Si5 0.500000 0.582239 0.559885
Si Si6 0.500000 0.965443 0.867840
Si Si7 0.000000 0.321412 0.466488
O O1 0.500000 0.299835 0.814819
O O2 0.638262 0.213491 0.851522
O O3 0.500000 0.263991 0.983976
O O4 0.353661 0.886524 0.689446
O O5 0.500000 0.866192 0.544885
O O6 0.646516 0.458003 0.688559
O O7 0.750000 0.139019 0.750000
O O8 0.639795 0.113458 0.907762
O O9 0.867068 0.171276 0.902012
O O10 0.500000 0.576710 0.450303
O O11 0.500000 0.524879 0.601497
#
# Coordination Sequence:
#
# PCOD8263288 Si02
#       7
#     8   8   8  16   8   8   8
#     4   9  22  35  56  84 119 159 192 234 291 348
#     4   9  21  34  59  86 115 151 190 244 295 344
#     4  10  20  40  60  90 112 150 196 260 284 360
#     4  11  22  39  58  89 123 158 201 240 291 363
#     4  10  23  41  60  87 119 166 185 251 304 363
#     4  10  22  41  65  85 119 150 206 244 312 346
#     4  10  20  37  58  83 118 157 196 239 287 346
#
# _framework density 18.356964999999999
#
# number of rings (size 3 to 8) (size 9 to 14) (size 15 to 20)
#    0.750    1.250    0.000    3.750    3.500    0.000 
#    0.000    0.000    0.000    6.000    0.000    0.000 
#    0.000    0.000    0.000    0.000    0.000    0.000 
#
# Total GULP energy -396664.320024 kJ/mol
# GULP energy per Si atom -12395.760001 kJ/mol
# Density = 1.831518 g / cm^3
# Si number density = 18.356965 Si / 1000 Ang^3
#
#
#
# Elastic Constant Matrix: (Units=GPa)
#
#
# Indices 1 2 3 4 5 6 
#
# 1 147.7623 32.1001 45.1412 0.0000 0.0000 0.0000
# 2 32.1001 76.3607 17.3136 0.0000 0.0000 0.0000
# 3 45.1412 17.3136 101.5432 0.0000 0.0000 0.0000
# 4 0.0000 0.0000 0.0000 25.7279 0.0000 0.0000
# 5 0.0000 0.0000 0.0000 0.0000 34.4742 0.0000
# 6 0.0000 0.0000 0.0000 0.0000 0.0000 13.9750
#
#
#
# Elastic Compliance Matrix: (Units=1/GPa)
#
#
# Indices 1 2 3 4 5 6 
#
# 1 0.008362 -0.002780 -0.003244 0.000000 0.000000 0.000000
# 2 -0.002780 0.014547 -0.001244 0.000000 0.000000 0.000000
# 3 -0.003244 -0.001244 0.011502 0.000000 0.000000 0.000000
# 4 0.000000 0.000000 0.000000 0.038868 0.000000 0.000000
# 5 0.000000 0.000000 0.000000 0.000000 0.029007 0.000000
# 6 0.000000 0.000000 0.000000 0.000000 0.000000 0.071556
#
#
# Mechanical properties :
#
#
# Convention : Reuss Voigt Hill
#
# Bulk Modulus (GPa) = 50.31380 57.19735 53.75558
# Shear Modulus (GPa) = 25.64053 30.24284 27.94169
#
# Velocity S-wave (km/s) = 3.74140 4.06333 3.90568
# Velocity P-wave (km/s) = 6.79206 7.29659 7.04884
#
# Compressibility (1/GPa) = 0.01987526
#
# Stress axis : x y z
#
# Youngs Moduli (GPa) = 119.58233 68.74504 86.94045
#
# Poissons Ratio (x) = 0.19111 0.28199
# Poissons Ratio (y) = 0.33243 0.10819
# Poissons Ratio (z) = 0.38787 0.08555
#
# Static dielectric constant tensor:
#      x y z
#    x 3.313570 0.000000 0.000000 
#    y 0.000000 3.276480 0.000000 
#    z 0.000000 0.000000 3.538360 
# 
# 
# High freq. dielectric constant tensor:
#      x y z
#    x 1.728130 0.000000 0.000000 
#    y 0.000000 1.705510 0.000000 
#    z 0.000000 0.000000 1.718610 
# 
# From -- ./inp_files/21082.got.cif
#   From: 2010.03.12/outbox.cif.g09.slc.cpg/sg64_11_cif.got.tgz:21082.got - 2010.04.10 20:19:32.
