data_PCOD8263017
_publ_section_title
;
Structure prediction by ZEFSAII (Michael W. Deem and Ramdas Pophale) SiO2 
 PCOD8263017
Probable space group: C M C A
;
_chemical_formula_sum "Si O2"
_cell_formula_units_Z 88
_cell_length_a 13.611678
_cell_length_b 17.127209
_cell_length_c 19.279313
_cell_angle_alpha 90.000000
_cell_angle_beta 90.000000
_cell_angle_gamma 90.000000
_cell_volume 4494.587280
_symmetry_space_group_name_H-M "C M C A"
_symmetry_group_IT_number 64
_symmetry_cell_setting 'orthorhombic'
loop_
_space_group_symop_operation_xyz
x,y,z
-x,1/2-y,1/2+z
x,-y,-z
-x,1/2+y,1/2-z
-x,-y,-z
x,1/2+y,1/2-z
-x,y,z
x,1/2-y,1/2+z
1/2+x,1/2+y,z
1/2-x,-y,1/2+z
1/2+x,1/2-y,-z
1/2-x,y,1/2-z
1/2-x,1/2-y,-z
1/2+x,y,1/2-z
1/2-x,1/2+y,z
1/2+x,-y,1/2+z
loop_
_atom_site_type_symbol
_atom_site_label
_atom_site_fract_x
_atom_site_fract_y
_atom_site_fract_z
Si Si1 0.387990 0.998873 0.665234
Si Si2 0.113038 0.908318 0.508420
Si Si3 0.891304 0.124321 0.949400
Si Si4 0.796588 0.634054 0.408876
Si Si5 0.793021 0.811238 0.388432
Si Si6 0.250000 0.396370 0.250000
O O1 0.500000 0.980056 0.686268
O O2 0.324777 0.919695 0.656733
O O3 0.381630 0.044202 0.592551
O O4 0.340326 0.050463 0.725528
O O5 0.182060 0.875338 0.570046
O O6 0.136769 0.864815 0.436047
O O7 0.000000 0.892814 0.528781
O O8 0.134229 0.000000 0.500000
O O9 0.817059 0.188645 0.919398
O O10 0.000000 0.160031 0.943057
O O11 0.866002 0.105755 0.028568
O O12 0.826253 0.721865 0.388711
O O13 0.794575 0.842637 0.310340
#
# Coordination Sequence:
#
# PCOD8263017 Si02
#       6
#    16  16  16  16  16   8
#     4  10  21  37  59  81 104 142 185 224 268 324
#     4  10  20  35  56  83 116 151 183 220 278 347
#     4   9  17  33  57  83 110 138 173 219 275 335
#     4  11  20  33  56  87 114 137 176 234 288 327
#     4  10  22  35  54  81 111 146 182 229 278 323
#     4  10  22  42  56  70 106 150 194 228 262 322
#
# _framework density 19.579104999999998
#
# number of rings (size 3 to 8) (size 9 to 14) (size 15 to 20)
#    0.000    2.000    0.000    6.545    0.000    6.545 
#    0.000    0.909    0.000    4.364    0.000    0.000 
#    0.000    0.000    0.000    0.000    0.000    0.000 
#
# Total GULP energy -545627.657212 kJ/mol
# GULP energy per Si atom -12400.628573 kJ/mol
# Density = 1.953454 g / cm^3
# Si number density = 19.579105 Si / 1000 Ang^3
#
#
#
# Elastic Constant Matrix: (Units=GPa)
#
#
# Indices 1 2 3 4 5 6 
#
# 1 124.9752 46.9706 41.3341 0.0000 0.0000 0.0000
# 2 46.9706 120.0929 38.1858 0.0000 0.0000 0.0000
# 3 41.3341 38.1858 79.6799 0.0000 0.0000 0.0000
# 4 0.0000 0.0000 0.0000 14.5711 0.0000 0.0000
# 5 0.0000 0.0000 0.0000 0.0000 18.1972 0.0000
# 6 0.0000 0.0000 0.0000 0.0000 0.0000 17.2194
#
#
#
# Elastic Compliance Matrix: (Units=1/GPa)
#
#
# Indices 1 2 3 4 5 6 
#
# 1 0.010386 -0.002771 -0.004060 0.000000 0.000000 0.000000
# 2 -0.002771 0.010563 -0.003625 0.000000 0.000000 0.000000
# 3 -0.004060 -0.003625 0.016393 0.000000 0.000000 0.000000
# 4 0.000000 0.000000 0.000000 0.068629 0.000000 0.000000
# 5 0.000000 0.000000 0.000000 0.000000 0.054954 0.000000
# 6 0.000000 0.000000 0.000000 0.000000 0.000000 0.058074
#
#
# Mechanical properties :
#
#
# Convention : Reuss Voigt Hill
#
# Bulk Modulus (GPa) = 60.85982 64.19212 62.52597
# Shear Modulus (GPa) = 20.37596 23.21470 21.79533
#
# Velocity S-wave (km/s) = 3.22949 3.44712 3.34007
# Velocity P-wave (km/s) = 6.71250 6.97859 6.84684
#
# Compressibility (1/GPa) = 0.01643120
#
# Stress axis : x y z
#
# Youngs Moduli (GPa) = 96.28547 94.66694 61.00065
#
# Poissons Ratio (x) = 0.26235 0.24764
# Poissons Ratio (y) = 0.26683 0.22111
# Poissons Ratio (z) = 0.39088 0.34315
#
# Static dielectric constant tensor:
#      x y z
#    x 3.771030 0.000000 0.000000 
#    y 0.000000 3.483890 0.000000 
#    z 0.000000 0.000000 3.364760 
# 
# 
# High freq. dielectric constant tensor:
#      x y z
#    x 1.766110 0.000000 0.000000 
#    y 0.000000 1.765930 0.000000 
#    z 0.000000 0.000000 1.738600 
# 
# From -- ./inp_files/32150.got.cif
#   From: 2010.03.12/outbox.cif.g09.slc.cpg/sg64_17_cif.got.tgz:32150.got - 2010.04.10 20:19:32.
