data_PCOD8263975
_publ_section_title
;
Structure prediction by ZEFSAII (Michael W. Deem and Ramdas Pophale) SiO2 
 PCOD8263975
Probable space group: C M C A
;
_chemical_formula_sum "Si O2"
_cell_formula_units_Z 64
_cell_length_a 14.970672
_cell_length_b 20.443826
_cell_length_c 9.721928
_cell_angle_alpha 90.000000
_cell_angle_beta 90.000000
_cell_angle_gamma 90.000000
_cell_volume 2975.472026
_symmetry_space_group_name_H-M "C M C A"
_symmetry_group_IT_number 64
_symmetry_cell_setting 'orthorhombic'
loop_
_space_group_symop_operation_xyz
x,y,z
-x,1/2-y,1/2+z
x,-y,-z
-x,1/2+y,1/2-z
-x,-y,-z
x,1/2+y,1/2-z
-x,y,z
x,1/2-y,1/2+z
1/2+x,1/2+y,z
1/2-x,-y,1/2+z
1/2+x,1/2-y,-z
1/2-x,y,1/2-z
1/2-x,1/2-y,-z
1/2+x,y,1/2-z
1/2-x,1/2+y,z
1/2+x,-y,1/2+z
loop_
_atom_site_type_symbol
_atom_site_label
_atom_site_fract_x
_atom_site_fract_y
_atom_site_fract_z
Si Si1 0.500000 0.891792 0.489994
Si Si2 0.000000 0.991043 0.776484
Si Si3 0.137335 0.210108 0.895139
Si Si4 0.845170 0.682594 0.902984
Si Si5 0.826893 0.965096 0.364967
O O1 0.500000 0.947114 0.375383
O O2 0.412193 0.848208 0.473183
O O3 0.500000 0.923185 0.640747
O O4 0.089532 0.991914 0.685281
O O5 0.110529 0.213483 0.734716
O O6 0.240184 0.193107 0.907035
O O7 0.112711 0.279495 0.966405
O O8 0.865273 0.605783 0.907137
O O9 0.750000 0.959239 0.250000
O O10 0.785588 0.000000 0.500000
#
# Coordination Sequence:
#
# PCOD8263975 Si02
#       5
#     8   8  16  16  16
#     4  11  22  39  71  99 131 175 228 270 342 395
#     4  11  25  43  67 101 142 175 228 283 334 408
#     4  10  21  39  64  92 131 173 216 279 320 406
#     4  10  21  42  62  93 132 170 221 269 341 387
#     4  12  26  45  71 100 139 182 226 281 346 409
#
# _framework density 21.509191999999999
#
# number of rings (size 3 to 8) (size 9 to 14) (size 15 to 20)
#    0.000    1.250    5.000    0.375    7.000    4.000 
#    4.500    0.000    0.000    0.000    0.000    0.000 
#    0.000    0.000    0.000    0.000    0.000    0.000 
#
# Total GULP energy -396820.155531 kJ/mol
# GULP energy per Si atom -12400.629860 kJ/mol
# Density = 2.146024 g / cm^3
# Si number density = 21.509192 Si / 1000 Ang^3
#
#
#
# Elastic Constant Matrix: (Units=GPa)
#
#
# Indices 1 2 3 4 5 6 
#
# 1 61.5393 35.0483 24.1238 0.0000 0.0000 0.0000
# 2 35.0483 130.7572 101.0236 0.0000 0.0000 0.0000
# 3 24.1238 101.0236 142.9593 0.0000 0.0000 0.0000
# 4 0.0000 0.0000 0.0000 46.9390 0.0000 0.0000
# 5 0.0000 0.0000 0.0000 0.0000 77.2550 0.0000
# 6 0.0000 0.0000 0.0000 0.0000 0.0000 32.9878
#
#
#
# Elastic Compliance Matrix: (Units=1/GPa)
#
#
# Indices 1 2 3 4 5 6 
#
# 1 0.019227 -0.005830 0.000875 0.000000 0.000000 0.000000
# 2 -0.005830 0.018612 -0.012168 0.000000 0.000000 0.000000
# 3 0.000875 -0.012168 0.015446 0.000000 0.000000 0.000000
# 4 0.000000 0.000000 0.000000 0.021304 0.000000 0.000000
# 5 0.000000 0.000000 0.000000 0.000000 0.012944 0.000000
# 6 0.000000 0.000000 0.000000 0.000000 0.000000 0.030314
#
#
# Mechanical properties :
#
#
# Convention : Reuss Voigt Hill
#
# Bulk Modulus (GPa) = 52.52404 72.84969 62.68687
# Shear Modulus (GPa) = 31.55772 43.10704 37.33238
#
# Velocity S-wave (km/s) = 3.83453 4.48160 4.17063
# Velocity P-wave (km/s) = 6.63906 7.79245 7.23876
#
# Compressibility (1/GPa) = 0.01903890
#
# Stress axis : x y z
#
# Youngs Moduli (GPa) = 52.01048 53.72947 64.74065
#
# Poissons Ratio (x) = 0.31323 -0.05666
# Poissons Ratio (y) = 0.30321 0.78779
# Poissons Ratio (z) = -0.04552 0.65380
#
# Static dielectric constant tensor:
#      x y z
#    x 3.726200 0.000000 0.000000 
#    y 0.000000 3.991950 0.000000 
#    z 0.000000 0.000000 4.373990 
# 
# 
# High freq. dielectric constant tensor:
#      x y z
#    x 1.839750 0.000000 0.000000 
#    y 0.000000 1.843330 0.000000 
#    z 0.000000 0.000000 1.848270 
# 
# From -- ./inp_files/5619.got.cif
#   From: 2010.03.12/outbox.cif.g09.slc.cpg/sg64_3_cif.got.tgz:5619.got - 2010.04.10 20:19:32.
