data_PCOD8263448
_publ_section_title
;
Structure prediction by ZEFSAII (Michael W. Deem and Ramdas Pophale) SiO2 
 PCOD8263448
Probable space group: C M C A
;
_chemical_formula_sum "Si O2"
_cell_formula_units_Z 104
_cell_length_a 17.731429
_cell_length_b 19.589387
_cell_length_c 14.736440
_cell_angle_alpha 90.000000
_cell_angle_beta 90.000000
_cell_angle_gamma 90.000000
_cell_volume 5118.670378
_symmetry_space_group_name_H-M "C M C A"
_symmetry_group_IT_number 64
_symmetry_cell_setting 'orthorhombic'
loop_
_space_group_symop_operation_xyz
x,y,z
-x,1/2-y,1/2+z
x,-y,-z
-x,1/2+y,1/2-z
-x,-y,-z
x,1/2+y,1/2-z
-x,y,z
x,1/2-y,1/2+z
1/2+x,1/2+y,z
1/2-x,-y,1/2+z
1/2+x,1/2-y,-z
1/2-x,y,1/2-z
1/2-x,1/2-y,-z
1/2+x,y,1/2-z
1/2-x,1/2+y,z
1/2+x,-y,1/2+z
loop_
_atom_site_type_symbol
_atom_site_label
_atom_site_fract_x
_atom_site_fract_y
_atom_site_fract_z
Si Si1 0.911640 0.577240 0.756088
Si Si2 0.817595 0.867393 0.094487
Si Si3 0.851735 0.674591 0.890087
Si Si4 0.913897 0.061004 0.179979
Si Si5 0.411226 0.793494 0.734106
Si Si6 0.354887 0.000000 0.500000
Si Si7 0.411925 0.756073 0.940206
O O1 0.863246 0.623036 0.687445
O O2 0.893764 0.605770 0.855854
O O3 0.884700 0.498512 0.748032
O O4 0.000000 0.584981 0.731341
O O5 0.737388 0.834691 0.113282
O O6 0.867749 0.814097 0.036574
O O7 0.804850 0.939312 0.042535
O O8 0.869680 0.737448 0.825033
O O9 0.881886 0.686412 0.991279
O O10 0.875256 0.133416 0.203142
O O11 0.000000 0.074066 0.201806
O O12 0.905929 0.035091 0.076895
O O13 0.500000 0.787162 0.714219
O O14 0.393625 0.782832 0.839828
O O15 0.500000 0.742511 0.955892
#
# Coordination Sequence:
#
# PCOD8263448 Si02
#       7
#    16  16  16  16  16   8  16
#     4  10  20  38  64  90 120 163 209 258 320 379
#     4  11  23  40  61  90 130 161 209 265 322 379
#     4  12  23  39  63  90 129 169 207 257 318 383
#     4   9  19  36  61  92 123 158 210 270 319 369
#     4  10  21  39  63  94 128 163 213 268 319 378
#     4  10  21  38  60  90 125 166 210 262 322 382
#     4  11  23  39  63  93 125 164 215 267 318 377
#
# _framework density 20.317777
#
# number of rings (size 3 to 8) (size 9 to 14) (size 15 to 20)
#    0.000    1.538    1.538    3.923    0.000    3.077 
#    2.769    0.000    3.385    3.692    0.000    0.000 
#    0.000    0.000    0.000    0.000    0.000    0.000 
#
# Total GULP energy -644727.349661 kJ/mol
# GULP energy per Si atom -12398.602878 kJ/mol
# Density = 2.027153 g / cm^3
# Si number density = 20.317777 Si / 1000 Ang^3
#
#
#
# Elastic Constant Matrix: (Units=GPa)
#
#
# Indices 1 2 3 4 5 6 
#
# 1 109.2522 49.1582 33.3682 0.0000 0.0000 0.0000
# 2 49.1582 144.0378 57.5884 0.0000 0.0000 0.0000
# 3 33.3682 57.5884 92.1125 0.0000 0.0000 0.0000
# 4 0.0000 0.0000 0.0000 38.0020 0.0000 0.0000
# 5 0.0000 0.0000 0.0000 0.0000 -181.2429 0.0000
# 6 0.0000 0.0000 0.0000 0.0000 0.0000 17.1559
#
#
#
# Elastic Compliance Matrix: (Units=1/GPa)
#
#
# Indices 1 2 3 4 5 6 
#
# 1 0.011142 -0.002918 -0.002212 0.000000 0.000000 0.000000
# 2 -0.002918 0.010021 -0.005208 0.000000 0.000000 0.000000
# 3 -0.002212 -0.005208 0.014913 0.000000 0.000000 0.000000
# 4 0.000000 0.000000 0.000000 0.026314 0.000000 0.000000
# 5 0.000000 0.000000 0.000000 0.000000 -0.005517 0.000000
# 6 0.000000 0.000000 0.000000 0.000000 0.000000 0.058289
#
#
# Mechanical properties :
#
#
# Convention : Reuss Voigt Hill
#
# Bulk Modulus (GPa) = 64.93327 69.51465 67.22396
# Shear Modulus (GPa) = 35.46841 -11.53115 11.96863
#
# Velocity S-wave (km/s) = 4.18267 -2.38489 2.42971
# Velocity P-wave (km/s) = 7.44006 5.16763 6.40542
#
# Compressibility (1/GPa) = 0.01540043
#
# Stress axis : x y z
#
# Youngs Moduli (GPa) = 89.75284 99.79310 67.05402
#
# Poissons Ratio (x) = 0.29122 0.14830
# Poissons Ratio (y) = 0.26192 0.34920
# Poissons Ratio (z) = 0.19850 0.51970
#
# Static dielectric constant tensor:
#      x y z
#    x 3.440330 0.000000 0.000000 
#    y 0.000000 4.110920 0.000000 
#    z 0.000000 0.000000 3.760450 
# 
# 
# High freq. dielectric constant tensor:
#      x y z
#    x 1.775530 0.000000 0.000000 
#    y 0.000000 1.809670 0.000000 
#    z 0.000000 0.000000 1.790250 
# 
# From -- ./inp_files/25653.got.cif
#   From: 2010.03.12/outbox.cif.g09.slc.cpg/sg64_13_cif.got.tgz:25653.got - 2010.04.10 20:19:32.
