data_PCOD8263485
_publ_section_title
;
Structure prediction by ZEFSAII (Michael W. Deem and Ramdas Pophale) SiO2 
 PCOD8263485
Probable space group: C M C A
;
_chemical_formula_sum "Si O2"
_cell_formula_units_Z 104
_cell_length_a 22.640910
_cell_length_b 8.562522
_cell_length_c 23.903260
_cell_angle_alpha 90.000000
_cell_angle_beta 90.000000
_cell_angle_gamma 90.000000
_cell_volume 4633.964625
_symmetry_space_group_name_H-M "C M C A"
_symmetry_group_IT_number 64
_symmetry_cell_setting 'orthorhombic'
loop_
_space_group_symop_operation_xyz
x,y,z
-x,1/2-y,1/2+z
x,-y,-z
-x,1/2+y,1/2-z
-x,-y,-z
x,1/2+y,1/2-z
-x,y,z
x,1/2-y,1/2+z
1/2+x,1/2+y,z
1/2-x,-y,1/2+z
1/2+x,1/2-y,-z
1/2-x,y,1/2-z
1/2-x,1/2-y,-z
1/2+x,y,1/2-z
1/2-x,1/2+y,z
1/2+x,-y,1/2+z
loop_
_atom_site_type_symbol
_atom_site_label
_atom_site_fract_x
_atom_site_fract_y
_atom_site_fract_z
Si Si1 0.784042 0.995908 0.871412
Si Si2 0.593060 0.567397 0.173857
Si Si3 0.377171 0.000000 0.000000
Si Si4 0.933468 0.335159 0.100280
Si Si5 0.786035 0.278449 0.944857
Si Si6 0.163012 0.025235 0.682482
Si Si7 0.612289 0.272751 0.226362
O O1 0.809958 0.119717 0.916801
O O2 0.835687 0.939629 0.830522
O O3 0.762602 0.843906 0.903200
O O4 0.728389 0.065585 0.837870
O O5 0.567419 0.648167 0.117068
O O6 0.571674 0.387786 0.186443
O O7 0.574850 0.672950 0.228220
O O8 0.415565 0.124892 0.963962
O O9 0.338535 0.901166 0.955816
O O10 0.888168 0.417539 0.141296
O O11 0.000000 0.397589 0.109357
O O12 0.750000 0.250000 0.000000
O O13 0.152792 0.838264 0.687712
O O14 0.156010 0.107998 0.742029
#
# Coordination Sequence:
#
# PCOD8263485 Si02
#       7
#    16  16   8  16  16  16  16
#     4  12  22  34  61  92 136 168 206 259 323 376
#     4  10  22  38  61  94 129 168 211 260 317 383
#     4  12  23  42  68  90 126 164 229 262 338 388
#     4  11  24  45  67  90 123 168 222 274 319 384
#     4  12  21  36  57  91 127 169 213 266 311 388
#     4  10  20  39  59  98 130 170 215 256 319 388
#     4   9  20  37  61  92 135 168 209 255 318 384
#
# _framework density 22.442983999999999
#
# number of rings (size 3 to 8) (size 9 to 14) (size 15 to 20)
#    0.000    1.231    3.077    3.923    0.000    3.692 
#    0.000   13.077    0.000    0.923    0.000    0.000 
#    0.000    0.000    0.000    0.000    0.000    0.000 
#
# Total GULP energy -644258.926373 kJ/mol
# GULP energy per Si atom -12389.594738 kJ/mol
# Density = 2.239190 g / cm^3
# Si number density = 22.442984 Si / 1000 Ang^3
#
#
#
# Elastic Constant Matrix: (Units=GPa)
#
#
# Indices 1 2 3 4 5 6 
#
# 1 95.9484 11.6429 16.2546 0.0000 0.0000 0.0000
# 2 11.6429 114.8039 32.5523 0.0000 0.0000 0.0000
# 3 16.2546 32.5523 68.7006 0.0000 0.0000 0.0000
# 4 0.0000 0.0000 0.0000 53.0154 0.0000 0.0000
# 5 0.0000 0.0000 0.0000 0.0000 2.0804 0.0000
# 6 0.0000 0.0000 0.0000 0.0000 0.0000 13.6274
#
#
#
# Elastic Compliance Matrix: (Units=1/GPa)
#
#
# Indices 1 2 3 4 5 6 
#
# 1 0.010876 -0.000431 -0.002369 0.000000 0.000000 0.000000
# 2 -0.000431 0.010080 -0.004674 0.000000 0.000000 0.000000
# 3 -0.002369 -0.004674 0.017331 0.000000 0.000000 0.000000
# 4 0.000000 0.000000 0.000000 0.018862 0.000000 0.000000
# 5 0.000000 0.000000 0.000000 0.000000 0.480687 0.000000
# 6 0.000000 0.000000 0.000000 0.000000 0.000000 0.073381
#
#
# Mechanical properties :
#
#
# Convention : Reuss Voigt Hill
#
# Bulk Modulus (GPa) = 42.84810 44.48362 43.66586
# Shear Modulus (GPa) = 7.88712 28.34484 18.11598
#
# Velocity S-wave (km/s) = 1.87668 3.55769 2.84421
# Velocity P-wave (km/s) = 4.88153 6.06135 5.50315
#
# Compressibility (1/GPa) = 0.02333826
#
# Stress axis : x y z
#
# Youngs Moduli (GPa) = 91.94626 99.21105 57.69999
#
# Poissons Ratio (x) = 0.04279 0.13668
# Poissons Ratio (y) = 0.03966 0.26969
# Poissons Ratio (z) = 0.21781 0.46370
#
# Static dielectric constant tensor:
#      x y z
#    x 3.619550 0.000000 0.000000 
#    y 0.000000 5.052210 0.000000 
#    z 0.000000 0.000000 4.209010 
# 
# 
# High freq. dielectric constant tensor:
#      x y z
#    x 1.841750 0.000000 0.000000 
#    y 0.000000 1.899790 0.000000 
#    z 0.000000 0.000000 1.890160 
# 
# From -- ./inp_files/51017.got.cif
#   From: 2010.03.12/outbox.cif.g09.slc.cpg/sg64_26_cif.got.tgz:51017.got - 2010.04.10 20:19:32.
