data_PCOD8263536
_publ_section_title
;
Structure prediction by ZEFSAII (Michael W. Deem and Ramdas Pophale) SiO2 
 PCOD8263536
Probable space group: C M C A
;
_chemical_formula_sum "Si O2"
_cell_formula_units_Z 88
_cell_length_a 18.195035
_cell_length_b 12.390218
_cell_length_c 17.449649
_cell_angle_alpha 90.000000
_cell_angle_beta 90.000000
_cell_angle_gamma 90.000000
_cell_volume 3933.856726
_symmetry_space_group_name_H-M "C M C A"
_symmetry_group_IT_number 64
_symmetry_cell_setting 'orthorhombic'
loop_
_space_group_symop_operation_xyz
x,y,z
-x,1/2-y,1/2+z
x,-y,-z
-x,1/2+y,1/2-z
-x,-y,-z
x,1/2+y,1/2-z
-x,y,z
x,1/2-y,1/2+z
1/2+x,1/2+y,z
1/2-x,-y,1/2+z
1/2+x,1/2-y,-z
1/2-x,y,1/2-z
1/2-x,1/2-y,-z
1/2+x,y,1/2-z
1/2-x,1/2+y,z
1/2+x,-y,1/2+z
loop_
_atom_site_type_symbol
_atom_site_label
_atom_site_fract_x
_atom_site_fract_y
_atom_site_fract_z
Si Si1 0.254120 0.000000 0.000000
Si Si2 0.845211 0.111845 0.629323
Si Si3 0.158045 0.647112 0.407417
Si Si4 0.500000 0.961825 0.085075
Si Si5 0.500000 0.648778 0.853749
Si Si6 0.500000 0.626347 0.289853
Si Si7 0.123093 0.505655 0.715773
Si Si8 0.500000 0.376042 0.977087
O O1 0.304083 0.969091 0.072282
O O2 0.204569 0.105262 0.019656
O O3 0.815648 0.234173 0.619427
O O4 0.834308 0.071012 0.717288
O O5 0.931126 0.111334 0.608520
O O6 0.177425 0.558335 0.341323
O O7 0.071481 0.651576 0.427168
O O8 0.500000 0.075980 0.126491
O O9 0.500000 0.000000 0.000000
O O10 0.500000 0.746088 0.794281
O O11 0.426011 0.583792 0.836475
O O12 0.500000 0.688860 0.942142
O O13 0.426569 0.589872 0.248345
O O14 0.500000 0.500000 0.000000
#
# Coordination Sequence:
#
# PCOD8263536 Si02
#       8
#     8  16  16   8   8   8  16   8
#     4  12  26  46  64  98 136 166 226 270 318 412
#     4  11  25  43  70  95 132 175 214 274 330 383
#     4  12  24  44  69  97 132 174 216 268 337 381
#     4  10  20  40  62  97 128 161 213 265 312 383
#     4  11  19  33  60  97 132 167 206 261 332 376
#     4   9  20  31  58  94 129 163 204 260 321 379
#     4  10  21  40  60  91 133 165 223 266 313 394
#     4  12  21  40  66 100 130 163 209 275 316 379
#
# _framework density 22.369903999999998
#
# number of rings (size 3 to 8) (size 9 to 14) (size 15 to 20)
#    0.000    1.091    3.636    3.273    2.545    0.727 
#    0.000    7.273    0.000    0.000    0.000    0.000 
#    0.000    0.000    0.000    0.000    0.000    0.000 
#
# Total GULP energy -545572.993095 kJ/mol
# GULP energy per Si atom -12399.386207 kJ/mol
# Density = 2.231899 g / cm^3
# Si number density = 22.369904 Si / 1000 Ang^3
#
#
#
# Elastic Constant Matrix: (Units=GPa)
#
#
# Indices 1 2 3 4 5 6 
#
# 1 73.5150 13.2089 21.8083 0.0000 0.0000 0.0000
# 2 13.2089 121.0556 25.2247 0.0000 0.0000 0.0000
# 3 21.8083 25.2247 127.4493 0.0000 0.0000 0.0000
# 4 0.0000 0.0000 0.0000 32.2448 0.0000 0.0000
# 5 0.0000 0.0000 0.0000 0.0000 28.6789 0.0000
# 6 0.0000 0.0000 0.0000 0.0000 0.0000 16.5021
#
#
#
# Elastic Compliance Matrix: (Units=1/GPa)
#
#
# Indices 1 2 3 4 5 6 
#
# 1 0.014471 -0.001109 -0.002257 0.000000 0.000000 0.000000
# 2 -0.001109 0.008701 -0.001532 0.000000 0.000000 0.000000
# 3 -0.002257 -0.001532 0.008536 0.000000 0.000000 0.000000
# 4 0.000000 0.000000 0.000000 0.031013 0.000000 0.000000
# 5 0.000000 0.000000 0.000000 0.000000 0.034869 0.000000
# 6 0.000000 0.000000 0.000000 0.000000 0.000000 0.060598
#
#
# Mechanical properties :
#
#
# Convention : Reuss Voigt Hill
#
# Bulk Modulus (GPa) = 45.63677 49.16708 47.40193
# Shear Modulus (GPa) = 28.52450 32.93704 30.73077
#
# Velocity S-wave (km/s) = 3.57477 3.84133 3.71044
# Velocity P-wave (km/s) = 6.12241 6.45765 6.29226
#
# Compressibility (1/GPa) = 0.02191215
#
# Stress axis : x y z
#
# Youngs Moduli (GPa) = 69.10198 114.93000 117.15491
#
# Poissons Ratio (x) = 0.12743 0.26440
# Poissons Ratio (y) = 0.07662 0.17952
# Poissons Ratio (z) = 0.15595 0.17611
#
# Static dielectric constant tensor:
#      x y z
#    x 3.834450 0.000000 0.000000 
#    y 0.000000 4.252400 0.000000 
#    z 0.000000 0.000000 4.253230 
# 
# 
# High freq. dielectric constant tensor:
#      x y z
#    x 1.860170 0.000000 0.000000 
#    y 0.000000 1.880250 0.000000 
#    z 0.000000 0.000000 1.898740 
# 
# From -- ./inp_files/34181.got.cif
#   From: 2010.03.12/outbox.cif.g09.slc.cpg/sg64_18_cif.got.tgz:34181.got - 2010.04.10 20:19:32.
