data_PCOD8263494
_publ_section_title
;
Structure prediction by ZEFSAII (Michael W. Deem and Ramdas Pophale) SiO2 
 PCOD8263494
Probable space group: C M C A
;
_chemical_formula_sum "Si O2"
_cell_formula_units_Z 96
_cell_length_a 18.224534
_cell_length_b 9.009089
_cell_length_c 28.336510
_cell_angle_alpha 90.000000
_cell_angle_beta 90.000000
_cell_angle_gamma 90.000000
_cell_volume 4652.470948
_symmetry_space_group_name_H-M "C M C A"
_symmetry_group_IT_number 64
_symmetry_cell_setting 'orthorhombic'
loop_
_space_group_symop_operation_xyz
x,y,z
-x,1/2-y,1/2+z
x,-y,-z
-x,1/2+y,1/2-z
-x,-y,-z
x,1/2+y,1/2-z
-x,y,z
x,1/2-y,1/2+z
1/2+x,1/2+y,z
1/2-x,-y,1/2+z
1/2+x,1/2-y,-z
1/2-x,y,1/2-z
1/2-x,1/2-y,-z
1/2+x,y,1/2-z
1/2-x,1/2+y,z
1/2+x,-y,1/2+z
loop_
_atom_site_type_symbol
_atom_site_label
_atom_site_fract_x
_atom_site_fract_y
_atom_site_fract_z
Si Si1 0.179602 0.445121 0.196942
Si Si2 0.084283 0.049362 0.872178
Si Si3 0.584226 0.211645 0.877483
Si Si4 0.345397 0.131651 0.972444
Si Si5 0.166962 0.201038 0.793899
Si Si6 0.683106 0.389679 0.039250
O O1 0.130757 0.408155 0.151532
O O2 0.179695 0.621905 0.205948
O O3 0.147021 0.355314 0.241530
O O4 0.261622 0.387049 0.187534
O O5 0.099844 0.154073 0.827306
O O6 0.136160 0.101902 0.913830
O O7 0.000000 0.069805 0.887496
O O8 0.100319 0.877741 0.859223
O O9 0.500000 0.168055 0.870927
O O10 0.603807 0.205311 0.932975
O O11 0.268605 0.077340 0.948480
O O12 0.324819 0.229811 0.017167
O O13 0.387524 0.000000 0.000000
O O14 0.651162 0.500000 0.000000
#
# Coordination Sequence:
#
# PCOD8263494 Si02
#       6
#    16  16  16  16  16  16
#     4  11  23  42  69  95 124 158 203 256 307 366
#     4  11  24  40  62  90 126 169 210 253 307 369
#     4  11  24  41  60  89 130 170 206 253 310 368
#     4  10  22  37  61  90 121 162 207 264 312 360
#     4  11  23  42  69  96 123 158 203 256 307 368
#     4  10  20  39  62  87 120 161 211 258 309 363
#
# _framework density 20.634198000000001
#
# number of rings (size 3 to 8) (size 9 to 14) (size 15 to 20)
#    0.000    1.333    1.667    5.000    2.333    2.667 
#    0.000    0.000    0.000    0.000    0.000    0.000 
#    0.000    0.000    0.000    0.000    0.000    0.000 
#
# Total GULP energy -595154.508850 kJ/mol
# GULP energy per Si atom -12399.052268 kJ/mol
# Density = 2.058723 g / cm^3
# Si number density = 20.634198 Si / 1000 Ang^3
#
#
#
# Elastic Constant Matrix: (Units=GPa)
#
#
# Indices 1 2 3 4 5 6 
#
# 1 65.4250 28.9231 32.2017 0.0000 0.0000 0.0000
# 2 28.9231 137.7376 27.8573 0.0000 0.0000 0.0000
# 3 32.2017 27.8573 77.6505 0.0000 0.0000 0.0000
# 4 0.0000 0.0000 0.0000 38.1287 0.0000 0.0000
# 5 0.0000 0.0000 0.0000 0.0000 8.7347 0.0000
# 6 0.0000 0.0000 0.0000 0.0000 0.0000 4.2224
#
#
#
# Elastic Compliance Matrix: (Units=1/GPa)
#
#
# Indices 1 2 3 4 5 6 
#
# 1 0.020117 -0.002736 -0.007361 0.000000 0.000000 0.000000
# 2 -0.002736 0.008200 -0.001807 0.000000 0.000000 0.000000
# 3 -0.007361 -0.001807 0.016579 0.000000 0.000000 0.000000
# 4 0.000000 0.000000 0.000000 0.026227 0.000000 0.000000
# 5 0.000000 0.000000 0.000000 0.000000 0.114486 0.000000
# 6 0.000000 0.000000 0.000000 0.000000 0.000000 0.236833
#
#
# Mechanical properties :
#
#
# Convention : Reuss Voigt Hill
#
# Bulk Modulus (GPa) = 47.41960 50.97526 49.19743
# Shear Modulus (GPa) = 11.03070 23.00588 17.01829
#
# Velocity S-wave (km/s) = 2.31461 3.34269 2.87498
# Velocity P-wave (km/s) = 5.49311 6.29730 5.90890
#
# Compressibility (1/GPa) = 0.02108833
#
# Stress axis : x y z
#
# Youngs Moduli (GPa) = 49.70890 121.94890 60.31605
#
# Poissons Ratio (x) = 0.33360 0.44400
# Poissons Ratio (y) = 0.13598 0.10902
# Poissons Ratio (z) = 0.36592 0.22041
#
# Static dielectric constant tensor:
#      x y z
#    x 3.608030 0.000000 0.000000 
#    y 0.000000 3.905600 0.000000 
#    z 0.000000 0.000000 3.867620 
# 
# 
# High freq. dielectric constant tensor:
#      x y z
#    x 1.792510 0.000000 0.000000 
#    y 0.000000 1.819820 0.000000 
#    z 0.000000 0.000000 1.810380 
# 
# From -- ./inp_files/50647.got.cif
#   From: 2010.03.12/outbox.cif.g09.slc.cpg/sg64_26_cif.got.tgz:50647.got - 2010.04.10 20:19:32.
