data_PCOD8263850
_publ_section_title
;
Structure prediction by ZEFSAII (Michael W. Deem and Ramdas Pophale) SiO2 
 PCOD8263850
Probable space group: C M C A
;
_chemical_formula_sum "Si O2"
_cell_formula_units_Z 96
_cell_length_a 22.650531
_cell_length_b 12.900574
_cell_length_c 16.359980
_cell_angle_alpha 90.000000
_cell_angle_beta 90.000000
_cell_angle_gamma 90.000000
_cell_volume 4780.465523
_symmetry_space_group_name_H-M "C M C A"
_symmetry_group_IT_number 64
_symmetry_cell_setting 'orthorhombic'
loop_
_space_group_symop_operation_xyz
x,y,z
-x,1/2-y,1/2+z
x,-y,-z
-x,1/2+y,1/2-z
-x,-y,-z
x,1/2+y,1/2-z
-x,y,z
x,1/2-y,1/2+z
1/2+x,1/2+y,z
1/2-x,-y,1/2+z
1/2+x,1/2-y,-z
1/2-x,y,1/2-z
1/2-x,1/2-y,-z
1/2+x,y,1/2-z
1/2-x,1/2+y,z
1/2+x,-y,1/2+z
loop_
_atom_site_type_symbol
_atom_site_label
_atom_site_fract_x
_atom_site_fract_y
_atom_site_fract_z
Si Si1 0.698680 0.534182 0.685672
Si Si2 0.290949 0.690512 0.384198
Si Si3 0.375222 0.833393 0.293828
Si Si4 0.322839 0.205603 0.933759
Si Si5 0.068429 0.288665 0.657427
Si Si6 0.431465 0.010571 0.590453
O O1 0.750000 0.553341 0.750000
O O2 0.695097 0.415358 0.661593
O O3 0.639292 0.575318 0.729419
O O4 0.705614 0.600240 0.602482
O O5 0.315020 0.779464 0.324209
O O6 0.325967 0.696217 0.469235
O O7 0.220900 0.702716 0.401754
O O8 0.417065 0.747750 0.249920
O O9 0.407246 0.884440 0.370444
O O10 0.389439 0.226486 0.904788
O O11 0.082031 0.410730 0.646819
O O12 0.000000 0.264338 0.636506
O O13 0.500000 0.028327 0.579808
O O14 0.402541 0.000000 0.500000
#
# Coordination Sequence:
#
# PCOD8263850 Si02
#       6
#    16  16  16  16  16  16
#     4  11  23  37  58  87 123 152 190 245 295 361
#     4  11  23  38  61  89 121 157 193 245 306 363
#     4  11  22  38  60  89 119 159 197 245 298 360
#     4  10  23  41  60  88 122 156 200 242 300 366
#     4  10  22  39  62  87 120 162 203 252 299 352
#     4  10  21  38  60  88 119 154 202 250 293 346
#
# _framework density 20.081727000000001
#
# number of rings (size 3 to 8) (size 9 to 14) (size 15 to 20)
#    0.000    1.500    1.667    3.000    7.000    0.000 
#    0.000    0.833    0.000   10.000    0.000    0.000 
#    0.000    0.000    0.000    0.000    0.000    0.000 
#
# Total GULP energy -595107.212833 kJ/mol
# GULP energy per Si atom -12398.066934 kJ/mol
# Density = 2.003602 g / cm^3
# Si number density = 20.081727 Si / 1000 Ang^3
#
#
#
# Elastic Constant Matrix: (Units=GPa)
#
#
# Indices 1 2 3 4 5 6 
#
# 1 88.2067 38.0644 40.6090 0.0000 0.0000 0.0000
# 2 38.0644 118.3788 55.5632 0.0000 0.0000 0.0000
# 3 40.6090 55.5632 111.4644 0.0000 0.0000 0.0000
# 4 0.0000 0.0000 0.0000 36.3931 0.0000 0.0000
# 5 0.0000 0.0000 0.0000 0.0000 25.6383 0.0000
# 6 0.0000 0.0000 0.0000 0.0000 0.0000 26.1943
#
#
#
# Elastic Compliance Matrix: (Units=1/GPa)
#
#
# Indices 1 2 3 4 5 6 
#
# 1 0.014304 -0.002811 -0.003810 0.000000 0.000000 0.000000
# 2 -0.002811 0.011580 -0.004748 0.000000 0.000000 0.000000
# 3 -0.003810 -0.004748 0.012727 0.000000 0.000000 0.000000
# 4 0.000000 0.000000 0.000000 0.027478 0.000000 0.000000
# 5 0.000000 0.000000 0.000000 0.000000 0.039004 0.000000
# 6 0.000000 0.000000 0.000000 0.000000 0.000000 0.038176
#
#
# Mechanical properties :
#
#
# Convention : Reuss Voigt Hill
#
# Bulk Modulus (GPa) = 63.00491 65.16925 64.08708
# Shear Modulus (GPa) = 29.18881 29.89936 29.54408
#
# Velocity S-wave (km/s) = 3.81662 3.86279 3.83977
# Velocity P-wave (km/s) = 7.13193 7.23998 7.18616
#
# Compressibility (1/GPa) = 0.01587178
#
# Stress axis : x y z
#
# Youngs Moduli (GPa) = 69.90948 86.35512 78.57613
#
# Poissons Ratio (x) = 0.24276 0.29938
# Poissons Ratio (y) = 0.19653 0.37310
# Poissons Ratio (z) = 0.26636 0.41004
#
# Static dielectric constant tensor:
#      x y z
#    x 3.481390 0.000000 0.000000 
#    y 0.000000 3.642630 0.000000 
#    z 0.000000 0.000000 3.838880 
# 
# 
# High freq. dielectric constant tensor:
#      x y z
#    x 1.771400 0.000000 0.000000 
#    y 0.000000 1.783730 0.000000 
#    z 0.000000 0.000000 1.794900 
# 
# From -- ./inp_files/34914.got.cif
#   From: 2010.03.12/outbox.cif.g09.slc.cpg/sg64_18_cif.got.tgz:34914.got - 2010.04.10 20:19:32.
