data_PCOD8263403
_publ_section_title
;
Structure prediction by ZEFSAII (Michael W. Deem and Ramdas Pophale) SiO2 
 PCOD8263403
Probable space group: C M C A
;
_chemical_formula_sum "Si O2"
_cell_formula_units_Z 80
_cell_length_a 9.076703
_cell_length_b 15.410181
_cell_length_c 28.793190
_cell_angle_alpha 90.000000
_cell_angle_beta 90.000000
_cell_angle_gamma 90.000000
_cell_volume 4027.408181
_symmetry_space_group_name_H-M "C M C A"
_symmetry_group_IT_number 64
_symmetry_cell_setting 'orthorhombic'
loop_
_space_group_symop_operation_xyz
x,y,z
-x,1/2-y,1/2+z
x,-y,-z
-x,1/2+y,1/2-z
-x,-y,-z
x,1/2+y,1/2-z
-x,y,z
x,1/2-y,1/2+z
1/2+x,1/2+y,z
1/2-x,-y,1/2+z
1/2+x,1/2-y,-z
1/2-x,y,1/2-z
1/2-x,1/2-y,-z
1/2+x,y,1/2-z
1/2-x,1/2+y,z
1/2+x,-y,1/2+z
loop_
_atom_site_type_symbol
_atom_site_label
_atom_site_fract_x
_atom_site_fract_y
_atom_site_fract_z
Si Si1 0.825956 0.893157 0.952003
Si Si2 0.824758 0.498519 0.798465
Si Si3 0.173754 0.910942 0.052750
Si Si4 0.328755 0.848315 0.348801
Si Si5 0.329858 0.842297 0.863952
O O1 0.751926 0.833356 0.913166
O O2 0.000000 0.884129 0.946479
O O3 0.768854 0.990868 0.942790
O O4 0.771712 0.866978 0.004261
O O5 0.750000 0.475867 0.750000
O O6 0.769275 0.592210 0.815560
O O7 0.771852 0.423176 0.833696
O O8 0.000000 0.500627 0.792734
O O9 0.225789 0.858366 0.097857
O O10 0.000000 0.915248 0.049305
O O11 0.500000 0.875491 0.343428
O O12 0.304067 0.747447 0.335576
O O13 0.500000 0.854556 0.875568
#
# Coordination Sequence:
#
# PCOD8263403 Si02
#       5
#    16  16  16  16  16
#     4   9  16  30  54  82 112 154 198 228 265 328
#     4  11  24  42  61  83 110 141 181 232 286 340
#     4   8  15  29  53  82 112 151 195 230 268 324
#     4  10  20  38  61  84 114 152 188 229 278 331
#     4  10  22  37  56  86 119 146 182 232 284 331
#
# _framework density 19.863892
#
# number of rings (size 3 to 8) (size 9 to 14) (size 15 to 20)
#    0.000    2.400    2.000    1.800    0.000    3.200 
#    0.000    5.000    0.000    0.000    0.000    0.000 
#    0.000    0.000    0.000    0.000    0.000    0.000 
#
# Total GULP energy -495826.977224 kJ/mol
# GULP energy per Si atom -12395.674431 kJ/mol
# Density = 1.981868 g / cm^3
# Si number density = 19.863892 Si / 1000 Ang^3
#
#
#
# Elastic Constant Matrix: (Units=GPa)
#
#
# Indices 1 2 3 4 5 6 
#
# 1 48.0685 20.1603 33.3978 0.0000 0.0000 0.0000
# 2 20.1603 70.3483 20.8309 0.0000 0.0000 0.0000
# 3 33.3978 20.8309 98.8030 0.0000 0.0000 0.0000
# 4 0.0000 0.0000 0.0000 15.5162 0.0000 0.0000
# 5 0.0000 0.0000 0.0000 0.0000 30.7464 0.0000
# 6 0.0000 0.0000 0.0000 0.0000 0.0000 23.6098
#
#
#
# Elastic Compliance Matrix: (Units=1/GPa)
#
#
# Indices 1 2 3 4 5 6 
#
# 1 0.029266 -0.005821 -0.008665 0.000000 0.000000 0.000000
# 2 -0.005821 0.016319 -0.001473 0.000000 0.000000 0.000000
# 3 -0.008665 -0.001473 0.013361 0.000000 0.000000 0.000000
# 4 0.000000 0.000000 0.000000 0.064449 0.000000 0.000000
# 5 0.000000 0.000000 0.000000 0.000000 0.032524 0.000000
# 6 0.000000 0.000000 0.000000 0.000000 0.000000 0.042355
#
#
# Mechanical properties :
#
#
# Convention : Reuss Voigt Hill
#
# Bulk Modulus (GPa) = 36.99976 40.66643 38.83310
# Shear Modulus (GPa) = 20.90287 23.49652 22.19969
#
# Velocity S-wave (km/s) = 3.24744 3.44303 3.34666
# Velocity P-wave (km/s) = 5.72086 6.02685 5.87585
#
# Compressibility (1/GPa) = 0.02702720
#
# Stress axis : x y z
#
# Youngs Moduli (GPa) = 34.16980 61.27699 74.84599
#
# Poissons Ratio (x) = 0.35670 0.64856
# Poissons Ratio (y) = 0.19890 0.11025
# Poissons Ratio (z) = 0.29609 0.09026
#
# Static dielectric constant tensor:
#      x y z
#    x 3.260560 0.000000 0.000000 
#    y 0.000000 3.573090 0.000000 
#    z 0.000000 0.000000 3.928060 
# 
# 
# High freq. dielectric constant tensor:
#      x y z
#    x 1.744910 0.000000 0.000000 
#    y 0.000000 1.771070 0.000000 
#    z 0.000000 0.000000 1.778020 
# 
# From -- ./inp_files/47850.got.cif
#   From: 2010.03.12/outbox.cif.g09.slc.cpg/sg64_24_cif.got.tgz:47850.got - 2010.04.10 20:19:32.
