data_PCOD8263307
_publ_section_title
;
Structure prediction by ZEFSAII (Michael W. Deem and Ramdas Pophale) SiO2 
 PCOD8263307
Probable space group: C M C A
;
_chemical_formula_sum "Si O2"
_cell_formula_units_Z 64
_cell_length_a 21.583180
_cell_length_b 10.472668
_cell_length_c 12.757646
_cell_angle_alpha 90.000000
_cell_angle_beta 90.000000
_cell_angle_gamma 90.000000
_cell_volume 2883.655103
_symmetry_space_group_name_H-M "C M C A"
_symmetry_group_IT_number 64
_symmetry_cell_setting 'orthorhombic'
loop_
_space_group_symop_operation_xyz
x,y,z
-x,1/2-y,1/2+z
x,-y,-z
-x,1/2+y,1/2-z
-x,-y,-z
x,1/2+y,1/2-z
-x,y,z
x,1/2-y,1/2+z
1/2+x,1/2+y,z
1/2-x,-y,1/2+z
1/2+x,1/2-y,-z
1/2-x,y,1/2-z
1/2-x,1/2-y,-z
1/2+x,y,1/2-z
1/2-x,1/2+y,z
1/2+x,-y,1/2+z
loop_
_atom_site_type_symbol
_atom_site_label
_atom_site_fract_x
_atom_site_fract_y
_atom_site_fract_z
Si Si1 0.705883 0.599668 0.078380
Si Si2 0.162802 0.150354 0.469982
Si Si3 0.569380 0.110892 0.852467
Si Si4 0.386244 0.865670 0.753602
O O1 0.779762 0.567473 0.078664
O O2 0.677447 0.594827 0.194757
O O3 0.672240 0.500000 0.000000
O O4 0.693724 0.737344 0.032652
O O5 0.118944 0.077297 0.555496
O O6 0.124252 0.195055 0.368791
O O7 0.500000 0.106084 0.898785
O O8 0.577972 0.254993 0.809114
O O9 0.575916 0.999123 0.764964
#
# Coordination Sequence:
#
# PCOD8263307 Si02
#       4
#    16  16  16  16
#     4  10  20  37  59  87 122 152 195 251 307 360
#     4  10  22  37  59  89 117 156 201 248 300 357
#     4  11  24  40  60  88 122 161 204 246 295 360
#     4  11  22  39  62  87 118 158 200 247 301 352
#
# _framework density 22.194056
#
# number of rings (size 3 to 8) (size 9 to 14) (size 15 to 20)
#    0.000    1.500    0.000    5.250    0.000    3.000 
#    0.000    7.500    0.000    8.250    0.000    0.000 
#    0.000    0.000    0.000    0.000    0.000    0.000 
#
# Total GULP energy -396435.796779 kJ/mol
# GULP energy per Si atom -12388.618649 kJ/mol
# Density = 2.214354 g / cm^3
# Si number density = 22.194056 Si / 1000 Ang^3
#
#
#
# Elastic Constant Matrix: (Units=GPa)
#
#
# Indices 1 2 3 4 5 6 
#
# 1 154.7522 46.4140 50.7006 0.0000 0.0000 0.0000
# 2 46.4140 104.6073 35.1334 0.0000 0.0000 0.0000
# 3 50.7006 35.1334 118.2853 0.0000 0.0000 0.0000
# 4 0.0000 0.0000 0.0000 37.2712 0.0000 0.0000
# 5 0.0000 0.0000 0.0000 0.0000 13.1800 0.0000
# 6 0.0000 0.0000 0.0000 0.0000 0.0000 25.6064
#
#
#
# Elastic Compliance Matrix: (Units=1/GPa)
#
#
# Indices 1 2 3 4 5 6 
#
# 1 0.008158 -0.002716 -0.002690 0.000000 0.000000 0.000000
# 2 -0.002716 0.011523 -0.002258 0.000000 0.000000 0.000000
# 3 -0.002690 -0.002258 0.010278 0.000000 0.000000 0.000000
# 4 0.000000 0.000000 0.000000 0.026830 0.000000 0.000000
# 5 0.000000 0.000000 0.000000 0.000000 0.075872 0.000000
# 6 0.000000 0.000000 0.000000 0.000000 0.000000 0.039053
#
#
# Mechanical properties :
#
#
# Convention : Reuss Voigt Hill
#
# Bulk Modulus (GPa) = 68.35293 71.34896 69.85094
# Shear Modulus (GPa) = 26.05248 31.57131 28.81189
#
# Velocity S-wave (km/s) = 3.42987 3.77571 3.60694
# Velocity P-wave (km/s) = 6.82276 7.15720 6.99198
#
# Compressibility (1/GPa) = 0.01462995
#
# Stress axis : x y z
#
# Youngs Moduli (GPa) = 122.58076 86.78112 97.29586
#
# Poissons Ratio (x) = 0.23571 0.26172
# Poissons Ratio (y) = 0.33295 0.21974
# Poissons Ratio (z) = 0.32974 0.19599
#
# Static dielectric constant tensor:
#      x y z
#    x 4.141650 0.000000 0.000000 
#    y 0.000000 3.971740 0.000000 
#    z 0.000000 0.000000 4.020930 
# 
# 
# High freq. dielectric constant tensor:
#      x y z
#    x 1.864120 0.000000 0.000000 
#    y 0.000000 1.888830 0.000000 
#    z 0.000000 0.000000 1.873840 
# 
# From -- ./inp_files/16780.got.cif
#   From: 2010.03.12/outbox.cif.g09.slc.cpg/sg64_9_cif.got.tgz:16780.got - 2010.04.10 20:19:32.
