data_PCOD8263168
_publ_section_title
;
Structure prediction by ZEFSAII (Michael W. Deem and Ramdas Pophale) SiO2 
 PCOD8263168
Probable space group: C M C A
;
_chemical_formula_sum "Si O2"
_cell_formula_units_Z 112
_cell_length_a 25.455934
_cell_length_b 13.138737
_cell_length_c 18.611204
_cell_angle_alpha 90.000000
_cell_angle_beta 90.000000
_cell_angle_gamma 90.000000
_cell_volume 6224.681364
_symmetry_space_group_name_H-M "C M C A"
_symmetry_group_IT_number 64
_symmetry_cell_setting 'orthorhombic'
loop_
_space_group_symop_operation_xyz
x,y,z
-x,1/2-y,1/2+z
x,-y,-z
-x,1/2+y,1/2-z
-x,-y,-z
x,1/2+y,1/2-z
-x,y,z
x,1/2-y,1/2+z
1/2+x,1/2+y,z
1/2-x,-y,1/2+z
1/2+x,1/2-y,-z
1/2-x,y,1/2-z
1/2-x,1/2-y,-z
1/2+x,y,1/2-z
1/2-x,1/2+y,z
1/2+x,-y,1/2+z
loop_
_atom_site_type_symbol
_atom_site_label
_atom_site_fract_x
_atom_site_fract_y
_atom_site_fract_z
Si Si1 0.121877 0.222704 0.234667
Si Si2 0.221149 0.712487 0.069693
Si Si3 0.440160 0.416995 0.656714
Si Si4 0.785516 0.595820 0.319475
Si Si5 0.116321 0.613815 0.015619
Si Si6 0.060585 0.146821 0.628754
Si Si7 0.796760 0.637379 0.694356
O O1 0.098875 0.142507 0.291076
O O2 0.163543 0.166831 0.183582
O O3 0.075548 0.266618 0.185654
O O4 0.149224 0.316336 0.275701
O O5 0.251983 0.620666 0.109203
O O6 0.163500 0.677710 0.048175
O O7 0.218977 0.809349 0.120917
O O8 0.250000 0.750000 0.000000
O O9 0.500000 0.389974 0.676393
O O10 0.430390 0.386525 0.573960
O O11 0.428722 0.537100 0.664823
O O12 0.750000 0.618042 0.250000
O O13 0.805297 0.480628 0.322319
O O14 0.136467 0.500000 0.000000
O O15 0.094910 0.664016 0.942755
O O16 0.000000 0.158502 0.607586
O O17 0.750000 0.655047 0.750000
#
# Coordination Sequence:
#
# PCOD8263168 Si02
#       7
#    16  16  16  16  16  16  16
#     4  12  19  38  56  87 110 151 186 231 284 338
#     4  12  23  37  55  86 116 152 191 226 277 339
#     4  10  20  36  58  83 111 143 188 240 286 335
#     4  11  22  38  57  82 117 151 190 233 275 334
#     4  10  21  36  57  81 113 146 184 235 284 329
#     4  10  22  37  58  86 111 142 186 238 291 334
#     4  11  23  38  58  81 117 154 187 230 280 335
#
# _framework density 17.992889999999999
#
# number of rings (size 3 to 8) (size 9 to 14) (size 15 to 20)
#    0.000    1.143    4.286    2.571    2.000    4.000 
#    0.000    0.000    0.000    0.000    0.000    1.000 
#    0.000    0.000    0.000    0.000    0.000    0.000 
#
# Total GULP energy -694629.388218 kJ/mol
# GULP energy per Si atom -12404.096218 kJ/mol
# Density = 1.795194 g / cm^3
# Si number density = 17.992890 Si / 1000 Ang^3
#
#
#
# Elastic Constant Matrix: (Units=GPa)
#
#
# Indices 1 2 3 4 5 6 
#
# 1 92.7457 47.4764 38.1934 0.0000 0.0000 0.0000
# 2 47.4764 101.0722 47.3580 0.0000 0.0000 0.0000
# 3 38.1934 47.3580 106.3025 0.0000 0.0000 0.0000
# 4 0.0000 0.0000 0.0000 7.1570 0.0000 0.0000
# 5 0.0000 0.0000 0.0000 0.0000 36.4832 0.0000
# 6 0.0000 0.0000 0.0000 0.0000 0.0000 28.9429
#
#
#
# Elastic Compliance Matrix: (Units=1/GPa)
#
#
# Indices 1 2 3 4 5 6 
#
# 1 0.014832 -0.005649 -0.002812 0.000000 0.000000 0.000000
# 2 -0.005649 0.014656 -0.004499 0.000000 0.000000 0.000000
# 3 -0.002812 -0.004499 0.012422 0.000000 0.000000 0.000000
# 4 0.000000 0.000000 0.000000 0.139723 0.000000 0.000000
# 5 0.000000 0.000000 0.000000 0.000000 0.027410 0.000000
# 6 0.000000 0.000000 0.000000 0.000000 0.000000 0.034551
#
#
# Mechanical properties :
#
#
# Convention : Reuss Voigt Hill
#
# Bulk Modulus (GPa) = 62.54723 62.90844 62.72784
# Shear Modulus (GPa) = 18.19205 25.65614 21.92410
#
# Velocity S-wave (km/s) = 3.18318 3.78021 3.49447
# Velocity P-wave (km/s) = 6.95326 7.35474 7.15682
#
# Compressibility (1/GPa) = 0.01598792
#
# Stress axis : x y z
#
# Youngs Moduli (GPa) = 67.42095 68.23224 80.50207
#
# Poissons Ratio (x) = 0.38547 0.22639
# Poissons Ratio (y) = 0.38089 0.36221
# Poissons Ratio (z) = 0.18960 0.30701
#
# Static dielectric constant tensor:
#      x y z
#    x 3.410540 0.000000 0.000000 
#    y 0.000000 2.671670 0.000000 
#    z 0.000000 0.000000 3.345280 
# 
# 
# High freq. dielectric constant tensor:
#      x y z
#    x 1.700400 0.000000 0.000000 
#    y 0.000000 1.696270 0.000000 
#    z 0.000000 0.000000 1.700340 
# 
# From -- ./inp_files/28080.got.cif
#   From: 2010.03.12/outbox.cif.g09.slc.cpg/sg64_15_cif.got.tgz:28080.got - 2010.04.10 20:19:32.
