data_PCOD8263474
_publ_section_title
;
Structure prediction by ZEFSAII (Michael W. Deem and Ramdas Pophale) SiO2 
 PCOD8263474
Probable space group: C M C A
;
_chemical_formula_sum "Si O2"
_cell_formula_units_Z 96
_cell_length_a 17.077680
_cell_length_b 19.787909
_cell_length_c 14.111514
_cell_angle_alpha 90.000000
_cell_angle_beta 90.000000
_cell_angle_gamma 90.000000
_cell_volume 4768.726191
_symmetry_space_group_name_H-M "C M C A"
_symmetry_group_IT_number 64
_symmetry_cell_setting 'orthorhombic'
loop_
_space_group_symop_operation_xyz
x,y,z
-x,1/2-y,1/2+z
x,-y,-z
-x,1/2+y,1/2-z
-x,-y,-z
x,1/2+y,1/2-z
-x,y,z
x,1/2-y,1/2+z
1/2+x,1/2+y,z
1/2-x,-y,1/2+z
1/2+x,1/2-y,-z
1/2-x,y,1/2-z
1/2-x,1/2-y,-z
1/2+x,y,1/2-z
1/2-x,1/2+y,z
1/2+x,-y,1/2+z
loop_
_atom_site_type_symbol
_atom_site_label
_atom_site_fract_x
_atom_site_fract_y
_atom_site_fract_z
Si Si1 0.090307 0.176066 0.167786
Si Si2 0.161153 0.561707 0.221510
Si Si3 0.090154 0.774542 0.036004
Si Si4 0.590233 0.617939 0.465008
Si Si5 0.089987 0.574386 0.828055
Si Si6 0.660858 0.699867 0.769600
O O1 0.107465 0.099929 0.201227
O O2 0.142405 0.225441 0.231942
O O3 0.000000 0.194720 0.185023
O O4 0.112004 0.183247 0.057606
O O5 0.250000 0.573435 0.250000
O O6 0.146373 0.591184 0.117016
O O7 0.141741 0.482362 0.223403
O O8 0.107137 0.696318 0.014955
O O9 0.145767 0.802628 0.118177
O O10 0.000000 0.785458 0.065620
O O11 0.500000 0.606880 0.434137
O O12 0.609544 0.576786 0.560285
O O13 0.105173 0.646725 0.781908
O O14 0.000000 0.555157 0.813320
O O15 0.750000 0.680353 0.750000
#
# Coordination Sequence:
#
# PCOD8263474 Si02
#       6
#    16  16  16  16  16  16
#     4  11  22  40  63  89 122 166 210 251 303 371
#     4  12  25  40  60  93 131 162 200 259 323 372
#     4  10  21  38  63  94 124 159 211 258 299 365
#     4  10  20  38  67  95 119 158 214 268 303 351
#     4  11  23  43  67  91 121 166 215 259 306 368
#     4  12  24  38  62  94 131 164 199 257 318 370
#
# _framework density 20.131162
#
# number of rings (size 3 to 8) (size 9 to 14) (size 15 to 20)
#    0.000    1.000    3.333    4.500    0.000    3.333 
#    0.000    2.500    0.000    3.000    0.000    0.000 
#    0.000    0.000    0.000    0.000    0.000    0.000 
#
# Total GULP energy -595540.020206 kJ/mol
# GULP energy per Si atom -12407.083754 kJ/mol
# Density = 2.008534 g / cm^3
# Si number density = 20.131162 Si / 1000 Ang^3
#
#
#
# Elastic Constant Matrix: (Units=GPa)
#
#
# Indices 1 2 3 4 5 6 
#
# 1 72.0466 33.9209 58.6445 0.0000 0.0000 0.0000
# 2 33.9209 80.9680 41.4686 0.0000 0.0000 0.0000
# 3 58.6445 41.4686 129.4508 0.0000 0.0000 0.0000
# 4 0.0000 0.0000 0.0000 36.2142 0.0000 0.0000
# 5 0.0000 0.0000 0.0000 0.0000 20.4989 0.0000
# 6 0.0000 0.0000 0.0000 0.0000 0.0000 8.2018
#
#
#
# Elastic Compliance Matrix: (Units=1/GPa)
#
#
# Indices 1 2 3 4 5 6 
#
# 1 0.023756 -0.005312 -0.009060 0.000000 0.000000 0.000000
# 2 -0.005312 0.015962 -0.002707 0.000000 0.000000 0.000000
# 3 -0.009060 -0.002707 0.012697 0.000000 0.000000 0.000000
# 4 0.000000 0.000000 0.000000 0.027614 0.000000 0.000000
# 5 0.000000 0.000000 0.000000 0.000000 0.048783 0.000000
# 6 0.000000 0.000000 0.000000 0.000000 0.000000 0.121924
#
#
# Mechanical properties :
#
#
# Convention : Reuss Voigt Hill
#
# Bulk Modulus (GPa) = 54.77562 61.17038 57.97300
# Shear Modulus (GPa) = 17.18333 22.87840 20.03086
#
# Velocity S-wave (km/s) = 2.92476 3.37481 3.15781
# Velocity P-wave (km/s) = 6.21885 6.75557 6.49275
#
# Compressibility (1/GPa) = 0.01825630
#
# Stress axis : x y z
#
# Youngs Moduli (GPa) = 42.09487 62.64737 78.76072
#
# Poissons Ratio (x) = 0.33278 0.71360
# Poissons Ratio (y) = 0.22361 0.21320
# Poissons Ratio (z) = 0.38140 0.16958
#
# Static dielectric constant tensor:
#      x y z
#    x 3.499150 0.000000 0.000000 
#    y 0.000000 3.592560 0.000000 
#    z 0.000000 0.000000 3.727300 
# 
# 
# High freq. dielectric constant tensor:
#      x y z
#    x 1.778730 0.000000 0.000000 
#    y 0.000000 1.784850 0.000000 
#    z 0.000000 0.000000 1.793120 
# 
# From -- ./inp_files/23845.got.cif
#   From: 2010.03.12/outbox.cif.g09.slc.cpg/sg64_12_cif.got.tgz:23845.got - 2010.04.10 20:19:32.
