data_PCOD8263174
_publ_section_title
;
Structure prediction by ZEFSAII (Michael W. Deem and Ramdas Pophale) SiO2 
 PCOD8263174
Probable space group: C M C A
;
_chemical_formula_sum "Si O2"
_cell_formula_units_Z 96
_cell_length_a 8.744511
_cell_length_b 25.221370
_cell_length_c 23.292685
_cell_angle_alpha 90.000000
_cell_angle_beta 90.000000
_cell_angle_gamma 90.000000
_cell_volume 5137.167842
_symmetry_space_group_name_H-M "C M C A"
_symmetry_group_IT_number 64
_symmetry_cell_setting 'orthorhombic'
loop_
_space_group_symop_operation_xyz
x,y,z
-x,1/2-y,1/2+z
x,-y,-z
-x,1/2+y,1/2-z
-x,-y,-z
x,1/2+y,1/2-z
-x,y,z
x,1/2-y,1/2+z
1/2+x,1/2+y,z
1/2-x,-y,1/2+z
1/2+x,1/2-y,-z
1/2-x,y,1/2-z
1/2-x,1/2-y,-z
1/2+x,y,1/2-z
1/2-x,1/2+y,z
1/2+x,-y,1/2+z
loop_
_atom_site_type_symbol
_atom_site_label
_atom_site_fract_x
_atom_site_fract_y
_atom_site_fract_z
Si Si1 0.325596 0.406717 0.118485
Si Si2 0.680959 0.306771 0.811040
Si Si3 0.821443 0.997920 0.311559
Si Si4 0.179262 0.805250 0.190226
Si Si5 0.176204 0.939452 0.992036
Si Si6 0.179956 0.600381 0.120682
O O1 0.500000 0.422285 0.133570
O O2 0.215660 0.448932 0.147657
O O3 0.286571 0.348217 0.141211
O O4 0.298885 0.406894 0.050476
O O5 0.500000 0.305702 0.805822
O O6 0.750000 0.324689 0.750000
O O7 0.741247 0.249060 0.829121
O O8 0.731928 0.347172 0.860095
O O9 0.750000 0.988730 0.250000
O O10 0.759732 0.051797 0.340335
O O11 0.000000 0.001570 0.303298
O O12 0.250000 0.826005 0.250000
O O13 0.000000 0.795087 0.199055
O O14 0.281079 0.911138 0.945237
O O15 0.000000 0.938286 0.971872
O O16 0.230544 0.000000 0.000000
O O17 0.000000 0.609223 0.127218
#
# Coordination Sequence:
#
# PCOD8263174 Si02
#       6
#    16  16  16  16  16  16
#     4  10  21  37  58  84 114 150 190 232 282 338
#     4  11  22  38  61  86 114 149 189 233 287 343
#     4  11  23  35  53  81 114 147 183 230 283 338
#     4  10  20  36  58  84 115 148 187 231 281 339
#     4  10  20  37  60  83 113 154 194 235 284 339
#     4  11  23  38  57  84 115 150 192 237 284 337
#
# _framework density 18.687339999999999
#
# number of rings (size 3 to 8) (size 9 to 14) (size 15 to 20)
#    0.000    1.500    1.667    5.000    0.000    7.000 
#    0.000    0.833    0.000    0.000    0.000    0.000 
#    0.000    0.000    0.000    0.000    0.000    0.000 
#
# Total GULP energy -595470.662385 kJ/mol
# GULP energy per Si atom -12405.638800 kJ/mol
# Density = 1.864481 g / cm^3
# Si number density = 18.687340 Si / 1000 Ang^3
#
#
#
# Elastic Constant Matrix: (Units=GPa)
#
#
# Indices 1 2 3 4 5 6 
#
# 1 93.1135 47.3807 33.5421 0.0000 0.0000 0.0000
# 2 47.3807 113.1531 52.6044 0.0000 0.0000 0.0000
# 3 33.5421 52.6044 73.5776 0.0000 0.0000 0.0000
# 4 0.0000 0.0000 0.0000 31.3313 0.0000 0.0000
# 5 0.0000 0.0000 0.0000 0.0000 32.4244 0.0000
# 6 0.0000 0.0000 0.0000 0.0000 0.0000 28.1967
#
#
#
# Elastic Compliance Matrix: (Units=1/GPa)
#
#
# Indices 1 2 3 4 5 6 
#
# 1 0.014169 -0.004389 -0.003322 0.000000 0.000000 0.000000
# 2 -0.004389 0.014597 -0.008435 0.000000 0.000000 0.000000
# 3 -0.003322 -0.008435 0.021136 0.000000 0.000000 0.000000
# 4 0.000000 0.000000 0.000000 0.031917 0.000000 0.000000
# 5 0.000000 0.000000 0.000000 0.000000 0.030841 0.000000
# 6 0.000000 0.000000 0.000000 0.000000 0.000000 0.035465
#
#
# Mechanical properties :
#
#
# Convention : Reuss Voigt Hill
#
# Bulk Modulus (GPa) = 56.78325 60.76653 58.77489
# Shear Modulus (GPa) = 26.84025 28.14495 27.49260
#
# Velocity S-wave (km/s) = 3.79394 3.88506 3.83977
# Velocity P-wave (km/s) = 7.04584 7.26037 7.15391
#
# Compressibility (1/GPa) = 0.01761083
#
# Stress axis : x y z
#
# Youngs Moduli (GPa) = 70.57439 68.50762 47.31247
#
# Poissons Ratio (x) = 0.30068 0.15715
# Poissons Ratio (y) = 0.30975 0.39909
# Poissons Ratio (z) = 0.23442 0.57788
#
# Static dielectric constant tensor:
#      x y z
#    x 3.487260 0.000000 0.000000 
#    y 0.000000 3.466250 0.000000 
#    z 0.000000 0.000000 3.483520 
# 
# 
# High freq. dielectric constant tensor:
#      x y z
#    x 1.733640 0.000000 0.000000 
#    y 0.000000 1.727290 0.000000 
#    z 0.000000 0.000000 1.723780 
# 
# From -- ./inp_files/36954.got.cif
#   From: 2010.03.12/outbox.cif.g09.slc.cpg/sg64_19_cif.got.tgz:36954.got - 2010.04.10 20:19:32.
